Adsorption isotherm of Carbon Dioxide on Zeolite 13X / Carbon Honeycomb Monolith
DOI: 10.1007/s10450-018-9938-1
Article source: Figure 5a
Adsorbate Carbon Dioxide: InChIKey CURLTUGMZLYLDI-UHFFFAOYSA-N
Kind: experiment
Temperature: 273 K
Tabular data in the source: 0
pressure (bar)	uptake (cm3(STP)/g)
0.000702	28.8
0.001066	32.8889
0.00156	36.5333
0.001976	39.1111
0.002964	43.3778
0.003952	46.4
0.004993	48.7111
0.006085	50.5778
0.007073	52.1778
0.008607	54.3111
0.010141	56
0.012143	58.2222
0.014224	59.9111
0.01724	62.3111
0.020308	64.2667
0.022779	65.7778
0.025379	67.2
0.027901	68.7111
0.030424	69.8667
