Adsorption isotherm of Carbon Dioxide, Nitrogen on Zeolite 13X / Carbon Honeycomb Monolith
DOI: 10.1007/s10450-018-9938-1
Article source: Figure 10
Adsorbate Carbon Dioxide: InChIKey CURLTUGMZLYLDI-UHFFFAOYSA-N
Adsorbate Nitrogen: InChIKey IJGRMHOSHXDMSA-UHFFFAOYSA-N
Kind: experiment
Temperature: 297 K
Tabular data in the source: 0
pressure (bar)	Carbon Dioxide fraction	Carbon Dioxide uptake (mmol/g)	Nitrogen fraction	Nitrogen uptake (mmol/g)	total uptake (mmol/g)
2.4	0.000421	0	1	3.06005	
2.4	0.098147	1.49663	0.901853	1.72839	
2.4	0.190396	2.24691	0.809604	1.35915	
2.4	0.390901	2.47082	0.609099	0.604938	
2.4	1	2.93041	0	0	
