Adsorption isotherm of Nitrogen on Zeolite 13X / Carbon Honeycomb Monolith
DOI: 10.1007/s10450-018-9938-1
Article source: Figure 9
Adsorbate Nitrogen: InChIKey IJGRMHOSHXDMSA-UHFFFAOYSA-N
Kind: experiment
Temperature: 303 K
Tabular data in the source: 0
pressure (bar)	uptake (cm3(STP)/g)
0.150154	0.04984
0.520615	0.139723
0.989538	0.229606
1.48062	0.297338
0.211692	0.073269
0.347077	0.102662
0.820923	0.194249
