Adsorption isotherm of Nitrogen on Zeolite 13X / Carbon Honeycomb Monolith
DOI: 10.1007/s10450-018-9938-1
Article source: Figure 4a
Adsorbate Nitrogen: InChIKey IJGRMHOSHXDMSA-UHFFFAOYSA-N
Kind: experiment
Temperature: 77 K
Tabular data in the source: 0
pressure (bar)	uptake (cm3(STP)/g)
0.000805	97.1604
0.00161	101.336
0.002414	106.347
0.002414	110.802
0.004829	115.535
0.008048	118.875
0.013682	122.494
0.02012	126.114
0.029778	128.898
0.037826	131.125
0.047484	133.352
0.057946	135.022
0.068408	136.693
0.080481	138.363
0.094967	140.59
0.119111	143.374
0.140841	145.323
0.162571	147.272
0.181081	148.942
0.202006	150.334
0.22615	151.448
0.251904	152.561
0.277658	154.232
0.305826	155.902
0.330775	157.016
0.354114	158.129
0.377454	158.964
0.402403	160.635
0.426547	161.47
0.453105	162.305
0.479664	163.419
0.504613	163.697
0.530367	164.811
0.555316	165.924
0.57785	166.759
0.603604	168.151
0.631772	169.822
0.657526	170.657
0.680865	172.606
0.704205	174.276
0.729154	176.503
0.754907	180.122
0.784685	185.69
0.801586	190.423
0.831364	199.889
0.853094	206.849
0.884481	212.695
0.905406	214.922
0.93116	216.592
0.945646	218.263
0.960938	219.376
0.974619	220.768
0.985082	222.439
0.997959	223.831
0.306631	157.572
0.356529	159.8
0.407232	161.748
0.430571	162.584
0.450691	163.697
0.470006	164.532
0.483688	165.646
0.506223	166.759
0.531172	168.151
0.556925	169.265
0.57946	170.935
0.609238	172.884
0.637406	174.833
0.663964	176.503
0.688109	180.122
0.712253	184.855
0.738007	194.042
0.76376	202.673
0.790319	209.633
0.813658	213.252
0.835388	215.479
0.862751	217.149
0.880457	217.706
0.899772	218.541
0.917478	219.655
0.935184	221.325
0.957718	222.439
0.97301	223.831
0.985887	225.501
0.997154	227.171
1.00762	228.842
