Adsorption isotherm of Carbon Dioxide on Zeolite 13X / Carbon Honeycomb Monolith
DOI: 10.1007/s10450-018-9938-1
Article source: Figure 9
Adsorbate Carbon Dioxide: InChIKey CURLTUGMZLYLDI-UHFFFAOYSA-N
Kind: experiment
Temperature: 333 K
Tabular data in the source: 0
pressure (bar)	uptake (cm3(STP)/g)
0.120523	0.726877
0.439047	1.40152
0.981399	1.85854
1.48071	2.11099
0.060261	0.457018
0.220138	1.04461
0.320984	1.25789
0.810453	1.77149
