Adsorption isotherm of Carbon Dioxide on Zeolite 13X / Carbon Honeycomb Monolith
DOI: 10.1007/s10450-018-9938-1
Article source: Figure 9
Adsorbate Carbon Dioxide: InChIKey CURLTUGMZLYLDI-UHFFFAOYSA-N
Kind: experiment
Temperature: 303 K
Tabular data in the source: 0
pressure (bar)	uptake (cm3(STP)/g)
0.100846	1.32318
0.482091	2.13711
0.959262	2.53754
1.45242	2.83351
0.063951	1.13166
0.222598	1.79761
0.338201	2.0457
0.779708	2.4679
