Adsorption isotherm of Nitrogen on Zeolite 13X / Carbon Honeycomb Monolith
DOI: 10.1007/s10450-018-9938-1
Article source: Figure 9
Adsorbate Nitrogen: InChIKey IJGRMHOSHXDMSA-UHFFFAOYSA-N
Kind: experiment
Temperature: 333 K
Tabular data in the source: 0
pressure (bar)	uptake (cm3(STP)/g)
0.150154	0.047284
0.489846	0.102662
1.02031	0.162726
1.48062	0.213845
0.809846	0.143557
