Adsorption isotherm of Carbon Dioxide on Zeolite 13X / Carbon Honeycomb Monolith
DOI: 10.1007/s10450-018-9938-1
Article source: Figure 9
Adsorbate Carbon Dioxide: InChIKey CURLTUGMZLYLDI-UHFFFAOYSA-N
Kind: experiment
Temperature: 373 K
Tabular data in the source: 0
pressure (bar)	uptake (cm3(STP)/g)
0.198002	0.452666
0.520215	0.796518
1.01583	1.14472
1.52129	1.4407
0.029516	0.078346
0.200461	0.517954
0.329593	0.696409
0.790776	1.07943
