Adsorption isotherm of Acetone on N-GNF
DOI: 10.1007/s10450-021-00349-1
Article source: Figure 3D
Adsorbate Acetone: InChIKey CSCPPACGZOOCGX-UHFFFAOYSA-N
Kind: experiment
Temperature: 303 K
Tabular data in the source: 0
pressure (bar)	uptake (wt%)
0.0007	0.168282
0.018505	8.46969
0.037136	10.423
0.055192	11.8879
0.074966	13.1275
0.093306	14.1792
0.112219	15.1559
0.131419	16.3203
0.150619	17.4472
0.187301	19.7386
0.225129	22.2177
0.262674	25.3354
0.300509	28.979
0.337204	33.9373
0.300228	29.9932
0.262682	26.838
0.225138	23.9456
0.18731	21.5791
0.150056	19.2878
0.131429	18.1609
0.11194	16.7335
0.093314	15.7569
0.074687	14.7427
0.055488	13.8036
0.03772	12.6392
0.019091	11.1367
