Adsorption isotherm of Acetone on CNT
DOI: 10.1007/s10450-021-00349-1
Article source: Figure 3A
Adsorbate Acetone: InChIKey CSCPPACGZOOCGX-UHFFFAOYSA-N
Kind: experiment
Temperature: 303 K
Tabular data in the source: 0
pressure (bar)	uptake (wt%)
0.000868	0.119701
0.018668	2.89333
0.037324	4.04626
0.056265	4.76116
0.07493	5.24246
0.093316	5.69457
0.11226	6.14666
0.130926	6.56955
0.149312	7.02166
0.187478	7.98423
0.224806	9.00524
0.262131	10.3329
0.299731	11.9671
0.337879	14.3751
0.300284	12.3613
0.262405	10.7125
0.224802	9.34105
0.187474	8.26165
0.150144	7.35745
0.130642	6.91998
0.112256	6.46787
0.093032	6.1618
0.075202	5.70968
0.056538	5.21378
0.037318	4.52808
0.018661	3.44816
2.4e-05	0.747554
