Adsorption isotherm of Acetone on N-CNT
DOI: 10.1007/s10450-021-00349-1
Article source: Figure 3B
Adsorbate Acetone: InChIKey CSCPPACGZOOCGX-UHFFFAOYSA-N
Kind: experiment
Temperature: 303 K
Tabular data in the source: 0
pressure (bar)	uptake (wt%)
0.00187	0.132536
0.018236	5.15586
0.036909	6.58785
0.055728	7.54284
0.074832	8.35756
0.093367	9.11614
0.111902	9.81859
0.131149	10.6053
0.149826	11.3919
0.187179	13.1616
0.224814	15.3241
0.262447	17.8795
0.299792	20.7995
0.336848	24.1405
0.299787	21.529
0.261868	19.0579
0.224517	17.0637
0.187449	15.3502
0.149525	13.8049
0.130997	12.0643
0.111613	10.3517
0.093364	9.59313
0.074544	8.8626
0.056294	8.1321
0.036619	7.23317
0.018089	5.88537
0.000433	1.70373
