Adsorption isotherm of Acetone on GNF
DOI: 10.1007/s10450-021-00349-1
Article source: Figure 3C
Adsorbate Acetone: InChIKey CSCPPACGZOOCGX-UHFFFAOYSA-N
Kind: experiment
Temperature: 303 K
Tabular data in the source: 0
pressure (bar)	uptake (wt%)
0.000999	0.769212
0.037697	29.1938
0.074694	39.1622
0.112696	46.8061
0.149446	55.5442
0.18719	66.3326
0.224924	81.2223
0.261896	100.761
0.299857	124.537
0.336814	149.543
0.374278	171.952
0.337039	159.113
0.300061	142.036
0.261831	125.642
0.225337	114.99
0.187102	100.237
0.149639	77.2814
0.112187	50.4975
0.074936	42.1698
0.037188	32.4751
0.000985	6.23771
