Adsorption isotherm of Carbon Dioxide, Nitrogen on IRMOF-1
DOI: 10.1016/j.seppur.2018.01.013
Article source: Table 4
Adsorbate Carbon Dioxide: InChIKey CURLTUGMZLYLDI-UHFFFAOYSA-N
Adsorbate Nitrogen: InChIKey IJGRMHOSHXDMSA-UHFFFAOYSA-N
Kind: experiment
Temperature: 297 K
Tabular data in the source: 0
pressure (bar)	Carbon Dioxide fraction	Carbon Dioxide uptake (mmol/g)	Nitrogen fraction	Nitrogen uptake (mmol/g)	total uptake (mmol/g)
15.03	0.804	12.9737	0.197	0.34632	13.32
14.99	0.503	6.7606	0.497	0.9394	7.7
15.07	0.202	2.41803	0.798	1.59197	4.01
