Adsorption isotherm of Methane on IRMOF-1
DOI: 10.1016/j.seppur.2018.01.013
Article source: Table 3
Adsorbate Methane: InChIKey VNWKTOKETHGBQD-UHFFFAOYSA-N
Kind: experiment
Temperature: 297 K
Tabular data in the source: 0
pressure (bar)	uptake (mmol/g)
0	0
1	0.38
1.95	0.72
4.86	1.68
7.83	2.62
13.21	4.13
18.63	5.48
24.09	6.71
29.61	7.75
35.17	8.65
40.79	8.38
46.43	10.03
52.31	10.55
