Adsorption isotherm of Nitrogen, Methane on IRMOF-1
DOI: 10.1016/j.seppur.2018.01.013
Article source: Table 4
Adsorbate Nitrogen: InChIKey IJGRMHOSHXDMSA-UHFFFAOYSA-N
Adsorbate Methane: InChIKey VNWKTOKETHGBQD-UHFFFAOYSA-N
Kind: experiment
Temperature: 297 K
Tabular data in the source: 0
pressure (bar)	Nitrogen fraction	Nitrogen uptake (mmol/g)	Methane fraction	Methane uptake (mmol/g)	total uptake (mmol/g)
15.06	0.502	0.92296	0.499	2.39704	3.32
5.02	0.502	0.31584	0.499	0.80416	1.12
0	0.501	0	0.499	0	0
