Adsorption isotherm of Carbon Dioxide, Methane on IRMOF-1
DOI: 10.1016/j.seppur.2018.01.013
Article source: Table 4
Adsorbate Carbon Dioxide: InChIKey CURLTUGMZLYLDI-UHFFFAOYSA-N
Adsorbate Methane: InChIKey VNWKTOKETHGBQD-UHFFFAOYSA-N
Kind: experiment
Temperature: 297 K
Tabular data in the source: 0
pressure (bar)	Carbon Dioxide fraction	Carbon Dioxide uptake (mmol/g)	Methane fraction	Methane uptake (mmol/g)	total uptake (mmol/g)
14.98	0.494	6.86084	0.506	2.29916	9.16
10.01	0.499	4.1876	0.501	1.6124	5.8
4.99	0.498	1.97224	0.502	0.79776	2.77
0	0.497	0	0.503	0	0
