Adsorption isotherm of Carbon Dioxide, Methane on IRMOF-1
DOI: 10.1016/j.seppur.2018.01.013
Article source: Table 4
Adsorbate Carbon Dioxide: InChIKey CURLTUGMZLYLDI-UHFFFAOYSA-N
Adsorbate Methane: InChIKey VNWKTOKETHGBQD-UHFFFAOYSA-N
Kind: experiment
Temperature: 297 K
Tabular data in the source: 0
pressure (bar)	Carbon Dioxide fraction	Carbon Dioxide uptake (mmol/g)	Methane fraction	Methane uptake (mmol/g)	total uptake (mmol/g)
5	0.799	3.4466	0.201	0.3534	3.8
4.99	0.498	1.97224	0.502	0.79776	2.77
4.98	0.207	0.80396	0.793	1.21604	2.02
