Adsorption isotherm of Nitrogen on IRMOF-1
DOI: 10.1016/j.seppur.2018.01.013
Article source: Table 3
Adsorbate Nitrogen: InChIKey IJGRMHOSHXDMSA-UHFFFAOYSA-N
Kind: experiment
Temperature: 297 K
Tabular data in the source: 0
pressure (bar)	uptake (mmol/g)
0	0
1.05	0.17
2.14	0.29
4.67	0.63
14.65	1.81
25.17	2.81
34.65	3.59
44.43	4.27
53.64	4.79
62.68	5.23
72.14	5.59
80.42	5.88
88.6	6.16
