Adsorption isotherm of Carbon Dioxide on IRMOF-1
DOI: 10.1016/j.seppur.2018.01.013
Article source: Table 3
Adsorbate Carbon Dioxide: InChIKey CURLTUGMZLYLDI-UHFFFAOYSA-N
Kind: experiment
Temperature: 297 K
Tabular data in the source: 0
pressure (bar)	uptake (mmol/g)
0	0
0.69	0.58
0.89	0.76
1.21	0.97
1.8	1.48
2.68	2.21
3.18	2.6
5.41	4.65
8.7	8.56
11.22	12.07
15.81	16.92
