Adsorption isotherm of Nitrogen, Methane on IRMOF-1
DOI: 10.1016/j.seppur.2018.01.013
Article source: Table 4
Adsorbate Nitrogen: InChIKey IJGRMHOSHXDMSA-UHFFFAOYSA-N
Adsorbate Methane: InChIKey VNWKTOKETHGBQD-UHFFFAOYSA-N
Kind: experiment
Temperature: 297 K
Tabular data in the source: 0
pressure (bar)	Nitrogen fraction	Nitrogen uptake (mmol/g)	Methane fraction	Methane uptake (mmol/g)	total uptake (mmol/g)
15.03	0.2	0.34085	0.8	3.66915	4.01
15.06	0.5	0.92296	0.5	2.39704	3.32
15.02	0.8	1.59034	0.2	1.02966	2.62
