Adsorption isotherm of Nitrogen, Methane on IRMOF-1
DOI: 10.1016/j.seppur.2018.01.013
Article source: Table 4
Adsorbate Nitrogen: InChIKey IJGRMHOSHXDMSA-UHFFFAOYSA-N
Adsorbate Methane: InChIKey VNWKTOKETHGBQD-UHFFFAOYSA-N
Kind: experiment
Temperature: 297 K
Tabular data in the source: 0
pressure (bar)	Nitrogen fraction	Nitrogen uptake (mmol/g)	Methane fraction	Methane uptake (mmol/g)	total uptake (mmol/g)
5.02	0.2	0.12665	0.8	1.36335	1.49
5.02	0.5	0.31584	0.5	0.80416	1.12
