Adsorption isotherm of Methylene blue, Congo Red, Water on Jujube Shell (Zizyphus Lotus) pretreated with sulfuric acid and sodium bicarbonate
DOI: 10.1080/01932691.2016.1228070
Article source: Figure 7
Adsorbate Methylene blue: InChIKey CXKWCBBOMKCUKX-UHFFFAOYSA-M
Adsorbate Congo Red: InChIKey IQFVPQOLBLOTPF-HKXUKFGYSA-L
Adsorbate Water: InChIKey XLYOFNOQVPJJNP-UHFFFAOYSA-N
Kind: experiment
Temperature: 323 K
Tabular data in the source: 0
pressure (bar)	Methylene blue fraction	Methylene blue uptake (mg/g)	Congo Red fraction	Congo Red uptake (mg/g)	Water fraction	Water uptake (mg/g)	total uptake (mg/g)
1.01325	1.12	0.456	1.12	0.456			
1.01325	99.78	100.24	100.06	68.321			
1.01325	200.02	182.62	200.21	92.564			
1.01325	299.89	210.359	300.26	95.452			
1.01325	399.94	217.008	400.04	99.176			
1.01325	499.63	220.352	499.72	104.077			
