Adsorption isotherm of Methylene blue, Water, Gentian violet on Jujube Shell (Zizyphus Lotus) pretreated with sulfuric acid and sodium bicarbonate
DOI: 10.1080/01932691.2016.1228070
Article source: Figure 7
Adsorbate Methylene blue: InChIKey CXKWCBBOMKCUKX-UHFFFAOYSA-M
Adsorbate Water: InChIKey XLYOFNOQVPJJNP-UHFFFAOYSA-N
Adsorbate Gentian violet: InChIKey ZXJXZNDDNMQXFV-UHFFFAOYSA-M
Kind: experiment
Temperature: 323 K
Tabular data in the source: 0
pressure (bar)	Methylene blue fraction	Methylene blue uptake (mg/g)	Water fraction	Water uptake (mg/g)	Gentian violet fraction	Gentian violet uptake (mg/g)	total uptake (mg/g)
1.01325	1.12	0.456			1.12	0.456	
1.01325	100.06	89.334			99.78	94.578	
1.01325	199.27	160.695			200.11	173.728	
1.01325	300.26	183.836			299.42	203.101	
1.01325	399.76	194.741			400.32	213.664	
1.01325	499.91	200.175			499.53	216.932	
