Adsorption isotherm of Methylene blue, Congo Red, Water, Gentian violet on Jujube Shell (Zizyphus Lotus) pretreated with sulfuric acid and sodium bicarbonate
DOI: 10.1080/01932691.2016.1228070
Article source: Figure 7
Adsorbate Methylene blue: InChIKey CXKWCBBOMKCUKX-UHFFFAOYSA-M
Adsorbate Congo Red: InChIKey IQFVPQOLBLOTPF-HKXUKFGYSA-L
Adsorbate Water: InChIKey XLYOFNOQVPJJNP-UHFFFAOYSA-N
Adsorbate Gentian violet: InChIKey ZXJXZNDDNMQXFV-UHFFFAOYSA-M
Kind: experiment
Temperature: 323 K
Tabular data in the source: 0
pressure (bar)	Methylene blue fraction	Methylene blue uptake (mg/g)	Congo Red fraction	Congo Red uptake (mg/g)	Water fraction	Water uptake (mg/g)	Gentian violet fraction	Gentian violet uptake (mg/g)	total uptake (mg/g)
1.01325	1.12	0.456	1.12	0.456			1.12	0.456	
1.01325	100.32	83.525	100.24	59.125			99.87	89.296	
1.01325	199.93	149.219	200.02	85.192			200.3	162.633	
1.01325	300.26	171.752	299.89	89.676			300.07	187.218	
1.01325	399.66	182.772	400.39	92.602			399.66	202.987	
1.01325	499.91	188.092	499.53	93.324			499.91	206.483	
