Adsorption isotherm of Carbon Dioxide on Zn2(C2O4)(C2N4H3)2.(H2O)0.5
DOI: 10.1039/B911481e
Adsorbate Carbon Dioxide: InChIKey CURLTUGMZLYLDI-UHFFFAOYSA-N
Temperature: 273 K
Tabular data in the source: 0
pressure (bar)	uptake (mmol/g)
0.00740741	0.718336
0.00987654	0.897921
0.0123457	1.08696
0.017284	1.23819
0.0222222	1.37051
0.0296296	1.51229
0.0320988	1.72968
0.0444444	1.93762
0.0469136	2.06049
0.054321	2.17391
0.0666667	2.32514
0.0716049	2.42911
0.0790123	2.51418
0.091358	2.69376
0.111111	2.82609
0.17284	3.18526
0.234568	3.44045
0.293827	3.61059
0.360494	3.73346
0.417284	3.82798
0.471605	3.90359
0.533333	3.9603
0.595062	4.03592
0.654321	4.07372
0.716049	4.12098
0.77284	4.14934
0.832099	4.18715
0.893827	4.2155
0.955556	4.25331
1.01481	4.28166
1.07901	4.31002
1.19506	4.35728
