Adsorption isotherm of Nitrogen on 2% Sm2O3/ZrO2
DOI: 10.1016/j.catcom.2016.02.017
Article source: Figure 1
Adsorbate Nitrogen: InChIKey IJGRMHOSHXDMSA-UHFFFAOYSA-N
Kind: experiment
Temperature: 77 K
Tabular data in the source: 0
pressure (bar)	uptake (cm3(STP)/g)
0.05274	9.843
0.073896	10.422
0.090463	10.79
0.111549	11.343
0.136333	11.606
0.1514	11.961
0.154703	12.185
0.177146	12.409
0.201343	12.974
0.203349	12.974
0.226897	13.487
0.252968	14.027
0.254913	13.974
0.278522	14.369
0.302486	14.791
0.305667	15.09
0.323602	15.156
0.344546	15.746
0.346096	15.786
0.382117	16.383
0.386524	16.482
0.423701	17.29
0.427906	17.342
0.464322	18.092
0.468719	18.276
0.504436	19.091
0.509168	19.279
0.544794	20.073
0.549526	20.282
0.585051	20.929
0.590603	21.243
0.624588	22.412
0.631883	22.705
0.665584	23.671
0.675676	24.052
0.705627	25.49
0.707441	25.605
0.745539	27.631
0.750585	28.42
0.785745	32.033
0.786728	32.13
0.832101	35.933
0.835972	37.178
0.849296	56.983
0.871172	45.458
0.871547	45.902
0.877616	85.533
0.897942	63.614
0.903363	105.084
0.910233	79.56
0.913972	111.794
0.923547	94.717
0.923932	117.451
0.930538	100.532
0.933761	122.951
0.937388	104.847
0.945535	112.557
0.946436	128.977
0.956265	133.45
0.959507	122.582
0.962405	137.154
0.96662	126.924
0.967948	139.305
0.970248	129.108
0.972467	141.54
0.975679	132.424
0.978526	143.524
0.981718	136.381
0.986227	139.013
0.987361	146.949
0.9926	142.834
0.992803	143.223
0.997828	145.717
0.998031	152.922
1.00275	155.679
1.00461	150.353
1.00665	158.185
1.00727	153.402
1.00943	155.491
1.01127	159.313
