Adsorption isotherm of 1-Butanol on [Cu(INAIP)]*2H2O
DOI: 10.1039/C0cc04689b
Adsorbate 1-Butanol: InChIKey LRHPLDYGYMQRHN-UHFFFAOYSA-N
Temperature: 298 K
Tabular data in the source: 0
pressure (bar)	uptake (cm3(STP)/g)
0.0105646	0.0562473
0.0411528	7.8093
0.0804806	15.2816
0.132918	19.6076
0.207203	21.574
0.270565	22.7538
0.401657	23.5404
0.508716	25.1135
0.641993	25.1135
0.718464	25.1135
0.790565	24.7202
0.910733	25.9001
0.956615	26.2933
0.987203	25.9001
