Adsorption isotherm of Hydrogen on [Cu(INAIP)]*2H2O
DOI: 10.1039/C0cc04689b
Adsorbate Hydrogen: InChIKey UFHFLCQGNIYNRP-UHFFFAOYSA-N
Temperature: 87 K
Tabular data in the source: 0
pressure (bar)	uptake (wt%)
0.0019346	0.0154811
0.0111985	0.0888929
0.0505699	0.20775
0.0992052	0.275918
0.198792	0.337095
0.298378	0.370305
0.404913	0.396523
0.608718	0.422742
0.791679	0.436725
0.902846	0.441969
0.990852	0.445464
