Adsorption isotherm of Hydrogen on [Cu(INAIP)]*2H2O
DOI: 10.1039/C0cc04689b
Adsorbate Hydrogen: InChIKey UFHFLCQGNIYNRP-UHFFFAOYSA-N
Temperature: 77 K
Tabular data in the source: 0
pressure (bar)	uptake (wt%)
0.0019346	0.0626744
0.0111985	0.230473
0.0528859	0.420994
0.108469	0.487414
0.157104	0.527616
0.208056	0.54859
0.30301	0.583548
0.400281	0.608019
0.550819	0.641229
0.661985	0.655212
0.759256	0.667448
0.861158	0.676187
0.9978	0.69017
