Adsorption isotherm of Ethanol on [Cu(INAIP)]*2H2O
DOI: 10.1039/C0cc04689b
Adsorbate Ethanol: InChIKey LFQSCWFLJHTTHZ-UHFFFAOYSA-N
Temperature: 298 K
Tabular data in the source: 0
pressure (bar)	uptake (cm3(STP)/g)
0.0127495	58.1488
0.0826654	59.7219
0.135102	59.7219
0.242161	60.1152
0.338296	61.295
0.449724	61.295
0.550228	60.9017
0.644178	60.9017
0.742497	61.6883
0.832077	61.295
0.912918	62.0816
0.991573	62.4748
