Adsorption isotherm of 2-Propanol on [Cu(INAIP)]*2H2O
DOI: 10.1039/C0cc04689b
Adsorbate 2-Propanol: InChIKey KFZMGEQAYNKOFK-UHFFFAOYSA-N
Temperature: 293 K
Tabular data in the source: 0
pressure (bar)	uptake (cm3(STP)/g)
0.0149343	4.66308
0.0302285	13.7085
0.0498923	21.9673
0.102329	27.8664
0.159136	29.0463
0.215943	31.0127
0.296783	31.4059
0.390733	32.1925
0.580817	32.979
0.773086	32.979
0.882329	33.7656
0.987203	34.5522
