Adsorption isotherm of Carbon Dioxide on [Cu(INAIP)]*2H2O
DOI: 10.1039/C0cc04689b
Adsorbate Carbon Dioxide: InChIKey CURLTUGMZLYLDI-UHFFFAOYSA-N
Temperature: 298 K
Tabular data in the source: 0
pressure (bar)	uptake (cm3(STP)/g)
0.00400996	0.898898
0.0280436	6.0115
0.0695562	12.6972
0.113254	17.9409
0.150397	21.4804
0.196279	24.6266
0.294598	30.1325
0.390733	34.5897
0.495607	38.1292
0.598296	40.751
0.70317	43.1107
0.799304	44.6838
0.893254	46.1258
0.982834	47.3056
