Adsorption isotherm of Nitrogen on [Cu(INAIP)]*2H2O
DOI: 10.1039/C0cc04689b
Adsorbate Nitrogen: InChIKey IJGRMHOSHXDMSA-UHFFFAOYSA-N
Temperature: 298 K
Tabular data in the source: 0
pressure (bar)	uptake (cm3(STP)/g)
0.0389679	0.505621
0.100144	0.505621
0.18317	0.767806
0.253086	0.898898
0.34485	1.42327
0.449724	1.81655
0.550228	2.07873
0.650733	2.07873
0.759976	2.6031
0.803674	2.34091
0.884514	2.86528
0.956615	2.99638
0.985018	2.99638
