Adsorption isotherm of Methanol on [Cu(INAIP)]*2H2O
DOI: 10.1039/C0cc04689b
Adsorbate Methanol: InChIKey OKKJLVBELUTLKV-UHFFFAOYSA-N
Temperature: 298 K
Tabular data in the source: 0
pressure (bar)	uptake (cm3(STP)/g)
0.00400996	6.23619
0.00837971	18.0345
0.0127495	32.979
0.0236738	51.0698
0.0367831	58.1488
0.0826654	63.6547
0.146027	66.4076
0.233422	70.7337
0.338296	71.9135
0.495607	74.6664
0.646363	75.8463
0.799304	77.8127
0.998128	80.1723
