Adsorption isotherm of Carbon Dioxide on [Cu(INAIP)]*2H2O
DOI: 10.1039/C0cc04689b
Adsorbate Carbon Dioxide: InChIKey CURLTUGMZLYLDI-UHFFFAOYSA-N
Temperature: 273 K
Tabular data in the source: 0
pressure (bar)	uptake (cm3(STP)/g)
0.00182509	0.767806
0.0105646	7.8468
0.0258587	15.5813
0.0411528	20.956
0.0608167	27.2485
0.102329	33.9342
0.143842	39.5712
0.198464	43.2418
0.301153	47.5678
0.392918	50.4518
0.499976	52.4182
0.652918	54.5157
0.801489	55.9577
0.939136	56.8754
0.998128	57.2686
