Adsorption isotherm of Nitrogen on [Cu(INAIP)]*2H2O
DOI: 10.1039/C0cc04689b
Adsorbate Nitrogen: InChIKey IJGRMHOSHXDMSA-UHFFFAOYSA-N
Temperature: 273 K
Tabular data in the source: 0
pressure (bar)	uptake (cm3(STP)/g)
0.021489	1.02999
0.0935898	1.55436
0.202833	1.81655
0.296783	2.20982
0.397287	2.6031
0.499976	2.99638
0.602665	3.12747
0.6988	3.25856
0.801489	3.78293
0.884514	4.3073
0.932581	4.70058
0.987203	4.96276
