Adsorption isotherm of Water on [Cu(INAIP)]*2H2O
DOI: 10.1039/C0cc04689b
Adsorbate Water: InChIKey XLYOFNOQVPJJNP-UHFFFAOYSA-N
Temperature: 298 K
Tabular data in the source: 0
pressure (bar)	uptake (cm3(STP)/g)
0.0153064	8.65998
0.0502643	33.8297
0.0575473	48.5121
0.0662868	76.828
0.0750263	95.7054
0.0764828	113.272
0.0881355	135.557
0.107071	143.161
0.159508	149.191
0.255643	154.435
0.369256	158.105
0.517827	161.252
0.680965	163.611
0.829536	166.233
0.98976	168.331
