Adsorption isotherm of Nitrogen on Zn(NDC)(DMBPY) 0.5
DOI: 10.1002/adfm.201101479
Adsorbate Nitrogen: InChIKey IJGRMHOSHXDMSA-UHFFFAOYSA-N
Temperature: 77 K
Tabular data in the source: 0
pressure (bar)	uptake (cm3(STP)/g)
0.00570356	10.5793
0.00756437	20.403
0.0229306	24.1814
0.0479351	24.937
0.0556303	24.937
0.0998729	25.6927
0.151806	27.204
0.199896	27.9597
0.292229	29.471
0.390343	29.471
0.486518	31.738
0.584627	32.4937
0.682732	34.005
0.778912	35.5164
0.877011	37.7834
0.930858	40.806
0.965463	44.5844
