Adsorption isotherm of Carbon Dioxide on Zn(NDC)(BPY) 0.5
DOI: 10.1002/adfm.201101479
Adsorbate Carbon Dioxide: InChIKey CURLTUGMZLYLDI-UHFFFAOYSA-N
Temperature: 273 K
Tabular data in the source: 0
pressure (bar)	uptake (wt%)
0.0376089	0.423971
0.0522179	0.684603
0.0710195	0.912848
0.0835463	1.10837
0.108623	1.36934
0.133699	1.63031
0.162957	1.92393
0.20477	2.25047
0.2215	2.34857
0.240319	2.47926
0.259132	2.64246
0.275857	2.77308
0.296775	2.87131
0.338593	3.16534
0.357418	3.2635
0.378336	3.36174
0.395055	3.52487
0.411797	3.55793
0.430621	3.6561
0.449446	3.75426
0.470364	3.85249
0.489188	3.95066
0.508012	4.04883
0.526848	4.08195
0.545672	4.18012
0.562397	4.31073
0.583332	4.31141
0.602156	4.40957
0.620986	4.47522
0.63353	4.57318
0.654465	4.57385
0.673289	4.67202
0.692119	4.73766
0.719317	4.83609
0.738147	4.90174
0.759071	4.96745
0.777901	5.0331
0.796731	5.09874
0.817666	5.09941
0.83649	5.19758
0.855326	5.2307
0.876249	5.29642
0.897172	5.36213
0.916014	5.36273
0.934838	5.4609
0.955767	5.49409
0.974597	5.55974
0.995526	5.59293
1.01646	5.62612
