Adsorption isotherm of Hydrogen on Zn(NDC)(DMBPY) 0.5
DOI: 10.1002/adfm.201101479
Adsorbate Hydrogen: InChIKey UFHFLCQGNIYNRP-UHFFFAOYSA-N
Temperature: 77 K
Tabular data in the source: 0
pressure (bar)	uptake (wt%)
0.0128531	0.0384
0.0257061	0.0608
0.0514123	0.0928
0.0749762	0.1088
0.104967	0.1312
0.128531	0.1408
0.156379	0.1504
0.175659	0.1632
0.205649	0.1728
0.229213	0.1824
0.257061	0.192
0.280625	0.1984
0.329895	0.2144
0.385592	0.2272
0.434862	0.24
0.46271	0.2528
0.484132	0.2528
0.537687	0.2656
0.561251	0.2752
0.586957	0.2784
0.634085	0.2912
0.685497	0.304
0.739051	0.3168
0.784037	0.3232
0.835449	0.3392
0.861155	0.3424
0.886862	0.3424
0.938274	0.3616
0.96398	0.368
0.989686	0.3744
1.01111	0.3744
