Adsorption isotherm of Nitrogen on Zn(NDC)(BPY) 0.5
DOI: 10.1002/adfm.201101479
Adsorbate Nitrogen: InChIKey IJGRMHOSHXDMSA-UHFFFAOYSA-N
Temperature: 77 K
Tabular data in the source: 0
pressure (bar)	uptake (cm3(STP)/g)
0.00553396	37.0277
0.00750622	29.471
0.0112714	42.3174
0.0362712	43.8287
0.0535757	45.3401
0.0997421	46.0957
0.149761	46.0957
0.195927	46.8514
0.292117	46.8514
0.388308	46.8514
0.484493	47.6071
0.584531	47.6071
0.682635	49.1184
0.780744	49.8741
0.87501	49.8741
0.926943	51.3854
0.965395	55.1637
