Adsorption isotherm of Nitrogen on Zn(NDC)(DMBPY) 0.5
DOI: 10.1002/adfm.201101479
Adsorbate Nitrogen: InChIKey IJGRMHOSHXDMSA-UHFFFAOYSA-N
Temperature: 298 K
Tabular data in the source: 0
pressure (bar)	uptake (wt%)
0.0638974	0.0263701
0.0777681	0.0212331
0.0999765	0.0213472
0.127737	0.0214899
0.158283	0.0268553
0.199934	0.0322777
0.255455	0.0325631
0.319304	0.0328913
0.405371	0.038542
0.508095	0.0442784
0.566382	0.0393697
0.638569	0.0449491
0.716299	0.0453486
0.805152	0.056222
0.90508	0.0515273
1.01335	0.0520838
