Adsorption isotherm of Carbon Dioxide on Zn(BDC)(DMBPY) 0.5
DOI: 10.1002/adfm.201101479
Adsorbate Carbon Dioxide: InChIKey CURLTUGMZLYLDI-UHFFFAOYSA-N
Temperature: 298 K
Tabular data in the source: 0
pressure (bar)	uptake (wt%)
0.0352769	0.136364
0.0617317	0.227273
0.0823127	0.318182
0.102894	0.409091
0.123475	0.5
0.161688	0.636364
0.205787	0.818182
0.252812	0.954545
0.320418	1.18182
0.402708	1.40909
0.511431	1.63636
0.573152	1.81818
0.640735	1.95455
0.720066	2.09091
0.805282	2.27273
0.855233	2.36364
0.905172	2.40909
0.966882	2.54545
1.00801	2.59091
