Adsorption isotherm of Oxygen on Zn(BDC)(BPY) 0.5
DOI: 10.1002/adfm.201101479
Adsorbate Oxygen: InChIKey MYMOFIZGZYHOMD-UHFFFAOYSA-N
Temperature: 298 K
Tabular data in the source: 0
pressure (bar)	uptake (wt%)
0.0332213	0.0215827
0.0581373	0.0359712
0.105201	0.028777
0.12458	0.028777
0.157801	0.0431655
0.204865	0.0359712
0.251928	0.0431655
0.321139	0.0431655
0.404193	0.0431655
0.509393	0.0503597
0.570299	0.057554
0.636742	0.057554
0.714258	0.057554
0.80008	0.0647482
0.902512	0.0719424
1.01325	0.0791367
