Adsorption isotherm of Methane on Zn(NDC)(DMBPY) 0.5
DOI: 10.1002/adfm.201101479
Adsorbate Methane: InChIKey VNWKTOKETHGBQD-UHFFFAOYSA-N
Temperature: 298 K
Tabular data in the source: 0
pressure (bar)	uptake (wt%)
0.0944244	0.0213187
0.124961	0.0214757
0.155498	0.0216326
0.20269	0.0218752
0.252679	0.0325488
0.319294	0.0276829
0.402576	0.028111
0.502514	0.0286247
0.566363	0.0289529
0.641317	0.0293382
0.71628	0.0349318
0.805123	0.0405968
0.902275	0.0358879
1.01055	0.0416528
