Adsorption isotherm of Hydrogen on Zn(NDC)(BPY) 0.5
DOI: 10.1002/adfm.201101479
Adsorbate Hydrogen: InChIKey UFHFLCQGNIYNRP-UHFFFAOYSA-N
Temperature: 77 K
Tabular data in the source: 0
pressure (bar)	uptake (wt%)
0.00428436	0.0704
0.0128531	0.2208
0.0278483	0.336
0.0514123	0.4256
0.0792606	0.4896
0.0814027	0.5312
0.102825	0.5344
0.128531	0.5664
0.156379	0.5984
0.184227	0.6176
0.205649	0.6368
0.231355	0.656
0.252777	0.6688
0.280625	0.6816
0.329895	0.7104
0.355601	0.7264
0.381308	0.7328
0.43272	0.752
0.454142	0.7584
0.48199	0.7744
0.535544	0.784
0.561251	0.7968
0.584814	0.8032
0.612663	0.8096
0.659791	0.8224
0.689781	0.8288
0.711203	0.8384
0.736909	0.8416
0.762615	0.8448
0.814027	0.8576
0.839734	0.864
0.86544	0.8736
0.916852	0.8832
0.966122	0.8928
0.989686	0.8992
1.01111	0.9056
