Adsorption isotherm of Carbon Dioxide on Zn(BDC)(DMBPY) 0.5
DOI: 10.1002/adfm.201101479
Adsorbate Carbon Dioxide: InChIKey CURLTUGMZLYLDI-UHFFFAOYSA-N
Temperature: 273 K
Tabular data in the source: 0
pressure (bar)	uptake (wt%)
0.0292293	0.456223
0.0438383	0.716854
0.054283	0.847271
0.0688976	1.07538
0.0814188	1.30343
0.108583	1.59698
0.119016	1.79244
0.131543	1.98796
0.146175	2.11851
0.15241	2.37888
0.17124	2.44452
0.192146	2.60779
0.208871	2.73841
0.223497	2.90148
0.24231	3.06469
0.259036	3.19531
0.273667	3.32586
0.292486	3.45654
0.313398	3.58729
0.328035	3.68533
0.346854	3.81601
0.365673	3.9467
0.384491	4.07738
0.401216	4.208
0.417947	4.3061
0.438859	4.43685
0.455584	4.56747
0.474397	4.73067
0.493216	4.86136
0.509941	4.99198
0.524567	5.15505
0.539182	5.38316
0.553802	5.57875
0.566318	5.83931
0.583014	6.13253
0.591337	6.42548
0.59966	6.71843
0.607983	7.01138
0.6163	7.33685
0.624623	7.6298
0.632946	7.92275
0.637082	8.21557
0.651685	8.50872
0.664195	8.80181
0.67671	9.06237
0.687161	9.16027
0.699676	9.42083
0.712163	9.844
0.730993	9.90964
0.747713	10.0728
0.766526	10.236
0.785344	10.3667
0.814625	10.5302
0.833443	10.6609
0.852268	10.7591
0.873185	10.8573
0.904565	10.9884
0.954769	11.2176
0.975692	11.2833
0.994522	11.349
1.00916	11.447
