Adsorption isotherm of Oxygen on Zn(NDC)(DMBPY) 0.5
DOI: 10.1002/adfm.201101479
Adsorbate Oxygen: InChIKey MYMOFIZGZYHOMD-UHFFFAOYSA-N
Temperature: 298 K
Tabular data in the source: 0
pressure (bar)	uptake (wt%)
0.0971908	0.0161246
0.124951	0.0162673
0.16104	0.0164528
0.205457	0.0166811
0.25265	0.0169237
0.322051	0.0172804
0.402557	0.0176942
0.508047	0.0182365
0.56913	0.0237588
0.638531	0.0241155
0.719056	0.0349461
0.805104	0.0301801
0.902266	0.0306795
1.01053	0.031236
