Adsorption isotherm of Carbon Dioxide on Zn(BDC)(DMBPY) 0.5
DOI: 10.1002/adfm.201101479
Adsorbate Carbon Dioxide: InChIKey CURLTUGMZLYLDI-UHFFFAOYSA-N
Temperature: 288 K
Tabular data in the source: 0
pressure (bar)	uptake (wt%)
0.0323955	0.363636
0.0500395	0.454545
0.0647465	0.545455
0.0794758	0.727273
0.103027	0.954545
0.126567	1.13636
0.161889	1.45455
0.20601	1.72727
0.256027	2.09091
0.326603	2.45455
0.408949	2.90909
0.508906	3.31818
0.573574	3.54545
0.644139	3.86364
0.720567	4.13636
0.80585	4.59091
0.905851	5.18182
0.970609	5.77273
1.01184	6.22727
