Adsorption isotherm of Carbon Dioxide on Zn(BDC)(BPY) 0.5
DOI: 10.1002/adfm.201101479
Adsorbate Carbon Dioxide: InChIKey CURLTUGMZLYLDI-UHFFFAOYSA-N
Temperature: 288 K
Tabular data in the source: 0
pressure (bar)	uptake (wt%)
0.0332213	0.14592
0.0609057	0.218679
0.0802848	0.273274
0.102432	0.346134
0.127348	0.437259
0.16057	0.546548
0.202096	0.674003
0.254697	0.837887
0.321139	1.00152
0.404193	1.25643
0.506625	1.54762
0.570299	1.69299
0.63951	1.87489
0.802848	2.25655
0.902512	2.47453
1.00771	2.67409
