Adsorption isotherm of Carbon Dioxide on Zn(BDC)(BPY) 0.5
DOI: 10.1002/adfm.201101479
Adsorbate Carbon Dioxide: InChIKey CURLTUGMZLYLDI-UHFFFAOYSA-N
Temperature: 298 K
Tabular data in the source: 0
pressure (bar)	uptake (wt%)
0.0470635	0.0357793
0.0664426	0.0537441
0.0802848	0.108439
0.102432	0.144669
0.127348	0.199163
0.16057	0.290138
0.202096	0.380962
0.254697	0.471587
0.321139	0.616906
0.404193	0.81687
0.506625	1.01648
0.567531	1.1619
0.636742	1.28886
0.714258	1.45229
0.805617	1.59716
0.899744	1.79692
1.01048	1.97807
