Adsorption isotherm of Carbon Dioxide on Zn(BDC)(DMBPY) 0.5
DOI: 10.1002/adfm.201101479
Adsorbate Carbon Dioxide: InChIKey CURLTUGMZLYLDI-UHFFFAOYSA-N
Temperature: 303 K
Tabular data in the source: 0
pressure (bar)	uptake (wt%)
0.0324727	0.0736051
0.0443168	0.136862
0.0591063	0.200088
0.0827219	0.252659
0.103402	0.315823
0.127049	0.400084
0.162478	0.484222
0.200883	0.600018
0.251101	0.747382
0.319012	0.915688
0.401662	1.0944
0.507906	1.30456
0.57282	1.42008
0.64068	1.53557
0.717397	1.6721
0.805875	1.78737
0.90321	1.92368
1.00937	2.04934
