Adsorption isotherm of Nitrogen on Zn(BDC)(DMBPY) 0.5
DOI: 10.1002/adfm.201101479
Adsorbate Nitrogen: InChIKey IJGRMHOSHXDMSA-UHFFFAOYSA-N
Temperature: 298 K
Tabular data in the source: 0
pressure (bar)	uptake (wt%)
0.0609057	0.0498339
0.0775164	0.0598007
0.102432	0.0598007
0.127348	0.0598007
0.157801	0.0697674
0.196559	0.0598007
0.254697	0.0697674
0.318371	0.0697674
0.401424	0.0697674
0.506625	0.089701
0.570299	0.089701
0.63951	0.109635
0.714258	0.0996678
0.802848	0.0996678
0.902512	0.0996678
1.01325	0.109635
