Adsorption isotherm of Nitrogen on Zn(NDC)(BPY) 0.5
DOI: 10.1002/adfm.201101479
Adsorbate Nitrogen: InChIKey IJGRMHOSHXDMSA-UHFFFAOYSA-N
Temperature: 298 K
Tabular data in the source: 0
pressure (bar)	uptake (wt%)
0.0469353	0
0.0883488	0
0.107657	0.0230263
0.132505	0.0230263
0.165636	0.0230263
0.209819	0.0115132
0.256745	0.0230263
0.325768	0.0230263
0.405843	0.0115132
0.510748	0.0230263
0.574249	0.0230263
0.64051	0.0230263
0.723328	0.0345395
0.806164	0.0230263
0.902796	0.0230263
1.01323	0.0230263
