Adsorption isotherm of Methane on Zn(NDC)(BPY) 0.5
DOI: 10.1002/adfm.201101479
Adsorbate Methane: InChIKey VNWKTOKETHGBQD-UHFFFAOYSA-N
Temperature: 298 K
Tabular data in the source: 0
pressure (bar)	uptake (wt%)
0.0441653	0.0115132
0.0938524	0.0230263
0.126965	0.0460526
0.165627	0.0345395
0.2015	0.0575658
0.26224	0.0575658
0.322962	0.0805921
0.408531	0.103618
0.505145	0.126645
0.571388	0.149671
0.643153	0.172697
0.714918	0.195724
0.806001	0.230263
0.902632	0.230263
1.00752	0.264803
