Adsorption isotherm of Nitrogen on Zn(BDC)(BPY) 0.5
DOI: 10.1002/adfm.201101479
Adsorbate Nitrogen: InChIKey IJGRMHOSHXDMSA-UHFFFAOYSA-N
Temperature: 77 K
Tabular data in the source: 0
pressure (bar)	uptake (cm3(STP)/g)
0.00281544	160.957
0.010404	177.582
0.0159525	212.343
0.0216222	228.212
0.03505	234.257
0.0523449	237.28
0.098458	246.348
0.142618	259.95
0.200245	273.552
0.292563	277.33
0.388744	278.841
0.488777	279.597
0.584962	280.353
0.679228	280.353
0.777347	279.597
0.873532	280.353
0.921627	280.353
0.963946	281.108
