Adsorption isotherm of Carbon Dioxide on Zn(BDC)(DMBPY) 0.5
DOI: 10.1002/adfm.201101479
Adsorbate Carbon Dioxide: InChIKey CURLTUGMZLYLDI-UHFFFAOYSA-N
Temperature: 308 K
Tabular data in the source: 0
pressure (bar)	uptake (wt%)
0.0206494	0.0314749
0.038374	0.084107
0.0619999	0.147241
0.0826804	0.210406
0.106296	0.262976
0.126976	0.326141
0.162405	0.410279
0.203756	0.526045
0.253943	0.641719
0.321833	0.788898
0.401517	0.946518
0.457584	1.05157
0.50775	1.14612
0.543148	1.19856
0.572654	1.25107
0.608052	1.30352
0.643449	1.35597
0.71721	1.48196
0.805678	1.58667
0.905948	1.71239
1.00914	1.81694
