Adsorption isotherm of Nitrogen on Zn(BDC)(DMBPY) 0.5
DOI: 10.1002/adfm.201101479
Adsorbate Nitrogen: InChIKey IJGRMHOSHXDMSA-UHFFFAOYSA-N
Temperature: 77 K
Tabular data in the source: 0
pressure (bar)	uptake (cm3(STP)/g)
0.00334364	78.5894
0.00909081	82.3678
0.014838	86.1461
0.0359707	90.6801
0.0494228	92.9471
0.101361	93.7028
0.145598	95.2141
0.197541	95.2141
0.297569	96.7254
0.391826	98.2368
0.48993	99.7481
0.588044	99.7481
0.686153	100.504
0.778486	102.015
0.880442	102.771
0.926604	104.282
0.965075	105.038
