Adsorption isotherm of Oxygen on Zn(NDC)(BPY) 0.5
DOI: 10.1002/adfm.201101479
Adsorbate Oxygen: InChIKey MYMOFIZGZYHOMD-UHFFFAOYSA-N
Temperature: 298 K
Tabular data in the source: 0
pressure (bar)	uptake (wt%)
0.0358463	0.0575658
0.0606944	0.0575658
0.0855334	0.0690789
0.107621	0.0690789
0.129699	0.0805921
0.16282	0.0921053
0.204243	0.0805921
0.256691	0.0921053
0.325704	0.103618
0.408522	0.115132
0.510676	0.115132
0.574167	0.126645
0.640438	0.115132
0.720486	0.138158
0.800552	0.138158
0.902705	0.138158
1.01036	0.161184
