Adsorption isotherm of Methane on Zn(BDC)(BPY) 0.5
DOI: 10.1002/adfm.201101479
Adsorbate Methane: InChIKey VNWKTOKETHGBQD-UHFFFAOYSA-N
Temperature: 298 K
Tabular data in the source: 0
pressure (bar)	uptake (wt%)
0.0581373	0.057554
0.0775164	0.0647482
0.0996639	0.0863309
0.127348	0.0935252
0.163338	0.0935252
0.202096	0.100719
0.254697	0.107914
0.321139	0.115108
0.401424	0.122302
0.503857	0.122302
0.570299	0.129496
0.636742	0.136691
0.717027	0.143885
0.805617	0.151079
0.902512	0.158273
1.01325	0.158273
