Adsorption isotherm of Carbon Dioxide on Zn(NDC)(DMBPY) 0.5
DOI: 10.1002/adfm.201101479
Adsorbate Carbon Dioxide: InChIKey CURLTUGMZLYLDI-UHFFFAOYSA-N
Temperature: 273 K
Tabular data in the source: 0
pressure (bar)	uptake (wt%)
0.033473	0.131156
0.0522803	0.326881
0.0815663	0.457902
0.104549	0.718803
0.129648	0.84969
0.16311	1.04589
0.204934	1.30739
0.257226	1.56923
0.322067	1.89652
0.405749	2.2244
0.418305	2.25733
0.437129	2.35549
0.458052	2.42121
0.476877	2.51937
0.495701	2.61754
0.520823	2.61834
0.537553	2.71644
0.558471	2.81467
0.577307	2.8478
0.594043	2.91337
0.612873	2.97902
0.631698	3.07718
0.650545	3.04527
0.671462	3.1435
0.690298	3.17663
0.709117	3.30731
0.730057	3.27546
0.748887	3.34111
0.769811	3.40682
0.788646	3.43995
0.807482	3.47307
0.826312	3.53872
0.847241	3.57191
0.866071	3.63755
0.887	3.67074
0.90583	3.73639
0.924666	3.76951
0.945595	3.80271
0.966524	3.8359
0.98536	3.86902
1.00628	3.93474
