Adsorption isotherm of Carbon Dioxide on Zn(NDC)(BPY) 0.5
DOI: 10.1002/adfm.201101479
Adsorbate Carbon Dioxide: InChIKey CURLTUGMZLYLDI-UHFFFAOYSA-N
Temperature: 298 K
Tabular data in the source: 0
pressure (bar)	uptake (wt%)
0.0249751	0.128043
0.0416251	0.213405
0.0582949	0.341624
0.0804818	0.426869
0.0999101	0.533601
0.127644	0.640158
0.160934	0.789454
0.202549	0.981431
0.25247	1.17323
0.316252	1.4076
0.402211	1.70578
0.510328	2.02492
0.568544	2.19512
0.637843	2.38651
0.718216	2.57767
0.806904	2.79008
0.903888	2.98088
1.01195	3.19288
