Adsorption isotherm of Hydrogen on Zn(BDC)(DMBPY) 0.5
DOI: 10.1002/adfm.201101479
Adsorbate Hydrogen: InChIKey UFHFLCQGNIYNRP-UHFFFAOYSA-N
Temperature: 77 K
Tabular data in the source: 0
pressure (bar)	uptake (wt%)
0.00642653	0.0672
0.00856871	0.2144
0.0278483	0.3456
0.0514123	0.4512
0.0749762	0.5216
0.102825	0.576
0.128531	0.5952
0.154237	0.6272
0.175659	0.6432
0.201365	0.656
0.220644	0.656
0.23564	0.6624
0.250635	0.6752
0.269914	0.6816
0.28491	0.688
0.312758	0.7008
0.329895	0.7104
0.353459	0.72
0.381308	0.72
0.407014	0.7296
0.458426	0.7328
0.479848	0.7424
0.516265	0.7424
0.537687	0.7488
0.559108	0.7488
0.58053	0.7488
0.616947	0.7552
0.638369	0.7552
0.659791	0.7616
0.681212	0.7616
0.717629	0.7616
0.739051	0.7648
0.760473	0.7648
0.809743	0.7648
0.837591	0.7776
0.859013	0.7744
0.889004	0.7744
0.91471	0.7808
0.933989	0.7776
0.953269	0.784
0.974691	0.784
0.996113	0.784
1.01753	0.7808
