Adsorption isotherm of Carbon Dioxide on Zn(NDC)(DMBPY) 0.5
DOI: 10.1002/adfm.201101479
Adsorbate Carbon Dioxide: InChIKey CURLTUGMZLYLDI-UHFFFAOYSA-N
Temperature: 298 K
Tabular data in the source: 0
pressure (bar)	uptake (wt%)
0.0414945	0.0464267
0.0636101	0.0925615
0.0801995	0.123346
0.0995361	0.184706
0.12442	0.230882
0.157599	0.292451
0.201851	0.354186
0.251619	0.446539
0.320756	0.554451
0.403713	0.693106
0.506049	0.832052
0.569659	0.924614
0.636048	1.00195
0.71349	1.10999
0.802016	1.20292
0.898857	1.28072
1.00675	1.38922
