Adsorption isotherm of Carbon Dioxide on Zn(NDC)(DMBPY) 0.5
DOI: 10.1002/adfm.201101479
Adsorbate Carbon Dioxide: InChIKey CURLTUGMZLYLDI-UHFFFAOYSA-N
Temperature: 288 K
Tabular data in the source: 0
pressure (bar)	uptake (wt%)
0.0248629	0.0767105
0.044189	0.153338
0.0635256	0.214698
0.0800832	0.291283
0.102157	0.398486
0.127009	0.490463
0.160135	0.628367
0.201555	0.781663
0.254028	0.96566
0.320322	1.1804
0.403206	1.42592
0.505436	1.71754
0.566246	1.85586
0.638109	2.02488
0.715519	2.17872
0.804002	2.33273
0.90077	2.51739
1.00863	2.67169
