Adsorption isotherm of Carbon Dioxide on Zn(BDC)(BPY) 0.5
DOI: 10.1002/adfm.201101479
Adsorbate Carbon Dioxide: InChIKey CURLTUGMZLYLDI-UHFFFAOYSA-N
Temperature: 273 K
Tabular data in the source: 0
pressure (bar)	uptake (wt%)
0.0418469	0.131424
0.0711159	0.360006
0.0857589	0.425517
0.131753	0.784716
0.167308	0.98098
0.204945	1.24235
0.259325	1.53678
0.322067	1.89652
0.33671	1.96203
0.355534	2.06019
0.376458	2.1259
0.418282	2.38741
0.437106	2.48557
0.458024	2.58381
0.476843	2.71449
0.49776	2.81272
0.522859	2.94361
0.543777	3.04184
0.562601	3.14001
0.583519	3.23824
0.602344	3.33641
0.623267	3.40212
0.639986	3.56526
0.652547	3.56566
0.673471	3.63137
0.692295	3.72954
0.711125	3.79518
0.732043	3.89341
0.750867	3.99158
0.771791	4.05729
0.792708	4.15552
0.80734	4.28607
0.819907	4.25396
0.838731	4.35212
0.859654	4.41783
0.878484	4.48348
0.897309	4.58164
0.916139	4.64729
0.937062	4.713
0.955892	4.77865
0.974716	4.87681
0.99564	4.94252
1.01446	5.04069
