Adsorption isotherm of Carbon Dioxide on Zn(NDC)(BPY) 0.5
DOI: 10.1002/adfm.201101479
Adsorbate Carbon Dioxide: InChIKey CURLTUGMZLYLDI-UHFFFAOYSA-N
Temperature: 288 K
Tabular data in the source: 0
pressure (bar)	uptake (wt%)
0.0305712	0.256496
0.047241	0.384715
0.0611325	0.491564
0.0805807	0.641153
0.102787	0.769255
0.13056	0.961525
0.161102	1.15374
0.199959	1.3672
0.252687	1.64466
0.319277	1.96468
0.402498	2.3272
0.510654	2.73206
0.571648	2.92362
0.638189	3.1365
0.715813	3.37058
0.801753	3.6259
0.904283	3.83802
1.01236	4.07145
