Adsorption isotherm of Oxygen on Zn(BDC)(DMBPY) 0.5
DOI: 10.1002/adfm.201101479
Adsorbate Oxygen: InChIKey MYMOFIZGZYHOMD-UHFFFAOYSA-N
Temperature: 298 K
Tabular data in the source: 0
pressure (bar)	uptake (wt%)
0.0442951	0.0199336
0.0775164	0.0199336
0.0968955	0.0398671
0.121811	0.0398671
0.16057	0.0398671
0.199328	0.0299003
0.251928	0.0398671
0.321139	0.0498339
0.404193	0.0498339
0.506625	0.0498339
0.570299	0.0498339
0.636742	0.0598007
0.714258	0.0598007
0.805617	0.0598007
0.902512	0.0598007
1.01325	0.0697674
