Adsorption isotherm of Nitrogen on MMSs
DOI: 10.1039/C2cc34893d
Adsorbate Nitrogen: InChIKey IJGRMHOSHXDMSA-UHFFFAOYSA-N
Temperature: 77 K
Tabular data in the source: 0
pressure (bar)	uptake (cm3(STP)/g)
0.00843577	127.675
0.0239014	151.413
0.0576445	180.655
0.0787339	193.461
0.0956054	202.611
0.115289	211.767
0.130755	222.738
0.143408	222.762
0.154656	230.078
0.188399	250.202
0.202459	255.699
0.241826	274.01
0.254479	283.152
0.288222	303.277
0.29244	308.756
0.307906	316.08
0.331807	328.89
0.343055	338.03
0.388046	358.175
0.396481	360.015
0.435848	365.56
0.479433	378.408
0.531454	391.271
0.580662	402.306
0.627059	416.983
0.676268	435.312
0.729694	459.121
0.771873	481.084
0.778903	486.569
0.792963	493.89
0.822488	512.182
0.847795	524.996
0.868885	534.154
0.901222	546.981
0.922311	563.433
0.944807	572.594
0.958866	581.739
0.961678	620.042
