Adsorption isotherm of Nitrogen on ZIF-8
DOI: 10.1039/C2cc34893d
Adsorbate Nitrogen: InChIKey IJGRMHOSHXDMSA-UHFFFAOYSA-N
Temperature: 77 K
Tabular data in the source: 0
pressure (bar)	uptake (cm3(STP)/g)
0.002816	245.455
0.004224	272.727
0.005632	323.636
0.011264	343.636
0.012672	374.545
0.02816	394.545
0.06336	400
0.085888	400
0.099968	401.818
0.11968	401.818
0.136576	403.636
0.159104	403.636
0.176	403.636
0.19712	403.636
0.23936	403.636
0.2464	405.455
0.28864	405.455
0.294272	405.455
0.336512	405.455
0.343552	407.273
0.390016	405.455
0.437888	409.091
0.48576	409.091
0.536448	409.091
0.581504	410.909
0.585728	410.909
0.632192	410.909
0.678656	412.727
0.684288	414.545
0.726528	414.545
0.734976	416.364
0.761728	414.545
0.775808	418.182
0.787072	418.182
0.798336	418.182
0.812416	418.182
0.825088	421.818
0.841984	421.818
0.849024	420
0.87296	423.636
0.881408	429.091
0.89408	430.909
0.923648	445.455
0.940544	470.909
0.944768	490.909
0.954624	509.091
0.956032	534.545
0.95744	601.818
0.958848	578.182
0.96448	645.455
