Adsorption isotherm of Nitrogen on Seeded MSSs
DOI: 10.1039/C2cc34893d
Adsorbate Nitrogen: InChIKey IJGRMHOSHXDMSA-UHFFFAOYSA-N
Temperature: 77 K
Tabular data in the source: 0
pressure (bar)	uptake (cm3(STP)/g)
0.00281192	27.3609
0.00562385	47.427
0.0126537	116.741
0.0253073	136.826
0.0323371	140.486
0.0590504	147.831
0.0815458	153.345
0.0984174	157.024
0.118101	164.355
0.137784	166.216
0.142002	169.871
0.154656	171.719
0.177151	175.409
0.196835	180.917
0.247449	190.13
0.295252	202.986
0.336025	208.534
0.348679	214.028
0.385234	217.744
0.396481	219.589
0.434442	223.308
0.485057	230.698
0.535672	238.088
0.58488	247.299
0.629871	258.325
0.67908	267.536
0.725477	284.037
0.944807	348.278
0.956054	359.241
0.958866	450.432
0.960272	401.195
