Adsorption isotherm of Nitrogen on MSS-Z8(1)
DOI: 10.1039/C2cc34893d
Adsorbate Nitrogen: InChIKey IJGRMHOSHXDMSA-UHFFFAOYSA-N
Temperature: 77 K
Tabular data in the source: 0
pressure (bar)	uptake (cm3(STP)/g)
0.00562385	145.907
0.0112477	176.921
0.0168715	204.287
0.037961	218.916
0.0590504	224.427
0.0787339	228.111
0.0998233	229.975
0.120913	237.309
0.140596	239.17
0.16028	241.03
0.181369	244.717
0.196835	248.394
0.244637	255.778
0.295252	266.816
0.348679	274.211
0.390858	281.585
0.449908	287.167
0.480839	289.049
0.531454	294.615
0.577851	300.173
0.632683	307.571
0.673456	314.942
0.728289	327.811
0.777497	340.669
0.798587	344.356
0.822488	346.225
0.849201	351.746
0.871697	353.612
0.895598	355.481
0.920905	355.528
0.941995	362.863
0.963084	372.021
