Adsorption isotherm of Nitrogen on MSS-Z8(2)
DOI: 10.1039/C2cc34893d
Adsorbate Nitrogen: InChIKey IJGRMHOSHXDMSA-UHFFFAOYSA-N
Temperature: 77 K
Tabular data in the source: 0
pressure (bar)	uptake (cm3(STP)/g)
0.004224	149.091
0.005632	196.364
0.009856	218.182
0.01408	250.909
0.033792	269.091
0.060544	280
0.080256	283.636
0.099968	287.273
0.11968	290.909
0.139392	294.545
0.159104	298.182
0.176	298.182
0.195712	303.636
0.243584	310.909
0.292864	320
0.339328	329.091
0.381568	336.364
0.392832	336.364
0.42944	343.636
0.477312	347.273
0.532224	350.909
0.578688	356.364
0.62656	365.455
0.674432	370.909
0.723712	383.636
0.771584	390.909
0.794112	396.364
0.822272	401.818
0.868736	416.364
0.896896	416.364
0.92224	418.182
0.94336	423.636
0.956032	494.545
0.95744	467.273
0.961664	543.636
