Adsorption isotherm of Water on Zeolite 13X
DOI: 10.1016/j.micromeso.2012.05.021
Adsorbate Water: InChIKey XLYOFNOQVPJJNP-UHFFFAOYSA-N
Temperature: 298 K
Tabular data in the source: 0
pressure (bar)	uptake (cm3(STP)/g)
0.0369231	22.3256
0.0646154	37.2093
0.0830769	52.093
0.0892308	264.186
0.0923077	204.651
0.0953846	148.837
0.0984615	78.1395
0.110769	323.721
0.129231	331.163
0.150769	338.605
0.169231	349.767
0.190769	349.767
0.221538	357.209
0.255385	360.93
0.295385	368.372
0.326154	372.093
0.372308	375.814
0.424615	379.535
0.470769	383.256
0.535385	386.977
0.587692	394.419
0.64	394.419
0.704615	398.14
0.766154	401.86
0.889231	409.302
0.938462	405.581
