Adsorption isotherm of Carbon Dioxide on CuBTC
DOI: 10.1016/j.micromeso.2012.05.021
Adsorbate Carbon Dioxide: InChIKey CURLTUGMZLYLDI-UHFFFAOYSA-N
Temperature: 273 K
Tabular data in the source: 0
pressure (bar)	uptake (mmol/g)
1.36748	0.326898
2.20901	0.531226
2.94535	0.694613
4.20764	1.02164
5.57512	1.30747
6.9426	1.55224
8.31008	1.87914
9.46718	2.12416
10.2035	2.28754
11.2554	2.45056
11.7814	2.53206
12.4125	2.65451
13.3592	2.81765
14.7267	3.02135
15.4631	3.18474
16.4098	3.30681
17.4617	3.42876
18.724	3.59153
19.5655	3.71373
20.7226	3.87661
21.6693	3.91656
22.8264	4.07945
23.668	4.20165
24.9302	4.32335
25.9822	4.4453
27.7704	4.56637
29.1379	4.72901
31.1365	4.93197
32.7144	5.0533
34.3974	5.1745
