Adsorption isotherm of Water on CuBTC
DOI: 10.1016/j.micromeso.2012.05.021
Adsorbate Water: InChIKey XLYOFNOQVPJJNP-UHFFFAOYSA-N
Temperature: 298 K
Tabular data in the source: 0
pressure (bar)	uptake (cm3(STP)/g)
0.0276923	37.2093
0.0369231	66.9767
0.0461538	89.3023
0.0707692	126.512
0.0892308	167.442
0.110769	193.488
0.126154	212.093
0.153846	234.419
0.184615	253.023
0.187692	279.07
0.193846	293.953
0.206154	323.721
0.227692	364.651
0.236923	383.256
0.270769	409.302
0.295385	416.744
0.307692	416.744
0.369231	453.953
0.44	468.837
0.467692	476.279
0.538462	480
0.590769	487.442
0.621538	487.442
0.68	502.326
0.738462	502.326
0.772308	509.767
0.870769	524.651
0.923077	535.814
