Adsorption isotherm of Water on CuBTC
DOI: 10.1016/j.micromeso.2012.05.021
Adsorbate Water: InChIKey XLYOFNOQVPJJNP-UHFFFAOYSA-N
Temperature: 298 K
Tabular data in the source: 0
pressure (bar)	uptake (cm3(STP)/g)
0.00923077	29.7674
0.0184615	44.6512
0.0246154	78.1395
0.0338462	160
0.0369231	122.791
0.0461538	208.372
0.0523077	230.698
0.0646154	256.744
0.0769231	290.233
0.08	312.558
0.0923077	342.326
0.0984615	364.651
0.104615	375.814
0.12	405.581
0.135385	409.302
0.166154	450.233
0.169231	472.558
0.175385	506.047
0.187692	543.256
0.190769	569.302
0.196923	595.349
0.206154	636.279
0.224615	673.488
0.236923	680.93
0.270769	706.977
0.298462	718.14
0.4	751.628
0.483077	759.07
0.553846	770.233
0.64	777.674
0.729231	788.837
0.8	792.558
0.873846	800
0.96	811.163
