Adsorption isotherm of Carbon Dioxide on CuBTC
DOI: 10.1016/j.micromeso.2012.05.021
Adsorbate Carbon Dioxide: InChIKey CURLTUGMZLYLDI-UHFFFAOYSA-N
Temperature: 298 K
Tabular data in the source: 0
pressure (bar)	uptake (mmol/g)
2.72028	0.162516
4.85765	0.284341
6.80071	0.365225
7.96655	0.446608
9.7153	0.568681
11.6584	0.649566
12.8242	0.689884
14.9616	0.852773
16.3217	0.934031
18.4591	0.973727
19.6249	1.09617
21.568	1.17706
23.3167	1.25807
25.6484	1.3387
27.3972	1.46078
29.3402	1.5006
31.089	1.62267
33.032	1.70356
34.5865	1.78469
36.7238	1.86545
38.8612	1.94621
40.027	2.02759
42.3587	2.10823
44.3018	2.23018
46.2448	2.31106
47.605	2.31019
50.9082	2.47233
54.2114	2.59341
57.3203	2.67355
60.6235	2.79463
63.9267	2.91571
