Adsorption isotherm of Carbon Dioxide on CuBTC
DOI: 10.1016/j.micromeso.2012.05.021
Adsorbate Carbon Dioxide: InChIKey CURLTUGMZLYLDI-UHFFFAOYSA-N
Temperature: 273 K
Tabular data in the source: 0
pressure (bar)	uptake (mmol/g)
1.26229	0.491281
1.99863	0.777862
2.3142	0.941746
2.94535	1.14632
3.57649	1.3509
4.10245	1.59666
4.6284	1.84243
5.04916	2.12938
5.68031	2.33396
6.41665	2.49734
7.04779	2.70192
7.67894	2.9065
8.20489	3.15226
8.83604	3.3979
9.36199	3.64367
9.99314	3.84824
10.6243	4.09388
11.2554	4.2574
11.9918	4.54398
12.6229	4.74855
13.5696	5.03488
14.4112	5.19815
15.0423	5.44379
15.7786	5.60717
16.515	5.77056
17.3565	5.93382
18.724	6.34285
19.5655	6.50611
20.3018	6.62844
21.1434	6.83276
21.6693	6.95533
22.5109	7.1186
23.4576	7.24067
24.1939	7.44512
25.5614	7.68989
26.5081	7.85303
27.3496	8.01629
28.2964	8.13837
29.4535	8.34232
31.8728	8.7501
33.3455	8.95368
34.8182	9.1162
