Adsorption isotherm of Water on Carbon
DOI: 10.1016/j.micromeso.2012.05.021
Adsorbate Water: InChIKey XLYOFNOQVPJJNP-UHFFFAOYSA-N
Temperature: 298 K
Tabular data in the source: 0
pressure (bar)	uptake (cm3(STP)/g)
0.0707692	7.44186
0.107692	7.44186
0.150769	7.44186
0.178462	14.8837
0.206154	14.8837
0.224615	14.8837
0.246154	18.6047
0.258462	22.3256
0.286154	26.0465
0.307692	29.7674
0.341538	44.6512
0.363077	55.814
0.4	78.1395
0.415385	89.3023
0.436923	100.465
0.464615	115.349
0.489231	133.953
0.513846	156.279
0.538462	174.884
0.563077	200.93
0.581538	219.535
0.609231	230.698
0.636923	245.581
0.64	260.465
0.664615	267.907
0.793846	342.326
0.818462	349.767
0.843077	368.372
0.867692	394.419
0.889231	416.744
0.898462	439.07
0.913846	468.837
0.916923	483.721
