Adsorption isotherm of Carbon Dioxide on CuBTC
DOI: 10.1016/j.micromeso.2012.05.021
Adsorbate Carbon Dioxide: InChIKey CURLTUGMZLYLDI-UHFFFAOYSA-N
Temperature: 298 K
Tabular data in the source: 0
pressure (bar)	uptake (mmol/g)
4.66335	0.489788
5.63488	0.653424
6.99502	0.693617
8.93808	0.93876
10.2982	1.06108
12.047	1.18316
13.0185	1.30573
14.9616	1.50981
16.3217	1.59106
18.4591	1.79502
19.4306	1.87652
21.7623	2.08035
22.9281	2.16174
25.0655	2.32463
26.037	2.48826
28.1744	2.65115
29.3402	2.73253
31.4776	2.89542
32.4491	2.97693
34.7808	3.13969
35.558	3.22132
37.6954	3.38421
38.8612	3.4656
41.1929	3.66943
42.3587	3.70974
44.3018	3.83169
45.4676	3.87201
48.3822	4.11653
51.4911	4.31986
54.7943	4.52307
58.2918	4.76722
61.2064	4.84748
61.9836	4.92911
