Adsorption isotherm of Nitrogen on MIL-53(Al)
DOI: 10.1002/chem.200902036
Adsorbate Nitrogen: InChIKey IJGRMHOSHXDMSA-UHFFFAOYSA-N
Temperature: 77 K
Tabular data in the source: 0
pressure (bar)	uptake (cm3(STP)/g)
0.00515504	177.124
0.0137359	256.64
0.0366182	265.793
0.0780923	272.657
0.120997	273.802
0.166761	273.802
0.276882	274.946
0.374132	274.374
0.411316	274.374
0.45422	273.23
0.499985	273.23
0.565771	271.513
0.637278	269.797
0.700205	269.225
0.767421	267.509
0.837498	266.365
0.910436	265.221
0.971932	266.937
0.997674	271.513
