Adsorption isotherm of Nitrogen on MIL-53(Al)
DOI: 10.1002/chem.200902036
Adsorbate Nitrogen: InChIKey IJGRMHOSHXDMSA-UHFFFAOYSA-N
Temperature: 77 K
Tabular data in the source: 0
pressure (bar)	uptake (cm3(STP)/g)
0.00658518	204.583
0.0108756	304.693
0.035188	322.999
0.0780923	331.579
0.122427	333.868
0.165331	336.728
0.209665	337.872
0.276882	339.016
0.348389	339.016
0.409885	339.588
0.501415	339.588
0.588653	339.016
0.680183	337.872
0.770282	337.3
0.861811	336.156
0.931888	336.156
0.976222	337.872
0.991954	344.737
