Adsorption isotherm of Nitrogen on MIL-53(Al)
DOI: 10.1002/chem.200902036
Adsorbate Nitrogen: InChIKey IJGRMHOSHXDMSA-UHFFFAOYSA-N
Temperature: 77 K
Tabular data in the source: 0
pressure (bar)	uptake (cm3(STP)/g)
0.00801532	283.527
0.00801532	289.819
0.0337579	300.116
0.0623608	304.121
0.100975	306.409
0.162471	309.269
0.233978	310.985
0.299764	311.557
0.368411	312.701
0.409885	310.985
0.501415	310.985
0.612966	310.413
0.703065	310.413
0.794594	310.985
0.884693	309.841
0.937608	310.985
0.971932	311.557
0.996244	316.134
