Adsorption isotherm of Nitrogen on MIL-53(Al)
DOI: 10.1002/chem.200902036
Adsorbate Nitrogen: InChIKey IJGRMHOSHXDMSA-UHFFFAOYSA-N
Temperature: 77 K
Tabular data in the source: 0
pressure (bar)	uptake (cm3(STP)/g)
0.00515504	254.924
0.00658518	262.36
0.035188	271.513
0.0780923	276.09
0.145309	280.666
0.211096	280.666
0.301195	281.81
0.368411	282.954
0.45708	283.527
0.567201	282.954
0.681613	282.382
0.793164	281.81
0.884693	282.382
0.973362	282.382
0.996244	286.959
