Adsorption isotherm of Carbon Dioxide on NKCOF-7
DOI: 10.1002/anie.202012504
Article source: Figure S18
Adsorbate Carbon Dioxide: InChIKey CURLTUGMZLYLDI-UHFFFAOYSA-N
Kind: experiment
Temperature: 298 K
Tabular data in the source: 0
pressure (bar)	uptake (cm3(STP)/g)
0.014142	0.545025
0.044035	0.989995
0.066863	1.20416
0.092819	1.63401
0.118379	2.07932
0.146317	2.40105
0.173859	2.73825
0.200606	3.13719
0.22736	3.47444
0.252535	3.84266
0.277702	4.27257
0.305251	4.54807
0.330431	4.87002
0.357183	5.22269
0.385503	5.65236
0.411872	5.91252
0.438622	6.28062
0.464977	6.66417
0.493307	7.0013
0.520065	7.30771
0.544451	7.67598
0.570414	8.04414
0.597956	8.38133
0.624712	8.70316
0.651468	9.02499
0.679013	9.33133
0.705764	9.69943
0.730938	10.0676
0.756911	10.3433
0.783669	10.6497
0.811214	10.956
0.837184	11.2625
0.863945	11.538
0.890692	11.937
0.915877	12.2127
0.94421	12.5189
0.970173	12.8871
0.997338	13.0701
1.02369	13.4382
1.05045	13.7446
1.07801	13.9739
