Adsorption isotherm of Acetylene on NKCOF-6
DOI: 10.1002/anie.202012504
Article source: Figure S17
Adsorbate Acetylene: InChIKey HSFWRNGVRCDJHI-UHFFFAOYSA-N
Kind: experiment
Temperature: 273 K
Tabular data in the source: 0
pressure (bar)	uptake (cm3(STP)/g)
0.008014	1.41237
0.007956	2.22737
0.0127	3.26571
0.01504	4.22943
0.020999	5.11986
0.025759	5.93593
0.031729	6.67818
0.037707	7.30929
0.052045	8.94249
0.065203	10.242
0.078369	11.4304
0.090336	12.5445
0.105911	13.7334
0.117904	14.477
0.146677	16.4097
0.182673	18.4182
0.225891	20.5023
0.264306	22.3631
0.314766	24.2637
0.343589	25.4926
0.382032	26.9829
0.422899	28.2515
0.464966	29.5945
0.504024	30.8998
0.543087	32.1309
0.58275	33.3993
0.62302	34.5937
0.664495	35.7883
0.702972	36.7971
0.742632	38.1025
0.781106	39.1483
0.821979	40.3428
0.862863	41.3892
0.902526	42.6575
0.940994	43.7774
0.981873	44.8978
1.02156	45.7957
1.07506	47.2894
