Adsorption isotherm of Carbon Dioxide on NKCOF-6
DOI: 10.1002/anie.202012504
Article source: Figure S17
Adsorbate Carbon Dioxide: InChIKey CURLTUGMZLYLDI-UHFFFAOYSA-N
Kind: experiment
Temperature: 298 K
Tabular data in the source: 0
pressure (bar)	uptake (cm3(STP)/g)
0.014879	0.43858
0.045273	1.19316
0.065536	1.63003
0.092891	2.10661
0.119232	2.74205
0.146587	3.25834
0.171916	3.77464
0.200283	4.25122
0.226118	4.76751
0.252966	5.16466
0.279308	5.60152
0.30565	6.03839
0.333004	6.35611
0.358333	6.79297
0.385687	7.19012
0.412029	7.62699
0.438877	7.88514
0.465725	8.322
0.492573	8.63972
0.517395	8.9773
0.543737	9.33473
0.571091	9.7716
0.59794	10.0893
0.625294	10.4467
0.650116	10.8042
0.678484	11.0822
0.704825	11.4793
0.731167	11.7971
0.758522	12.1545
0.784357	12.4921
0.812218	12.8694
0.836533	13.0679
0.862875	13.3261
0.891243	13.7629
0.917584	14.0608
0.943419	14.2594
0.97128	14.5374
0.996609	14.8551
1.02396	15.1331
1.05031	15.4508
1.07715	15.6494
