Adsorption isotherm of Nitrogen on NKCOF-7
DOI: 10.1002/anie.202012504
Article source: Figure 5
Adsorbate Nitrogen: InChIKey IJGRMHOSHXDMSA-UHFFFAOYSA-N
Kind: experiment
Temperature: 77 K
Tabular data in the source: 0
pressure (bar)	uptake (cm3(STP)/g)
0.000294	19.1865
-0.001212	39.0656
0.000199	58.9447
0.001126	77.9403
0.001079	97.3777
0.00493	113.723
0.006853	122.558
0.008779	130.51
0.044649	176.011
0.084493	186.613
0.115601	190.589
0.1506	194.123
0.188517	197.215
0.223519	199.424
0.257551	200.749
0.293525	202.958
0.329502	204.283
0.363532	206.05
0.399022	207.596
0.433542	208.259
0.469518	209.584
0.505493	211.351
0.538553	212.456
0.575502	214.002
0.610021	214.885
0.645511	216.211
0.681971	218.42
0.717461	220.187
0.751492	221.512
0.786493	224.162
0.823438	227.255
0.857948	231.672
0.893428	237.415
0.92647	245.809
0.961449	257.736
0.999298	289.101
1.00606	307.213
1.00606	308.097
0.975988	277.615
0.932272	259.503
0.888534	250.668
0.849166	244.483
0.830209	242.275
0.794238	238.74
0.759239	234.986
0.723455	232.544
0.689019	230.856
0.652557	229.169
0.61542	227.328
0.580307	226.408
0.54587	225.181
0.510082	223.954
0.477002	220.272
0.43919	218.125
0.38517	216.591
0.349382	215.671
0.333851	215.364
0.298063	214.137
0.26295	213.217
0.227839	211.376
0.191378	209.535
0.155592	207.695
0.121158	204.934
0.086052	201.099
0.049605	193.276
0.01356	158.764
0.009201	146.033
