Adsorption isotherm of Acetylene on NKCOF-7
DOI: 10.1002/anie.202012504
Article source: Figure S18
Adsorbate Acetylene: InChIKey HSFWRNGVRCDJHI-UHFFFAOYSA-N
Kind: experiment
Temperature: 273 K
Tabular data in the source: 0
pressure (bar)	uptake (cm3(STP)/g)
0.007081	0.911315
0.018428	2.0581
0.024101	3.05199
0.035448	3.89297
0.046796	4.73394
0.061547	5.80428
0.071759	6.87462
0.086511	7.63914
0.104666	8.48012
0.117148	9.39755
0.143246	11.156
0.184096	13.2202
0.221541	15.208
0.26466	17.1957
0.302106	19.3364
0.342956	21.2477
0.38494	23.0061
0.424088	24.9939
0.462101	26.9817
0.501816	28.5872
0.542665	30.5749
0.581813	32.4098
0.624365	34.0917
0.662945	36.0795
0.70266	37.685
0.742375	39.4434
0.783224	41.2783
0.822939	42.8838
0.863789	44.7187
0.902369	46.4388
0.943786	47.9679
0.982934	49.6498
1.02265	51.2936
1.07485	53.6636
