Adsorption isotherm of Nitrogen on NKCOF-6
DOI: 10.1002/anie.202012504
Article source: Figure 5
Adsorbate Nitrogen: InChIKey IJGRMHOSHXDMSA-UHFFFAOYSA-N
Kind: experiment
Temperature: 77 K
Tabular data in the source: 0
pressure (bar)	uptake (cm3(STP)/g)
-0.001301	19.9473
0.003733	32.8319
0.007432	38.9674
0.011809	44.336
0.049285	45.2563
0.049286	45.103
0.091824	47.2504
0.115457	48.1707
0.152595	49.3978
0.187036	49.0911
0.222148	50.3182
0.257261	51.2385
0.293051	51.5453
0.328166	51.852
0.36463	52.4656
0.402446	52.7724
0.435533	53.9995
0.468622	53.9995
0.505086	54.9198
0.5402	55.2266
0.57464	55.2266
0.609753	56.1469
0.646218	56.4537
0.682006	57.6808
0.71712	58.2944
0.753585	58.6011
0.788024	58.9079
0.823812	60.135
0.860277	60.4418
0.894037	62.5892
0.929825	63.5096
0.964264	64.1231
1.00072	68.418
1.00543	75.4739
0.956156	65.657
0.917667	64.7367
0.881203	63.8163
0.846089	63.2028
0.829208	62.7426
0.794095	61.6689
0.75763	61.3621
0.722516	61.0554
0.688076	61.0554
0.651613	59.8282
0.615821	60.135
0.580708	59.5215
0.545594	58.9079
0.509804	58.6011
0.474015	57.6808
0.439576	57.374
0.404462	56.9139
0.367996	56.7605
0.333557	56.4537
0.297094	55.5334
0.261641	55.38
0.22619	54.613
0.191076	53.9995
0.155962	53.3859
0.119498	52.4656
0.084385	51.5453
0.050626	49.3978
0.008096	43.8759
