Adsorption isotherm of Acetylene on NKCOF-6
DOI: 10.1002/anie.202012504
Article source: Figure S17
Adsorbate Acetylene: InChIKey HSFWRNGVRCDJHI-UHFFFAOYSA-N
Kind: experiment
Temperature: 298 K
Tabular data in the source: 0
pressure (bar)	uptake (cm3(STP)/g)
0.008801	0.51801
0.025011	2.06689
0.039195	3.25834
0.054392	4.2115
0.067562	5.0058
0.084786	5.99867
0.093904	6.55468
0.107075	7.19012
0.119232	7.78585
0.148613	9.05673
0.187113	10.5262
0.227638	11.9162
0.26715	13.1474
0.316794	14.6565
0.346175	15.4906
0.386701	16.5629
0.427226	17.6352
0.465725	18.6677
0.506251	19.5812
0.546776	20.4549
0.585275	21.2889
0.626814	22.1627
0.666326	22.957
0.705332	23.8307
0.745351	24.6448
0.784863	25.3796
0.824376	26.1342
0.863888	27.0079
0.9034	27.8022
0.943926	28.5171
0.984451	29.3114
1.02396	30.0659
1.07867	30.9
