Adsorption isotherm of Carbon Dioxide on NKCOF-6
DOI: 10.1002/anie.202012504
Article source: Figure S17
Adsorbate Carbon Dioxide: InChIKey CURLTUGMZLYLDI-UHFFFAOYSA-N
Kind: experiment
Temperature: 273 K
Tabular data in the source: 0
pressure (bar)	uptake (cm3(STP)/g)
0.011676	0.746345
0.038666	2.3453
0.066275	3.72212
0.092084	4.9874
0.118509	6.06759
0.146139	7.14805
0.171372	8.04274
0.197811	8.9377
0.225448	9.90701
0.251903	10.5797
0.275937	11.4
0.305995	12.2217
0.332444	12.9685
0.358898	13.6412
0.384148	14.3136
0.41061	14.8751
0.438261	15.6592
0.464726	16.1837
0.49118	16.8564
0.517645	17.3809
0.545304	18.0539
0.569962	18.578
0.598229	19.177
0.624694	19.7015
0.652364	20.2262
0.677624	20.7505
0.704097	21.1638
0.730559	21.7254
0.757024	22.2499
0.782295	22.6259
0.809959	23.2248
0.835827	23.6751
0.864099	24.2
0.888166	24.5758
0.91583	25.1746
0.9435	25.6994
0.966356	26.149
0.99644	26.6002
1.0229	27.1247
1.05119	27.5014
1.07586	27.8774
