Adsorption isotherm of Acetylene on NKCOF-7
DOI: 10.1002/anie.202012504
Article source: Figure S18
Adsorbate Acetylene: InChIKey HSFWRNGVRCDJHI-UHFFFAOYSA-N
Kind: experiment
Temperature: 298 K
Tabular data in the source: 0
pressure (bar)	uptake (cm3(STP)/g)
0.007044	0.591838
0.013317	0.868969
0.022718	1.36178
0.032132	1.73121
0.046647	2.30074
0.055652	2.80901
0.067434	3.14741
0.078403	3.70179
0.090963	4.13267
0.10747	4.50155
0.120019	5.02497
0.145923	5.91751
0.187167	7.04022
0.225248	8.25571
0.265309	9.39393
0.304581	10.5322
0.343853	11.6705
0.385099	12.7778
0.423593	13.8236
0.465634	14.8691
0.504125	15.9458
0.544202	16.9298
0.583485	17.9755
0.623559	18.9903
0.664812	20.0359
0.703714	20.9583
0.743785	22.004
0.783869	22.9263
0.823547	23.9566
0.863229	24.956
0.904095	25.94
0.942595	26.9395
0.983462	27.908
1.02275	28.9229
1.07538	30.3378
