Adsorption isotherm of Carbon Dioxide on NKCOF-7
DOI: 10.1002/anie.202012504
Article source: Figure S18
Adsorbate Carbon Dioxide: InChIKey CURLTUGMZLYLDI-UHFFFAOYSA-N
Kind: experiment
Temperature: 273 K
Tabular data in the source: 0
pressure (bar)	uptake (cm3(STP)/g)
0.012754	0.376147
0.037718	1.14067
0.063816	1.9052
0.089347	2.74618
0.117715	3.43425
0.143246	4.0841
0.169345	4.77217
0.197712	5.65138
0.223811	6.263
0.249909	6.95107
0.278277	7.63914
0.303241	8.40367
0.330474	8.86238
0.357707	9.47401
0.383805	9.93272
0.408769	10.6972
0.436002	11.3089
0.462101	11.9205
0.489901	12.4557
0.518269	13.1437
0.543233	13.6789
0.570466	14.1376
0.597131	14.7492
0.62323	15.3609
0.650463	15.896
0.675994	16.5076
0.703794	17.1957
0.729893	17.6544
0.755991	18.2661
0.782657	18.9541
0.810458	19.4128
0.835421	20.0627
0.86152	20.6361
0.889887	21.2477
0.915418	21.8593
0.943219	22.2798
0.968183	22.8914
0.99655	23.5413
1.02265	24.0765
1.05045	24.6881
1.07655	25.185
