Adsorption isotherm of naphthalen-1-yl methylcarbamate, Water on CMBC700
DOI: 10.1039/c6ra26534k
Article source: Figure 2
Adsorbate naphthalen-1-yl methylcarbamate: InChIKey CVXBEEMKQHEXEN-UHFFFAOYSA-N
Adsorbate Water: InChIKey XLYOFNOQVPJJNP-UHFFFAOYSA-N
Kind: experiment
Temperature: 298 K
Tabular data in the source: 0
pressure (bar)	naphthalen-1-yl methylcarbamate fraction	naphthalen-1-yl methylcarbamate uptake (mg/kg)	Water fraction	Water uptake (mg/kg)	total uptake (mg/kg)
1.01325	0.0707	13591			
1.01325	0.2301	18732			
1.01325	0.781	25048			
1.01325	1.9263	30556			
1.01325	3.0425	35550			
1.01325	4.3182	40690			
1.01325	6.4348	44434			
1.01325	8.2759	50162			
1.01325	9.6675	53466			
