Adsorption isotherm of naphthalen-1-yl methylcarbamate, Water on DCMBC600
DOI: 10.1039/c6ra26534k
Article source: Figure 2
Adsorbate naphthalen-1-yl methylcarbamate: InChIKey CVXBEEMKQHEXEN-UHFFFAOYSA-N
Adsorbate Water: InChIKey XLYOFNOQVPJJNP-UHFFFAOYSA-N
Kind: experiment
Temperature: 298 K
Tabular data in the source: 0
pressure (bar)	naphthalen-1-yl methylcarbamate fraction	naphthalen-1-yl methylcarbamate uptake (mg/kg)	Water fraction	Water uptake (mg/kg)	total uptake (mg/kg)
1.01325	0.0562	3161			
1.01325	0.0852	5658			
1.01325	0.2591	8596			
1.01325	1.0564	10872			
1.01325	1.7088	11827			
1.01325	3.5644	13515			
1.01325	5.0141	14762			
1.01325	6.9277	15348			
1.01325	8.9862	16596			
1.01325	10.8418	17182			
