Adsorption isotherm of naphthalen-1-yl methylcarbamate, Water on CMBC700
DOI: 10.1039/c6ra26534k
Article source: Figure 1
Adsorbate naphthalen-1-yl methylcarbamate: InChIKey CVXBEEMKQHEXEN-UHFFFAOYSA-N
Adsorbate Water: InChIKey XLYOFNOQVPJJNP-UHFFFAOYSA-N
Kind: experiment
Temperature: 298 K
Tabular data in the source: 0
pressure (bar)	naphthalen-1-yl methylcarbamate fraction	naphthalen-1-yl methylcarbamate uptake (mg/kg)	Water fraction	Water uptake (mg/kg)	total uptake (mg/kg)
1.01325	0.0448	13536			
1.01325	0.0689	6666			
1.01325	0.2648	18775			
1.01325	0.4483	25295			
1.01325	1.9262	32278			
1.01325	3.0743	37282			
1.01325	4.0025	40889			
1.01325	6.4451	45250			
1.01325	8.2771	50020			
1.01325	9.6938	53394			
