Adsorption isotherm of Oxytetracycline Hydrochloride, Water on DCMBC700
DOI: 10.1039/c6ra26534k
Article source: Figure 3
Adsorbate Oxytetracycline Hydrochloride: InChIKey SVDOODSCHVSYEK-IFLJXUKPSA-N
Adsorbate Water: InChIKey XLYOFNOQVPJJNP-UHFFFAOYSA-N
Kind: experiment
Temperature: 298 K
Tabular data in the source: 0
pressure (bar)	Oxytetracycline Hydrochloride fraction	Oxytetracycline Hydrochloride uptake ()	Water fraction	Water uptake ()	total uptake ()
1.01325	0.054	52264			
1.01325	0.262	74657			
1.01325	1.6264	85087			
1.01325	2.7858	97447			
1.01325	4.5751	106592			
1.01325	6.9942	112909			
1.01325	9.4572	118197			
1.01325	12.5939	119241			
