Adsorption isotherm of Oxytetracycline Hydrochloride, Water on CMBC700
DOI: 10.1039/c6ra26534k
Article source: Figure 3
Adsorbate Oxytetracycline Hydrochloride: InChIKey SVDOODSCHVSYEK-IFLJXUKPSA-N
Adsorbate Water: InChIKey XLYOFNOQVPJJNP-UHFFFAOYSA-N
Kind: experiment
Temperature: 298 K
Tabular data in the source: 0
pressure (bar)	Oxytetracycline Hydrochloride fraction	Oxytetracycline Hydrochloride uptake ()	Water fraction	Water uptake ()	total uptake ()
1.01325	1.0194	35796			
1.01325	1.5637	52657			
1.01325	4.1006	62449			
1.01325	5.6995	73009			
1.01325	7.7967	83700			
1.01325	9.9377	92461			
1.01325	12.7964	97107			
1.01325	15.6699	103684			
