Adsorption isotherm of Oxytetracycline Hydrochloride, Water on DCMBC700
DOI: 10.1039/c6ra26534k
Article source: Figure 4
Adsorbate Oxytetracycline Hydrochloride: InChIKey SVDOODSCHVSYEK-IFLJXUKPSA-N
Adsorbate Water: InChIKey XLYOFNOQVPJJNP-UHFFFAOYSA-N
Kind: experiment
Temperature: 298 K
Tabular data in the source: 0
pressure (bar)	Oxytetracycline Hydrochloride fraction	Oxytetracycline Hydrochloride uptake (mg/kg)	Water fraction	Water uptake (mg/kg)	total uptake (mg/kg)
1.01325	0.0268	16900.4			
1.01325	0.313	23845.1			
1.01325	1.6013	27254.8			
1.01325	2.7643	31258.8			
1.01325	4.5536	34230.5			
1.01325	6.9692	36169.7			
1.01325	9.3669	37827.4			
1.01325	12.5876	38233.7			
