Adsorption isotherm of naphthalen-1-yl methylcarbamate, Water on CMBC600
DOI: 10.1039/c6ra26534k
Article source: Figure 3
Adsorbate naphthalen-1-yl methylcarbamate: InChIKey CVXBEEMKQHEXEN-UHFFFAOYSA-N
Adsorbate Water: InChIKey XLYOFNOQVPJJNP-UHFFFAOYSA-N
Kind: experiment
Temperature: 298 K
Tabular data in the source: 0
pressure (bar)	naphthalen-1-yl methylcarbamate fraction	naphthalen-1-yl methylcarbamate uptake ()	Water fraction	Water uptake ()	total uptake ()
1.01325	0.0372	55700			
1.01325	0.4131	108000			
1.01325	0.8599	149000			
1.01325	1.6817	197000			
1.01325	2.9042	242000			
1.01325	4.5595	279000			
1.01325	6.5185	313000			
1.01325	8.2643	348000			
1.01325	10.0862	395000			
1.01325	12.6618	414000			
