Adsorption isotherm of Oxytetracycline Hydrochloride, Water on CMBC400
DOI: 10.1039/c6ra26534k
Article source: Figure 1
Adsorbate Oxytetracycline Hydrochloride: InChIKey SVDOODSCHVSYEK-IFLJXUKPSA-N
Adsorbate Water: InChIKey XLYOFNOQVPJJNP-UHFFFAOYSA-N
Kind: experiment
Temperature: 298 K
Tabular data in the source: 0
pressure (bar)	Oxytetracycline Hydrochloride fraction	Oxytetracycline Hydrochloride uptake (mg/kg)	Water fraction	Water uptake (mg/kg)	total uptake (mg/kg)
1.01325	0.7491	1154.4			
1.01325	2.6337	1712.3			
1.01325	4.4175	2200.4			
1.01325	6.1723	2321.7			
1.01325	7.5388	2478.2			
1.01325	9.0491	2617.1			
1.01325	10.4012	2843.5			
1.01325	12.3429	2859.9			
