Adsorption isotherm of naphthalen-1-yl methylcarbamate, Water on DCMBC700
DOI: 10.1039/c6ra26534k
Article source: Figure 2
Adsorbate naphthalen-1-yl methylcarbamate: InChIKey CVXBEEMKQHEXEN-UHFFFAOYSA-N
Adsorbate Water: InChIKey XLYOFNOQVPJJNP-UHFFFAOYSA-N
Kind: experiment
Temperature: 298 K
Tabular data in the source: 0
pressure (bar)	naphthalen-1-yl methylcarbamate fraction	naphthalen-1-yl methylcarbamate uptake (mg/kg)	Water fraction	Water uptake (mg/kg)	total uptake (mg/kg)
1.01325	0.0127	6540			
1.01325	0.0562	11461			
1.01325	0.2011	17483			
1.01325	0.723	22477			
1.01325	1.1434	24827			
1.01325	2.9555	28058			
1.01325	4.7966	30040			
1.01325	6.8117	31507			
1.01325	8.7542	33489			
1.01325	11.0447	33634			
