Adsorption isotherm of Oxytetracycline Hydrochloride, Water on CMBC600
DOI: 10.1039/c6ra26534k
Article source: Figure 1
Adsorbate Oxytetracycline Hydrochloride: InChIKey SVDOODSCHVSYEK-IFLJXUKPSA-N
Adsorbate Water: InChIKey XLYOFNOQVPJJNP-UHFFFAOYSA-N
Kind: experiment
Temperature: 298 K
Tabular data in the source: 0
pressure (bar)	Oxytetracycline Hydrochloride fraction	Oxytetracycline Hydrochloride uptake (mg/kg)	Water fraction	Water uptake (mg/kg)	total uptake (mg/kg)
1.01325	1.136	3839.2			
1.01325	2.4384	5072.3			
1.01325	4.0835	6651.7			
1.01325	6.2074	7510.1			
1.01325	8.9819	8187.9			
1.01325	11.9845	8560.6			
1.01325	14.6106	9141.4			
1.01325	18.1496	9458.4			
