Adsorption isotherm of naphthalen-1-yl methylcarbamate, Oxytetracycline Hydrochloride, Water on DCMBC600
DOI: 10.1039/c6ra26534k
Article source: Figure 4
Adsorbate naphthalen-1-yl methylcarbamate: InChIKey CVXBEEMKQHEXEN-UHFFFAOYSA-N
Adsorbate Oxytetracycline Hydrochloride: InChIKey SVDOODSCHVSYEK-IFLJXUKPSA-N
Adsorbate Water: InChIKey XLYOFNOQVPJJNP-UHFFFAOYSA-N
Kind: experiment
Temperature: 298 K
Tabular data in the source: 0
pressure (bar)	naphthalen-1-yl methylcarbamate fraction	naphthalen-1-yl methylcarbamate uptake (mg/kg)	Oxytetracycline Hydrochloride fraction	Oxytetracycline Hydrochloride uptake (mg/kg)	Water fraction	Water uptake (mg/kg)	total uptake (mg/kg)
1.01325			1.2275	8016.4			
1.01325			3.022	10141.7			
1.01325			4.4798	12244.8			
1.01325			6.5311	13915.6			
1.01325			8.7749	15391.7			
1.01325			11.3394	16760			
1.01325			14.1125	17673.7			
1.01325			16.3724	19084.9			
