Adsorption isotherm of Oxytetracycline Hydrochloride, Water on DCMBC600
DOI: 10.1039/c6ra26534k
Article source: Figure 4
Adsorbate Oxytetracycline Hydrochloride: InChIKey SVDOODSCHVSYEK-IFLJXUKPSA-N
Adsorbate Water: InChIKey XLYOFNOQVPJJNP-UHFFFAOYSA-N
Kind: experiment
Temperature: 298 K
Tabular data in the source: 0
pressure (bar)	Oxytetracycline Hydrochloride fraction	Oxytetracycline Hydrochloride uptake (mg/kg)	Water fraction	Water uptake (mg/kg)	total uptake (mg/kg)
1.01325	0.1211	8339.7			
1.01325	0.3916	11870.8			
1.01325	0.9835	14254.2			
1.01325	2.1528	16183.7			
1.01325	3.9957	17702.6			
1.01325	5.9028	19199.9			
1.01325	8.1469	20156.1			
1.01325	10.2786	21372.2			
