Adsorption isotherm of Oxytetracycline Hydrochloride, Water on CMBC600
DOI: 10.1039/c6ra26534k
Article source: Figure 3
Adsorbate Oxytetracycline Hydrochloride: InChIKey SVDOODSCHVSYEK-IFLJXUKPSA-N
Adsorbate Water: InChIKey XLYOFNOQVPJJNP-UHFFFAOYSA-N
Kind: experiment
Temperature: 298 K
Tabular data in the source: 0
pressure (bar)	Oxytetracycline Hydrochloride fraction	Oxytetracycline Hydrochloride uptake ()	Water fraction	Water uptake ()	total uptake ()
1.01325	1.1528	48022			
1.01325	2.3711	62441			
1.01325	4.1323	82010			
1.01325	6.2589	92573			
1.01325	8.9567	100821			
1.01325	12.0499	105340			
1.01325	14.6303	112172			
1.01325	18.1192	116564			
