Adsorption isotherm of naphthalen-1-yl methylcarbamate, Water on CMBC700
DOI: 10.1039/c6ra26534k
Article source: Figure 4
Adsorbate naphthalen-1-yl methylcarbamate: InChIKey CVXBEEMKQHEXEN-UHFFFAOYSA-N
Adsorbate Water: InChIKey XLYOFNOQVPJJNP-UHFFFAOYSA-N
Kind: experiment
Temperature: 298 K
Tabular data in the source: 0
pressure (bar)	naphthalen-1-yl methylcarbamate fraction	naphthalen-1-yl methylcarbamate uptake (mg/kg)	Water fraction	Water uptake (mg/kg)	total uptake (mg/kg)
1.01325	0.0706	6461			
1.01325	0.0909	13601			
1.01325	0.2191	18856			
1.01325	0.5537	25126			
1.01325	1.6447	30457			
1.01325	2.8536	35570			
1.01325	4.2393	40720			
1.01325	5.9984	45437			
1.01325	8.6123	51496			
1.01325	10.0469	54291			
