Adsorption isotherm of Oxytetracycline Hydrochloride, Water on DCMBC600
DOI: 10.1039/c6ra26534k
Article source: Figure 3
Adsorbate Oxytetracycline Hydrochloride: InChIKey SVDOODSCHVSYEK-IFLJXUKPSA-N
Adsorbate Water: InChIKey XLYOFNOQVPJJNP-UHFFFAOYSA-N
Kind: experiment
Temperature: 298 K
Tabular data in the source: 0
pressure (bar)	Oxytetracycline Hydrochloride fraction	Oxytetracycline Hydrochloride uptake ()	Water fraction	Water uptake ()	total uptake ()
1.01325	0.0957	33604			
1.01325	0.3613	48147			
1.01325	1.0074	57802			
1.01325	2.1663	65915			
1.01325	4.1018	72101			
1.01325	5.9053	77900			
1.01325	8.2362	81772			
1.01325	10.2888	87058			
