Adsorption isotherm of naphthalen-1-yl methylcarbamate, Water on CMBC700
DOI: 10.1039/c6ra26534k
Article source: Figure 3
Adsorbate naphthalen-1-yl methylcarbamate: InChIKey CVXBEEMKQHEXEN-UHFFFAOYSA-N
Adsorbate Water: InChIKey XLYOFNOQVPJJNP-UHFFFAOYSA-N
Kind: experiment
Temperature: 298 K
Tabular data in the source: 0
pressure (bar)	naphthalen-1-yl methylcarbamate fraction	naphthalen-1-yl methylcarbamate uptake ()	Water fraction	Water uptake ()	total uptake ()
1.01325	0.0498	38300			
1.01325	0.0507	83200			
1.01325	0.2453	118000			
1.01325	0.8407	156000			
1.01325	1.9142	188000			
1.01325	3.117	220000			
1.01325	4.3586	250000			
1.01325	6.4789	273000			
1.01325	8.2797	309000			
1.01325	9.7296	331000			
