Adsorption isotherm of Oxytetracycline Hydrochloride, Water on CMBC700
DOI: 10.1039/c6ra26534k
Article source: Figure 1
Adsorbate Oxytetracycline Hydrochloride: InChIKey SVDOODSCHVSYEK-IFLJXUKPSA-N
Adsorbate Water: InChIKey XLYOFNOQVPJJNP-UHFFFAOYSA-N
Kind: experiment
Temperature: 298 K
Tabular data in the source: 0
pressure (bar)	Oxytetracycline Hydrochloride fraction	Oxytetracycline Hydrochloride uptake (mg/kg)	Water fraction	Water uptake (mg/kg)	total uptake (mg/kg)
1.01325	1.0837	5922.2			
1.01325	1.5604	8506.8			
1.01325	4.0067	10112.3			
1.01325	5.6477	11840.5			
1.01325	7.7345	13463.7			
1.01325	9.9074	14912.2			
1.01325	12.7701	15609.3			
1.01325	15.6475	16725.6			
