Adsorption isotherm of Oxytetracycline Hydrochloride, Water on CMBC600
DOI: 10.1039/c6ra26534k
Article source: Figure 4
Adsorbate Oxytetracycline Hydrochloride: InChIKey SVDOODSCHVSYEK-IFLJXUKPSA-N
Adsorbate Water: InChIKey XLYOFNOQVPJJNP-UHFFFAOYSA-N
Kind: experiment
Temperature: 298 K
Tabular data in the source: 0
pressure (bar)	Oxytetracycline Hydrochloride fraction	Oxytetracycline Hydrochloride uptake (mg/kg)	Water fraction	Water uptake (mg/kg)	total uptake (mg/kg)
1.01325	1.1022	3826			
1.01325	2.3586	5054			
1.01325	4.0088	6475			
1.01325	6.2213	7360			
1.01325	8.94	8015			
1.01325	11.9399	8594			
1.01325	14.5274	9249			
1.01325	18.0522	9484			
