Adsorption isotherm of naphthalen-1-yl methylcarbamate, Oxytetracycline Hydrochloride, Water on DCMBC700
DOI: 10.1039/c6ra26534k
Article source: Figure 4
Adsorbate naphthalen-1-yl methylcarbamate: InChIKey CVXBEEMKQHEXEN-UHFFFAOYSA-N
Adsorbate Oxytetracycline Hydrochloride: InChIKey SVDOODSCHVSYEK-IFLJXUKPSA-N
Adsorbate Water: InChIKey XLYOFNOQVPJJNP-UHFFFAOYSA-N
Kind: experiment
Temperature: 298 K
Tabular data in the source: 0
pressure (bar)	naphthalen-1-yl methylcarbamate fraction	naphthalen-1-yl methylcarbamate uptake (mg/kg)	Oxytetracycline Hydrochloride fraction	Oxytetracycline Hydrochloride uptake (mg/kg)	Water fraction	Water uptake (mg/kg)	total uptake (mg/kg)
1.01325	0.9573	16775.2					
1.01325	2.496	20497.6					
1.01325	3.4802	22374.5					
1.01325	5.6094	25220.9					
1.01325	7.6492	26534.6					
1.01325	10.0648	28755.4					
1.01325	12.8919	30819.7					
