Adsorption isotherm of naphthalen-1-yl methylcarbamate, Water on CMBC500
DOI: 10.1039/c6ra26534k
Article source: Figure 1
Adsorbate naphthalen-1-yl methylcarbamate: InChIKey CVXBEEMKQHEXEN-UHFFFAOYSA-N
Adsorbate Water: InChIKey XLYOFNOQVPJJNP-UHFFFAOYSA-N
Kind: experiment
Temperature: 298 K
Tabular data in the source: 0
pressure (bar)	naphthalen-1-yl methylcarbamate fraction	naphthalen-1-yl methylcarbamate uptake (mg/kg)	Water fraction	Water uptake (mg/kg)	total uptake (mg/kg)
1.01325	0.1054	3115			
1.01325	0.6063	6490			
1.01325	1.7054	8816			
1.01325	2.5359	11784			
1.01325	4.1358	14167			
1.01325	5.3082	16610			
1.01325	7.4088	18876			
1.01325	9.8024	20268			
1.01325	11.3778	23292			
1.01325	13.979	24509			
