Adsorption isotherm of naphthalen-1-yl methylcarbamate, Water on DCMBC600
DOI: 10.1039/c6ra26534k
Article source: Figure 3
Adsorbate naphthalen-1-yl methylcarbamate: InChIKey CVXBEEMKQHEXEN-UHFFFAOYSA-N
Adsorbate Water: InChIKey XLYOFNOQVPJJNP-UHFFFAOYSA-N
Kind: experiment
Temperature: 298 K
Tabular data in the source: 0
pressure (bar)	naphthalen-1-yl methylcarbamate fraction	naphthalen-1-yl methylcarbamate uptake ()	Water fraction	Water uptake ()	total uptake ()
1.01325	0.1012	24300			
1.01325	0.2953	36100			
1.01325	1.084	44500			
1.01325	1.7175	47800			
1.01325	3.5919	53900			
1.01325	5.0527	59500			
1.01325	7.0563	62800			
1.01325	8.9566	66700			
1.01325	10.818	68900			
