Adsorption isotherm of Oxytetracycline Hydrochloride, Water on CMBC600
DOI: 10.1039/c6ra26534k
Article source: Figure 2
Adsorbate Oxytetracycline Hydrochloride: InChIKey SVDOODSCHVSYEK-IFLJXUKPSA-N
Adsorbate Water: InChIKey XLYOFNOQVPJJNP-UHFFFAOYSA-N
Kind: experiment
Temperature: 298 K
Tabular data in the source: 0
pressure (bar)	Oxytetracycline Hydrochloride fraction	Oxytetracycline Hydrochloride uptake (mg/kg)	Water fraction	Water uptake (mg/kg)	total uptake (mg/kg)
1.01325	1.1007	3906			
1.01325	2.4589	5181			
1.01325	4.0339	6573			
1.01325	6.2026	7542			
1.01325	8.9422	8165			
1.01325	11.9558	8597			
1.01325	14.6269	9181			
1.01325	18.1314	9383			
