Adsorption isotherm of naphthalen-1-yl methylcarbamate, Water on CMBC600
DOI: 10.1039/c6ra26534k
Article source: Figure 4
Adsorbate naphthalen-1-yl methylcarbamate: InChIKey CVXBEEMKQHEXEN-UHFFFAOYSA-N
Adsorbate Water: InChIKey XLYOFNOQVPJJNP-UHFFFAOYSA-N
Kind: experiment
Temperature: 298 K
Tabular data in the source: 0
pressure (bar)	naphthalen-1-yl methylcarbamate fraction	naphthalen-1-yl methylcarbamate uptake (mg/kg)	Water fraction	Water uptake (mg/kg)	total uptake (mg/kg)
1.01325	0.064	4448			
1.01325	0.3327	8770			
1.01325	0.8541	12118			
1.01325	1.4501	16044			
1.01325	2.8199	19728			
1.01325	3.8473	23016			
1.01325	5.3955	26244			
1.01325	7.3752	28924			
1.01325	9.7865	32396			
1.01325	12.6439	33678			
