Adsorption isotherm of naphthalen-1-yl methylcarbamate, Water on CMBC600
DOI: 10.1039/c6ra26534k
Article source: Figure 1
Adsorbate naphthalen-1-yl methylcarbamate: InChIKey CVXBEEMKQHEXEN-UHFFFAOYSA-N
Adsorbate Water: InChIKey XLYOFNOQVPJJNP-UHFFFAOYSA-N
Kind: experiment
Temperature: 298 K
Tabular data in the source: 0
pressure (bar)	naphthalen-1-yl methylcarbamate fraction	naphthalen-1-yl methylcarbamate uptake (mg/kg)	Water fraction	Water uptake (mg/kg)	total uptake (mg/kg)
1.01325	0.0689	4745			
1.01325	0.4354	8877			
1.01325	0.8629	12137			
1.01325	1.4737	16152			
1.01325	3.0247	19584			
1.01325	4.0385	22842			
1.01325	6.4566	26679			
1.01325	8.2762	28887			
1.01325	9.8639	31911			
1.01325	12.6483	33477			
