Adsorption isotherm of Oxytetracycline Hydrochloride, Water on DCMBC600
DOI: 10.1039/c6ra26534k
Article source: Figure 2
Adsorbate Oxytetracycline Hydrochloride: InChIKey SVDOODSCHVSYEK-IFLJXUKPSA-N
Adsorbate Water: InChIKey XLYOFNOQVPJJNP-UHFFFAOYSA-N
Kind: experiment
Temperature: 298 K
Tabular data in the source: 0
pressure (bar)	Oxytetracycline Hydrochloride fraction	Oxytetracycline Hydrochloride uptake (mg/kg)	Water fraction	Water uptake (mg/kg)	total uptake (mg/kg)
1.01325	0.0906	8446			
1.01325	0.3487	11993			
1.01325	1.0098	14083			
1.01325	2.2031	16368			
1.01325	4.0006	17830			
1.01325	5.9131	19292			
1.01325	8.2142	20074			
1.01325	10.2706	21439			
