Adsorption isotherm of Oxytetracycline Hydrochloride, Water on CMBC300
DOI: 10.1039/c6ra26534k
Article source: Figure 1
Adsorbate Oxytetracycline Hydrochloride: InChIKey SVDOODSCHVSYEK-IFLJXUKPSA-N
Adsorbate Water: InChIKey XLYOFNOQVPJJNP-UHFFFAOYSA-N
Kind: experiment
Temperature: 298 K
Tabular data in the source: 0
pressure (bar)	Oxytetracycline Hydrochloride fraction	Oxytetracycline Hydrochloride uptake (mg/kg)	Water fraction	Water uptake (mg/kg)	total uptake (mg/kg)
1.01325	0.8209	997.1			
1.01325	3.1369	1485			
1.01325	5.7691	1693.2			
1.01325	7.4807	1832			
1.01325	9.1061	1953.4			
1.01325	10.8176	1970			
1.01325	12.1122	2161.4			
1.01325	14.1976	2090.5			
