Adsorption isotherm of Oxytetracycline Hydrochloride, Water on DCMBC700
DOI: 10.1039/c6ra26534k
Article source: Figure 2
Adsorbate Oxytetracycline Hydrochloride: InChIKey SVDOODSCHVSYEK-IFLJXUKPSA-N
Adsorbate Water: InChIKey XLYOFNOQVPJJNP-UHFFFAOYSA-N
Kind: experiment
Temperature: 298 K
Tabular data in the source: 0
pressure (bar)	Oxytetracycline Hydrochloride fraction	Oxytetracycline Hydrochloride uptake (mg/kg)	Water fraction	Water uptake (mg/kg)	total uptake (mg/kg)
1.01325	0.0456	16752			
1.01325	0.2741	23989			
1.01325	1.5677	27441			
1.01325	2.7462	31329			
1.01325	4.5721	34394			
1.01325	6.9735	36440			
1.01325	9.3895	37951			
1.01325	12.5536	38299			
