Adsorption isotherm of naphthalen-1-yl methylcarbamate, Water on CMBC600
DOI: 10.1039/c6ra26534k
Article source: Figure 2
Adsorbate naphthalen-1-yl methylcarbamate: InChIKey CVXBEEMKQHEXEN-UHFFFAOYSA-N
Adsorbate Water: InChIKey XLYOFNOQVPJJNP-UHFFFAOYSA-N
Kind: experiment
Temperature: 298 K
Tabular data in the source: 0
pressure (bar)	naphthalen-1-yl methylcarbamate fraction	naphthalen-1-yl methylcarbamate uptake (mg/kg)	Water fraction	Water uptake (mg/kg)	total uptake (mg/kg)
1.01325	0.0417	4777			
1.01325	0.3606	8743			
1.01325	0.81	12635			
1.01325	1.6363	16160			
1.01325	2.883	19611			
1.01325	4.6227	22768			
1.01325	6.5072	25705			
1.01325	8.1889	28348			
1.01325	10.059	32239			
1.01325	12.6394	33853			
