Adsorption isotherm of naphthalen-1-yl methylcarbamate, Water on DCMBC700
DOI: 10.1039/c6ra26534k
Article source: Figure 3
Adsorbate naphthalen-1-yl methylcarbamate: InChIKey CVXBEEMKQHEXEN-UHFFFAOYSA-N
Adsorbate Water: InChIKey XLYOFNOQVPJJNP-UHFFFAOYSA-N
Kind: experiment
Temperature: 298 K
Tabular data in the source: 0
pressure (bar)	naphthalen-1-yl methylcarbamate fraction	naphthalen-1-yl methylcarbamate uptake (mg/m2)	Water fraction	Water uptake (mg/m2)	total uptake (mg/m2)
1.01325	0.257	57400			
1.01325	0.7097	70300			
1.01325	1.1622	77000			
1.01325	2.985	87100			
1.01325	4.8336	93200			
1.01325	6.8373	97600			
1.01325	8.8151	103000			
1.01325	11.0126	104000			
