Adsorption isotherm of Oxytetracycline Hydrochloride, Water on CMBC700
DOI: 10.1039/c6ra26534k
Article source: Figure 4
Adsorbate Oxytetracycline Hydrochloride: InChIKey SVDOODSCHVSYEK-IFLJXUKPSA-N
Adsorbate Water: InChIKey XLYOFNOQVPJJNP-UHFFFAOYSA-N
Kind: experiment
Temperature: 298 K
Tabular data in the source: 0
pressure (bar)	Oxytetracycline Hydrochloride fraction	Oxytetracycline Hydrochloride uptake (mg/kg)	Water fraction	Water uptake (mg/kg)	total uptake (mg/kg)
1.01325	1.0322	5941			
1.01325	1.5314	8301			
1.01325	4.0113	10321			
1.01325	5.6802	11879			
1.01325	7.7857	13554			
1.01325	9.8444	14998			
1.01325	12.7453	15696			
1.01325	15.5993	16567			
