Adsorption isotherm of Oxytetracycline Hydrochloride, Water on CMBC500
DOI: 10.1039/c6ra26534k
Article source: Figure 1
Adsorbate Oxytetracycline Hydrochloride: InChIKey SVDOODSCHVSYEK-IFLJXUKPSA-N
Adsorbate Water: InChIKey XLYOFNOQVPJJNP-UHFFFAOYSA-N
Kind: experiment
Temperature: 298 K
Tabular data in the source: 0
pressure (bar)	Oxytetracycline Hydrochloride fraction	Oxytetracycline Hydrochloride uptake (mg/kg)	Water fraction	Water uptake (mg/kg)	total uptake (mg/kg)
1.01325	0.5767	1399			
1.01325	2.2602	2306.3			
1.01325	4.1449	2986.5			
1.01325	5.2958	3387.6			
1.01325	7.1081	3456.5			
1.01325	8.4171	3717.8			
1.01325	9.7117	3926.7			
1.01325	10.762	4327.8			
