Adsorption isotherm of naphthalen-1-yl methylcarbamate, Oxytetracycline Hydrochloride, Water on DCMBC700
DOI: 10.1039/c6ra26534k
Article source: Figure 4
Adsorbate naphthalen-1-yl methylcarbamate: InChIKey CVXBEEMKQHEXEN-UHFFFAOYSA-N
Adsorbate Oxytetracycline Hydrochloride: InChIKey SVDOODSCHVSYEK-IFLJXUKPSA-N
Adsorbate Water: InChIKey XLYOFNOQVPJJNP-UHFFFAOYSA-N
Kind: experiment
Temperature: 298 K
Tabular data in the source: 0
pressure (bar)	naphthalen-1-yl methylcarbamate fraction	naphthalen-1-yl methylcarbamate uptake (mg/kg)	Oxytetracycline Hydrochloride fraction	Oxytetracycline Hydrochloride uptake (mg/kg)	Water fraction	Water uptake (mg/kg)	total uptake (mg/kg)
1.01325			0.9036	16681.3			
1.01325			2.6929	20904.3			
1.01325			3.8738	25690.4			
1.01325			6.2178	28536.8			
1.01325			8.2039	31790			
1.01325			11.532	33134.8			
1.01325			14.9854	33666.2			
1.01325			17.7051	35511.5			
