Adsorption isotherm of naphthalen-1-yl methylcarbamate, Oxytetracycline Hydrochloride, Water on CMBC600
DOI: 10.1039/c6ra26534k
Article source: Figure 4
Adsorbate naphthalen-1-yl methylcarbamate: InChIKey CVXBEEMKQHEXEN-UHFFFAOYSA-N
Adsorbate Oxytetracycline Hydrochloride: InChIKey SVDOODSCHVSYEK-IFLJXUKPSA-N
Adsorbate Water: InChIKey XLYOFNOQVPJJNP-UHFFFAOYSA-N
Kind: experiment
Temperature: 298 K
Tabular data in the source: 0
pressure (bar)	naphthalen-1-yl methylcarbamate fraction	naphthalen-1-yl methylcarbamate uptake (mg/kg)	Oxytetracycline Hydrochloride fraction	Oxytetracycline Hydrochloride uptake (mg/kg)	Water fraction	Water uptake (mg/kg)	total uptake (mg/kg)
1.01325			2.8084	4250			
1.01325			4.9835	5556			
1.01325			7.2336	6556			
1.01325			9.8398	7173			
1.01325			13.2709	7331			
1.01325			17.058	6646			
1.01325			21.1828	6613			
1.01325			24.6137	5927			
