Adsorption isotherm of naphthalen-1-yl methylcarbamate, Water on CMBC400
DOI: 10.1039/c6ra26534k
Article source: Figure 1
Adsorbate naphthalen-1-yl methylcarbamate: InChIKey CVXBEEMKQHEXEN-UHFFFAOYSA-N
Adsorbate Water: InChIKey XLYOFNOQVPJJNP-UHFFFAOYSA-N
Kind: experiment
Temperature: 298 K
Tabular data in the source: 0
pressure (bar)	naphthalen-1-yl methylcarbamate fraction	naphthalen-1-yl methylcarbamate uptake (mg/kg)	Water fraction	Water uptake (mg/kg)	total uptake (mg/kg)
1.01325	0.5939	2124			
1.01325	1.5831	4276			
1.01325	2.5113	5263			
1.01325	4.0867	8113			
1.01325	6.1262	9913			
1.01325	7.5428	11715			
1.01325	9.3014	13516			
1.01325	11.1332	15083			
1.01325	11.8538	17236			
1.01325	13.7589	18571			
