Adsorption isotherm of naphthalen-1-yl methylcarbamate, Water on DCMBC700
DOI: 10.1039/c6ra26534k
Article source: Figure 4
Adsorbate naphthalen-1-yl methylcarbamate: InChIKey CVXBEEMKQHEXEN-UHFFFAOYSA-N
Adsorbate Water: InChIKey XLYOFNOQVPJJNP-UHFFFAOYSA-N
Kind: experiment
Temperature: 298 K
Tabular data in the source: 0
pressure (bar)	naphthalen-1-yl methylcarbamate fraction	naphthalen-1-yl methylcarbamate uptake (mg/kg)	Water fraction	Water uptake (mg/kg)	total uptake (mg/kg)
1.01325	0.1879	17400.9			
1.01325	0.6888	22343.5			
1.01325	1.1182	24689.7			
1.01325	2.9433	28161.8			
1.01325	4.8042	29913.4			
1.01325	6.7545	31352.2			
1.01325	8.7764	33228.9			
1.01325	11.031	33478.9			
