Adsorption isotherm of Oxytetracycline Hydrochloride, Water on CMBC700
DOI: 10.1039/c6ra26534k
Article source: Figure 2
Adsorbate Oxytetracycline Hydrochloride: InChIKey SVDOODSCHVSYEK-IFLJXUKPSA-N
Adsorbate Water: InChIKey XLYOFNOQVPJJNP-UHFFFAOYSA-N
Kind: experiment
Temperature: 298 K
Tabular data in the source: 0
pressure (bar)	Oxytetracycline Hydrochloride fraction	Oxytetracycline Hydrochloride uptake (mg/kg)	Water fraction	Water uptake (mg/kg)	total uptake (mg/kg)
1.01325	1.0261	5680			
1.01325	1.5721	8353			
1.01325	4.0167	10107			
1.01325	5.6703	11811			
1.01325	7.7123	13467			
1.01325	9.9557	14930			
1.01325	12.7601	15811			
1.01325	15.6364	16692			
