Adsorption isotherm of naphthalen-1-yl methylcarbamate, Oxytetracycline Hydrochloride, Water on CMBC700
DOI: 10.1039/c6ra26534k
Article source: Figure 4
Adsorbate naphthalen-1-yl methylcarbamate: InChIKey CVXBEEMKQHEXEN-UHFFFAOYSA-N
Adsorbate Oxytetracycline Hydrochloride: InChIKey SVDOODSCHVSYEK-IFLJXUKPSA-N
Adsorbate Water: InChIKey XLYOFNOQVPJJNP-UHFFFAOYSA-N
Kind: experiment
Temperature: 298 K
Tabular data in the source: 0
pressure (bar)	naphthalen-1-yl methylcarbamate fraction	naphthalen-1-yl methylcarbamate uptake (mg/kg)	Oxytetracycline Hydrochloride fraction	Oxytetracycline Hydrochloride uptake (mg/kg)	Water fraction	Water uptake (mg/kg)	total uptake (mg/kg)
1.01325	0.9549	13304					
1.01325	2.1093	16989					
1.01325	3.9812	22172					
1.01325	5.2761	27698					
1.01325	6.6179	33513					
1.01325	8.2246	38350					
1.01325	9.6912	44567					
1.01325	11.298	49979					
