Adsorption isotherm of naphthalen-1-yl methylcarbamate, Water on CMBC300
DOI: 10.1039/c6ra26534k
Article source: Figure 1
Adsorbate naphthalen-1-yl methylcarbamate: InChIKey CVXBEEMKQHEXEN-UHFFFAOYSA-N
Adsorbate Water: InChIKey XLYOFNOQVPJJNP-UHFFFAOYSA-N
Kind: experiment
Temperature: 298 K
Tabular data in the source: 0
pressure (bar)	naphthalen-1-yl methylcarbamate fraction	naphthalen-1-yl methylcarbamate uptake (mg/kg)	Water fraction	Water uptake (mg/kg)	total uptake (mg/kg)
1.01325	0.8381	1890			
1.01325	2.3036	3867			
1.01325	3.5004	4854			
1.01325	5.8696	7236			
1.01325	7.5061	9153			
1.01325	9.0448	11071			
1.01325	10.6813	12989			
1.01325	12.4032	14499			
1.01325	13.9176	16242			
1.01325	15.6273	17810			
