Adsorption isotherm of Nitrogen on IISERP-COF3
DOI: 10.1002/aenm.201601189
Article source: Figure 2 (f)
Adsorbate Nitrogen: InChIKey IJGRMHOSHXDMSA-UHFFFAOYSA-N
Kind: experiment
Temperature: 77 K
Tabular data in the source: 0
pressure (bar)	uptake (mmol/g)
0.012281	2.34822
0.033336	2.80641
0.05965	3.20733
0.078952	3.43643
0.103514	3.72279
0.128085	3.89462
0.152646	4.12371
0.198263	4.5819
0.247395	4.92554
0.294765	5.26919
0.342134	5.72738
0.389514	6.18557
0.436883	6.52921
0.483381	6.9874
0.531632	7.44559
0.579001	7.90378
0.626371	8.36197
0.675503	8.93471
0.72112	9.67927
0.768489	10.4238
0.814987	11.5693
0.862357	13.0584
0.90622	15.4639
0.922017	16.7239
0.934298	17.984
0.946578	19.7595
0.958859	21.764
0.968505	24.4559
0.97728	27.2623
0.991313	34.937
0	2.06186
0.012281	2.74914
0.039476	3.43643
0.138613	4.46735
0.179842	4.811
0.221071	5.09737
0.266687	5.49828
0.311433	5.84192
0.357049	6.24284
0.402666	6.58648
0.449164	6.9874
0.49478	7.67468
0.538644	8.19015
0.58426	8.82016
0.629887	9.45017
0.675503	10.1947
0.722873	11.0538
0.771124	12.2566
0.822881	14.0893
0.872884	16.7812
0.911489	20.3895
0.928157	22.6804
0.943944	25.7732
0.957977	29.6678
0.968505	33.1615
0.978161	37.2852
0.988689	41.2371
0.997464	45.0172
1.00184	46.0481
