Adsorption isotherm of Nitrogen on IISERP-COF1
DOI: 10.1002/aenm.201601189
Article source: Figure S29 (d)
Adsorbate Nitrogen: InChIKey IJGRMHOSHXDMSA-UHFFFAOYSA-N
Kind: experiment
Temperature: 77 K
Tabular data in the source: 0
pressure (bar)	uptake (mmol/g)
0	0.65993
0	1.08799
0	1.37337
0	1.5874
0	1.80143
0.001682	2.30083
0.001682	2.51486
0.003364	2.69322
0.005877	2.88942
0.011764	3.04994
0.03361	3.69203
0.056296	4.01308
0.085701	4.3698
0.104182	4.58383
0.126028	4.85137
0.151228	5.11891
0.194919	5.72533
0.248692	7.52675
0.297419	8.82878
0.343634	8.84661
0.40833	9.04281
0.436052	9.11415
0.484779	9.29251
0.531835	9.4352
0.57888	9.54221
0.625925	9.70273
0.673821	9.84542
0.720867	10.0238
0.769604	10.1843
0.814967	10.4162
0.862022	10.755
0.909068	11.3258
0.952759	12.3603
1.00485	15.3924
0	2.05113
0.003364	2.87158
0.011764	3.62069
0.042009	4.3698
0.149556	5.761
0.185678	6.27824
0.240292	7.68728
0.268856	8.82878
0.312547	9.00713
0.35791	9.14982
0.403284	9.29251
0.453693	9.4352
0.495702	9.79191
0.537712	9.98811
0.583085	10.0773
0.629289	10.22
0.674662	10.3448
0.720867	10.4875
0.767081	10.6837
0.814967	10.9334
0.867899	11.415
0.924195	12.3246
0.967877	13.7872
1.00485	15.3924
