Adsorption isotherm of Nitrogen on IISER-COF1_Ni3N
DOI: 10.1002/aenm.201601189
Article source: Figure S29 (d)
Adsorbate Nitrogen: InChIKey IJGRMHOSHXDMSA-UHFFFAOYSA-N
Kind: experiment
Temperature: 77 K
Tabular data in the source: 0
pressure (bar)	uptake (mmol/g)
0.001682	0.16052
0.003364	0.4459
0.006718	0.73127
0.010082	0.98098
0.060491	1.26635
0.111741	1.42687
0.150387	1.53389
0.196601	1.69441
0.252056	2.37218
0.309183	2.40785
0.344475	2.44352
0.388156	2.51486
0.435211	2.51486
0.483938	2.51486
0.530994	2.51486
0.578039	2.55054
0.626766	2.51486
0.674662	2.56837
0.720026	2.58621
0.769604	2.62188
0.816649	2.69322
0.863694	2.80024
0.909068	3.01427
0.9536	3.44233
1.00317	4.79786
0	0.26754
0	0.6956
0.001682	0.9453
0.011764	1.12366
0.040327	1.33769
0.156274	1.73008
0.194078	1.90844
0.235246	2.24732
0.268856	2.58621
0.312547	2.62188
0.35791	2.62188
0.404125	2.62188
0.452011	2.65755
0.49402	2.72889
0.537712	2.72889
0.582244	2.74673
0.628448	2.76457
0.674662	2.7824
0.720026	2.7824
0.76624	2.80024
0.813285	2.83591
0.862863	2.9786
0.905704	3.19263
0.968718	4.01308
1.00317	4.8157
