Adsorption isotherm of Nitrogen on Ni3N loaded IISERP-COF3
DOI: 10.1002/aenm.201601189
Article source: Figure 2 (f)
Adsorbate Nitrogen: InChIKey IJGRMHOSHXDMSA-UHFFFAOYSA-N
Kind: experiment
Temperature: 77 K
Tabular data in the source: 0
pressure (bar)	uptake (mmol/g)
0	0
0.010528	0.45819
0.031583	0.80183
0.056144	0.91638
0.078952	1.14548
0.101761	1.14548
0.201768	1.48912
0.305292	2.06186
0.407053	2.4055
0.508814	2.74914
0.610584	3.20733
0.912361	5.26919
0.961493	6.7583
0.972021	7.44559
0.979033	8.01833
0.984301	8.59107
0.987807	9.50745
0.994829	10.0802
1.00184	10.9966
0	1.03093
0.021937	1.0882
0.042111	1.26002
0.094749	1.48912
0.210543	1.94731
0.454422	2.63459
0.486005	2.74914
0.517588	2.86369
0.550924	2.97824
0.581636	3.09278
0.645673	3.43643
0.660588	3.43643
0.678128	3.55097
0.707958	3.66552
0.738659	3.83734
0.771995	4.00916
0.786039	4.12371
0.817622	4.35281
0.849205	4.69645
0.886047	5.15464
0.928157	6.30011
0.964999	8.70561
0.971139	9.3929
0.982549	11.1111
0.993948	11.512
1.00711	12.6002
