Adsorption isotherm of Benzene, 1,2-Dichloroethane on BPL Carbon
DOI: 10.1007/s10450-017-9914-1
Article source: Figure 7
Adsorbate Benzene: InChIKey UHOVQNZJYSORNB-UHFFFAOYSA-N
Adsorbate 1,2-Dichloroethane: InChIKey WSLDOOZREJYCGB-UHFFFAOYSA-N
Kind: experiment
Isotherm type: excess
Temperature: 293 K
Tabular data in the source: 0
pressure (bar)	Benzene fraction	Benzene uptake (mmol/g)	1,2-Dichloroethane fraction	1,2-Dichloroethane uptake (mmol/g)	total uptake (mmol/g)
1.01325	0.00089	0.00063			
1.01325	0.02548	0.39834			
1.01325	0.07433	0.52872			
1.01325	0.1023	0.57376			
1.01325	0.2109	0.56781			
1.01325	0.22087	0.57222			
1.01325	0.35954	0.53732			
1.01325	0.36416	0.51937			
1.01325	0.47093	0.42966			
1.01325	0.55045	0.29869			
1.01325	0.55616	0.34183			
1.01325	0.68643	0.23449			
1.01325	0.71044	0.18569			
1.01325	0.80229	0.15266			
1.01325	0.93807	0.04721			
1.01325	0.99875	0.00189			
