Adsorption isotherm of 1-Octene, N-Hexane on Zeolite 13X
DOI: 10.1007/s10450-017-9914-1
Article source: Figure 6
Adsorbate 1-Octene: InChIKey KWKAKUADMBZCLK-UHFFFAOYSA-N
Adsorbate N-Hexane: InChIKey VLKZOEOYAKHREP-UHFFFAOYSA-N
Kind: experiment
Isotherm type: excess
Temperature: 293 K
Tabular data in the source: 0
pressure (bar)	1-Octene fraction	1-Octene uptake (mmol/g)	N-Hexane fraction	N-Hexane uptake (mmol/g)	total uptake (mmol/g)
1.01325			0.00055	0.0019	
1.01325			0.01468	0.7376	
1.01325			0.02765	0.9819	
1.01325			0.03258	1.1057	
1.01325			0.08746	1.2697	
1.01325			0.16126	1.1983	
1.01325			0.31816	1.0271	
1.01325			0.42676	0.8955	
1.01325			0.68861	0.533	
1.01325			0.80741	0.3313	
1.01325			0.99891	0.0026	
