Adsorption isotherm of Ethanol, Water on Zeolite ZSM-5
DOI: 10.1007/s10450-017-9914-1
Article source: Figure 5
Adsorbate Ethanol: InChIKey LFQSCWFLJHTTHZ-UHFFFAOYSA-N
Adsorbate Water: InChIKey XLYOFNOQVPJJNP-UHFFFAOYSA-N
Kind: experiment
Isotherm type: excess
Temperature: 293 K
Tabular data in the source: 0
pressure (bar)	Ethanol fraction	Ethanol uptake (mmol/g)	Water fraction	Water uptake (mmol/g)	total uptake (mmol/g)
1.01325	0.00018	0.0034			
1.01325	0.02103	1.8704			
1.01325	0.03058	1.929			
1.01325	0.03527	1.9979			
1.01325	0.07275	2.0807			
1.01325	0.11292	2.099			
1.01325	0.14571	2.0967			
1.01325	0.1884	2.0347			
1.01325	0.20083	2.0071			
1.01325	0.27846	1.8325			
1.01325	0.3044	1.7417			
1.01325	0.32781	1.6475			
1.01325	0.35374	1.5682			
1.01325	0.38004	1.497			
1.01325	0.41696	1.3925			
1.01325	0.44992	1.2776			
1.01325	0.49279	1.1994			
1.01325	0.49945	1.1225			
1.01325	0.84347	0.2677			
1.01325	0.89697	0.1838			
1.01325	0.99982	0.0069			
