Adsorption isotherm of Ethanol, Water on H152 Alumina
DOI: 10.1007/s10450-017-9914-1
Article source: Figure 3
Adsorbate Ethanol: InChIKey LFQSCWFLJHTTHZ-UHFFFAOYSA-N
Adsorbate Water: InChIKey XLYOFNOQVPJJNP-UHFFFAOYSA-N
Kind: experiment
Isotherm type: excess
Temperature: 303 K
Tabular data in the source: 0
pressure (bar)	Ethanol fraction	Ethanol uptake (mmol/g)	Water fraction	Water uptake (mmol/g)	total uptake (mmol/g)
1.01325			0.00036	0.0074	
1.01325			0.01887	0.9357	
1.01325			0.12347	3.046	
1.01325			0.25669	3.4853	
1.01325			0.29524	3.4265	
1.01325			0.41158	2.9982	
1.01325			0.50994	2.9136	
1.01325			0.62265	2.2868	
1.01325			0.72893	2.0882	
1.01325			0.9258	0.2702	
1.01325			0.98598	0.2353	
1.01325			0.99982	0.0037	
