Adsorption isotherm of Ethanol, Water on CAL Carbon
DOI: 10.1007/s10450-017-9914-1
Article source: Figure 4
Adsorbate Ethanol: InChIKey LFQSCWFLJHTTHZ-UHFFFAOYSA-N
Adsorbate Water: InChIKey XLYOFNOQVPJJNP-UHFFFAOYSA-N
Kind: experiment
Isotherm type: excess
Temperature: 303 K
Tabular data in the source: 0
pressure (bar)	Ethanol fraction	Ethanol uptake (mmol/g)	Water fraction	Water uptake (mmol/g)	total uptake (mmol/g)
1.01325	0.00036	0.0074			
1.01325	0.01612	2.9959			
1.01325	0.03121	3.4152			
1.01325	0.0528	3.6562			
1.01325	0.0672	3.693			
1.01325	0.11726	3.6968			
1.01325	0.16409	3.6693			
1.01325	0.2156	3.5461			
1.01325	0.25739	3.4763			
1.01325	0.31446	3.5684			
1.01325	0.34294	3.2742			
1.01325	0.41792	2.6178			
1.01325	0.62617	1.7795			
1.01325	0.71786	1.4671			
1.01325	0.77551	1.2023			
1.01325	0.82634	0.6893			
1.01325	0.9193	0.2702			
1.01325	0.9672	0.3181			
1.01325	0.98484	0.3972			
1.01325	0.99964	0.0074			
