Adsorption isotherm of Methane on Graphitized Thermal Carbon Black
DOI: 10.1007/s10450-012-9433-z
Article source: Figure 5
Adsorbate Methane: InChIKey VNWKTOKETHGBQD-UHFFFAOYSA-N
Kind: experiment
Isotherm type: excess
Temperature: 113 K
Tabular data in the source: 0
pressure (bar)	uptake (micromoles/m2)
0.00026	0.124
0.000508	0.03
0.000982	0.274
0.000982	0.162
0.001446	0.782
0.001446	0.688
0.001446	0.613
0.001457	0.594
0.001457	0.425
0.001457	0.368
0.001683	0.895
0.00192	1.027
0.002157	1.102
0.002631	1.365
0.002631	1.215
0.002868	1.459
0.002868	1.422
0.003106	1.553
0.00358	1.873
0.00358	1.817
0.003806	2.155
0.003817	2.136
0.003817	2.005
0.004246	3.715
0.004246	3.527
0.004257	3.433
0.004257	3.283
0.004257	3.151
0.004269	3.057
0.004269	3.001
0.004269	2.832
0.004269	2.776
0.004709	4.411
0.004709	4.223
0.00472	4.054
0.00472	3.96
0.004935	4.918
0.004935	4.843
0.004935	4.749
0.004958	3.922
0.005161	5.182
0.005172	5.069
0.005398	5.351
0.005624	5.952
0.005635	5.633
0.005635	5.483
0.005635	5.426
0.00585	6.385
0.00585	6.216
0.005861	6.028
0.006324	6.742
0.006324	6.704
0.006798	6.836
0.007521	6.949
0.008718	7.194
0.009678	7.289
0.011349	7.44
0.012558	7.535
0.013518	7.629
0.014715	7.724
0.015912	7.875
0.017832	8.007
0.01808	8.026
0.019751	8.234
0.02192	8.348
0.023365	8.424
0.025285	8.519
0.026482	8.594
0.03057	8.747
0.031779	8.766
0.032976	8.805
0.036341	8.957
0.040192	9.053
0.04428	9.13
0.046934	9.225
0.049576	9.246
0.083997	9.527
0.140553	10.177
0.195437	10.526
0.295527	11.698
0.352534	12.581
0.399817	13.648
0.436791	14.662
0.47801	15.725
0.507699	16.83
0.552566	17.754
0.597422	18.961
0.652589	20.032
0.678675	20.235
0.701713	20.674
0.739895	21.878
0.813232	24.142
0.858663	26.25
