Adsorption isotherm of Methane on activated [NC2H8]4Cu5(BTT)3xG
DOI: 10.1039/c4cc10002f
Article source: Figure 3b
Adsorbate Methane: InChIKey VNWKTOKETHGBQD-UHFFFAOYSA-N
Kind: experiment
Temperature: 298 K
Tabular data in the source: 0
pressure (bar)	uptake (cm3(STP)/g)
0	0
0.016518	0.00531
0.030683	0.181292
0.040122	0.184326
0.051921	0.188119
0.070798	0.194187
0.089676	0.200255
0.108554	0.206324
0.127438	0.383823
0.141596	0.388374
0.202963	0.750958
0.269042	0.943628
0.33748	1.13706
0.405919	1.33048
0.471997	1.52315
0.538076	1.71582
0.604156	1.90849
0.667874	2.10041
0.738666	2.12316
0.804744	2.31583
0.849586	2.50168
0.87083	2.67993
0.918024	2.6951
0.934543	2.70041
0.986456	2.7171
1.00298	2.89384
1.06906	3.08651
