Adsorption isotherm of Carbon Dioxide on activated [NC2H8]4Cu5(BTT)3xG
DOI: 10.1039/c4cc10002f
Article source: Figure 3a
Adsorbate Carbon Dioxide: InChIKey CURLTUGMZLYLDI-UHFFFAOYSA-N
Kind: experiment
Temperature: 298 K
Tabular data in the source: 0
pressure (bar)	uptake (cm3(STP)/g)
0	0
0.00481	1.01238
0.007254	2.02419
0.012004	2.27813
0.012164	4.30064
0.016834	3.54332
0.016874	4.04894
0.016993	5.56583
0.026612	7.59058
0.031482	9.36139
0.057855	13.9182
0.058015	15.9407
0.081923	19.2329
0.084508	22.0144
0.110741	24.8015
0.110941	27.3297
0.139559	30.3702
0.139679	31.887
0.204091	38.981
0.206615	41.004
0.270888	46.3283
0.273392	48.0985
0.339911	51.9064
0.340049	53.6761
0.406528	56.9784
0.406628	58.2424
0.473066	61.0391
0.47555	62.5565
0.539564	64.5942
0.542069	66.3644
0.608407	67.897
0.608507	69.1611
0.674846	70.6937
0.674944	71.9577
0.741263	73.2375
0.741343	74.2488
0.805316	75.7808
0.807742	76.5398
0.85514	77.8151
0.87408	78.0723
0.923864	79.601
0.940439	79.8577
0.990203	81.1336
1.00678	81.3903
1.07314	83.1757
