Adsorption isotherm of Nitrogen on activated [NC2H8]4Cu5(BTT)3xG
DOI: 10.1039/c4cc10002f
Article source: Figure 4b
Adsorbate Nitrogen: InChIKey IJGRMHOSHXDMSA-UHFFFAOYSA-N
Kind: experiment
Temperature: 298 K
Tabular data in the source: 0
pressure (bar)	uptake (wt%)
0	0
0.807453	0.260286
1.34576	0.325019
2.69151	0.584764
2.96066	1.04141
5.11387	1.10453
6.99793	1.82065
8.07453	1.62375
10.0932	2.33973
13.0538	2.27149
15.0725	2.98747
18.0331	2.85395
20.0518	3.37412
23.147	3.17519
24.8965	3.69563
28.1263	3.49656
30.0104	4.01686
33.1056	3.81793
34.9896	4.27296
38.0849	4.00875
39.9689	4.46378
45.0828	4.3281
49.6584	4.71515
55.176	4.64433
59.7516	4.90083
65	4.83029
