Adsorption isotherm of Nitrogen on activated [NC2H8]4Cu5(BTT)3xG
DOI: 10.1039/c4cc10002f
Article source: Figure 4a
Adsorbate Nitrogen: InChIKey IJGRMHOSHXDMSA-UHFFFAOYSA-N
Kind: experiment
Temperature: 298 K
Tabular data in the source: 0
pressure (bar)	uptake (wt%)
0.143112	0.065217
0.144362	0.065217
0.573074	0.195652
1.00241	0.391304
2.57789	0.978261
3.00848	1.04348
5.15829	1.69565
7.02312	2.08696
8.02741	2.28261
10.0366	2.6087
13.1944	3.06522
14.9174	3.26087
18.0765	3.58696
19.9445	3.65217
23.1036	3.97826
24.8272	4.1087
28.1319	4.23913
29.8561	4.30435
33.1608	4.43478
34.7419	4.43478
38.0472	4.5
39.7708	4.63043
45.0878	4.76087
49.5425	4.8913
55.0038	4.95652
59.7459	5.08696
64.9205	5.08696
