Adsorption isotherm of Carbon Dioxide on activated [NC2H8]4Cu5(BTT)3xG
DOI: 10.1039/c4cc10002f
Article source: Figure 4a
Adsorbate Carbon Dioxide: InChIKey CURLTUGMZLYLDI-UHFFFAOYSA-N
Kind: experiment
Temperature: 298 K
Tabular data in the source: 0
pressure (bar)	uptake (wt%)
0.022498	2.34783
0.071244	7.56522
0.33497	10.0435
0.464334	11.5435
0.598697	12.5217
1.01491	14.087
1.29988	14.3478
2.43353	16.0435
2.5754	16.2391
4.86269	17.5435
5.72324	17.7391
6.72502	18.1957
8.87671	18.6522
9.73913	18.6522
11.8908	19.1087
13.6144	19.2391
14.9062	19.4348
17.6359	19.5652
18.7846	19.6957
21.8018	19.8261
22.5199	19.8913
25.8246	20.0217
27.5488	20.087
29.7036	20.2174
