Adsorption isotherm of Carbon Dioxide on activated [NC2H8]4Cu5(BTT)3xG
DOI: 10.1039/c4cc10002f
Article source: Figure 3b
Adsorbate Carbon Dioxide: InChIKey CURLTUGMZLYLDI-UHFFFAOYSA-N
Kind: experiment
Temperature: 298 K
Tabular data in the source: 0
pressure (bar)	uptake (cm3(STP)/g)
0	0
3.4e-05	0.857154
0.004773	1.37296
0.009466	0.688757
0.009527	2.23163
0.011859	1.54667
0.0119	2.57525
0.028431	2.92343
0.030838	4.1242
0.054489	5.50323
0.056903	6.87543
0.082914	8.25522
0.082974	9.7981
0.109026	12.2065
0.111311	10.3215
0.134996	12.5577
0.137443	14.787
0.203637	17.894
0.203731	20.2941
0.269898	22.7153
0.272359	25.2876
0.336152	27.3652
0.338585	29.2517
0.404732	31.1587
0.40716	32.8737
0.470925	34.2657
0.471	36.1514
0.537118	37.3727
0.537186	39.087
0.603353	41.5082
0.605658	40.1375
0.669472	42.7295
0.671886	44.1017
0.737991	44.9801
0.738039	46.1801
0.804151	47.2299
0.804191	48.2585
0.8538	49.6459
0.870298	49.1369
0.919939	51.3814
0.938811	51.2161
0.988432	52.9463
1.00495	52.9516
1.07108	54.5157
