Adsorption isotherm of Nitrogen on activated [NC2H8]4Cu5(BTT)3xG
DOI: 10.1039/c4cc10002f
Article source: Figure 3a
Adsorbate Nitrogen: InChIKey IJGRMHOSHXDMSA-UHFFFAOYSA-N
Kind: experiment
Temperature: 298 K
Tabular data in the source: 0
pressure (bar)	uptake (cm3(STP)/g)
0	0
0.01185	0.005586
0.030837	0.23686
0.045084	0.48154
0.061675	0.473719
0.080635	0.464781
0.101992	0.70611
0.111472	0.701641
0.1352	0.941853
0.201587	1.16195
0.270346	1.38094
0.336734	1.60104
0.403148	2.07252
0.469509	2.04124
0.538294	2.51161
0.604682	2.73171
0.668701	2.95293
0.737459	3.17191
0.803847	3.39201
0.851274	3.62105
0.870235	3.61211
0.917662	3.84115
0.938993	3.83109
0.98642	4.06013
1.00538	4.0512
1.0694	4.27241
