Adsorption isotherm of Methane on activated [NC2H8]4Cu5(BTT)3xG
DOI: 10.1039/c4cc10002f
Article source: Figure 3a
Adsorbate Methane: InChIKey VNWKTOKETHGBQD-UHFFFAOYSA-N
Kind: experiment
Temperature: 298 K
Tabular data in the source: 0
pressure (bar)	uptake (cm3(STP)/g)
0	0
0.009491	0.502793
0.021316	0.75419
0.030781	1.00559
0.056791	1.50838
0.05915	1.50838
0.0828	2.01117
0.085212	2.51397
0.108836	2.76536
0.111195	2.76536
0.137178	3.01676
0.137205	3.26816
0.201022	4.27374
0.203407	4.52514
0.267278	6.03352
0.269611	5.78212
0.335787	6.78771
0.335814	7.03911
0.404403	8.54749
0.470607	9.80447
0.470632	10.0559
0.534449	11.0615
0.536809	11.0615
0.602986	12.067
0.669162	13.0726
0.735366	14.3296
0.737699	14.0782
0.801517	15.0838
0.853508	15.838
0.867693	16.0894
0.917326	16.8436
0.93387	17.095
0.985862	17.8492
1.00002	17.8492
1.06856	18.8547
