Adsorption isotherm of Carbon Dioxide on activated [NC2H8]4Cu5(BTT)3xG
DOI: 10.1039/c4cc10002f
Article source: Figure 4b
Adsorbate Carbon Dioxide: InChIKey CURLTUGMZLYLDI-UHFFFAOYSA-N
Kind: experiment
Temperature: 298 K
Tabular data in the source: 0
pressure (bar)	uptake (wt%)
0	0
0.269151	3.58981
0.672878	6.91838
1.21118	9.13716
1.34576	10.1814
1.88406	11.3558
3.09524	13.117
3.90269	13.6384
5.11387	14.6163
6.99793	15.3324
9.01656	16.1137
9.95859	16.2433
13.0538	16.8929
14.9379	17.1521
18.0331	17.6059
19.9172	17.7346
23.147	17.9924
24.8965	18.0559
28.1263	18.3138
29.8758	18.3773
33.1056	18.5699
34.8551	18.6334
38.0849	18.7607
39.8344	18.8242
44.6791	18.9499
