Adsorption isotherm of Carbon Dioxide on IRMOF-1
DOI: 10.1021/Jp108715q
Adsorbate Carbon Dioxide: InChIKey CURLTUGMZLYLDI-UHFFFAOYSA-N
Temperature: 208 K
Tabular data in the source: 0
pressure (bar)	uptake (molecules/unitcell)
0.0499032	3.96352
0.0993645	6.45604
0.148494	12.4381
0.196717	17.9216
0.237736	24.9007
0.2606	168.47
0.277583	172.458
0.299086	175.449
0.398494	183.425
0.504214	188.41
0.605865	191.401
0.707414	193.894
0.793459	195.888
0.895091	196.885
1.00396	198.879
