Adsorption isotherm of Carbon Dioxide on IRMOF-1
DOI: 10.1021/Jp108715q
Adsorbate Carbon Dioxide: InChIKey CURLTUGMZLYLDI-UHFFFAOYSA-N
Temperature: 273 K
Tabular data in the source: 0
pressure (bar)	uptake (molecules/unitcell)
0.0993645	1.9695
0.198988	2.46801
0.300807	2.46801
0.398494	3.46502
0.49846	4.46203
0.59895	4.96053
0.703366	6.45604
0.900243	7.95156
1.00396	9.94558
1.1926	12.9366
1.50036	15.9276
1.79251	20.9127
2.10501	25.8977
2.4862	33.3753
2.85336	39.8558
3.38948	56.3065
3.89003	74.2527
4.23976	90.7033
4.59448	106.655
5.03636	115.629
