Adsorption isotherm of Carbon Dioxide on IRMOF-16
DOI: 10.1021/Jp108715q
Adsorbate Carbon Dioxide: InChIKey CURLTUGMZLYLDI-UHFFFAOYSA-N
Temperature: 250 K
Tabular data in the source: 0
pressure (bar)	uptake (molecules/unitcell)
0.499607	2.15636
1.0017	3.56515
1.50528	4.73915
1.98677	6.14794
2.52943	7.55673
3.03987	9.20031
3.47354	10.6091
3.9834	12.7223
4.43827	14.1311
5.01689	17.1835
5.96445	21.8794
6.41027	25.871
7.06546	31.2714
7.32476	35.2629
7.32476	39.2545
7.43113	111.338
7.98659	114.625
8.89858	119.086
10.095	121.434
