Adsorption isotherm of Carbon Dioxide on IRMOF-1
DOI: 10.1021/Jp108715q
Adsorbate Carbon Dioxide: InChIKey CURLTUGMZLYLDI-UHFFFAOYSA-N
Temperature: 208 K
Tabular data in the source: 0
pressure (bar)	uptake (molecules/unitcell)
0.000224	0.483028
0.00420135	3.24507
0.00784725	5.54677
0.00983591	7.38813
0.0201107	17.0553
0.0299436	27.6431
0.0399974	46.9774
0.0500512	155.157
0.0598841	169.888
