Adsorption isotherm of Carbon Dioxide on IRMOF-10
DOI: 10.1021/Jp108715q
Adsorbate Carbon Dioxide: InChIKey CURLTUGMZLYLDI-UHFFFAOYSA-N
Temperature: 225 K
Tabular data in the source: 0
pressure (bar)	uptake (molecules/unitcell)
0.200486	8.89298
0.401854	15.5219
0.603724	24.3604
0.798671	34.3037
0.995678	45.3519
1.22041	55.2952
1.43376	71.8675
1.75736	108.326
1.75736	461.867
1.96217	474.02
2.2095	483.964
2.44617	489.488
