Adsorption isotherm of Carbon Dioxide on IRMOF-16
DOI: 10.1021/Jp108715q
Adsorbate Carbon Dioxide: InChIKey CURLTUGMZLYLDI-UHFFFAOYSA-N
Temperature: 260 K
Tabular data in the source: 0
pressure (bar)	uptake (molecules/unitcell)
1.01991	2.86076
3.00718	6.61753
4.98086	12.4875
5.96445	15.7747
6.88942	19.5314
8.04436	25.1666
8.96296	31.0366
9.52932	38.0805
9.80809	43.2461
10.2048	50.7596
10.3157	102.18
10.9675	107.111
11.9155	112.981
13.039	116.034
13.913	117.912
