Adsorption isotherm of Carbon Dioxide on IRMOF-1
DOI: 10.1021/Jp108715q
Adsorbate Carbon Dioxide: InChIKey CURLTUGMZLYLDI-UHFFFAOYSA-N
Temperature: 208 K
Tabular data in the source: 0
pressure (bar)	uptake (molecules/unitcell)
0.00188124	4.16575
0.00409087	8.76915
0.0063005	13.3725
0.00806821	15.6742
0.00983591	20.2776
0.0197793	64.4703
0.030054	163.443
0.0399974	177.254
0.0498303	185.079
