Adsorption isotherm of Carbon Dioxide on IRMOF-1
DOI: 10.1021/Jp108715q
Adsorbate Carbon Dioxide: InChIKey CURLTUGMZLYLDI-UHFFFAOYSA-N
Temperature: 208 K
Tabular data in the source: 0
pressure (bar)	uptake (molecules/unitcell)
0.0116341	0.157489
0.0307959	0.781818
0.0409404	2.19078
0.0510849	2.66043
0.0601023	4.06939
0.0798277	4.06939
0.10068	5.0087
0.150276	10.6445
0.201562	17.6893
0.220724	20.0376
0.238758	22.3859
0.259047	166.1
0.299625	171.736
