Adsorption isotherm of Carbon Dioxide on IRMOF-1
DOI: 10.1021/Jp108715q
Adsorbate Carbon Dioxide: InChIKey CURLTUGMZLYLDI-UHFFFAOYSA-N
Temperature: 208 K
Tabular data in the source: 0
pressure (bar)	uptake (molecules/unitcell)
0.00656182	2.66043
0.0116341	12.0535
0.0206514	27.552
0.0313595	67.9422
0.041504	161.873
0.0505214	174.084
0.0612294	180.189
0.0798277	187.234
0.10068	191.931
0.119842	193.809
0.150839	198.036
0.200435	201.324
0.25003	203.672
0.300753	206.02
