Adsorption isotherm of Carbon Dioxide on IRMOF-10
DOI: 10.1021/Jp108715q
Adsorbate Carbon Dioxide: InChIKey CURLTUGMZLYLDI-UHFFFAOYSA-N
Temperature: 200 K
Tabular data in the source: 0
pressure (bar)	uptake (molecules/unitcell)
0.100875	12.2074
0.149001	14.4171
0.203915	19.9411
0.25638	26.57
0.339167	37.6182
0.441141	49.7712
0.496748	61.9241
0.568931	84.0205
0.578662	511.584
0.593571	525.947
0.798671	536.995
1.01271	543.624
1.22041	550.253
1.40965	552.462
