Adsorption isotherm of Carbon Dioxide on IRMOF-16
DOI: 10.1021/Jp108715q
Adsorbate Carbon Dioxide: InChIKey CURLTUGMZLYLDI-UHFFFAOYSA-N
Temperature: 200 K
Tabular data in the source: 0
pressure (bar)	uptake (molecules/unitcell)
0.206597	3.79995
0.300551	4.26955
0.405359	6.14794
0.503221	6.85233
0.602595	8.26112
0.713831	10.6091
0.899034	14.6007
1.00894	16.9487
1.0922	143.27
1.31735	143.505
1.40059	143.74
1.52164	144.679
