Adsorption isotherm of Carbon Dioxide on IRMOF-16
DOI: 10.1021/Jp108715q
Adsorbate Carbon Dioxide: InChIKey CURLTUGMZLYLDI-UHFFFAOYSA-N
Temperature: 275 K
Tabular data in the source: 0
pressure (bar)	uptake (molecules/unitcell)
3.9834	7.32193
6.05106	10.6091
7.95785	15.5399
10.095	20.9402
11.0071	24.2274
11.9585	28.6886
12.9921	33.1497
13.9632	40.4285
14.8992	55.6904
16.0707	81.2834
16.9634	96.7801
17.6495	102.65
19.8072	108.52
21.9105	111.572
26.1428	116.738
