Adsorption isotherm of Carbon Dioxide on IRMOF-10
DOI: 10.1021/Jp108715q
Adsorbate Carbon Dioxide: InChIKey CURLTUGMZLYLDI-UHFFFAOYSA-N
Temperature: 275 K
Tabular data in the source: 0
pressure (bar)	uptake (molecules/unitcell)
1.97888	24.3604
4.03429	48.6664
5.95899	82.9156
7.06036	106.117
8.15517	134.842
9.1056	183.454
9.58087	218.808
9.74474	246.428
9.82773	270.734
11.9442	369.063
14.0322	399.998
18.4066	432.037
20.3783	438.666
