Adsorption isotherm of Carbon Dioxide on IRMOF-1
DOI: 10.1021/Jp108715q
Adsorbate Carbon Dioxide: InChIKey CURLTUGMZLYLDI-UHFFFAOYSA-N
Temperature: 208 K
Tabular data in the source: 0
pressure (bar)	uptake (molecules/unitcell)
0.00430748	0.312164
0.0121977	5.47835
0.0206514	14.8714
0.0291052	25.6734
0.041504	45.3989
0.0505214	154.358
0.0595387	168.448
0.0809549	180.189
0.10068	185.825
0.119279	188.173
0.150276	192.87
0.199871	196.627
0.248903	199.445
0.299625	201.793
