Adsorption isotherm of Carbon Dioxide on IRMOF-1
DOI: 10.1021/Jp108715q
Adsorbate Carbon Dioxide: InChIKey CURLTUGMZLYLDI-UHFFFAOYSA-N
Temperature: 225 K
Tabular data in the source: 0
pressure (bar)	uptake (molecules/unitcell)
0.0487706	2.46801
0.0999364	4.46203
0.197849	7.45305
0.405414	17.9216
0.49846	26.3962
0.605865	51.3214
0.619935	87.7123
0.641654	137.563
0.652798	146.037
0.699341	155.01
0.802619	163.983
0.998218	171.461
1.1926	177.942
1.59813	182.927
2.01054	187.413
