Adsorption isotherm of Carbon Dioxide on IRMOF-10
DOI: 10.1021/Jp108715q
Adsorbate Carbon Dioxide: InChIKey CURLTUGMZLYLDI-UHFFFAOYSA-N
Temperature: 250 K
Tabular data in the source: 0
pressure (bar)	uptake (molecules/unitcell)
0.505244	12.2074
0.995678	21.046
1.49585	30.9893
1.99573	40.9326
2.53057	56.4001
2.99828	72.9723
3.52244	91.7542
4.1033	120.479
4.50446	166.882
4.54282	350.281
4.54282	374.587
5.02942	405.522
5.42829	425.409
6.54158	444.19
7.95033	461.867
