Adsorption isotherm of Carbon Dioxide on IRMOF-1
DOI: 10.1021/Jp108715q
Adsorbate Carbon Dioxide: InChIKey CURLTUGMZLYLDI-UHFFFAOYSA-N
Temperature: 208 K
Tabular data in the source: 0
pressure (bar)	uptake (molecules/unitcell)
0.00994332	0.781818
0.0313595	4.06939
0.0420676	5.948
0.0606659	10.1749
0.0815185	15.8107
0.0995531	20.9769
0.120969	30.8396
0.13055	153.889
0.140131	166.569
0.150839	170.327
0.199307	178.78
0.248903	184.416
0.299625	188.643
