Adsorption isotherm of Carbon Dioxide on IRMOF-1
DOI: 10.1021/Jp108715q
Adsorbate Carbon Dioxide: InChIKey CURLTUGMZLYLDI-UHFFFAOYSA-N
Temperature: 233 K
Tabular data in the source: 0
pressure (bar)	uptake (molecules/unitcell)
0.0496176	1.9695
0.0993645	2.46801
0.196717	6.45604
0.300807	9.94558
0.398494	12.9366
0.501329	17.9216
0.592115	22.4082
0.699341	28.3902
0.798026	39.8558
0.900243	87.7123
0.947966	129.088
0.992505	140.554
1.10685	151.022
1.1926	158.001
1.4005	164.482
1.80283	172.458
2.22935	178.44
2.63306	181.431
