Adsorption isotherm of Carbon Dioxide on IRMOF-1
DOI: 10.1021/Jp108715q
Adsorbate Carbon Dioxide: InChIKey CURLTUGMZLYLDI-UHFFFAOYSA-N
Temperature: 208 K
Tabular data in the source: 0
pressure (bar)	uptake (molecules/unitcell)
0.0021081	145.426
0.0021081	158.102
0.00295317	189.793
0.00422078	199.652
0.00633345	208.102
0.00971374	213.384
0.0190095	219.722
0.0295729	222.891
0.0490095	227.469
0.100136	230.286
0.149995	234.863
0.200277	235.215
0.249291	236.624
0.29915	236.976
