Adsorption isotherm of Carbon Dioxide on IRMOF-16
DOI: 10.1021/Jp108715q
Adsorbate Carbon Dioxide: InChIKey CURLTUGMZLYLDI-UHFFFAOYSA-N
Temperature: 270 K
Tabular data in the source: 0
pressure (bar)	uptake (molecules/unitcell)
1.01624	2.39116
3.01803	5.91314
4.98086	9.43511
6.96432	14.3659
7.98659	17.8879
8.96296	20.9402
10.0225	24.4622
10.8106	28.9234
11.9585	36.4369
13.039	49.3508
13.9632	85.275
14.6859	102.18
15.8978	107.111
16.9634	110.164
19.6649	115.564
