Adsorption isotherm of Carbon Dioxide on IRMOF-16
DOI: 10.1021/Jp108715q
Adsorbate Carbon Dioxide: InChIKey CURLTUGMZLYLDI-UHFFFAOYSA-N
Temperature: 300 K
Tabular data in the source: 0
pressure (bar)	uptake (molecules/unitcell)
2.00837	2.62596
4.96294	5.44354
10.0225	11.7831
14.8992	20.001
19.9505	31.0366
24.8564	49.116
29.7649	78.9354
34.2572	94.9017
39.7127	102.415
44.7286	106.642
50.0161	108.755
54.5353	111.807
