Adsorption isotherm of Carbon Dioxide on IRMOF-1
DOI: 10.1021/Jp108715q
Adsorbate Carbon Dioxide: InChIKey CURLTUGMZLYLDI-UHFFFAOYSA-N
Temperature: 208 K
Tabular data in the source: 0
pressure (bar)	uptake (molecules/unitcell)
0.00318032	0.781818
0.0116341	18.6286
0.021215	63.7153
0.0307959	162.343
0.0403768	175.493
0.0499578	183.477
0.0601023	188.173
0.0798277	193.34
0.100117	197.566
0.120406	198.506
0.131114	199.915
0.149712	201.793
0.199871	205.551
0.250594	207.429
0.300753	210.247
