Adsorption isotherm of Carbon Dioxide on IRMOF-1
DOI: 10.1021/Jp108715q
Adsorbate Carbon Dioxide: InChIKey CURLTUGMZLYLDI-UHFFFAOYSA-N
Temperature: 208 K
Tabular data in the source: 0
pressure (bar)	uptake (molecules/unitcell)
0.00318032	30.37
0.00487107	79.6835
0.00656182	128.997
0.00994332	154.358
0.0116341	166.569
0.0217786	189.113
0.0302323	196.627
0.0409404	201.793
0.0499578	204.142
0.100117	211.656
0.151403	214.004
0.199871	218.701
0.25003	218.701
0.299625	218.701
