Adsorption isotherm of Carbon Dioxide on IRMOF-10
DOI: 10.1021/Jp108715q
Adsorbate Carbon Dioxide: InChIKey CURLTUGMZLYLDI-UHFFFAOYSA-N
Temperature: 300 K
Tabular data in the source: 0
pressure (bar)	uptake (molecules/unitcell)
4.98696	37.6182
9.99582	82.9156
12.4615	117.165
14.0322	141.471
15.0172	162.462
15.9356	184.559
16.7673	204.445
17.4936	222.122
20.0356	287.307
24.9777	353.596
29.5942	383.426
35.064	403.312
39.4838	413.256
