Adsorption isotherm of Carbon Dioxide on IRMOF-1
DOI: 10.1021/Jp108715q
Adsorbate Carbon Dioxide: InChIKey CURLTUGMZLYLDI-UHFFFAOYSA-N
Temperature: 208 K
Tabular data in the source: 0
pressure (bar)	uptake (molecules/unitcell)
0.00221269	49.2791
0.00398039	104.52
0.00607954	146.411
0.00784725	162.983
0.0100569	172.65
0.0198897	192.905
0.0298331	199.35
0.0401079	203.953
0.0500512	206.255
