Adsorption isotherm of Carbon Dioxide on IRMOF-1
DOI: 10.1021/Jp108715q
Adsorbate Carbon Dioxide: InChIKey CURLTUGMZLYLDI-UHFFFAOYSA-N
Temperature: 218 K
Tabular data in the source: 0
pressure (bar)	uptake (molecules/unitcell)
0.0987959	5.95754
0.202444	10.9426
0.299086	17.9216
0.400788	29.8858
0.417217	38.8588
0.43682	132.578
0.452124	155.509
0.489951	162.488
0.595523	171.461
0.699341	176.446
0.798026	180.434
0.895091	182.927
0.998218	184.422
