Adsorption isotherm of Carbon Dioxide on IRMOF-1
DOI: 10.1021/Jp108715q
Adsorbate Carbon Dioxide: InChIKey CURLTUGMZLYLDI-UHFFFAOYSA-N
Temperature: 208 K
Tabular data in the source: 0
pressure (bar)	uptake (molecules/unitcell)
0.0021022	16.5949
0.00398039	38.2309
0.00607954	69.9944
0.00806821	113.727
0.0100569	142.728
0.0200002	182.317
0.0301645	190.603
0.0402183	197.509
0.0500512	199.81
