Adsorption isotherm of Carbon Dioxide on IRMOF-1
DOI: 10.1021/Jp108715q
Adsorbate Carbon Dioxide: InChIKey CURLTUGMZLYLDI-UHFFFAOYSA-N
Temperature: 208 K
Tabular data in the source: 0
pressure (bar)	uptake (molecules/unitcell)
0.00261673	14.8714
0.00430748	35.5362
0.00599824	67.9422
0.00768899	112.559
0.0110705	141.678
0.021215	180.659
0.0296688	190.991
0.0420676	197.566
0.0516485	199.445
0.101807	207.899
0.199871	214.474
0.249466	214.944
