Adsorption isotherm of Carbon Dioxide on IRMOF-16
DOI: 10.1021/Jp108715q
Adsorbate Carbon Dioxide: InChIKey CURLTUGMZLYLDI-UHFFFAOYSA-N
Temperature: 225 K
Tabular data in the source: 0
pressure (bar)	uptake (molecules/unitcell)
0.205113	2.15636
0.406823	2.86076
0.60477	3.33036
1.00531	5.44354
1.21692	6.85233
1.6004	9.66991
2.0229	12.7223
2.4487	16.7139
2.83866	20.4706
3.09515	25.4014
3.18569	130.121
3.60102	131.53
4.18956	133.409
4.99884	135.757
