Adsorption isotherm of Carbon Dioxide on IRMOF-1
DOI: 10.1021/Jp108715q
Adsorbate Carbon Dioxide: InChIKey CURLTUGMZLYLDI-UHFFFAOYSA-N
Temperature: 208 K
Tabular data in the source: 0
pressure (bar)	uptake (molecules/unitcell)
0.00188124	32.2465
0.00398039	80.5822
0.00619002	130.759
0.00817869	156.538
0.0099464	166.205
0.0197793	189.222
0.0298331	197.969
0.0401079	202.112
0.0499407	203.953
