Adsorption isotherm of Carbon Dioxide on IRMOF-1
DOI: 10.1021/Jp108715q
Adsorbate Carbon Dioxide: InChIKey CURLTUGMZLYLDI-UHFFFAOYSA-N
Temperature: 208 K
Tabular data in the source: 0
pressure (bar)	uptake (molecules/unitcell)
0.000334	144.569
0.000666	156.999
0.00121835	171.729
0.00199172	186.921
0.00375943	200.731
0.00596906	209.017
0.0099464	214.541
0.0202212	220.986
0.0301645	225.129
0.0402183	226.05
0.0500512	227.431
