Adsorption isotherm of Carbon Dioxide on IRMOF-1
DOI: 10.1021/Jp108715q
Adsorbate Carbon Dioxide: InChIKey CURLTUGMZLYLDI-UHFFFAOYSA-N
Temperature: 208 K
Tabular data in the source: 0
pressure (bar)	uptake (molecules/unitcell)
0.00398039	4.62609
0.00641098	7.38813
0.00795773	9.68983
0.0100569	12.9122
0.0200002	29.0241
0.0298331	68.6133
0.0401079	162.523
0.0503827	174.492
0.0597736	180.476
