Adsorption isotherm of Carbon Dioxide on IRMOF-1
DOI: 10.1021/Jp108715q
Adsorbate Carbon Dioxide: InChIKey CURLTUGMZLYLDI-UHFFFAOYSA-N
Temperature: 195 K
Tabular data in the source: 0
pressure (bar)	uptake (molecules/unitcell)
0.0394398	4.46203
0.0496176	6.95455
0.0579341	7.95156
0.0767481	11.4411
0.0999364	16.9246
0.137818	185.918
0.159081	189.906
0.195591	195.389
0.299086	200.374
0.400788	204.861
0.504214	206.855
0.602398	209.347
0.802619	212.338
0.992505	213.335
1.20636	215.828
1.48323	218.32
