Adsorption isotherm of Carbon Dioxide, Carbon monoxide on 13X zeolite with Si/Al = 1.4
DOI: 10.1007/s42452-020-2298-y
Article source: Figure 12c, Figure 6b
Adsorbate Carbon Dioxide: InChIKey CURLTUGMZLYLDI-UHFFFAOYSA-N
Adsorbate Carbon monoxide: InChIKey UGFAIRIUMAVXCW-UHFFFAOYSA-N
Kind: experiment
Temperature: 313 K
Tabular data in the source: 0
pressure (bar)	Carbon Dioxide fraction	Carbon Dioxide uptake (mmol/g)	Carbon monoxide fraction	Carbon monoxide uptake (mmol/g)	total uptake (mmol/g)
1.013	0.002254	0.011318	0.997746	2.16168	
1.013	0.006761	0.950687	0.993239	1.45998	
1.013	0.077381	2.76718	0.922619	0.616815	
1.013	0.264447	4.00081	0.735553	0.288601	
1.013	0.528893	4.67987	0.471107	0.152789	
1.013	0.97139	5.20049	0.02861	0.062247	
