Adsorption isotherm of Carbon Dioxide, Carbon monoxide on 13X zeolite with Si/Al = 1.4
DOI: 10.1007/s42452-020-2298-y
Article source: Figure 12b
Adsorbate Carbon Dioxide: InChIKey CURLTUGMZLYLDI-UHFFFAOYSA-N
Adsorbate Carbon monoxide: InChIKey UGFAIRIUMAVXCW-UHFFFAOYSA-N
Kind: experiment
Temperature: 298 K
Tabular data in the source: 0
pressure (bar)	Carbon Dioxide fraction	Carbon Dioxide uptake (mmol/g)	Carbon monoxide fraction	Carbon monoxide uptake (mmol/g)	total uptake (mmol/g)
1.013	0.003649	1.05651	0.996351	1.89268	
1.013	0.059102	3.15288	0.940898	0.689601	
1.013	0.242536	4.60025	0.757464	0.266923	
1.013	0.517093	5.28544	0.482907	0.127252	
1.013	0.823286	5.64878	0.176714	0.061212	
