Adsorption isotherm of Nitrogen on 13X zeolite with Si/Al = 1.4
DOI: 10.1007/s42452-020-2298-y
Article source: Figure 5
Adsorbate Nitrogen: InChIKey IJGRMHOSHXDMSA-UHFFFAOYSA-N
Kind: experiment
Temperature: 283 K
Tabular data in the source: 0
pressure (bar)	uptake (mmol/g)
0.0446	0.0316
0.225	0.153
0.408	0.27
0.594	0.377
0.783	0.477
0.97	0.569
