Adsorption isotherm of Nitrogen on 13X zeolite with Si/Al = 1.4
DOI: 10.1007/s42452-020-2298-y
Article source: Figure 5
Adsorbate Nitrogen: InChIKey IJGRMHOSHXDMSA-UHFFFAOYSA-N
Kind: experiment
Temperature: 313 K
Tabular data in the source: 0
pressure (bar)	uptake (mmol/g)
0.0467	0.0073
0.176	0.056
0.321	0.102
0.439	0.139
0.586	0.18
0.73	0.224
0.877	0.265
