Adsorption isotherm of Carbon Dioxide on 13X zeolite with Si/Al = 1.4
DOI: 10.1007/s42452-020-2298-y
Article source: Figure 3
Adsorbate Carbon Dioxide: InChIKey CURLTUGMZLYLDI-UHFFFAOYSA-N
Kind: experiment
Temperature: 283 K
Tabular data in the source: 0
pressure (bar)	uptake (mmol/g)
0	0
0.019	2.9
0.0486	3.81
0.0867	4.43
0.148	4.89
0.22	5.2
0.298	5.45
0.383	5.62
0.467	5.76
0.554	5.86
0.643	5.93
0.734	6.01
0.825	6.09
0.962	6.22
