Adsorption isotherm of Carbon Dioxide, Nitrogen on 13X zeolite with Si/Al = 1.4
DOI: 10.1007/s42452-020-2298-y
Article source: Figure 10b
Adsorbate Carbon Dioxide: InChIKey CURLTUGMZLYLDI-UHFFFAOYSA-N
Adsorbate Nitrogen: InChIKey IJGRMHOSHXDMSA-UHFFFAOYSA-N
Kind: experiment
Temperature: 298 K
Tabular data in the source: 0
pressure (bar)	Carbon Dioxide fraction	Carbon Dioxide uptake (mmol/g)	Nitrogen fraction	Nitrogen uptake (mmol/g)	total uptake (mmol/g)
1.013	0.001819	0.994137	0.998181	1.50945	
1.013	0.055179	3.13746	0.944821	0.574593	
1.013	0.23527	4.65147	0.76473	0.17329	
1.013	0.516017	5.23518	0.483983	0.086645	
1.013	0.665182	5.52248	0.334818	0.050163	
1.013	0.824656	5.65928	0.175344	0.031922	
1.013	0.905909	5.74593	0.094091	0.018241	
1.013	0.987162	5.69577	0.012838	0	
