Adsorption isotherm of Carbon Dioxide, Carbon monoxide on 13X zeolite with Si/Al = 1.4
DOI: 10.1007/s42452-020-2298-y
Article source: Figure 12a
Adsorbate Carbon Dioxide: InChIKey CURLTUGMZLYLDI-UHFFFAOYSA-N
Adsorbate Carbon monoxide: InChIKey UGFAIRIUMAVXCW-UHFFFAOYSA-N
Kind: experiment
Temperature: 283 K
Tabular data in the source: 0
pressure (bar)	Carbon Dioxide fraction	Carbon Dioxide uptake (mmol/g)	Carbon monoxide fraction	Carbon monoxide uptake (mmol/g)	total uptake (mmol/g)
1.013	0.000602	0.004522	0.999398	3.7762	
1.013	0.001107	1.12289	0.998893	2.41331	
1.013	0.044242	3.50432	0.955758	0.792158	
1.013	0.226492	5.06558	0.773508	0.229867	
1.013	0.51055	5.68912	0.48945	0.097262	
1.013	0.823532	5.95029	0.176468	0.032437	
1.013	0.984839	6.07633	0.015161	0.004525	
