Adsorption isotherm of Nitrogen on 13X zeolite with Si/Al = 1.4
DOI: 10.1007/s42452-020-2298-y
Article source: Figure 5
Adsorbate Nitrogen: InChIKey IJGRMHOSHXDMSA-UHFFFAOYSA-N
Kind: experiment
Temperature: 298 K
Tabular data in the source: 0
pressure (bar)	uptake (mmol/g)
0.0446	0.017
0.132	0.0608
0.214	0.0998
0.295	0.136
0.389	0.178
0.484	0.219
0.582	0.258
0.677	0.297
0.775	0.336
0.868	0.37
0.966	0.409
