Adsorption isotherm of Nitrogen, Carbon monoxide on 13X zeolite with Si/Al = 1.4
DOI: 10.1007/s42452-020-2298-y
Article source: Figure 11c
Adsorbate Nitrogen: InChIKey IJGRMHOSHXDMSA-UHFFFAOYSA-N
Adsorbate Carbon monoxide: InChIKey UGFAIRIUMAVXCW-UHFFFAOYSA-N
Kind: experiment
Temperature: 313 K
Tabular data in the source: 0
pressure (bar)	Nitrogen fraction	Nitrogen uptake (mmol/g)	Carbon monoxide fraction	Carbon monoxide uptake (mmol/g)	total uptake (mmol/g)
1.013	0.999245	0.300325	0.000755	0.001623	
1.013	0.908565	0.272877	0.091435	0.102422	
1.013	0.815629	0.230822	0.184371	0.196731	
1.013	0.529283	0.143629	0.470717	0.469929	
1.013	0.224118	0.064584	0.775882	0.699327	
1.013	0.016395	0.011355	0.983605	0.855512	
