Adsorption isotherm of Nitrogen, Carbon monoxide on 13X zeolite with Si/Al = 1.4
DOI: 10.1007/s42452-020-2298-y
Article source: Figure 11b
Adsorbate Nitrogen: InChIKey IJGRMHOSHXDMSA-UHFFFAOYSA-N
Adsorbate Carbon monoxide: InChIKey UGFAIRIUMAVXCW-UHFFFAOYSA-N
Kind: experiment
Temperature: 298 K
Tabular data in the source: 0
pressure (bar)	Nitrogen fraction	Nitrogen uptake (mmol/g)	Carbon monoxide fraction	Carbon monoxide uptake (mmol/g)	total uptake (mmol/g)
1.013	1	0.431244	0	0	
1.013	0.912708	0.367923	0.087292	0.148232	
1.013	0.821638	0.317627	0.178362	0.286706	
1.013	0.632698	0.23006	0.367302	0.545764	
1.013	0.533312	0.184657	0.466688	0.667978	
1.013	0.226897	0.077758	0.773103	0.967914	
1.013	0.012276	0.003252	0.987724	1.15867	
