Adsorption isotherm of Carbon Dioxide, Nitrogen on 13X zeolite with Si/Al = 1.4
DOI: 10.1007/s42452-020-2298-y
Article source: Figure 10a
Adsorbate Carbon Dioxide: InChIKey CURLTUGMZLYLDI-UHFFFAOYSA-N
Adsorbate Nitrogen: InChIKey IJGRMHOSHXDMSA-UHFFFAOYSA-N
Kind: experiment
Temperature: 283 K
Tabular data in the source: 0
pressure (bar)	Carbon Dioxide fraction	Carbon Dioxide uptake (mmol/g)	Nitrogen fraction	Nitrogen uptake (mmol/g)	total uptake (mmol/g)
1.013	0.000758	0.005705	0.999242	2.88481	
1.013	0.009849	2.26487	0.990151	1.16952	
1.013	0.111369	4.51834	0.888631	0.317577	
1.013	0.221222	5.14018	0.778778	0.150231	
1.013	0.51063	5.7392	0.48937	0.119804	
1.013	0.820492	6.05298	0.179508	0.032328	
1.013	0.986409	6.0758	0.013591	0.001902	
