Adsorption isotherm of Carbon monoxide on 13X zeolite with Si/Al = 1.4
DOI: 10.1007/s42452-020-2298-y
Article source: Figure 4
Adsorbate Carbon monoxide: InChIKey UGFAIRIUMAVXCW-UHFFFAOYSA-N
Kind: experiment
Temperature: 298 K
Tabular data in the source: 0
pressure (bar)	uptake (mmol/g)
0.0382	0.0633
0.108	0.2
0.178	0.316
0.248	0.418
0.316	0.511
0.384	0.594
0.45	0.672
0.514	0.74
0.582	0.808
0.667	0.895
0.754	0.973
0.845	1.06
0.936	1.12
