Adsorption isotherm of Carbon Dioxide on 13X zeolite with Si/Al = 1.4
DOI: 10.1007/s42452-020-2298-y
Article source: Figure 3
Adsorbate Carbon Dioxide: InChIKey CURLTUGMZLYLDI-UHFFFAOYSA-N
Kind: experiment
Temperature: 313 K
Tabular data in the source: 0
pressure (bar)	uptake (mmol/g)
0	0
0.00211	1.28
0.0106	2.03
0.0296	2.74
0.0571	3.34
0.0994	3.86
0.159	4.29
0.23	4.66
0.33	4.97
0.44	5.2
0.56	5.39
0.689	5.55
0.82	5.68
0.956	5.78
