Adsorption isotherm of Carbon Dioxide, Nitrogen on 13X zeolite with Si/Al = 1.4
DOI: 10.1007/s42452-020-2298-y
Article source: Figure 10c
Adsorbate Carbon Dioxide: InChIKey CURLTUGMZLYLDI-UHFFFAOYSA-N
Adsorbate Nitrogen: InChIKey IJGRMHOSHXDMSA-UHFFFAOYSA-N
Kind: experiment
Temperature: 313 K
Tabular data in the source: 0
pressure (bar)	Carbon Dioxide fraction	Carbon Dioxide uptake (mmol/g)	Nitrogen fraction	Nitrogen uptake (mmol/g)	total uptake (mmol/g)
1.013	0.001816	0	0.998184	1.49707	
1.013	0.024047	1.89138	0.975953	0.762319	
1.013	0.071786	2.77116	0.928214	0.500491	
1.013	0.25749	4.02527	0.74251	0.193737	
1.013	0.67201	4.92497	0.32799	0.070321	
