Adsorption isotherm of Carbon monoxide on 13X zeolite with Si/Al = 1.4
DOI: 10.1007/s42452-020-2298-y
Article source: Figure 4
Adsorbate Carbon monoxide: InChIKey UGFAIRIUMAVXCW-UHFFFAOYSA-N
Kind: experiment
Temperature: 313 K
Tabular data in the source: 0
pressure (bar)	uptake (mmol/g)
0.0403	0.0438
0.117	0.127
0.191	0.204
0.265	0.282
0.338	0.345
0.406	0.409
0.495	0.482
0.561	0.535
0.65	0.603
0.741	0.667
0.832	0.73
0.926	0.788
