Adsorption isotherm of Nitrogen, Carbon monoxide on 13X zeolite with Si/Al = 1.4
DOI: 10.1007/s42452-020-2298-y
Article source: Figure 11a
Adsorbate Nitrogen: InChIKey IJGRMHOSHXDMSA-UHFFFAOYSA-N
Adsorbate Carbon monoxide: InChIKey UGFAIRIUMAVXCW-UHFFFAOYSA-N
Kind: experiment
Temperature: 283 K
Tabular data in the source: 0
pressure (bar)	Nitrogen fraction	Nitrogen uptake (mmol/g)	Carbon monoxide fraction	Carbon monoxide uptake (mmol/g)	total uptake (mmol/g)
1.013	0.999999	0.578643	1e-06	0.00163	
1.013	0.916584	0.490901	0.083416	0.207284	
1.013	0.827868	0.416209	0.172132	0.406436	
1.013	0.544337	0.224815	0.455663	0.89474	
1.013	0.229784	0.090557	0.770216	1.2772	
1.013	0.01302	0.001625	0.98698	1.50774	
