Adsorption isotherm of Nitrogen on Physical mixture of UiO-66(Zr)-NH2 (47 mol%) and UiO-66(Zr)-F4 (53 mol%)
DOI: 10.1002/adsu.201700092
Article source: Figure 4
Adsorbate Nitrogen: InChIKey IJGRMHOSHXDMSA-UHFFFAOYSA-N
Kind: experiment
Temperature: 77 K
Tabular data in the source: 0
pressure (bar)	uptake (cm3(STP)/g)
0.00074	71.78
0.001368	79.81
0.001479	1.53
0.001581	20.82
0.001631	5.77
0.001672	39.84
0.001793	51.38
0.001915	108.8
0.002026	122.93
0.002057	115.08
0.002361	29.5
0.002574	61.72
0.002594	100.4
0.002634	89.69
0.002655	129.11
0.003293	134
0.003415	165.89
0.003597	139.17
0.003901	145.27
0.005492	154.13
0.006738	175.56
0.00839	181.93
0.013375	194.83
0.016597	197.68
0.021095	202.59
0.028563	209.25
0.041198	213.86
0.050611	216.79
0.062993	218.32
0.073834	219.49
0.083774	220.51
0.091637	221.75
0.102356	222.26
0.110229	223.36
0.123908	224.59
0.135134	225.61
0.143514	226.64
0.152937	227.29
0.161326	227.21
0.171905	229.11
0.184296	229.4
0.19604	231.08
0.20598	231.51
0.213984	232.24
0.225079	232.75
0.23437	233.62
0.243408	233.99
0.254635	234.42
0.266773	234.19
0.275295	234.26
0.283421	235.65
0.295296	236.23
0.305236	236.74
0.315297	236.73
0.324852	237.17
0.334275	237.6
0.34537	238.26
0.35609	239.28
0.365117	239.71
0.377378	240.29
0.385514	241.53
0.396994	242.77
0.407582	242.7
0.417005	242.69
0.425384	244.37
0.436874	244.37
0.447331	245.31
0.457787	245.75
0.468497	246.25
0.479471	246.84
0.490059	246.98
0.498053	247.71
0.508246	248.43
0.51845	249.45
0.528379	249.51
0.540741	249.5
0.548542	250.23
0.5583	250.6
0.570661	251.33
0.578463	251.33
0.586275	252.06
0.597329	252.43
0.609032	254.27
0.616844	252.05
0.622042	255.37
0.627909	252.78
0.633745	256.84
0.636359	252.77
0.643502	257.94
0.648072	253.88
0.655864	258.67
0.656522	254.61
0.665611	259.41
0.66628	254.61
0.678621	260.51
0.67929	256.08
0.688378	261.98
0.699433	264.19
0.699453	257.91
0.707255	257.91
0.710487	264.55
0.719596	264.92
0.720265	259.01
0.730022	260.11
0.73065	266.39
0.738472	261.59
0.739749	268.23
0.749527	262.69
0.752759	269.33
0.76124	263.42
0.763813	270.44
0.772294	264.89
0.775516	272.65
0.782041	266.73
0.783318	273.01
0.792427	274.11
0.793096	267.47
0.800877	276.33
0.802205	267.83
0.807402	268.94
0.808669	278.91
0.815204	270.78
0.822327	282.22
0.823655	273.36
0.830129	283.7
0.836016	273.72
0.842521	274.46
0.845074	287.01
0.852268	276.3
0.857426	289.96
0.862026	278.51
0.865227	291.8
0.865927	278.88
0.871074	293.65
0.872432	279.24
0.879514	298.07
0.880882	281.09
0.891875	298.8
0.891936	281.82
0.90292	304.34
0.903639	284.77
0.910701	309.14
0.914035	287.72
0.923053	312.08
0.923782	290.3
0.933448	317.62
0.935485	292.87
0.940673	298.04
0.943844	320.57
0.952375	299.88
0.954888	325.36
0.959438	327.2
0.963409	306.15
0.97186	308
0.974383	332.37
0.979003	311.69
0.983542	317.22
0.985437	334.21
0.991334	321.65
0.993249	331.99
1.00497	327.92
