Adsorption isotherm of Nitrogen on UiO-66(Zr)-F4
DOI: 10.1002/adsu.201700092
Article source: Figure 2
Adsorbate Nitrogen: InChIKey IJGRMHOSHXDMSA-UHFFFAOYSA-N
Kind: experiment
Temperature: 77 K
Tabular data in the source: 0
pressure (bar)	uptake (cm3(STP)/g)
-0.000334	70.35
-0.000314	29.71
0.000466	2.93
0.000659	10.97
0.000963	39.96
0.000973	90.25
0.001358	81.17
0.001864	18.42
0.002037	50.32
0.002249	59.05
0.002422	99.57
0.004215	105.62
0.004468	124.6
0.004681	116.34
0.0069	131.82
0.009494	137.53
0.012503	143.35
0.016313	148.24
0.022443	156.16
0.034207	160.23
0.044744	164.19
0.05667	166.17
0.067177	169.09
0.077249	170.83
0.089154	172.23
0.098202	173.86
0.107038	175.14
0.119125	175.61
0.128346	175.96
0.139664	178.64
0.147658	179.22
0.160749	178.88
0.168764	179.92
0.176971	180.74
0.189079	182.14
0.19914	183.42
0.210833	184.35
0.220256	184.94
0.230115	185.98
0.240966	186.45
0.249386	187.27
0.261282	188.32
0.272549	188.78
0.281789	190.06
0.290219	191.35
0.301689	191.93
0.310514	192.63
0.3224	193.45
0.332441	193.8
0.342087	194.61
0.351327	196.01
0.36381	196.01
0.372403	195.55
0.382667	196.94
0.391056	196.71
0.400287	197.76
0.411777	198.93
0.422041	199.86
0.432892	199.98
0.442923	200.33
0.451749	201.14
0.462833	202.54
0.472874	203.01
0.483351	204.52
0.492187	205.8
0.500677	201.27
0.505328	207.44
0.511762	202.55
0.52234	208.6
0.531652	204.18
0.534236	209.54
0.540285	205.58
0.543274	210.82
0.552595	206.86
0.553548	212.1
0.56447	206.86
0.565007	211.98
0.574299	207.21
0.575667	212.8
0.583935	207.68
0.585931	213.85
0.593388	209.19
0.59434	214.78
0.602213	210.12
0.604422	216.64
0.613916	211.27
0.615649	218.9
0.621951	212.88
0.62493	218.75
0.630959	212.3
0.633715	219.34
0.644151	213.91
0.64794	221.1
0.656563	215.09
0.658529	221.84
0.665125	217.14
0.665287	224.04
0.674163	217.58
0.678732	225.36
0.684781	219.79
0.685967	225.8
0.693059	220.52
0.697913	229.18
0.701854	221.69
0.707508	231.52
0.710112	221.84
0.718846	231.08
0.722291	224.48
0.727408	233.14
0.732626	225.07
0.73752	235.19
0.743235	226.39
0.747369	237.4
0.753316	227.71
0.759294	240.04
0.763428	229.77
0.767329	241.65
0.77431	231.82
0.775901	244.15
0.782842	232.56
0.78733	247.23
0.794534	236.23
0.797442	249.43
0.802022	236.67
0.807038	251.78
0.813208	240.48
0.820767	254.27
0.825073	240.78
0.829339	256.62
0.835165	242.1
0.838195	260.44
0.844517	244.89
0.8486	263.96
0.855663	246.94
0.85929	268.65
0.865248	249
0.868916	272.32
0.877477	253.4
0.879342	276.58
0.883202	255.31
0.891754	281.76
0.895908	258.09
0.898816	285.6
0.906577	260.1
0.908533	289.68
0.916082	263.71
0.919111	295.27
0.927642	267.67
0.929669	300.16
0.936751	271.87
0.940227	305.05
0.948495	308.54
0.949559	276.53
0.955983	279.9
0.959265	313.67
0.967341	283.75
0.971637	317.16
0.977331	290.62
0.984789	319.26
0.987697	296.09
0.996046	319.14
0.999572	304.59
1.00617	314.84
1.01344	311.11
