Adsorption isotherm of Carbon Dioxide on UiO-66(Zr)-NH2
DOI: 10.1002/adsu.201700092
Article source: Figure 7
Adsorbate Carbon Dioxide: InChIKey CURLTUGMZLYLDI-UHFFFAOYSA-N
Kind: experiment
Temperature: 298 K
Tabular data in the source: 0
pressure (bar)	uptake (mmol/g)
0.00405	0.0206
0.01129	0.0872
0.01502	0.1587
0.01925	0.0558
0.02788	0.2109
0.02811	0.275
0.02836	0.1261
0.03912	0.1576
0.04283	0.3139
0.04516	0.3744
0.04823	0.2109
0.05568	0.4508
0.05873	0.3951
0.06572	0.5368
0.07298	0.5041
0.07928	0.6107
0.08069	0.549
0.09564	0.6883
0.09705	0.6363
0.10592	0.761
0.11481	0.7187
0.12181	0.835
0.12603	0.7684
0.13654	0.8835
0.13889	0.7999
0.14588	0.9586
0.1501	0.909
0.1543	1.0192
0.16764	0.966
0.17861	1.0799
0.18072	1.0327
0.19007	1.1187
0.20036	1.0812
0.20456	1.1975
0.21367	1.2472
0.21415	1.1575
0.22372	1.3029
0.22444	1.1951
0.23145	1.246
0.24175	1.3489
0.2477	1.3104
0.254	1.3922
0.26292	1.348
0.26457	1.4374
0.27869	1.3904
0.28164	1.498
0.29037	1.4529
0.29482	1.5481
0.30392	1.4856
0.31022	1.5895
0.31654	1.5376
0.32098	1.6309
0.32711	1.5838
0.33322	1.678
0.33841	1.7357
0.34325	1.6396
0.35476	1.6704
0.36328	1.7704
0.36737	1.7243
0.37516	1.8012
0.38222	1.7648
0.38369	1.8301
0.39631	1.8802
0.40226	1.811
0.4093	1.8956
0.41191	1.8379
0.42527	1.888
0.42674	1.9745
0.43863	1.9246
0.43936	2.0015
0.45385	1.9669
0.45718	2.04
0.46201	2.0054
0.46868	2.0804
0.47313	2.0997
0.47834	2.0209
0.4917	2.0671
0.49503	2.1344
0.50877	2.0979
0.50913	2.1748
0.51917	2.123
0.52472	2.2114
0.53401	2.1557
0.5392	2.248
0.54812	2.1942
0.54885	2.2654
0.55812	2.3384
0.55888	2.2193
0.5741	2.2559
0.57631	2.327
0.58708	2.2944
0.58745	2.3636
0.59896	2.3213
0.60043	2.4213
0.61269	2.3752
0.61788	2.4445
0.62531	2.3926
0.62901	2.4599
0.63645	2.3965
0.64275	2.4926
0.6513	2.4235
0.65574	2.5061
0.6628	2.4639
0.67133	2.5331
0.67876	2.4813
0.68246	2.5639
0.69286	2.5236
0.6936	2.6024
0.70376	2.5674
0.70817	2.633
0.72056	2.5888
0.72231	2.656
0.72879	2.6881
0.73028	2.6057
0.74324	2.6225
0.74647	2.7003
0.75856	2.6531
0.76179	2.7294
0.77093	2.6913
0.77475	2.7554
0.7836	2.7043
0.78816	2.7646
0.8001	2.7441
0.80259	2.799
0.81438	2.8113
0.8163	2.7495
0.82881	2.8442
0.82971	2.7763
0.83575	2.7969
0.83898	2.8595
0.85312	2.8885
0.8549	2.8214
0.86668	2.8596
0.86932	2.9191
0.87668	2.9512
0.87728	2.8856
0.8929	2.8826
0.89319	2.9497
0.9038	2.9116
0.90615	2.9742
0.92001	2.9254
0.92353	2.9911
0.93591	2.9484
0.93826	3.0094
0.94711	2.9851
0.95123	3.0339
0.95801	3.0095
0.96419	3.0599
0.97451	3.0203
0.97715	3.0752
0.98009	3.1042
0.98717	3.0463
0.99808	3.057
1.00072	3.0982
1.01104	3.0861
1.01663	3.1242
1.02459	3.0892
1.02783	3.138
1.04403	3.161
1.05699	3.1839
1.06701	3.1855
