Adsorption isotherm of Nitrogen on UiO-66(Zr)-NH2-F4-0.53
DOI: 10.1002/adsu.201700092
Article source: Figure 6
Adsorbate Nitrogen: InChIKey IJGRMHOSHXDMSA-UHFFFAOYSA-N
Kind: experiment
Temperature: 77 K
Tabular data in the source: 0
pressure (bar)	uptake (cm3(STP)/g)
-0.000942	194.11
8.1e-05	112.52
0.000122	186.92
0.000385	167.39
0.000456	180.34
0.000578	201.51
0.000608	207.06
0.000709	93.61
0.00077	103.27
0.00078	171.09
0.001084	225.35
0.001094	161.84
0.001236	121.77
0.001419	219.39
0.00154	174.59
0.002047	132.46
0.002128	81.69
0.002128	148.08
0.002128	214.25
0.002168	22.3
0.002189	157.94
0.00232	49.84
0.002381	61.76
0.002574	29.49
0.002847	12.02
0.003182	71.21
0.003192	139.65
0.003354	233.57
0.003749	40.8
0.004874	240.15
0.004995	263.17
0.005289	249.4
0.005684	253.51
0.005715	257.82
0.006008	244.67
0.00615	269.54
0.008045	276.73
0.00919	284.13
0.013679	290.92
0.018157	295.64
0.025594	300.17
0.033771	304.9
0.045656	308.81
0.054562	311.49
0.069021	312.93
0.083125	316.85
0.092407	318.49
0.100188	318.91
0.111688	320.35
0.119835	320.36
0.136533	322.63
0.146533	323.04
0.164336	324.08
0.17842	325.32
0.191399	326.15
0.199556	327.18
0.214025	329.65
0.228108	329.46
0.240338	329.87
0.253682	330.29
0.268141	330.91
0.282225	330.92
0.29483	331.34
0.308174	332.17
0.315216	333.2
0.331529	333.82
0.342644	333.83
0.358217	334.04
0.367853	335.49
0.379718	336.31
0.390479	338.44
0.398655	339.35
0.412891	339.75
0.422699	340.27
0.430643	340.92
0.440917	341.45
0.450492	341.45
0.463097	341.59
0.472439	341.59
0.488782	341.99
0.504193	342.77
0.518206	343.82
0.529889	343.95
0.539464	344.34
0.549505	344.87
0.556273	345.91
0.563518	345.91
0.573792	346.17
0.587096	346.7
0.592932	346.57
0.598768	346.45
0.60578	346.58
0.61348	347.1
0.622589	347.75
0.631698	348.53
0.63871	348.93
0.646643	349.32
0.658559	349.97
0.665094	350.23
0.67164	350.5
0.681438	350.63
0.691246	350.64
0.700821	351.03
0.712503	352.07
0.720214	353.11
0.73142	352.86
0.743326	353.12
0.749871	354.55
0.760145	354.81
0.771352	354.95
0.78115	354.56
0.789326	354.83
0.789539	357.07
0.796581	357.08
0.812337	358.32
0.823827	357.91
0.824941	359.46
0.829005	355.76
0.831801	359.46
0.841812	360.39
0.842156	355.35
0.854234	361.11
0.854751	355.05
0.864245	362.15
0.869402	356.4
0.872776	362.77
0.87923	357.22
0.881682	364.93
0.890953	367.3
0.892027	359.8
0.903335	361.24
0.904308	368.95
0.913913	363.61
0.914693	371.11
0.923964	371.94
0.925606	366.7
0.935252	368.14
0.938079	376.26
0.94508	370.72
0.950319	379.35
0.954908	371.54
0.961403	372.37
0.96424	383.16
0.976804	375.97
0.982782	385.02
0.98719	377.93
0.992236	386.36
0.994242	380.4
0.995002	383.38
1.00021	387.08
1.00502	385.13
