Adsorption isotherm of Nitrogen on UiO-66(Zr)-NH2-F4-0.53
DOI: 10.1002/adsu.201700092
Article source: Figure 6
Adsorbate Nitrogen: InChIKey IJGRMHOSHXDMSA-UHFFFAOYSA-N
Kind: experiment
Temperature: 77 K
Tabular data in the source: 0
pressure (bar)	uptake (cm3(STP)/g)
0.000973	8.94
0.002523	20.96
0.002695	83.03
0.002786	199.87
0.002959	162.98
0.00308	218.98
0.003171	69.88
0.003192	40.49
0.003435	50.56
0.003567	172.64
0.003678	226.07
0.003962	209.94
0.004225	58.99
0.004245	30.11
0.004337	112.42
0.004377	151.78
0.004458	100.09
0.00459	91.77
0.00459	190.93
0.005097	181.06
0.00536	129.89
0.005492	120.54
0.005786	237.99
0.005806	143.45
0.005938	232.65
0.006383	245.6
0.007356	253.2
0.009058	259.88
0.010021	266.87
0.011541	273.24
0.016961	280.85
0.023689	291.02
0.030762	297.6
0.043569	301.41
0.054704	303.88
0.065657	306.97
0.074189	309.34
0.086054	310.27
0.094585	311.3
0.101434	310.38
0.114424	312.44
0.125174	314.4
0.136482	315.02
0.143534	315.54
0.15317	315.75
0.164285	315.76
0.178004	316.79
0.188947	318.54
0.197479	319.58
0.206739	319.79
0.218604	320
0.227126	320.52
0.236214	321.55
0.248262	322.58
0.259194	322.38
0.270127	322.8
0.281627	323.21
0.288862	324.66
0.298872	325.79
0.307394	326.1
0.322217	326.01
0.331478	325.6
0.339635	325.71
0.348906	327.36
0.358734	328.6
0.368562	329.32
0.379313	329.94
0.389131	330.05
0.397662	329.64
0.408595	329.75
0.418606	330.68
0.430653	331.41
0.441768	331.82
0.452144	331.83
0.460483	331.83
0.469936	332.35
0.47866	334
0.49015	334.52
0.499046	334.42
0.50775	334.63
0.519807	335.77
0.531662	335.98
0.541865	336.7
0.551126	336.3
0.560944	336.2
0.574481	337.54
0.584299	337.75
0.593013	337.96
0.604686	338.28
0.613957	339.52
0.622488	340.34
0.633613	341.58
0.64103	342.3
0.651406	342.62
0.662521	341.39
0.671792	341.81
0.683099	343.76
0.693475	343.87
0.701814	343.98
0.711824	343.98
0.722018	344.4
0.734622	345.02
0.743711	346.06
0.753357	347.6
0.764837	347.5
0.774472	347.51
0.783561	348.34
0.794312	348.44
0.806916	349.07
0.815073	349.59
0.823969	350.82
0.835469	351.96
0.847141	352.58
0.854933	353.82
0.865501	355.16
0.877366	356.09
0.88457	351.57
0.885158	357.12
0.894956	352.81
0.898127	358.05
0.905706	354.26
0.907226	360.11
0.916122	361.15
0.916456	354.98
0.926883	362.8
0.929061	355.6
0.9382	366.29
0.94204	357.36
0.946367	368.66
0.952639	362.81
0.954169	371.13
0.962346	375.04
0.964129	363.94
0.973775	365.49
0.976622	376.38
0.983603	367.24
0.991841	381.02
0.997707	370.13
1.00165	379.79
1.0057	374.96
1.00923	376.61
