Adsorption isotherm of Nitrogen on UiO-66(Zr)-NH2-F4-0.53
DOI: 10.1002/adsu.201700092
Article source: Figure 2
Adsorbate Nitrogen: InChIKey IJGRMHOSHXDMSA-UHFFFAOYSA-N
Kind: experiment
Temperature: 77 K
Tabular data in the source: 0
pressure (bar)	uptake (cm3(STP)/g)
0.003556	140.5
0.003688	8.99
0.003749	148.13
0.003962	3.86
0.004732	19.92
0.005005	41.92
0.005056	96.49
0.005066	70.67
0.005137	31.51
0.00537	88.28
0.005482	60.99
0.005644	183.33
0.005887	51.46
0.006039	157.52
0.00609	80.5
0.006333	106.17
0.006444	173.95
0.006454	132.29
0.007204	120.84
0.007265	165.15
0.007437	193.31
0.008167	202.11
0.010609	257.92
0.012128	261.53
0.013365	245.83
0.014175	215.9
0.014216	238.2
0.01531	266.07
0.016546	228.22
0.017417	274.43
0.024155	280.89
0.030711	290.72
0.040712	298.71
0.051918	303.33
0.059446	305.46
0.07048	308.4
0.080947	309.43
0.09035	312.17
0.099965	313.47
0.109763	315.41
0.118558	316.24
0.133554	318.09
0.142825	318.74
0.151802	320.59
0.162502	322.27
0.173607	323.15
0.182381	323.3
0.190933	324.91
0.204105	325.94
0.210326	327.12
0.224268	327.7
0.238494	329.32
0.244401	328.59
0.252456	330.93
0.263531	330.2
0.273359	331.67
0.286319	334.16
0.295103	335.05
0.303128	335.93
0.314233	336.66
0.324305	337.4
0.335916	337.69
0.345998	338.57
0.355816	339.16
0.364337	339.89
0.376243	341.36
0.387601	342.1
0.396629	341.95
0.406467	343.71
0.414502	345.33
0.42737	344.15
0.438496	345.48
0.445477	346.21
0.457879	347.24
0.46716	347.24
0.474648	347.68
0.486543	348.85
0.496108	350.03
0.506899	351.95
0.517477	352.69
0.525785	353.53
0.537964	353.16
0.548684	353.25
0.556172	353.99
0.56594	354.73
0.575413	356.49
0.587602	357.04
0.599812	357.69
0.607948	358.25
0.61803	358.9
0.629925	360.1
0.639672	360.19
0.648639	361.58
0.659704	362.13
0.668975	362.6
0.677902	362.51
0.690131	363.99
0.702969	364.26
0.711125	365.47
0.720092	366.76
0.729293	367.88
0.738472	368.76
0.746811	367
0.748159	369.57
0.758656	366.49
0.761989	370.74
0.76889	368.03
0.770257	371.47
0.778292	367.66
0.781504	372.65
0.788496	368.54
0.790796	372.94
0.795882	369.94
0.799722	373.97
0.807109	370.45
0.808882	374.12
0.818447	369.94
0.821547	375.51
0.829177	370.89
0.830231	377.13
0.839775	372.22
0.841741	378.6
0.852978	379.48
0.858804	375.22
0.862026	380.36
0.867457	375.52
0.871854	381.39
0.878582	377.21
0.882604	383.37
0.890862	378.24
0.892311	384.69
0.898887	379.7
0.903426	385.86
0.906912	380.73
0.912515	388.36
0.917895	381.61
0.922445	388.58
0.92824	383.01
0.932719	392.1
0.935617	384.11
0.942415	392.98
0.947046	387.26
0.951717	393.94
0.959863	389.46
0.965497	398.19
0.970097	391.23
0.973562	401.05
0.978182	395.04
0.984323	403.7
0.993594	397.9
0.998771	408.98
1.00105	402.23
1.01011	408.76
1.0151	407.22
