Adsorption isotherm of Nitrogen on UiO-66(Zr)-NH2-F4-0.27
DOI: 10.1002/adsu.201700092
Article source: Figure 2
Adsorbate Nitrogen: InChIKey IJGRMHOSHXDMSA-UHFFFAOYSA-N
Kind: experiment
Temperature: 77 K
Tabular data in the source: 0
pressure (bar)	uptake (cm3(STP)/g)
-0.001287	7.3
0.000537	28.37
0.000618	58.13
0.001074	50.55
0.001175	41.31
0.001611	19.5
0.002209	69.96
0.003364	90.66
0.003435	80.49
0.003546	98.23
0.003617	114.5
0.003779	147.4
0.003972	155.34
0.004539	138.71
0.005948	129.65
0.006029	106.55
0.00616	165.14
0.007316	172.16
0.008349	121.89
0.011014	224.5
0.011622	202.29
0.011632	233
0.011946	175.49
0.012179	211.71
0.013253	189.35
0.01376	183.25
0.014276	217.44
0.015401	223.91
0.015979	243.13
0.016536	230.38
0.016668	235.74
0.019373	248.02
0.027134	255.47
0.038138	261.99
0.049111	266.88
0.060399	268.4
0.068221	270.26
0.078515	272.71
0.091008	272.71
0.100239	273.53
0.111121	275.04
0.121162	275.39
0.133645	276.35
0.141538	277.45
0.152258	278.19
0.159067	278.82
0.17078	279.38
0.183111	278.64
0.190943	280.12
0.200083	281.78
0.212454	282.71
0.22285	282.89
0.23131	283.45
0.242395	284.74
0.253115	284.74
0.262214	284.75
0.272944	285.12
0.283704	286.78
0.295063	286.04
0.303503	285.86
0.313625	287.71
0.32469	288.45
0.333788	288.45
0.342887	288.45
0.355249	289.01
0.36534	289.93
0.373466	289.93
0.385808	289.93
0.395231	289.75
0.405961	290.3
0.416053	291.05
0.425151	291.23
0.434949	292.9
0.444362	292.71
0.45412	293.27
0.465184	293.64
0.473969	294.19
0.484993	293.45
0.49478	295.12
0.502896	294.75
0.515238	294.57
0.525664	295.49
0.535097	296.23
0.545483	295.68
0.555625	298.27
0.565342	296.97
0.574785	298.08
0.585201	298.64
0.595627	299.94
0.609265	299.57
0.618719	300.86
0.624565	300.86
0.636937	301.79
0.647626	300.49
0.656766	301.97
0.669775	302.53
0.676919	302.35
0.687973	302.72
0.697406	303.27
0.711075	304.2
0.717276	305.31
0.727357	305.68
0.73908	306.42
0.748878	308.64
0.756042	309.38
0.76125	309.56
0.773277	309.93
0.780147	311.78
0.787239	309.38
0.794291	305.69
0.799955	311.42
0.800158	306.24
0.808953	307.17
0.810341	310.68
0.817069	306.98
0.823108	314.56
0.829126	308.46
0.829612	314.93
0.83937	315.12
0.840454	306.43
0.851893	309.07
0.852076	316.33
0.860779	318.82
0.86392	310.24
0.871824	322.27
0.873354	311.19
0.880061	321.68
0.884915	314.79
0.890933	323.37
0.895513	315.6
0.898968	324.99
0.909212	316.77
0.910114	327.33
0.921168	331.08
0.922749	316.7
0.933002	319.56
0.933671	331.08
0.942466	321.62
0.943418	334.31
0.948809	338.49
0.949204	322.86
0.95736	324.41
0.961728	339.3
0.966601	327.71
0.970776	340.32
0.977129	331.16
0.982023	341.57
0.989571	333.94
0.99792	342.89
1.00081	334.68
1.00872	341.57
1.01344	339.81
