Adsorption isotherm of Nitrogen on UiO-66(Zr)-NH2-F4-0.53
DOI: 10.1002/adsu.201700092
Article source: Figure 6
Adsorbate Nitrogen: InChIKey IJGRMHOSHXDMSA-UHFFFAOYSA-N
Kind: experiment
Temperature: 77 K
Tabular data in the source: 0
pressure (bar)	uptake (cm3(STP)/g)
0.001763	180.96
0.001824	28.57
0.002158	21.07
0.002229	265.22
0.002472	143.04
0.002715	218.57
0.002736	256.18
0.002746	60.42
0.002807	170.48
0.002847	111.6
0.002857	80.36
0.00306	49.74
0.003283	90.12
0.003344	199.25
0.003486	190.82
0.003648	121.77
0.003719	100.7
0.003891	131.53
0.004104	70.7
0.004124	8.63
0.004134	208.7
0.004306	40.18
0.00456	151.78
0.004793	160.82
0.004843	236.04
0.005178	228.02
0.005826	245.7
0.005856	251.14
0.008997	281.87
0.010264	275.81
0.012746	289.99
0.01612	295.75
0.018015	304.79
0.034186	312.92
0.045332	316.93
0.054603	319.5
0.065374	322.08
0.07427	323.73
0.08577	326.1
0.093004	327.13
0.105406	327.18
0.113056	328.16
0.123067	328.65
0.135124	329.48
0.145723	329.81
0.157203	331.61
0.167791	331.29
0.179848	332.11
0.187802	332.93
0.19604	333.26
0.210448	333.59
0.21751	333.43
0.227825	336.05
0.238119	335.73
0.248707	336.71
0.256945	337.04
0.266946	337.21
0.275781	337.7
0.286663	337.71
0.297251	337.71
0.310484	337.88
0.318732	339.19
0.324912	339.36
0.335501	339.04
0.349027	339.37
0.363456	341.17
0.36993	342.15
0.379931	342.16
0.389931	342.33
0.398169	341.84
0.410814	342.01
0.417593	343.81
0.427887	343.98
0.440238	344.31
0.450543	344.64
0.460543	344.32
0.469956	345.96
0.478782	346.12
0.487607	346.13
0.501437	346.63
0.512613	346.63
0.520557	346.8
0.529099	347.62
0.539981	348.11
0.548978	350.17
0.558796	350.17
0.567875	349.87
0.579375	350.6
0.586599	351.01
0.601605	350.09
0.60884	350.82
0.621809	351.34
0.640716	352.37
0.653321	352.89
0.664061	352.49
0.668701	353.52
0.683525	353.12
0.695207	354.46
0.707802	354.36
0.718745	355.09
0.732271	355.2
0.738949	356.23
0.751178	355.62
0.762476	356.14
0.771565	356.55
0.782872	357.58
0.803066	357.59
0.815296	357.7
0.8218	359.66
0.829025	359.35
0.83476	358.84
0.844781	360.39
0.857203	361.32
0.867578	362.25
0.876667	363.18
0.885563	363.9
0.894844	365.96
0.904683	369.05
0.908361	365.35
0.911907	369.47
0.920793	368.03
0.922303	372.25
0.931939	372.35
0.933398	368.55
0.940673	376.67
0.945273	370.61
0.95346	377.91
0.954736	373.19
0.962194	382.03
0.965122	374.73
0.969793	382.14
0.972954	383.99
0.973288	376.79
0.979449	385.84
0.983482	378.34
0.98946	386.87
0.992378	378.65
1.00133	386.98
1.00259	381.23
1.00649	383.8
1.00723	383.08
