Adsorption isotherm of Carbon Dioxide on Physical mixture of UiO-66(Zr)-NH2 (47 mol%) and UiO-66(Zr)-F4 (53 mol%)
DOI: 10.1002/adsu.201700092
Article source: Figure 7
Adsorbate Carbon Dioxide: InChIKey CURLTUGMZLYLDI-UHFFFAOYSA-N
Kind: experiment
Temperature: 298 K
Tabular data in the source: 0
pressure (bar)	uptake (mmol/g)
0.00162	0.0092
0.00633	0.0412
0.01457	0.0985
0.02503	0.1519
0.02724	0.1024
0.03946	0.2085
0.04241	0.1627
0.05227	0.2627
0.05537	0.2085
0.0664	0.3131
0.06744	0.2551
0.07893	0.3002
0.08275	0.3513
0.09484	0.3323
0.09807	0.3819
0.10632	0.3919
0.10705	0.4293
0.11913	0.4545
0.12061	0.4072
0.13446	0.4439
0.13533	0.4912
0.14624	0.4836
0.14829	0.5385
0.16155	0.531
0.16302	0.5798
0.17599	0.5829
0.17599	0.5432
0.1866	0.5753
0.18894	0.6364
0.19985	0.6166
0.2025	0.6563
0.2134	0.6868
0.21429	0.6273
0.22519	0.6564
0.22547	0.7022
0.24139	0.6915
0.24344	0.7511
0.25376	0.7114
0.25405	0.7618
0.26878	0.7817
0.26938	0.713
0.27998	0.8031
0.28116	0.7406
0.29323	0.8245
0.29383	0.7666
0.30354	0.8551
0.30444	0.7925
0.31917	0.8262
0.32181	0.8857
0.33301	0.8552
0.33359	0.9102
0.34862	0.9179
0.34863	0.8706
0.35598	0.9423
0.35629	0.8813
0.37485	0.9149
0.37543	0.9668
0.38456	1.0065
0.38693	0.9333
0.40077	0.944
0.40224	1.0173
0.41108	1.0219
0.41197	0.9716
0.4267	0.9945
0.42728	1.051
0.43937	1.0053
0.43965	1.077
0.45528	1.0343
0.45615	1.0816
0.46558	1.0939
0.46588	1.042
0.4815	1.0589
0.48356	1.1092
0.49446	1.0696
0.49711	1.1306
0.50889	1.1551
0.51096	1.1032
0.51758	1.1704
0.51759	1.1216
0.5335	1.1392
0.53585	1.198
0.54749	1.1652
0.54867	1.1957
0.5603	1.2217
0.56031	1.1775
0.57519	1.1981
0.57621	1.2409
0.588	1.2127
0.58815	1.2501
0.60112	1.2311
0.60273	1.2639
0.61378	1.2799
0.61496	1.2387
0.62674	1.3128
0.62704	1.2617
0.63841	1.2685
0.64121	1.3194
0.65524	1.3485
0.65524	1.2928
0.66974	1.3025
0.67208	1.3461
0.67722	1.3607
0.68144	1.3026
0.69219	1.3196
0.69453	1.368
0.70716	1.3294
0.71043	1.3948
0.72165	1.4093
0.72213	1.3561
0.73381	1.407
0.73476	1.3658
0.74317	1.3828
0.74504	1.4264
0.76001	1.4386
0.76048	1.3926
0.76842	1.4604
0.77685	1.3878
0.78339	1.4678
0.78386	1.4242
0.79789	1.4751
0.79977	1.417
0.8138	1.4558
0.8166	1.4994
0.83225	1.5075
0.84389	1.5144
0.85214	1.5343
0.87011	1.5497
0.88072	1.5482
0.8956	1.5551
0.90709	1.5659
0.92212	1.5705
0.93302	1.595
0.94746	1.5912
0.95939	1.618
0.97899	1.6265
0.99003	1.6341
1.00123	1.6327
1.01626	1.6556
1.03276	1.6648
1.04631	1.6702
1.05839	1.6871
1.06871	1.6955
