Adsorption isotherm of Nitrogen on UiO-66(Zr)-NH2-F4-0.53
DOI: 10.1002/adsu.201700092
Article source: Figure 6
Adsorbate Nitrogen: InChIKey IJGRMHOSHXDMSA-UHFFFAOYSA-N
Kind: experiment
Temperature: 77 K
Tabular data in the source: 0
pressure (bar)	uptake (cm3(STP)/g)
0.001712	172.33
0.002006	59.91
0.002797	101.32
0.00307	50.97
0.00308	19.63
0.003131	29.49
0.003202	9.87
0.003384	41.1
0.003546	69.88
0.003698	130.5
0.00385	91.35
0.004063	162.36
0.004164	179.73
0.004276	200.28
0.004428	227.82
0.00458	121.87
0.004651	234.19
0.005147	190.93
0.005249	141.71
0.005249	207.78
0.005451	112.11
0.005674	217.54
0.006545	241.49
0.007913	253.82
0.008866	258.96
0.010578	266.35
0.01302	272.73
0.01529	280.74
0.021632	288.86
0.033264	296.18
0.046142	301.5
0.055961	304.35
0.06508	306.82
0.076529	309.15
0.084939	310.19
0.093825	312.01
0.104565	312.79
0.11719	314.35
0.129572	316.17
0.138681	316.95
0.147091	317.6
0.159229	318.52
0.166707	318.26
0.177204	317.62
0.187488	319.31
0.19683	319.96
0.203609	320.87
0.213873	320.87
0.224147	320.75
0.236761	321.02
0.244705	322.18
0.252183	323.22
0.25965	323.49
0.271789	323.49
0.279266	323.89
0.285802	323.5
0.297717	324.93
0.312429	325.84
0.328783	327.92
0.340688	328.06
0.351662	328.32
0.363334	327.94
0.371035	327.56
0.382008	327.3
0.392758	329.77
0.40211	331.33
0.413084	331.2
0.430825	331.34
0.442265	331.48
0.455335	331.35
0.462347	331.62
0.470524	332.53
0.483615	335.38
0.496918	335.91
0.51233	336.04
0.529605	336.31
0.538714	336.19
0.550153	336.19
0.562444	338.26
0.571705	338.47
0.582638	338.68
0.592831	338.99
0.602284	339.82
0.610988	338.69
0.623967	340.14
0.634353	340.96
0.645103	341.69
0.65863	341.8
0.670312	343.24
0.683667	344.89
0.696646	346.13
0.709991	346.96
0.723335	347.28
0.733244	349.52
0.746183	349.69
0.760895	350.02
0.772659	349.54
0.785892	349.54
0.799722	350.2
0.809439	351.51
0.820027	351.68
0.830038	353.15
0.839745	353.48
0.853869	353.33
0.865927	353.99
0.880061	355.63
0.895371	357.92
0.911856	361.68
0.920692	363.15
0.925383	359.4
0.928068	366.25
0.933043	362.01
0.938646	365.61
0.947157	361.04
0.951018	367.41
0.956276	362.19
0.959853	370.35
0.964828	364.8
0.968101	372.47
0.976612	369.05
0.978132	376.72
0.980746	371.01
0.985792	379.01
0.989591	374.93
