Adsorption isotherm of Carbon Dioxide on UiO-66(Zr)-NH2-F4-0.53
DOI: 10.1002/adsu.201700092
Article source: Figure 7
Adsorbate Carbon Dioxide: InChIKey CURLTUGMZLYLDI-UHFFFAOYSA-N
Kind: experiment
Temperature: 298 K
Tabular data in the source: 0
pressure (bar)	uptake (mmol/g)
0.00674	0.0309
0.0106	0.084
0.01073	0.161
0.02566	0.1829
0.02825	0.2521
0.03974	0.3483
0.0405	0.2714
0.05237	0.3368
0.06498	0.408
0.06868	0.4676
0.07648	0.4619
0.08056	0.5234
0.0928	0.5677
0.0943	0.5062
0.10617	0.5735
0.10727	0.6389
0.11915	0.6139
0.12211	0.7043
0.13546	0.7928
0.13697	0.6794
0.14513	0.714
0.14994	0.8179
0.1622	0.7737
0.16293	0.8602
0.1722	0.9006
0.17407	0.816
0.18335	0.8468
0.18556	0.9507
0.19968	0.8796
0.20115	1.0084
0.21267	0.945
0.21377	1.045
0.22341	1.0835
0.2238	0.9797
0.23864	1.0451
0.2416	1.1182
0.252	1.074
0.2531	1.1759
0.26091	1.1125
0.26497	1.2336
0.27816	1.1602
0.28109	1.2578
0.28876	1.2197
0.29787	1.3357
0.3079	1.2488
0.30878	1.3434
0.32057	1.2839
0.32203	1.3999
0.33323	1.3359
0.33351	1.4366
0.34473	1.3481
0.34736	1.4687
0.36004	1.3894
0.36062	1.4764
0.37094	1.4398
0.37623	1.5314
0.38449	1.4673
0.38565	1.5833
0.4004	1.4994
0.40156	1.5925
0.41012	1.5148
0.41276	1.6277
0.42544	1.5545
0.42778	1.6476
0.43663	1.5912
0.43868	1.6827
0.45547	1.7148
0.45666	1.6386
0.46285	1.6691
0.46814	1.7485
0.48406	1.6997
0.48552	1.7806
0.49406	1.8096
0.49672	1.7379
0.50643	1.8585
0.50792	1.7715
0.52117	1.7945
0.52263	1.8784
0.53384	1.7991
0.5353	1.9014
0.54828	1.8328
0.54944	1.9457
0.56153	1.8862
0.56388	1.9656
0.57361	1.9061
0.57507	2.0175
0.5848	1.9458
0.58774	2.0344
0.60277	1.9719
0.60453	2.0634
0.61132	2.0024
0.61278	2.0909
0.62428	2.0147
0.62662	2.1062
0.64078	2.0529
0.64283	2.1231
0.65461	2.1613
0.65551	2.085
0.66375	2.1049
0.66993	2.1904
0.67937	2.1248
0.67965	2.2331
0.69439	2.1523
0.69733	2.2363
0.70618	2.1768
0.70764	2.2577
0.71914	2.2028
0.72178	2.2913
0.72886	2.2273
0.73298	2.2929
0.74506	2.2456
0.7477	2.328
0.75773	2.2793
0.76332	2.351
0.77127	2.3846
0.77217	2.3053
0.78336	2.316
0.786	2.3862
0.79839	2.3344
0.79956	2.4122
0.81223	2.3665
0.81429	2.4474
0.82524	2.3868
0.82913	2.4733
0.83693	2.4166
0.83934	2.4724
0.8516	2.4417
0.85326	2.4926
0.86737	2.4889
0.86848	2.5388
0.8811	2.4985
0.88518	2.5418
0.89428	2.5457
0.89465	2.5101
0.90393	2.5236
0.90857	2.5736
0.91692	2.5506
0.92044	2.6064
0.93215	2.5526
0.93325	2.6112
0.94495	2.5671
0.94643	2.6238
0.95757	2.5921
0.95998	2.6258
0.97428	2.6249
0.97594	2.6701
0.9869	2.6345
0.98782	2.6826
0.99878	2.6577
0.99895	2.698
1.01102	2.6769
1.0112	2.7202
1.01975	2.6933
1.02234	2.7481
1.03868	2.6992
1.04016	2.7405
1.05686	2.7656
1.06949	2.7685
