Adsorption isotherm of Nitrogen on UiO-66(Zr)-NH2-F4-0.72
DOI: 10.1002/adsu.201700092
Article source: Figure 2
Adsorbate Nitrogen: InChIKey IJGRMHOSHXDMSA-UHFFFAOYSA-N
Kind: experiment
Temperature: 77 K
Tabular data in the source: 0
pressure (bar)	uptake (cm3(STP)/g)
-5.1e-05	4.53
0.000496	26.71
0.000811	92.5
0.001327	60.71
0.001449	12.66
0.00152	121.34
0.00152	42.23
0.001571	17.47
0.001743	51.1
0.002219	70.69
0.0023	100.27
0.002381	155.92
0.002503	82.15
0.002624	113.57
0.002928	126.14
0.0031	133.16
0.003415	148.35
0.00383	136.12
0.004671	166.17
0.005299	174.78
0.005917	141.83
0.006464	180.72
0.00995	189.45
0.012777	195.86
0.01457	202.38
0.019393	207.27
0.026151	215.42
0.035504	221.36
0.047612	225.39
0.058707	227.61
0.069487	230.02
0.079609	232.05
0.088414	233.16
0.097544	234.64
0.109935	236.12
0.12103	238.16
0.129501	239.08
0.139917	240.01
0.150343	240.93
0.159462	242.04
0.170547	243.34
0.180649	244.63
0.190741	245.37
0.200508	246.3
0.211907	247.41
0.222971	248.15
0.233063	248.89
0.242821	249.07
0.252912	250
0.262021	250.37
0.272468	252.4
0.28257	253.51
0.291993	253.7
0.303391	254.62
0.313473	254.99
0.322937	256.66
0.335592	256.29
0.345359	257.03
0.354468	257.59
0.362625	258.88
0.375311	259.44
0.385088	260.55
0.393559	261.47
0.403975	262.21
0.415688	262.77
0.424797	263.32
0.434888	264.06
0.445629	264.99
0.455406	266.1
0.465832	267.39
0.474617	267.76
0.484709	268.69
0.495763	268.87
0.506159	270.89
0.513667	266.56
0.515197	271.26
0.523749	267.52
0.526707	272.51
0.535786	269.57
0.536667	274.05
0.543638	269.06
0.546232	275
0.555017	270.31
0.556061	275.81
0.564055	270.6
0.567794	276.18
0.576204	271.7
0.578007	277.13
0.585252	272.73
0.587846	278.53
0.59587	279.7
0.597026	274.57
0.606428	273.98
0.607198	279.19
0.615618	280.73
0.617057	276.33
0.626075	275.82
0.627625	281.39
0.63643	282.79
0.637717	277.36
0.648569	283.67
0.649227	278.75
0.657637	285.21
0.658944	280.59
0.666584	287.41
0.668874	280.51
0.67549	282.42
0.677324	288.95
0.685298	282.86
0.686656	290.71
0.697082	284.7
0.698926	291.52
0.705208	284.7
0.708258	293.35
0.71608	286.46
0.718755	295.78
0.726425	287.86
0.730782	297.24
0.734349	290.2
0.739992	299.37
0.744157	290.35
0.749162	300.11
0.755789	291.45
0.761341	302.38
0.76358	293.87
0.768748	304.58
0.775496	295.86
0.779042	308.98
0.785709	296.81
0.790076	311.85
0.794788	299.08
0.798263	315.02
0.808446	299.77
0.808902	318.53
0.816278	300.97
0.818892	321.58
0.827687	302.45
0.829572	326.57
0.837181	305.41
0.840515	328.79
0.848246	332.67
0.849198	305.41
0.857547	308
0.858875	335.45
0.866058	310.41
0.870851	340.16
0.877153	312.62
0.881632	342.75
0.886303	314.57
0.890832	346.82
0.899373	317.62
0.901146	350.24
0.909647	319.1
0.910215	355.69
0.919131	321.78
0.922495	359.3
0.928281	323.9
0.933621	362.72
0.938089	326.4
0.942476	365.86
0.949528	328.99
0.953905	368.26
0.961484	332.96
0.96421	371.13
0.970168	335.74
0.973856	373.53
0.981587	344.61
0.987139	372.24
0.992114	349.79
0.997829	370.76
0.999724	355.33
1.00401	364.2
1.01265	359.21
