Adsorption isotherm of Nitrogen on UiO-66(Zr)-NH2
DOI: 10.1002/adsu.201700092
Article source: Figure 2
Adsorbate Nitrogen: InChIKey IJGRMHOSHXDMSA-UHFFFAOYSA-N
Kind: experiment
Temperature: 77 K
Tabular data in the source: 0
pressure (bar)	uptake (cm3(STP)/g)
0.000932	38.56
0.001307	70.69
0.001956	30.18
0.00226	59.52
0.002817	48.57
0.002827	82.57
0.003344	3.63
0.003526	10.85
0.003739	19.7
0.004691	91.65
0.006829	128.91
0.007032	170.36
0.007103	139.85
0.007143	158.48
0.007468	104.93
0.007873	121.23
0.008025	194.34
0.008075	179.67
0.008207	201.8
0.008238	253.03
0.008258	187.13
0.008359	257.92
0.008552	149.17
0.008906	213.67
0.009666	244.41
0.009727	113.54
0.010365	222.99
0.010386	240.22
0.011865	233.93
0.01226	266.76
0.014894	274.22
0.017184	283.76
0.01991	294.94
0.02759	307.52
0.029718	310.78
0.033923	315.43
0.040235	322.42
0.047743	328.24
0.058909	332.67
0.069204	335.23
0.077431	336.86
0.091393	338.73
0.102488	340.36
0.111131	341.99
0.122206	342.92
0.132845	342.92
0.141903	344.79
0.152167	345.95
0.163241	346.88
0.172695	348.52
0.182523	348.75
0.194034	350.61
0.205098	351.08
0.211258	351.78
0.220712	353.41
0.233398	353.41
0.245323	355.28
0.254331	355.51
0.262741	356.02
0.272812	356.75
0.285082	357.34
0.291547	358
0.303675	358.59
0.314922	359.47
0.325642	360.21
0.336869	360.79
0.34772	361.38
0.358177	361.9
0.367113	363.58
0.376405	364.03
0.385828	364.32
0.396923	364.32
0.4074	365.79
0.416823	366.16
0.425091	366.74
0.436429	366.31
0.446774	367.77
0.456845	368.22
0.463796	367.92
0.474931	369.54
0.486553	370.42
0.495621	371.89
0.507233	372.18
0.519098	372.33
0.527103	372.77
0.538197	373.06
0.550083	373.8
0.557814	373.51
0.569192	374.83
0.580044	375.71
0.589609	376.59
0.599913	376.44
0.607401	376.59
0.619539	377.47
0.630908	378.36
0.639946	378.65
0.648457	378.8
0.659826	379.68
0.671164	379.24
0.679989	381.44
0.689797	381.74
0.699868	382.47
0.7084	383.2
0.717661	382.47
0.73061	384.53
0.739891	384.38
0.75204	385.56
0.763398	386
0.772436	386.44
0.780947	386.44
0.791019	387.32
0.799297	388.05
0.810402	388.79
0.82021	389.38
0.830555	390.26
0.84167	391.58
0.853038	392.46
0.86233	392.61
0.874235	394.22
0.884844	395.84
0.8945	395.11
0.897063	389.16
0.902818	397.82
0.906527	391.37
0.913792	398.41
0.915859	393.27
0.924025	400.54
0.928007	394.52
0.931584	403.69
0.93818	399.36
0.943601	404.65
0.949832	401.27
0.955425	408.17
0.959549	403.11
0.963855	410.22
0.970988	406.78
0.973106	414.26
0.975406	408.24
0.981526	415.72
0.983856	410.88
0.995691	420.2
0.997778	410.81
1.00755	419.76
1.00765	413.53
1.01624	416.98
