Adsorption isotherm of Water on Gd-pDBI
DOI: 10.1002/chem.201402244
Adsorbate Water: InChIKey XLYOFNOQVPJJNP-UHFFFAOYSA-N
Temperature: 383 K
Tabular data in the source: 0
pressure (bar)	uptake (wt%)
0.0779561	1.36719
0.148125	2.53906
0.218418	2.92969
0.288678	3.51562
0.358925	4.19922
0.429217	4.58984
0.503386	5.17578
0.573693	5.46875
0.64397	5.95703
0.714247	6.44531
0.784493	7.12891
0.858693	7.51953
0.925	8.39844
0.99523	9.17969
1.06934	10.1562
1.13954	11.1328
1.20957	13.1836
1.29518	15.625
