Adsorption isotherm of Water on MG-Gd-pDBI
DOI: 10.1002/chem.201402244
Adsorbate Water: InChIKey XLYOFNOQVPJJNP-UHFFFAOYSA-N
Temperature: 383 K
Tabular data in the source: 0
pressure (bar)	uptake (wt%)
0.0193592	1.17188
0.0816661	2.63672
0.147927	3.80859
0.222052	4.6875
0.288343	5.66406
0.366391	6.44531
0.436607	7.32422
0.502928	8.10547
0.573175	8.78906
0.643405	9.57031
0.709696	10.5469
0.783835	11.3281
0.85399	12.5977
0.928023	14.0625
0.99433	14.9414
1.06829	16.8945
1.13429	19.7266
1.21609	21.4844
1.28963	26.0742
