Adsorption isotherm of Nitrogen on Gd-pDBI
DOI: 10.1002/chem.201402244
Article source: Figure S18b
Adsorbate Nitrogen: InChIKey IJGRMHOSHXDMSA-UHFFFAOYSA-N
Kind: experiment
Isotherm type: excess
Temperature: 77 K
Tabular data in the source: 0
pressure (bar)	uptake (cm3(STP)/g)
0.003344	0.429594
0.021736	2.14797
0.048489	2.57757
0.066881	2.72076
0.085274	3.07876
0.105338	3.36515
0.127074	3.65155
0.148811	3.65155
0.168875	4.00955
0.188939	4.15274
0.207332	4.29594
0.227396	4.58234
0.252476	4.72554
0.269197	5.01193
0.290933	5.15513
0.310998	5.44153
0.32939	5.79952
0.352798	5.87112
0.374535	6.22912
0.396271	6.44391
0.418007	6.58711
0.4364	7.01671
0.456464	7.0883
0.476528	7.5895
0.496593	7.7327
0.514985	7.7327
0.538394	8.37709
0.558458	8.59188
0.57685	8.73508
0.595243	9.23628
0.616979	9.37947
0.637043	9.59427
0.65878	10.2387
0.682188	10.4535
0.703925	10.7399
0.718973	11.4558
0.739037	11.8138
0.764118	12.0286
0.785854	12.9594
0.805918	13.389
0.824311	14.3198
0.846047	14.821
0.867783	15.4654
0.887848	16.8974
0.90624	17.685
0.926304	19.4749
0.944697	21.3365
0.963089	24.9165
0.98817	32.7208
0.951385	25.2745
0.924632	23.2697
0.857751	19.1885
0.810934	17.7566
0.752413	16.3962
0.708941	15.6802
0.66714	14.6062
0.625339	14.1766
0.58521	13.3174
0.541738	12.8162
0.504953	12.1002
0.468168	11.3842
0.424696	10.8115
0.389583	10.2387
0.34611	9.45107
0.305981	8.73508
0.267525	7.94749
0.229068	7.1599
0.185595	6.44391
0.145467	5.58473
0.105338	4.65394
0.068553	3.72315
0.041801	2.93556
