Adsorption isotherm of Methyl Isobutyl Ketone, Toluene on Activated carbon: BPL
DOI: 10.1021/ie00098a012
Article source: Table IV
Adsorbate Methyl Isobutyl Ketone: InChIKey NTIZESTWPVYFNL-UHFFFAOYSA-N
Adsorbate Toluene: InChIKey YXFVVABEGXRONW-UHFFFAOYSA-N
Kind: experiment
Temperature: 298 K
Tabular data in the source: 0
pressure (bar)	Methyl Isobutyl Ketone fraction	Methyl Isobutyl Ketone uptake (mmol/g)	Toluene fraction	Toluene uptake (mmol/g)	total uptake (mmol/g)
1.1e-05	0.822	1.96118	0.178	0.50882	2.47
1.1e-05	0.763	1.8178	0.237	0.6222	2.44
1.1e-05	0.669	1.6065	0.331	0.7735	2.38
1.1e-05	0.606	1.5621	0.394	0.8979	2.46
1.1e-05	0.518	1.3776	0.482	1.0224	2.4
1.1e-05	0.358	1.03918	0.642	1.29082	2.33
1.1e-05	0.258	0.87001	0.742	1.53999	2.41
1.1e-05	0.193	0.71632	0.807	1.70368	2.42
1.1e-05	0.109	0.46368	0.891	1.77632	2.24
1.1e-05	0.054	0.2478	0.946	1.8522	2.1
