Adsorption isotherm of Methylcyclohexane on Activated carbon: BPL
DOI: 10.1021/ie00098a012
Article source: Table III
Adsorbate Methylcyclohexane: InChIKey UAEPNZWRGJTJPN-UHFFFAOYSA-N
Kind: experiment
Temperature: 298 K
Tabular data in the source: 0
pressure (bar)	uptake (mmol/g)
0	0.414
1e-06	0.939
2e-06	1.03
3e-06	1.17
4e-06	1.26
4e-06	1.3
6e-06	1.4
6e-06	1.42
7e-06	1.47
8e-06	1.51
9e-06	1.58
1e-05	1.56
1e-05	1.59
4.7e-05	2.31
0.0001	2.64
