Adsorption isotherm of Toluene on Activated carbon: BPL
DOI: 10.1021/ie00098a012
Article source: Table III
Adsorbate Toluene: InChIKey YXFVVABEGXRONW-UHFFFAOYSA-N
Kind: experiment
Temperature: 298 K
Tabular data in the source: 0
pressure (bar)	uptake (mmol/g)
0	0.614
1e-06	1.12
2e-06	1.44
2e-06	1.44
2e-06	1.52
3e-06	1.71
4e-06	1.82
5e-06	1.91
5e-06	2.02
6e-06	2.07
7e-06	2.24
8e-06	2.36
1e-05	2.41
2.5e-05	3.33
