Adsorption isotherm of Methyl Isobutyl Ketone on Activated carbon: BPL
DOI: 10.1021/ie00098a012
Article source: Table III
Adsorbate Methyl Isobutyl Ketone: InChIKey NTIZESTWPVYFNL-UHFFFAOYSA-N
Kind: experiment
Temperature: 298 K
Tabular data in the source: 0
pressure (bar)	uptake (mmol/g)
0	0.59
1e-06	1.44
2e-06	1.74
3e-06	1.82
4e-06	2.02
5e-06	2.04
5e-06	2.1
7e-06	2.23
8e-06	2.32
9e-06	2.36
1e-05	2.42
1.1e-05	2.47
4.8e-05	3.59
0.000105	4.45
