Adsorption isotherm of Methyl Isobutyl Ketone, Methylcyclohexane on Activated carbon: BPL
DOI: 10.1021/ie00098a012
Article source: Table IV
Adsorbate Methyl Isobutyl Ketone: InChIKey NTIZESTWPVYFNL-UHFFFAOYSA-N
Adsorbate Methylcyclohexane: InChIKey UAEPNZWRGJTJPN-UHFFFAOYSA-N
Kind: experiment
Temperature: 298 K
Tabular data in the source: 0
pressure (bar)	Methyl Isobutyl Ketone fraction	Methyl Isobutyl Ketone uptake (mmol/g)	Methylcyclohexane fraction	Methylcyclohexane uptake (mmol/g)	total uptake (mmol/g)
1.1e-05	0.903	1.67352	0.097	0.60648	2.28
1e-05	0.819	2.0999	0.181	0.120102	2.22
1e-05	0.9722	2.08363	0.0278	0.186367	2.27
1e-05	0.633	1.71587	0.367	0.25413	1.97
9e-06	0.564	1.66122	0.436	0.31878	1.98
1e-05	0.465	1.50288	0.535	0.51712	2.02
9e-06	0.405	1.3604	0.595	0.5396	1.9
9e-06	0.308	1.12144	0.692	0.59856	1.72
9e-06	0.232	0.86892	0.768	0.69108	1.56
1e-05	0.099	0.46893	0.901	1.00107	1.47
