Adsorption isotherm of Methylcyclohexane, Toluene on Activated carbon: BPL
DOI: 10.1021/ie00098a012
Article source: Table IV
Adsorbate Methylcyclohexane: InChIKey UAEPNZWRGJTJPN-UHFFFAOYSA-N
Adsorbate Toluene: InChIKey YXFVVABEGXRONW-UHFFFAOYSA-N
Kind: experiment
Temperature: 298 K
Tabular data in the source: 0
pressure (bar)	Methylcyclohexane fraction	Methylcyclohexane uptake (mmol/g)	Toluene fraction	Toluene uptake (mmol/g)	total uptake (mmol/g)
1e-05	0.112	0.165021	0.888	1.84498	2.01
1e-05	0.193	0.29145	0.807	1.71855	2.01
1e-05	0.367	0.51143	0.633	1.47857	1.99
1e-05	0.439	0.6045	0.561	1.3455	1.95
1.1e-05	0.529	0.75023	0.471	1.23977	1.99
1e-05	0.589	0.78501	0.411	1.12499	1.91
1e-05	0.653	0.8883	0.347	1.0017	1.89
1e-05	0.76	0.98098	0.24	0.83902	1.82
1e-05	0.826	1.14381	0.174	0.64619	1.79
1.1e-05	0.902	1.3857	0.098	0.4743	1.86
1e-05	0.93	1.39944	0.07	0.28056	1.68
