Adsorption isotherm of N-Hexane on [Zn(bdc)(ted)0.5]*2DMF*0.2H2O
DOI: 10.1002/adfm.200600944
Adsorbate N-Hexane: InChIKey VLKZOEOYAKHREP-UHFFFAOYSA-N
Temperature: 393 K
Tabular data in the source: 0
pressure (bar)	uptake (mmol/g)
0.00152073	0.199921
0.00787028	0.732814
0.0152407	1.23893
0.0231256	1.63829
0.0289806	1.82443
0.0424731	2.23657
0.0557178	2.48867
0.0694747	2.68737
0.0824703	2.80611
0.0949567	2.91157
0.107954	2.9903
0.113815	3.02972
0.120443	3.02906
0.129618	3.09483
