Adsorption isotherm of Benzene on [Zn(bdc)(ted)0.5]*2DMF*0.2H2O
DOI: 10.1002/adfm.200600944
Adsorbate Benzene: InChIKey UHOVQNZJYSORNB-UHFFFAOYSA-N
Temperature: 353 K
Tabular data in the source: 0
pressure (bar)	uptake (mmol/g)
0.00305318	0.264872
0.00503775	0.470884
0.00763296	0.706326
0.00870157	0.794617
0.00961753	1.03006
0.0100755	1.16249
0.0105335	1.29493
0.0109915	1.42737
0.0114494	1.61866
0.0126707	1.97183
0.0131287	2.10426
0.0135867	2.2367
0.0141973	2.47214
0.0146553	2.60458
0.0155712	2.88416
0.0161819	3.00189
0.0166399	3.11961
0.0170978	3.26676
0.0175558	3.41391
0.0183191	3.56106
0.0190824	3.67878
0.0198457	3.7965
0.020609	3.89951
0.0213723	4.01723
0.0224409	4.12024
0.0233569	4.23796
0.0245781	4.34096
0.0259521	4.38511
0.027784	4.4734
0.0291579	4.51754
0.0305318	4.56169
0.0320584	4.5764
0.033585	4.62055
0.034959	4.64998
0.0387754	4.70884
0.0401494	4.73827
0.0419813	4.75299
0.0433552	4.78242
0.0445765	4.7677
0.0461031	4.79713
0.047477	4.81185
0.0488509	4.84128
0.0502249	4.84128
0.0517515	4.85599
0.0532781	4.88542
0.0548047	4.90014
0.0560259	4.90014
0.0573999	4.92957
0.0589265	4.92957
0.060453	4.94428
0.061827	4.94428
0.0632009	4.97371
0.0647275	4.97371
0.0662541	4.98843
0.067628	4.98843
0.069002	5.01786
0.0702232	5.01786
0.0717498	5.03257
0.0731238	5.03257
0.0746503	5.03257
0.0760243	5.03257
0.0773982	5.062
