Adsorption isotherm of Hydrogen on [Cu(bdc)(ted)0.5]*2 DMF*0.2H2O
DOI: 10.1002/adfm.200600944
Adsorbate Hydrogen: InChIKey UFHFLCQGNIYNRP-UHFFFAOYSA-N
Temperature: 77 K
Tabular data in the source: 0
pressure (bar)	uptake (wt%)
0.0139074	0.0491228
0.0258279	0.116667
0.0516559	0.17807
0.0754971	0.264035
0.0993382	0.337719
0.127153	0.399123
0.176822	0.52807
0.226491	0.657018
0.254306	0.718421
0.278147	0.779825
0.305962	0.828947
0.329803	0.884211
0.353644	0.933333
0.381459	0.988596
0.4053	1.02544
0.433115	1.07456
0.458943	1.12368
0.484771	1.16053
0.508612	1.20965
0.536426	1.24649
0.560268	1.28333
0.584109	1.32632
0.609937	1.35702
0.635765	1.39386
0.663579	1.4307
0.685434	1.46754
0.73709	1.53509
0.758944	1.56579
0.786759	1.59649
0.834441	1.65175
0.862256	1.67632
0.890071	1.70702
0.941726	1.75614
0.965568	1.7807
0.991396	1.8114
1.00729	1.82368
