Adsorption isotherm of Methanol on [Zn(bdc)(ted)0.5]*2DMF*0.2H2O
DOI: 10.1002/adfm.200600944
Adsorbate Methanol: InChIKey OKKJLVBELUTLKV-UHFFFAOYSA-N
Temperature: 298 K
Tabular data in the source: 0
pressure (bar)	uptake (mmol/g)
0.00287156	0.0849352
0.00615334	0.38494
0.00840956	0.771453
0.0125118	1.32941
0.0153834	2.23224
0.0182549	2.96288
0.0231776	5.45763
0.02769	7.99558
0.029536	8.85578
0.0336383	11.0926
0.0383558	13.6304
0.0402018	14.4476
0.0449194	14.6609
0.0510727	15.0028
0.0564056	15.2159
0.0617385	15.429
0.0685072	15.6415
0.0721992	15.683
0.0793781	15.8093
0.0832752	15.9799
