Adsorption isotherm of Dimethyl ether on [Zn(bdc)(ted)0.5]*2DMF*0.2H2O
DOI: 10.1002/adfm.200600944
Adsorbate Dimethyl ether: InChIKey LCGLNKUTAGEVQW-UHFFFAOYSA-N
Temperature: 333 K
Tabular data in the source: 0
pressure (bar)	uptake (mmol/g)
0.0920931	2.70994
0.151995	4.1792
0.207349	5.11703
0.264283	5.77661
0.318182	6.10721
0.3767	6.46325
0.43061	6.71795
0.489157	6.8716
0.543088	6.9745
0.598553	7.12805
0.655563	7.25635
0.711039	7.334
