Adsorption isotherm of Cyclohexane on [Zn(bdc)(ted)0.5]*2DMF*0.2H2O
DOI: 10.1002/adfm.200600944
Adsorbate Cyclohexane: InChIKey XDTMQSROBMDMFD-UHFFFAOYSA-N
Temperature: 313 K
Tabular data in the source: 0
pressure (bar)	uptake (mmol/g)
0.00124672	0.272972
0.00231533	0.586942
0.00445256	1.21488
0.00516497	1.46062
0.00623358	1.95214
0.00819271	3.04447
0.00926132	3.4677
0.00979563	3.9593
0.0115767	4.36877
0.0124672	4.65545
0.0140701	4.87374
0.0151387	4.92821
0.0178102	4.95514
0.0210161	4.96833
0.0244	4.95417
0.0398949	4.95191
0.0432789	4.96507
0.0463066	4.95097
0.0495125	4.96416
0.0525402	4.95006
0.0555679	4.97693
0.0587738	4.94914
0.0625139	4.9486
0.0650074	4.94823
0.067857	4.93416
0.0715972	4.94727
0.0746249	4.94682
0.0772964	4.96009
0.0805023	4.94596
