Adsorption isotherm of Cyclohexane on [Zn(bdc)(ted)0.5]*2DMF*0.2H2O
DOI: 10.1002/adfm.200600944
Adsorbate Cyclohexane: InChIKey XDTMQSROBMDMFD-UHFFFAOYSA-N
Temperature: 323 K
Tabular data in the source: 0
pressure (bar)	uptake (mmol/g)
0.00267154	0.518602
0.00356205	0.682364
0.00391825	0.832546
0.00516497	1.24209
0.00587738	1.62441
0.00676789	1.9384
0.00694599	2.10227
0.0074803	2.41632
0.00801461	2.59379
0.00926132	3.22186
0.00997373	3.54954
0.0101518	3.71341
0.0108642	3.8772
0.0113986	4.04101
0.012111	4.43698
0.0131796	4.75095
0.0137139	4.84648
0.0149606	4.91458
0.0162073	4.92806
0.0178102	4.95514
0.0211942	4.9683
0.0244	4.98149
0.0292088	4.95347
0.0345519	4.98
0.0445256	4.97854
0.0496906	4.96413
0.0650074	4.96189
0.0719534	4.97453
0.0764059	4.97388
0.0805023	4.94596
