Adsorption isotherm of N-Hexane on [Zn(bdc)(ted)0.5]*2DMF*0.2H2O
DOI: 10.1002/adfm.200600944
Adsorbate N-Hexane: InChIKey VLKZOEOYAKHREP-UHFFFAOYSA-N
Temperature: 373 K
Tabular data in the source: 0
pressure (bar)	uptake (mmol/g)
0.0154686	1.85246
0.0187679	2.18559
0.0286858	2.73146
0.0426952	2.98349
0.0559452	3.11554
0.0691946	3.26094
0.0821914	3.35301
0.094935	3.40508
0.107932	3.48381
0.120422	3.52258
0.129342	3.57504
