Adsorption isotherm of N-propane on [Zn(bdc)(ted)0.5]*2DMF*0.2H2O
DOI: 10.1002/adfm.200600944
Adsorbate N-propane: InChIKey ATUOYWHBWRKTHZ-UHFFFAOYSA-N
Temperature: 313 K
Tabular data in the source: 0
pressure (bar)	uptake (mmol/g)
0.134902	2.6408
0.221151	3.84417
0.3074	4.48384
0.389225	4.89034
0.471051	5.16077
0.555089	5.37284
0.634703	5.56557
0.716529	5.66106
0.796143	5.79546
0.88018	5.89091
