Adsorption isotherm of Benzene on [Zn(bdc)(ted)0.5]*2DMF*0.2H2O
DOI: 10.1002/adfm.200600944
Adsorbate Benzene: InChIKey UHOVQNZJYSORNB-UHFFFAOYSA-N
Temperature: 303 K
Tabular data in the source: 0
pressure (bar)	uptake (mmol/g)
0.00106861	0.176582
0.00351116	0.662181
0.00595371	1.16249
0.00732764	1.50094
0.00778562	1.85411
0.00839626	2.26613
0.00915955	2.69287
0.0108388	3.78179
0.0122127	4.60583
0.0148079	5.81247
0.0181664	5.90077
0.021067	5.94491
0.0239675	5.98906
0.0270207	6.00377
0.0297685	6.0332
0.0326691	6.0332
0.0357223	6.07735
0.0386228	6.07735
0.0415233	6.10678
0.0444238	6.10678
0.047019	6.10678
0.0500722	6.15092
0.0529727	6.16564
0.0555679	6.18035
0.0584685	6.15092
0.061369	6.19507
0.0641169	6.18035
0.06717	6.20978
0.0697653	6.19507
0.0726658	6.20978
0.0754136	6.20978
0.0786195	6.2245
