Adsorption isotherm of Cyclohexane on [Zn(bdc)(ted)0.5]*2DMF*0.2H2O
DOI: 10.1002/adfm.200600944
Adsorbate Cyclohexane: InChIKey XDTMQSROBMDMFD-UHFFFAOYSA-N
Temperature: 413 K
Tabular data in the source: 0
pressure (bar)	uptake (mmol/g)
0.00496978	0.110997
0.00733624	0.166472
0.00946584	0.221901
0.0115954	0.277329
0.0139612	0.351141
0.0160915	0.388233
0.0184579	0.443708
0.0205868	0.517473
0.0224803	0.554519
0.0248467	0.609994
0.0269763	0.665423
0.0291059	0.720851
0.0307625	0.75785
0.033129	0.813325
0.0352586	0.868754
0.037625	0.924229
0.0395185	0.961274
0.0418849	1.01675
0.0440145	1.07218
0.0463817	1.10932
0.0478007	1.16461
0.0499311	1.2017
0.0522982	1.23884
0.0544286	1.27593
0.0558483	1.31288
0.0582155	1.35002
0.0603458	1.38711
0.0624761	1.4242
0.0643689	1.47959
0.0664999	1.49834
0.0686303	1.53543
0.0709982	1.55423
0.0726548	1.59123
0.075022	1.62837
0.0771523	1.66546
0.0795202	1.68427
