Adsorption isotherm of Dimethyl ether on [Zn(bdc)(ted)0.5]*2DMF*0.2H2O
DOI: 10.1002/adfm.200600944
Adsorbate Dimethyl ether: InChIKey LCGLNKUTAGEVQW-UHFFFAOYSA-N
Temperature: 303 K
Tabular data in the source: 0
pressure (bar)	uptake (mmol/g)
0.0061005	0.455581
0.00903937	1.46765
0.0180895	2.8594
0.0271936	3.87166
0.0409143	4.93467
0.0654277	5.97272
0.0946044	6.73262
0.151524	7.4934
0.206957	7.87465
0.262411	8.1041
0.317876	8.25765
0.37489	8.36065
0.431896	8.51425
0.488906	8.64255
0.542844	8.69485
0.599857	8.79785
0.65534	8.8249
0.71082	8.87726
