Adsorption isotherm of N-propane on [Zn(bdc)(ted)0.5]*2DMF*0.2H2O
DOI: 10.1002/adfm.200600944
Adsorbate N-propane: InChIKey ATUOYWHBWRKTHZ-UHFFFAOYSA-N
Temperature: 333 K
Tabular data in the source: 0
pressure (bar)	uptake (mmol/g)
0.132691	1.26072
0.225574	2.11407
0.3074	2.79271
0.384802	3.31593
0.471051	3.72234
0.550666	4.03169
0.63028	4.30217
0.712106	4.51429
0.798355	4.68744
0.88018	4.84124
