Adsorption isotherm of Ethanol on [Zn(bdc)(ted)0.5]*2DMF*0.2H2O
DOI: 10.1002/adfm.200600944
Adsorbate Ethanol: InChIKey LFQSCWFLJHTTHZ-UHFFFAOYSA-N
Temperature: 303 K
Tabular data in the source: 0
pressure (bar)	uptake (mmol/g)
0.00197549	0.302521
0.00404111	0.579694
0.0058349	1.11001
0.00753689	1.86807
0.00941661	2.87902
0.0112936	4.21887
0.0132595	5.68517
0.0149562	7.07571
0.0166574	7.93497
0.0186335	8.16159
0.020521	8.23647
0.0223185	8.31139
0.0240258	8.43696
0.0257336	8.48663
0.0276213	8.53621
0.029509	8.58578
0.0312164	8.68606
0.0331041	8.73563
0.0349918	8.78521
0.0367001	8.78428
0.0384077	8.85925
0.0402057	8.88358
0.0422732	8.93306
0.0438911	8.98278
