Adsorption isotherm of Dimethyl ether on [Zn(bdc)(ted)0.5]*2DMF*0.2H2O
DOI: 10.1002/adfm.200600944
Adsorbate Dimethyl ether: InChIKey LCGLNKUTAGEVQW-UHFFFAOYSA-N
Temperature: 323 K
Tabular data in the source: 0
pressure (bar)	uptake (mmol/g)
0.0106992	0.632822
0.0229038	1.51869
0.0504674	2.78453
0.0949817	4.0762
0.15336	5.41891
0.182595	5.77403
0.211814	6.23034
0.271875	6.58643
0.328845	6.99302
0.388934	7.14672
0.415118	7.27405
0.447471	7.37627
0.50757	7.45407
0.564576	7.60766
0.623135	7.68541
0.683231	7.78851
0.717139	7.78959
0.741796	7.81566
