Adsorption isotherm of N-Hexane on [Zn(bdc)(ted)0.5]*2DMF*0.2H2O
DOI: 10.1002/adfm.200600944
Adsorbate N-Hexane: InChIKey VLKZOEOYAKHREP-UHFFFAOYSA-N
Temperature: 333 K
Tabular data in the source: 0
pressure (bar)	uptake (mmol/g)
0.00144044	2.02726
0.00269687	2.44062
0.00320144	2.56062
0.0034505	2.69397
0.00395506	2.81397
0.00445963	2.93396
0.00572426	3.16058
0.00673867	3.28052
0.00800916	3.37376
0.00927907	3.48034
0.0110606	3.54686
0.0128409	3.64005
0.0153854	3.7465
0.0164045	3.75973
0.018697	3.79952
0.0207346	3.83933
0.0230272	3.87911
0.0255758	3.8922
0.0276134	3.93201
0.0291441	3.90518
0.030162	3.94509
0.03271	3.97151
0.0350037	3.98462
0.0372968	4.01107
0.0398454	4.02415
0.0423946	4.0239
0.043668	4.05045
0.0462166	4.06353
0.0487658	4.06327
0.0510589	4.08972
0.0533526	4.10283
0.0559018	4.10257
0.0569215	4.10247
0.0592146	4.12892
0.0617638	4.12866
0.0643124	4.14175
0.0668616	4.14149
0.0694096	4.16791
0.0704293	4.16781
0.0729785	4.16756
0.0755271	4.18064
0.0780763	4.18039
0.0803694	4.20683
0.083429	4.19319
0.0859776	4.20627
0.0885263	4.21935
0.0910755	4.2191
0.0933691	4.23221
0.0954073	4.25868
0.0964282	4.2319
0.0989768	4.24499
0.10127	4.25809
0.10382	4.25784
0.106369	4.25758
0.109172	4.27064
0.111722	4.27039
0.114015	4.29683
0.116564	4.29658
0.119113	4.29632
0.121662	4.29607
0.124211	4.30915
0.12676	4.3089
0.129309	4.30864
