Adsorption isotherm of Benzene on [Zn(bdc)(ted)0.5]*2DMF*0.2H2O
DOI: 10.1002/adfm.200600944
Adsorbate Benzene: InChIKey UHOVQNZJYSORNB-UHFFFAOYSA-N
Temperature: 383 K
Tabular data in the source: 0
pressure (bar)	uptake (mmol/g)
0.00366382	0.103006
0.00595371	0.191297
0.0082436	0.235442
0.00900689	0.264872
0.00977019	0.294303
0.0109915	0.367878
0.0122127	0.441454
0.013434	0.470884
0.0146553	0.54446
0.0158766	0.60332
0.0169452	0.647466
0.0181664	0.735756
0.0193877	0.794617
0.0204563	0.868192
0.0215249	0.941768
0.0227462	1.01534
0.0238148	1.10363
0.0248834	1.16249
0.0261047	1.22136
0.0270207	1.30965
0.028242	1.36851
0.0293106	1.47151
0.0303792	1.54509
0.0312951	1.63338
0.0323638	1.70695
0.033585	1.79525
0.034501	1.88354
0.0357223	1.9424
0.0366382	2.03069
0.0377068	2.11898
0.0387754	2.19255
0.0398441	2.26613
0.0410653	2.33971
0.0421339	2.428
0.0432026	2.48686
0.0442712	2.56043
0.0454924	2.63401
0.0465611	2.69287
0.0477823	2.75173
0.0488509	2.8253
0.0500722	2.85473
0.0512935	2.92831
0.0525148	2.98717
0.0535834	3.04603
0.0548047	3.11961
0.0561786	3.16375
0.0572472	3.2079
0.0586211	3.25204
0.0598424	3.3109
0.0612163	3.35505
0.0624376	3.39919
0.0636589	3.45805
0.0648802	3.48748
0.0662541	3.53163
0.0674754	3.57578
0.069002	3.59049
0.0703759	3.63464
0.0715972	3.66407
0.0729711	3.70821
0.074345	3.72293
0.075719	3.75236
0.0770929	3.78179
0.0784668	3.81122
