Adsorption isotherm of Cyclohexane on [Zn(bdc)(ted)0.5]*2DMF*0.2H2O
DOI: 10.1002/adfm.200600944
Adsorbate Cyclohexane: InChIKey XDTMQSROBMDMFD-UHFFFAOYSA-N
Temperature: 373 K
Tabular data in the source: 0
pressure (bar)	uptake (mmol/g)
0.00178102	0.122659
0.00480876	0.340739
0.00694599	0.586265
0.00890512	0.777186
0.0130015	1.30924
0.0170978	1.75934
0.0197694	2.12771
0.0213723	2.5372
0.0240438	3.43822
0.0247562	3.6703
0.0258248	3.7794
0.0293869	3.99741
0.0333051	4.07878
0.0377577	4.17373
0.0414979	4.21416
0.0454161	4.25456
0.0495125	4.30859
0.0534307	4.33533
0.057349	4.36207
0.060911	4.40252
0.0651855	4.41556
0.0685694	4.42872
0.0726658	4.45543
0.076584	4.46852
0.0806804	4.50889
