Adsorption isotherm of Hydrogen on [Cu(bdc)(ted)0.5]*2 DMF*0.2H2O
DOI: 10.1002/adfm.200600944
Adsorbate Hydrogen: InChIKey UFHFLCQGNIYNRP-UHFFFAOYSA-N
Temperature: 87 K
Tabular data in the source: 0
pressure (bar)	uptake (wt%)
0.101524	0.147984
0.125412	0.184971
0.177169	0.246688
0.228927	0.308405
0.252815	0.339251
0.276703	0.370098
0.32846	0.431815
0.378227	0.481239
0.431975	0.530688
0.483732	0.586265
0.531508	0.641817
0.559378	0.666548
0.583266	0.685114
0.635023	0.74069
0.68678	0.783986
0.736547	0.827271
0.788305	0.870567
0.838071	0.913851
0.861959	0.932417
0.891819	0.963299
0.935614	0.988126
0.965474	1.01901
0.989362	1.02529
1.00927	1.05612
