Adsorption isotherm of Dimethyl ether on [Zn(bdc)(ted)0.5]*2DMF*0.2H2O
DOI: 10.1002/adfm.200600944
Adsorbate Dimethyl ether: InChIKey LCGLNKUTAGEVQW-UHFFFAOYSA-N
Temperature: 343 K
Tabular data in the source: 0
pressure (bar)	uptake (mmol/g)
0.0937601	1.82452
0.152157	3.04074
0.212113	4.1305
0.269047	4.79009
0.329075	5.37387
0.389131	5.75526
0.447661	6.03541
0.506201	6.23965
0.566294	6.36805
0.624834	6.5723
0.68031	6.64995
0.741944	6.7784
