Adsorption isotherm of Benzene on [Zn(bdc)(ted)0.5]*2DMF*0.2H2O
DOI: 10.1002/adfm.200600944
Adsorbate Benzene: InChIKey UHOVQNZJYSORNB-UHFFFAOYSA-N
Temperature: 318 K
Tabular data in the source: 0
pressure (bar)	uptake (mmol/g)
0.00213723	0.250157
0.00366382	0.441454
0.00564839	0.706326
0.00717498	0.927053
0.0082436	1.11835
0.00900689	1.72167
0.0105335	2.85473
0.0116021	3.6935
0.0122127	4.01723
0.012976	4.44397
0.0140446	4.88542
0.0149606	5.29745
0.0157239	5.34159
0.0169452	5.40045
0.0186244	5.4446
0.0199984	5.48874
0.0215249	5.50346
0.0228989	5.53289
0.0244255	5.5476
0.0257994	5.59175
0.0276313	5.60646
0.0290052	5.63589
0.0302265	5.66532
0.0316005	5.68004
0.033127	5.68004
0.0346536	5.69475
0.0363329	5.72418
0.0378595	5.7389
0.0389281	5.7389
0.040302	5.76833
0.0419813	5.76833
0.0435079	5.78304
0.0447291	5.81247
0.0462557	5.82719
0.0476297	5.82719
0.0490036	5.85662
0.0505302	5.85662
0.0520568	5.85662
0.0534307	5.85662
0.0549573	5.87134
0.0563312	5.87134
0.0577052	5.90077
0.0592318	5.90077
0.0607584	5.91548
0.0619796	5.91548
0.0635062	5.91548
0.0648802	5.91548
0.0664068	5.9302
0.0677807	5.9302
0.0691546	5.95963
0.0703759	5.95963
0.0719025	5.95963
0.0732764	5.95963
0.074803	5.97434
0.0761769	5.97434
0.0777035	5.97434
0.0778562	5.97434
