Adsorption isotherm of Ethanol on [Zn(bdc)(ted)0.5]*2DMF*0.2H2O
DOI: 10.1002/adfm.200600944
Adsorbate Ethanol: InChIKey LFQSCWFLJHTTHZ-UHFFFAOYSA-N
Temperature: 353 K
Tabular data in the source: 0
pressure (bar)	uptake (mmol/g)
0.00333264	0.0504809
0.00837664	0.126202
0.0131502	0.227164
0.017744	0.277645
0.0226977	0.378607
0.0274717	0.429088
0.0321551	0.53005
0.0370183	0.681493
0.0416117	0.782454
0.0448543	0.832935
