Adsorption isotherm of Dimethyl ether on [Zn(bdc)(ted)0.5]*2DMF*0.2H2O
DOI: 10.1002/adfm.200600944
Adsorbate Dimethyl ether: InChIKey LCGLNKUTAGEVQW-UHFFFAOYSA-N
Temperature: 383 K
Tabular data in the source: 0
pressure (bar)	uptake (mmol/g)
0.0924093	0.483611
0.155548	0.865098
0.214064	1.24644
0.271034	1.65303
0.331087	2.05972
0.389606	2.41576
0.448124	2.7718
0.508192	3.0773
0.56518	3.35739
0.622168	3.63749
0.682257	3.79118
0.725374	4.07084
