Adsorption isotherm of Benzene on [Zn(bdc)(ted)0.5]*2DMF*0.2H2O
DOI: 10.1002/adfm.200600944
Adsorbate Benzene: InChIKey UHOVQNZJYSORNB-UHFFFAOYSA-N
Temperature: 363 K
Tabular data in the source: 0
pressure (bar)	uptake (mmol/g)
0.00213723	0.147151
0.00519041	0.338448
0.00854892	0.63275
0.0106861	0.985913
0.0128234	1.28022
0.0151133	1.73638
0.0161819	1.9424
0.0198457	2.64872
0.0239675	3.26676
0.0274787	3.61992
0.0308372	3.88479
0.0351116	4.07609
0.0386228	4.26739
0.0419813	4.38511
0.0457978	4.51754
0.0497669	4.59112
0.0529727	4.63526
0.0564839	4.67941
0.0603004	4.70884
0.0639642	4.75299
0.0674754	4.78242
0.0712918	4.81185
0.0749557	4.82656
0.0781615	4.87071
