Adsorption isotherm of N-propane on [Zn(bdc)(ted)0.5]*2DMF*0.2H2O
DOI: 10.1002/adfm.200600944
Adsorbate N-propane: InChIKey ATUOYWHBWRKTHZ-UHFFFAOYSA-N
Temperature: 353 K
Tabular data in the source: 0
pressure (bar)	uptake (mmol/g)
0.134902	0.696968
0.305188	1.56814
0.471051	2.36166
0.63028	2.99981
0.798355	3.48226
