Adsorption isotherm of Hydrogen on [Zn(bdc)(ted)0.5]*2DMF*0.2H2O
DOI: 10.1002/adfm.200600944
Adsorbate Hydrogen: InChIKey UFHFLCQGNIYNRP-UHFFFAOYSA-N
Temperature: 87 K
Tabular data in the source: 0
pressure (bar)	uptake (wt%)
0.071664	0.110961
0.1493	0.209677
0.276703	0.382379
0.2986	0.413213
0.32647	0.444084
0.354339	0.481095
0.380218	0.505813
0.406096	0.536671
0.431975	0.56139
0.455863	0.598377
0.483732	0.629247
0.531508	0.69094
0.559378	0.721811
0.575303	0.740328
0.607154	0.765083
0.635023	0.789813
0.65692	0.820648
0.68479	0.851518
0.710668	0.882377
0.734556	0.907083
0.758444	0.925649
0.786314	0.950379
0.810202	0.987366
0.842053	1.00598
0.86395	1.02453
0.885847	1.04923
0.909735	1.07393
0.937605	1.08638
0.963483	1.12338
0.991353	1.13583
1.01325	1.17281
