Adsorption isotherm of Methanol on [Zn(bdc)(ted)0.5]*2DMF*0.2H2O
DOI: 10.1002/adfm.200600944
Adsorbate Methanol: InChIKey OKKJLVBELUTLKV-UHFFFAOYSA-N
Temperature: 353 K
Tabular data in the source: 0
pressure (bar)	uptake (mmol/g)
0.0223571	0.120118
0.0266645	0.161427
0.031382	0.159523
0.0348689	0.158115
0.0360996	0.200666
0.0445092	0.197272
0.0477909	0.282041
0.0545596	0.279309
0.057021	0.321363
0.0650203	0.361182
0.0670714	0.446448
0.0691225	0.44562
0.0711736	0.444792
0.0726094	0.444213
0.0746605	0.443385
0.0765065	0.485687
0.0785576	0.484859
0.0806088	0.484031
0.0836854	0.48279
0.0857365	0.481962
0.0877877	0.524181
0.0898388	0.523353
0.0918899	0.522525
0.0941461	0.521615
0.0959921	0.606964
0.0980432	0.606136
0.100299	0.562178
