Adsorption isotherm of Hydrogen on [Zn(bdc)(ted)0.5]*2DMF*0.2H2O
DOI: 10.1002/adfm.200600944
Adsorbate Hydrogen: InChIKey UFHFLCQGNIYNRP-UHFFFAOYSA-N
Temperature: 77 K
Tabular data in the source: 0
pressure (bar)	uptake (wt%)
0.0218973	0.104519
0.0497667	0.190652
0.0776361	0.270646
0.101524	0.350615
0.125412	0.436725
0.151291	0.504426
0.177169	0.584407
0.205039	0.645979
0.228927	0.725949
0.252815	0.793637
0.280684	0.86135
0.32647	0.972154
0.35633	1.04602
0.380218	1.10143
0.429984	1.20611
0.459844	1.2677
0.483732	1.31083
0.509611	1.35397
0.53549	1.40939
0.559378	1.44023
0.587247	1.48952
0.635023	1.57578
0.65493	1.61274
0.68678	1.65592
0.734556	1.72375
0.762426	1.77304
0.786314	1.79775
0.836081	1.85945
0.861959	1.88417
0.885847	1.91502
0.937605	1.98287
0.965474	2.01375
0.989362	2.03845
