Adsorption isotherm of Ethanol on [Zn(bdc)(ted)0.5]*2DMF*0.2H2O
DOI: 10.1002/adfm.200600944
Adsorbate Ethanol: InChIKey LFQSCWFLJHTTHZ-UHFFFAOYSA-N
Temperature: 323 K
Tabular data in the source: 0
pressure (bar)	uptake (mmol/g)
0.00341509	0.175244
0.00835718	0.526756
0.0132073	1.13131
0.0178756	1.96366
0.0227186	3.4284
0.0275599	5.09553
0.0322243	6.40857
0.0369838	7.08907
0.0417471	7.31418
0.0447123	7.54027
