Adsorption isotherm of Methanol on [Zn(bdc)(ted)0.5]*2DMF*0.2H2O
DOI: 10.1002/adfm.200600944
Adsorbate Methanol: InChIKey OKKJLVBELUTLKV-UHFFFAOYSA-N
Temperature: 313 K
Tabular data in the source: 0
pressure (bar)	uptake (mmol/g)
0.01846	0.638256
0.0217418	0.80912
0.0235878	0.894469
0.0254338	0.979818
0.0272798	1.06517
0.0303565	1.19307
0.0315871	1.45085
0.0334331	1.57925
0.035074	1.70773
0.0367149	1.9223
0.0385609	2.09374
0.0412274	2.56619
0.0426632	2.86694
0.0438938	3.12472
0.0455347	3.38234
0.0465603	3.7263
0.0477909	4.07018
0.0490216	4.37102
0.0502523	4.67185
0.0510727	4.71457
0.0514829	5.01573
0.0523034	5.35978
0.0529187	5.61781
0.0539443	5.96177
0.0547647	6.30582
0.0559954	6.6497
0.0564056	6.86477
0.0574312	7.20873
0.0582516	7.55278
0.0592772	7.89674
0.0617385	8.88583
0.062559	9.14378
0.0633794	9.48783
0.0646101	9.83171
0.0654305	10.1758
0.0666612	10.4766
0.0674816	10.8637
0.0687123	11.1645
0.0697379	11.5085
0.0711736	11.8092
0.0724043	12.1101
0.0732247	12.2819
0.0748656	12.4104
0.0765065	12.668
0.0781474	12.7965
0.0797883	12.925
0.0816343	13.0534
0.0832752	13.1388
0.0838905	13.1816
0.0859416	13.2238
0.0875825	13.3523
0.0894285	13.4376
0.0914797	13.4799
0.0935308	13.5651
0.0943512	13.5648
0.0964023	13.6501
0.0980432	13.7785
0.0998892	13.9069
0.10071	13.9927
