Adsorption isotherm of Benzene on [Zn(bdc)(ted)0.5]*2DMF*0.2H2O
DOI: 10.1002/adfm.200600944
Adsorbate Benzene: InChIKey UHOVQNZJYSORNB-UHFFFAOYSA-N
Temperature: 373 K
Tabular data in the source: 0
pressure (bar)	uptake (mmol/g)
0.00320584	0.147151
0.00442712	0.206012
0.00564839	0.264872
0.00686966	0.338448
0.00809094	0.397308
0.00931221	0.470884
0.0103808	0.559175
0.0116021	0.647466
0.0126707	0.735756
0.013434	0.824047
0.0145026	0.927053
0.0155712	1.03006
0.0169452	1.19193
0.0180138	1.29493
0.0190824	1.38322
0.0199984	1.50094
0.0207617	1.57452
0.0216776	1.67752
0.0225936	1.78053
0.0235095	1.88354
0.0257994	2.16312
0.0267154	2.26613
0.0280893	2.428
0.0291579	2.531
0.0300739	2.63401
0.0316005	2.76644
0.0325164	2.86945
0.0337377	2.95774
0.0354169	3.09018
0.0366382	3.16375
0.0377068	3.23733
0.0392334	3.34033
0.0406073	3.39919
0.0418286	3.45805
0.0427446	3.51692
0.0439658	3.57578
0.0453398	3.63464
0.0464084	3.70821
0.047935	3.73764
0.0491563	3.81122
0.0503775	3.85536
0.0517515	3.89951
0.053736	3.95837
0.0549573	3.97308
0.0573999	4.01723
0.0584685	4.09081
0.0610637	4.14967
0.0624376	4.1791
0.0648802	4.23796
0.0662541	4.26739
0.0682387	4.29682
0.0696126	4.32625
0.0719025	4.34096
0.0731238	4.38511
0.0755663	4.42925
0.0769402	4.45868
0.0781615	4.48811
