Adsorption isotherm of Cyclohexane on [Zn(bdc)(ted)0.5]*2DMF*0.2H2O
DOI: 10.1002/adfm.200600944
Adsorbate Cyclohexane: InChIKey XDTMQSROBMDMFD-UHFFFAOYSA-N
Temperature: 383 K
Tabular data in the source: 0
pressure (bar)	uptake (mmol/g)
0.00401794	0.22083
0.00590774	0.349559
0.00756068	0.47824
0.00945049	0.606969
0.0111034	0.735651
0.0127571	0.845996
0.0146469	0.974724
0.0163006	1.08507
0.0181904	1.2138
0.019844	1.32414
0.0217339	1.45287
0.0233875	1.56322
0.0250405	1.6919
0.0266934	1.82058
0.0283456	1.9676
0.0295241	2.11452
0.0307026	2.26145
0.0318803	2.42671
0.0328212	2.59193
0.0339989	2.75719
0.0349398	2.9224
0.0358807	3.08762
0.0368216	3.25284
0.0379993	3.4181
0.0394147	3.56507
0.0410676	3.69375
0.0429582	3.80414
0.045087	3.87791
0.0472166	3.93334
0.0495838	3.97048
0.0517141	4.00757
0.0540813	4.04471
0.0562124	4.06346
0.0585796	4.1006
0.0609475	4.1194
0.0630785	4.13816
0.0652089	4.17525
0.0675775	4.17571
0.0699454	4.19452
0.0723134	4.21332
0.0744444	4.23207
0.0768123	4.25088
0.0791803	4.26968
