Adsorption isotherm of Cyclohexane on [Zn(bdc)(ted)0.5]*2DMF*0.2H2O
DOI: 10.1002/adfm.200600944
Adsorbate Cyclohexane: InChIKey XDTMQSROBMDMFD-UHFFFAOYSA-N
Temperature: 388 K
Tabular data in the source: 0
pressure (bar)	uptake (mmol/g)
0.00520299	0.202726
0.00756507	0.368221
0.00850961	0.441753
0.0104001	0.552145
0.0120538	0.662491
0.0141812	0.772929
0.0158349	0.883274
0.0177254	0.993666
0.019616	1.10406
0.0215072	1.19611
0.0233985	1.28817
0.025289	1.39856
0.0274172	1.49066
0.0293077	1.60105
0.031199	1.69311
0.0330895	1.8035
0.0347424	1.93218
0.0363954	2.06086
0.0378107	2.20784
0.0392268	2.33647
0.0404053	2.4834
0.041583	2.64866
0.0427608	2.81392
0.0439385	2.97918
0.045117	3.12611
0.0462947	3.29137
0.0477101	3.43834
0.049363	3.56702
0.0512543	3.65908
0.0533824	3.75118
0.055512	3.80661
0.0576423	3.8437
0.0600095	3.88084
0.0621399	3.91793
0.0645078	3.93673
0.066875	3.97387
0.069006	3.99263
0.0713739	4.01143
0.0737419	4.03023
0.0758722	4.06732
0.0782408	4.06779
0.0803719	4.08655
