Adsorption isotherm of N-Hexane on [Zn(bdc)(ted)0.5]*2DMF*0.2H2O
DOI: 10.1002/adfm.200600944
Adsorbate N-Hexane: InChIKey VLKZOEOYAKHREP-UHFFFAOYSA-N
Temperature: 313 K
Tabular data in the source: 0
pressure (bar)	uptake (mmol/g)
0.0016772	2.44072
0.00292425	3.06749
0.00418361	3.41416
0.00570317	3.64076
0.00646265	3.76073
0.00773315	3.85397
0.00925856	3.94718
0.0102753	4.01377
0.0120562	4.09362
0.0140932	4.14677
0.0153655	4.2
0.0163852	4.1999
0.0186777	4.23968
0.0209708	4.26613
0.0232633	4.30591
0.0255558	4.3457
0.0278495	4.35881
0.0288674	4.39872
0.0301432	4.37192
0.0326912	4.39834
0.0347294	4.42481
0.0372786	4.42456
0.0398272	4.43764
0.0423764	4.43738
0.0436499	4.46393
0.0461985	4.47702
0.0487477	4.47676
0.0512963	4.48984
0.0538455	4.48959
0.0556293	4.50275
0.0569045	4.48928
0.0591976	4.51573
0.0617468	4.51547
0.0642954	4.52856
0.0668446	4.5283
0.0691383	4.54141
0.0704123	4.55462
0.0729615	4.55437
0.0755107	4.55411
0.0780599	4.55386
0.0806085	4.56694
0.0834126	4.56666
0.0859618	4.5664
0.088511	4.56615
0.0908041	4.5926
0.0933533	4.59234
0.0951383	4.57882
0.0964124	4.59204
0.0989615	4.59178
0.10151	4.60486
0.104059	4.60461
0.106609	4.60435
0.107883	4.60423
0.109158	4.6041
0.111451	4.63055
0.114	4.63029
0.116549	4.63004
0.119098	4.62978
0.120628	4.62963
0.121648	4.61619
0.124196	4.64261
0.126745	4.64235
0.129295	4.62876
