Adsorption isotherm of Benzene on [Zn(bdc)(ted)0.5]*2DMF*0.2H2O
DOI: 10.1002/adfm.200600944
Adsorbate Benzene: InChIKey UHOVQNZJYSORNB-UHFFFAOYSA-N
Temperature: 333 K
Tabular data in the source: 0
pressure (bar)	uptake (mmol/g)
0.00488509	0.54446
0.00732764	0.735756
0.00809094	0.853477
0.00839626	0.985913
0.00915955	1.42737
0.00992285	1.91297
0.0100755	2.06012
0.0102282	2.20727
0.0105335	2.33971
0.0106861	2.48686
0.0109915	2.61929
0.0116021	3.16375
0.0117548	3.3109
0.0122127	3.57578
0.0125181	3.70821
0.012976	3.84065
0.0132814	3.97308
0.013434	4.12024
0.013892	4.23796
0.0141973	4.44397
0.0145026	4.5764
0.0148079	4.75299
0.0155712	4.85599
0.0169452	4.90014
0.0184718	4.97371
0.0198457	5.01786
0.0213723	5.03257
0.0227462	5.062
0.0244255	5.09143
0.0257994	5.12086
0.027326	5.13558
0.0286999	5.16501
0.0302265	5.17972
0.0316005	5.20915
0.033127	5.22387
0.034501	5.2533
0.0360276	5.26802
0.0374015	5.29745
0.0389281	5.28273
0.0404547	5.31216
0.041676	5.32688
0.0432026	5.35631
0.0447291	5.35631
0.0462557	5.37102
0.047477	5.40045
0.0490036	5.41517
0.0503775	5.41517
0.0517515	5.4446
0.0532781	5.4446
0.0548047	5.45931
0.0590791	5.48874
0.0606057	5.50346
0.0619796	5.50346
0.0633536	5.53289
0.0645748	5.53289
0.0661014	5.5476
0.0674754	5.5476
0.0688493	5.57703
0.0702232	5.57703
0.0717498	5.59175
0.0731238	5.59175
0.0744977	5.62118
0.0760243	5.60646
0.0775509	5.62118
