Adsorption isotherm of Dimethyl ether on [Zn(bdc)(ted)0.5]*2DMF*0.2H2O
DOI: 10.1002/adfm.200600944
Adsorbate Dimethyl ether: InChIKey LCGLNKUTAGEVQW-UHFFFAOYSA-N
Temperature: 368 K
Tabular data in the source: 0
pressure (bar)	uptake (mmol/g)
0.0939146	0.736652
0.153932	1.39633
0.212418	1.98007
0.270908	2.5385
0.330939	3.09699
0.389444	3.55423
0.446407	4.01142
0.506467	4.36751
0.565008	4.57175
0.623544	4.8013
0.682077	5.05615
0.743718	5.13399
