Adsorption isotherm of Dimethyl ether on [Zn(bdc)(ted)0.5]*2DMF*0.2H2O
DOI: 10.1002/adfm.200600944
Adsorbate Dimethyl ether: InChIKey LCGLNKUTAGEVQW-UHFFFAOYSA-N
Temperature: 318 K
Tabular data in the source: 0
pressure (bar)	uptake (mmol/g)
0.00760946	0.683323
0.0136776	1.3666
0.0350617	2.73344
0.0580338	3.77144
0.0933434	4.75923
0.151729	6.05135
0.207133	6.63498
0.262562	7.04153
0.318013	7.29627
0.376557	7.47522
0.432014	7.67937
0.485942	7.80757
0.542952	7.93587
0.653899	8.11648
0.709375	8.19413
