Adsorption isotherm of Ethanol on [Zn(bdc)(ted)0.5]*2DMF*0.2H2O
DOI: 10.1002/adfm.200600944
Adsorbate Ethanol: InChIKey LFQSCWFLJHTTHZ-UHFFFAOYSA-N
Temperature: 313 K
Tabular data in the source: 0
pressure (bar)	uptake (mmol/g)
0.00341363	0.35234
0.00844185	1.15919
0.0132808	3.10462
0.0177503	6.23932
0.0225947	7.52696
0.0275368	7.87847
0.0322107	8.05303
0.0370639	8.2781
0.041648	8.42741
0.044794	8.5269
