Adsorption isotherm of Benzene on [Zn(bdc)(ted)0.5]*2DMF*0.2H2O
DOI: 10.1002/adfm.200600944
Adsorbate Benzene: InChIKey UHOVQNZJYSORNB-UHFFFAOYSA-N
Temperature: 393 K
Tabular data in the source: 0
pressure (bar)	uptake (mmol/g)
0.00488509	0.0882908
0.00809094	0.147151
0.00977019	0.220727
0.0111441	0.250157
0.0125181	0.294303
0.013892	0.323733
0.0151133	0.367878
0.0163345	0.412024
0.0177085	0.441454
0.0189297	0.500314
0.0203037	0.54446
0.0215249	0.588605
0.0228989	0.63275
0.0241202	0.676896
0.0254941	0.721041
0.0267154	0.779902
0.0279366	0.824047
0.0291579	0.882908
0.0305318	0.927053
0.0317531	0.971198
0.0329744	1.04477
0.0343483	1.08892
0.0354169	1.14778
0.0366382	1.20664
0.0380121	1.2655
0.0392334	1.30965
0.040302	1.38322
0.041676	1.44208
0.0428972	1.48623
0.0439658	1.5598
0.0451871	1.61866
0.0464084	1.66281
0.0476297	1.72167
0.0488509	1.79525
0.0499196	1.85411
0.0512935	1.91297
0.0525148	1.97183
0.053736	2.01597
0.0549573	2.08955
0.0561786	2.14841
0.0573999	2.19255
0.0584685	2.26613
0.0598424	2.31027
0.060911	2.35442
0.062285	2.41328
0.0635062	2.47214
0.0648802	2.51629
0.0661014	2.56043
0.06717	2.64872
0.068544	2.67815
0.0699179	2.7223
0.0711392	2.78116
0.0725131	2.81059
0.0737344	2.86945
0.0749557	2.9136
0.0764823	2.94303
0.0777035	2.98717
