Adsorption isotherm of N-Hexane on [Zn(bdc)(ted)0.5]*2DMF*0.2H2O
DOI: 10.1002/adfm.200600944
Adsorbate N-Hexane: InChIKey VLKZOEOYAKHREP-UHFFFAOYSA-N
Temperature: 298 K
Tabular data in the source: 0
pressure (bar)	uptake (mmol/g)
0.000910092	2.49415
0.00189695	3.24099
0.00264589	3.60105
0.00315045	3.72104
0.00365502	3.84104
0.0044145	3.96101
0.00517399	4.08097
0.00618839	4.20092
0.00796873	4.29411
0.00975024	4.36062
0.0117861	4.44044
0.0140792	4.46689
0.0161174	4.49336
0.0184099	4.53315
0.0207024	4.57293
0.0229961	4.58604
0.0255447	4.59913
0.0278384	4.61223
0.030387	4.62532
0.0326801	4.65176
0.0352293	4.65151
0.0377779	4.66459
0.0400716	4.6777
0.0423659	4.67747
0.0449145	4.69056
0.0474637	4.6903
0.0497568	4.71675
0.052306	4.71649
0.0548558	4.7029
0.0571495	4.71601
0.0596981	4.72909
0.0622473	4.72884
0.0647965	4.72858
0.0673457	4.72833
0.0696399	4.7281
0.0721885	4.74118
0.0747377	4.74092
0.0772869	4.74067
0.07958	4.76712
0.0821292	4.76686
0.0846784	4.76661
0.0872276	4.76635
0.0895213	4.77946
0.0920705	4.7792
0.0946197	4.77895
0.0971689	4.77869
0.0997181	4.77844
0.102011	4.80489
0.10456	4.80463
0.10711	4.80438
0.109404	4.80415
0.111953	4.80389
0.114502	4.81698
0.117051	4.81672
0.1196	4.81647
0.121894	4.81624
0.124444	4.81598
0.126993	4.81573
0.129541	4.84215
