Adsorption isotherm of Ethanol on [Zn(bdc)(ted)0.5]*2DMF*0.2H2O
DOI: 10.1002/adfm.200600944
Adsorbate Ethanol: InChIKey LFQSCWFLJHTTHZ-UHFFFAOYSA-N
Temperature: 333 K
Tabular data in the source: 0
pressure (bar)	uptake (mmol/g)
0.00368524	0.124499
0.00844898	0.299012
0.0132125	0.498824
0.0178851	0.825182
0.0227368	1.22734
0.0274972	1.80665
0.0322561	2.56305
0.037013	3.57244
0.0416803	4.53129
0.0448208	5.28857
