Adsorption isotherm of Ethanol on [Zn(bdc)(ted)0.5]*2DMF*0.2H2O
DOI: 10.1002/adfm.200600944
Adsorbate Ethanol: InChIKey LFQSCWFLJHTTHZ-UHFFFAOYSA-N
Temperature: 343 K
Tabular data in the source: 0
pressure (bar)	uptake (mmol/g)
0.00315227	0.0757214
0.00837601	0.201924
0.0132396	0.302886
0.0179229	0.429088
0.0227863	0.55529
0.0274685	0.807695
0.032152	0.908657
0.0371036	1.26202
0.0416955	1.53967
0.0446659	1.81731
