Adsorption isotherm of Methanol on [Zn(bdc)(ted)0.5]*2DMF*0.2H2O
DOI: 10.1002/adfm.200600944
Adsorbate Methanol: InChIKey OKKJLVBELUTLKV-UHFFFAOYSA-N
Temperature: 333 K
Tabular data in the source: 0
pressure (bar)	uptake (mmol/g)
0.0190754	0.207537
0.022152	0.292389
0.025844	0.290899
0.0289207	0.375751
0.0324076	0.503485
0.0344587	0.502657
0.0363047	0.54496
0.0381507	0.630309
0.0410223	0.672197
0.0430734	0.671369
0.0449194	0.756718
0.0469705	0.75589
0.0490216	0.798109
0.0516881	0.883127
0.0537392	0.8823
0.0557903	0.924519
0.0576363	1.00987
0.0596874	1.00904
0.062559	1.05093
0.064405	1.13628
0.0664561	1.13545
0.0685072	1.17767
0.0703532	1.21997
0.0730196	1.21889
0.0748656	1.30424
0.0769168	1.34646
0.0789679	1.34564
0.0806088	1.43107
0.0836854	1.47287
0.0857365	1.47204
0.0875825	1.55739
0.0896337	1.59961
0.0916848	1.59879
0.0941461	1.64084
0.0961972	1.72611
0.0982483	1.72528
0.0998892	1.81071
