Adsorption isotherm of Methanol on [Zn(bdc)(ted)0.5]*2DMF*0.2H2O
DOI: 10.1002/adfm.200600944
Adsorbate Methanol: InChIKey OKKJLVBELUTLKV-UHFFFAOYSA-N
Temperature: 303 K
Tabular data in the source: 0
pressure (bar)	uptake (mmol/g)
0.00758912	0.771785
0.0108709	0.942648
0.0125118	1.11417
0.0141527	1.24265
0.0157936	1.45723
0.0174345	1.62875
0.0188702	1.88646
0.0201009	2.18729
0.0211265	2.53125
0.0223571	2.87513
0.0233827	3.17605
0.0244082	3.6061
0.0254338	3.95007
0.0262543	4.29411
0.0272798	4.63807
0.0281003	5.02517
0.0287156	5.3693
0.029536	5.54115
0.0299463	5.92841
0.0307667	6.3155
0.031382	6.70268
0.0324076	7.04664
0.0330229	7.43382
0.0336383	7.77795
0.0342536	8.12207
0.0348689	8.5523
0.0354843	8.89642
0.0363047	9.24047
0.0371252	9.62756
0.0377405	10.0147
0.0385609	10.4018
0.0391763	10.789
0.0404069	11.4773
0.0412274	11.563
0.0420478	11.9071
0.0432785	12.251
0.044304	12.5519
0.0455347	12.8527
0.0465603	13.1967
0.0479961	13.4544
0.0494318	13.7551
0.0510727	14.1849
0.0523034	14.0553
0.0539443	14.2699
0.0557903	14.3552
0.0576363	14.4406
0.0594823	14.5259
0.0619436	14.611
0.0627641	14.6968
0.0648152	14.739
0.0666612	14.8243
0.0683021	14.9528
0.0703532	14.995
0.0721992	15.1234
0.0732247	15.123
0.0752759	15.1652
0.0771219	15.2506
0.0787628	15.3791
0.0808139	15.3782
0.0830701	15.4634
0.0838905	15.4631
0.0857365	15.5484
0.0875825	15.6338
0.0896337	15.676
0.0912745	15.7614
0.0933257	15.8037
0.0951717	15.846
