Adsorption isotherm of N-Hexane on [Zn(bdc)(ted)0.5]*2DMF*0.2H2O
DOI: 10.1002/adfm.200600944
Adsorbate N-Hexane: InChIKey VLKZOEOYAKHREP-UHFFFAOYSA-N
Temperature: 353 K
Tabular data in the source: 0
pressure (bar)	uptake (mmol/g)
0.00174635	0.866809
0.00249704	1.18685
0.00401249	1.50682
0.00577525	2.00015
0.0095797	2.43993
0.0121184	2.67977
0.0154241	2.86617
0.0212744	3.15903
0.0289108	3.41169
0.04267	3.55703
0.0556657	3.67578
0.069174	3.72778
0.0824258	3.81982
0.0954255	3.84519
0.107914	3.91064
0.120913	3.93601
0.12907	3.96187
