Adsorption isotherm of N-propane on [Zn(bdc)(ted)0.5]*2DMF*0.2H2O
DOI: 10.1002/adfm.200600944
Adsorbate N-propane: InChIKey ATUOYWHBWRKTHZ-UHFFFAOYSA-N
Temperature: 303 K
Tabular data in the source: 0
pressure (bar)	uptake (mmol/g)
0.00884603	0.485773
0.0243266	1.10748
0.0287496	1.30177
0.0353841	1.47657
0.0375956	1.61259
0.0442302	1.80684
0.0486532	1.98169
0.0552877	2.17594
0.0619222	2.37018
0.0685568	2.54499
0.0774028	2.71975
0.0840373	2.91399
0.0928834	3.08875
0.101729	3.26351
0.110575	3.43827
0.121633	3.61299
0.141537	3.88471
0.154806	4.03994
0.168075	4.19517
0.181344	4.3504
0.196824	4.48614
0.212305	4.64133
0.229997	4.75759
0.245477	4.8739
0.26317	5.0096
0.280862	5.10642
0.300765	5.22263
0.314034	5.28067
0.333938	5.37745
0.353841	5.45479
0.373745	5.53213
0.39586	5.62886
0.415764	5.68676
0.437879	5.74461
0.457782	5.82195
0.473263	5.80219
0.477686	5.86041
0.497589	5.91831
0.519704	5.95673
0.54182	5.99514
0.550666	6.0144
0.561723	6.05305
0.583838	6.09146
0.603742	6.12992
0.643549	6.18741
0.665664	6.22582
0.683356	6.24489
0.716529	6.28308
0.758547	6.32108
0.796143	6.35918
0.809412	6.39778
0.831527	6.39731
0.853642	6.41629
0.873546	6.45475
