Adsorption isotherm of Cyclohexane on [Zn(bdc)(ted)0.5]*2DMF*0.2H2O
DOI: 10.1002/adfm.200600944
Adsorbate Cyclohexane: InChIKey XDTMQSROBMDMFD-UHFFFAOYSA-N
Temperature: 398 K
Tabular data in the source: 0
pressure (bar)	uptake (mmol/g)
0.00685886	0.258062
0.00898699	0.350164
0.0111159	0.423929
0.0130071	0.515984
0.0151353	0.608086
0.0172641	0.681851
0.0193922	0.773953
0.0215211	0.847718
0.0234124	0.939773
0.0255412	1.01354
0.0276694	1.10564
0.0297982	1.17941
0.0316902	1.25312
0.0338198	1.30855
0.0359487	1.38232
0.0383152	1.43779
0.040444	1.51156
0.0425736	1.56699
0.0449393	1.6408
0.0470689	1.69623
0.0491985	1.75166
0.0515643	1.82547
0.0536939	1.8809
0.0558234	1.93632
0.0574771	2.04667
0.0593677	2.15706
0.0612582	2.26745
0.063148	2.39618
0.0640918	2.48805
0.0657447	2.61673
0.0671601	2.7637
0.0685762	2.89234
0.0699915	3.03931
0.0716444	3.16799
0.072589	3.24153
0.0742426	3.35187
0.0763701	3.46231
0.0784982	3.55441
0.0803902	3.62813
