Adsorption isotherm of Methanol on [Zn(bdc)(ted)0.5]*2DMF*0.2H2O
DOI: 10.1002/adfm.200600944
Adsorbate Methanol: InChIKey OKKJLVBELUTLKV-UHFFFAOYSA-N
Temperature: 318 K
Tabular data in the source: 0
pressure (bar)	uptake (mmol/g)
0.0127169	0.25315
0.0194856	0.336512
0.0233827	0.377987
0.025844	0.506134
0.0289207	0.54794
0.0301514	0.633537
0.0322025	0.675756
0.0340485	0.761106
0.0358945	0.803408
0.0377405	0.888757
0.0395865	1.01715
0.0416376	1.01633
0.0434836	1.14472
0.0451245	1.2732
0.0469705	1.35855
0.0488165	1.4439
0.0504574	1.61542
0.0520983	1.78695
0.0535341	2.00161
0.0553801	2.17305
0.0568158	2.43075
0.0582516	2.64541
0.0596874	2.90311
0.0611232	3.20386
0.062559	3.50461
0.0639947	3.76232
0.0652254	4.06315
0.066251	4.40711
0.0674816	4.75099
0.0689174	5.00869
0.069943	5.35266
0.0721992	6.0405
0.0730196	6.29845
0.0740452	6.64241
0.0750707	6.98638
0.0760963	7.28729
0.0769168	7.67438
0.0779423	7.9753
0.0789679	8.36231
0.0799934	8.70627
0.081019	9.05024
0.0820445	9.35115
0.0832752	9.82417
0.084711	10.0819
0.0859416	10.4258
0.0873774	10.6404
0.0886081	10.9843
0.0900439	11.242
0.0916848	11.4566
0.0935308	11.8863
0.0953768	11.9716
0.0972228	12.1
0.0988637	12.2285
0.10071	12.3569
