Adsorption isotherm of Water on [Zn(bdc)(ted)0.5]*2DMF*0.2H2O
DOI: 10.1002/adfm.200600944
Adsorbate Water: InChIKey XLYOFNOQVPJJNP-UHFFFAOYSA-N
Temperature: 313 K
Tabular data in the source: 0
pressure (bar)	uptake (mmol/g)
0.00203517	0.0934637
0.00339164	0.0906229
0.00488375	0.087498
0.0065115	0.084089
0.0115314	0.269028
0.0131587	0.167894
0.0147869	0.26221
0.016279	0.259085
0.0173646	0.354537
