Adsorption isotherm of Methanol on [Zn(bdc)(ted)0.5]*2DMF*0.2H2O
DOI: 10.1002/adfm.200600944
Adsorbate Methanol: InChIKey OKKJLVBELUTLKV-UHFFFAOYSA-N
Temperature: 308 K
Tabular data in the source: 0
pressure (bar)	uptake (mmol/g)
0.00943512	0.383616
0.0139476	0.467889
0.0192805	0.767066
0.0215367	0.938344
0.0233827	1.06674
0.0248185	1.23835
0.0264594	1.45292
0.0281003	1.71054
0.0293309	1.96833
0.0307667	2.26908
0.0319974	2.56991
0.033228	2.87074
0.0340485	3.21479
0.0346638	3.42978
0.0356894	3.77374
0.0367149	4.1177
0.0377405	4.46166
0.0385609	4.84876
0.0393814	5.23585
0.0404069	5.36458
0.0412274	6.00995
0.0418427	6.39713
0.0428683	6.74109
0.0436887	7.17123
0.044304	7.51536
0.0449194	7.90253
0.0455347	8.28971
0.0463552	8.63375
0.0469705	9.02093
0.0477909	9.40802
0.0486114	9.75207
0.0492267	10.1392
0.0500472	10.5263
0.0508676	10.8704
0.0512778	11.3007
0.0518932	11.1713
0.0529187	11.5153
0.0541494	11.8591
0.0553801	12.16
0.0568158	12.4607
0.0580465	12.7185
0.0596874	12.9331
0.0615334	13.4059
0.0623538	13.2764
0.0639947	13.4479
0.0658407	13.6194
0.0674816	13.7478
0.0695327	13.7901
0.0713787	13.9184
0.0724043	14.0472
0.0732247	14.0038
0.0750707	14.0891
0.0771219	14.1314
0.0789679	14.1737
0.0808139	14.259
0.0826599	14.3013
0.0838905	14.3008
0.0857365	14.4292
0.0875825	14.4715
0.0894285	14.5569
0.0914797	14.5991
0.0937359	14.6412
0.0943512	14.5979
0.0959921	14.7264
0.0978381	14.8118
0.0996841	14.8541
0.10071	14.8536
