Adsorption isotherm of Cyclohexane on [Zn(bdc)(ted)0.5]*2DMF*0.2H2O
DOI: 10.1002/adfm.200600944
Adsorbate Cyclohexane: InChIKey XDTMQSROBMDMFD-UHFFFAOYSA-N
Temperature: 393 K
Tabular data in the source: 0
pressure (bar)	uptake (mmol/g)
0.00496613	0.20268
0.00685667	0.313072
0.00874793	0.405127
0.0106392	0.497182
0.0127673	0.589284
0.0139487	0.662863
0.01584	0.754918
0.0179681	0.84702
0.0198587	0.957412
0.0219875	1.03118
0.0238788	1.12323
0.0257693	1.23362
0.0278982	1.30739
0.0309731	1.41801
0.0331012	1.51012
0.0352301	1.58388
0.0373589	1.65765
0.0394871	1.74975
0.0416159	1.82351
0.0435065	1.9339
0.045397	2.0443
0.0472868	2.17302
0.0484653	2.31995
0.0498806	2.46692
0.0510584	2.63218
0.0519992	2.7974
0.0531777	2.94432
0.0545923	3.10963
0.0560077	3.25661
0.0574238	3.38524
0.0593143	3.49563
0.0612048	3.60602
0.0633337	3.67979
0.0661731	3.75369
0.0685403	3.79083
0.0704338	3.82788
0.0728017	3.84668
0.074932	3.88377
0.0768262	3.90248
0.0791942	3.92128
