Adsorption isotherm of Cyclohexane on [Zn(bdc)(ted)0.5]*2DMF*0.2H2O
DOI: 10.1002/adfm.200600944
Adsorbate Cyclohexane: InChIKey XDTMQSROBMDMFD-UHFFFAOYSA-N
Temperature: 333 K
Tabular data in the source: 0
pressure (bar)	uptake (mmol/g)
0.00141388	0.183645
0.00235476	0.348861
0.00353251	0.514122
0.00447193	0.716011
0.00517521	0.899517
0.00564237	1.06464
0.00634565	1.24814
0.00681207	1.4316
0.00751609	1.59677
0.00774857	1.70684
0.00821499	1.8903
0.008919	2.05547
0.00938542	2.23892
0.00985184	2.42238
0.0105551	2.60589
0.0112584	2.78939
0.0117256	2.95452
0.0124288	3.13802
0.0131321	3.32153
0.0140694	3.57843
0.0147734	3.7436
0.0157135	3.92715
0.0164175	4.09232
0.0175953	4.25758
0.0185362	4.42279
0.0197139	4.58806
0.0208924	4.73498
0.0225453	4.86366
0.0246742	4.93743
0.0275144	4.993
0.029883	4.99346
0.0322517	4.99393
0.0346203	4.99439
0.036989	4.99486
0.0393569	5.01366
0.0417256	5.01413
0.0440942	5.01459
0.0464629	5.01506
0.0478841	5.01534
0.0502527	5.0158
0.0526214	5.01627
0.05499	5.01673
0.0573587	5.0172
0.0597273	5.01766
0.062096	5.01813
0.0642278	5.01855
0.0665964	5.01901
0.0689651	5.01948
0.0713337	5.01994
0.0725173	5.03851
0.0748867	5.02064
0.0772554	5.02111
0.079624	5.02157
