Adsorption isotherm of Cyclohexane on [Zn(bdc)(ted)0.5]*2DMF*0.2H2O
DOI: 10.1002/adfm.200600944
Adsorbate Cyclohexane: InChIKey XDTMQSROBMDMFD-UHFFFAOYSA-N
Temperature: 303 K
Tabular data in the source: 0
pressure (bar)	uptake (mmol/g)
0.00142482	0.300261
0.00213723	0.600626
0.00463066	1.24217
0.00534307	1.54254
0.00676789	2.23887
0.00819271	2.97618
0.00926132	3.52233
0.010508	4.38258
0.0124672	4.79203
0.0144263	4.95563
0.0176321	4.96882
0.0251124	4.98139
0.0377577	4.97954
0.0454161	4.97841
0.0532526	4.99093
0.057349	4.97667
0.0612672	4.98975
0.0689256	4.97497
0.0728439	4.98806
0.0771183	4.97378
0.0806804	4.98691
