Adsorption isotherm of Cyclohexane on [Zn(bdc)(ted)0.5]*2DMF*0.2H2O
DOI: 10.1002/adfm.200600944
Adsorbate Cyclohexane: InChIKey XDTMQSROBMDMFD-UHFFFAOYSA-N
Temperature: 353 K
Tabular data in the source: 0
pressure (bar)	uptake (mmol/g)
0.00106861	0.109105
0.00284964	0.286395
0.00480876	0.45
0.00641169	0.750235
0.00890512	1.33715
0.0101518	1.7467
0.0117548	2.2518
0.0131796	2.74327
0.0151387	3.49416
0.0160292	3.99936
0.0172759	4.35428
0.0213723	4.55854
0.0254686	4.61258
0.0293869	4.65298
0.033127	4.66609
0.0374015	4.70643
0.0413198	4.71952
0.0454161	4.74623
0.0496906	4.74561
0.0532526	4.7724
0.057349	4.78546
0.0610891	4.78491
0.0651855	4.79797
0.0689256	4.78377
0.0728439	4.79685
0.076584	4.82362
0.0805023	4.80939
