Adsorption isotherm of Water on [Zn(bdc)(ted)0.5]*2DMF*0.2H2O
DOI: 10.1002/adfm.200600944
Adsorbate Water: InChIKey XLYOFNOQVPJJNP-UHFFFAOYSA-N
Temperature: 303 K
Tabular data in the source: 0
pressure (bar)	uptake (mmol/g)
0.00189953	0.0937478
0.00461293	0.185791
0.0059694	0.18295
0.00895457	0.37215
0.0128888	0.461637
0.0161443	0.454819
0.0177725	0.549135
