Adsorption isotherm of Hydrogen on rht-MOF-9
DOI: 10.1021/Cg401802s
Adsorbate Hydrogen: InChIKey UFHFLCQGNIYNRP-UHFFFAOYSA-N
Temperature: 77 K
Tabular data in the source: 0
pressure (bar)	uptake (wt%)
-0.00471347	0.100315
0.000140202	0.175486
0.00978078	0.242263
0.0243017	0.417637
0.0363991	0.559603
0.0556402	0.643018
0.0749882	0.860137
0.0918191	0.926857
0.108663	1.01029
0.118291	1.06035
0.163991	1.26055
0.202439	1.3856
0.231288	1.49401
0.267333	1.61072
0.303351	1.694
0.339363	1.76893
0.368198	1.86062
0.4018	1.91886
0.437805	1.98543
0.471413	2.05202
0.505016	2.11025
0.536213	2.16014
0.567405	2.20168
0.608205	2.26822
0.637006	2.31813
0.807338	2.51735
0.833723	2.54221
0.869702	2.57536
0.941665	2.65
0.970447	2.67485
