Adsorption isotherm of Argon on rht-MOF-9
DOI: 10.1021/Cg401802s
Adsorbate Argon: InChIKey XKRFYHLGVUSROY-UHFFFAOYSA-N
Temperature: 87 K
Tabular data in the source: 0
pressure (bar)	uptake (cm3(STP)/g)
0.00831619	392.032
0.0110882	516.335
0.0138603	564.143
0.0221765	599.203
0.0277206	634.263
0.0304926	647.012
0.0360368	656.574
0.0415809	678.884
0.0471251	691.633
0.0637575	710.757
0.0831619	726.693
0.121971	739.442
0.14692	745.817
0.1885	755.378
0.279979	768.127
0.377001	777.689
0.476795	780.876
0.576589	780.876
0.61817	784.064
0.65975	784.064
0.693016	784.064
0.731825	784.064
0.767861	787.251
0.842707	790.438
0.892604	787.251
0.96745	790.438
