Adsorption isotherm of Carbon Dioxide on rht-MOF-9
DOI: 10.1021/Cg401802s
Adsorbate Carbon Dioxide: InChIKey CURLTUGMZLYLDI-UHFFFAOYSA-N
Temperature: 298 K
Tabular data in the source: 0
pressure (bar)	uptake (mmol/g)
0.000182088	0.0606061
0.00643376	0.141414
0.0156899	0.222222
0.0250067	0.323232
0.031137	0.363636
0.0495279	0.484848
0.0618492	0.585859
0.0681008	0.666667
0.105125	0.989899
0.136019	1.27273
0.169737	1.49495
0.203514	1.73737
0.23717	1.93939
0.267821	2.14141
0.298473	2.34343
0.335132	2.54545
0.365785	2.74747
0.402383	2.92929
0.432914	3.09091
0.463383	3.23232
0.505992	3.41414
0.533517	3.57576
0.567052	3.73737
0.597582	3.89899
0.63406	4.0404
0.667594	4.20202
0.731477	4.46465
0.798364	4.72727
0.86525	4.9899
0.929133	5.25253
0.992954	5.49495
1.05972	5.71717
