Adsorption isotherm of Argon on rht-MOF-9
DOI: 10.1021/Cg401802s
Adsorbate Argon: InChIKey XKRFYHLGVUSROY-UHFFFAOYSA-N
Temperature: 87 K
Tabular data in the source: 0
pressure (bar)	uptake (cm3(STP)/g)
-0.00249196	82.8685
-0.0024255	101.992
-0.0022926	140.239
-0.00221507	162.55
-0.00180529	280.478
-0.00173883	299.602
-0.00159485	341.036
-0.00147302	376.096
5.53768e-05	15.9363
0.000686673	197.61
0.000830651	239.044
0.00145088	417.53
0.00435262	452.59
0.00451875	500.398
0.00735404	516.335
0.00743157	538.645
0.166628	752.191
0.21113	758.566
0.31124	768.127
0.397439	774.502
0.497527	777.689
0.594836	780.876
0.636545	784.064
0.678244	784.064
0.717174	787.251
0.756092	787.251
0.800582	790.438
0.88398	790.438
0.922909	793.625
0.978519	796.813
