Adsorption isotherm of Hydrogen on rht-MOF-9
DOI: 10.1021/Cg401802s
Adsorbate Hydrogen: InChIKey UFHFLCQGNIYNRP-UHFFFAOYSA-N
Temperature: 87 K
Tabular data in the source: 0
pressure (bar)	uptake (wt%)
0.00240347	0.00833772
0.0120641	0.100184
0.0240948	0.158586
0.0385356	0.233681
0.0481695	0.292102
0.0770045	0.383798
0.0914319	0.442181
0.101039	0.467175
0.120287	0.558946
0.134688	0.583903
0.16831	0.667205
0.24034	0.825415
0.266758	0.89206
0.29797	0.958668
0.336379	1.03358
0.36998	1.09181
0.401186	1.15006
0.434774	1.19158
0.470772	1.24979
0.504355	1.28296
0.540353	1.34117
0.571545	1.38271
0.605126	1.41587
0.638722	1.46575
0.703489	1.53209
0.741858	1.55686
0.830625	1.6648
0.873787	1.68953
0.938555	1.75588
0.972136	1.78904
