Adsorption isotherm of Carbon Dioxide on Rht-MOF-7
DOI: 10.1021/Cg401802s
Adsorbate Carbon Dioxide: InChIKey CURLTUGMZLYLDI-UHFFFAOYSA-N
Temperature: 298 K
Tabular data in the source: 0
pressure (bar)	uptake (mmol/g)
-0.00249477	0.200763
0.0098388	0.340767
0.0221223	0.460706
0.0434431	0.600372
0.0646636	0.699908
0.0828384	0.779492
0.104009	0.858963
0.119088	0.898529
0.158583	1.11778
0.215953	1.29622
0.264436	1.51513
0.315863	1.71387
0.367242	1.89254
0.415574	2.05125
0.469948	2.22981
0.518331	2.40859
0.566613	2.54724
0.623983	2.72568
0.672315	2.8844
0.717602	3.02316
0.777967	3.2015
0.8262	3.32008
0.871436	3.43878
0.928756	3.59716
0.979983	3.71563
1.01918	3.81449
