Adsorption isotherm of Hydrogen on rht-MOF-9
DOI: 10.1021/Cg401802s
Adsorbate Hydrogen: InChIKey UFHFLCQGNIYNRP-UHFFFAOYSA-N
Temperature: 87 K
Tabular data in the source: 0
pressure (bar)	uptake (wt%)
0.0650005	0.358822
0.129874	0.558871
0.201938	0.758864
0.259568	0.892117
0.324381	1.01696
0.386784	1.1251
0.458776	1.23317
0.521158	1.31625
0.590739	1.40763
0.66751	1.49895
0.703482	1.52374
0.72988	1.56531
0.768255	1.59844
0.79705	1.63999
0.833016	1.65643
0.864194	1.68125
0.900179	1.72275
0.931363	1.75593
0.986523	1.79728
1.0009	1.79717
