Adsorption isotherm of Hydrogen on rht-MOF-9
DOI: 10.1021/Cg401802s
Adsorbate Hydrogen: InChIKey UFHFLCQGNIYNRP-UHFFFAOYSA-N
Temperature: 77 K
Tabular data in the source: 0
pressure (bar)	uptake (wt%)
0.0653209	0.759934
0.127925	1.11877
0.190442	1.36898
0.267319	1.59401
0.327378	1.76902
0.389809	1.91059
0.459409	2.02704
0.52182	2.14354
0.591406	2.24328
0.665795	2.35133
0.70178	2.39283
0.732957	2.41766
0.766553	2.46753
0.804935	2.50901
0.833717	2.53386
0.862512	2.57542
0.900893	2.6169
0.934469	2.6417
0.982445	2.69147
1.00403	2.70801
