Adsorption isotherm of Carbon Dioxide on Rht-MOF-1
DOI: 10.1021/Cg401802s
Adsorbate Carbon Dioxide: InChIKey CURLTUGMZLYLDI-UHFFFAOYSA-N
Temperature: 298 K
Tabular data in the source: 0
pressure (bar)	uptake (mmol/g)
0.0149786	-0.000563624
0.0271619	0.0792455
0.0483324	0.158716
0.0724484	0.21801
0.0845817	0.277754
0.0966649	0.317433
0.117785	0.376839
0.166168	0.55562
0.217446	0.694159
0.27167	0.81252
0.322947	0.951059
0.368134	1.04969
0.422357	1.16805
0.473636	1.30659
0.524764	1.38494
0.575991	1.50341
0.621177	1.60204
0.675402	1.72041
0.723532	1.79886
0.774711	1.89727
0.828834	1.9755
0.874071	2.0942
0.928194	2.17243
0.979373	2.27084
1.01847	2.32957
