Adsorption isotherm of Nitrogen on Fe-MOF
DOI: 10.1039/C4ta02010c
Adsorbate Nitrogen: InChIKey IJGRMHOSHXDMSA-UHFFFAOYSA-N
Temperature: 77 K
Tabular data in the source: 0
pressure (bar)	uptake (cm3(STP)/g)
0.00179218	7.88098
0.00606054	181.237
0.00610295	175.506
0.0225401	204.888
0.0262146	208.472
0.0354353	212.777
0.0483782	214.219
0.0576148	216.375
0.0687073	217.816
0.076104	218.537
0.0890416	220.696
0.100139	221.421
0.113082	222.863
0.12603	223.589
0.131577	224.309
0.148226	225.038
0.155623	225.759
0.172277	225.772
0.183375	226.496
0.198179	226.507
0.224075	227.959
0.248132	227.977
0.272183	228.711
0.29624	228.728
0.320291	229.463
0.342492	230.195
0.368394	230.931
0.39245	230.948
0.420202	231.685
0.438702	232.415
0.46646	232.436
0.488666	232.452
0.514572	232.471
0.538629	232.489
0.560835	232.505
0.586737	233.241
0.59784	233.249
0.607092	233.256
0.614494	233.261
0.623747	233.268
0.631144	233.99
0.640397	233.997
0.65335	234.006
0.658901	234.01
0.671855	234.02
0.679257	234.025
0.688509	234.032
0.701463	234.042
0.710715	234.048
0.725519	234.059
0.734772	234.066
0.751427	234.078
0.76253	234.087
0.779184	234.099
0.788431	234.822
0.80139	234.115
0.812488	234.84
0.825441	234.849
0.84024	235.577
0.843941	235.579
0.862446	235.593
0.871699	235.6
0.903168	234.19
0.929069	234.926
0.953116	236.376
0.962368	236.383
0.96976	237.821
