Adsorption isotherm of Nitrogen on C1000/1000
DOI: 10.1039/C4ta02010c
Adsorbate Nitrogen: InChIKey IJGRMHOSHXDMSA-UHFFFAOYSA-N
Temperature: 77 K
Tabular data in the source: 0
pressure (bar)	uptake (cm3(STP)/g)
2.69651e-17	29.703
0.0097152	84.1584
0.0194304	95.297
0.0275264	99.0099
0.0388608	106.436
0.0518144	111.386
0.0663872	113.861
0.08096	117.574
0.0955328	118.812
0.110105	122.525
0.126298	122.525
0.14087	125
0.155443	126.238
0.171636	127.475
0.186208	128.713
0.2024	129.95
0.225069	129.95
0.247738	133.663
0.272026	133.663
0.296314	138.614
0.318982	141.089
0.34327	142.327
0.367558	143.564
0.391846	147.277
0.416134	149.752
0.442042	153.465
0.456614	152.228
0.471187	152.228
0.482522	154.703
0.492237	154.703
0.501952	155.941
0.516525	157.178
0.535956	158.416
0.547289	159.653
0.557004	159.653
0.568339	162.129
0.582912	162.129
0.595865	163.366
0.618535	165.842
0.633108	168.317
0.650918	168.317
0.673587	170.792
0.684922	173.267
0.70921	175.743
0.731878	178.218
0.754548	179.455
0.777216	180.693
0.803124	186.881
0.827412	195.545
0.84846	201.733
0.874368	217.822
0.895418	236.386
0.916467	259.901
0.942374	294.554
0.943994	301.98
0.945612	311.881
0.961805	339.109
