Adsorption isotherm of Nitrogen on C1000
DOI: 10.1039/C4ta02010c
Adsorbate Nitrogen: InChIKey IJGRMHOSHXDMSA-UHFFFAOYSA-N
Temperature: 77 K
Tabular data in the source: 0
pressure (bar)	uptake (cm3(STP)/g)
3.33215e-05	5.07614
0.00189515	38.7056
0.00521481	44.4162
0.00686005	45.0508
0.0183726	48.8579
0.0282441	52.665
0.0413852	54.5685
0.0545264	56.4721
0.0676717	59.0102
0.0808045	59.6447
0.0972239	60.9137
0.10872	62.1827
0.121848	62.1827
0.138268	63.4518
0.151405	64.7208
0.167819	65.3553
0.182589	65.3553
0.199008	66.6244
0.221984	66.6244
0.243321	67.2589
0.259732	67.2589
0.276152	68.5279
0.294203	68.5279
0.318832	70.4315
0.345085	69.797
0.368064	70.4315
0.389399	70.4315
0.415656	70.4315
0.441913	70.4315
0.463256	71.7005
0.489509	71.066
0.517415	72.335
0.53875	72.335
0.560083	72.335
0.586345	72.9695
0.599477	73.6041
0.617529	73.6041
0.632299	73.6041
0.647069	73.6041
0.668403	73.6041
0.681532	73.6041
0.702866	73.6041
0.717636	73.6041
0.73405	74.2386
0.753743	74.2386
0.77015	73.6041
0.783287	74.8731
0.801339	74.8731
0.816109	74.8731
0.837442	74.8731
0.858794	77.4112
0.86864	77.4112
0.878491	78.0457
0.901478	79.9492
0.922833	83.1218
0.945838	87.5635
0.949153	92.6396
0.959024	96.4467
0.965622	101.523
