Adsorption isotherm of Nitrogen on C700/950
DOI: 10.1039/C4ta02010c
Adsorbate Nitrogen: InChIKey IJGRMHOSHXDMSA-UHFFFAOYSA-N
Temperature: 77 K
Tabular data in the source: 0
pressure (bar)	uptake (cm3(STP)/g)
0.0048576	254.95
0.0064768	264.851
0.016192	274.752
0.0259072	279.703
0.0340032	283.416
0.0453376	285.891
0.0582912	288.366
0.0696256	289.604
0.0825792	292.079
0.0939136	294.554
0.106867	297.03
0.118202	297.03
0.131155	297.03
0.14249	298.267
0.153824	301.98
0.166778	303.218
0.178112	303.218
0.191066	304.455
0.2024	306.931
0.22183	308.168
0.24288	309.406
0.268788	310.644
0.291456	313.119
0.315744	315.594
0.340032	316.832
0.36594	319.307
0.388608	320.545
0.412896	320.545
0.440422	323.02
0.463092	324.257
0.48738	324.257
0.510048	326.733
0.535956	329.208
0.558624	329.208
0.582912	330.446
0.597485	331.683
0.60882	332.921
0.616915	334.158
0.625011	336.634
0.637965	336.634
0.644441	337.871
0.654156	337.871
0.665491	337.871
0.670349	339.109
0.680064	339.109
0.689779	339.109
0.701114	341.584
0.70921	341.584
0.718925	344.059
0.73026	345.297
0.743213	346.535
0.757786	347.772
0.772358	350.248
0.786931	351.485
0.806362	353.96
0.822554	355.198
0.840365	358.911
0.85008	362.624
0.864653	366.337
0.874368	368.812
0.893798	376.238
0.916467	384.901
0.942374	410.891
0.947232	418.317
0.956947	436.881
0.958567	457.921
