Adsorption isotherm of Nitrogen on C900/950
DOI: 10.1039/C4ta02010c
Adsorbate Nitrogen: InChIKey IJGRMHOSHXDMSA-UHFFFAOYSA-N
Temperature: 77 K
Tabular data in the source: 0
pressure (bar)	uptake (cm3(STP)/g)
2.69651e-17	12.3762
0.0145728	122.525
0.024288	129.95
0.0307648	131.188
0.0437184	134.901
0.0582912	138.614
0.072864	139.851
0.0874368	142.327
0.103629	143.564
0.118202	146.04
0.132775	147.277
0.147348	147.277
0.163539	148.515
0.179731	150.99
0.192684	152.228
0.22183	154.703
0.24126	155.941
0.268788	155.941
0.293076	159.653
0.318982	159.653
0.34327	160.891
0.36594	160.891
0.388608	163.366
0.398323	163.366
0.406419	164.604
0.417754	168.317
0.427469	168.317
0.437184	168.317
0.443661	168.317
0.458234	168.317
0.472807	168.317
0.48414	168.317
0.497095	170.792
0.518144	172.03
0.535956	172.03
0.550528	173.267
0.568339	174.505
0.58777	174.505
0.60558	175.743
0.62825	175.743
0.650918	178.218
0.681684	183.168
0.704352	183.168
0.72864	186.881
0.754548	188.119
0.775596	191.832
0.799884	195.545
0.822554	200.495
0.845222	205.446
0.867891	215.347
0.897036	224.01
0.918086	236.386
0.940755	262.376
0.945612	269.802
0.955328	279.703
0.958567	299.505
