Adsorption isotherm of Nitrogen on C700/700
DOI: 10.1039/C4ta02010c
Adsorbate Nitrogen: InChIKey IJGRMHOSHXDMSA-UHFFFAOYSA-N
Temperature: 77 K
Tabular data in the source: 0
pressure (bar)	uptake (cm3(STP)/g)
-0.00160584	4.9505
0.00692119	133.663
0.0134409	143.564
0.0264322	148.515
0.0394195	152.228
0.0524067	155.941
0.0686378	159.653
0.0832429	162.129
0.0978486	164.604
0.114079	168.317
0.130302	169.554
0.144911	173.267
0.159513	174.505
0.175739	176.98
0.190341	178.218
0.216307	183.168
0.240644	185.644
0.264989	190.594
0.287703	193.069
0.312043	196.782
0.338006	200.495
0.362347	204.208
0.385062	206.683
0.409402	210.396
0.432124	215.347
0.45647	220.297
0.484058	225.248
0.505158	230.198
0.531125	235.149
0.553832	235.149
0.583034	237.624
0.591148	238.861
0.605749	240.099
0.621968	240.099
0.636569	241.337
0.654414	242.574
0.670641	245.05
0.688482	245.05
0.706331	247.525
0.729045	250
0.742025	251.238
0.75987	252.475
0.772845	252.475
0.793938	254.95
0.813404	256.188
0.829635	259.901
0.842619	262.376
0.853972	262.376
0.862094	266.089
0.871837	269.802
0.894564	275.99
0.922176	288.366
