Adsorption isotherm of Nitrogen on C900/900
DOI: 10.1039/C4ta02010c
Adsorbate Nitrogen: InChIKey IJGRMHOSHXDMSA-UHFFFAOYSA-N
Temperature: 77 K
Tabular data in the source: 0
pressure (bar)	uptake (cm3(STP)/g)
0.0064768	183.168
0.008096	188.119
0.0178112	198.02
0.0275264	204.208
0.0356224	207.921
0.0453376	210.396
0.056672	212.871
0.0696256	216.584
0.0841984	217.822
0.0955328	217.822
0.106867	220.297
0.118202	224.01
0.132775	226.485
0.145728	226.485
0.157063	230.198
0.170016	232.673
0.182969	231.436
0.194304	233.911
0.220212	237.624
0.236403	242.574
0.24288	242.574
0.267168	246.287
0.291456	247.525
0.312506	252.475
0.338412	258.663
0.3627	259.901
0.382131	264.851
0.411276	269.802
0.433946	273.515
0.456614	278.465
0.480902	282.178
0.50519	287.129
0.534336	295.792
0.555386	300.743
0.582912	305.693
0.592627	306.931
0.602342	308.168
0.612058	308.168
0.623392	309.406
0.634726	311.881
0.644441	311.881
0.652538	311.881
0.662253	314.356
0.673587	314.356
0.680064	314.356
0.689779	314.356
0.699494	314.356
0.712448	316.832
0.722163	316.832
0.72864	316.832
0.735117	319.307
0.74807	320.545
0.759405	320.545
0.767501	320.545
0.773978	321.782
0.788551	325.495
0.796646	325.495
0.806362	324.257
0.816077	327.97
0.82903	327.97
0.835507	331.683
0.845222	334.158
0.854938	335.396
0.863033	336.634
0.875988	339.109
0.895418	342.822
0.916467	356.436
0.940755	371.287
0.945612	381.188
0.958567	392.327
