Adsorption isotherm of Nitrogen on C800/800
DOI: 10.1039/C4ta02010c
Adsorbate Nitrogen: InChIKey IJGRMHOSHXDMSA-UHFFFAOYSA-N
Temperature: 77 K
Tabular data in the source: 0
pressure (bar)	uptake (cm3(STP)/g)
2.69651e-17	58.1683
0.0064768	167.079
0.0194304	178.218
0.032384	183.168
0.0453376	189.356
0.0696256	195.545
0.0825792	195.545
0.0987715	199.257
0.113344	200.495
0.127917	204.208
0.14249	205.446
0.155443	209.158
0.170016	211.634
0.184589	212.871
0.199162	214.109
0.215354	217.822
0.229927	219.059
0.239642	222.772
0.265548	225.248
0.286598	227.723
0.315744	233.911
0.335174	236.386
0.361082	238.861
0.386988	243.812
0.456614	256.188
0.482522	258.663
0.508428	259.901
0.531098	262.376
0.557004	264.851
0.581292	268.564
0.592627	268.564
0.603962	268.564
0.615296	267.327
0.625011	269.802
0.634726	269.802
0.644441	269.802
0.654156	269.802
0.663872	269.802
0.673587	272.277
0.686541	272.277
0.691399	273.515
0.699494	273.515
0.70921	273.515
0.720544	275.99
0.72864	275.99
0.739975	277.228
0.74969	277.228
0.761024	279.703
0.76912	280.941
0.777216	283.416
0.786931	283.416
0.796646	283.416
0.803124	284.653
0.816077	284.653
0.825792	287.129
0.835507	289.604
0.845222	293.317
0.858176	295.792
0.867891	299.505
0.874368	301.98
0.893798	305.693
0.918086	318.069
0.940755	336.634
0.947232	342.822
0.955328	358.911
0.960185	375
