Adsorption isotherm of Nitrogen on C800
DOI: 10.1039/C4ta02010c
Adsorbate Nitrogen: InChIKey IJGRMHOSHXDMSA-UHFFFAOYSA-N
Temperature: 77 K
Tabular data in the source: 0
pressure (bar)	uptake (cm3(STP)/g)
0.00558967	101.523
0.00719743	96.4467
0.0121832	105.964
0.0269737	109.137
0.0417559	111.041
0.0549013	113.579
0.0696834	115.482
0.0844615	116.751
0.0992437	118.655
0.114018	119.289
0.1288	121.193
0.143578	122.462
0.158356	123.731
0.17313	124.365
0.187912	126.269
0.204327	126.904
0.220755	129.442
0.245379	130.711
0.258512	131.345
0.271649	132.614
0.292996	134.518
0.317624	136.421
0.340612	138.325
0.363604	140.863
0.389869	142.132
0.412865	145.305
0.437503	148.477
0.462136	151.015
0.485123	152.919
0.508122	156.726
0.532755	159.264
0.559034	162.437
0.583663	164.34
0.5968	165.609
0.606646	165.609
0.616501	166.878
0.626348	166.878
0.636194	166.878
0.644395	166.244
0.655883	166.244
0.669016	166.878
0.677221	166.878
0.685422	166.244
0.695277	167.513
0.705123	167.513
0.71497	167.513
0.724816	167.513
0.734662	167.513
0.741227	167.513
0.752714	167.513
0.764202	167.513
0.772408	167.513
0.783899	168.147
0.792105	168.147
0.800315	168.782
0.813439	168.147
0.821645	168.147
0.828208	168.147
0.839696	168.147
0.849547	168.782
0.856107	168.147
0.872518	168.147
0.882365	168.147
0.903702	168.782
0.926686	170.051
0.951323	173.223
0.957904	175.761
0.967771	178.934
0.967796	182.741
