Adsorption isotherm of Nitrogen on C900
DOI: 10.1039/C4ta02010c
Adsorbate Nitrogen: InChIKey IJGRMHOSHXDMSA-UHFFFAOYSA-N
Temperature: 77 K
Tabular data in the source: 0
pressure (bar)	uptake (cm3(STP)/g)
0.0106628	124.365
0.0205385	128.807
0.0287564	130.711
0.0369701	131.98
0.0501155	134.518
0.0616155	136.421
0.0681756	135.787
0.0796757	137.69
0.0928127	138.959
0.105941	138.959
0.117437	140.228
0.128937	142.132
0.142074	143.401
0.153562	143.401
0.166699	144.67
0.178195	145.939
0.18969	147.208
0.199538	147.208
0.220884	149.112
0.245517	151.65
0.268504	153.553
0.291488	154.822
0.317762	157.36
0.342386	158.629
0.365378	161.168
0.390011	163.706
0.414635	164.975
0.43599	168.147
0.460623	170.685
0.486897	173.223
0.509885	175.127
0.534526	178.934
0.557517	181.472
0.583791	184.01
0.593646	185.279
0.606783	186.548
0.614989	186.548
0.626481	187.183
0.633045	187.183
0.646173	187.183
0.654383	187.817
0.665871	187.817
0.675717	187.817
0.683931	189.086
0.693786	190.355
0.701991	190.355
0.711838	190.355
0.718402	190.355
0.734817	190.99
0.743031	192.259
0.757805	192.893
0.770937	193.528
0.785711	194.162
0.802131	195.431
0.815268	196.701
0.826764	197.97
0.839888	197.335
0.848097	197.97
0.859593	199.239
0.872722	199.239
0.882576	200.508
0.900646	203.046
0.925274	204.949
0.949919	209.391
0.953219	211.929
0.963085	215.102
0.968029	218.274
