Adsorption isotherm of Nitrogen on C700
DOI: 10.1039/C4ta02010c
Adsorbate Nitrogen: InChIKey IJGRMHOSHXDMSA-UHFFFAOYSA-N
Temperature: 77 K
Tabular data in the source: 0
pressure (bar)	uptake (cm3(STP)/g)
0.00536892	67.8934
0.0119624	72.335
0.021838	76.7766
0.0333423	79.3147
0.0464876	81.8528
0.0596287	83.7563
0.0760479	85.0254
0.0908301	86.9289
0.105608	88.198
0.122028	89.467
0.136809	91.3706
0.151587	92.6396
0.168007	93.9086
0.182785	95.1777
0.199204	96.4467
0.220554	98.9848
0.243538	100.254
0.268167	102.157
0.2928	104.695
0.317429	106.599
0.340421	109.137
0.363404	110.406
0.389674	112.31
0.412661	114.213
0.438931	116.117
0.461919	118.02
0.488184	119.289
0.509535	121.827
0.534159	123.096
0.560425	124.365
0.58669	125.635
0.596538	125.635
0.611307	125.635
0.619521	126.904
0.629367	126.904
0.642495	126.904
0.655628	127.538
0.668757	127.538
0.681886	127.538
0.693378	128.173
0.704865	128.173
0.709789	128.173
0.717998	128.807
0.72949	129.442
0.744259	129.442
0.755751	130.076
0.767243	130.711
0.778735	131.345
0.788581	131.345
0.800069	131.345
0.811565	132.614
0.823056	133.249
0.832903	133.249
0.839471	133.883
0.849326	135.152
0.859176	135.787
0.872314	137.056
0.878883	137.69
0.900237	140.863
0.924878	144.67
0.9446	149.112
0.952835	153.553
0.962699	156.091
0.967638	158.629
