Adsorption isotherm of Nitrogen on Py-1P COF
DOI: 10.1021/jacs.6b09787
Article source: Figure 2D
Adsorbate Nitrogen: InChIKey IJGRMHOSHXDMSA-UHFFFAOYSA-N
Kind: experiment
Temperature: 77 K
Tabular data in the source: 0
pressure (bar)	uptake (cm3(STP)/g)
0.013298	247.797
0.0152	269.039
0.017018	284.972
0.025277	311.535
0.031857	331.015
0.038519	355.806
0.045155	378.826
0.051706	396.537
0.06016	435.49
0.07057	499.225
0.082189	539.953
0.088602	548.814
0.096528	554.137
0.102857	557.688
0.126524	566.579
0.14543	571.922
0.161227	579.029
0.181756	587.914
0.20534	591.495
0.227383	596.844
0.246261	600.416
0.269817	602.228
0.285558	605.795
0.30284	607.595
0.316984	609.39
0.340568	612.971
0.365748	618.324
0.393954	616.604
0.419078	618.417
0.442634	620.229
0.469383	625.585
0.494479	625.629
0.519576	625.673
0.54316	629.254
0.568284	631.067
0.59184	632.879
0.618505	632.925
0.640492	634.733
0.671919	638.328
0.693878	638.367
0.71903	641.95
0.745668	640.227
0.766087	642.032
0.79278	643.849
0.8195	647.435
0.844653	651.019
0.865099	654.595
0.893361	656.414
0.920054	658.231
0.945234	663.584
0.968901	672.475
0.994414	699.068
0.009074	257.416
0.017959	295.694
0.018156	318.66
0.021792	343.541
0.03234	376.077
0.039399	400.957
0.055311	460.287
0.067947	536.842
0.074973	557.895
0.087036	567.464
0.09222	573.206
0.107673	578.947
0.136819	584.689
0.16083	590.431
0.183163	600
0.20882	598.086
0.229457	609.569
0.249996	609.569
0.285988	615.311
0.306527	615.311
0.297985	617.225
0.335624	615.311
0.366514	624.88
0.41447	628.708
0.438416	626.794
0.465818	628.708
0.491507	630.622
0.512079	634.45
0.536057	636.364
0.558341	640.191
0.580624	644.019
0.609753	647.847
0.638834	645.933
0.6611	647.847
0.685128	655.502
0.710752	649.761
0.745	651.675
0.768979	653.589
0.79299	659.33
0.815273	663.158
0.835812	663.158
0.866604	661.244
0.89914	663.158
0.916288	666.986
0.931725	670.813
0.972868	678.469
0.993571	697.608
