Adsorption isotherm of Nitrogen on Al-PMOF
DOI: 10.1039/c5cc06209h
Article source: Figure 3a- third cycle of HCl
Adsorbate Nitrogen: InChIKey IJGRMHOSHXDMSA-UHFFFAOYSA-N
Kind: experiment
Temperature: 77 K
Tabular data in the source: 0
pressure (bar)	uptake (cm3(STP)/g)
0.00156	8.856
0.001726	3.748
0.001748	80.911
0.0018	67.761
0.001806	69.043
0.001809	100.745
0.001812	110.201
0.001814	119.439
0.001826	161.933
0.001842	22.278
0.001879	153.184
0.001908	58.523
0.001952	13.42
0.001962	49.991
0.001984	130.633
0.001997	177.365
0.002015	43.959
0.002067	29.831
0.002069	29.657
0.002097	178.931
0.002099	179.753
0.00211	183.18
0.002278	188.124
0.002284	188.992
0.002338	201.166
0.002339	201.215
0.002384	170.572
0.002508	214.479
0.002558	197.362
0.00262	218.718
0.002733	222.358
0.002845	227.792
0.002936	250.813
0.003127	238.823
0.003292	233.661
0.003569	255.605
0.00364	259.712
0.003851	263.204
0.004133	267.996
0.005477	285.173
0.00587	296.584
0.00999	302.938
0.015444	306.683
0.019673	309.885
0.026463	311.834
0.031583	313.46
0.038539	315.626
0.053453	320.014
0.055791	319.848
0.079329	323.249
0.105595	325.723
0.111772	325.989
0.132026	327.437
0.157401	329.64
0.16063	329.257
0.183555	329.452
0.207984	330.352
0.21327	330.945
0.235139	331.087
0.260346	332.367
0.266078	332.198
0.28728	332.449
0.312209	333.403
0.319442	333.885
0.338863	333.704
0.364015	334.603
0.372139	334.65
0.389612	334.307
0.416378	335.15
0.425003	335.088
0.441919	335.886
0.468073	335.861
0.478757	336.123
0.494672	335.998
0.520157	336.626
0.532121	336.94
0.54631	336.383
0.572185	336.847
0.585262	337.27
0.598116	337.475
0.624103	337.178
0.63846	337.979
0.650591	338.293
0.675854	337.997
0.691379	338.526
0.702174	338.244
0.727771	339.034
0.744743	339.126
0.753925	339.335
0.779633	339.147
0.798331	341.139
0.806288	340.969
0.831495	341.596
0.85125	342.447
0.858261	342.114
0.88358	343.557
0.913462	346.191
0.932049	349.216
0.945738	349.257
0.958204	353.864
0.997552	378.496
1.00613	396.331
