Adsorption isotherm of Nitrogen on Al-PMOF
DOI: 10.1039/c5cc06209h
Article source: Figure 3b- first cycle of CHOOH
Adsorbate Nitrogen: InChIKey IJGRMHOSHXDMSA-UHFFFAOYSA-N
Kind: experiment
Temperature: 77 K
Tabular data in the source: 0
pressure (bar)	uptake (cm3(STP)/g)
0.002579	90.838
0.002668	124.651
0.002923	177.766
0.003379	229.734
0.010508	244.297
0.027707	252.709
0.061767	259.151
0.076959	260.661
0.09154	261.628
0.101334	262.707
0.112687	263.079
0.137396	264.309
0.151308	264.678
0.155983	264.783
0.177464	266.071
0.203229	266.376
0.228549	267.008
0.254259	266.77
0.278633	267.566
0.304454	267.545
0.345245	267.675
0.366113	268.094
0.383698	268.134
0.424266	268.699
0.426714	268.262
0.463999	268.613
0.466948	268.556
0.504456	268.961
0.507795	269.828
0.544411	268.874
0.548251	269.85
0.585313	269.167
0.587985	270.035
0.625992	269.407
0.628831	270.655
0.666782	269.265
0.670512	270.947
0.705681	268.799
0.7103	270.861
0.747585	270.45
0.751481	272.024
0.787596	270.799
0.792049	272.861
0.827164	272.126
0.832897	275.111
0.868734	274.321
0.872408	274.691
0.885096	279.092
0.906467	281.847
0.908858	277.714
0.930008	282.004
0.930284	281.828
0.950097	286.107
0.956723	296.05
0.969466	295.061
0.9845	315.87
0.989117	310.919
0.99942	330.916
