Adsorption isotherm of Nitrogen on Al-PMOF
DOI: 10.1039/c5cc06209h
Article source: Figure 3b- third cycle of CHOOH
Adsorbate Nitrogen: InChIKey IJGRMHOSHXDMSA-UHFFFAOYSA-N
Kind: experiment
Temperature: 77 K
Tabular data in the source: 0
pressure (bar)	uptake (cm3(STP)/g)
0.001194	144.943
0.001938	155.162
0.013216	200.968
0.030575	206.336
0.064015	211.691
0.076034	212.715
0.091058	214.279
0.100963	214.055
0.111257	214.753
0.136519	216.365
0.155049	217.764
0.177252	217.965
0.202903	218.489
0.226887	219.395
0.233453	218.846
0.252539	219.158
0.277636	219.357
0.284869	219.297
0.303065	219.99
0.324711	219.702
0.343186	220.286
0.36511	219.617
0.38364	219.603
0.406567	219.695
0.443792	220.265
0.46722	219.486
0.484359	219.854
0.506895	220.272
0.525146	221.187
0.527538	221.126
0.564933	219.304
0.569273	219.498
0.586357	219.451
0.625643	218.769
0.628814	220.506
0.66593	219.5
0.669546	220.421
0.707163	219.741
0.710502	220.825
0.747673	219.928
0.750845	221.773
0.787571	220.876
0.791688	223.971
0.827913	220.954
0.831751	226.875
0.868756	223.043
0.871758	223.666
0.883498	233.956
0.904642	238.234
0.907874	227.525
0.926286	243.326
0.929741	231.639
0.94977	239.124
0.95021	252.384
0.969686	250.739
0.980641	269.318
0.989488	268.768
1.00072	288.705
