Adsorption isotherm of Nitrogen on Al-PMOF
DOI: 10.1039/c5cc06209h
Article source: Figure 3b- second cycle of CHOOH
Adsorbate Nitrogen: InChIKey IJGRMHOSHXDMSA-UHFFFAOYSA-N
Kind: experiment
Temperature: 77 K
Tabular data in the source: 0
pressure (bar)	uptake (cm3(STP)/g)
0.002003	147.398
0.002838	153.941
0.018253	196.619
0.030496	199.712
0.063328	204.969
0.076349	205.234
0.091097	205.334
0.101837	206.634
0.112744	207.117
0.137007	208.627
0.15487	209.107
0.177797	210.236
0.202784	210.114
0.227992	210.481
0.253757	211.066
0.278244	211.052
0.304231	211.147
0.34452	210.908
0.366168	210.788
0.383698	211.376
0.425545	211.463
0.466058	212.637
0.487927	212.462
0.504899	212.345
0.528662	211.788
0.564277	211.932
0.588874	211.865
0.605568	212.236
0.628773	211.571
0.670454	212.473
0.68637	212.41
0.710188	212.452
0.747639	212.649
0.751646	212.973
0.788374	213.28
0.792993	213.658
0.827995	213.966
0.832893	215.322
0.867673	214.597
0.872347	215.258
0.883979	219.265
0.905347	221.102
0.909243	217.62
0.928442	225.113
0.930834	220.599
0.947974	226.191
0.95621	234.451
0.969733	235.314
0.984257	255.1
0.988653	250.639
0.999059	273.091
