Adsorption isotherm of Nitrogen on Al-PMOF
DOI: 10.1039/c5cc06209h
Article source: Figure 3b- fresh
Adsorbate Nitrogen: InChIKey IJGRMHOSHXDMSA-UHFFFAOYSA-N
Kind: experiment
Temperature: 77 K
Tabular data in the source: 0
pressure (bar)	uptake (cm3(STP)/g)
0.001475	76.72
0.002258	222.503
0.00269	244.024
0.006442	313.7
0.010227	318.863
0.026309	329.023
0.04584	334.614
0.090577	340.843
0.101762	341.598
0.113448	342.571
0.138041	344.026
0.15262	344.236
0.157015	344.723
0.177993	345.418
0.203255	346.275
0.228239	346.968
0.253889	347.172
0.278651	348.029
0.30458	348.232
0.344531	348.483
0.366176	348.743
0.383927	349.495
0.422653	349.202
0.426382	349.472
0.463774	349.126
0.467557	349.396
0.504448	349.811
0.507676	351.005
0.544233	350.061
0.548128	351.473
0.585074	350.474
0.588691	351.941
0.62536	350.562
0.629087	352.137
0.665311	351.465
0.669929	351.952
0.706541	351.388
0.710549	352.637
0.745436	351.258
0.751501	353.539
0.786946	352.052
0.79162	353.844
0.827063	352.9
0.832461	354.964
0.867461	354.564
0.87219	355.071
0.883542	357.111
0.905075	358.731
0.909749	357.532
0.928279	361.111
0.931395	359.642
0.9492	362.242
0.955878	366.208
0.969454	367.18
0.985259	379.895
0.98882	376.848
0.998447	391.525
