Adsorption isotherm of Nitrogen on Al-PMOF
DOI: 10.1039/c5cc06209h
Article source: Figure 3a- first cycle of HCl
Adsorbate Nitrogen: InChIKey IJGRMHOSHXDMSA-UHFFFAOYSA-N
Kind: experiment
Temperature: 77 K
Tabular data in the source: 0
pressure (bar)	uptake (cm3(STP)/g)
0.005502	291.867
0.006229	295.28
0.011129	299.568
0.018143	304.398
0.023375	307.055
0.029331	308.734
0.03868	311.279
0.050146	315.452
0.056044	316.588
0.079417	319.391
0.105238	322.029
0.113141	322.619
0.131504	323.579
0.15827	324.857
0.159495	325.031
0.183533	325.865
0.208519	326.222
0.214918	326.705
0.23484	327.772
0.260381	327.53
0.267783	329.099
0.286479	328.592
0.312912	329.49
0.320145	329.429
0.338453	330.063
0.362993	330.311
0.374067	331.224
0.389258	330.721
0.415189	331.185
0.426652	332.423
0.442066	331.43
0.468832	331.405
0.479517	332.916
0.494151	332.032
0.51958	331.627
0.532436	334.332
0.546457	332.036
0.569718	334.241
0.585466	334.661
0.638611	340.913
0.641113	340.815
0.654413	338.181
0.672164	337.675
0.690638	337.385
0.698038	336.943
0.72614	336.971
0.744614	336.681
0.751736	336.674
0.777556	337.682
0.803098	338.744
0.828584	339.86
0.855573	340.378
0.880948	340.951
0.910998	342.987
0.930253	346.283
0.942494	344.315
0.956686	350.116
0.996316	367.684
