Adsorption isotherm of Nitrogen on Al-PMOF
DOI: 10.1039/c5cc06209h
Article source: Figure 3a- fresh
Adsorbate Nitrogen: InChIKey IJGRMHOSHXDMSA-UHFFFAOYSA-N
Kind: experiment
Temperature: 77 K
Tabular data in the source: 0
pressure (bar)	uptake (cm3(STP)/g)
0.004718	307.051
0.006322	243.705
0.011173	312.756
0.011863	265.891
0.016406	318.678
0.018576	319.819
0.020468	321.014
0.023361	322.752
0.032545	325.521
0.038499	329.813
0.050575	333.396
0.05447	333.394
0.079291	338.875
0.104778	342.181
0.111122	342.124
0.131824	344.834
0.157255	346.238
0.159704	345.911
0.183466	348.239
0.208286	349.1
0.213628	349.152
0.234997	351.318
0.260039	352.07
0.266995	352.013
0.286194	353.528
0.312405	354.387
0.320308	354.493
0.338672	355.519
0.36349	356.488
0.373174	356.484
0.389701	357.565
0.415745	358.208
0.425762	358.041
0.442011	359.176
0.467833	360.145
0.479074	360.358
0.494433	360.733
0.51992	361.376
0.532608	361.969
0.546131	362.181
0.572118	363.313
0.585753	363.851
0.598218	364.173
0.624206	364.652
0.63912	365.408
0.650361	365.512
0.676071	366.426
0.691819	367.018
0.702392	367.286
0.728325	368.255
0.745576	369.39
0.754034	369.441
0.779966	370.355
0.800947	371.761
0.806456	371.378
0.832388	372.836
0.853201	374.187
0.857375	373.696
0.884086	376.404
0.908628	377.428
0.912634	378.839
0.935895	381.005
0.961272	385.519
0.961661	385.833
0.98448	403.544
0.986593	397.184
1.00313	427.616
