Adsorption isotherm of Nitrogen on 3D porous carbon (based on MOF-5)
DOI: 10.1039/C4ra10575c
Adsorbate Nitrogen: InChIKey IJGRMHOSHXDMSA-UHFFFAOYSA-N
Temperature: 77 K
Tabular data in the source: 0
pressure (bar)	uptake (cm3(STP)/g)
0.00182274	147.747
0.00364548	263.832
0.00546822	205.775
0.0145819	374.591
0.0309865	390.333
0.0437457	411.372
0.0601504	432.391
0.0729096	453.43
0.0820233	474.489
0.107541	511.289
0.131237	537.546
0.162223	558.486
0.184096	584.752
0.21326	610.979
0.236956	637.235
0.297106	673.848
0.337207	700.015
0.402825	741.875
0.453862	767.983
0.501253	799.388
0.544999	820.259
0.597859	841.08
0.643427	867.217
0.698109	898.583
0.738209	924.75
0.77831	945.64
0.820233	987.629
0.882206	1055.89
0.904079	1097.99
0.920483	1166.5
0.940533	1256.1
0.956938	1335.17
0.962406	1430.13
