Adsorption isotherm of Nitrogen on 3D porous carbon (based on MOF-5)
DOI: 10.1039/C4ra10575c
Adsorbate Nitrogen: InChIKey IJGRMHOSHXDMSA-UHFFFAOYSA-N
Temperature: 77 K
Tabular data in the source: 0
pressure (bar)	uptake (cm3(STP)/g)
0.0291639	395.62
0.10025	495.498
0.123947	521.754
0.145819	548.021
0.171337	563.713
0.195033	595.247
0.218729	621.503
0.244247	642.473
0.264297	658.195
0.293461	663.314
0.337207	705.292
0.362725	715.708
0.421053	752.33
0.47209	815.378
0.534063	857.257
0.554112	872.98
0.61244	904.325
0.6653	935.7
0.730918	993.391
0.80565	1061.59
0.842106	1103.61
0.89861	1198.29
0.905902	1229.91
0.929597	1298.38
0.95147	1387.97
