Adsorption isotherm of N-propane, Carbon Dioxide on Vycor Glass
DOI: 10.1016/j.ces.2007.11.021
Article source: Figure 3
Adsorbate N-propane: InChIKey ATUOYWHBWRKTHZ-UHFFFAOYSA-N
Adsorbate Carbon Dioxide: InChIKey CURLTUGMZLYLDI-UHFFFAOYSA-N
Kind: experiment
Temperature: 298 K
Tabular data in the source: 0
pressure (bar)	N-propane fraction	N-propane uptake (mol/cm3)	Carbon Dioxide fraction	Carbon Dioxide uptake (mol/cm3)	total uptake (mol/cm3)
0.20185	0.070597	4e-05	0.929403	0.000185	
0.45391	0.114142	3.2e-05	0.885858	0.000381	
0.67526	0.140035	8e-06	0.859965	0.000498	
0.78226	0.119219	3.6e-05	0.880781	0.000537	
1.0556	0.117848	0.000122	0.882152	0.000562	
1.1097	0.144724	0.0001	0.855276	0.000552	
1.4905	0.148608	0.000172	0.851392	0.000651	
