Adsorption isotherm of N-propane, N-Butane on Vycor Glass
DOI: 10.1016/j.ces.2007.11.021
Article source: Figure 4
Adsorbate N-propane: InChIKey ATUOYWHBWRKTHZ-UHFFFAOYSA-N
Adsorbate N-Butane: InChIKey IJDNQMDRQITEOD-UHFFFAOYSA-N
Kind: experiment
Temperature: 298 K
Tabular data in the source: 0
pressure (bar)	N-propane fraction	N-propane uptake (mol/cm3)	N-Butane fraction	N-Butane uptake (mol/cm3)	total uptake (mol/cm3)
0.22592	0.904745	0.000117	0.095255	2.6e-05	
0.43018	0.85871	0.000198	0.14129	3.7e-05	
0.62601	0.868516	0.000277	0.131484	5e-05	
0.8725	0.872321	0.000332	0.127679	6e-05	
0.8966	0.850323	0.000355	0.149677	6.1e-05	
1.1702	0.857118	0.000408	0.142882	6.9e-05	
1.3122	0.843621	0.000443	0.156379	7.8e-05	
1.5348	0.845713	0.000591	0.154287	0.000111	
