Adsorption isotherm of N-propane, Carbon Dioxide on Vycor Glass
DOI: 10.1016/j.ces.2007.11.021
Article source: Figure 3
Adsorbate N-propane: InChIKey ATUOYWHBWRKTHZ-UHFFFAOYSA-N
Adsorbate Carbon Dioxide: InChIKey CURLTUGMZLYLDI-UHFFFAOYSA-N
Kind: experiment
Temperature: 298 K
Tabular data in the source: 0
pressure (bar)	N-propane fraction	N-propane uptake (mol/cm3)	Carbon Dioxide fraction	Carbon Dioxide uptake (mol/cm3)	total uptake (mol/cm3)
0.29239	0.925818	0.00016	0.074182	1.5e-05	
0.43074	0.908204	0.000208	0.091796	2.3e-05	
0.62094	0.905401	0.000279	0.094599	7.2e-05	
0.82019	0.916007	0.000343	0.083993	4.2e-05	
0.91053	0.906176	0.00034	0.093824	2.4e-05	
0.9932	0.898611	0.000437	0.101389	4.4e-05	
1.2066	0.894248	0.000374	0.105752	0.000125	
1.2835	0.871835	0.000496	0.128165	9.3e-05	
1.4969	0.876478	0.00052	0.123522	7.6e-05	
1.756	0.852506	0.000491	0.147494	0.000181	
