Adsorption isotherm of Carbon Dioxide, N-Butane on Vycor Glass
DOI: 10.1016/j.ces.2007.11.021
Article source: Figure 5
Adsorbate Carbon Dioxide: InChIKey CURLTUGMZLYLDI-UHFFFAOYSA-N
Adsorbate N-Butane: InChIKey IJDNQMDRQITEOD-UHFFFAOYSA-N
Kind: experiment
Temperature: 298 K
Tabular data in the source: 0
pressure (bar)	Carbon Dioxide fraction	Carbon Dioxide uptake (mol/cm3)	N-Butane fraction	N-Butane uptake (mol/cm3)	total uptake (mol/cm3)
0.2588	0.46677	0.0001	0.53323	0.000125	
0.3748	0.487193	0.000162	0.512807	0.000194	
0.5837	0.480726	0.000246	0.519274	0.000277	
0.9507	0.485853	0.000328	0.514147	0.000417	
1.042	0.466507	0.000309	0.533493	0.000496	
1.2335	0.484475	0.000401	0.515525	0.000488	
1.4499	0.476929	0.000493	0.523071	0.000507	
1.5574	0.493194	0.000512	0.506806	0.000501	
1.8053	0.481305	0.000514	0.518695	0.000636	
2.213	0.487573	0.000579	0.512427	0.000768	
