Adsorption isotherm of Carbon Dioxide on Vycor Glass
DOI: 10.1016/j.ces.2007.11.021
Article source: Figure 2b
Adsorbate Carbon Dioxide: InChIKey CURLTUGMZLYLDI-UHFFFAOYSA-N
Kind: experiment
Temperature: 298 K
Tabular data in the source: 0
pressure (bar)	uptake (mol/cm3)
0.0302	5.5e-05
0.04314	7.2e-05
0.1381	0.000152
0.2437	0.000261
0.3559	0.000374
0.5371	0.000476
0.8412	0.000605
1.156	0.000713
1.531	0.000816
1.542	0.000837
1.626	0.00086
2.006	0.000957
