Adsorption isotherm of N-propane, Carbon Dioxide on Vycor Glass
DOI: 10.1016/j.ces.2007.11.021
Article source: Figure 3
Adsorbate N-propane: InChIKey ATUOYWHBWRKTHZ-UHFFFAOYSA-N
Adsorbate Carbon Dioxide: InChIKey CURLTUGMZLYLDI-UHFFFAOYSA-N
Kind: experiment
Temperature: 298 K
Tabular data in the source: 0
pressure (bar)	N-propane fraction	N-propane uptake (mol/cm3)	Carbon Dioxide fraction	Carbon Dioxide uptake (mol/cm3)	total uptake (mol/cm3)
0.19875	0.345409	4.2e-05	0.654591	8.7e-05	
0.3475	0.331799	8.2e-05	0.668201	0.000169	
0.5092	0.34348	0.000109	0.65652	0.000225	
0.7117	0.343965	0.000143	0.656035	0.000292	
0.8553	0.337776	0.000163	0.662224	0.000337	
1.0347	0.337972	0.000173	0.662028	0.000414	
1.0745	0.337552	0.000194	0.662448	0.000398	
1.441	0.331714	0.000237	0.668286	0.000483	
1.9641	0.333028	0.000295	0.666972	0.000607	
