Adsorption isotherm of Carbon Dioxide, N-Butane on Vycor Glass
DOI: 10.1016/j.ces.2007.11.021
Article source: Figure 5
Adsorbate Carbon Dioxide: InChIKey CURLTUGMZLYLDI-UHFFFAOYSA-N
Adsorbate N-Butane: InChIKey IJDNQMDRQITEOD-UHFFFAOYSA-N
Kind: experiment
Temperature: 298 K
Tabular data in the source: 0
pressure (bar)	Carbon Dioxide fraction	Carbon Dioxide uptake (mol/cm3)	N-Butane fraction	N-Butane uptake (mol/cm3)	total uptake (mol/cm3)
0.18998	0.918518	0.0002	0.081482	2.1e-05	
0.31212	0.84711	0.000258	0.15289	3.6e-05	
0.44592	0.864056	0.00034	0.135944	7.9e-05	
0.65375	0.893461	0.00045	0.106539	3.8e-05	
0.86906	0.893149	0.000497	0.106851	5.4e-05	
0.9352	0.873075	0.000542	0.126925	6e-05	
1.3842	0.896547	0.000661	0.103453	0.000136	
