Adsorption isotherm of N-propane on Vycor Glass
DOI: 10.1016/j.ces.2007.11.021
Article source: Figure 2a
Adsorbate N-propane: InChIKey ATUOYWHBWRKTHZ-UHFFFAOYSA-N
Kind: experiment
Temperature: 298 K
Tabular data in the source: 0
pressure (bar)	uptake (mol/cm3)
0.07677	5.2e-05
0.1162	8.2e-05
0.1701	0.000113
0.222	0.00013
0.2966	0.000172
0.3899	0.000199
0.506	0.000251
0.6636	0.000296
0.8335	0.000349
0.9828	0.000414
1.07	0.000422
1.246	0.000475
1.553	0.000565
1.922	0.000655
2.112	0.000716
