Adsorption isotherm of Carbon Dioxide, N-Butane on Vycor Glass
DOI: 10.1016/j.ces.2007.11.021
Article source: Figure 5
Adsorbate Carbon Dioxide: InChIKey CURLTUGMZLYLDI-UHFFFAOYSA-N
Adsorbate N-Butane: InChIKey IJDNQMDRQITEOD-UHFFFAOYSA-N
Kind: experiment
Temperature: 298 K
Tabular data in the source: 0
pressure (bar)	Carbon Dioxide fraction	Carbon Dioxide uptake (mol/cm3)	N-Butane fraction	N-Butane uptake (mol/cm3)	total uptake (mol/cm3)
0.12467	0.172215	2.7e-05	0.827785	0.000161	
0.14823	0.207988	6.1e-05	0.792012	0.000233	
0.26371	0.183194	5.7e-05	0.816806	0.000246	
0.29811	0.229814	2.7e-05	0.770186	0.000332	
0.47122	0.162387	7.2e-05	0.837613	0.000525	
0.9494	0.106067	0.000103	0.893933	0.000951	
1.2201	0.12876	0.000152	0.87124	0.001191	
