Adsorption isotherm of N-propane, N-Butane on Vycor Glass
DOI: 10.1016/j.ces.2007.11.021
Article source: Figure 4
Adsorbate N-propane: InChIKey ATUOYWHBWRKTHZ-UHFFFAOYSA-N
Adsorbate N-Butane: InChIKey IJDNQMDRQITEOD-UHFFFAOYSA-N
Kind: experiment
Temperature: 298 K
Tabular data in the source: 0
pressure (bar)	N-propane fraction	N-propane uptake (mol/cm3)	N-Butane fraction	N-Butane uptake (mol/cm3)	total uptake (mol/cm3)
0.20642	0.012693	5.1e-05	0.987307	0.000196	
0.29801	0.048354	4.3e-05	0.951646	0.000295	
0.44022	0.065467	5.6e-05	0.934533	0.000407	
0.63468	0.078433	8.9e-05	0.921567	0.000529	
0.84317	0.088559	0.000116	0.911441	0.000674	
1.076	0.101022	0.000134	0.898978	0.000791	
1.2794	0.126935	0.000232	0.873065	0.000885	
