Adsorption isotherm of N-propane, N-Butane on Vycor Glass
DOI: 10.1016/j.ces.2007.11.021
Article source: Figure 4
Adsorbate N-propane: InChIKey ATUOYWHBWRKTHZ-UHFFFAOYSA-N
Adsorbate N-Butane: InChIKey IJDNQMDRQITEOD-UHFFFAOYSA-N
Kind: experiment
Temperature: 298 K
Tabular data in the source: 0
pressure (bar)	N-propane fraction	N-propane uptake (mol/cm3)	N-Butane fraction	N-Butane uptake (mol/cm3)	total uptake (mol/cm3)
0.1578	0.398479	4.2e-05	0.601521	0.000116	
0.26666	0.373359	6.9e-05	0.626641	0.000165	
0.3766	0.448752	9.3e-05	0.551248	0.000164	
0.5189	0.348429	0.000122	0.651571	0.000252	
0.5723	0.398218	0.000149	0.601782	0.000291	
0.8492	0.433467	0.000249	0.566533	0.000398	
1.3922	0.423431	0.000332	0.576569	0.000583	
