Adsorption isotherm of N-propane, Carbon Dioxide on Vycor Glass
DOI: 10.1016/j.ces.2007.11.021
Article source: Figure 3
Adsorbate N-propane: InChIKey ATUOYWHBWRKTHZ-UHFFFAOYSA-N
Adsorbate Carbon Dioxide: InChIKey CURLTUGMZLYLDI-UHFFFAOYSA-N
Kind: experiment
Temperature: 298 K
Tabular data in the source: 0
pressure (bar)	N-propane fraction	N-propane uptake (mol/cm3)	Carbon Dioxide fraction	Carbon Dioxide uptake (mol/cm3)	total uptake (mol/cm3)
0.21836	0.433046	9.2e-05	0.566954	8.9e-05	
0.3327	0.443943	0.000109	0.556057	0.000139	
0.4975	0.502513	0.000186	0.497487	0.000155	
0.7415	0.476871	0.000162	0.523129	0.000293	
0.8578	0.527046	0.000264	0.472954	0.000271	
0.9232	0.519172	0.000231	0.480828	0.000253	
0.9835	0.50971	0.000303	0.49029	0.000289	
1.1548	0.528317	0.000351	0.471683	0.000297	
1.2162	0.518665	0.000337	0.481335	0.000293	
1.3788	0.539237	0.000344	0.460763	0.000371	
1.7644	0.53667	0.000442	0.46333	0.000356	
2.0369	0.5366	0.000409	0.4634	0.000492	
