Adsorption isotherm of Carbon Dioxide, N-Butane on Vycor Glass
DOI: 10.1016/j.ces.2007.11.021
Article source: Figure 5
Adsorbate Carbon Dioxide: InChIKey CURLTUGMZLYLDI-UHFFFAOYSA-N
Adsorbate N-Butane: InChIKey IJDNQMDRQITEOD-UHFFFAOYSA-N
Kind: experiment
Temperature: 298 K
Tabular data in the source: 0
pressure (bar)	Carbon Dioxide fraction	Carbon Dioxide uptake (mol/cm3)	N-Butane fraction	N-Butane uptake (mol/cm3)	total uptake (mol/cm3)
0.10986	0.354269	4.1e-05	0.645731	0.000102	
0.21275	0.309048	8.3e-05	0.690952	0.000179	
0.3803	0.331843	0.000131	0.668157	0.000288	
0.5703	0.298965	0.000163	0.701035	0.000432	
1.1492	0.314306	0.000284	0.685694	0.000797	
2.041	0.312592	0.000328	0.687408	0.001045	
