Adsorption isotherm of N-Butane on Vycor Glass
DOI: 10.1016/j.ces.2007.11.021
Article source: Figure 2c
Adsorbate N-Butane: InChIKey IJDNQMDRQITEOD-UHFFFAOYSA-N
Kind: experiment
Temperature: 298 K
Tabular data in the source: 0
pressure (bar)	uptake (mol/cm3)
0.1614	0.00025
0.2431	0.00031
0.2598	0.000341
0.3772	0.000477
0.4212	0.000515
0.5889	0.000685
0.6685	0.000745
0.8466	0.000893
1.008	0.00108
1.01	0.0011
1.192	0.00128
1.394	0.00158
1.542	0.00181
1.519	0.00194
1.697	0.0027
1.723	0.00269
1.723	0.00308
1.903	0.00312
2.186	0.00303
2.353	0.00308
