Adsorption isotherm of N-propane, N-Butane on Vycor Glass
DOI: 10.1016/j.ces.2007.11.021
Article source: Figure 4
Adsorbate N-propane: InChIKey ATUOYWHBWRKTHZ-UHFFFAOYSA-N
Adsorbate N-Butane: InChIKey IJDNQMDRQITEOD-UHFFFAOYSA-N
Kind: experiment
Temperature: 298 K
Tabular data in the source: 0
pressure (bar)	N-propane fraction	N-propane uptake (mol/cm3)	N-Butane fraction	N-Butane uptake (mol/cm3)	total uptake (mol/cm3)
0.20657	0.577044	7.3e-05	0.422956	6.3e-05	
0.3294	0.584699	0.000107	0.415301	9.3e-05	
0.5061	0.579727	0.000158	0.420273	0.000134	
0.6997	0.569244	0.000226	0.430756	0.000194	
1.1835	0.563414	0.000318	0.436586	0.000303	
1.7611	0.553461	0.000468	0.446539	0.000397	
2.581	0.552886	0.000631	0.447114	0.000605	
