Adsorption isotherm of Nitrogen on TP-DMPTU-COF
DOI: 10.1039/d1ce01113h
Article source: Figure 2a
Adsorbate Nitrogen: InChIKey IJGRMHOSHXDMSA-UHFFFAOYSA-N
Kind: experiment
Temperature: 77 K
Tabular data in the source: 0
pressure (bar)	uptake (cm3(STP)/g)
0.113268	301.581
0.148596	313.085
0.183923	319.29
0.219251	324.114
0.254578	327.786
0.289906	331.458
0.325233	334.439
0.360561	336.729
0.395888	339.25
0.431216	342
0.466544	344.981
0.497	345.573
0.532327	348.094
0.567655	350.614
0.602982	352.904
0.63831	355.194
0.669984	357.485
0.705311	361.042
0.740639	364.138
0.775966	366.572
0.836869	376.285
0.872196	381.57
0.907524	390.617
0.99898	495.875
0.941397	408.191
0.974888	437.361
0.807434	369.332
0.082814	285.952
0.046278	247.056
0.037144	233.441
0.031055	219.824
0.017242	198.429
0.011152	173.14
0.010543	162.245
0.010543	152.517
0.004454	142.792
0.004454	131.119
0.004454	119.446
0.004454	107.772
0.00141	96.1005
0.004454	86.3717
0.004454	74.6985
0.004454	63.0254
0.004454	57.1888
0.004454	47.4612
0.004454	35.788
0.004454	26.0604
0.00141	10.4973
0.11326	309.287
0.146751	319.002
0.177197	322.881
0.207643	328.706
0.247223	332.582
0.283759	336.459
0.31725	336.446
0.35074	340.324
0.387276	344.201
0.423811	346.133
0.454258	350.012
0.487748	349.999
0.527328	353.875
0.55473	353.865
0.59431	359.686
0.630846	363.563
0.664336	363.55
0.700872	365.482
0.734363	369.36
0.767854	373.238
0.804389	377.115
0.834835	382.94
0.871371	390.708
0.901817	400.424
0.938352	415.974
0.968799	458.764
