Adsorption isotherm of Nitrogen on Ti-COF-1
DOI: 10.1002/anie.202102665
Article source: Figure 2
Adsorbate Nitrogen: InChIKey IJGRMHOSHXDMSA-UHFFFAOYSA-N
Kind: experiment
Temperature: 77 K
Tabular data in the source: 0
pressure (bar)	uptake (cm3(STP)/g)
0.005925	135.417
0.011851	189.583
0.02222	215.312
0.029627	236.979
0.039997	266.771
0.056292	287.083
0.084437	299.271
0.124434	308.75
0.16295	316.875
0.197021	320.938
0.229611	323.646
0.263682	327.708
0.300716	331.771
0.334787	334.479
0.37034	338.542
0.404411	339.896
0.439964	342.604
0.475516	345.312
0.511069	349.375
0.546622	352.083
0.580693	354.792
0.616246	357.5
0.65328	361.562
0.687351	364.271
0.722904	368.333
0.758456	371.042
0.794009	376.458
0.82808	381.875
0.865114	388.646
0.897704	400.833
0.931775	418.438
0.967328	464.479
0.996955	631.042
0.995474	620.208
0.976216	551.146
0.955477	480.729
0.919924	423.854
0.894741	406.25
0.865114	392.708
0.836968	384.583
0.810304	379.167
0.799934	375.104
0.774751	371.042
0.749568	368.333
0.724385	364.271
0.699202	362.917
0.674019	360.208
0.648836	357.5
0.622171	356.146
0.598469	353.438
0.573286	352.083
0.548103	350.729
0.521439	348.021
0.496255	345.312
0.472554	343.958
0.444408	342.604
0.420706	339.896
0.395523	337.188
0.37034	334.479
0.343675	334.479
0.318492	331.771
0.294791	330.417
0.268126	326.354
0.242943	325
0.21776	322.292
0.192577	319.583
0.167394	315.521
0.142211	311.458
0.118509	307.396
0.091844	301.979
0.068143	293.854
0.053329	285.729
