Adsorption isotherm of Nitrogen on CuBTC
DOI: 10.1021/Jz101665x
Adsorbate Nitrogen: InChIKey IJGRMHOSHXDMSA-UHFFFAOYSA-N
Temperature: 77 K
Tabular data in the source: 0
pressure (bar)	uptake (cm3(STP)/g)
0.00229475	16.8944
0.00229475	71.2399
0.00372489	120.58
0.00372489	418.765
0.00515504	172.065
0.00515504	244.287
0.00515504	331.526
0.00515504	400.888
0.0123058	430.206
0.0738019	453.088
0.131008	463.099
0.206805	468.82
0.304055	473.825
0.401305	478.116
0.601525	481.691
0.700205	483.121
0.800315	485.266
0.898994	485.981
0.95191	486.696
