Adsorption isotherm of Nitrogen on H-ZSM-5-30
DOI: 10.1081/ss-120000320
Article source: Table 6
Adsorbate Nitrogen: InChIKey IJGRMHOSHXDMSA-UHFFFAOYSA-N
Kind: experiment
Temperature: 313 K
Tabular data in the source: 0
pressure (bar)	uptake (mmol/g)
0.020265	0.007
0.052689	0.018
0.150974	0.046
0.302962	0.083
0.507638	0.133
0.711301	0.179
0.863289	0.211
0.961574	0.233
0.991972	0.241
1.01325	0.246
