Adsorption isotherm of Carbon Dioxide, Methane on H-ZSM-5-30
DOI: 10.1081/ss-120000320
Article source: Figure 8
Adsorbate Carbon Dioxide: InChIKey CURLTUGMZLYLDI-UHFFFAOYSA-N
Adsorbate Methane: InChIKey VNWKTOKETHGBQD-UHFFFAOYSA-N
Kind: experiment
Temperature: 313 K
Tabular data in the source: 0
pressure (bar)	Carbon Dioxide fraction	Carbon Dioxide uptake (mmol/g)	Methane fraction	Methane uptake (mmol/g)	total uptake (mmol/g)
1.01325	0.020014	0.231338	0.979986	0.617788	
1.01325	0.050736	0.43324	0.949264	0.54498	
1.01325	0.08052	0.577713	0.91948	0.501666	
1.01325	0.150282	0.843429	0.849718	0.430597	
1.01325	0.300097	1.28024	0.699903	0.338181	
1.01325	0.400365	1.53213	0.599635	0.285875	
1.01325	0.550797	1.88823	0.449203	0.218283	
1.01325	0.701754	2.23193	0.298246	0.150705	
1.01325	0.851737	2.54457	0.148263	0.078463	
1.01325	0.934843	2.71258	0.065157	0.036938	
1.01325	0.953087	2.74836	0.046913	0.03081	
1.01325	1	2.84791	0	0.004654	
