Adsorption isotherm of Methane on H-ZSM-5-30
DOI: 10.1081/ss-120000320
Article source: Table 5
Adsorbate Methane: InChIKey VNWKTOKETHGBQD-UHFFFAOYSA-N
Kind: experiment
Temperature: 313 K
Tabular data in the source: 0
pressure (bar)	uptake (mmol/g)
0.020265	0.027
0.052689	0.065
0.150974	0.145
0.302962	0.257
0.507638	0.407
0.711301	0.54
0.863289	0.634
0.949415	0.68
0.991972	0.702
1.01325	0.71
