Adsorption isotherm of Nitrogen, Methane on H-ZSM-5-30
DOI: 10.1081/ss-120000320
Article source: Figure 5
Adsorbate Nitrogen: InChIKey IJGRMHOSHXDMSA-UHFFFAOYSA-N
Adsorbate Methane: InChIKey VNWKTOKETHGBQD-UHFFFAOYSA-N
Kind: experiment
Temperature: 313 K
Tabular data in the source: 0
pressure (bar)	Nitrogen fraction	Nitrogen uptake (mmol/g)	Methane fraction	Methane uptake (mmol/g)	total uptake (mmol/g)
1.01325	1	0	0	0.246543	
1.01325	0.990304	0.010658	0.009696	0.240816	
1.01325	0.979754	0.018649	0.020246	0.235088	
1.01325	0.949615	0.043384	0.050385	0.222098	
1.01325	0.848665	0.117192	0.151335	0.189974	
1.01325	0.698011	0.225622	0.301989	0.154364	
1.01325	0.547363	0.329478	0.452637	0.122564	
1.01325	0.347003	0.467951	0.652997	0.081181	
1.01325	0.14714	0.605666	0.85286	0.03675	
1.01325	0.048713	0.675666	0.951287	0.013774	
1.01325	0	0.709524	1	0.000763	
