Adsorption isotherm of Carbon Dioxide, Nitrogen on H-ZSM-5-30
DOI: 10.1081/ss-120000320
Article source: Figure 10
Adsorbate Carbon Dioxide: InChIKey CURLTUGMZLYLDI-UHFFFAOYSA-N
Adsorbate Nitrogen: InChIKey IJGRMHOSHXDMSA-UHFFFAOYSA-N
Kind: experiment
Temperature: 313 K
Tabular data in the source: 0
pressure (bar)	Carbon Dioxide fraction	Carbon Dioxide uptake (mmol/g)	Nitrogen fraction	Nitrogen uptake (mmol/g)	total uptake (mmol/g)
1.01325	0.010681	0.118196	0.989319	0.132193	
1.01325	0.021363	0.180404	0.978637	0.104199	
1.01325	0.032044	0.231726	0.967956	0.082426	
1.01325	0.050356	0.326594	0.949644	0.062208	
1.01325	0.081383	0.449456	0.918617	0.046656	
1.01325	0.126143	0.622084	0.873857	0.031104	
1.01325	0.151067	0.718507	0.848933	0.026439	
1.01325	0.252795	1.06065	0.747205	0.020218	
1.01325	0.352489	1.37947	0.647511	0.020218	
1.01325	0.502029	1.81182	0.497971	0.023328	
1.01325	0.600197	2.06687	0.399803	0.023328	
1.01325	0.700908	2.30171	0.299092	0.023328	
1.01325	0.802128	2.51633	0.197872	0.023328	
1.01325	0.900804	2.70296	0.099196	0.018663	
1.01325	0.950651	2.78849	0.049349	0.018663	
1.01325	1	2.87403	0	0.013997	
