Adsorption isotherm of Carbon Dioxide on H-ZSM-5-30
DOI: 10.1081/ss-120000320
Article source: Table 4
Adsorbate Carbon Dioxide: InChIKey CURLTUGMZLYLDI-UHFFFAOYSA-N
Kind: experiment
Temperature: 313 K
Tabular data in the source: 0
pressure (bar)	uptake (mmol/g)
0.010133	0.099
0.017225	0.183
0.023305	0.234
0.049649	0.387
0.126656	0.735
0.250273	1.161
0.354637	1.481
0.506625	1.877
0.60795	2.106
0.709275	2.31
0.910912	2.687
0.962587	2.78
1.01325	2.852
