Adsorption isotherm of Carbon Dioxide on CCT1
DOI: 10.1002/adfm.201300071
Adsorbate Carbon Dioxide: InChIKey CURLTUGMZLYLDI-UHFFFAOYSA-N
Temperature: 273 K
Tabular data in the source: 0
pressure (bar)	uptake (cm3(STP)/g)
0.0112524	2.19779
0.0816749	7.15554
0.161957	10.2541
0.221112	12.1696
0.283083	13.8034
0.371816	15.8316
0.463365	17.6344
0.553506	19.0992
0.646464	20.564
0.736604	22.0288
0.829562	23.2119
0.919703	24.395
0.980266	25.24
1.04083	25.9724
