Adsorption isotherm of Carbon Dioxide on CCT1
DOI: 10.1002/adfm.201300071
Adsorbate Carbon Dioxide: InChIKey CURLTUGMZLYLDI-UHFFFAOYSA-N
Temperature: 273 K
Tabular data in the source: 0
pressure (bar)	uptake (cm3(STP)/g)
0.0140693	2.42315
0.0422383	8.33864
0.0802664	12.0006
0.112661	14.4231
0.163365	17.4654
0.221112	20.0569
0.284492	22.5922
0.346464	24.4513
0.435196	27.2682
0.528154	29.4654
0.616886	31.4936
0.711252	33.5217
0.798576	35.3246
0.894351	37.1274
0.954914	38.2541
1.03942	39.6626
