Adsorption isotherm of Nitrogen on CCT1
DOI: 10.1002/adfm.201300071
Adsorbate Nitrogen: InChIKey IJGRMHOSHXDMSA-UHFFFAOYSA-N
Temperature: 77 K
Tabular data in the source: 0
pressure (bar)	uptake (cm3(STP)/g)
0.00229475	20.0151
0.00372489	27.223
0.0194565	37.0052
0.102405	44.3847
0.228257	48.8467
0.35554	52.4507
0.431338	54.1669
0.527157	56.0547
0.65444	58.8005
0.714506	60.1735
0.776002	62.2329
0.843219	65.1504
0.904715	69.6124
0.933318	73.388
0.969071	79.5662
0.997674	96.5563
