Adsorption isotherm of Carbon Dioxide on CT
DOI: 10.1002/adfm.201300071
Adsorbate Carbon Dioxide: InChIKey CURLTUGMZLYLDI-UHFFFAOYSA-N
Temperature: 273 K
Tabular data in the source: 0
pressure (bar)	uptake (cm3(STP)/g)
0.02252	0.958356
0.0661819	2.19779
0.160548	3.77526
0.253506	5.12737
0.345055	6.25413
0.435196	7.26822
0.526745	8.16962
0.618295	9.12737
0.709844	9.80343
0.799985	10.7048
0.891534	11.3809
0.981675	12.0006
1.04365	12.6203
