Adsorption isotherm of Nitrogen on CCT1
DOI: 10.1002/adfm.201300071
Adsorbate Nitrogen: InChIKey IJGRMHOSHXDMSA-UHFFFAOYSA-N
Temperature: 77 K
Tabular data in the source: 0
pressure (bar)	uptake (cm3(STP)/g)
0.000865	24.3055
0.00229475	39.0646
0.025177	44.8995
0.0595005	48.6751
0.116706	53.3088
0.209665	57.9425
0.341239	62.4045
0.459941	65.8368
0.55719	67.7246
0.65444	70.9854
0.715936	72.7015
0.777432	74.9325
0.871822	80.0811
0.933318	85.5728
0.970502	90.2065
0.996244	96.8995
0.996244	105.137
