Adsorption isotherm of Carbon Dioxide on CT
DOI: 10.1002/adfm.201300071
Adsorbate Carbon Dioxide: InChIKey CURLTUGMZLYLDI-UHFFFAOYSA-N
Temperature: 273 K
Tabular data in the source: 0
pressure (bar)	uptake (cm3(STP)/g)
0.0408298	4.22596
0.0999848	7.77526
0.161957	10.4231
0.218295	12.5077
0.280266	14.4795
0.376041	16.7893
0.464773	18.7612
0.556323	20.395
0.647872	22.0288
0.742238	23.5499
0.829562	24.8457
0.92252	26.1415
0.984492	27.0429
1.04083	27.9443
