Adsorption isotherm of Nitrogen on CCT1
DOI: 10.1002/adfm.201300071
Adsorbate Nitrogen: InChIKey IJGRMHOSHXDMSA-UHFFFAOYSA-N
Temperature: 77 K
Tabular data in the source: 0
pressure (bar)	uptake (cm3(STP)/g)
0.00229475	23.1042
0.00944547	30.1405
0.0280373	33.7444
0.0766622	36.4903
0.145309	39.2362
0.228257	41.9821
0.314066	44.0415
0.428477	46.6157
0.5529	49.0184
0.65158	51.421
0.75169	54.3385
0.840359	57.5992
0.937608	62.4045
0.966211	66.3517
0.997674	74.4177
