Adsorption isotherm of Carbon Dioxide on CCT1
DOI: 10.1002/adfm.201300071
Adsorbate Carbon Dioxide: InChIKey CURLTUGMZLYLDI-UHFFFAOYSA-N
Temperature: 273 K
Tabular data in the source: 0
pressure (bar)	uptake (cm3(STP)/g)
0.0112524	2.19779
0.078858	5.85976
0.130971	7.8316
0.192943	9.63441
0.283083	11.5499
0.373224	13.1274
0.463365	14.6485
0.557731	15.8316
0.646464	16.902
0.74083	17.9724
0.829562	18.8738
0.921112	19.8879
0.981675	20.395
1.04224	20.9584
