Adsorption isotherm of Nitrogen on CCT1
DOI: 10.1002/adfm.201300071
Adsorbate Nitrogen: InChIKey IJGRMHOSHXDMSA-UHFFFAOYSA-N
Temperature: 77 K
Tabular data in the source: 0
pressure (bar)	uptake (cm3(STP)/g)
0.0437689	28.9392
0.115276	32.0283
0.186783	34.0877
0.338378	36.3187
0.461371	37.52
0.55862	38.8929
0.65301	40.6091
0.747399	42.1537
0.840359	44.8995
0.901855	47.4738
0.939038	50.9061
0.970502	55.5398
0.996244	68.7543
