Adsorption isotherm of Carbon Dioxide on CCT1
DOI: 10.1002/adfm.201300071
Adsorbate Carbon Dioxide: InChIKey CURLTUGMZLYLDI-UHFFFAOYSA-N
Temperature: 273 K
Tabular data in the source: 0
pressure (bar)	uptake (cm3(STP)/g)
0.0126608	2.19779
0.0422383	6.53582
0.0746326	9.57807
0.112661	11.6626
0.164773	13.9161
0.225337	16.1696
0.283083	18.0288
0.342238	19.7753
0.402802	21.1274
0.463365	22.4231
0.530971	23.7753
0.584492	24.733
0.647872	25.9724
0.707027	26.8738
0.768999	27.8879
0.829562	28.7893
0.890126	29.8034
0.950689	30.7612
1.00984	31.6626
1.04224	32.1696
