Adsorption isotherm of Carbon Dioxide on CCT1
DOI: 10.1002/adfm.201300071
Adsorbate Carbon Dioxide: InChIKey CURLTUGMZLYLDI-UHFFFAOYSA-N
Temperature: 273 K
Tabular data in the source: 0
pressure (bar)	uptake (cm3(STP)/g)
0.0182946	2.02878
0.0408298	4.90202
0.0816749	7.43723
0.129562	10.3105
0.190126	12.902
0.250689	14.9302
0.314069	16.6767
0.371816	18.3668
0.464773	20.564
0.556323	22.4231
0.650689	24.226
0.736604	25.9161
0.830971	27.4936
0.923928	29.071
1.00984	30.4231
1.04083	30.8738
