Adsorption isotherm of Carbon Dioxide on CCT1
DOI: 10.1002/adfm.201300071
Adsorbate Carbon Dioxide: InChIKey CURLTUGMZLYLDI-UHFFFAOYSA-N
Temperature: 273 K
Tabular data in the source: 0
pressure (bar)	uptake (cm3(STP)/g)
0.0422383	0.676666
0.0999848	1.69075
0.161957	2.70484
0.250689	4.11329
0.314069	5.12737
0.371816	5.9161
0.461957	7.21188
0.556323	8.56399
0.618295	9.52174
0.708435	10.7612
0.801393	12.226
0.860548	12.9584
0.92252	13.9161
0.980266	14.7612
1.04506	15.7189
