Adsorption isotherm of Nitrogen on CCT1
DOI: 10.1002/adfm.201300071
Adsorbate Nitrogen: InChIKey IJGRMHOSHXDMSA-UHFFFAOYSA-N
Temperature: 77 K
Tabular data in the source: 0
pressure (bar)	uptake (cm3(STP)/g)
0.000865	19.6718
0.000865	32.1999
0.0194565	37.6916
0.116706	46.1009
0.221107	50.5629
0.289753	52.7939
0.428477	55.3682
0.527157	56.9128
0.594374	58.2857
0.684473	60.6883
0.781723	64.2923
0.837498	66.8665
0.903285	72.1867
0.936178	76.3055
0.969071	83.1702
0.997674	99.817
