Adsorption isotherm of Carbon Dioxide on CT
DOI: 10.1002/adfm.201300071
Adsorbate Carbon Dioxide: InChIKey CURLTUGMZLYLDI-UHFFFAOYSA-N
Temperature: 273 K
Tabular data in the source: 0
pressure (bar)	uptake (cm3(STP)/g)
0.0718157	0.169624
0.132379	0.113286
0.223928	0.2823
0.309844	0.394976
0.407027	0.451314
0.466182	0.507652
0.528154	0.620328
0.587309	0.733004
0.654914	0.902018
0.705619	0.958356
0.768999	1.01469
0.830971	1.24005
0.891534	1.24005
0.952097	1.35272
1.00984	1.52174
1.04224	1.52174
