Adsorption isotherm of Nitrogen on CCT1
DOI: 10.1002/adfm.201300071
Adsorbate Nitrogen: InChIKey IJGRMHOSHXDMSA-UHFFFAOYSA-N
Temperature: 77 K
Tabular data in the source: 0
pressure (bar)	uptake (cm3(STP)/g)
0.00229475	4.56951
0.00229475	11.7774
0.0123058	16.5827
0.05521	20.1867
0.143879	23.9623
0.265441	28.7675
0.379853	32.7147
0.499985	37.8632
0.614396	44.8995
0.701635	53.1372
0.761701	60.8599
0.821767	73.2164
0.874682	86.6025
0.929027	105.48
0.967641	118.695
0.976222	129.164
0.991954	137.916
