Adsorption isotherm of Nitrogen on CCT1
DOI: 10.1002/adfm.201300071
Adsorbate Nitrogen: InChIKey IJGRMHOSHXDMSA-UHFFFAOYSA-N
Temperature: 77 K
Tabular data in the source: 0
pressure (bar)	uptake (cm3(STP)/g)
0.000865	2.68173
0.0294675	3.88305
0.0981143	4.91275
0.192504	6.11407
0.282603	6.4573
0.375562	7.14377
0.469952	7.65862
0.55576	8.34509
0.622977	9.03156
0.691624	9.88965
0.764561	10.7477
0.818906	13.1504
0.876112	17.6124
0.907575	22.2461
0.937608	30.3121
0.95477	38.7213
0.973362	53.652
0.974792	58.6289
0.983373	71.3286
0.993384	96.7279
