Adsorption isotherm of Nitrogen on CCT1
DOI: 10.1002/adfm.201300071
Adsorbate Nitrogen: InChIKey IJGRMHOSHXDMSA-UHFFFAOYSA-N
Temperature: 77 K
Tabular data in the source: 0
pressure (bar)	uptake (cm3(STP)/g)
0.000865	4.56951
0.000865	16.7543
0.00944547	21.9028
0.0566402	25.6784
0.145309	29.6256
0.262581	33.916
0.35268	36.4903
0.471382	39.5794
0.584363	44.2131
0.674462	46.959
0.763131	51.0778
0.848939	55.3682
0.909005	61.2032
0.937608	64.2923
0.960491	72.8731
0.989093	85.4012
