Adsorption isotherm of Carbon Dioxide on CCT1
DOI: 10.1002/adfm.201300071
Adsorbate Carbon Dioxide: InChIKey CURLTUGMZLYLDI-UHFFFAOYSA-N
Temperature: 273 K
Tabular data in the source: 0
pressure (bar)	uptake (cm3(STP)/g)
0.0689988	1.9161
0.15914	4.00061
0.221112	5.29638
0.280266	6.36681
0.339421	7.43723
0.435196	9.07103
0.526745	10.6485
0.616886	12.0569
0.707027	13.5217
0.798576	14.9302
0.894351	16.5077
0.947872	17.4091
1.01125	18.4231
1.04083	18.7612
