Adsorption isotherm of Nitrogen, Methane on Wet Lower Basin Fruitland Coal
DOI: 10.1016/0378-3812(93)87146-r
Article source: Table 9
Adsorbate Nitrogen: InChIKey IJGRMHOSHXDMSA-UHFFFAOYSA-N
Adsorbate Methane: InChIKey VNWKTOKETHGBQD-UHFFFAOYSA-N
Kind: experiment
Temperature: 319 K
Tabular data in the source: 1
pressure (bar)	Nitrogen fraction	Nitrogen uptake (mmol/g)	Methane fraction	Methane uptake (mmol/g)	total uptake (mmol/g)
39.059	0.808	0.1464	0.192	0.1404	
73.395	0.808	0.1909	0.192	0.2013	
107.455	0.808	0.2151	0.192	0.2393	
141.516	0.808	0.2269	0.192	0.2659	
