Adsorption isotherm of Nitrogen, Methane on Wet Lower Basin Fruitland Coal
DOI: 10.1016/0378-3812(93)87146-r
Article source: Table 10
Adsorbate Nitrogen: InChIKey IJGRMHOSHXDMSA-UHFFFAOYSA-N
Adsorbate Methane: InChIKey VNWKTOKETHGBQD-UHFFFAOYSA-N
Kind: experiment
Temperature: 319 K
Tabular data in the source: 1
pressure (bar)	Nitrogen fraction	Nitrogen uptake (mmol/g)	Methane fraction	Methane uptake (mmol/g)	total uptake (mmol/g)
39.748	0.201	0.02169	0.799	0.4863	
72.671	0.201	0.02192	0.799	0.6056	
106.663	0.201	0.0195	0.799	0.6616	
