Adsorption isotherm of Methane on Wet Lower Basin Fruitland Coal
DOI: 10.1016/0378-3812(93)87146-r
Article source: Table 4
Adsorbate Methane: InChIKey VNWKTOKETHGBQD-UHFFFAOYSA-N
Kind: experiment
Isotherm type: absolute
Temperature: 319 K
Tabular data in the source: 1
pressure (bar)	uptake (mmol/g)
11.411	0.3295
26.51	0.5116
38.301	0.6043
51.194	0.6717
68.431	0.7416
85.875	0.7934
103.036	0.8343
