Adsorption isotherm of Carbon Dioxide, Nitrogen, Methane on Wet Lower Basin Fruitland Coal
DOI: 10.1016/0378-3812(93)87146-r
Article source: Table 13
Adsorbate Carbon Dioxide: InChIKey CURLTUGMZLYLDI-UHFFFAOYSA-N
Adsorbate Nitrogen: InChIKey IJGRMHOSHXDMSA-UHFFFAOYSA-N
Adsorbate Methane: InChIKey VNWKTOKETHGBQD-UHFFFAOYSA-N
Kind: experiment
Temperature: 319 K
Tabular data in the source: 1
pressure (bar)	Carbon Dioxide fraction	Carbon Dioxide uptake (mmol/g)	Nitrogen fraction	Nitrogen uptake (mmol/g)	Methane fraction	Methane uptake (mmol/g)	total uptake (mmol/g)
35.956	0.0593	0.07674	0.0652	0.007618	0.8755	0.4912	
70.017	0.0593	0.108	0.0652	0.005577	0.8755	0.5897	
105.352	0.0593	0.1367	0.0652	0.000943	0.8755	0.5702	
