Adsorption isotherm of Carbon Dioxide on Wet Lower Basin Fruitland Coal
DOI: 10.1016/0378-3812(93)87146-r
Article source: Table 6
Adsorbate Carbon Dioxide: InChIKey CURLTUGMZLYLDI-UHFFFAOYSA-N
Kind: experiment
Isotherm type: absolute
Temperature: 319 K
Tabular data in the source: 1
pressure (bar)	uptake (mmol/g)
8.687	0.5841
16.858	0.8
29.337	0.9837
42.231	1.096
57.61	1.1748
