Adsorption isotherm of Nitrogen on Wet Lower Basin Fruitland Coal
DOI: 10.1016/0378-3812(93)87146-r
Article source: Table 5
Adsorbate Nitrogen: InChIKey IJGRMHOSHXDMSA-UHFFFAOYSA-N
Kind: experiment
Isotherm type: absolute
Temperature: 319 K
Tabular data in the source: 1
pressure (bar)	uptake (mmol/g)
10.446	0.08014
17.134	0.1232
34.853	0.2065
52.849	0.2705
69.879	0.323
106.835	0.4088
