Adsorption isotherm of Carbon Dioxide on ZIF-8
DOI: 10.1016/j.memsci.2011.09.040
Adsorbate Carbon Dioxide: InChIKey CURLTUGMZLYLDI-UHFFFAOYSA-N
Temperature: 298 K
Tabular data in the source: 0
pressure (bar)	uptake (mmol/g)
0.0309278	0.0196289
0.0649485	0.0367898
0.0958763	0.0638033
0.120619	0.0760603
0.151546	0.0981507
0.185567	0.117773
0.213402	0.137408
0.24433	0.159499
0.303093	0.196301
0.364948	0.233098
0.426804	0.267432
0.491753	0.304222
0.553608	0.341018
0.615464	0.385199
0.67732	0.414611
0.739175	0.448945
0.918557	0.551962
0.989691	0.588739
1.05155	0.630458
1.11031	0.654953
1.17216	0.694211
