Adsorption isotherm of Hydrogen on ZIF-8
DOI: 10.1016/j.memsci.2011.09.040
Adsorbate Hydrogen: InChIKey UFHFLCQGNIYNRP-UHFFFAOYSA-N
Temperature: 298 K
Tabular data in the source: 0
pressure (bar)	uptake (mmol/g)
0.0649485	0.00232831
0.0958763	0.00226487
0.123711	0.00466931
0.151546	0.00461221
0.182474	0.00208723
0.216495	0.00201745
0.247423	0.001954
0.306186	0.004295
0.371134	0.00416178
0.426804	0.00404758
0.48866	0.00145916
0.550515	0.00379381
0.615464	0.00366059
0.674227	0.00354005
0.739175	0.000945282
0.915464	0.000583664
0.983505	0.00290563
1.04536	0.00277875
1.10722	0.00265186
1.16907	0.00498652
