Adsorption isotherm of Methane on ZIF-8
DOI: 10.1016/j.memsci.2011.09.040
Adsorbate Methane: InChIKey VNWKTOKETHGBQD-UHFFFAOYSA-N
Temperature: 298 K
Tabular data in the source: 0
pressure (bar)	uptake (mmol/g)
0.0154639	0.00489136
0.0309278	0.00978271
0.0649485	0.014636
0.0958763	0.0219572
0.120619	0.0317526
0.154639	0.0439905
0.182474	0.0463949
0.213402	0.0561776
0.24433	0.0659603
0.306186	0.0806027
0.371134	0.0977002
0.429897	0.109887
0.491753	0.12453
0.550515	0.139178
0.615464	0.153814
0.674227	0.166002
0.739175	0.183099
0.921649	0.222109
0.986598	0.236745
1.04845	0.246465
1.11031	0.261107
1.17216	0.278211
