Adsorption isotherm of Nitrogen on ZIF-8
DOI: 10.1016/j.memsci.2011.09.040
Adsorbate Nitrogen: InChIKey IJGRMHOSHXDMSA-UHFFFAOYSA-N
Temperature: 298 K
Tabular data in the source: 0
pressure (bar)	uptake (mmol/g)
0.0278351	0.00732752
0.0587629	0.0146487
0.0958763	0.0145726
0.120619	0.0194449
0.148454	0.0243109
0.18866	0.0266899
0.216495	0.0290944
0.250515	0.0314861
0.306186	0.0338335
0.374227	0.0361554
0.429897	0.0385028
0.48866	0.0408438
0.550515	0.0431784
0.612371	0.0430515
0.674227	0.0429247
0.736082	0.0477209
0.831959	0.0475242
0.918557	0.0473466
0.983505	0.0496749
1.04845	0.0520032
1.11031	0.0543378
1.17216	0.0566725
