Adsorption isotherm of Nitrogen on epsilon-MnO2/MOF(Fe)
DOI: 10.1039/c5ta02244d
Article source: Figure 1b- epsilon MnO2 and MOF Fe
Adsorbate Nitrogen: InChIKey IJGRMHOSHXDMSA-UHFFFAOYSA-N
Kind: experiment
Temperature: 77 K
Tabular data in the source: 0
pressure (bar)	uptake (cm3(STP)/g)
0.008055	61.241
0.008238	45.723
0.008248	54.061
0.008461	68.683
0.008765	75.002
0.009008	34.99
0.009089	16.704
0.009261	80.574
0.009373	3.167
0.009373	-2.846
0.009393	25.38
0.009464	86.257
0.009859	91.081
0.010447	100.609
0.010457	100.654
0.020012	150.159
0.038949	170.568
0.061028	192.62
0.087008	207.715
0.11015	216.604
0.129463	226.878
0.150731	233.748
0.17132	236.655
0.192487	238.179
0.210715	239.18
0.241295	240.96
0.261094	242.895
0.291573	243.703
0.31127	245.414
0.34184	246.26
0.362227	247.447
0.392219	247.956
0.430631	249.808
0.442395	249.578
0.480027	251.542
0.492085	252.022
0.530001	252.752
0.542555	254.018
0.580086	254.037
0.592234	255.453
0.630059	255.098
0.642026	256.7
0.679556	256.01
0.691908	258.135
0.73032	257.743
0.743158	259.233
0.780689	259.028
0.793922	260.742
0.819111	261.553
0.831554	260.687
0.84351	262.401
0.852528	261.275
0.868406	263.586
0.881436	262.982
0.89398	264.658
0.907801	264.315
0.919555	266.18
0.936517	266.545
0.945626	268.897
0.962973	269.711
0.986997	277.927
0.987676	278.011
1.00287	282.481
1.00769	288.425
