Adsorption isotherm of Nitrogen on MOF(Fe)
DOI: 10.1039/c5ta02244d
Article source: Figure 1b- MOF Fe
Adsorbate Nitrogen: InChIKey IJGRMHOSHXDMSA-UHFFFAOYSA-N
Kind: experiment
Temperature: 77 K
Tabular data in the source: 0
pressure (bar)	uptake (cm3(STP)/g)
0.009261	106.904
0.009271	107.207
0.009281	107.649
0.010305	138.219
0.010913	129.5
0.019465	209.347
0.041047	240.658
0.0589	268.117
0.094972	300.545
0.109249	309.595
0.129382	326.575
0.150599	343.929
0.173499	348.037
0.190825	349.303
0.211577	351.84
0.240556	353.064
0.260618	354.815
0.289992	355.665
0.310744	357.116
0.340604	357.442
0.380941	359.111
0.391023	358.883
0.431361	360.14
0.440764	359.949
0.480706	360.721
0.491082	360.904
0.530051	361.376
0.540924	361.484
0.579589	361.657
0.590654	362.102
0.631093	361.937
0.640688	362.345
0.681613	362.143
0.691695	362.738
0.731354	362.162
0.742317	362.644
0.780993	362.069
0.793223	362.626
0.805564	362.546
0.819071	362.803
0.832689	362.125
0.842771	363.094
0.856571	363.089
0.868416	363.159
0.881446	362.406
0.896321	363.261
0.906899	363.108
0.919332	363.739
0.931278	363.697
0.944977	364.59
0.957997	364.361
0.980512	366.598
0.987858	369.289
0.992164	367.641
0.998234	369.36
1.00371	373.137
1.0081	378.599
