Adsorption isotherm of Nitrogen on AC
DOI: 10.1007/s10853-015-9289-1
Article source: Figure 4a- AC
Adsorbate Nitrogen: InChIKey IJGRMHOSHXDMSA-UHFFFAOYSA-N
Kind: experiment
Temperature: 77 K
Tabular data in the source: 0
pressure (bar)	uptake (cm3(STP)/g)
0.011389	247.805
0.031978	281.585
0.061778	310.366
0.085772	324.756
0.104041	334.939
0.123394	344.146
0.144601	353.293
0.166203	360.366
0.187948	365.549
0.204281	369.634
0.212641	370.549
0.255754	379.817
0.307228	387.012
0.313418	387.317
0.354749	392.195
0.367364	393.049
0.401966	396.768
0.409394	397.378
0.456226	400.183
0.4611	404.817
0.507081	402.926
0.507699	402.988
0.557774	416.098
0.55824	416.124
0.609014	410.893
0.609166	410.915
0.659251	426.22
0.659717	426.228
0.709873	418.716
0.710795	418.293
0.760951	424.939
0.761113	425.024
0.810803	444.573
0.810955	444.538
0.835263	436.037
0.836499	437.745
0.861658	438.633
0.862813	438.902
0.887972	458.537
0.888742	458.419
0.911429	464.512
0.913587	451.646
0.938047	470.732
0.93983	470.068
0.95284	475.366
0.963905	465.366
0.97505	484.39
0.989834	477.561
0.993785	490.305
1.00051	486.524
1.01042	497.622
1.01252	497.647
