Adsorption isotherm of Nitrogen on KOH-AC
DOI: 10.1007/s10853-015-9289-1
Article source: Figure 4a- KOH AC
Adsorbate Nitrogen: InChIKey IJGRMHOSHXDMSA-UHFFFAOYSA-N
Kind: experiment
Temperature: 77 K
Tabular data in the source: 0
pressure (bar)	uptake (cm3(STP)/g)
0.010315	347.056
0.030296	387.677
0.062892	431.042
0.085498	453.426
0.10169	470.93
0.122127	487.275
0.140163	503.56
0.145898	509.659
0.163468	521.003
0.185303	535.701
0.207605	552.069
0.209692	553.266
0.251499	574.794
0.256454	579.125
0.306863	601.323
0.319326	602.848
0.348517	615.777
0.375916	621.325
0.403172	625.898
0.410143	635.047
0.45651	637.484
0.459843	653.22
0.508155	662.366
0.509705	661.211
0.557085	651.553
0.559486	650.957
0.609338	671.632
0.610118	657.115
0.660051	675.776
0.660821	675.815
0.710531	667.223
0.711849	667.173
0.760079	686.993
0.763332	673.513
0.811948	678.939
0.812495	679.3
0.835323	682.536
0.837188	697.845
0.862813	702.723
0.865214	686.438
0.887121	708.028
0.890606	692.658
0.913141	716.261
0.915846	699.731
0.940468	728.946
0.941319	708.208
0.959122	739.436
0.965394	722.357
0.985061	760.843
0.988628	744.863
0.998923	778.836
1.00209	762.367
1.00853	796.341
1.01015	780.421
