Adsorption isotherm of Methyl Orange, Water on Cecalite pH 2.5
DOI: 10.1007/s10450-017-9927-9
Article source: Figure 7b
Adsorbate Methyl Orange: InChIKey STZCRXQWRGQSJD-GEEYTBSJSA-M
Adsorbate Water: InChIKey XLYOFNOQVPJJNP-UHFFFAOYSA-N
Kind: experiment
Temperature: 298 K
Tabular data in the source: 0
pressure (bar)	Methyl Orange fraction	Methyl Orange uptake (cm3(STP)/g)	Water fraction	Water uptake (cm3(STP)/g)	total uptake (cm3(STP)/g)
1.01325	0.096154	1.42653			
1.01325	0.608974	2.64622			
1.01325	2.40385	5.32097			
1.01325	4.32692	7.97432			
1.01325	6.50641	10.7347			
1.01325	15.4808	16.1698			
1.01325	22.6923	18.7375			
1.01325	31.2179	20.535			
1.01325	42.4359	20.5563			
