Adsorption isotherm of Carbon Dioxide on Fe-BTC
DOI: 10.1007/s10450-017-9927-9
Article source: Figure 2b
Adsorbate Carbon Dioxide: InChIKey CURLTUGMZLYLDI-UHFFFAOYSA-N
Kind: experiment
Temperature: 273 K
Tabular data in the source: 0
pressure (bar)	uptake (cm3(STP)/g)
0.000928	9.64539
0.001177	11.2665
0.001449	13.1307
0.001924	15.3191
0.002467	17.8318
0.003101	20.9119
0.003938	23.9108
0.004934	27.8825
0.005591	29.9088
0.00627	31.8541
0.00713	34.2047
0.007922	36.4742
0.008895	39.0679
0.010004	41.6616
0.011226	44.2553
0.012562	47.1733
0.013852	49.767
0.015097	52.1986
0.016772	55.1165
0.018356	57.5481
0.019737	59.8176
0.021004	61.7629
0.022181	63.5461
0.023426	65.1672
0.02449	66.5451
0.025667	68.2472
0.026844	69.6251
0.027908	71.003
0.029175	72.7862
0.030307	74.0831
