Adsorption isotherm of Nitrogen on Cecalite
DOI: 10.1007/s10450-017-9927-9
Article source: Figure 2a
Adsorbate Nitrogen: InChIKey IJGRMHOSHXDMSA-UHFFFAOYSA-N
Kind: experiment
Temperature: 77 K
Tabular data in the source: 0
pressure (bar)	uptake (cm3(STP)/g)
0	10.6996
0.00077	19.7531
0.00077	40.7407
0.00077	51.0288
0.00077	70.7819
0.00154	31.2757
0.00154	80.6584
0.00154	123.868
0.00154	58.4362
0.00231	91.358
0.00308	101.235
0.00385	111.523
0.00616	127.572
0.013089	131.276
0.024638	135.802
0.042347	137.449
0.050816	139.095
0.058516	139.918
0.065445	139.918
0.074685	140.741
0.083924	141.975
0.100093	143.21
0.110872	143.621
0.129351	144.444
0.14475	144.856
0.166309	146.091
0.187097	145.679
0.206346	146.914
0.271791	146.914
0.29412	148.971
0.315678	148.148
0.371884	148.56
0.401912	150.617
0.454269	151.44
0.505085	152.263
0.512015	152.263
0.558211	152.263
0.58362	153.909
0.606718	153.909
0.631356	154.321
0.659844	154.321
0.683713	153.909
0.708351	154.733
0.734529	154.733
0.760707	154.733
0.786116	153.498
0.807674	154.321
0.835392	154.321
0.860801	153.498
0.886979	153.909
0.912387	153.909
0.942415	154.321
0.963973	154.321
0.981682	154.321
1.00247	154.321
