Adsorption isotherm of Methylene blue, Water on Cecalite pH 8
DOI: 10.1007/s10450-017-9927-9
Article source: Figure 7a
Adsorbate Methylene blue: InChIKey CXKWCBBOMKCUKX-UHFFFAOYSA-M
Adsorbate Water: InChIKey XLYOFNOQVPJJNP-UHFFFAOYSA-N
Kind: experiment
Temperature: 298 K
Tabular data in the source: 0
pressure (bar)	Methylene blue fraction	Methylene blue uptake (cm3(STP)/g)	Water fraction	Water uptake (cm3(STP)/g)	total uptake (cm3(STP)/g)
1.01325	0.554017	1.80088			
1.01325	1.28116	3.73673			
1.01325	6.5097	6.62389			
1.01325	12.3269	7.89602			
1.01325	19.8407	8.60398			
1.01325	27.2507	9.42257			
1.01325	33.1717	11.0597			
1.01325	42.4169	12.2212			
