Adsorption isotherm of Methyl Orange, Water on Acticarbone pH 2.5
DOI: 10.1007/s10450-017-9927-9
Article source: Figure 7d
Adsorbate Methyl Orange: InChIKey STZCRXQWRGQSJD-GEEYTBSJSA-M
Adsorbate Water: InChIKey XLYOFNOQVPJJNP-UHFFFAOYSA-N
Kind: experiment
Temperature: 298 K
Tabular data in the source: 0
pressure (bar)	Methyl Orange fraction	Methyl Orange uptake (cm3(STP)/g)	Water fraction	Water uptake (cm3(STP)/g)	total uptake (cm3(STP)/g)
1.01325	0.604317	3.01432			
1.01325	0.920863	6.07422			
1.01325	1.38129	9.26432			
1.01325	1.89928	12.3568			
1.01325	3.85612	19.4857			
1.01325	6	23.9453			
1.01325	9.66907	27.8841			
1.01325	17.741	29.349			
