Adsorption isotherm of Carbon Dioxide on F200
DOI: 10.1007/s10450-017-9927-9
Article source: Figure 2b
Adsorbate Carbon Dioxide: InChIKey CURLTUGMZLYLDI-UHFFFAOYSA-N
Kind: experiment
Temperature: 273 K
Tabular data in the source: 0
pressure (bar)	uptake (cm3(STP)/g)
0.000158	0.972644
0.000181	2.51267
0.000249	4.21479
0.00034	5.91692
0.000498	7.37589
0.000656	8.91591
0.000792	10.618
0.000951	12.3202
0.001268	14.1033
0.001562	16.2918
0.001924	18.8045
0.00249	21.5603
0.003123	24.6403
0.003916	27.9635
0.004934	31.692
0.005591	34.1236
0.00627	36.231
0.007107	38.7437
0.007967	41.0942
0.00894	43.6069
0.009982	46.0385
0.011272	49.0375
0.012585	51.9554
0.013875	54.4681
0.01512	56.7376
0.016794	59.3313
0.018401	62.1682
0.019737	64.1945
0.021027	65.8967
0.022204	67.5988
0.023381	69.0578
0.024467	70.6788
0.02569	72.2188
0.026844	73.5968
0.027998	74.8936
0.029175	76.2715
0.030307	77.3252
