Adsorption isotherm of Methylene blue, Water on Acticarbone pH 8
DOI: 10.1007/s10450-017-9927-9
Article source: Figure 7c
Adsorbate Methylene blue: InChIKey CXKWCBBOMKCUKX-UHFFFAOYSA-M
Adsorbate Water: InChIKey XLYOFNOQVPJJNP-UHFFFAOYSA-N
Kind: experiment
Temperature: 298 K
Tabular data in the source: 0
pressure (bar)	Methylene blue fraction	Methylene blue uptake (cm3(STP)/g)	Water fraction	Water uptake (cm3(STP)/g)	total uptake (cm3(STP)/g)
1.01325	1.05906	1.73469			
1.01325	1.25764	3.87755			
1.01325	2.02138	7.20408			
1.01325	2.66293	10.2653			
1.01325	4.00713	13.0408			
1.01325	6.46639	15.5918			
1.01325	10.499	17.6939			
1.01325	15.0356	19.4898			
1.01325	19.1752	21.4898			
