Adsorption isotherm of Nitrogen on F300 (activated carbon)
DOI: 10.1007/s10450-017-9927-9
Article source: Figure 2a
Adsorbate Nitrogen: InChIKey IJGRMHOSHXDMSA-UHFFFAOYSA-N
Kind: experiment
Temperature: 77 K
Tabular data in the source: 0
pressure (bar)	uptake (cm3(STP)/g)
0.00616	161.317
0.008469	169.136
0.010009	182.305
0.014629	188.066
0.023868	197.119
0.040037	206.584
0.047737	208.23
0.057746	211.111
0.066985	213.992
0.074685	216.461
0.083154	217.284
0.098553	218.93
0.117032	220.988
0.127811	222.222
0.14475	223.868
0.169388	225.514
0.192487	227.984
0.209426	229.63
0.257932	234.156
0.28488	235.391
0.314908	238.272
0.372654	241.564
0.395753	242.798
0.457348	245.679
0.505085	247.737
0.555902	249.383
0.607488	253.086
0.661384	255.144
0.707581	258.025
0.762247	260.082
0.810754	262.963
0.86157	266.667
0.911617	271.193
0.960894	276.132
0.404992	243.621
0.509705	254.733
0.558981	255.967
0.58362	257.613
0.606718	258.436
0.632896	259.259
0.659074	260.494
0.682173	262.14
0.709121	262.551
0.736069	263.786
0.760707	265.432
0.786116	267.078
0.809984	267.901
0.836162	269.136
0.86234	271.605
0.887749	272.84
0.911617	275.72
0.942415	279.012
0.953194	279.835
0.965513	281.481
0.982452	282.716
1.00247	286.831
