Adsorption isotherm of Carbon Dioxide on Cecalite
DOI: 10.1007/s10450-017-9927-9
Article source: Figure 2b
Adsorbate Carbon Dioxide: InChIKey CURLTUGMZLYLDI-UHFFFAOYSA-N
Kind: experiment
Temperature: 273 K
Tabular data in the source: 0
pressure (bar)	uptake (cm3(STP)/g)
0.000317	7.78116
0.000453	9.24012
0.000566	10.3749
0.000634	11.6717
0.000883	13.4549
0.001064	15.7244
0.001177	17.9939
0.001562	20.4255
0.001947	23.3435
0.002444	26.2614
0.003078	29.7467
0.003916	33.0699
0.004957	36.7984
0.005568	39.23
0.006247	40.9321
0.007084	43.2016
0.007945	45.1469
0.008895	47.4164
0.010027	49.848
0.011249	52.5228
0.012517	54.7923
0.013875	56.7376
0.015187	58.6829
0.016817	60.7903
0.018424	62.8166
0.019782	64.3566
0.020959	65.3293
0.022204	66.3019
0.023358	67.7609
0.024399	68.8146
0.025644	69.6251
0.026821	70.922
0.027953	71.8946
0.03033	73.921
