Adsorption isotherm of Carbon Dioxide on Acticarbone
DOI: 10.1007/s10450-017-9927-9
Article source: Figure 2b
Adsorbate Carbon Dioxide: InChIKey CURLTUGMZLYLDI-UHFFFAOYSA-N
Kind: experiment
Temperature: 273 K
Tabular data in the source: 0
pressure (bar)	uptake (cm3(STP)/g)
0.000566	4.21479
0.00077	5.4306
0.001019	6.80851
0.0012	8.02432
0.001562	9.56434
0.002014	11.1854
0.002422	12.8875
0.003146	14.8328
0.003961	17.3455
0.004979	20.1824
0.005613	21.8845
0.006292	23.2624
0.007152	25.2077
0.007967	26.9098
0.008963	29.0172
0.010027	31.1246
0.011317	33.232
0.012607	35.3394
0.013943	37.6089
0.015142	39.7163
0.01684	42.229
0.018424	44.5795
0.01976	46.2817
0.02105	47.9838
0.022204	49.6049
0.023381	51.0638
0.02449	52.6849
0.025712	53.9818
0.026821	55.4407
0.027976	56.5755
0.029175	58.0344
0.030307	59.3313
