Adsorption isotherm of Nitrogen on F200
DOI: 10.1007/s10450-017-9927-9
Article source: Figure 2a
Adsorbate Nitrogen: InChIKey IJGRMHOSHXDMSA-UHFFFAOYSA-N
Kind: experiment
Temperature: 77 K
Tabular data in the source: 0
pressure (bar)	uptake (cm3(STP)/g)
0.00308	141.564
0.00308	126.749
0.00462	152.263
0.007699	160.905
0.010779	168.724
0.016169	171.605
0.027718	181.481
0.041577	186.008
0.050816	189.3
0.060056	190.947
0.067755	192.593
0.075455	193.416
0.087774	195.885
0.103173	197.531
0.113952	198.354
0.130121	199.588
0.15014	201.646
0.168618	203.292
0.191717	204.115
0.210195	204.938
0.258702	209.053
0.28796	209.877
0.316448	211.523
0.369574	213.169
0.405762	214.815
0.455809	216.461
0.508165	219.753
0.558981	220.988
0.606718	220.576
0.660614	223.045
0.709121	224.691
0.760707	227.984
0.811524	231.687
0.859261	233.745
0.909307	239.095
0.960894	247.325
0.410382	216.049
0.509705	222.222
0.558981	223.457
0.58054	224.691
0.608258	225.926
0.634436	227.16
0.659074	227.984
0.683713	228.807
0.707581	230.864
0.733759	232.099
0.762247	233.745
0.787656	234.979
0.811524	237.037
0.836932	239.506
0.86234	241.564
0.889289	243.621
0.913157	247.737
0.939335	251.852
0.954734	253.086
0.970133	255.967
0.985532	258.025
1.00324	260.905
