Adsorption isotherm of Nitrogen on Acticarbone
DOI: 10.1007/s10450-017-9927-9
Article source: Figure 2a
Adsorbate Nitrogen: InChIKey IJGRMHOSHXDMSA-UHFFFAOYSA-N
Kind: experiment
Temperature: 77 K
Tabular data in the source: 0
pressure (bar)	uptake (cm3(STP)/g)
0.013859	191.77
0.025408	205.35
0.040037	218.107
0.043117	219.753
0.048507	223.868
0.056206	228.395
0.063906	232.51
0.072375	237.449
0.081614	241.152
0.089314	243.621
0.091624	245.267
0.105483	251.029
0.113182	253.909
0.127041	258.025
0.14398	263.786
0.164769	269.959
0.187867	276.132
0.206346	279.424
0.277951	293.416
0.306439	297.942
0.315678	299.177
0.370344	306.996
0.402682	310.288
0.456578	315.638
0.505085	320.165
0.558981	323.457
0.606718	327.16
0.659844	330.864
0.707581	333.745
0.760707	336.626
0.809984	339.918
0.860801	345.267
0.910077	349.383
0.962434	357.202
0.983222	359.259
0.511245	339.918
0.557441	342.387
0.58208	343.21
0.606718	344.856
0.632896	345.679
0.659844	346.914
0.682943	347.737
0.707581	348.971
0.733759	349.383
0.759168	351.029
0.786116	352.263
0.809984	353.086
0.834622	353.909
0.86157	354.733
0.887749	356.79
0.910847	358.025
0.941645	360.082
0.950884	361.317
0.967053	361.728
0.983992	363.786
0.999391	366.255
