Adsorption isotherm of Nitrogen on MIL-53(Al)
DOI: 10.1039/C4ra07030e
Adsorbate Nitrogen: InChIKey IJGRMHOSHXDMSA-UHFFFAOYSA-N
Temperature: 77 K
Tabular data in the source: 0
pressure (bar)	uptake (cm3(STP)/g)
0.00316682	205.438
0.0158414	225.828
0.0456255	233.95
0.0860841	237.975
0.120144	243.369
0.152109	241.964
0.186183	244.637
0.222388	247.308
0.264984	249.969
0.301196	251.279
0.337408	252.589
0.371475	256.623
0.414079	257.924
0.450284	260.594
0.486489	263.264
0.520563	265.938
0.556774	267.247
0.599364	271.269
0.631314	272.585
0.665374	277.98
0.707963	282.002
0.748422	286.027
0.786743	291.415
0.829324	296.798
0.869761	304.904
0.901669	314.384
0.92293	322.517
0.942048	333.375
0.961157	345.593
0.97389	355.099
