Adsorption isotherm of Nitrogen on NH2-MIL-53(Al)
DOI: 10.1039/C4ra07030e
Adsorbate Nitrogen: InChIKey IJGRMHOSHXDMSA-UHFFFAOYSA-N
Temperature: 77 K
Tabular data in the source: 0
pressure (bar)	uptake (cm3(STP)/g)
0.00426105	99.3138
0.0127832	114.268
0.0319579	126.486
0.0468716	133.268
0.0703074	141.398
0.0958737	144.083
0.125701	149.484
0.151268	152.169
0.183225	154.845
0.213052	158.885
0.240749	161.568
0.264185	164.256
0.268447	161.529
0.298274	165.569
0.321709	168.257
0.353667	169.573
0.379234	174.979
0.411192	176.295
0.443149	180.332
0.475107	184.369
0.504935	184.327
0.532632	187.009
0.562459	192.41
0.590156	192.371
0.622114	195.047
0.651941	199.087
0.683899	200.403
0.711596	205.806
0.735032	207.134
0.76699	208.45
0.788295	215.223
0.807469	217.917
0.833036	227.405
0.858602	235.532
0.88843	245.014
0.903344	254.517
0.920387	264.017
0.941692	274.872
0.960867	289.811
