Adsorption isotherm of Methane on NH2-MIL-53(Al)
DOI: 10.1039/C4ra07030e
Adsorbate Methane: InChIKey VNWKTOKETHGBQD-UHFFFAOYSA-N
Temperature: 303 K
Tabular data in the source: 0
pressure (bar)	uptake (mmol/g)
0.0642398	0.131962
0.963597	0.191888
1.99143	0.266654
2.99786	0.341389
3.98287	0.533308
4.98929	0.681303
5.9743	0.78531
7.00214	0.88938
8.00857	1.13994
8.99358	1.18534
10	1.26007
