Adsorption isotherm of Carbon Dioxide on MIL-53(Al)
DOI: 10.1039/C4ra07030e
Adsorbate Carbon Dioxide: InChIKey CURLTUGMZLYLDI-UHFFFAOYSA-N
Temperature: 303 K
Tabular data in the source: 0
pressure (bar)	uptake (mmol/g)
0.0230256	0.291971
0.991275	0.773723
1.9802	1.10949
2.99019	1.37226
3.97959	1.79562
4.96852	2.13139
5.99997	2.39416
7.01114	2.87591
8.02082	3.08029
9.00982	3.43066
10.0191	3.56204
