Adsorption isotherm of Carbon Dioxide on NH2-MIL-53(Al)
DOI: 10.1039/C4ra07030e
Adsorbate Carbon Dioxide: InChIKey CURLTUGMZLYLDI-UHFFFAOYSA-N
Temperature: 303 K
Tabular data in the source: 0
pressure (bar)	uptake (mmol/g)
0.042735	0.335766
1.00427	1.06569
1.98718	1.38686
2.99145	1.89781
3.97436	2.08759
4.97863	2.37956
5.96154	2.51095
6.98718	2.70073
7.99145	2.87591
8.95299	3.12409
9.95726	3.22628
