Adsorption isotherm of Methane on Al-MIL-53
DOI: 10.1039/C4ra07030e
Adsorbate Methane: InChIKey VNWKTOKETHGBQD-UHFFFAOYSA-N
Temperature: 303 K
Tabular data in the source: 0
pressure (bar)	uptake (mmol/g)
0.0437796	0.16052
0.966989	0.246764
1.99734	0.303654
2.98516	0.433598
3.97322	0.607338
4.98273	0.781047
5.97016	0.838
6.97936	0.953315
8.01096	1.24378
9.02001	1.3299
10.0072	1.34306
