Adsorption isotherm of Nitrogen on {[Co(dcpy)(bipy)0.5(H2O)]*H2O}
DOI: 10.1039/C2ce06372g
Adsorbate Nitrogen: InChIKey IJGRMHOSHXDMSA-UHFFFAOYSA-N
Temperature: 77 K
Tabular data in the source: 0
pressure (bar)	uptake (cm3(STP)/g)
0.00372489	3.16075
0.015166	5.33457
0.0609306	6.02104
0.105265	6.70751
0.141019	7.16515
0.185353	7.85162
0.249709	8.6525
0.35554	9.45338
0.45136	10.1399
0.547179	10.4831
0.645859	11.1696
0.75026	12.0848
0.824627	12.6569
0.880403	13.0001
0.930458	13.6866
0.95191	14.4875
0.980513	15.5172
0.996244	17.0045
