Adsorption isotherm of Hydrogen on {[Co(dcpy)(bipy)0.5(H2O)]*H2O}
DOI: 10.1039/C2ce06372g
Adsorbate Hydrogen: InChIKey UFHFLCQGNIYNRP-UHFFFAOYSA-N
Temperature: 77 K
Tabular data in the source: 0
pressure (bar)	uptake (cm3(STP)/g)
0.00296976	4.22688
0.00446271	13.6635
0.0119275	24.086
0.0164064	35.6353
0.0328289	47.3255
0.0611951	63.5227
0.0880683	70.0015
0.114942	74.2269
0.180632	78.8748
0.273195	83.241
0.368744	87.0438
0.465787	90.1424
0.550885	92.8184
0.640463	94.7903
0.736012	96.7621
0.822604	98.0297
0.915167	99.2973
1.00922	100.424
1.05849	101.128
