Adsorption isotherm of Carbon Dioxide on {[Co(dcpy)(bipy)0.5(H2O)]*H2O}
DOI: 10.1039/C2ce06372g
Adsorbate Carbon Dioxide: InChIKey CURLTUGMZLYLDI-UHFFFAOYSA-N
Temperature: 195 K
Tabular data in the source: 0
pressure (bar)	uptake (cm3(STP)/g)
0.00515504	1.44458
0.00658518	20.6657
0.015166	28.2169
0.0537799	38.6283
0.123857	44.9209
0.229687	50.5271
0.325507	53.9594
0.424187	56.9341
0.524297	60.4809
0.628697	63.9132
0.730238	67.5744
0.826057	70.7779
0.878972	72.4941
0.929027	74.4391
0.977652	76.2697
