Adsorption isotherm of Nitrogen on {[Co(dcpy)(bipy)0.5(H2O)]*H2O}
DOI: 10.1039/C2ce06372g
Adsorbate Nitrogen: InChIKey IJGRMHOSHXDMSA-UHFFFAOYSA-N
Temperature: 293 K
Tabular data in the source: 0
pressure (bar)	uptake (cm3(STP)/g)
0.0178993	0.0569478
0.0373078	0.338638
0.0880683	0.733004
0.125392	1.12737
0.162716	1.35272
0.201533	1.29638
0.307533	1.69075
0.353815	1.80343
0.407561	1.9161
0.504604	2.02878
0.604632	2.42315
0.707646	2.59216
0.804688	2.81751
0.858435	2.98653
0.903223	3.21188
0.955477	3.38089
0.979364	3.38089
