Adsorption isotherm of Carbon Dioxide on {[Co(dcpy)(bipy)0.5(H2O)]*H2O}
DOI: 10.1039/C2ce06372g
Adsorbate Carbon Dioxide: InChIKey CURLTUGMZLYLDI-UHFFFAOYSA-N
Temperature: 273 K
Tabular data in the source: 0
pressure (bar)	uptake (cm3(STP)/g)
0.00894159	0.2823
0.0119275	7.66258
0.0223782	11.6626
0.0402937	15.0992
0.0731388	17.6344
0.138829	20.5077
0.235871	23.3246
0.340378	25.9161
0.444885	28.1133
0.546406	30.3105
0.650913	32.4513
0.753928	34.4231
0.822604	35.7753
0.89128	37.0147
0.961449	38.3668
1.02714	39.4936
