Adsorption isotherm of Carbon Dioxide on {[Co(dcpy)(bipy)0.5(H2O)]*H2O}
DOI: 10.1039/C2ce06372g
Adsorbate Carbon Dioxide: InChIKey CURLTUGMZLYLDI-UHFFFAOYSA-N
Temperature: 293 K
Tabular data in the source: 0
pressure (bar)	uptake (cm3(STP)/g)
0.0134205	4.00061
0.02835	7.88793
0.0611951	11.1555
0.0970261	13.5217
0.143308	15.2682
0.231392	17.2964
0.334406	19.3809
0.443392	21.4654
0.547899	23.5499
0.647928	25.5217
0.75542	27.4936
0.855449	29.24
0.924125	30.6485
0.995787	32.0569
1.03012	32.6767
