Adsorption isotherm of Methane on {[Co(dcpy)(bipy)0.5(H2O)]*H2O}
DOI: 10.1039/C2ce06372g
Adsorbate Methane: InChIKey VNWKTOKETHGBQD-UHFFFAOYSA-N
Temperature: 293 K
Tabular data in the source: 0
pressure (bar)	uptake (cm3(STP)/g)
0.0100122	0.0930284
0.0342674	0.436263
0.0903576	0.893909
0.144932	1.29435
0.182831	1.46597
0.248017	1.52317
0.358681	1.58038
0.451154	1.58038
0.549691	1.58038
0.652776	1.58038
0.757376	1.58038
0.824078	1.52317
0.875621	1.69479
0.927163	1.63758
0.95445	1.58038
