Adsorption isotherm of Carbon Dioxide on (H3O)4[Ni6(pi3-O)2(pi2-OSC2H6)2(SO4)2(TATB)8/3].4C2H6O.13H2O
DOI: 10.1021/acs.inorgchem.5b00316
Article source: Figure 2a
Adsorbate Carbon Dioxide: InChIKey CURLTUGMZLYLDI-UHFFFAOYSA-N
Kind: experiment
Temperature: 297 K
Tabular data in the source: 0
pressure (bar)	uptake (cm3(STP)/g)
0	0
0.007637	0.78226
0.045822	4.69356
0.07637	7.8226
0.110746	11.7311
0.137467	14.0807
0.148913	14.8657
0.183289	18.7743
0.213818	21.1266
0.232921	23.4706
0.248176	24.2584
0.274879	25.8312
0.286324	26.6163
0.320663	28.9714
0.355003	31.3265
0.370276	32.891
0.389341	33.6816
0.416062	36.0311
0.431299	36.0422
0.4656	36.8439
0.503768	39.9785
0.53426	40.7774
0.549497	40.7885
0.564771	42.353
0.595283	43.9286
0.641013	44.7386
0.667714	46.3115
0.686761	46.3254
0.705845	47.8926
0.728719	48.686
0.743973	49.4738
0.778276	50.2755
0.812615	52.6306
0.824043	52.6389
0.846898	52.6556
0.877391	53.4545
0.900247	53.4711
0.915502	54.2589
0.949805	55.0606
0.984106	55.8623
0.991744	56.6445
1.01843	57.4407
1.05273	58.2423
