Adsorption isotherm of Carbon Dioxide on (H3O)4[Ni6(pi3-O)2(pi2-OSC2H6)2(SO4)2(TATB)8/3].4C2H6O.13H2O
DOI: 10.1021/acs.inorgchem.5b00316
Article source: Figure 2a
Adsorbate Carbon Dioxide: InChIKey CURLTUGMZLYLDI-UHFFFAOYSA-N
Kind: experiment
Temperature: 273 K
Tabular data in the source: 0
pressure (bar)	uptake (cm3(STP)/g)
0	0
0.011347	2.32706
0.049168	12.4028
0.079426	20.1542
0.113466	26.3624
0.147505	32.5707
0.181545	37.233
0.215585	41.8954
0.249625	45.7848
0.283665	48.9012
0.321487	52.0204
0.355527	54.3639
0.393348	57.4831
0.427388	59.8266
0.461427	62.1701
0.495467	64.5137
0.529507	66.0842
0.555982	67.6493
0.567329	67.6575
0.601369	69.2281
0.635409	70.7986
0.669449	73.1422
0.699706	73.937
0.733746	75.5076
0.77535	77.0836
0.805607	77.8785
0.820736	78.6624
0.839647	79.4491
0.873687	79.4737
0.892599	80.2604
0.911509	81.047
0.937984	81.8392
0.972024	82.6368
0.987153	82.6478
1.00985	83.4371
1.04767	84.2375
