Adsorption isotherm of Methane on (H3O)4[Ni6(pi3-O)2(pi2-OSC2H6)2(SO4)2(TATB)8/3].4C2H6O.13H2O
DOI: 10.1021/acs.inorgchem.5b00316
Article source: Figure 2b
Adsorbate Methane: InChIKey VNWKTOKETHGBQD-UHFFFAOYSA-N
Kind: experiment
Temperature: 297 K
Tabular data in the source: 0
pressure (bar)	uptake (cm3(STP)/g)
0	0
0.015228	4.06091
0.022862	6.59898
0.056973	11.6751
0.075912	14.2132
0.094833	16.2437
0.109966	17.7665
0.132655	19.797
0.147769	20.8122
0.174227	22.8426
0.200723	25.8883
0.23095	27.9188
0.249833	28.934
0.276253	29.9492
0.321556	31.9797
0.351744	32.9949
0.378184	34.5178
0.408392	36.0406
0.472538	38.0711
0.472596	39.5939
0.540473	40.6091
0.540512	41.6244
0.604658	43.6548
0.668805	45.6853
0.74047	47.2081
0.812155	49.2386
0.834767	49.2386
0.857419	50.2538
0.895145	51.269
0.917758	51.269
0.947947	52.2843
0.966791	52.2843
1.01584	53.8071
