Adsorption isotherm of Ethene on (H3O)4[Ni6(pi3-O)2(pi2-OSC2H6)2(SO4)2(TATB)8/3].4C2H6O.13H2O
DOI: 10.1021/acs.inorgchem.5b00316
Article source: Figure 2b
Adsorbate Ethene: InChIKey VGGSQFUCUMXWEO-UHFFFAOYSA-N
Kind: experiment
Temperature: 297 K
Tabular data in the source: 0
pressure (bar)	uptake (cm3(STP)/g)
0	0
0.011615	3.54777
0.026858	5.06336
0.045922	7.08474
0.072589	9.61012
0.087871	11.6333
0.103114	13.1489
0.118396	15.1721
0.15637	17.1845
0.179216	19.204
0.198165	19.7026
0.21719	21.2164
0.232357	21.7168
0.258947	23.227
0.274189	24.7426
0.281754	24.739
0.2931	24.7336
0.323509	26.7496
0.361408	27.7468
0.391741	28.7476
0.422073	29.7484
0.437279	30.7564
0.471395	31.7553
0.490381	32.7615
0.53206	33.7569
0.543446	34.2591
0.592805	36.7737
0.649612	37.7619
0.702676	39.2595
0.759522	40.7553
0.816368	42.2511
0.835317	42.7497
0.873176	43.2393
0.892163	44.2454
0.922419	44.231
0.937624	45.239
0.945189	45.2354
0.960317	45.2282
1.02094	46.7222
