Adsorption isotherm of Ethane on (H3O)4[Ni6(pi3-O)2(pi2-OSC2H6)2(SO4)2(TATB)8/3].4C2H6O.13H2O
DOI: 10.1021/acs.inorgchem.5b00316
Article source: Figure 2b
Adsorbate Ethane: InChIKey OTMSDBZUPAUEDD-UHFFFAOYSA-N
Kind: experiment
Temperature: 273 K
Tabular data in the source: 0
pressure (bar)	uptake (cm3(STP)/g)
0	0
0.007538	4.59184
0.015075	9.69388
0.030151	13.7755
0.045226	16.8367
0.052764	19.898
0.06407	21.9388
0.09799	27.551
0.105527	25.5102
0.143215	31.1224
0.150753	32.1429
0.173366	35.2041
0.195979	36.7347
0.218593	38.7755
0.244975	40.8163
0.260049	43.3673
0.286431	42.8571
0.327888	44.898
0.331657	47.9592
0.350502	47.449
0.376884	47.9592
0.399496	50.5102
0.407033	50.5102
0.463566	52.0408
0.471104	54.0816
0.535173	55.6122
0.599244	57.1429
0.606782	58.1633
0.659546	59.6939
0.670851	58.6735
0.738691	61.7347
0.814068	63.2653
0.84045	63.2653
0.859293	63.2653
0.896982	64.2857
0.912057	64.2857
0.945977	65.3061
0.961052	65.3061
1.01382	66.3265
