Adsorption isotherm of Acetylene on (H3O)4[Ni6(pi3-O)2(pi2-OSC2H6)2(SO4)2(TATB)8/3].4C2H6O.13H2O
DOI: 10.1021/acs.inorgchem.5b00316
Article source: Figure 2b
Adsorbate Acetylene: InChIKey HSFWRNGVRCDJHI-UHFFFAOYSA-N
Kind: experiment
Temperature: 297 K
Tabular data in the source: 0
pressure (bar)	uptake (cm3(STP)/g)
0	0
0.011306	1.53061
0.015075	8.16327
0.026382	5.10204
0.041457	8.67347
0.045226	13.2653
0.06407	10.7143
0.075377	17.3469
0.082914	13.7755
0.09799	20.9184
0.101758	14.7959
0.113065	17.3469
0.124371	23.4694
0.131909	18.8776
0.150753	26.0204
0.177135	22.449
0.180904	28.0612
0.199748	26.0204
0.229898	27.551
0.233667	32.1429
0.260049	30.102
0.282662	31.1224
0.2902	36.7347
0.309044	33.1633
0.32412	33.6735
0.346733	39.2857
0.373115	36.7347
0.403264	41.8367
0.407033	38.2653
0.456028	41.3265
0.459797	44.898
0.512561	43.3673
0.51633	47.449
0.569093	49.4898
0.572862	46.4286
0.621857	48.4694
0.625626	51.5306
0.682159	54.0816
0.685928	51.0204
0.731153	53.5714
0.738691	55.6122
0.791455	55.6122
0.829142	58.6735
0.84045	57.6531
0.885675	59.6939
0.90075	59.6939
0.938439	61.2245
0.957283	61.2245
1.01758	63.2653
