Adsorption isotherm of Hydrogen on (H3O)4[Ni6(pi3-O)2(pi2-OSC2H6)2(SO4)2(TATB)8/3].4C2H6O.13H2O
DOI: 10.1021/acs.inorgchem.5b00316
Article source: Figure 2a
Adsorbate Hydrogen: InChIKey UFHFLCQGNIYNRP-UHFFFAOYSA-N
Kind: experiment
Temperature: 77 K
Tabular data in the source: 0
pressure (bar)	uptake (cm3(STP)/g)
0	0
0.011749	17.0133
0.019459	23.2025
0.019569	27.8403
0.023443	31.7078
0.031062	34.0322
0.034936	37.8997
0.042592	41.77
0.050229	44.8673
0.061649	47.9674
0.069323	52.6106
0.084525	55.7134
0.088381	58.808
0.103583	61.9108
0.122622	67.3352
0.145444	72.7624
0.164446	76.6409
0.187213	79.7492
0.210035	85.1764
0.259368	92.1686
0.30872	99.9339
0.358017	105.38
0.411097	110.829
0.464158	115.505
0.509655	120.176
0.562698	124.079
0.615741	127.982
0.665001	131.883
0.714244	135.01
0.763505	138.911
0.820311	142.044
0.846824	143.609
0.869536	144.398
0.892267	145.961
0.926342	147.531
0.96042	149.102
0.979349	149.888
0.994516	151.445
1.01343	151.459
1.03237	153.019
