Adsorption isotherm of Methane on (H3O)4[Ni6(pi3-O)2(pi2-OSC2H6)2(SO4)2(TATB)8/3].4C2H6O.13H2O
DOI: 10.1021/acs.inorgchem.5b00316
Article source: Figure 2b
Adsorbate Methane: InChIKey VNWKTOKETHGBQD-UHFFFAOYSA-N
Kind: experiment
Temperature: 297 K
Tabular data in the source: 0
pressure (bar)	uptake (cm3(STP)/g)
0	0
0.01891	0.009
0.056769	0.480596
0.087103	1.48139
0.113615	1.97638
0.155257	2.46418
0.177949	2.45338
0.208282	3.45417
0.246141	3.94377
0.283962	3.92577
0.318077	4.92476
0.352115	4.90856
0.371064	5.40716
0.427871	6.39535
0.480859	6.87774
0.533847	7.36014
0.590615	7.84074
0.643642	8.83073
0.696589	8.80553
0.745833	9.79732
0.802603	10.2779
0.844205	10.2581
0.904795	11.2445
0.938833	11.2283
0.961526	11.2175
1.01837	12.7133
