Adsorption isotherm of Ethene on (H3O)4[Ni6(pi3-O)2(pi2-OSC2H6)2(SO4)2(TATB)8/3].4C2H6O.13H2O
DOI: 10.1021/acs.inorgchem.5b00316
Article source: Figure 2b
Adsorbate Ethene: InChIKey VGGSQFUCUMXWEO-UHFFFAOYSA-N
Kind: experiment
Temperature: 273 K
Tabular data in the source: 0
pressure (bar)	uptake (cm3(STP)/g)
0	0
0.007511	3.05404
0.018778	6.10448
0.026289	9.66873
0.045067	14.2426
0.0676	17.2823
0.090133	20.3219
0.131445	24.8742
0.150222	25.8767
0.165245	28.9235
0.202801	30.4182
0.221578	33.4615
0.262889	34.4424
0.274156	36.9826
0.292933	36.9646
0.326733	39.4833
0.349267	39.4618
0.386823	42.4871
0.43189	44.4848
0.488223	46.9819
0.537045	48.976
0.593378	50.9629
0.645956	51.933
0.698535	53.4133
0.747356	55.4074
0.799934	57.398
0.83749	57.8722
0.87129	57.8399
0.927624	59.3166
0.950157	59.2951
1.014	60.7646
