Adsorption isotherm of Methane on (H3O)4[Ni6(pi3-O)2(pi2-OSC2H6)2(SO4)2(TATB)8/3].4C2H6O.13H2O
DOI: 10.1021/acs.inorgchem.5b00316
Article source: Figure 2b
Adsorbate Methane: InChIKey VNWKTOKETHGBQD-UHFFFAOYSA-N
Kind: experiment
Temperature: 273 K
Tabular data in the source: 0
pressure (bar)	uptake (cm3(STP)/g)
0	0
0.064487	2.50738
0.091	3.00238
0.121295	3.49557
0.144025	3.99237
0.178103	4.48376
0.212217	5.48276
0.238731	5.97775
0.265244	6.47275
0.284191	6.97134
0.314487	7.46454
0.34482	8.46533
0.378897	8.95673
0.401628	9.45352
0.458397	9.93412
0.511461	11.4317
0.560705	12.4235
0.591038	13.4243
0.617512	13.4117
0.666717	13.8959
0.69323	14.3909
0.738654	14.8769
0.750038	15.3791
0.806846	16.3673
0.83714	16.8605
0.874961	16.8425
0.886346	17.3447
0.93559	18.3365
0.946897	17.8235
1.01887	19.312
