Adsorption isotherm of Acetylene on (H3O)4[Ni6(pi3-O)2(pi2-OSC2H6)2(SO4)2(TATB)8/3].4C2H6O.13H2O
DOI: 10.1021/acs.inorgchem.5b00316
Article source: Figure 2b
Adsorbate Acetylene: InChIKey HSFWRNGVRCDJHI-UHFFFAOYSA-N
Kind: experiment
Temperature: 273 K
Tabular data in the source: 0
pressure (bar)	uptake (cm3(STP)/g)
0	0
0.007538	5.58017
0.011306	12.685
0.018844	9.12809
0.026382	17.7539
0.033919	16.2275
0.041457	21.8077
0.052764	18.7566
0.06407	21.2893
0.067839	27.8865
0.09799	32.4407
0.101758	27.8704
0.120603	29.8918
0.124371	36.489
0.139447	32.4209
0.154522	40.5356
0.16206	35.4559
0.173366	43.0647
0.192211	37.9796
0.218593	41.5203
0.229898	49.1292
0.248742	45.0593
0.275124	47.0772
0.286431	53.1632
0.316582	50.1031
0.350502	57.7012
0.376884	54.643
0.403264	61.2294
0.459797	59.6796
0.512561	67.7764
0.520099	63.2042
0.569093	69.7799
0.572862	66.7324
0.621857	69.7548
0.625626	73.3063
0.682159	75.3099
0.734922	77.3152
0.791455	79.8264
0.795223	77.7941
0.829142	80.316
0.847986	79.2919
0.885675	82.3196
0.90075	81.2972
0.938439	83.8173
0.961052	83.299
1.01758	85.8101
