Adsorption isotherm of Nitrogen on CuBTC
DOI: 10.1039/C2ce26636a
Adsorbate Nitrogen: InChIKey IJGRMHOSHXDMSA-UHFFFAOYSA-N
Temperature: 77 K
Tabular data in the source: 0
pressure (bar)	uptake (cm3(STP)/g)
0.0112524	125.708
0.0323791	130.99
0.0689988	135.567
0.119703	138.384
0.199985	141.201
0.298576	142.609
0.401393	143.666
0.498576	144.37
0.599985	146.483
0.694351	147.891
0.799985	149.3
0.850689	151.06
0.902802	153.877
0.947872	160.919
0.970407	173.595
0.987309	211.271
