Adsorption isotherm of Nitrogen on MIL-100(Fe)
DOI: 10.1039/C2ce26636a
Adsorbate Nitrogen: InChIKey IJGRMHOSHXDMSA-UHFFFAOYSA-N
Temperature: 77 K
Tabular data in the source: 0
pressure (bar)	uptake (cm3(STP)/g)
0.00372489	0.751171
0.00372489	40.7952
0.00372489	76.5488
0.0180263	91.1362
0.0437689	105.438
0.0966842	123.743
0.141019	132.61
0.202515	137.759
0.301195	141.477
0.399875	144.91
0.495694	149.486
0.595804	154.349
0.697344	159.211
0.797454	161.785
0.867531	162.929
0.914726	165.504
0.941899	167.506
0.967641	173.512
0.983373	187.528
