Adsorption isotherm of Hydrogen on C51H33NO12Zn2
DOI: 10.1002/anie.201003377
Adsorbate Hydrogen: InChIKey UFHFLCQGNIYNRP-UHFFFAOYSA-N
Temperature: 77 K
Tabular data in the source: 0
pressure (bar)	uptake (wt%)
0.0399289	0.162393
0.0544961	0.247863
0.112426	0.401709
0.163057	0.504274
0.21007	0.598291
0.260685	0.692308
0.314858	0.760684
0.365428	0.82906
0.412348	0.871795
0.462871	0.91453
0.513394	0.957265
0.567536	1.00855
0.614441	1.04274
0.664933	1.06838
0.719045	1.10256
0.762331	1.12821
0.820061	1.17094
0.859712	1.17949
0.913824	1.21368
0.96795	1.25641
1.01481	1.26496
