Adsorption isotherm of Nitrogen on C55H43NO12Zn2
DOI: 10.1002/anie.201003377
Adsorbate Nitrogen: InChIKey IJGRMHOSHXDMSA-UHFFFAOYSA-N
Temperature: 77 K
Tabular data in the source: 0
pressure (bar)	uptake (cm3(STP)/g)
0.00720661	0.00720661
0.0108099	112.766
0.0144132	217.021
0.0180165	261.702
0.0216198	282.979
0.0288265	297.872
0.0396364	308.511
0.0576529	319.149
0.0756695	323.404
0.104496	331.915
0.154942	340.426
0.205389	346.809
0.259438	351.064
0.309884	353.191
0.356727	357.447
0.417984	359.574
0.461223	363.83
0.515273	365.957
0.562116	368.085
0.612562	370.213
0.663009	374.468
0.709852	374.468
0.763901	376.596
0.814347	378.723
0.864794	380.851
0.911637	382.979
0.965686	385.106
1.01253	397.872
