Adsorption isotherm of Nitrogen on C51H33NO12Zn2
DOI: 10.1002/anie.201003377
Adsorbate Nitrogen: InChIKey IJGRMHOSHXDMSA-UHFFFAOYSA-N
Temperature: 77 K
Tabular data in the source: 0
pressure (bar)	uptake (cm3(STP)/g)
0.00279977	0.00279977
0.00839931	309.718
0.0139988	328.385
0.0167986	345.182
0.0251979	361.989
0.036397	388.13
0.0475961	418.002
0.0671945	436.696
0.0979919	451.681
0.142788	459.229
0.181985	455.573
0.209983	455.627
0.24638	457.563
0.307975	463.278
0.349971	467.09
0.377969	467.144
0.417166	467.219
0.450763	471.015
0.48156	474.805
0.509558	472.993
0.537556	473.047
0.565553	473.101
0.593551	473.155
0.674744	475.176
0.702742	475.23
0.750338	477.187
0.778336	477.241
0.806334	477.295
0.834331	477.348
0.879128	479.3
0.907125	479.354
0.935123	479.408
