Adsorption isotherm of Nitrogen on C51H33NO12Zn2
DOI: 10.1002/anie.201003377
Adsorbate Nitrogen: InChIKey IJGRMHOSHXDMSA-UHFFFAOYSA-N
Temperature: 77 K
Tabular data in the source: 0
pressure (bar)	uptake (cm3(STP)/g)
0.00720661	0.00720661
0.0108099	244.681
0.0144132	327.66
0.0180165	282.979
0.0252232	380.851
0.0396364	393.617
0.0612562	406.383
0.0792728	412.766
0.108099	417.021
0.162149	427.66
0.208992	429.787
0.259438	434.043
0.309884	436.17
0.360331	440.426
0.41438	442.553
0.461223	444.681
0.51167	446.809
0.562116	448.936
0.659405	451.064
0.713455	453.191
0.760298	457.447
0.810744	455.319
0.86119	461.702
0.911637	461.702
0.962083	463.83
1.00893	468.085
