Adsorption isotherm of Hydrogen on C55H43NO12Zn2
DOI: 10.1002/anie.201003377
Adsorbate Hydrogen: InChIKey UFHFLCQGNIYNRP-UHFFFAOYSA-N
Temperature: 77 K
Tabular data in the source: 0
pressure (bar)	uptake (wt%)
0.0616719	0.230769
0.112365	0.367521
0.159362	0.452991
0.213565	0.538462
0.260516	0.598291
0.307467	0.65812
0.358021	0.717949
0.412132	0.752137
0.46264	0.786325
0.516767	0.82906
0.563702	0.880342
0.614195	0.905983
0.664703	0.940171
0.718798	0.965812
0.765688	0.991453
0.81618	1.01709
0.866673	1.04274
0.917181	1.07692
0.964054	1.09402
1.01094	1.11966
