Adsorption isotherm of Nitrogen on C55H43NO12Zn2
DOI: 10.1002/anie.201003377
Adsorbate Nitrogen: InChIKey IJGRMHOSHXDMSA-UHFFFAOYSA-N
Temperature: 77 K
Tabular data in the source: 0
pressure (bar)	uptake (cm3(STP)/g)
0.00137274	269.343
0.00835579	291.654
0.0174477	305.033
0.0199146	322.886
0.0315332	358.583
0.0477076	401.713
0.0701091	410.607
0.0990957	412.051
0.146027	422.395
0.175054	426.815
0.212993	431.221
0.257537	429.665
0.308826	432.563
0.375653	430.972
0.449203	432.348
0.500452	432.269
0.569547	433.651
0.658715	436.491
0.772334	434.829
0.888181	433.163
0.966168	433.044
