Adsorption isotherm of Argon on CuBTC
DOI: 10.1021/cm503640c
Article source: Figure S3b
Adsorbate Argon: InChIKey XKRFYHLGVUSROY-UHFFFAOYSA-N
Kind: experiment
Temperature: 87 K
Tabular data in the source: 0
pressure (bar)	uptake (cm3(STP)/g)
0.0019	133.013
0.004513	158.654
0.017577	171.474
0.022803	177.885
0.046318	184.295
0.075059	189.103
0.098575	192.308
0.12209	197.115
0.148219	200.321
0.174347	203.526
0.200475	205.128
0.226603	208.333
0.252732	209.936
0.276247	213.141
0.302375	216.346
0.325891	219.551
0.349406	221.154
0.378147	222.756
0.401663	225.962
0.427791	227.564
0.453919	230.769
0.477435	232.372
0.50095	235.577
0.527078	240.385
0.553207	241.987
0.576722	246.795
0.600238	248.397
0.626366	251.603
0.652494	256.41
0.673397	259.615
0.67601	270.833
0.699525	266.026
0.728266	283.654
0.730879	272.436
0.749169	278.846
0.754394	293.269
0.775297	288.462
0.798812	326.923
0.824941	314.103
0.827553	366.987
0.845843	328.526
0.851069	439.103
0.871971	355.769
0.877197	475.962
0.8981	395.833
0.900713	485.577
0.924228	450.321
0.929454	491.987
0.950356	490.385
0.952969	498.397
0.971259	501.603
0.98171	504.808
