Adsorption isotherm of Nitrogen on CAU-1-NH2
DOI: 10.1021/cm503640c
Article source: Figure S3c
Adsorbate Nitrogen: InChIKey IJGRMHOSHXDMSA-UHFFFAOYSA-N
Kind: experiment
Temperature: 77 K
Tabular data in the source: 0
pressure (bar)	uptake (cm3(STP)/g)
0.004002	43.3331
0.005075	31.1636
0.009634	67.6378
0.011762	84.6591
0.014336	126.008
0.014497	106.544
0.016768	145.461
0.023312	177.06
0.025743	196.513
0.026798	225.704
0.033342	257.303
0.03699	286.483
0.042318	308.356
0.043534	318.082
0.050847	335.081
0.054352	342.364
0.065332	347.181
0.070821	349.59
0.076615	354.43
0.087291	356.816
0.09827	361.633
0.1274	366.37
0.143261	368.733
0.151344	371.13
0.164613	373.505
0.177577	373.447
0.18566	375.844
0.198624	375.787
0.216775	375.707
0.222264	378.116
0.243312	380.455
0.253683	380.409
0.264055	380.364
0.279916	382.726
0.292881	382.669
0.305845	382.612
0.316217	382.566
0.326893	384.952
0.34245	384.883
0.358007	384.814
0.368379	384.768
0.38424	387.131
0.394612	387.085
0.404984	387.039
0.417948	386.982
0.428624	389.367
0.438995	389.322
0.457146	389.241
0.465228	391.638
0.483379	391.558
0.491157	391.524
0.507019	393.887
0.517694	396.272
0.530659	396.215
0.543623	396.158
0.556588	396.1
0.56696	396.054
0.582517	395.986
0.592889	395.94
0.605853	395.882
0.616225	395.836
0.629189	395.779
0.645051	398.142
0.655422	398.096
0.66549	395.619
0.67647	400.436
0.692027	400.367
0.704992	400.31
0.715363	400.264
0.728632	402.638
0.744189	402.569
0.757154	402.512
0.767525	402.466
0.780794	404.84
0.791165	404.794
0.807027	407.157
0.819991	407.1
0.830363	407.054
0.848513	406.974
0.8569	411.802
0.875354	414.154
0.901587	416.471
0.922938	421.242
0.954965	428.399
0.964567	442.955
0.977228	440.466
0.983164	467.202
0.985919	447.726
0.987277	479.349
0.991712	452.566
0.994894	498.778
1.0001	457.395
1.00772	476.825
1.00831	523.049
1.01272	537.627
1.01424	549.785
1.01671	486.517
1.01957	571.658
1.02291	598.406
1.02295	515.685
1.02372	501.084
1.02429	588.668
1.02676	525.4
1.02794	617.847
1.03148	542.41
1.03205	629.994
1.036	661.605
1.03677	647.003
1.03681	564.283
1.04092	576.429
1.04163	685.909
1.04366	598.314
1.04392	683.466
1.04956	707.771
1.04986	710.202
1.05127	617.744
1.05428	724.781
1.05519	732.075
1.05721	644.48
1.05859	634.742
1.05873	656.638
1.05995	666.365
1.06299	690.681
1.06923	719.849
1.06998	746.608
1.07745	744.142
1.08736	761.129
