Adsorption isotherm of Argon on TiO2
DOI: 10.1021/cm503640c
Article source: Figure S3d
Adsorbate Argon: InChIKey XKRFYHLGVUSROY-UHFFFAOYSA-N
Kind: experiment
Temperature: 87 K
Tabular data in the source: 0
pressure (bar)	uptake (cm3(STP)/g)
0.000765	1.72776
0.004376	5.9506
0.00588	7.71012
0.009997	9.4688
0.010695	13.3406
0.016316	16.8588
0.018724	19.674
0.019121	23.1939
0.019927	21.0816
0.028654	31.2868
0.035178	35.8607
0.040498	39.027
0.045818	42.1933
0.070218	52.3935
0.100949	60.8317
0.101551	61.5355
0.126058	65.7517
0.132787	67.5095
0.159907	71.7248
0.163121	72.4278
0.18994	76.2912
0.219371	80.1538
0.245589	83.3134
0.268291	85.4181
0.274418	86.4722
0.296819	88.225
0.302946	89.2791
0.325348	91.0319
0.331174	91.734
0.353876	93.8388
0.381502	95.5899
0.406516	97.3419
0.433239	98.0374
0.439065	98.7395
0.461466	100.492
0.462574	98.732
0.484373	99.781
0.485577	101.189
0.508785	100.829
0.509387	101.533
0.531993	100.47
0.532896	101.525
0.556706	101.87
0.580516	102.214
0.585138	101.509
0.60955	102.557
0.616483	101.499
0.630447	102.55
0.637982	102.196
0.656568	102.542
0.664404	102.539
0.682689	102.534
0.690525	102.531
0.706499	102.878
0.716947	102.875
0.730008	102.87
0.740456	102.867
0.756129	102.862
0.769491	103.21
0.782852	103.557
0.790688	103.555
0.806361	103.55
0.816809	103.547
0.82987	103.542
0.845844	103.889
0.861516	103.884
0.871965	103.881
0.885025	103.877
0.898387	104.225
0.908835	104.221
0.929732	104.214
0.940181	104.211
0.955853	104.206
0.969215	104.554
0.990112	104.547
1.01392	104.892
1.04064	105.587
1.06476	106.283
1.06998	106.282
