Adsorption isotherm of Argon on ZIF-8
DOI: 10.1021/cm503640c
Article source: Figure S3a
Adsorbate Argon: InChIKey XKRFYHLGVUSROY-UHFFFAOYSA-N
Kind: experiment
Temperature: 87 K
Tabular data in the source: 0
pressure (bar)	uptake (cm3(STP)/g)
0.002143	307.358
0.004762	335.027
0.007381	350.842
0.023095	358.801
0.049286	366.798
0.051905	370.758
0.070238	374.776
0.101667	382.791
0.125238	386.827
0.151429	390.873
0.177619	398.87
0.20119	398.954
0.222143	402.981
0.248333	407.026
0.274524	407.12
0.300714	411.166
0.324286	411.251
0.329524	450.783
0.350476	502.226
0.376667	419.341
0.379286	518.135
0.400238	419.426
0.402857	522.171
0.42381	522.246
0.45	427.508
0.473571	427.592
0.47619	534.289
0.499762	534.373
0.525952	538.419
0.549524	455.525
0.573095	487.22
0.575714	546.5
0.599286	550.536
0.601905	530.789
0.622857	550.621
0.628095	538.786
0.649048	546.764
0.651667	558.627
0.675238	558.712
0.677857	554.77
0.69881	554.845
0.701429	562.757
0.725	554.939
0.727619	562.851
0.748571	558.975
0.75119	570.839
0.774762	566.972
0.800952	590.774
0.803571	571.027
0.821905	598.752
0.829762	582.975
0.850714	587.002
0.876905	602.901
0.903095	622.752
0.905714	685.983
0.926667	662.351
0.929286	800.658
0.947619	729.599
0.955476	1045.74
0.97119	986.523
0.97381	1120.88
