Adsorption isotherm of Perfluorooctanesulfonic acid on PAC
DOI: 10.1016/j.chemosphere.2017.05.033
Article source: Figure 2a
Adsorbate Perfluorooctanesulfonic acid: InChIKey YFSUTJLHUFNCNZ-UHFFFAOYSA-N
Kind: experiment
Temperature: 313 K
Tabular data in the source: 0
pressure (bar)	uptake (microgram/m2)
1.01325	0.1246
1.01325	0.8965
1.01325	1.6096
1.01325	2.1027
1.01325	2.3668
1.01325	2.5223
