Adsorption isotherm of Perfluorooctanesulfonic acid on PAC
DOI: 10.1016/j.chemosphere.2017.05.033
Article source: Figure 2b
Adsorbate Perfluorooctanesulfonic acid: InChIKey YFSUTJLHUFNCNZ-UHFFFAOYSA-N
Kind: experiment
Temperature: 293 K
Tabular data in the source: 0
pressure (bar)	uptake (microgram/m2)
1.01325	0.05894
1.01325	0.52035
1.01325	0.98745
1.01325	1.41658
1.01325	1.61216
1.01325	1.7128
