Adsorption isotherm of Perfluorooctanesulfonic acid on PAC
DOI: 10.1016/j.chemosphere.2017.05.033
Article source: Figure 2b
Adsorbate Perfluorooctanesulfonic acid: InChIKey YFSUTJLHUFNCNZ-UHFFFAOYSA-N
Kind: experiment
Temperature: 313 K
Tabular data in the source: 0
pressure (bar)	uptake (microgram/m2)
1.01325	0.13869
1.01325	0.61719
1.01325	1.10328
1.01325	1.50963
1.01325	1.7147
1.01325	1.88939
