Adsorption isotherm of Perfluorooctanesulfonic acid on PAC
DOI: 10.1016/j.chemosphere.2017.05.033
Article source: Figure 2b
Adsorbate Perfluorooctanesulfonic acid: InChIKey YFSUTJLHUFNCNZ-UHFFFAOYSA-N
Kind: experiment
Temperature: 293 K
Tabular data in the source: 0
pressure (bar)	uptake (microgram/m2)
1.01325	0.10451
1.01325	0.57541
1.01325	1.04252
1.01325	1.47165
1.01325	1.65773
1.01325	1.76407
