Adsorption isotherm of Perfluorooctanesulfonic acid on PAC
DOI: 10.1016/j.chemosphere.2017.05.033
Article source: Figure 2a
Adsorbate Perfluorooctanesulfonic acid: InChIKey YFSUTJLHUFNCNZ-UHFFFAOYSA-N
Kind: experiment
Temperature: 303 K
Tabular data in the source: 0
pressure (bar)	uptake (microgram/m2)
1.01325	0.1246
1.01325	0.782
1.01325	1.5451
1.01325	2.0675
1.01325	2.311
1.01325	2.4695
