Adsorption isotherm of Ethene on MIL-101-Cr-SO‚ÇÉAg
DOI: 10.1039/c4cc09774b
Article source: Figure  1
Adsorbate Ethene: InChIKey VGGSQFUCUMXWEO-UHFFFAOYSA-N
Kind: experiment
Temperature: 318 K
Tabular data in the source: 0
pressure (bar)	uptake (cm3(STP)/g)
0.00452	4.662
0.005066	6.392
0.006893	8.932
0.010252	15.059
0.010572	14.611
0.011426	12.184
0.011519	13.212
0.012279	11.738
0.015785	17.655
0.015972	13.357
0.022465	19.931
0.026931	15.465
0.027638	15.869
0.036184	16.804
0.039983	22.01
0.043876	17.6
0.051862	18.284
0.066248	19.443
0.071327	25.179
0.081073	20.629
0.096739	21.578
0.101952	27.51
0.110844	22.807
0.12695	23.616
0.132029	29.45
0.142922	24.789
0.157307	25.682
0.16352	31.237
0.174266	26.576
0.189091	27.525
0.194877	32.731
0.205476	28.516
0.221448	29.466
0.224675	34.309
0.252659	30.931
0.257459	35.802
0.284297	32.579
0.289523	37.129
0.316227	33.989
0.3196	38.483
0.347158	35.51
0.350678	39.739
0.378809	36.99
0.381182	40.968
0.409446	38.428
0.412979	42.266
0.441244	39.782
0.444763	43.509
0.473028	41.206
0.474988	44.696
0.503812	42.519
0.506345	45.827
0.534316	43.845
0.537142	46.999
0.56682	45.157
0.5685	48.242
0.597044	46.442
0.600151	49.359
0.628535	47.88
0.631215	50.574
0.660186	49.108
0.661866	51.607
0.69097	50.435
0.69309	52.807
0.723474	51.705
0.72402	53.882
0.752978	52.976
0.755098	54.985
0.784349	54.148
0.785602	56.158
0.81628	55.503
0.817679	57.219
0.847357	58.226
0.84805	58.267
0.878714	59.248
0.879128	59.272
0.909072	59.23
0.910338	60.472
0.941003	60.487
0.942283	60.518
0.953255	61.897
0.9718	61.855
0.983906	62.902
1.00216	63.098
1.01584	63.935
1.03466	64.452
1.0663	65.652
