Adsorption isotherm of Ethene on MIL-101-Cr-SO‚ÇÉH
DOI: 10.1039/c4cc09774b
Article source: Figure  1
Adsorbate Ethene: InChIKey VGGSQFUCUMXWEO-UHFFFAOYSA-N
Kind: experiment
Temperature: 318 K
Tabular data in the source: 0
pressure (bar)	uptake (cm3(STP)/g)
0.003706	0.39
0.009546	1.253
0.013532	1.782
0.018518	2.324
0.024785	2.895
0.032624	3.34
0.037317	3.855
0.051862	4.356
0.060982	4.857
0.069954	5.943
0.081353	5.776
0.092899	6.305
0.101018	7.641
0.110284	7.154
0.126243	7.877
0.131229	9.214
0.142068	8.545
0.155601	9.171
0.163293	10.41
0.173412	9.895
0.188664	10.466
0.194504	11.899
0.205476	11.064
0.220302	11.788
0.223862	12.957
0.253086	12.957
0.256926	14.126
0.28315	14.139
0.286563	15.253
0.316214	15.211
0.319347	16.283
0.347998	16.254
0.351131	17.243
0.377929	17.298
0.381049	18.439
0.409713	18.453
0.412699	19.413
0.44035	19.399
0.443337	20.457
0.471415	20.373
0.474974	21.375
0.503199	21.375
0.506612	22.377
0.534556	22.391
0.537542	23.337
0.565913	23.267
0.568607	24.13
0.596404	24.325
0.599391	25.174
0.628908	25.243
0.630468	26.106
0.658692	26.273
0.661399	26.983
0.691756	27.149
0.693036	27.957
0.721541	28.304
0.72382	28.82
0.753325	29.042
0.754751	29.668
0.784389	30.197
0.785962	30.698
0.81504	31.324
0.817319	31.797
0.848104	31.964
0.848664	32.451
0.879168	33.272
0.880314	33.319
0.909952	34.266
0.910098	34.274
0.941883	35.401
0.954282	35.818
0.973093	36.194
0.984492	36.695
1.00288	37.098
1.01585	37.683
1.03494	38.17
1.06673	39.255
