Adsorption isotherm of Ethene on MIL-101-Cr-SO‚ÇÉH
DOI: 10.1039/c4cc09774b
Article source: Figure  1
Adsorbate Ethene: InChIKey VGGSQFUCUMXWEO-UHFFFAOYSA-N
Kind: experiment
Temperature: 296 K
Tabular data in the source: 0
pressure (bar)	uptake (cm3(STP)/g)
0.004986	0.405
0.010679	1.243
0.018079	2.01
0.023345	2.848
0.029904	3.63
0.037437	4.621
0.046276	5.333
0.055249	6.018
0.065501	6.688
0.075047	7.442
0.087433	8.084
0.098405	8.587
0.102245	9.369
0.112644	10.109
0.132016	11.422
0.144828	11.981
0.158227	12.609
0.163347	13.168
0.174599	13.573
0.188558	14.187
0.193544	14.83
0.207503	15.207
0.222755	16.243
0.224742	16.338
0.253379	17.26
0.256219	17.735
0.28571	18.602
0.288136	19.118
0.315627	19.887
0.31876	20.361
0.346398	21.2
0.350811	21.619
0.378169	22.485
0.381155	22.946
0.409646	23.687
0.413206	24.106
0.44127	24.707
0.443697	25.223
0.472908	25.783
0.475321	26.341
0.504385	26.984
0.505518	27.445
0.533876	27.976
0.536716	28.451
0.566927	29.01
0.568353	29.527
0.598551	30.072
0.600257	30.603
0.629322	31.009
0.629602	31.017
0.660666	32.029
0.661799	32.08
0.690583	33.354
0.692143	33.426
0.722074	33.887
0.72378	33.938
0.753831	35.256
0.782616	35.83
0.784749	36.43
0.813813	36.473
0.817799	37.045
0.846304	37.493
0.847717	37.94
0.878634	38.457
0.879634	38.495
0.909699	39.71
0.910125	39.729
0.941323	40.456
0.941749	40.467
0.953575	41.028
0.972947	41.211
0.984919	41.616
1.00372	42.021
1.0164	42.524
1.0345	42.818
1.06641	43.699
