Adsorption isotherm of Ethene on MIL-101-Cr-SO‚ÇÉAg
DOI: 10.1039/c4cc09774b
Article source: Figure  1
Adsorbate Ethene: InChIKey VGGSQFUCUMXWEO-UHFFFAOYSA-N
Kind: experiment
Temperature: 296 K
Tabular data in the source: 0
pressure (bar)	uptake (cm3(STP)/g)
0.0036	9.532
0.003866	13.856
0.00412	14.362
0.006666	16.413
0.008053	20.879
0.009653	17.851
0.011026	22.973
0.015199	19.135
0.020305	21.759
0.023825	26.448
0.030278	22.917
0.03905	29.477
0.043383	24.188
0.050209	25.207
0.055769	25.918
0.063888	26.798
0.070234	33.511
0.08098	28.236
0.097085	29.631
0.101432	36.359
0.111897	31.195
0.126856	32.479
0.132216	38.913
0.143388	33.735
0.156787	34.922
0.162987	40.993
0.174452	36.136
0.189558	37.211
0.194917	42.794
0.204943	38.244
0.220915	39.333
0.225421	44.623
0.253126	41.148
0.255779	46.214
0.28519	42.949
0.28727	47.875
0.315121	44.847
0.318627	49.299
0.346611	46.467
0.350984	50.849
0.378409	47.863
0.382635	52.203
0.4099	49.608
0.412713	53.571
0.442124	50.85
0.444643	54.786
0.472761	52.609
0.474868	55.917
0.503972	53.88
0.506078	57.215
0.535049	55.29
0.537582	58.388
0.565553	56.588
0.568527	59.449
0.596911	57.817
0.598884	60.496
0.628415	59.017
0.631241	61.697
0.660212	60.344
0.661746	62.73
0.691423	61.419
0.69197	61.446
0.723074	62.619
0.723341	62.628
0.754725	63.764
0.754845	63.764
0.785495	64.819
0.785949	64.783
0.816026	65.831
0.816999	66.016
0.847677	68.443
0.84865	68.511
0.877888	67.883
0.878728	67.918
0.908539	70.022
0.909672	70.089
0.940336	69.768
0.940469	69.77
0.955441	71.22
0.96884	71.08
0.984812	71.946
1.00321	71.834
1.01746	72.658
1.03527	72.896
1.06607	73.789
