Adsorption isotherm of Hydrogen on Cl-MOF-5
DOI: 10.1016/j.micromeso.2012.12.035
Adsorbate Hydrogen: InChIKey UFHFLCQGNIYNRP-UHFFFAOYSA-N
Temperature: 77 K
Tabular data in the source: 0
pressure (bar)	uptake (wt%)
0.5625	0.356589
0.75	0.604651
0.9375	0.728682
1.875	0.930233
2.25	1.05426
3.375	1.2093
7.875	1.41085
10.5	1.45736
14.4375	1.51938
18.75	1.6124
23.8125	1.65891
28.875	1.67442
33	1.72093
38.25	1.72093
44.25	1.82946
49.125	1.90698
54.375	1.89147
57.9375	1.92248
