Adsorption isotherm of Hydrogen on Cl-MOF-5
DOI: 10.1016/j.micromeso.2012.12.035
Adsorbate Hydrogen: InChIKey UFHFLCQGNIYNRP-UHFFFAOYSA-N
Temperature: 77 K
Tabular data in the source: 0
pressure (bar)	uptake (wt%)
0.0709854	0.237776
0.211988	0.464631
0.376061	0.618764
0.540094	0.762534
0.672748	0.844378
0.774144	0.895383
0.859931	0.93615
0.953462	0.966493
1.02364	0.997022
1.11717	1.02736
1.24971	1.07812
