Adsorption isotherm of Hydrogen on CH3MOF-5-H40
DOI: 10.1016/j.micromeso.2012.12.035
Adsorbate Hydrogen: InChIKey UFHFLCQGNIYNRP-UHFFFAOYSA-N
Temperature: 77 K
Tabular data in the source: 0
pressure (bar)	uptake (wt%)
0.75	1.16279
1.125	1.33333
1.3125	1.51938
1.6875	1.62791
1.875	1.76744
3.75	2.07752
6.75	2.48062
10.3125	2.69767
13.3125	2.83721
23.0625	3.10078
30.75	3.27132
39	3.34884
49.3125	3.45736
56.0625	3.56589
