Adsorption isotherm of Hydrogen on Br-MOF-5
DOI: 10.1016/j.micromeso.2012.12.035
Adsorbate Hydrogen: InChIKey UFHFLCQGNIYNRP-UHFFFAOYSA-N
Temperature: 77 K
Tabular data in the source: 0
pressure (bar)	uptake (wt%)
0.375	0.449612
0.5625	0.930233
0.75	0.310078
0.9375	1.02326
1.875	1.16279
3.1875	1.31783
8.4375	1.64341
12.9375	1.75194
19.875	1.82946
25.5	1.87597
32.0625	1.89147
42	1.93798
50.625	1.9845
59.4375	1.95349
