Adsorption isotherm of Hydrogen on MOF-5-40h
DOI: 10.1016/j.micromeso.2012.12.035
Adsorbate Hydrogen: InChIKey UFHFLCQGNIYNRP-UHFFFAOYSA-N
Temperature: 77 K
Tabular data in the source: 0
pressure (bar)	uptake (wt%)
0.113191	0.392177
0.25617	0.70794
0.428936	0.930267
0.571915	1.09284
0.691064	1.22122
0.834043	1.32422
0.917447	1.39281
1.00681	1.44442
1.09021	1.48748
1.17957	1.55611
1.29277	1.63339
1.37021	1.67641
