Adsorption isotherm of Hydrogen on CH3-MOF-5-40h
DOI: 10.1016/j.micromeso.2012.12.035
Adsorbate Hydrogen: InChIKey UFHFLCQGNIYNRP-UHFFFAOYSA-N
Temperature: 77 K
Tabular data in the source: 0
pressure (bar)	uptake (wt%)
0.0595745	0.36632
0.172766	0.66488
0.321702	0.912594
0.476596	1.08375
0.625532	1.22933
0.732766	1.3236
0.822128	1.37521
0.929362	1.44395
0.994894	1.47839
1.0783	1.51294
1.25106	1.58207
1.34638	1.6167
