Adsorption isotherm of Hydrogen on Br-MOF-5
DOI: 10.1016/j.micromeso.2012.12.035
Adsorbate Hydrogen: InChIKey UFHFLCQGNIYNRP-UHFFFAOYSA-N
Temperature: 77 K
Tabular data in the source: 0
pressure (bar)	uptake (wt%)
0.0866747	0.268739
0.204204	0.464693
0.368438	0.660276
0.532471	0.804046
0.680774	0.90649
0.821212	0.988273
0.938176	1.03915
1.07853	1.10021
1.26568	1.18162
