Adsorption isotherm of Hydrogen on CH3-MOF-5
DOI: 10.1016/j.micromeso.2012.12.035
Adsorbate Hydrogen: InChIKey UFHFLCQGNIYNRP-UHFFFAOYSA-N
Temperature: 77 K
Tabular data in the source: 0
pressure (bar)	uptake (wt%)
0.0715903	0.393212
0.212956	0.713328
0.400745	0.960536
0.580467	1.13527
0.744419	1.25831
0.900506	1.3607
1.05651	1.44236
1.2593	1.54437
