Adsorption isotherm of Hydrogen on OCH3-MOF-5
DOI: 10.1016/j.micromeso.2012.12.035
Adsorbate Hydrogen: InChIKey UFHFLCQGNIYNRP-UHFFFAOYSA-N
Temperature: 77 K
Tabular data in the source: 0
pressure (bar)	uptake (wt%)
0.319757	0.152892
0.670166	0.181186
0.911517	0.189625
1.33202	0.227724
