Adsorption isotherm of Hydrogen on Cl-MOF-5-24h
DOI: 10.1016/j.micromeso.2012.12.035
Adsorbate Hydrogen: InChIKey UFHFLCQGNIYNRP-UHFFFAOYSA-N
Temperature: 77 K
Tabular data in the source: 0
pressure (bar)	uptake (wt%)
0.172766	0.247859
0.393191	0.410901
0.595745	0.539792
0.756596	0.608855
0.881702	0.660679
1.01277	0.695518
1.17957	0.764617
1.36426	0.816804
