Adsorption isotherm of Hydrogen on OCH3-MOF-5-24h
DOI: 10.1016/j.micromeso.2012.12.035
Adsorbate Hydrogen: InChIKey UFHFLCQGNIYNRP-UHFFFAOYSA-N
Temperature: 77 K
Tabular data in the source: 0
pressure (bar)	uptake (wt%)
0.500426	0.139212
0.571915	0.139647
0.875745	0.167026
0.941277	0.167424
1.10213	0.193934
1.24511	0.177782
