Adsorption isotherm of Hydrogen on Br-MOF-5-40h
DOI: 10.1016/j.micromeso.2012.12.035
Adsorbate Hydrogen: InChIKey UFHFLCQGNIYNRP-UHFFFAOYSA-N
Temperature: 77 K
Tabular data in the source: 0
pressure (bar)	uptake (wt%)
0.125106	0.239058
0.268085	0.435672
0.428936	0.581331
0.56	0.709787
0.667234	0.778524
0.762553	0.838678
0.834043	0.890177
0.917447	0.924726
1.01872	0.967895
1.10809	1.01099
1.22723	1.07129
1.36426	1.11468
