Adsorption isotherm of Hydrogen on MOF-5-H40
DOI: 10.1016/j.micromeso.2012.12.035
Adsorbate Hydrogen: InChIKey UFHFLCQGNIYNRP-UHFFFAOYSA-N
Temperature: 77 K
Tabular data in the source: 0
pressure (bar)	uptake (wt%)
1.5	1.64341
2.0625	1.79845
2.25	1.93798
3.375	2.37209
5.25	2.94574
13.3125	3.89147
22.125	4.27907
29.625	4.46512
39.375	4.60465
46.5	4.63566
51.75	4.69767
59.4375	4.74419
