Adsorption isotherm of Hydrogen on IRMOF-1
DOI: 10.1016/j.micromeso.2012.12.035
Adsorbate Hydrogen: InChIKey UFHFLCQGNIYNRP-UHFFFAOYSA-N
Temperature: 77 K
Tabular data in the source: 0
pressure (bar)	uptake (wt%)
0.118295	0.392839
0.282893	0.681683
0.462776	0.897865
0.626849	1.052
0.759624	1.16493
0.853276	1.22636
0.915711	1.26731
0.978146	1.30827
1.01715	1.32868
1.12641	1.40035
1.25132	1.49262
