Adsorption isotherm of Carbon Dioxide on IRMOF-1
DOI: 10.1021/Ja076595g
Adsorbate Carbon Dioxide: InChIKey CURLTUGMZLYLDI-UHFFFAOYSA-N
Temperature: 195 K
Tabular data in the source: 0
pressure (bar)	uptake (mmol/g)
0.0204806	0.648848
0.0424763	1.28961
0.0560121	1.67407
0.103387	2.89151
0.118615	3.14782
0.137227	3.78858
0.162606	4.55749
0.164298	5.19825
0.184602	5.58271
0.194754	7.56907
0.194754	9.10689
0.198138	27.8171
0.19983	19.6154
0.201522	18.9746
0.21675	28.4579
0.225209	28.9705
0.253973	29.8035
0.279353	30.3802
0.333496	30.8928
0.350416	31.4054
0.399483	31.4694
0.45701	32.1102
0.475622	32.1102
0.604212	32.6228
0.683734	33.2636
0.732802	33.1995
0.802173	33.5199
0.881695	33.4558
0.934147	33.648
1.0069	33.5199
