Adsorption isotherm of Carbon Dioxide on IRMOF-1
DOI: 10.1021/Ja076595g
Adsorbate Carbon Dioxide: InChIKey CURLTUGMZLYLDI-UHFFFAOYSA-N
Temperature: 218 K
Tabular data in the source: 0
pressure (bar)	uptake (mmol/g)
0.145099	0.816616
0.231988	1.74415
0.294968	2.42876
0.367861	3.4888
0.434923	4.85802
0.475743	6.95601
0.51773	11.3508
0.566131	18.1085
0.589457	21.377
0.625612	24.7117
0.651271	26.0367
0.690342	26.9201
0.788894	27.7593
0.865869	28.3777
0.918353	28.7531
1.00058	28.996
