Adsorption isotherm of Carbon Dioxide on IRMOF-10
DOI: 10.1021/Ja076595g
Adsorbate Carbon Dioxide: InChIKey CURLTUGMZLYLDI-UHFFFAOYSA-N
Temperature: 298 K
Tabular data in the source: 0
pressure (bar)	uptake (mmol/g)
2.04322	0.830033
3.23564	1.25532
4.31258	1.61256
5.21303	2.00382
6.19379	2.4121
7.35907	2.85439
8.06774	3.09255
9.20767	3.73899
10.0943	4.26634
11.4546	4.70864
11.8564	5.01485
12.4142	5.23599
13.3004	5.78036
14.0063	6.08657
14.332	6.30771
15.4436	6.92013
15.9854	7.39645
16.357	7.80472
17.3245	8.3661
17.6257	8.62127
18.4549	9.16564
19.659	9.98218
20.3486	10.4755
20.5838	10.7137
20.7025	11.3771
21.9269	11.6323
22.4367	12.5169
23.9007	13.6567
25.9029	14.5242
28.2346	15.732
29.7332	16.4976
31.6732	17.093
34.3266	17.4162
35.7354	17.9435
40.551	18.59
47.0853	19.1343
50.4466	19.5766
60.2829	19.8658
90.1327	20.189
120.825	20.3932
