Adsorption isotherm of Carbon Dioxide on IRMOF-1
DOI: 10.1021/Ja076595g
Adsorbate Carbon Dioxide: InChIKey CURLTUGMZLYLDI-UHFFFAOYSA-N
Temperature: 208 K
Tabular data in the source: 0
pressure (bar)	uptake (mmol/g)
0.0359983	0.280932
0.110486	1.05026
0.163304	1.81959
0.202579	2.53763
0.245917	3.71727
0.297381	5.30722
0.324467	10.1284
0.344782	14.693
0.363742	19.0526
0.377285	22.1299
0.386765	24.4379
0.403017	28.0281
0.465316	28.6949
0.516779	29.4642
0.584495	29.9258
0.661691	30.1309
0.725344	30.3361
0.786288	30.49
0.844523	30.7464
0.893279	31.1054
0.942034	31.3106
0.993498	31.208
