Adsorption isotherm of Carbon Dioxide on IRMOF-1
DOI: 10.1021/Ja076595g
Adsorbate Carbon Dioxide: InChIKey CURLTUGMZLYLDI-UHFFFAOYSA-N
Temperature: 298 K
Tabular data in the source: 0
pressure (bar)	uptake (mmol/g)
1.26187	1.03291
3.28057	2.61038
5.44698	4.82555
7.26873	6.97359
9.43514	9.96072
11.5523	12.8471
13.4725	15.163
16.7222	17.4453
21.6458	19.5598
27.9481	20.9023
34.0534	21.6071
