Adsorption isotherm of Carbon Dioxide on MOF-177
DOI: 10.1021/Ja076595g
Adsorbate Carbon Dioxide: InChIKey CURLTUGMZLYLDI-UHFFFAOYSA-N
Temperature: 298 K
Tabular data in the source: 0
pressure (bar)	uptake (mmol/g)
1.14835	1.20044
3.23983	3.22603
5.09131	5.25162
6.32562	6.88767
7.59423	8.60163
8.86283	10.7441
10.44	13.354
11.5715	15.6133
13.3201	18.5348
14.6573	20.5604
15.6859	22.1185
17.3316	24.0273
19.3202	25.5854
20.7946	26.7151
22.9889	27.7278
24.8061	28.3901
26.5204	28.8185
28.4062	29.286
29.7776	29.5976
30.7377	29.8313
