Adsorption isotherm of Carbon Dioxide on IRMOF-1
DOI: 10.1021/Ja076595g
Adsorbate Carbon Dioxide: InChIKey CURLTUGMZLYLDI-UHFFFAOYSA-N
Temperature: 208 K
Tabular data in the source: 0
pressure (bar)	uptake (mmol/g)
0.0319354	0.588664
0.0766277	1.25542
0.10236	1.71701
0.126737	2.07604
0.167367	2.79408
0.19039	3.25568
0.213413	3.56341
0.237791	4.17887
0.256751	4.74305
0.320404	6.99975
0.321758	7.71779
0.332593	8.38454
0.359679	14.4879
0.367805	25.5662
0.367805	27.4126
0.379994	27.6691
0.398954	27.5665
0.453127	28.5923
0.484276	28.6949
0.503236	29.0539
0.572306	29.3616
0.680651	30.3361
0.732115	30.3874
0.813374	30.849
0.932554	31.5157
1.00298	31.8235
