Adsorption isotherm of Carbon Dioxide on IRMOF-16
DOI: 10.1021/Ja076595g
Adsorbate Carbon Dioxide: InChIKey CURLTUGMZLYLDI-UHFFFAOYSA-N
Temperature: 298 K
Tabular data in the source: 0
pressure (bar)	uptake (mmol/g)
2.01988	0.489804
4.09522	1.00015
6.22949	1.45946
8.20802	1.91876
10.211	2.36106
12.1321	2.80336
14.4146	3.24566
15.5326	3.53485
16.4513	3.79002
17.2252	4.02818
18.3491	4.36841
19.659	4.77669
21.0624	5.08289
22.6961	5.55921
23.6276	6.01852
26.2023	6.86909
28.0728	7.70265
30.0769	8.84242
32.4097	9.81207
33.9343	11.0029
36.1485	12.5169
38.9522	14.116
40.0876	14.9495
42.2153	15.8341
46.2806	16.9228
74.9937	18.9132
130.946	19.9339
