Adsorption isotherm of Carbon Dioxide on IRMOF-1
DOI: 10.1021/Ja076595g
Adsorbate Carbon Dioxide: InChIKey CURLTUGMZLYLDI-UHFFFAOYSA-N
Temperature: 195 K
Tabular data in the source: 0
pressure (bar)	uptake (mmol/g)
0.0249462	0.574109
0.0562459	1.28075
0.10139	2.46609
0.132087	3.7882
0.153756	5.11031
0.179556	18.232
0.197162	26.8998
0.203933	29.9258
0.305507	31.4132
0.350199	31.567
0.424686	31.8748
0.492402	31.9773
0.589912	32.2851
0.676588	32.7467
0.736178	32.9518
0.816083	33.0031
0.859421	33.2083
0.94068	33.4647
0.986726	33.2083
