Adsorption isotherm of Carbon Dioxide on IRMOF-1
DOI: 10.1021/Ja076595g
Adsorbate Carbon Dioxide: InChIKey CURLTUGMZLYLDI-UHFFFAOYSA-N
Temperature: 298 K
Tabular data in the source: 0
pressure (bar)	uptake (mmol/g)
4.8378	0.251644
8.35074	0.370724
12.4142	0.574861
16.4513	0.744976
21.4287	1.01716
30.4245	1.49348
40.551	2.20796
51.917	3.12658
56.9165	3.89209
62.7571	4.82772
64.5863	16.1914
64.9585	5.62726
73.712	17.2971
84.6119	17.9095
100.531	18.607
119.444	19.2024
