Adsorption isotherm of Carbon Dioxide on IRMOF-1
DOI: 10.1021/Ja076595g
Adsorbate Carbon Dioxide: InChIKey CURLTUGMZLYLDI-UHFFFAOYSA-N
Temperature: 298 K
Tabular data in the source: 0
pressure (bar)	uptake (mmol/g)
0.671026	0.361651
2.54202	1.80487
3.96988	3.11383
5.25003	4.3221
6.67789	5.76532
8.69659	7.57773
9.82903	8.65175
11.3061	10.0278
12.4878	11.1019
14.0141	12.0752
15.3435	13.0485
17.5099	14.1561
19.8241	15.0623
21.7935	15.8343
23.6153	16.2706
25.3878	16.6062
26.471	16.6733
28.8836	16.774
31.0992	16.9083
33.7088	17.0425
35.9737	17.1432
