Adsorption isotherm of Carbon Dioxide on IRMOF-1
DOI: 10.1021/Ja076595g
Adsorbate Carbon Dioxide: InChIKey CURLTUGMZLYLDI-UHFFFAOYSA-N
Temperature: 298 K
Tabular data in the source: 0
pressure (bar)	uptake (mmol/g)
1.60652	1.60349
3.72369	3.81866
4.70843	5.12762
5.64392	6.53727
6.38247	7.71198
7.3672	9.22233
8.35193	11.0683
9.58285	13.2835
10.8138	14.9281
12.2909	16.6733
13.9649	18.1837
15.7374	19.2913
17.5592	20.1639
19.3809	20.8016
21.8428	21.4058
24.0092	21.6743
26.3725	22.0099
28.4897	22.3791
30.8531	22.5133
32.4286	22.5805
33.9057	22.614
