Adsorption isotherm of Carbon Dioxide on IRMOF-1
DOI: 10.1021/Ja076595g
Adsorbate Carbon Dioxide: InChIKey CURLTUGMZLYLDI-UHFFFAOYSA-N
Temperature: 273 K
Tabular data in the source: 0
pressure (bar)	uptake (mmol/g)
0.0357728	0.0902092
0.0642674	0.159829
0.0877066	0.159829
0.111605	0.194639
0.136423	0.159829
0.178246	0.159829
0.215473	0.194639
0.261891	0.212044
0.313825	0.455714
0.363921	0.525334
0.414016	0.647169
0.473763	0.664573
0.514207	0.699383
0.5666	0.786408
0.618074	0.873433
0.684255	0.995268
0.749977	1.08229
0.804668	1.18672
0.86993	1.32596
0.937949	1.36077
0.998156	1.51742
