Adsorption isotherm of Carbon Dioxide on IRMOF-3
DOI: 10.1021/Ja076595g
Adsorbate Carbon Dioxide: InChIKey CURLTUGMZLYLDI-UHFFFAOYSA-N
Temperature: 298 K
Tabular data in the source: 0
pressure (bar)	uptake (mmol/g)
1.18264	1.2394
2.24552	2.44696
3.34269	3.88824
4.26843	5.0958
5.22845	6.53709
6.22276	8.09523
7.35598	9.73697
8.35797	11.1441
9.41563	12.2983
10.348	13.2312
12.4773	14.749
13.4793	15.1917
14.3978	15.587
15.5807	16.0455
16.5548	16.3459
17.6403	16.6779
18.7119	16.8993
19.5747	17.1523
20.5906	17.3262
26.0738	18.0693
29.9287	18.3855
