Adsorption isotherm of Carbon Dioxide on IRMOF-3
DOI: 10.1021/Ja076595g
Adsorbate Carbon Dioxide: InChIKey CURLTUGMZLYLDI-UHFFFAOYSA-N
Temperature: 298 K
Tabular data in the source: 0
pressure (bar)	uptake (mmol/g)
1.32018	1.32702
3.17991	3.38794
4.6433	5.36226
5.54268	6.76507
6.50304	8.11592
7.49388	9.70924
8.22557	10.7137
9.06398	11.9607
10.2225	13.3981
11.5487	14.5585
13.2407	15.5803
15.4358	16.654
17.4785	17.4507
19.6431	18.0741
21.2894	18.3859
22.5546	18.4725
23.8351	18.6976
25.5881	18.8535
27.3107	19.0613
29.7649	19.2691
31.7618	19.3904
