Adsorption isotherm of Carbon Dioxide on IRMOF-1
DOI: 10.1021/Ja076595g
Adsorbate Carbon Dioxide: InChIKey CURLTUGMZLYLDI-UHFFFAOYSA-N
Temperature: 233 K
Tabular data in the source: 0
pressure (bar)	uptake (mmol/g)
0.0213828	0.211465
0.0712335	0.34512
0.125054	0.562308
0.167847	0.779497
0.204904	0.996686
0.266224	1.31412
0.321369	1.66496
0.472244	2.43347
0.656647	3.68649
0.804434	4.80585
0.982661	6.74384
