Adsorption isotherm of Carbon Dioxide on IRMOF-1
DOI: 10.1021/Ja076595g
Adsorbate Carbon Dioxide: InChIKey CURLTUGMZLYLDI-UHFFFAOYSA-N
Temperature: 218 K
Tabular data in the source: 0
pressure (bar)	uptake (mmol/g)
0.138926	1.35799
0.191744	1.87088
0.274357	2.64021
0.374577	3.92243
0.468024	5.15336
0.53574	6.38428
0.599393	7.6665
0.650856	11.8722
0.671171	17.5139
0.699612	23.2583
0.717218	24.1302
0.732115	25.0021
0.80254	26.0791
0.859421	26.2843
0.919011	26.951
1.00433	27.7204
