Adsorption isotherm of Carbon Dioxide on MOF-177
DOI: 10.1021/Ja076595g
Adsorbate Carbon Dioxide: InChIKey CURLTUGMZLYLDI-UHFFFAOYSA-N
Temperature: 298 K
Tabular data in the source: 0
pressure (bar)	uptake (mmol/g)
1.0112	0.810905
2.24552	1.70684
3.17126	2.56382
4.13128	3.4987
5.29703	4.78417
6.25705	5.83592
7.35422	7.23825
8.34853	8.60163
9.34284	10.0429
10.3714	11.9127
11.4343	13.8604
12.4286	15.7691
13.5601	17.9115
14.5201	19.7813
15.6173	22.0017
16.6459	23.9104
17.5373	25.4296
18.6688	26.8319
19.8002	27.8447
20.8288	28.5069
21.8917	29.4029
23.7432	30.4156
25.9375	31.3505
27.8919	31.9348
30.7034	32.7139
