Adsorption isotherm of Carbon Dioxide on IRMOF-1
DOI: 10.1021/Ja076595g
Adsorbate Carbon Dioxide: InChIKey CURLTUGMZLYLDI-UHFFFAOYSA-N
Temperature: 298 K
Tabular data in the source: 0
pressure (bar)	uptake (mmol/g)
1.19737	0.949113
2.04322	1.69762
2.64616	2.24198
3.12598	2.73531
4.02523	3.58589
5.30367	4.91278
6.30149	6.12059
6.79025	6.83507
7.06894	7.39645
8.02151	8.38311
8.25532	8.87644
9.31409	10.2714
9.42175	10.5095
10.4484	11.5813
11.5206	12.67
11.9935	13.2994
13.4541	14.218
13.9261	14.7454
16.357	15.8001
17.9322	16.4806
21.5522	17.3822
25.1693	18.0626
29.7332	18.7261
36.777	19.4065
45.229	19.8488
61.3311	20.2911
119.444	20.8185
