Adsorption isotherm of Carbon Dioxide on IRMOF-1
DOI: 10.1021/Ja076595g
Adsorbate Carbon Dioxide: InChIKey CURLTUGMZLYLDI-UHFFFAOYSA-N
Temperature: 233 K
Tabular data in the source: 0
pressure (bar)	uptake (mmol/g)
0.0889081	0.592542
0.223259	0.927485
0.250214	1.05508
0.276326	1.16673
0.311282	1.29433
0.343291	1.51762
0.38288	1.74092
0.416994	1.90042
0.457847	2.31511
0.537026	2.55436
0.602306	3.0488
0.644422	3.43159
0.689066	3.76653
0.747607	4.37262
0.798989	4.91491
0.858373	5.521
0.895857	6.20684
0.943448	7.25952
1.00367	8.64714
