Adsorption isotherm of Methane on NOTT-102
DOI: 10.1021/acs.jpcc.7b08370
Article source: Figure 2b
Adsorbate Methane: InChIKey VNWKTOKETHGBQD-UHFFFAOYSA-N
Kind: experiment
Isotherm type: absolute
Temperature: 298 K
Tabular data in the source: 0
pressure (bar)	uptake ()
0.00624	0.362903
0.102964	3.08468
0.205928	4.89919
0.305772	7.43952
0.402496	9.61693
0.50234	11.4315
0.602184	13.4274
0.698908	15.4234
0.795632	16.6935
0.904836	18.5081
1.00468	19.9597
1.10452	21.0484
1.20125	22.8629
1.30421	24.496
1.40406	25.7661
1.5039	27.3992
1.60062	29.0323
1.70359	30.121
1.80031	31.3911
1.90016	33.0242
2.00624	34.6573
