Adsorption isotherm of Methane on NOTT-106
DOI: 10.1021/acs.jpcc.7b08370
Article source: Figure 2b
Adsorbate Methane: InChIKey VNWKTOKETHGBQD-UHFFFAOYSA-N
Kind: experiment
Isotherm type: absolute
Temperature: 298 K
Tabular data in the source: 0
pressure (bar)	uptake ()
0.00312	0.544355
0.099844	3.62903
0.202808	6.89516
0.302652	10.3427
0.399376	13.246
0.50234	15.6048
0.602184	18.5081
0.698908	21.0484
0.798752	23.4073
0.904836	25.5847
1.00468	27.7621
1.10764	30.121
1.20437	32.2984
1.30421	34.4758
1.40406	36.6532
1.5039	39.1935
1.60062	41.1895
1.70047	43.004
1.80031	45
1.89704	47.5403
2.00624	48.9919
