Adsorption isotherm of Acetylene on Cu2ebtc
DOI: 10.1021/acs.jpcc.7b08370
Article source: Figure 2a
Adsorbate Acetylene: InChIKey HSFWRNGVRCDJHI-UHFFFAOYSA-N
Kind: experiment
Isotherm type: absolute
Temperature: 298 K
Tabular data in the source: 0
pressure (bar)	uptake (cm3(STP)/cm3)
0.00312	0.887097
0.102964	12.4194
0.199688	27.0565
0.299532	34.1532
0.399376	45.6855
0.49922	56.3306
0.599064	66.9758
0.698908	78.0645
0.798752	88.2661
0.895476	97.1371
0.99532	105.565
1.10452	113.548
1.20125	118.427
1.30109	123.306
1.40094	129.516
1.50078	133.952
1.60062	140.161
1.70047	143.71
1.79719	146.815
1.89704	149.032
2	152.137
