Adsorption isotherm of Acetylene on NOTT-103
DOI: 10.1021/acs.jpcc.7b08370
Article source: Figure 2a
Adsorbate Acetylene: InChIKey HSFWRNGVRCDJHI-UHFFFAOYSA-N
Kind: experiment
Isotherm type: absolute
Temperature: 298 K
Tabular data in the source: 0
pressure (bar)	uptake (cm3(STP)/cm3)
0.00312	0.887097
0.102964	11.0887
0.199688	19.0726
0.299532	26.1694
0.405616	33.2661
0.50546	39.4758
0.599064	47.4597
0.692668	54.5565
0.798752	61.6532
0.892356	67.8629
0.9922	74.0726
1.10452	81.6129
1.20125	87.379
1.30109	94.4758
1.39782	99.7984
1.50078	105.565
1.60062	109.556
1.69735	115.766
1.80031	120.645
1.89704	121.089
