Adsorption isotherm of Methane on MOF-505
DOI: 10.1021/acs.jpcc.7b08370
Article source: Figure 2b
Adsorbate Methane: InChIKey VNWKTOKETHGBQD-UHFFFAOYSA-N
Kind: experiment
Isotherm type: absolute
Temperature: 298 K
Tabular data in the source: 0
pressure (bar)	uptake ()
0.102964	5.80645
0.202808	11.0685
0.302652	16.1492
0.402496	21.0484
0.50546	26.3105
0.602184	30.8468
0.702028	35.3831
0.798752	39.5565
0.907956	44.0927
1.00468	48.2661
1.10452	52.2581
1.20437	56.6129
1.30421	60.7863
1.40406	64.5968
1.5039	68.0444
1.60374	71.8548
1.70047	75.4839
1.80031	78.9314
1.90016	82.5605
2.00936	85.8266
