Adsorption isotherm of Methane on NJU-Bai12
DOI: 10.1021/acs.jpcc.7b08370
Article source: Figure 2b
Adsorbate Methane: InChIKey VNWKTOKETHGBQD-UHFFFAOYSA-N
Kind: experiment
Isotherm type: absolute
Temperature: 298 K
Tabular data in the source: 0
pressure (bar)	uptake (cm3(STP)/cm3)
0.00312	0.181452
0.102964	1.63306
0.202808	2.90323
0.302652	4.53629
0.405616	5.80645
0.50234	7.07661
0.602184	8.34677
0.702028	9.43548
0.798752	10.8871
0.907956	12.1573
1.00468	12.7016
1.10452	13.9718
1.20437	15.2419
1.30421	16.1492
1.40406	17.0565
1.50078	18.1452
1.60062	19.0524
1.70047	20.3226
1.80031	21.0484
1.90016	22.3185
2.00624	23.2258
