Adsorption isotherm of Carbon Dioxide on NOTT-108
DOI: 10.1021/acs.jpcc.7b08370
Article source: Figure 2c
Adsorbate Carbon Dioxide: InChIKey CURLTUGMZLYLDI-UHFFFAOYSA-N
Kind: experiment
Isotherm type: absolute
Temperature: 298 K
Tabular data in the source: 0
pressure (bar)	uptake (cm3(STP)/cm3)
0.006231	0
0.102804	7.21212
0.199377	14
0.299065	19.0909
0.398754	23.7576
0.504673	28.8485
0.601246	32.6667
0.70405	37.3333
0.803738	42
0.900312	46.2424
1.00312	50.9091
1.09969	55.5758
1.20249	60.2424
1.30218	65.3333
1.39875	70
1.49844	75.0909
1.59502	79.7576
1.70405	83.5758
1.80374	89.5152
1.90031	94.1818
1.99688	99.2727
