Adsorption isotherm of Acetylene on PCN-46
DOI: 10.1021/acs.jpcc.7b08370
Article source: Figure 2a
Adsorbate Acetylene: InChIKey HSFWRNGVRCDJHI-UHFFFAOYSA-N
Kind: experiment
Isotherm type: absolute
Temperature: 298 K
Tabular data in the source: 0
pressure (bar)	uptake ()
0.106084	6.20968
0	0.443548
0.202808	14.1935
0.299532	20.4032
0.399376	26.6129
0.50546	32.8226
0.605304	39.0323
0.708268	45.2419
0.801872	51.0081
0.904836	57.2177
1.00156	64.3145
1.1014	69.1936
1.20125	74.0726
1.29797	79.3952
1.40094	85.6048
1.50078	90.4839
1.60686	95.3629
1.70671	100.242
1.80343	104.677
1.9064	108.669
2.00312	113.992
