Adsorption isotherm of Carbon Dioxide on NJU-Bai12
DOI: 10.1021/acs.jpcc.7b08370
Article source: Figure 2c
Adsorbate Carbon Dioxide: InChIKey CURLTUGMZLYLDI-UHFFFAOYSA-N
Kind: experiment
Isotherm type: absolute
Temperature: 298 K
Tabular data in the source: 0
pressure (bar)	uptake ()
0.006231	0
0.109034	4.24242
0.202492	8.48485
0.302181	11.0303
0.404984	14
0.501558	16.5455
0.598131	19.5152
0.700935	21.6364
0.797508	24.1818
0.897196	27.1515
0.996885	28.8485
1.10592	31.8182
1.20249	33.9394
1.30218	36.4848
1.40187	39.0303
1.50156	41.5758
1.59813	43.697
1.69782	46.6667
1.79751	49.6364
1.8972	51.3333
1.99688	54.303
