Adsorption isotherm of Methane on NOTT-101
DOI: 10.1021/acs.jpcc.7b08370
Article source: Figure 2b
Adsorbate Methane: InChIKey VNWKTOKETHGBQD-UHFFFAOYSA-N
Kind: experiment
Isotherm type: absolute
Temperature: 298 K
Tabular data in the source: 0
pressure (bar)	uptake ()
0.00312	0.362903
0.102964	2.72177
0.202808	5.9879
0.305772	7.25807
0.399376	9.43548
0.50546	11.25
0.602184	13.0645
0.702028	15.2419
0.801872	17.0565
0.907956	18.6895
1.00156	21.0484
1.10764	22.5
1.20437	23.2258
1.29797	25.0403
1.40406	26.8548
1.5039	29.0323
1.5975	30.121
1.70359	31.9355
1.80343	34.1129
1.90328	35.9274
2.00312	37.379
