Adsorption isotherm of Carbon Dioxide on ZJU-40
DOI: 10.1021/acs.jpcc.7b08370
Article source: Figure 2c
Adsorbate Carbon Dioxide: InChIKey CURLTUGMZLYLDI-UHFFFAOYSA-N
Kind: experiment
Isotherm type: absolute
Temperature: 298 K
Tabular data in the source: 0
pressure (bar)	uptake ()
0.003115	0
0.102804	7.63636
0.202492	13.5758
0.305296	19.5152
0.401869	24.1818
0.501558	29.697
0.598131	35.2121
0.700935	39.0303
0.800623	45.3939
0.900312	50.4848
0.996885	55.1515
1.1028	60.2424
1.20561	65.7576
1.3053	72.9697
1.40187	77.2121
1.49844	83.1515
1.60125	89.0909
1.70094	95.0303
1.79751	100.545
1.90031	107.333
1.99688	112.848
