Adsorption isotherm of Carbon Dioxide on NOTT-102
DOI: 10.1021/acs.jpcc.7b08370
Article source: Figure 2c
Adsorbate Carbon Dioxide: InChIKey CURLTUGMZLYLDI-UHFFFAOYSA-N
Kind: experiment
Isotherm type: absolute
Temperature: 298 K
Tabular data in the source: 0
pressure (bar)	uptake (cm3(STP)/cm3)
0.006231	0.424242
0.105919	7.21212
0.202492	14.8485
0.302181	19.5152
0.401869	23.7576
0.501558	28.8485
0.601246	32.2424
0.700935	36.9091
0.797508	41.1515
0.897196	44.5455
1	48.3636
1.1028	52.1818
1.20249	56.8485
1.30218	61.0909
1.40187	64.9091
1.49844	68.7273
1.59813	73.3939
1.69782	77.6364
1.79751	82.303
1.8972	86.1212
1.99688	90.7879
