Adsorption isotherm of Carbon Dioxide on NOTT-106
DOI: 10.1021/acs.jpcc.7b08370
Article source: Figure 2c
Adsorbate Carbon Dioxide: InChIKey CURLTUGMZLYLDI-UHFFFAOYSA-N
Kind: experiment
Isotherm type: absolute
Temperature: 298 K
Tabular data in the source: 0
pressure (bar)	uptake ()
0.006231	0
0.102804	11.8788
0.205607	20.3636
0.302181	28
0.401869	34.7879
0.501558	42.4242
0.601246	49.2121
0.700935	56
0.797508	62.7879
0.897196	70.4242
0.996885	77.2121
1.1028	84
1.20249	90.7879
1.30218	97.5758
1.40187	104.364
1.50156	111.152
1.59813	117.091
1.69782	123.879
1.80062	129.394
1.89408	136.182
1.99688	142.121
