Adsorption isotherm of Methane on Cu2ebtc
DOI: 10.1021/acs.jpcc.7b08370
Article source: Figure 2b
Adsorbate Methane: InChIKey VNWKTOKETHGBQD-UHFFFAOYSA-N
Kind: experiment
Isotherm type: absolute
Temperature: 298 K
Tabular data in the source: 0
pressure (bar)	uptake (cm3(STP)/cm3)
0.00624	0.362903
0.106084	2.17742
0.202808	4.35484
0.305772	5.9879
0.402496	7.98387
0.50546	9.97984
0.595944	12.1573
0.695788	13.6089
0.808112	15.4234
0.901716	16.875
1.00468	18.3266
1.10764	19.7782
1.20437	21.5927
1.30421	23.4073
1.40406	24.8589
1.5039	26.3105
1.60062	28.125
1.70047	29.3952
1.80031	30.6653
1.90016	32.1169
2.00624	33.3871
