Adsorption isotherm of Carbon Dioxide on NOTT-101
DOI: 10.1021/acs.jpcc.7b08370
Article source: Figure 2c
Adsorbate Carbon Dioxide: InChIKey CURLTUGMZLYLDI-UHFFFAOYSA-N
Kind: experiment
Isotherm type: absolute
Temperature: 298 K
Tabular data in the source: 0
pressure (bar)	uptake (cm3(STP)/cm3)
0.003115	0
0.102804	7.21212
0.205607	11.8788
0.305296	19.0909
0.398754	24.1818
0.501558	29.697
0.598131	34.3636
0.700935	38.6061
0.797508	43.697
0.900312	47.5152
0.996885	51.7576
1.1028	57.697
1.20249	62.3636
1.29906	69.5758
1.40187	75.5152
1.49844	81.4545
1.60436	86.5455
1.6947	91.6364
1.79751	97.5758
1.8972	103.091
1.99688	109.455
