Adsorption isotherm of Methane on HNUST-2
DOI: 10.1021/acs.jpcc.7b08370
Article source: Figure 2b
Adsorbate Methane: InChIKey VNWKTOKETHGBQD-UHFFFAOYSA-N
Kind: experiment
Isotherm type: absolute
Temperature: 298 K
Tabular data in the source: 0
pressure (bar)	uptake ()
0.00624	0.362903
0.106084	1.99597
0.205928	5.08065
0.305772	6.35081
0.402496	7.25807
0.50546	8.70968
0.602184	10.7056
0.698908	12.3387
0.798752	13.7903
0.907956	15.4234
1.00468	16.6935
1.10452	17.9637
1.20437	19.5968
1.30421	21.5927
1.40406	22.6815
1.50078	24.3145
1.60062	25.5847
1.70359	27.3992
1.80031	28.8508
1.90016	30.121
2.00624	31.754
