Adsorption isotherm of Acetylene on NJU-Bai12
DOI: 10.1021/acs.jpcc.7b08370
Article source: Figure 2a
Adsorbate Acetylene: InChIKey HSFWRNGVRCDJHI-UHFFFAOYSA-N
Kind: experiment
Isotherm type: absolute
Temperature: 298 K
Tabular data in the source: 0
pressure (bar)	uptake (cm3(STP)/cm3)
0.00312	0.443548
0.202808	11.5323
0.299532	15.9677
0.399376	19.9597
0.49922	25.2823
0.599064	28.8306
0.099844	5.76613
0.698908	34.1532
0.798752	38.1452
0.898596	43.0242
0.99532	47.0161
1.1014	51.0081
1.20125	55
1.30109	58.9919
1.40094	63.4274
1.50078	67.4194
1.5975	70.0806
1.69735	74.5161
1.79719	77.1774
1.89704	81.6129
1.99688	84.2742
