Adsorption isotherm of Carbon Dioxide on MOF-505
DOI: 10.1021/acs.jpcc.7b08370
Article source: Figure 2c
Adsorbate Carbon Dioxide: InChIKey CURLTUGMZLYLDI-UHFFFAOYSA-N
Kind: experiment
Isotherm type: absolute
Temperature: 298 K
Tabular data in the source: 0
pressure (bar)	uptake (cm3(STP)/cm3)
0.006231	0.424242
0.105919	13.5758
0.202492	28.8485
0.302181	42.4242
0.401869	58.1212
0.501558	73.3939
0.601246	89.5152
0.700935	103.939
0.800623	119.212
0.897196	131.091
0.996885	141.697
1.1028	152.727
1.20249	161.212
1.30218	168.848
1.40187	176.485
1.50156	183.697
1.59813	188.364
1.69782	194.303
1.79751	197.697
1.89408	201.939
1.99377	205.758
