Adsorption isotherm of Methane on PCN-46
DOI: 10.1021/acs.jpcc.7b08370
Article source: Figure 2b
Adsorbate Methane: InChIKey VNWKTOKETHGBQD-UHFFFAOYSA-N
Kind: experiment
Isotherm type: absolute
Temperature: 298 K
Tabular data in the source: 0
pressure (bar)	uptake (cm3(STP)/cm3)
0.00624	0.362903
0.106084	1.81452
0.202808	3.08468
0.308892	4.89919
0.408736	6.16935
0.50858	7.98387
0.605304	9.43548
0.705148	10.8871
0.808112	11.9758
0.904836	13.246
1.00468	14.6976
1.10452	15.9677
1.20437	16.875
1.30421	18.6895
1.4103	19.7782
1.51014	21.0484
1.60998	22.3185
1.70671	23.5887
1.80655	24.8589
1.9064	25.7661
2.00624	26.8548
