Adsorption isotherm of Acetylene on NOTT-106
DOI: 10.1021/acs.jpcc.7b08370
Article source: Figure 2a
Adsorbate Acetylene: InChIKey HSFWRNGVRCDJHI-UHFFFAOYSA-N
Kind: experiment
Isotherm type: absolute
Temperature: 298 K
Tabular data in the source: 0
pressure (bar)	uptake (cm3(STP)/cm3)
0	0.443548
0.099844	16.4113
0.199688	29.7177
0.299532	43.0242
0.399376	57.2177
0.49922	68.75
0.599064	80.2823
0.698908	90.0403
0.798752	98.9113
0.898596	106.895
0.99844	113.992
1.10452	121.089
1.20437	126.411
1.30421	131.734
1.39782	135.282
1.50078	139.718
1.60062	144.153
1.70047	146.371
1.80031	149.919
1.89704	153.024
1.99688	154.798
