Adsorption isotherm of Acetylene on NOTT-108
DOI: 10.1021/acs.jpcc.7b08370
Article source: Figure 2a
Adsorbate Acetylene: InChIKey HSFWRNGVRCDJHI-UHFFFAOYSA-N
Kind: experiment
Isotherm type: absolute
Temperature: 298 K
Tabular data in the source: 0
pressure (bar)	uptake ()
0	0.443548
0.102964	11.9758
0.199688	23.5081
0.302652	32.379
0.399376	44.7984
0.49922	55.4435
0.595944	65.6452
0.702028	77.621
0.795632	86.4919
0.898596	94.4758
0.99532	102.016
1.1014	108.669
1.20125	114.435
1.29797	119.758
1.39782	125.524
1.50078	130.847
1.60062	134.395
1.70047	137.056
1.80343	141.492
1.90016	142.823
2	146.371
