Adsorption isotherm of Carbon Dioxide on NOTT-103
DOI: 10.1021/acs.jpcc.7b08370
Article source: Figure 2c
Adsorbate Carbon Dioxide: InChIKey CURLTUGMZLYLDI-UHFFFAOYSA-N
Kind: experiment
Isotherm type: absolute
Temperature: 298 K
Tabular data in the source: 0
pressure (bar)	uptake (cm3(STP)/cm3)
0.003115	0.424242
0.105919	8.90909
0.202492	14.8485
0.302181	19.5152
0.401869	24.6061
0.498442	30.1212
0.601246	34.7879
0.700935	39.8788
0.800623	45.8182
0.897196	50.4848
0.996885	55.1515
1.1028	59.8182
1.20249	64.9091
1.30218	70.4242
1.39875	75.5152
1.50156	81.4545
1.60125	86.1212
1.70094	90.7879
1.79751	96.7273
1.8972	101.394
1.99688	106.485
