Adsorption isotherm of Carbon Dioxide on Cu2ebtc
DOI: 10.1021/acs.jpcc.7b08370
Article source: Figure 2c
Adsorbate Carbon Dioxide: InChIKey CURLTUGMZLYLDI-UHFFFAOYSA-N
Kind: experiment
Isotherm type: absolute
Temperature: 298 K
Tabular data in the source: 0
pressure (bar)	uptake ()
0.003115	0
0.099688	7.63636
0.205607	11.8788
0.308411	15.2727
0.398754	19.9394
0.498442	24.1818
0.601246	28.8485
0.697819	32.2424
0.800623	36.9091
0.897196	41.5758
0.993769	45.8182
1.09969	51.3333
1.20249	55.5758
1.29906	61.0909
1.40498	65.7576
1.50156	70.8485
1.60125	76.7879
1.70094	81.4545
1.79751	86.9697
1.90343	92.9091
1.99688	98.8485
