Adsorption isotherm of Acetylene on HNUST-2
DOI: 10.1021/acs.jpcc.7b08370
Article source: Figure 2a
Adsorbate Acetylene: InChIKey HSFWRNGVRCDJHI-UHFFFAOYSA-N
Kind: experiment
Isotherm type: absolute
Temperature: 298 K
Tabular data in the source: 0
pressure (bar)	uptake ()
0.00312	0.887097
0.099844	7.98387
0.199688	13.75
0.299532	20.8468
0.396256	29.2742
0.49922	35.9274
0.605304	42.5806
0.695788	49.6774
0.798752	55.4435
0.898596	62.5403
0.99844	69.1936
1.1014	74.0726
1.20125	78.5081
1.30109	83.8306
1.40094	89.5968
1.50078	94.0323
1.60062	98.4677
