Adsorption isotherm of Acetylene on ZJU-40
DOI: 10.1021/acs.jpcc.7b08370
Article source: Figure 2a
Adsorbate Acetylene: InChIKey HSFWRNGVRCDJHI-UHFFFAOYSA-N
Kind: experiment
Isotherm type: absolute
Temperature: 298 K
Tabular data in the source: 0
pressure (bar)	uptake (cm3(STP)/cm3)
0.00312	0.443548
0.106084	11.5323
0.202808	21.7339
0.302652	31.4919
0.399376	42.5806
0.49922	55.4435
0.602184	64.7581
0.698908	75.4032
0.798752	84.7177
0.898596	93.1452
0.99844	100.685
1.1014	109.113
1.20437	115.766
1.30109	121.976
1.40094	127.742
1.50078	132.177
1.60062	136.613
1.70047	140.605
1.79719	144.597
1.89392	149.476
2	152.137
