Adsorption isotherm of Carbon Dioxide on HNUST-2
DOI: 10.1021/acs.jpcc.7b08370
Article source: Figure 2c
Adsorbate Carbon Dioxide: InChIKey CURLTUGMZLYLDI-UHFFFAOYSA-N
Kind: experiment
Isotherm type: absolute
Temperature: 298 K
Tabular data in the source: 0
pressure (bar)	uptake (cm3(STP)/cm3)
0.006231	0.424242
0.105919	5.09091
0.205607	11.0303
0.302181	15.2727
0.398754	18.6667
0.501558	23.3333
0.598131	28
0.700935	32.2424
0.797508	36.4848
0.897196	39.8788
0.996885	43.2727
1.1028	47.9394
1.20249	52.1818
1.30218	56
1.40187	59.8182
1.49844	63.6364
1.60125	67.8788
1.70094	71.697
1.79751	75.9394
1.8972	78.9091
1.99688	83.1515
