Adsorption isotherm of Methane on NOTT-108
DOI: 10.1021/acs.jpcc.7b08370
Article source: Figure 2b
Adsorbate Methane: InChIKey VNWKTOKETHGBQD-UHFFFAOYSA-N
Kind: experiment
Isotherm type: absolute
Temperature: 298 K
Tabular data in the source: 0
pressure (bar)	uptake (cm3(STP)/cm3)
0.00624	0.544355
0.099844	2.90323
0.196568	5.08065
0.305772	7.25807
0.405616	9.79839
0.50546	11.7944
0.605304	13.7903
0.702028	15.9677
0.801872	17.7823
0.904836	19.5968
1.00156	21.4113
1.09828	23.0444
1.20125	24.6774
1.30109	26.129
1.40406	27.9435
1.5039	29.3952
1.60374	31.2097
1.70359	32.8427
1.80031	34.4758
1.90328	36.1089
2.00624	37.9234
