Adsorption isotherm of Methane on NOTT-103
DOI: 10.1021/acs.jpcc.7b08370
Article source: Figure 2b
Adsorbate Methane: InChIKey VNWKTOKETHGBQD-UHFFFAOYSA-N
Kind: experiment
Isotherm type: absolute
Temperature: 298 K
Tabular data in the source: 0
pressure (bar)	uptake ()
0.00312	0.181452
0.102964	2.90323
0.202808	5.2621
0.302652	7.43952
0.399376	9.43548
0.49922	11.4315
0.602184	13.7903
0.698908	15.6048
0.798752	17.4194
0.904836	19.2339
1.00468	21.0484
1.10452	22.6815
1.20437	24.1331
1.30109	25.9476
1.40406	27.7621
1.5039	29.2137
1.60062	30.8468
1.70047	33.2056
1.80343	34.6573
1.90016	36.2903
2.00624	37.9234
