Adsorption isotherm of Acetylene on MOF-505
DOI: 10.1021/acs.jpcc.7b08370
Article source: Figure 2a
Adsorbate Acetylene: InChIKey HSFWRNGVRCDJHI-UHFFFAOYSA-N
Kind: experiment
Isotherm type: absolute
Temperature: 298 K
Tabular data in the source: 0
pressure (bar)	uptake ()
0.099844	39.9194
0.299532	94.4758
0.399376	111.331
0.49922	124.637
0.599064	133.508
0.698908	140.605
0.798752	146.815
0.895476	150.806
0.99532	154.798
1.09828	158.347
1.19813	161.008
1.30109	164.556
1.39782	165.887
1.50078	168.105
1.60062	170.323
1.70047	172.097
1.79719	172.984
1.89704	174.315
1.99688	175.645
0.202808	71.4113
