Adsorption isotherm of Methane on ZJU-40
DOI: 10.1021/acs.jpcc.7b08370
Article source: Figure 2b
Adsorbate Methane: InChIKey VNWKTOKETHGBQD-UHFFFAOYSA-N
Kind: experiment
Isotherm type: absolute
Temperature: 298 K
Tabular data in the source: 0
pressure (bar)	uptake ()
0.00312	0.362903
0.102964	2.90323
0.202808	5.44355
0.302652	7.25807
0.402496	9.43548
0.50546	11.4315
0.599064	13.246
0.698908	15.0605
0.798752	16.875
0.904836	18.5081
1.00468	20.3226
1.10764	21.9556
1.20437	23.7702
1.30421	25.4032
1.40406	26.6734
1.5039	28.3065
1.60062	29.9395
1.70047	31.754
1.80343	33.9315
1.90328	35.5645
2.00624	37.1976
