Adsorption isotherm of Acetylene on NOTT-101
DOI: 10.1021/acs.jpcc.7b08370
Article source: Figure 2a
Adsorbate Acetylene: InChIKey HSFWRNGVRCDJHI-UHFFFAOYSA-N
Kind: experiment
Isotherm type: absolute
Temperature: 298 K
Tabular data in the source: 0
pressure (bar)	uptake ()
0.00312	0
0.106084	11.9758
0.202808	22.621
0.296412	33.2661
0.399376	43.0242
0.50234	51.4516
0.602184	61.6532
0.698908	70.0806
0.798752	80.7258
0.898596	87.8226
0.99532	96.6936
1.10452	103.347
1.20125	109.556
1.30109	115.323
1.40094	120.202
1.50078	125.524
1.60062	130.403
1.69735	133.508
1.79719	137.944
1.89704	142.379
1.99688	145.04
