Adsorption isotherm of Acetylene on NOTT-102
DOI: 10.1021/acs.jpcc.7b08370
Article source: Figure 2a
Adsorbate Acetylene: InChIKey HSFWRNGVRCDJHI-UHFFFAOYSA-N
Kind: experiment
Isotherm type: absolute
Temperature: 298 K
Tabular data in the source: 0
pressure (bar)	uptake (cm3(STP)/cm3)
0	0.887097
0.099844	9.75807
0.199688	18.1855
0.296412	26.1694
0.402496	33.2661
0.49922	39.9194
0.595944	47.0161
0.698908	54.1129
0.795632	61.2097
0.898596	67.4194
0.99532	74.0726
1.1014	78.5081
1.20125	84.7177
1.30109	89.5968
1.40094	94.4758
1.50078	99.7984
1.60062	104.677
1.70047	107.782
1.79719	112.661
1.89704	116.653
1.99688	120.645
