Adsorption isotherm of Carbon Dioxide on PCN-46
DOI: 10.1021/acs.jpcc.7b08370
Article source: Figure 2c
Adsorbate Carbon Dioxide: InChIKey CURLTUGMZLYLDI-UHFFFAOYSA-N
Kind: experiment
Isotherm type: absolute
Temperature: 298 K
Tabular data in the source: 0
pressure (bar)	uptake (cm3(STP)/cm3)
0.003115	0.424242
0.105919	4.66667
0.205607	8.48485
0.302181	12.7273
0.398754	16.5455
0.501558	20.3636
0.601246	23.3333
0.697819	25.4545
0.797508	28
0.897196	30.9697
0.996885	33.9394
1.1028	36.9091
1.20249	39.4545
1.30218	42.8485
1.40187	45.8182
1.50156	48.7879
1.60125	51.3333
1.69782	54.303
1.79751	57.2727
1.90031	59.8182
1.99688	64.0606
