Adsorption isotherm of Methane on NJU-Bai3
DOI: 10.1039/C2cc16231h
Adsorbate Methane: InChIKey VNWKTOKETHGBQD-UHFFFAOYSA-N
Temperature: 273 K
Tabular data in the source: 0
pressure (bar)	uptake (cm3(STP)/g)
0.0299685	0.884956
0.0535179	1.54867
0.0792133	2.21239
0.104896	3.0236
0.132731	3.76106
0.160573	4.42478
0.188402	5.23599
0.214091	5.97345
0.23764	6.63717
0.265488	7.22714
0.291171	8.03835
0.319012	8.70206
0.342568	9.29204
0.374701	9.95575
0.402536	10.6932
0.426092	11.2832
0.449642	11.9469
0.481775	12.6106
0.505331	13.2006
0.535318	13.8643
0.561014	14.528
0.586709	15.1917
0.610271	15.708
0.638113	16.3717
0.665961	16.9617
0.693808	17.5516
0.71737	18.0678
0.747358	18.7316
0.770907	19.3953
0.798755	19.9853
0.824463	20.5015
0.850165	21.0914
0.878006	21.7552
0.903715	22.2714
0.931562	22.8614
0.961556	23.4513
0.985118	23.9676
1.01082	24.5575
1.03867	25.1475
1.06437	25.7375
