Adsorption isotherm of Nitrogen on NJU-Bai3
DOI: 10.1039/C2cc16231h
Adsorbate Nitrogen: InChIKey IJGRMHOSHXDMSA-UHFFFAOYSA-N
Temperature: 273 K
Tabular data in the source: 0
pressure (bar)	uptake (mmol/g)
0.608365	0.129238
1.25475	0.389584
1.673	0.519446
2.20532	0.714549
3.11787	0.908406
3.65019	1.03789
4.10646	1.16763
5.05703	1.42698
6.0076	1.68633
6.9962	1.81432
7.98479	2.07354
8.93536	2.26727
9.96198	2.39514
10.8365	2.58912
11.8631	2.7826
12.7757	2.91084
13.7262	3.17019
14.7529	3.23244
15.6654	3.49191
16.692	3.55416
17.6046	3.74802
18.6692	3.87576
19.6198	3.93826
