Adsorption isotherm of Carbon Dioxide on NJU-Bai3
DOI: 10.1039/C2cc16231h
Adsorbate Carbon Dioxide: InChIKey CURLTUGMZLYLDI-UHFFFAOYSA-N
Temperature: 298 K
Tabular data in the source: 0
pressure (bar)	uptake (cm3(STP)/g)
0.0141895	0.877743
0.0543932	3.0721
0.0827722	5.70533
0.106421	7.46082
0.132436	8.77743
0.160815	10.9718
0.184464	12.7273
0.217573	13.605
0.241222	15.7994
0.267236	17.9937
0.29325	19.3103
0.323994	20.627
0.347643	22.3824
0.371292	24.1379
0.402036	25.4545
0.428051	26.7712
0.45643	28.5266
0.484809	30.2821
0.510823	31.1599
0.536837	32.9154
0.562851	34.6708
0.59123	36.4263
0.617244	37.7429
0.640893	39.0596
0.666907	40.3762
0.695286	41.6928
0.721301	43.0094
0.747315	44.326
0.775694	45.6426
0.804073	47.3981
0.825357	48.2759
0.858466	50.0313
0.886845	51.7868
0.908129	52.2257
0.934143	53.5423
0.960158	54.8589
1.01692	57.4922
1.04056	58.3699
1.06894	59.6865
