Adsorption isotherm of Methane on NJU-Bai3
DOI: 10.1039/C2cc16231h
Adsorbate Methane: InChIKey VNWKTOKETHGBQD-UHFFFAOYSA-N
Temperature: 298 K
Tabular data in the source: 0
pressure (bar)	uptake (cm3(STP)/g)
0.0278668	0.368732
0.0535812	0.811209
0.0793083	1.10619
0.109321	1.47493
0.132909	1.69617
0.160769	2.13864
0.188636	2.50737
0.214369	2.72861
0.24009	3.09735
0.267957	3.46608
0.291538	3.76106
0.319398	4.20354
0.347271	4.49853
0.375138	4.86726
0.400872	5.0885
0.426599	5.38348
0.456605	5.82596
0.47804	6.12094
0.508047	6.56342
0.533786	6.71091
0.559507	7.07965
0.585234	7.37463
0.613101	7.74336
0.638834	7.9646
0.668847	8.33333
0.692428	8.62832
0.720301	8.9233
0.746022	9.29204
0.773895	9.58702
0.799622	9.88201
0.825343	10.2507
0.855362	10.5457
0.878943	10.8407
0.904677	11.0619
0.932544	11.4307
0.958271	11.7257
0.98615	11.9469
1.01402	12.3156
1.03546	12.5369
1.06547	12.9056
