Adsorption isotherm of Carbon Dioxide on NJU-Bai3
DOI: 10.1039/C2cc16231h
Adsorbate Carbon Dioxide: InChIKey CURLTUGMZLYLDI-UHFFFAOYSA-N
Temperature: 273 K
Tabular data in the source: 0
pressure (bar)	uptake (mmol/g)
0.342205	0.786279
0.456274	1.70454
0.608365	2.49144
0.798479	3.54069
0.988593	4.19623
1.21673	4.85165
1.44487	5.83515
1.673	6.55619
1.97719	7.40821
2.35741	8.52245
2.85171	9.63631
3.11787	10.2916
3.65019	11.3397
4.03042	12.3227
4.60076	13.3051
5.01901	14.3536
6.0076	16.2533
6.92015	17.5626
7.94677	18.5435
8.89734	19.1309
9.88593	19.7838
10.8745	20.1743
11.7871	20.4994
12.8517	20.824
13.8023	21.1489
14.7529	21.3427
15.7414	21.6019
16.5779	21.7304
17.6426	21.8581
18.5551	22.052
19.6198	22.1141
