Adsorption isotherm of Carbon Dioxide on NJU-Bai3
DOI: 10.1039/C2cc16231h
Adsorbate Carbon Dioxide: InChIKey CURLTUGMZLYLDI-UHFFFAOYSA-N
Temperature: 273 K
Tabular data in the source: 0
pressure (bar)	uptake (mmol/g)
0.304183	0.983254
0.456274	1.83577
0.684411	2.95051
0.874525	3.73729
1.17871	4.78616
1.29278	5.50757
1.52091	6.03176
1.78707	7.01513
2.28137	8.26023
2.73764	9.3086
3.26996	10.4223
3.4981	11.0121
3.72624	11.5363
3.9924	11.9948
4.41065	12.912
4.8289	13.8949
5.24715	14.8122
5.70342	15.5981
6.19772	16.5151
6.69202	17.0384
7.37643	17.8236
7.8327	18.2814
8.25095	18.6081
8.70722	18.8691
9.08745	19.3928
9.65779	19.5221
10.1141	19.9143
10.6844	20.1093
11.1407	20.3047
11.5589	20.3689
12.0913	20.6952
12.5856	20.8249
13.0418	20.9546
13.6882	20.9525
13.9924	21.1483
14.4106	21.3438
15.1331	21.4727
16.1597	21.6661
17.2624	21.8594
18.1749	21.9876
19.1635	22.05
