Adsorption isotherm of Nitrogen on NJU-Bai3
DOI: 10.1039/C2cc16231h
Adsorbate Nitrogen: InChIKey IJGRMHOSHXDMSA-UHFFFAOYSA-N
Temperature: 77 K
Tabular data in the source: 0
pressure (bar)	uptake (cm3(STP)/g)
0.00553848	367.297
0.00764332	398.919
0.00773899	420.811
0.00783467	442.703
0.00801539	484.054
0.0100777	505.946
0.0341557	615.405
0.0499845	637.297
0.0795373	649.459
0.107102	656.757
0.124823	661.622
0.146467	664.054
0.170088	668.919
0.187788	668.919
0.207465	671.351
0.246808	673.784
0.295995	678.649
0.356982	683.514
0.441569	688.378
0.488768	688.378
0.535978	690.811
0.585144	690.811
0.632344	690.811
0.679564	695.676
0.73462	693.243
0.78183	695.676
0.797563	695.676
0.830996	695.676
0.852639	698.108
0.903761	695.676
0.921472	698.108
0.964738	698.108
