Adsorption isotherm of Carbon Dioxide on NJU-Bai3
DOI: 10.1039/C2cc16231h
Adsorbate Carbon Dioxide: InChIKey CURLTUGMZLYLDI-UHFFFAOYSA-N
Temperature: 293 K
Tabular data in the source: 0
pressure (bar)	uptake (cm3(STP)/g)
0.0402036	3.0721
0.0827722	6.58307
0.108786	8.33856
0.137165	10.094
0.184464	14.0439
0.215208	16.6771
0.241222	18.4326
0.267236	19.7492
0.295615	22.3824
0.321629	24.1379
0.347643	26.3323
0.371292	28.5266
0.399671	29.8433
0.430415	31.1599
0.454065	32.9154
0.482444	34.6708
0.508458	36.8652
0.536837	38.6207
0.558121	39.9373
0.5865	41.2539
0.619609	43.4483
0.643258	44.7649
0.669272	46.5204
0.695286	47.837
0.718936	49.5925
0.74968	51.348
0.778059	52.2257
0.796978	53.9812
0.827722	55.7367
0.853736	57.0533
0.87975	58.8088
0.908129	59.6865
0.934143	61.0031
0.962522	61.8809
0.988537	63.6364
1.01219	64.953
1.0382	66.7085
1.06658	67.5862
