Adsorption isotherm of Methane on NJU-Bai3
DOI: 10.1039/C2cc16231h
Adsorbate Methane: InChIKey VNWKTOKETHGBQD-UHFFFAOYSA-N
Temperature: 273 K
Tabular data in the source: 0
pressure (bar)	uptake (mmol/g)
1.21673	0.586559
3.34601	1.43259
3.76426	1.62807
4.3346	1.82305
4.79087	1.88717
5.70342	2.21226
6.46388	2.47223
7.30038	2.66634
8.51711	2.99043
9.5057	3.24965
10.2281	3.44413
11.1787	3.57225
12.3574	3.76523
13.308	3.95896
14.2966	4.2838
15.2852	4.34618
16.0837	4.47479
17.1103	4.60266
18.0228	4.79651
19.3156	4.85789
