Adsorption isotherm of Nitrogen on NJU-Bai3
DOI: 10.1039/C2cc16231h
Adsorbate Nitrogen: InChIKey IJGRMHOSHXDMSA-UHFFFAOYSA-N
Temperature: 273 K
Tabular data in the source: 0
pressure (bar)	uptake (mmol/g)
1.36882	0.454827
1.93916	0.649806
2.35741	0.71405
2.81369	0.909404
3.30798	0.973399
3.80228	1.03739
4.37262	1.16676
4.75285	1.36236
5.55133	1.42536
6.53992	1.68458
7.45247	1.87844
8.6692	2.13691
9.27757	2.26615
10.3042	2.45963
11.3308	2.65311
12.4335	2.84635
13.2319	2.97496
14.1445	3.1032
15.0951	3.36255
16.2738	3.4243
17.1103	3.6184
18.0989	3.68078
19.2776	3.87376
