Adsorption isotherm of Methane on NJU-Bai3
DOI: 10.1039/C2cc16231h
Adsorbate Methane: InChIKey VNWKTOKETHGBQD-UHFFFAOYSA-N
Temperature: 293 K
Tabular data in the source: 0
pressure (bar)	uptake (cm3(STP)/g)
0.0600193	0.811209
0.107162	1.62242
0.137188	1.84366
0.186477	2.65487
0.212198	3.0236
0.240071	3.31858
0.267925	3.83481
0.293646	4.20354
0.317227	4.49853
0.3451	4.79351
0.370821	5.16224
0.400827	5.60472
0.452275	6.26844
0.480142	6.63717
0.535875	7.37463
0.55945	7.74336
0.585171	8.11209
0.615184	8.48083
0.664492	9.0708
0.692359	9.43953
0.720226	9.80826
0.745946	10.177
0.769527	10.472
0.7974	10.767
0.829559	11.1357
0.85314	11.4307
0.878861	11.7994
0.904588	12.0944
0.930303	12.5369
0.960322	12.8319
0.986049	13.1268
1.01178	13.4218
1.0375	13.7168
1.06537	14.0855
