Adsorption isotherm of Argon on NJU-Bai3
DOI: 10.1039/C2cc16231h
Adsorbate Argon: InChIKey XKRFYHLGVUSROY-UHFFFAOYSA-N
Temperature: 87 K
Tabular data in the source: 0
pressure (bar)	uptake (cm3(STP)/g)
0.0025985	138.649
0.00429504	72.973
0.00510036	255.405
0.00686133	204.324
0.00725862	294.324
0.00939541	328.378
0.0154622	352.703
0.0323954	588.649
0.0826259	717.568
0.106517	729.73
0.126425	739.459
0.148297	744.324
0.17018	751.622
0.18808	756.486
0.209942	758.919
0.249692	763.784
0.305356	773.514
0.357004	773.514
0.394768	778.378
0.424586	783.243
0.450421	785.676
0.494123	785.676
0.543806	790.541
0.595454	790.541
0.641153	792.973
0.690825	795.405
0.742495	800.27
0.788183	800.27
0.813997	797.838
0.837856	802.703
0.861693	802.703
0.889514	805.135
0.913362	807.568
0.939186	807.568
0.974953	810
