Adsorption isotherm of Methane on NJU-Bai3
DOI: 10.1039/C2cc16231h
Adsorbate Methane: InChIKey VNWKTOKETHGBQD-UHFFFAOYSA-N
Temperature: 273 K
Tabular data in the source: 0
pressure (bar)	uptake (mmol/g)
0.912548	0.52194
1.44487	0.782661
2.35741	1.04213
2.81369	1.23749
3.07985	1.43347
3.57414	1.56308
4.60076	1.95341
5.05703	1.95191
6.08365	2.40786
6.95817	2.66746
7.98479	2.92656
8.93536	3.05467
9.88593	3.31402
10.8745	3.57325
11.8631	3.76685
12.8517	3.96046
13.8403	4.21968
14.7529	4.28231
15.7795	4.41017
16.73	4.53829
17.6426	4.66653
18.6692	4.79439
19.6198	4.92251
