Adsorption isotherm of Carbon Dioxide on NJU-Bai3
DOI: 10.1039/C2cc16231h
Adsorbate Carbon Dioxide: InChIKey CURLTUGMZLYLDI-UHFFFAOYSA-N
Temperature: 273 K
Tabular data in the source: 0
pressure (bar)	uptake (cm3(STP)/g)
0.00709476	3.0721
0.028379	6.58307
0.0472984	12.2884
0.0780424	18.4326
0.108786	24.1379
0.1348	28.9655
0.15845	33.3542
0.189194	37.7429
0.212843	42.1317
0.241222	46.5204
0.267236	50.4702
0.295615	55.2978
0.323994	58.8088
0.347643	62.3197
0.376022	66.7085
0.406766	70.6583
0.428051	73.7304
0.45643	77.2414
0.508458	83.3856
0.534472	86.8966
0.588865	93.0408
0.640893	100.063
0.669272	102.696
0.695286	105.768
0.723666	108.401
0.74495	111.912
0.773329	114.545
0.804073	117.618
0.830087	120.251
0.856101	122.884
0.882115	125.956
0.910494	129.467
0.936508	131.661
0.957793	134.295
1.01455	139.561
1.04293	141.317
1.07367	144.828
