Adsorption isotherm of Nitrogen on MIL-100(Fe)
DOI: 10.1016/j.cej.2014.07.119
Article source: Figure  2a
Adsorbate Nitrogen: InChIKey IJGRMHOSHXDMSA-UHFFFAOYSA-N
Kind: experiment
Temperature: 77 K
Tabular data in the source: 0
pressure (bar)	uptake (cm3(STP)/g)
0.005502	53.3
0.005877	32.76
0.005887	32.73
0.005887	100.7
0.005928	100.05
0.006677	58.25
0.006758	96.89
0.007052	26.5
0.007083	79.95
0.007528	156.7
0.008217	18.35
0.008248	71.08
0.008248	70.22
0.008248	69.75
0.008602	11.94
0.008704	174.75
0.009069	132.08
0.009109	260.46
0.00915	253.54
0.009454	123.35
0.009484	117.26
0.009525	264.3
0.009535	247.13
0.009768	5.68
0.009859	77.51
0.009859	145.19
0.010214	86.06
0.010224	84.19
0.010295	208.39
0.010335	271.74
0.01069	214.36
0.0107	240.87
0.01149	251.65
0.011875	235.04
0.013061	267.96
0.013841	299.4
0.014236	302.03
0.014256	302.18
0.031867	345.71
0.060025	402.5
0.083482	426.52
0.103412	441.07
0.120222	461.31
0.135472	484.02
0.172192	493.03
0.194068	494.19
0.210472	496.37
0.251884	500.28
0.308524	505.06
0.356958	507.66
0.403446	511.28
0.456175	513.01
0.506574	515.32
0.558524	517.19
0.608132	519.06
0.658916	521.8
0.706955	522.51
0.757739	525.11
0.808523	526.84
0.83352	527.7
0.865164	530.6
0.882743	532.19
0.911256	534.22
0.937043	539.89
0.96204	545.12
0.984322	557.78
0.993694	568.55
0.996825	575.1
0.998001	581.22
1.00192	595.78
