Adsorption isotherm of Radon on IRMOF-2-F
DOI: 10.1021/Jp303274m
Adsorbate Radon: InChIKey SYUHGPGVQRZVTB-UHFFFAOYSA-N
Temperature: 292 K
Tabular data in the source: 0
pressure (bar)	uptake (cm3(STP)/mol)
0.00123311	84.3373
0.0065725	379.518
0.0106812	632.53
0.0154065	927.711
0.0191059	1180.72
0.0234181	1412.65
0.0271162	1644.58
0.0308131	1855.42
0.0347171	2108.43
0.0388258	2361.45
0.0433452	2635.54
0.0470433	2867.47
0.0503296	3057.23
0.0525911	3225.9
