Adsorption isotherm of Radon on IRMOF-2-Br
DOI: 10.1021/Jp303274m
Adsorbate Radon: InChIKey SYUHGPGVQRZVTB-UHFFFAOYSA-N
Temperature: 292 K
Tabular data in the source: 0
pressure (bar)	uptake (cm3(STP)/mol)
0.0510103	4929.58
0.111295	9859.15
0.208678	22676.1
0.491554	72957.7
0.769792	159718
0.987745	221831
1.63697	287887
2.00331	299718
