Adsorption isotherm of Xenon on IRMOF-1
DOI: 10.1021/Jp303274m
Adsorbate Xenon: InChIKey FHNFHKCVQCLJFQ-UHFFFAOYSA-N
Temperature: 292 K
Tabular data in the source: 0
pressure (bar)	uptake (cm3(STP)/mol)
0.0159032	539.332
0.146944	3768.97
0.234304	5922.07
0.345483	8613.08
0.464626	11664.1
0.575805	14355.1
0.690966	17226.2
0.826012	20816.5
0.953047	23685.4
1.04837	26198.6
1.11189	27633
