Adsorption isotherm of Xenon on IRMOF-1
DOI: 10.1021/Jp303274m
Adsorbate Xenon: InChIKey FHNFHKCVQCLJFQ-UHFFFAOYSA-N
Temperature: 273 K
Tabular data in the source: 0
pressure (bar)	uptake (cm3(STP)/mol)
0.0267651	1509.43
0.0775659	3584.91
0.128354	5471.7
0.163131	7169.81
0.200562	8679.25
0.251338	10377.4
0.304793	12264.2
0.352914	14150.9
0.406357	15849.1
0.454453	17358.5
0.505254	19434
0.561375	21320.8
0.601473	22830.2
0.657594	24717
0.716369	26415.1
0.748454	27735.8
0.775182	28679.2
0.83129	30377.4
0.852685	31320.8
0.887449	32830.2
0.943595	35094.3
0.972977	35849.1
1.00509	37547.2
