Adsorption isotherm of Nitrogen on IRMOF-2-Cl
DOI: 10.1021/Jp303274m
Adsorbate Nitrogen: InChIKey IJGRMHOSHXDMSA-UHFFFAOYSA-N
Temperature: 292 K
Tabular data in the source: 0
pressure (bar)	uptake (cm3(STP)/mol)
0.11952	506.024
0.153136	650.602
0.186775	831.325
0.220392	975.904
0.254008	1120.48
0.287625	1265.06
0.321241	1409.64
0.351132	1554.22
0.384771	1734.94
0.418388	1879.52
0.452004	2024.1
0.489346	2168.67
0.515512	2313.25
0.537908	2385.54
0.571546	2566.27
0.605163	2710.84
0.638779	2855.42
0.672396	3000
0.706035	3180.72
0.732156	3253.01
0.739651	3325.3
0.773267	3469.88
0.806906	3650.6
0.840523	3795.18
0.874139	3939.76
0.907778	4120.48
0.941394	4265.06
0.95634	4337.35
0.989956	4481.93
1.0236	4662.65
