Adsorption isotherm of Argon on IRMOF-2-F
DOI: 10.1021/Jp303274m
Adsorbate Argon: InChIKey XKRFYHLGVUSROY-UHFFFAOYSA-N
Temperature: 273 K
Tabular data in the source: 0
pressure (bar)	uptake (cm3(STP)/mol)
0.02625	126.809
0.060375	274.679
0.081375	359.144
0.128625	527.966
0.168	675.726
0.207375	844.712
0.254625	1034.76
0.312375	1245.81
0.357	1435.92
0.40425	1647.19
0.464625	1858.19
0.5145	2048.18
0.56175	2217.01
0.616875	2406.89
0.658875	2597.05
0.711375	2786.98
0.758625	2977.03
0.779625	3040.27
0.816375	3188.09
0.837375	3293.78
0.861	3399.42
0.88725	3526.22
0.921375	3652.87
0.968625	3885.37
0.99225	3948.55
1.01063	4011.85
