Adsorption isotherm of Argon on IRMOF-2-Cl
DOI: 10.1021/Jp303274m
Adsorbate Argon: InChIKey XKRFYHLGVUSROY-UHFFFAOYSA-N
Temperature: 292 K
Tabular data in the source: 0
pressure (bar)	uptake (cm3(STP)/mol)
0.0334104	143.713
0.0735468	395.21
0.116976	574.85
0.147054	718.563
0.177151	898.204
0.207228	1041.92
0.237306	1185.63
0.274069	1365.27
0.304147	1508.98
0.334244	1688.62
0.364321	1832.34
0.394399	1976.05
0.424476	2119.76
0.454553	2263.47
0.481318	2443.11
0.49465	2443.11
0.524727	2586.83
0.554825	2766.47
0.584902	2910.18
0.614979	3053.89
0.645057	3197.6
0.675154	3377.25
0.705231	3520.96
0.731976	3664.67
0.755367	3772.46
0.785444	3916.17
0.815522	4059.88
0.845599	4203.59
0.872363	4383.23
0.889069	4455.09
0.919146	4598.8
0.949203	4706.59
0.962576	4778.44
