Adsorption isotherm of Xenon on IRMOF-2-I
DOI: 10.1021/Jp303274m
Adsorbate Xenon: InChIKey FHNFHKCVQCLJFQ-UHFFFAOYSA-N
Temperature: 292 K
Tabular data in the source: 0
pressure (bar)	uptake (cm3(STP)/mol)
0.0226847	807.184
0.0680541	2963.72
0.128547	4845.13
0.162574	6191.44
0.196601	7266.68
0.219285	8344.95
0.253312	9420.18
0.28734	10766.5
0.321367	12112.8
0.355394	13188.1
0.38564	14535.4
0.419667	15881.7
0.453694	16956.9
0.487721	18303.3
0.521748	19378.5
0.555775	20724.8
0.589802	22071.1
0.623829	23146.4
0.654076	24493.7
0.688103	25840
0.72213	26915.2
0.752376	28262.6
0.786403	29337.8
0.82043	30684.1
0.854457	32030.4
0.896046	33645.8
0.930073	34721
0.9641	36067.4
0.994346	37143.6
1.02837	38489.9
1.05484	39838.3
