Adsorption isotherm of Krypton on IRMOF-2-F
DOI: 10.1021/Jp303274m
Adsorbate Krypton: InChIKey DNNSSWSSYDEUBZ-UHFFFAOYSA-N
Temperature: 273 K
Tabular data in the source: 0
pressure (bar)	uptake (cm3(STP)/mol)
0.0212934	171.811
0.0984425	972.35
0.212833	2173.08
0.266035	2744.79
0.332544	3430.99
0.425666	4346.17
0.489521	4975.34
0.534736	5489.73
0.619872	6347.59
0.686368	7090.66
0.731571	7661.91
0.830013	8634.26
0.901842	9377.63
0.95771	9949.49
1.00028	10350
