Adsorption isotherm of Xenon on IRMOF-2-F
DOI: 10.1021/Jp303274m
Adsorbate Xenon: InChIKey FHNFHKCVQCLJFQ-UHFFFAOYSA-N
Temperature: 273 K
Tabular data in the source: 0
pressure (bar)	uptake (cm3(STP)/mol)
0.0268105	1132.08
0.0643275	2452.83
0.104505	3584.91
0.144709	5094.34
0.198292	6792.45
0.249214	8679.25
0.297425	10000
0.353682	11698.1
0.415336	14150.9
0.501089	17169.8
0.608268	20754.7
0.65383	22452.8
0.720819	24717
0.80922	27358.5
0.881581	30000
0.921771	31320.8
0.991459	33962.3
1.00486	34528.3
