Adsorption isotherm of Krypton on IRMOF-2-Cl
DOI: 10.1021/Jp303274m
Adsorbate Krypton: InChIKey DNNSSWSSYDEUBZ-UHFFFAOYSA-N
Temperature: 273 K
Tabular data in the source: 0
pressure (bar)	uptake (cm3(STP)/mol)
0.0186651	198.113
0.0666612	726.415
0.106658	1188.68
0.175986	1981.13
0.234647	2707.55
0.319974	3698.11
0.386635	4424.53
0.466628	5349.06
0.527957	6009.43
0.613283	7066.04
0.685277	7990.57
0.76527	8981.13
0.850597	9905.66
0.943922	11028.3
0.978586	11490.6
1.00525	11754.7
