Adsorption isotherm of Krypton on IRMOF-1
DOI: 10.1021/Jp303274m
Adsorbate Krypton: InChIKey DNNSSWSSYDEUBZ-UHFFFAOYSA-N
Temperature: 292 K
Tabular data in the source: 0
pressure (bar)	uptake (cm3(STP)/mol)
0.0286735	302.241
0.0573546	561.13
0.0834393	733.424
0.10169	906.054
0.122544	1121.92
0.151232	1337.46
0.172087	1553.33
0.187725	1726.07
0.208587	1898.59
0.260734	2373.24
0.31288	2847.88
0.359797	3366.11
0.409347	3754.16
0.456278	4185.68
0.50321	4617.2
0.563176	5178.22
0.60228	5566.72
0.659635	6127.85
0.711782	6602.49
0.748282	6947.75
0.776956	7249.99
0.808241	7552.12
0.831706	7767.88
0.849949	7983.87
0.870811	8156.38
0.894269	8415.5
0.928158	8760.87
0.943796	8933.61
0.964643	9192.83
0.982871	9495.52
1.00109	9841.56
