Adsorption isotherm of Nitrogen on IRMOF-2-Cl
DOI: 10.1021/Jp303274m
Adsorbate Nitrogen: InChIKey IJGRMHOSHXDMSA-UHFFFAOYSA-N
Temperature: 273 K
Tabular data in the source: 0
pressure (bar)	uptake (cm3(STP)/mol)
0.0262559	126.761
0.062997	274.648
0.0866101	359.155
0.128612	549.296
0.17322	718.31
0.21258	866.197
0.265067	1077.46
0.309699	1288.73
0.356926	1457.75
0.412031	1669.01
0.467149	1901.41
0.511757	2070.42
0.564257	2302.82
0.614101	2471.83
0.663958	2661.97
0.711196	2852.11
0.753186	3021.13
0.792533	3147.89
0.824013	3253.52
0.852875	3359.15
0.889604	3485.92
0.921121	3654.93
0.942079	3676.06
0.973559	3781.69
1.01292	3929.58
