Adsorption isotherm of Krypton on IRMOF-1
DOI: 10.1021/Jp303274m
Adsorbate Krypton: InChIKey DNNSSWSSYDEUBZ-UHFFFAOYSA-N
Temperature: 292 K
Tabular data in the source: 0
pressure (bar)	uptake (cm3(STP)/mol)
0.0228387	218.182
0.102762	945.455
0.216979	2109.09
0.338785	3272.73
0.472022	4581.82
0.62428	6036.36
0.749904	7272.73
0.89839	8800
1.04683	10181.8
