Adsorption isotherm of Nitrogen on IRMOF-2-F
DOI: 10.1021/Jp303274m
Adsorbate Nitrogen: InChIKey IJGRMHOSHXDMSA-UHFFFAOYSA-N
Temperature: 292 K
Tabular data in the source: 0
pressure (bar)	uptake (cm3(STP)/mol)
0.0705097	236.649
0.245478	978.869
0.522294	2099.9
0.720765	2984.4
1.04459	4183.95
