Adsorption isotherm of Nitrogen on IRMOF-2-Cl
DOI: 10.1021/Jp303274m
Adsorbate Nitrogen: InChIKey IJGRMHOSHXDMSA-UHFFFAOYSA-N
Temperature: 292 K
Tabular data in the source: 0
pressure (bar)	uptake (cm3(STP)/mol)
0.0508319	1446.04
0.0779423	2063.57
0.0982751	3103.06
0.125385	3720.59
0.152496	4338.11
0.176217	5166.62
0.203328	5784.15
0.230438	6820.84
0.257548	7438.37
0.28127	8476.46
0.30838	9093.99
0.335491	9921.09
0.36599	10537.2
0.386323	11367.1
0.413433	11984.7
0.437155	13022.8
0.464265	13640.3
0.494764	14466
0.53543	15706.6
0.623538	18185.2
0.650649	19221.9
0.677759	19839.4
0.70487	20666.5
0.73198	21493.6
0.755702	22112.5
0.786201	23147.8
0.8167	23763.9
0.837033	24593.9
0.864143	25840.1
0.894642	26246.7
0.914975	27286.2
0.942085	27903.7
0.969196	28521.2
0.989528	29560.7
