Adsorption isotherm of Nitrogen on IRMOF-2-Br
DOI: 10.1021/Jp303274m
Adsorbate Nitrogen: InChIKey IJGRMHOSHXDMSA-UHFFFAOYSA-N
Temperature: 292 K
Tabular data in the source: 0
pressure (bar)	uptake (cm3(STP)/mol)
0.0168922	72.2892
0.09456	361.446
0.151929	530.12
0.266727	939.759
0.361267	1277.11
0.526721	1879.52
0.634746	2240.96
0.749565	2674.7
0.867709	3060.24
0.945417	3397.59
1.00954	3590.36
