Adsorption isotherm of Nitrogen on IRMOF-2-Br
DOI: 10.1021/Jp303274m
Adsorbate Nitrogen: InChIKey IJGRMHOSHXDMSA-UHFFFAOYSA-N
Temperature: 273 K
Tabular data in the source: 0
pressure (bar)	uptake (cm3(STP)/mol)
0.0261822	141.509
0.0471279	259.434
0.0706919	306.604
0.0916376	353.774
0.104729	471.698
0.112583	471.698
0.130911	589.623
0.154475	660.377
0.172802	849.057
0.193748	896.226
0.209457	943.396
0.217312	943.396
0.238258	1061.32
0.253967	1179.25
0.256585	1155.66
0.274913	1250
0.29324	1391.51
0.316804	1485.85
0.33775	1533.02
0.358696	1627.36
0.361314	1627.36
0.379641	1721.7
0.397969	1839.62
0.421533	1957.55
0.442479	2004.72
0.458188	2122.64
0.463424	2075.47
0.479134	2193.4
0.502698	2287.74
0.521025	2405.66
0.541971	2452.83
0.55768	2547.17
0.562917	2523.58
0.581244	2641.51
0.659791	3018.87
0.706919	3207.55
0.730483	3325.47
0.774992	3514.15
0.82212	3679.25
0.840448	3773.58
0.861393	3867.92
0.882339	3962.26
0.892812	4009.43
0.903285	4033.02
0.918994	4174.53
0.921612	4127.36
0.942558	4268.87
0.955649	4386.79
0.960886	4410.38
0.981831	4528.3
1.00016	4669.81
1.0054	4622.64
