Adsorption isotherm of Argon on IRMOF-2-I
DOI: 10.1021/Jp303274m
Adsorbate Argon: InChIKey XKRFYHLGVUSROY-UHFFFAOYSA-N
Temperature: 292 K
Tabular data in the source: 0
pressure (bar)	uptake (cm3(STP)/mol)
0.0267525	144.578
0.0668812	361.446
0.0936337	506.024
0.120386	650.602
0.150483	795.181
0.180579	975.904
0.210676	1120.48
0.240772	1301.2
0.274213	1481.93
0.304309	1662.65
0.334406	1807.23
0.364502	1987.95
0.394599	2132.53
0.424696	2313.25
0.451448	2457.83
0.481545	2638.55
0.498265	2710.84
0.528361	2855.42
0.558458	3036.14
0.581866	3180.72
0.611963	3325.3
0.642059	3506.02
0.672156	3650.6
0.702252	3831.33
0.732349	4012.05
0.759101	4156.63
0.789198	4301.2
0.819295	4445.78
0.849391	4626.51
0.879488	4771.08
0.909584	4951.81
0.939681	5096.39
0.963089	5240.96
