Adsorption isotherm of Argon on IRMOF-2-I
DOI: 10.1021/Jp303274m
Adsorbate Argon: InChIKey XKRFYHLGVUSROY-UHFFFAOYSA-N
Temperature: 292 K
Tabular data in the source: 0
pressure (bar)	uptake (cm3(STP)/mol)
0.0733101	410.957
0.104729	584.817
0.26444	1358.98
0.481752	2655.29
0.743574	4109.41
0.966122	5294.69
