Adsorption isotherm of Argon on IRMOF-2-Cl
DOI: 10.1021/Jp303274m
Adsorbate Argon: InChIKey XKRFYHLGVUSROY-UHFFFAOYSA-N
Temperature: 292 K
Tabular data in the source: 0
pressure (bar)	uptake (cm3(STP)/mol)
0.0773904	231.928
0.104332	337.349
0.13461	421.687
0.161531	506.024
0.188433	569.277
0.21871	653.614
0.255799	843.373
0.333169	1054.22
0.48797	1539.16
0.504826	1623.49
0.562025	1792.17
0.612514	1960.84
0.639395	2003.01
0.666337	2108.43
0.693259	2192.77
0.716806	2256.02
0.740373	2340.36
0.763899	2382.53
0.787486	2487.95
0.814408	2572.29
0.84133	2656.63
0.871607	2740.96
0.901884	2825.3
0.925471	2930.72
0.955748	3015.06
0.98269	3120.48
1.01295	3183.73
