Adsorption isotherm of Nitrogen on IRMOF-2-Br
DOI: 10.1021/Jp303274m
Adsorbate Nitrogen: InChIKey IJGRMHOSHXDMSA-UHFFFAOYSA-N
Temperature: 292 K
Tabular data in the source: 0
pressure (bar)	uptake (cm3(STP)/mol)
0.130573	473.462
0.172357	631.31
0.193249	694.383
0.21414	773.307
0.258535	899.414
0.310765	1088.8
0.360383	1278.22
0.412612	1467.61
0.459619	1593.67
0.511848	1783.06
0.558854	1940.83
0.613695	2130.17
0.668536	2319.51
0.720765	2477.2
0.752103	2603.51
0.786052	2729.78
0.822613	2871.86
0.838282	2935.01
0.856562	3013.98
0.877454	3108.75
0.893122	3171.91
0.929683	3313.99
0.955798	3456.23
0.981912	3582.62
1.00542	3693.21
