Adsorption isotherm of Nitrogen on IRMOF-1
DOI: 10.1021/Jp303274m
Adsorbate Nitrogen: InChIKey IJGRMHOSHXDMSA-UHFFFAOYSA-N
Temperature: 292 K
Tabular data in the source: 0
pressure (bar)	uptake (cm3(STP)/mol)
0.0301771	84.3373
0.0838432	253.012
0.127437	379.518
0.187831	590.361
0.258238	780.12
0.352174	1096.39
0.412548	1286.14
0.472923	1475.9
0.536661	1686.75
0.633901	1960.84
0.71442	2234.94
0.838533	2635.54
0.922396	2909.64
1.00626	3183.73
