Adsorption isotherm of Argon on IRMOF-2-Cl
DOI: 10.1021/Jp303274m
Adsorbate Argon: InChIKey XKRFYHLGVUSROY-UHFFFAOYSA-N
Temperature: 292 K
Tabular data in the source: 0
pressure (bar)	uptake (cm3(STP)/mol)
0.0628372	236.769
0.0837829	283.992
0.167566	520.434
0.188512	615.207
0.206839	662.47
0.259203	804.303
0.311568	977.835
0.358696	1135.6
0.458188	1466.9
0.507934	1608.77
0.562917	1813.96
0.615281	1955.79
0.659791	2097.75
0.709537	2255.47
0.754047	2381.58
0.782847	2476.23
0.814266	2554.99
0.829975	2618.14
0.856157	2712.83
0.874484	2775.95
0.890194	2823.25
0.916376	2902.09
0.93994	2996.82
0.963504	3075.71
0.98445	3138.78
1.00801	3201.81
