Adsorption isotherm of Krypton on IRMOF-2-Cl
DOI: 10.1021/Jp303274m
Adsorbate Krypton: InChIKey DNNSSWSSYDEUBZ-UHFFFAOYSA-N
Temperature: 292 K
Tabular data in the source: 0
pressure (bar)	uptake (cm3(STP)/mol)
0.159074	1293.77
0.185174	1379.36
0.211251	1595.01
0.263391	2113.01
0.305121	2414.69
0.359887	2845.87
0.409438	3233.93
0.45898	3665.33
0.511142	4053.27
0.563297	4484.57
0.607624	4872.85
0.657174	5260.9
0.709329	5692.19
0.751052	6037.23
0.782345	6296.01
0.80581	6511.77
0.829291	6640.82
0.857972	6899.71
0.876222	7072.34
0.889257	7201.84
0.915342	7374.13
0.925765	7503.74
0.957058	7762.52
0.977904	8021.74
1.00138	8194.15
