Adsorption isotherm of Argon on IRMOF-1
DOI: 10.1021/Jp303274m
Adsorbate Argon: InChIKey XKRFYHLGVUSROY-UHFFFAOYSA-N
Temperature: 292 K
Tabular data in the source: 0
pressure (bar)	uptake (cm3(STP)/mol)
0.0133119	30.5162
0.0897298	394.234
0.17944	818.587
0.2359	1121.47
0.332255	1576.14
0.395401	1849.1
0.485111	2273.46
0.561529	2637.17
0.634594	3030.91
0.720991	3425.05
0.804034	3849.2
0.890431	4243.34
0.946891	4546.22
0.983434	4728.03
