Adsorption isotherm of Krypton on IRMOF-1
DOI: 10.1021/Jp303274m
Adsorbate Krypton: InChIKey DNNSSWSSYDEUBZ-UHFFFAOYSA-N
Temperature: 273 K
Tabular data in the source: 0
pressure (bar)	uptake (cm3(STP)/mol)
0.0213879	264.002
0.0882249	1055.83
0.163082	1913.49
0.240613	2770.97
0.315471	3694.98
0.387655	4420.11
0.465186	5277.6
0.534697	6069.25
0.612228	6926.73
0.684412	7784.57
0.77531	8840.23
0.847494	9698.06
0.914331	10423.5
0.973148	11083.2
1.01325	11545
