Adsorption isotherm of Krypton on IRMOF-2-Cl
DOI: 10.1021/Jp303274m
Adsorbate Krypton: InChIKey DNNSSWSSYDEUBZ-UHFFFAOYSA-N
Temperature: 292 K
Tabular data in the source: 0
pressure (bar)	uptake (cm3(STP)/mol)
0.0433298	379.518
0.113324	921.687
0.189984	1572.29
0.219982	1789.16
0.276644	2222.89
0.356637	2819.28
0.409966	3307.23
0.536623	4283.13
0.613283	4933.73
0.65328	5313.25
0.679944	5475.9
0.709942	5692.77
0.733273	5909.64
0.763271	6018.07
0.783269	6343.37
0.809933	6506.02
0.836598	6668.67
0.859929	6939.76
0.886594	7156.63
0.913258	7427.71
0.939923	7644.58
0.966587	7861.45
0.996585	8132.53
