Adsorption isotherm of Nitrogen on IRMOF-2-I
DOI: 10.1021/Jp303274m
Adsorbate Nitrogen: InChIKey IJGRMHOSHXDMSA-UHFFFAOYSA-N
Temperature: 273 K
Tabular data in the source: 0
pressure (bar)	uptake (cm3(STP)/mol)
0.04725	225.352
0.06825	309.859
0.091875	422.535
0.112875	535.211
0.1365	647.887
0.1575	732.394
0.1785	845.07
0.1995	957.746
0.2205	985.915
0.238875	1126.76
0.25725	1239.44
0.280875	1295.77
0.29925	1464.79
0.3255	1464.79
0.34125	1633.8
0.36225	1718.31
0.380625	1802.82
0.401625	1943.66
0.44625	2112.68
0.522375	2478.87
0.601125	2901.41
0.658875	3126.76
0.7245	3408.45
0.80325	3774.65
0.874125	4140.85
0.931875	4394.37
0.987	4619.72
1.008	4760.56
