Adsorption isotherm of Argon on IRMOF-1
DOI: 10.1021/Jp303274m
Adsorbate Argon: InChIKey XKRFYHLGVUSROY-UHFFFAOYSA-N
Temperature: 292 K
Tabular data in the source: 0
pressure (bar)	uptake (cm3(STP)/mol)
0.0261822	142.242
0.0445097	237.056
0.0628372	363.57
0.104729	537.267
0.256585	1216.45
0.505316	2369.62
0.772374	3649.3
0.989686	4723.71
