Adsorption isotherm of Argon on IRMOF-2-I
DOI: 10.1021/Jp303274m
Adsorbate Argon: InChIKey XKRFYHLGVUSROY-UHFFFAOYSA-N
Temperature: 292 K
Tabular data in the source: 0
pressure (bar)	uptake (cm3(STP)/mol)
0.14662	568.312
0.214694	789.149
0.30895	1120.53
0.361314	1309.91
0.41106	1483.48
0.463424	1641.17
0.505316	1799.01
0.562917	1988.31
0.612663	2130.19
0.662409	2287.91
0.709537	2445.67
0.74881	2571.86
0.780229	2682.32
0.811647	2761.08
0.835211	2839.96
0.853539	2918.92
0.882339	2981.87
0.89543	3029.22
0.93994	3171.18
0.955649	3297.73
0.979213	3408.31
1.00801	3502.96
