Adsorption isotherm of Nitrogen on IRMOF-1
DOI: 10.1021/Jp303274m
Adsorbate Nitrogen: InChIKey IJGRMHOSHXDMSA-UHFFFAOYSA-N
Temperature: 292 K
Tabular data in the source: 0
pressure (bar)	uptake (cm3(STP)/mol)
0.0235032	110.583
0.0731211	300.009
0.10707	442.129
0.250701	994.637
0.509236	2147.65
0.762549	3031.3
1.00803	4247.92
