Adsorption isotherm of Xenon on IRMOF-2-Cl
DOI: 10.1021/Jp303274m
Adsorbate Xenon: InChIKey FHNFHKCVQCLJFQ-UHFFFAOYSA-N
Temperature: 273 K
Tabular data in the source: 0
pressure (bar)	uptake (cm3(STP)/mol)
0.0266645	1173.04
0.0986586	4458.17
0.207983	8913.85
0.306641	13372
0.407966	17829.6
0.509291	22287.1
0.605284	26274.2
0.717274	31436.8
0.818599	36130.2
0.925257	40822.4
0.983919	44110.6
1.01058	44811.9
