Adsorption isotherm of Krypton on IRMOF-2-F
DOI: 10.1021/Jp303274m
Adsorbate Krypton: InChIKey DNNSSWSSYDEUBZ-UHFFFAOYSA-N
Temperature: 292 K
Tabular data in the source: 0
pressure (bar)	uptake (cm3(STP)/mol)
0.030315	218.182
0.136475	1163.64
0.223685	1963.64
0.29953	2690.91
0.382959	3490.91
0.470146	4218.18
0.557333	4945.45
0.652151	5890.91
0.727996	6618.18
0.796233	7200
0.875859	7927.27
0.963069	8727.27
1.04648	9454.55
