Adsorption isotherm of Xenon on IRMOF-2-Cl
DOI: 10.1021/Jp303274m
Adsorbate Xenon: InChIKey FHNFHKCVQCLJFQ-UHFFFAOYSA-N
Temperature: 273 K
Tabular data in the source: 0
pressure (bar)	uptake (cm3(STP)/mol)
0.0266645	1173.04
0.0986586	4458.17
0.16532	7272.84
0.207983	8913.85
0.306641	13372
0.402634	17830.8
0.509291	22287.1
0.575953	25337.6
0.602617	26746.5
0.69061	30499.6
0.711941	31673.9
0.818599	36130.2
0.925257	40822.4
0.96792	42699.2
0.999918	44106.9
