Adsorption isotherm of Nitrogen on IRMOF-2-F
DOI: 10.1021/Jp303274m
Adsorbate Nitrogen: InChIKey IJGRMHOSHXDMSA-UHFFFAOYSA-N
Temperature: 292 K
Tabular data in the source: 0
pressure (bar)	uptake (cm3(STP)/mol)
0.0861785	252.254
0.109682	331.137
0.130573	394.211
0.151465	457.285
0.169745	504.549
0.193249	583.432
0.208918	630.738
0.263758	772.531
0.315988	930.216
0.360383	1056.32
0.412612	1214.01
0.459619	1340.07
0.509236	1497.8
0.561466	1623.78
0.613695	1797.32
0.663313	1939.19
0.71032	2096.96
0.754715	2223.06
0.793887	2317.55
0.822613	2412.2
0.861785	2522.54
0.893122	2633
0.929683	2727.53
0.950575	2790.61
0.976689	2853.6
1.0028	2884.89
