Adsorption isotherm of Nitrogen on IRMOF-2-Br
DOI: 10.1021/Jp303274m
Adsorbate Nitrogen: InChIKey IJGRMHOSHXDMSA-UHFFFAOYSA-N
Temperature: 273 K
Tabular data in the source: 0
pressure (bar)	uptake (cm3(STP)/mol)
0.0261822	141.509
0.104729	471.698
0.172802	849.057
0.209457	943.396
0.253967	1179.25
0.361314	1627.36
0.458188	2122.64
0.55768	2547.17
0.659791	3018.87
0.706919	3207.55
0.79332	3584.91
0.892812	4009.43
0.921612	4127.36
0.955649	4386.79
1.00016	4669.81
