Adsorption isotherm of Xenon on IRMOF-2-Cl
DOI: 10.1021/Jp303274m
Adsorbate Xenon: InChIKey FHNFHKCVQCLJFQ-UHFFFAOYSA-N
Temperature: 292 K
Tabular data in the source: 0
pressure (bar)	uptake (cm3(STP)/mol)
0.0238434	843.255
0.0953025	2744.26
0.127086	3798.74
0.158869	4853.22
0.194587	5698.93
0.21843	6542.19
0.250237	7806.25
0.285955	8651.96
0.317738	9706.44
0.35348	10761.7
0.385287	12025.8
0.421004	12871.5
0.456746	13926.8
0.488529	14981.3
0.524271	16036.6
0.552096	17090.2
0.587837	18145.5
0.61962	19200
0.655362	20255.3
0.687145	21309.8
0.722887	22365.1
0.750664	22999.6
0.782471	24263.6
0.814255	25318.1
0.846014	26163
0.881756	27218.3
0.917497	28273.6
0.94928	29328.1
0.985022	30383.4
1.01681	31437.9
