Adsorption isotherm of Xenon on IRMOF-1
DOI: 10.1021/Jp303274m
Adsorbate Xenon: InChIKey FHNFHKCVQCLJFQ-UHFFFAOYSA-N
Temperature: 292 K
Tabular data in the source: 0
pressure (bar)	uptake (cm3(STP)/mol)
0.02625	780.347
0.060375	1820.81
0.081375	2341.04
0.107625	3121.39
0.252	7153.18
0.312375	8843.93
0.354375	9884.39
0.406875	11315
0.459375	12615.6
0.50925	13916.2
0.5565	15216.8
0.609	16647.4
0.6615	18078
0.711375	19248.6
0.753375	20419.1
0.78225	21069.4
0.8085	21849.7
0.837375	22630.1
0.861	23150.3
0.87675	23670.5
0.889875	23930.6
0.924	24711
0.931875	24971.1
0.945	25361.3
0.968625	26011.6
0.99225	26661.8
1.01325	27312.1
