Adsorption isotherm of Krypton on IRMOF-2-Cl
DOI: 10.1021/Jp303274m
Adsorbate Krypton: InChIKey DNNSSWSSYDEUBZ-UHFFFAOYSA-N
Temperature: 292 K
Tabular data in the source: 0
pressure (bar)	uptake (cm3(STP)/mol)
0.0493096	506.024
0.0872541	939.759
0.125199	1373.49
0.159317	1662.65
0.193458	2024.1
0.223818	2385.54
0.254155	2674.7
0.269347	2891.57
0.303488	3253.01
0.333848	3614.46
0.367989	3975.9
0.40213	4337.35
0.436271	4698.8
0.466608	4987.95
0.500749	5349.4
0.527351	5783.13
0.542497	5855.42
0.576638	6216.87
0.606998	6578.31
0.641116	6867.47
0.675257	7228.92
0.705617	7590.36
0.739758	7951.81
0.785287	8457.83
0.815647	8819.28
0.849765	9108.43
0.880125	9469.88
0.914266	9831.33
0.944627	10192.8
0.978767	10554.2
1.01291	10915.7
