Adsorption isotherm of Argon on IRMOF-1
DOI: 10.1021/Jp303274m
Adsorbate Argon: InChIKey XKRFYHLGVUSROY-UHFFFAOYSA-N
Temperature: 292 K
Tabular data in the source: 0
pressure (bar)	uptake (cm3(STP)/mol)
0.0628372	284.32
0.0864012	379.052
0.123056	489.43
0.144002	568.353
0.259203	978.654
0.303713	1152.31
0.356078	1341.69
0.408442	1562.78
0.458188	1736.35
0.507934	1925.77
0.555062	2099.39
0.610045	2304.58
0.665027	2525.62
0.709537	2683.43
0.746192	2825.5
0.780229	2967.62
0.814266	3109.74
0.835211	3188.66
0.853539	3267.63
0.871866	3330.74
0.887576	3378.05
0.924231	3488.42
0.934703	3488.26
0.950413	3472.16
0.966122	3392.67
0.979213	3218.11
1.00801	3471.26
