Adsorption isotherm of Nitrogen on IRMOF-2-F
DOI: 10.1021/Jp303274m
Adsorbate Nitrogen: InChIKey IJGRMHOSHXDMSA-UHFFFAOYSA-N
Temperature: 273 K
Tabular data in the source: 0
pressure (bar)	uptake (cm3(STP)/mol)
0.018375	94.3396
0.086625	339.623
0.191625	716.981
0.3045	1132.08
0.385875	1433.96
0.480375	1773.58
0.580125	2150.94
0.651	2415.09
0.737625	2735.85
0.826875	3056.6
0.931875	3433.96
1.008	3754.72
