Adsorption isotherm of Nitrogen on IRMOF-2-I
DOI: 10.1021/Jp303274m
Adsorbate Nitrogen: InChIKey IJGRMHOSHXDMSA-UHFFFAOYSA-N
Temperature: 292 K
Tabular data in the source: 0
pressure (bar)	uptake (cm3(STP)/mol)
0.026832	107.071
0.147556	561.944
0.244792	909.658
0.345372	1257.28
0.432577	1605.26
0.523105	1926.21
0.606925	2220.39
0.700817	2568.19
0.791345	2889.13
0.865133	3183.58
0.955701	3558.42
1.0194	3772.29
