Adsorption isotherm of Krypton on IRMOF-2-F
DOI: 10.1021/Jp303274m
Adsorbate Krypton: InChIKey DNNSSWSSYDEUBZ-UHFFFAOYSA-N
Temperature: 273 K
Tabular data in the source: 0
pressure (bar)	uptake (cm3(STP)/mol)
0.0292674	286.003
0.0638423	686.048
0.0851483	800.988
0.109096	1029.82
0.162272	1715.27
0.188886	1944.25
0.2075	2172.78
0.250074	2573.28
0.308596	3202.16
0.361824	3660.12
0.409705	4174.65
0.462907	4746.36
0.510802	5204.03
0.556017	5718.41
0.601245	6175.93
0.662433	6804.95
0.710315	7319.49
0.752889	7719.98
0.782157	8005.99
0.806078	8348.56
0.835346	8634.56
0.85396	8863.1
0.885894	9149.25
0.923123	9606.32
0.944416	9778.13
0.973671	10121
1.0056	10407.2
