Adsorption isotherm of Krypton on IRMOF-2-Br
DOI: 10.1021/Jp303274m
Adsorbate Krypton: InChIKey DNNSSWSSYDEUBZ-UHFFFAOYSA-N
Temperature: 292 K
Tabular data in the source: 0
pressure (bar)	uptake (cm3(STP)/mol)
0.0834393	733.424
0.213802	1941.72
0.305084	2631.46
0.359842	3105.99
0.4146	3580.53
0.464151	3968.58
0.511074	4443.45
0.558013	4831.62
0.610175	5219.56
0.65451	5564.48
0.714469	6168.85
0.750992	6384.05
0.777061	6643.05
0.803131	6902.05
0.834423	7160.83
0.855285	7333.35
0.870931	7462.74
0.889189	7592.01
0.912647	7851.13
0.928294	7980.51
0.94394	8109.9
0.964802	8282.42
0.983059	8411.7
1.00129	8671.03
