Adsorption isotherm of Xenon on IRMOF-2-Br
DOI: 10.1021/Jp303274m
Adsorbate Xenon: InChIKey FHNFHKCVQCLJFQ-UHFFFAOYSA-N
Temperature: 292 K
Tabular data in the source: 0
pressure (bar)	uptake (cm3(STP)/mol)
0.0343637	1187.45
0.12597	4034.63
0.160333	5222.08
0.187041	5932.76
0.217599	7121.33
0.25194	8069.27
0.286303	9256.72
0.320644	10204.7
0.355008	11392.1
0.389371	12579.6
0.419907	13528.6
0.454271	14716.1
0.488611	15664
0.522975	16851.5
0.557316	17799.4
0.59168	18986.8
0.626021	19934.8
0.660384	21122.2
0.69092	22071.3
0.725283	23258.7
0.755819	24207.8
0.79016	25155.7
0.824523	26343.2
0.858887	27530.6
0.893228	28478.6
0.923763	29427.6
0.958127	30615.1
0.988662	31564.2
1.02303	32751.6
1.05741	34178.6
