Adsorption isotherm of Xenon on IRMOF-2-F
DOI: 10.1021/Jp303274m
Adsorbate Xenon: InChIKey FHNFHKCVQCLJFQ-UHFFFAOYSA-N
Temperature: 292 K
Tabular data in the source: 0
pressure (bar)	uptake (cm3(STP)/mol)
0.016944	361.446
0.0643871	1626.51
0.125385	3072.29
0.193161	4518.07
0.264326	6325.3
0.33888	8132.53
0.3931	9578.31
0.471043	11385.5
0.528652	12650.6
0.593039	14277.1
0.657426	15722.9
0.721814	17349.4
0.792978	18975.9
0.847199	20421.7
0.948863	22951.8
0.999695	24216.9
