Adsorption isotherm of Argon on IRMOF-2-Br
DOI: 10.1021/Jp303274m
Adsorbate Argon: InChIKey XKRFYHLGVUSROY-UHFFFAOYSA-N
Temperature: 292 K
Tabular data in the source: 0
pressure (bar)	uptake (cm3(STP)/mol)
0.00785465	79.1279
0.104729	537.267
0.261822	1279.77
0.481752	2480.94
0.743574	3839.95
0.963504	4946.02
