Adsorption isotherm of Krypton on IRMOF-1
DOI: 10.1021/Jp303274m
Adsorbate Krypton: InChIKey DNNSSWSSYDEUBZ-UHFFFAOYSA-N
Temperature: 292 K
Tabular data in the source: 0
pressure (bar)	uptake (cm3(STP)/mol)
0.0469238	474.871
0.0782239	690.295
0.255518	2330.11
0.516184	5093.52
0.75346	7207.65
1.0402	10186.7
