Adsorption isotherm of Argon on IRMOF-2-Br
DOI: 10.1021/Jp303274m
Adsorbate Argon: InChIKey XKRFYHLGVUSROY-UHFFFAOYSA-N
Temperature: 273 K
Tabular data in the source: 0
pressure (bar)	uptake (cm3(STP)/mol)
0.0288861	196.38
0.0944882	532.584
0.188927	952.494
0.262409	1344.82
0.356872	1821.06
0.411952	2044.89
0.461821	2325.19
0.556248	2716.93
0.608734	2997.16
0.711052	3473.19
0.787127	3809.1
0.873687	4172.89
0.923556	4453.2
0.965545	4677.38
1.00222	4732.7
