Adsorption isotherm of Argon on IRMOF-2-I
DOI: 10.1021/Jp303274m
Adsorbate Argon: InChIKey XKRFYHLGVUSROY-UHFFFAOYSA-N
Temperature: 292 K
Tabular data in the source: 0
pressure (bar)	uptake (cm3(STP)/mol)
0.0234084	71.3029
0.0936337	309.164
0.167203	570.898
0.260837	904.014
0.33775	1141.72
0.404631	1379.66
0.484889	1665.18
0.548426	1831.35
0.632027	2164.7
0.715629	2426.2
0.809262	2735.36
0.896208	3044.68
0.966433	3282.54
1.00991	3425.23
