Adsorption isotherm of Xenon on IRMOF-2-I
DOI: 10.1021/Jp303274m
Adsorbate Xenon: InChIKey FHNFHKCVQCLJFQ-UHFFFAOYSA-N
Temperature: 292 K
Tabular data in the source: 0
pressure (bar)	uptake (cm3(STP)/mol)
0.076125	2601.16
0.112875	4031.79
0.20475	7413.29
0.546	19378.6
0.735	27832.4
1.05525	40317.9
