Adsorption isotherm of Krypton on IRMOF-2-Br
DOI: 10.1021/Jp303274m
Adsorbate Krypton: InChIKey DNNSSWSSYDEUBZ-UHFFFAOYSA-N
Temperature: 273 K
Tabular data in the source: 0
pressure (bar)	uptake (cm3(STP)/mol)
0.0452106	464.455
0.0638268	796.209
0.0851024	995.261
0.103719	1327.01
0.124994	1526.07
0.14361	1857.82
0.164886	2123.22
0.186161	2322.27
0.204778	2587.68
0.226053	2786.73
0.24201	3184.83
0.271264	3516.59
0.28722	3781.99
0.305837	3981.04
0.327112	4180.09
0.345728	4578.2
0.369663	4644.55
0.390939	4976.3
0.409555	5308.06
0.43349	5440.76
0.449447	5905.21
0.48402	6170.62
0.537209	6900.47
0.603695	7895.73
0.662203	8625.59
0.704754	9222.75
0.749965	9819.91
0.797835	10549.8
0.82177	10616.1
0.837726	10881.5
0.861661	11213.3
0.880278	11412.3
0.904213	11545
0.920169	12009.5
0.944104	12208.5
0.968039	12540.3
0.989315	12805.7
1.01325	13004.7
