Adsorption isotherm of Nitrogen on IRMOF-2-I
DOI: 10.1021/Jp303274m
Adsorbate Nitrogen: InChIKey IJGRMHOSHXDMSA-UHFFFAOYSA-N
Temperature: 292 K
Tabular data in the source: 0
pressure (bar)	uptake (cm3(STP)/mol)
0.0408269	179.641
0.0705192	287.425
0.122481	574.85
0.155885	754.491
0.189288	898.204
0.222692	1077.84
0.256096	1257.49
0.2895	1401.2
0.322904	1580.84
0.356308	1724.55
0.389712	1904.19
0.423115	2083.83
0.538173	2658.68
0.571577	2802.4
0.604981	2982.04
0.638385	3125.75
0.671788	3305.39
0.701481	3485.03
0.727462	3628.74
0.738596	3628.74
0.772	3808.38
0.805404	3952.1
0.838808	4131.74
0.8685	4311.38
0.898192	4455.09
0.931596	4634.73
0.965	4778.44
0.998404	4958.08
