Adsorption isotherm of Krypton on IRMOF-2-I
DOI: 10.1021/Jp303274m
Adsorbate Krypton: InChIKey DNNSSWSSYDEUBZ-UHFFFAOYSA-N
Temperature: 292 K
Tabular data in the source: 0
pressure (bar)	uptake (cm3(STP)/mol)
0.0508319	574.85
0.0847199	718.563
0.108441	1005.99
0.138941	1293.41
0.16944	1580.84
0.19655	1868.26
0.227049	2083.83
0.250771	2514.97
0.28127	2658.68
0.304992	3017.96
0.335491	3161.68
0.362601	3449.1
0.389712	3808.38
0.420211	4023.95
0.447321	4239.52
0.454099	4455.09
0.481209	4526.95
0.504931	4886.23
0.53543	5029.94
0.559151	5389.22
0.589651	5532.93
0.616761	5820.36
0.640482	6035.93
0.670982	6251.5
0.698092	6610.78
0.725202	6754.49
0.745535	7113.77
0.772645	7257.49
0.799756	7544.91
0.826866	7760.48
0.853977	7976.05
0.881087	8335.33
0.908197	8622.75
0.935308	8838.32
0.965807	9125.75
0.996306	9413.17
