Adsorption isotherm of Krypton on IRMOF-2-F
DOI: 10.1021/Jp303274m
Adsorbate Krypton: InChIKey DNNSSWSSYDEUBZ-UHFFFAOYSA-N
Temperature: 292 K
Tabular data in the source: 0
pressure (bar)	uptake (cm3(STP)/mol)
0.0167757	100
0.110719	750
0.218084	1500
0.301962	2150
0.38584	2750
0.476429	3400
0.570373	4000
0.657606	4650
0.728064	5150
0.825363	5900
0.912596	6500
0.969633	6850
1.00654	7150
