Adsorption isotherm of Nitrogen on IRMOF-2-Br
DOI: 10.1021/Jp303274m
Adsorbate Nitrogen: InChIKey IJGRMHOSHXDMSA-UHFFFAOYSA-N
Temperature: 292 K
Tabular data in the source: 0
pressure (bar)	uptake (cm3(STP)/mol)
0.0208918	126.474
0.0757326	347.518
0.109682	473.789
0.242867	1153.26
0.519682	2432.79
0.718154	3428.25
1.04198	4817.99
