Adsorption isotherm of Argon on IRMOF-2-Br
DOI: 10.1021/Jp303274m
Adsorbate Argon: InChIKey XKRFYHLGVUSROY-UHFFFAOYSA-N
Temperature: 292 K
Tabular data in the source: 0
pressure (bar)	uptake (cm3(STP)/mol)
0.0266039	63.6364
0.0531875	148.485
0.119647	360.606
0.232607	742.424
0.295733	954.545
0.365505	1187.88
0.43859	1442.42
0.515028	1675.76
0.594759	1951.52
0.691135	2248.48
0.774179	2545.45
0.857283	2778.79
0.933681	3054.55
0.970223	3181.82
1.00679	3287.88
