Adsorption isotherm of Xenon on IRMOF-2-Br
DOI: 10.1021/Jp303274m
Adsorbate Xenon: InChIKey FHNFHKCVQCLJFQ-UHFFFAOYSA-N
Temperature: 292 K
Tabular data in the source: 0
pressure (bar)	uptake (cm3(STP)/mol)
0.02625	780.347
0.202125	6372.83
0.543375	16777.5
0.732375	24060.7
1.05525	34725.4
