Adsorption isotherm of Krypton on IRMOF-2-I
DOI: 10.1021/Jp303274m
Adsorbate Krypton: InChIKey DNNSSWSSYDEUBZ-UHFFFAOYSA-N
Temperature: 292 K
Tabular data in the source: 0
pressure (bar)	uptake (cm3(STP)/mol)
0.127752	1208.41
0.140786	1337.91
0.161633	1597.13
0.190322	1812.67
0.21378	2071.78
0.265927	2546.43
0.315462	3021.18
0.354566	3409.69
0.404101	3884.44
0.458845	4445.69
0.50838	4920.45
0.563146	5351.63
0.607473	5739.9
0.662216	6301.15
0.709163	6645.96
0.748259	7077.81
0.779544	7379.94
0.808233	7595.48
0.834295	7897.83
0.852553	8027.11
0.881219	8372.7
0.949004	9020.09
0.975074	9279.09
1.00114	9581.44
