Adsorption isotherm of Radon on IRMOF-1
DOI: 10.1021/Jp303274m
Adsorbate Radon: InChIKey SYUHGPGVQRZVTB-UHFFFAOYSA-N
Temperature: 292 K
Tabular data in the source: 0
pressure (bar)	uptake (cm3(STP)/mol)
0.00122406	81.3253
0.00673233	460.843
0.0120366	867.47
0.019381	1409.64
0.0242772	1762.05
0.0310095	2250
0.0377419	2765.06
0.0416181	3063.25
0.0469223	3469.88
0.0520226	3849.4
