Adsorption isotherm of Krypton on IRMOF-2-Br
DOI: 10.1021/Jp303274m
Adsorbate Krypton: InChIKey DNNSSWSSYDEUBZ-UHFFFAOYSA-N
Temperature: 273 K
Tabular data in the source: 0
pressure (bar)	uptake (cm3(STP)/mol)
0.0265945	265.403
0.0691457	796.209
0.106378	1260.66
0.14361	1857.82
0.172864	2123.22
0.210096	2654.03
0.252648	3317.54
0.303177	4047.39
0.409555	5374.41
0.561144	7165.88
0.659543	8691.94
0.752624	9819.91
0.808472	10616.1
0.837726	11014.2
0.888256	11677.7
0.949423	12341.2
0.978677	12739.3
1.00793	13071.1
