Adsorption isotherm of Argon on IRMOF-2-I
DOI: 10.1021/Jp303274m
Adsorbate Argon: InChIKey XKRFYHLGVUSROY-UHFFFAOYSA-N
Temperature: 273 K
Tabular data in the source: 0
pressure (bar)	uptake (cm3(STP)/mol)
0.021	140.845
0.0525	309.859
0.084	450.704
0.133875	704.225
0.186375	957.746
0.27825	1436.62
0.375375	1915.49
0.448875	2253.52
0.522375	2591.55
0.55125	2732.39
0.601125	2957.75
0.66675	3295.77
0.72975	3633.8
0.790125	3915.49
0.85575	4197.18
0.937125	4619.72
0.973875	4788.73
1.008	4957.75
