Adsorption isotherm of Krypton on IRMOF-2-Br
DOI: 10.1021/Jp303274m
Adsorbate Krypton: InChIKey DNNSSWSSYDEUBZ-UHFFFAOYSA-N
Temperature: 292 K
Tabular data in the source: 0
pressure (bar)	uptake (cm3(STP)/mol)
0.0372144	184.044
0.0811241	610.913
0.168985	1343.44
0.324394	2746.68
0.391963	3356.78
0.489969	4150.52
0.584545	5065.27
0.645399	5493.15
0.692676	5980.83
0.746732	6468.91
0.804176	6957.19
0.844738	7262.65
0.902161	7811.54
0.959626	8239.22
1.00354	8666.09
