Adsorption isotherm of Xenon on IRMOF-2-Br
DOI: 10.1021/Jp303274m
Adsorbate Xenon: InChIKey FHNFHKCVQCLJFQ-UHFFFAOYSA-N
Temperature: 292 K
Tabular data in the source: 0
pressure (bar)	uptake (cm3(STP)/mol)
0.0477626	1465.97
0.0750556	2199.78
0.0989369	3660.03
0.129641	4152.23
0.150111	5126.82
0.180816	5861.44
0.201285	7078.46
0.23199	7813.08
0.259283	8546.88
0.286576	9523.11
0.310457	10498.5
0.341162	11475.6
0.368455	12209.4
0.395747	13670.4
0.42304	14404.2
0.450333	15380.5
0.474215	15871
0.504919	16848.1
0.528801	17823.5
0.559505	18800.5
0.586798	19534.3
0.607268	20508.9
0.634561	21242.7
0.661854	22461.4
0.689146	23195.2
0.716439	24171.4
0.740321	25146.8
0.767614	25880.6
0.798318	26857.7
0.811965	27588.2
0.856316	28810.9
0.900667	30518.5
0.945018	31983.7
0.975722	32475.9
0.996192	33692.9
