Adsorption isotherm of Nitrogen on IRMOF-2-I
DOI: 10.1021/Jp303274m
Adsorbate Nitrogen: InChIKey IJGRMHOSHXDMSA-UHFFFAOYSA-N
Temperature: 292 K
Tabular data in the source: 0
pressure (bar)	uptake (cm3(STP)/mol)
0.0235032	142.284
0.0783441	363.328
0.109682	521.339
0.174968	853.171
0.240255	1216.7
0.360383	1785.43
0.522294	2607.1
0.605861	3081.3
0.718154	3666
0.893122	4471.62
1.04198	5150.85
