Adsorption isotherm of Radon on IRMOF-2-Br
DOI: 10.1021/Jp303274m
Adsorbate Radon: InChIKey SYUHGPGVQRZVTB-UHFFFAOYSA-N
Temperature: 292 K
Tabular data in the source: 0
pressure (bar)	uptake (cm3(STP)/mol)
0.00223661	1445.78
0.00487987	4698.8
0.00772645	6506.02
0.0095564	8313.25
0.0113864	9759.04
0.0121997	10843.4
0.0140296	12289.2
0.0158596	14096.4
0.0176895	15542.2
0.0195195	17349.4
0.0211461	19156.6
0.022976	20963.9
0.024806	22409.6
0.0266359	24216.9
0.0284659	25662.7
0.0302958	27469.9
0.0321258	28915.7
0.0339557	30722.9
0.0357857	32530.1
0.0374123	33975.9
0.0392423	35783.1
0.0410722	37228.9
0.0429022	39036.1
0.0447321	40843.4
0.0465621	42289.2
0.048392	44096.4
0.0500186	45903.6
0.0516453	47710.8
