Adsorption isotherm of Argon on IRMOF-1
DOI: 10.1021/Jp303274m
Adsorbate Argon: InChIKey XKRFYHLGVUSROY-UHFFFAOYSA-N
Temperature: 273 K
Tabular data in the source: 0
pressure (bar)	uptake (cm3(STP)/mol)
0.0339863	86.8466
0.0810009	281.626
0.128015	476.404
0.175043	649.653
0.208966	844.153
0.263835	1039.1
0.308219	1255.35
0.365694	1471.89
0.462354	1839.97
0.559014	2208.05
0.663503	2619.36
0.715779	2771.19
0.75757	2944.33
0.781071	3052.48
0.812414	3182.34
0.838508	3333.61
0.86464	3420.29
0.888141	3528.44
0.922077	3701.41
0.937761	3744.81
0.961275	3831.43
0.990062	3853.57
1.01103	3810.96
