Adsorption isotherm of Argon on IRMOF-2-F
DOI: 10.1021/Jp303274m
Adsorbate Argon: InChIKey XKRFYHLGVUSROY-UHFFFAOYSA-N
Temperature: 292 K
Tabular data in the source: 0
pressure (bar)	uptake (cm3(STP)/mol)
0.0576008	189.301
0.0811647	252.333
0.107347	347.024
0.128293	410.097
0.149238	441.47
0.167566	488.733
0.19113	551.765
0.209457	614.879
0.256585	756.793
0.306331	882.816
0.356078	1008.84
0.41106	1182.33
0.460806	1324.2
0.507934	1450.27
0.55768	1607.99
0.612663	1765.63
0.665027	1907.46
0.712155	2033.53
0.751428	2159.72
0.785465	2238.43
0.835211	2396.16
0.856157	2443.38
0.877103	2506.45
0.890194	2553.8
0.916376	2648.49
0.934703	2711.6
0.960886	2790.44
0.979213	2853.56
1.00278	2948.29
