Adsorption isotherm of Nitrogen on IRMOF-2-F
DOI: 10.1021/Jp303274m
Adsorbate Nitrogen: InChIKey IJGRMHOSHXDMSA-UHFFFAOYSA-N
Temperature: 292 K
Tabular data in the source: 0
pressure (bar)	uptake (cm3(STP)/mol)
0.0336504	107.784
0.119646	458.084
0.20938	835.329
0.287898	1158.68
0.373893	1508.98
0.471105	1886.23
0.557101	2236.53
0.669268	2667.66
0.751525	3044.91
0.848737	3422.16
0.94221	3799.4
1.03942	4203.59
