Adsorption isotherm of Xenon on IRMOF-1
DOI: 10.1021/Jp303274m
Adsorbate Xenon: InChIKey FHNFHKCVQCLJFQ-UHFFFAOYSA-N
Temperature: 292 K
Tabular data in the source: 0
pressure (bar)	uptake (cm3(STP)/mol)
0.0525	1170.52
0.07875	1820.81
0.107625	2731.21
0.207375	4942.2
0.543375	13265.9
0.72975	18988.4
1.11825	27572.3
