Adsorption isotherm of Radon on IRMOF-2-I
DOI: 10.1021/Jp303274m
Adsorbate Radon: InChIKey SYUHGPGVQRZVTB-UHFFFAOYSA-N
Temperature: 292 K
Tabular data in the source: 0
pressure (bar)	uptake (cm3(STP)/mol)
0.00225167	210.843
0.00552682	548.193
0.00736909	759.036
0.00921136	927.711
0.0110536	1138.55
0.0122818	1307.23
0.0141241	1475.9
0.0159664	1686.75
0.0176039	1897.59
0.0194462	2108.43
0.0212885	2277.11
0.0231308	2487.95
0.024973	2698.8
0.0268153	2867.47
0.0286576	3078.31
0.0302952	3289.16
0.0321374	3500
0.0339797	3668.67
0.035822	3879.52
0.0376642	4090.36
0.0393018	4301.2
0.0411441	4469.88
0.0429864	4680.72
0.0448286	4891.57
0.0464662	5102.41
0.0483085	5313.25
0.0501508	5481.93
0.051993	5692.77
