Adsorption isotherm of Nitrogen on IRMOF-1
DOI: 10.1021/Jp303274m
Adsorbate Nitrogen: InChIKey IJGRMHOSHXDMSA-UHFFFAOYSA-N
Temperature: 292 K
Tabular data in the source: 0
pressure (bar)	uptake (cm3(STP)/mol)
0.083567	283.995
0.104459	362.919
0.172357	552.059
0.208918	678.288
0.261147	851.823
0.360383	1151.42
0.407389	1309.19
0.459619	1451.02
0.511848	1656.26
0.564077	1798.09
0.605861	1940.09
0.660702	2097.73
0.71032	2255.46
0.752103	2381.61
0.783441	2476.22
0.812167	2570.87
0.83567	2618.05
0.859173	2681.08
0.893122	2791.5
0.921849	2870.31
0.953186	2949.07
0.974078	3012.14
0.984524	3107.08
1.0028	3233.59
