Adsorption isotherm of Argon on IRMOF-2-F
DOI: 10.1021/Jp303274m
Adsorbate Argon: InChIKey XKRFYHLGVUSROY-UHFFFAOYSA-N
Temperature: 292 K
Tabular data in the source: 0
pressure (bar)	uptake (cm3(STP)/mol)
0.0134805	62.5954
0.0807828	270.784
0.16488	499.584
0.248978	728.383
0.306175	894.865
0.359997	1040.46
0.457575	1331.85
0.561883	1644.07
0.629165	1831.3
0.693072	1997.64
0.746894	2143.23
0.837742	2413.81
0.92857	2663.43
0.979036	2809.09
1.01269	2913.19
