Adsorption isotherm of Xenon on IRMOF-1
DOI: 10.1021/Jp303274m
Adsorbate Xenon: InChIKey FHNFHKCVQCLJFQ-UHFFFAOYSA-N
Temperature: 292 K
Tabular data in the source: 0
pressure (bar)	uptake (cm3(STP)/mol)
0.0200669	361.446
0.180602	4698.8
0.304348	8313.25
0.444816	12108.4
0.628763	17168.7
0.722408	19518.1
0.789298	21686.7
0.886288	24216.9
0.996656	27289.2
