Adsorption isotherm of Nitrogen on IRMOF-2-Cl
DOI: 10.1021/Jp303274m
Adsorbate Nitrogen: InChIKey IJGRMHOSHXDMSA-UHFFFAOYSA-N
Temperature: 292 K
Tabular data in the source: 0
pressure (bar)	uptake (cm3(STP)/mol)
0.0783441	363.328
0.10707	489.68
0.242867	1121.56
0.519682	2385.24
0.715543	3364.89
1.03936	4722.93
