Adsorption isotherm of Krypton on IRMOF-2-Cl
DOI: 10.1021/Jp303274m
Adsorbate Krypton: InChIKey DNNSSWSSYDEUBZ-UHFFFAOYSA-N
Temperature: 292 K
Tabular data in the source: 0
pressure (bar)	uptake (cm3(STP)/mol)
0.0755898	820.465
0.114694	1208.97
0.255465	2633.58
0.526517	5743.37
0.771589	8073.92
1.0426	11400.5
