Adsorption isotherm of Krypton on IRMOF-2-F
DOI: 10.1021/Jp303274m
Adsorbate Krypton: InChIKey DNNSSWSSYDEUBZ-UHFFFAOYSA-N
Temperature: 292 K
Tabular data in the source: 0
pressure (bar)	uptake (cm3(STP)/mol)
0.0678308	387.271
0.0834771	516.66
0.104331	732.53
0.127812	861.583
0.140854	947.731
0.172154	1163.15
0.193024	1292.32
0.213885	1464.84
0.255624	1723.17
0.313001	2154.24
0.365178	2455.47
0.412117	2843.64
0.461682	3144.99
0.51124	3489.69
0.560798	3834.39
0.607745	4179.2
0.662518	4567.03
0.712076	4911.73
0.751195	5213.52
0.77728	5385.82
0.811192	5601.13
0.829442	5773.76
0.8477	5903.04
0.871173	6075.44
0.886827	6161.48
0.920723	6463.5
0.949412	6679.03
0.965051	6851.77
0.985912	7024.29
1.00416	7196.92
