Adsorption isotherm of Argon on IRMOF-2-Br
DOI: 10.1021/Jp303274m
Adsorbate Argon: InChIKey XKRFYHLGVUSROY-UHFFFAOYSA-N
Temperature: 292 K
Tabular data in the source: 0
pressure (bar)	uptake (cm3(STP)/mol)
0.0333306	110.287
0.0866595	403.11
0.11999	549.761
0.146655	732.536
0.179985	879.187
0.209983	1025.72
0.23998	1208.61
0.276644	1391.75
0.306641	1538.28
0.336639	1721.17
0.366637	1867.7
0.396634	2014.23
0.426632	2160.77
0.456629	2343.66
0.486627	2490.19
0.496626	2526.91
0.526623	2673.44
0.556621	2856.34
0.586618	3002.87
0.616616	3149.4
0.646613	3332.3
0.676611	3478.83
0.706609	3625.36
0.736606	3808.25
0.756604	3881.7
0.786602	4028.23
0.8166	4211.12
0.843264	4393.9
0.873262	4504.07
0.903259	4650.6
0.933257	4833.49
0.963254	4980.02
