Adsorption isotherm of Krypton on IRMOF-2-I
DOI: 10.1021/Jp303274m
Adsorbate Krypton: InChIKey DNNSSWSSYDEUBZ-UHFFFAOYSA-N
Temperature: 292 K
Tabular data in the source: 0
pressure (bar)	uptake (cm3(STP)/mol)
0.0208391	302.577
0.0521317	561.353
0.0755822	863.818
0.112052	1382.49
0.255398	3023.75
0.526381	6523.72
0.773997	9244.34
1.0397	13048
