Adsorption isotherm of Argon on IRMOF-1
DOI: 10.1021/Jp303274m
Adsorbate Argon: InChIKey XKRFYHLGVUSROY-UHFFFAOYSA-N
Temperature: 292 K
Tabular data in the source: 0
pressure (bar)	uptake (cm3(STP)/mol)
0.0199984	71.3835
0.0866595	333.281
0.16332	594.942
0.253313	952.096
0.309975	1166.33
0.379969	1428.14
0.443297	1666.17
0.52329	1975.65
0.599951	2261.27
0.68661	2594.55
0.783269	2951.54
0.853263	3237.31
0.916591	3475.34
