Adsorption isotherm of Argon on IRMOF-2-F
DOI: 10.1021/Jp303274m
Adsorbate Argon: InChIKey XKRFYHLGVUSROY-UHFFFAOYSA-N
Temperature: 273 K
Tabular data in the source: 0
pressure (bar)	uptake (cm3(STP)/mol)
0.018375	84.5207
0.097125	380.041
0.1995	781.198
0.312375	1245.81
0.412125	1647.03
0.5145	2048.18
0.5985	2322.37
0.6825	2681.46
0.784875	3082.61
0.861	3399.42
0.95025	3779.62
1.00538	3990.73
