Adsorption isotherm of Xenon on IRMOF-2-Cl
DOI: 10.1021/Jp303274m
Adsorbate Xenon: InChIKey FHNFHKCVQCLJFQ-UHFFFAOYSA-N
Temperature: 292 K
Tabular data in the source: 0
pressure (bar)	uptake (cm3(STP)/mol)
0.06825	2210.98
0.112875	3381.5
0.20475	6242.77
0.548625	15997.1
0.735	22890.2
1.05263	33034.7
