Adsorption isotherm of Xenon on IRMOF-1
DOI: 10.1021/Jp303274m
Adsorbate Xenon: InChIKey FHNFHKCVQCLJFQ-UHFFFAOYSA-N
Temperature: 273 K
Tabular data in the source: 0
pressure (bar)	uptake (cm3(STP)/mol)
0.0133825	754.717
0.0775408	3207.55
0.165747	6415.09
0.237905	8867.92
0.323445	12075.5
0.419689	15849.1
0.481168	18113.2
0.523932	19622.6
0.580078	21886.8
0.641545	23962.3
0.708382	26603.8
0.753812	28113.2
0.807267	30000
0.847364	31509.4
0.903523	33962.3
0.927572	34717
0.973002	36226.4
1.0051	37735.8
