Adsorption isotherm of Argon on IRMOF-2-I
DOI: 10.1021/Jp303274m
Adsorbate Argon: InChIKey XKRFYHLGVUSROY-UHFFFAOYSA-N
Temperature: 273 K
Tabular data in the source: 0
pressure (bar)	uptake (cm3(STP)/mol)
0.0315	225.352
0.06825	422.535
0.112875	647.887
0.15225	873.239
0.212625	1183.1
0.259875	1408.45
0.315	1661.97
0.412125	2169.01
0.464625	2394.37
0.564375	2929.58
0.664125	3380.28
0.75075	3774.65
0.819	4056.34
0.85575	4225.35
0.895125	4450.7
0.9345	4619.72
0.96075	4704.23
0.984375	4845.07
1.008	4901.41
