Adsorption isotherm of Krypton on IRMOF-2-I
DOI: 10.1021/Jp303274m
Adsorbate Krypton: InChIKey DNNSSWSSYDEUBZ-UHFFFAOYSA-N
Temperature: 292 K
Tabular data in the source: 0
pressure (bar)	uptake (cm3(STP)/mol)
0.0340271	334.517
0.0945196	1088.52
0.128547	1507.37
0.162574	1926.23
0.19282	2345.4
0.226847	2764.25
0.272216	3266.5
0.302463	3685.67
0.33649	4104.52
0.370517	4523.38
0.404544	4942.23
0.438571	5276.75
0.468817	5695.92
0.502844	6114.77
0.53309	6449.6
0.544433	6617.34
0.57846	7036.19
0.612487	7455.04
0.642733	7874.21
0.67676	8208.73
0.710787	8627.58
0.741034	9046.75
0.786403	9633.34
0.816649	10052.5
0.850676	10387
0.884703	10805.9
0.91495	11225
0.948977	11559.6
0.979223	11978.7
1.01325	12397.6
