Adsorption isotherm of Xenon on IRMOF-2-I
DOI: 10.1021/Jp303274m
Adsorbate Xenon: InChIKey FHNFHKCVQCLJFQ-UHFFFAOYSA-N
Temperature: 273 K
Tabular data in the source: 0
pressure (bar)	uptake (cm3(STP)/mol)
0.0266645	1981.13
0.0586618	4292.45
0.0986586	6603.77
0.141322	9245.28
0.207983	13537.7
0.261312	16179.2
0.351971	21792.5
0.4053	25094.3
0.45063	27735.8
0.511958	31367.9
0.554621	34009.4
0.613283	37641.5
0.655946	40283
0.706609	43254.7
0.754605	45896.2
0.813266	50188.7
0.877261	53490.6
0.919924	56462.3
0.959921	59103.8
0.989252	60754.7
1.01325	62405.7
