Adsorption isotherm of Xenon on IRMOF-2-I
DOI: 10.1021/Jp303274m
Adsorbate Xenon: InChIKey FHNFHKCVQCLJFQ-UHFFFAOYSA-N
Temperature: 292 K
Tabular data in the source: 0
pressure (bar)	uptake (cm3(STP)/mol)
0.033888	813.253
0.115219	4608.43
0.179606	7048.19
0.243993	9487.95
0.288048	11385.5
0.359212	14096.4
0.426988	16807.2
0.494764	19789.2
0.542207	21415.7
0.62015	24668.7
0.687926	27108.4
0.769257	30632.5
0.847199	33614.5
0.904809	35783.1
0.972584	38494
1.00986	39849.4
