Adsorption isotherm of Xenon on IRMOF-2-I
DOI: 10.1021/Jp303274m
Adsorbate Xenon: InChIKey FHNFHKCVQCLJFQ-UHFFFAOYSA-N
Temperature: 273 K
Tabular data in the source: 0
pressure (bar)	uptake (cm3(STP)/mol)
0.0293309	1650.94
0.0613283	3632.08
0.106658	6273.58
0.151987	9245.28
0.213316	13207.5
0.266645	16179.2
0.354637	21792.5
0.407966	24764.2
0.45063	27735.8
0.511958	31367.9
0.554621	34009.4
0.613283	37641.5
0.655946	40283
0.706609	43915.1
0.757271	46886.8
0.813266	50188.7
0.877261	53490.6
0.919924	56462.3
0.959921	59103.8
0.989252	60754.7
1.01325	62405.7
