Adsorption isotherm of Krypton on IRMOF-2-Br
DOI: 10.1021/Jp303274m
Adsorbate Krypton: InChIKey DNNSSWSSYDEUBZ-UHFFFAOYSA-N
Temperature: 292 K
Tabular data in the source: 0
pressure (bar)	uptake (cm3(STP)/mol)
0.0227697	337.349
0.0796938	927.711
0.125233	1349.4
0.159388	1771.08
0.193542	2108.43
0.227697	2530.12
0.269441	2951.81
0.299801	3373.49
0.333955	3710.84
0.36811	4132.53
0.402264	4469.88
0.436419	4891.57
0.470573	5228.92
0.504728	5566.27
0.535087	5903.61
0.542677	5987.95
0.576831	6325.3
0.610986	6746.99
0.64514	7084.34
0.679295	7506.02
0.713449	7843.37
0.747604	8265.06
0.785553	8686.75
0.815913	9108.43
0.850067	9445.78
0.884222	9867.47
0.918376	10204.8
0.948736	10457.8
0.98289	10879.5
1.01704	11301.2
