Adsorption isotherm of Radon on IRMOF-1
DOI: 10.1021/Jp303274m
Adsorbate Radon: InChIKey SYUHGPGVQRZVTB-UHFFFAOYSA-N
Temperature: 292 K
Tabular data in the source: 0
pressure (bar)	uptake (cm3(STP)/mol)
0.0788341	4929.58
0.213316	16760.6
0.486916	55211.3
0.769792	170563
0.97847	272113
1.65088	327324
1.97549	339155
