Adsorption isotherm of Radon on IRMOF-2-Cl
DOI: 10.1021/Jp303274m
Adsorbate Radon: InChIKey SYUHGPGVQRZVTB-UHFFFAOYSA-N
Temperature: 292 K
Tabular data in the source: 0
pressure (bar)	uptake (cm3(STP)/mol)
0.111295	9859.15
0.204041	17746.5
0.500828	67042.3
0.769792	151831
0.983108	224789
1.6416	297746
1.99404	311549
