Adsorption isotherm of Xenon on IRMOF-2-Br
DOI: 10.1021/Jp303274m
Adsorbate Xenon: InChIKey FHNFHKCVQCLJFQ-UHFFFAOYSA-N
Temperature: 273 K
Tabular data in the source: 0
pressure (bar)	uptake (cm3(STP)/mol)
0.0293309	1963.68
0.0959921	5325.43
0.138655	7285.4
0.189318	9806.52
0.255979	13168.3
0.28531	14286.9
0.349305	17649.4
0.426632	21289.8
0.458629	23252.8
0.506625	26056.3
0.581286	29697.6
0.615949	31096.4
0.685277	34739.1
0.714608	36702.7
0.783936	39500.4
0.8106	40619.7
0.861262	43422.5
0.938589	47626.4
0.997251	50427
