Adsorption isotherm of Xenon on IRMOF-2-Br
DOI: 10.1021/Jp303274m
Adsorbate Xenon: InChIKey FHNFHKCVQCLJFQ-UHFFFAOYSA-N
Temperature: 292 K
Tabular data in the source: 0
pressure (bar)	uptake (cm3(STP)/mol)
0.063	2210.98
0.102375	3641.62
0.14175	4942.2
0.202125	6763.01
0.249375	8453.76
0.3045	10274.6
0.357	11965.3
0.40425	13526
0.454125	15086.7
0.501375	16647.4
0.564375	18728.3
0.606375	20159
0.664125	21979.8
0.714	23800.6
0.7455	24580.9
0.819	27182.1
0.879375	29132.9
0.924	30693.6
0.958125	31994.2
0.987	32904.6
1.00538	33554.9
