Adsorption isotherm of Xenon on IRMOF-2-Cl
DOI: 10.1021/Jp303274m
Adsorbate Xenon: InChIKey FHNFHKCVQCLJFQ-UHFFFAOYSA-N
Temperature: 292 K
Tabular data in the source: 0
pressure (bar)	uptake (cm3(STP)/mol)
0.065625	2080.92
0.112875	3381.5
0.254625	7413.29
0.307125	8973.99
0.357	10404.6
0.417375	12095.4
0.4515	13135.8
0.504	14566.5
0.559125	16517.3
0.606375	17687.9
0.658875	19248.6
0.70875	20939.3
0.748125	21979.8
0.8085	23930.6
0.87675	26141.6
0.924	27702.3
0.96075	28742.8
0.989625	29913.3
1.00538	30303.5
