Adsorption isotherm of Krypton on IRMOF-2-I
DOI: 10.1021/Jp303274m
Adsorbate Krypton: InChIKey DNNSSWSSYDEUBZ-UHFFFAOYSA-N
Temperature: 273 K
Tabular data in the source: 0
pressure (bar)	uptake (cm3(STP)/mol)
0.0346638	377.358
0.0799934	1207.55
0.127989	1886.79
0.167986	2415.09
0.213316	3094.34
0.261312	3924.53
0.303975	4528.3
0.402634	5962.26
0.509291	7547.17
0.56262	8226.42
0.661279	9811.32
0.711941	10490.6
0.781269	11471.7
0.858596	12528.3
0.895926	13132.1
0.927924	13735.8
0.946589	13962.3
0.97592	14339.6
1.00525	14867.9
