Adsorption isotherm of Argon on IRMOF-2-F
DOI: 10.1021/Jp303274m
Adsorbate Argon: InChIKey XKRFYHLGVUSROY-UHFFFAOYSA-N
Temperature: 292 K
Tabular data in the source: 0
pressure (bar)	uptake (cm3(STP)/mol)
0.0471279	205.315
0.0837829	315.692
0.104729	473.866
0.26444	1105.37
0.481752	2179.78
0.743574	3380.3
0.963504	4327.87
