Adsorption isotherm of Radon on IRMOF-2-F
DOI: 10.1021/Jp303274m
Adsorbate Radon: InChIKey SYUHGPGVQRZVTB-UHFFFAOYSA-N
Temperature: 292 K
Tabular data in the source: 0
pressure (bar)	uptake (cm3(STP)/mol)
0.0556476	1971.83
0.115932	7887.32
0.204041	14788.7
0.500828	42394.4
0.769792	87746.5
0.983108	179437
1.6416	311549
1.99868	326338
