Adsorption isotherm of Argon on IRMOF-2-Cl
DOI: 10.1021/Jp303274m
Adsorbate Argon: InChIKey XKRFYHLGVUSROY-UHFFFAOYSA-N
Temperature: 273 K
Tabular data in the source: 0
pressure (bar)	uptake (cm3(STP)/mol)
0.0338876	117.691
0.0677505	282.776
0.0990143	424.225
0.130278	565.674
0.187607	801.3
0.21366	919.174
0.257969	1084.01
0.307476	1296.13
0.35957	1555.57
0.40909	1743.99
0.513315	2191.79
0.583677	2474.5
0.659237	2804.49
0.711343	3040.24
0.75564	3228.77
0.872885	3747.36
0.938024	4030.2
0.969275	4195.34
1.00315	4336.73
