Adsorption isotherm of Nitrogen on IRMOF-2-I
DOI: 10.1021/Jp303274m
Adsorbate Nitrogen: InChIKey IJGRMHOSHXDMSA-UHFFFAOYSA-N
Temperature: 292 K
Tabular data in the source: 0
pressure (bar)	uptake (cm3(STP)/mol)
0.151465	552.386
0.263758	962.733
0.310765	1120.5
0.365606	1309.84
0.459619	1657.08
0.506625	1814.84
0.558854	2004.23
0.608472	2161.95
0.663313	2351.3
0.71032	2540.76
0.757326	2698.53
0.791275	2840.65
0.83567	3046.01
0.856562	3140.78
0.893122	3282.86
0.927072	3440.83
0.947963	3551.45
0.974078	3677.85
0.987135	3788.59
1.0028	3899.3
