Adsorption isotherm of Nitrogen on IRMOF-1
DOI: 10.1021/Jp303274m
Adsorbate Nitrogen: InChIKey IJGRMHOSHXDMSA-UHFFFAOYSA-N
Temperature: 273 K
Tabular data in the source: 0
pressure (bar)	uptake (cm3(STP)/mol)
0.0287262	117.371
0.083567	375.587
0.188026	798.122
0.261147	1126.76
0.360383	1549.3
0.464841	1995.31
0.561466	2441.31
0.63981	2793.43
0.731211	3192.49
0.843505	3732.39
0.94274	4107.98
1.0028	4389.67
