Adsorption isotherm of Nitrogen on IRMOF-2-Cl
DOI: 10.1021/Jp303274m
Adsorbate Nitrogen: InChIKey IJGRMHOSHXDMSA-UHFFFAOYSA-N
Temperature: 292 K
Tabular data in the source: 0
pressure (bar)	uptake (cm3(STP)/mol)
0.0496318	210.843
0.0761889	231.928
0.102666	337.349
0.132485	421.687
0.158982	506.024
0.188821	569.277
0.215318	653.614
0.281561	864.458
0.32791	1033.13
0.400817	1222.89
0.48359	1518.07
0.579632	1834.34
0.63929	1981.93
0.682338	2129.52
0.738674	2277.11
0.781701	2445.78
0.834675	2635.54
0.910864	2867.47
0.99698	3141.57
