Adsorption isotherm of Krypton on IRMOF-1
DOI: 10.1021/Jp303274m
Adsorbate Krypton: InChIKey DNNSSWSSYDEUBZ-UHFFFAOYSA-N
Temperature: 292 K
Tabular data in the source: 0
pressure (bar)	uptake (cm3(STP)/mol)
0.030417	290.909
0.185891	1745.45
0.317684	3054.55
0.435984	4145.45
0.5137	4945.45
0.60834	5818.18
0.699591	6690.91
0.787453	7563.64
0.868559	8363.64
0.956421	9236.36
1.00037	9600
