Adsorption isotherm of Nitrogen on IRMOF-1
DOI: 10.1021/Jp303274m
Adsorbate Nitrogen: InChIKey IJGRMHOSHXDMSA-UHFFFAOYSA-N
Temperature: 273 K
Tabular data in the source: 0
pressure (bar)	uptake (cm3(STP)/mol)
0.0287262	140.845
0.0652867	328.638
0.0940129	422.535
0.135796	657.277
0.17758	845.07
0.203695	985.915
0.261147	1220.66
0.318599	1455.4
0.360383	1690.14
0.417835	1877.93
0.464841	2136.15
0.517071	2323.94
0.561466	2535.21
0.608472	2723
0.663313	2934.27
0.718154	3145.54
0.786052	3427.23
0.825224	3568.08
0.846116	3638.5
0.895734	3802.82
0.932294	3967.14
0.961021	4131.46
0.979301	4272.3
0.997581	4507.04
1.0028	4694.84
