Adsorption isotherm of Radon on IRMOF-2-Cl
DOI: 10.1021/Jp303274m
Adsorbate Radon: InChIKey SYUHGPGVQRZVTB-UHFFFAOYSA-N
Temperature: 292 K
Tabular data in the source: 0
pressure (bar)	uptake (cm3(STP)/mol)
0.00225153	181.838
0.00573206	484.768
0.00798236	636.485
0.00982586	818.121
0.0120774	999.96
0.0137157	1151.37
0.0155579	1302.89
0.0171962	1454.3
0.0190385	1605.82
0.0208807	1757.33
0.022519	1908.75
0.0243613	2060.26
0.0262023	2181.66
0.0278406	2333.07
0.0296828	2484.59
0.0313223	2666.12
0.0329606	2817.53
0.0348029	2969.05
0.0366439	3090.44
0.0382822	3241.86
0.0401244	3393.37
0.0417627	3544.79
0.043605	3696.3
0.0452444	3877.84
0.0470855	3999.23
0.048929	4180.87
0.0505673	4332.28
0.0526135	4483.9
