Adsorption isotherm of Nitrogen on IRMOF-2-Cl
DOI: 10.1021/Jp303274m
Adsorbate Nitrogen: InChIKey IJGRMHOSHXDMSA-UHFFFAOYSA-N
Temperature: 273 K
Tabular data in the source: 0
pressure (bar)	uptake (cm3(STP)/mol)
0.0210072	105.634
0.0603665	253.521
0.131206	507.042
0.173208	697.183
0.225683	887.324
0.304402	1183.1
0.406746	1584.51
0.495974	1943.66
0.545843	2154.93
0.616695	2429.58
0.737391	2873.24
0.789866	3063.38
0.865966	3359.15
0.949946	3697.18
1.00243	3908.45
