Adsorption isotherm of Argon on IRMOF-2-Cl
DOI: 10.1021/Jp303274m
Adsorbate Argon: InChIKey XKRFYHLGVUSROY-UHFFFAOYSA-N
Temperature: 292 K
Tabular data in the source: 0
pressure (bar)	uptake (cm3(STP)/mol)
0.0471279	284.565
0.0759283	379.216
0.261822	1232.22
0.481752	2449.24
0.740955	3760.74
0.963504	4850.92
