Adsorption isotherm of Xenon on IRMOF-2-F
DOI: 10.1021/Jp303274m
Adsorbate Xenon: InChIKey FHNFHKCVQCLJFQ-UHFFFAOYSA-N
Temperature: 273 K
Tabular data in the source: 0
pressure (bar)	uptake (cm3(STP)/mol)
0.0107318	566.038
0.107179	3584.91
0.198292	6792.45
0.289379	9622.64
0.353682	11698.1
0.415336	14150.9
0.495729	16981.1
0.568077	19434
0.637752	21886.8
0.720819	24717
0.779749	26415.1
0.852097	28867.9
1.0102	34339.6
