Adsorption isotherm of Krypton on IRMOF-1
DOI: 10.1021/Jp303274m
Adsorbate Krypton: InChIKey DNNSSWSSYDEUBZ-UHFFFAOYSA-N
Temperature: 273 K
Tabular data in the source: 0
pressure (bar)	uptake (cm3(STP)/mol)
0.0267348	330.003
0.0561431	726.181
0.0855515	989.658
0.131001	1517.49
0.171103	1979.32
0.208532	2441.32
0.256654	2836.27
0.307451	3496.45
0.36092	4023.76
0.409043	4551.41
0.462513	5211.42
0.510635	5606.37
0.561431	6133.85
0.609554	6661.51
0.71382	7716.29
0.756596	8244.29
0.791351	8706.47
0.815412	8771.25
0.850168	9366.13
0.887596	9960.83
0.922352	10356.7
0.957107	10885.2
0.981168	11547.1
1.01325	12009.5
