Adsorption isotherm of Nitrogen on IRMOF-1
DOI: 10.1021/Jp303274m
Adsorbate Nitrogen: InChIKey IJGRMHOSHXDMSA-UHFFFAOYSA-N
Temperature: 292 K
Tabular data in the source: 0
pressure (bar)	uptake (cm3(STP)/mol)
0.0167804	80.8383
0.0804977	323.353
0.244857	997.006
0.402529	1670.66
0.63395	2586.83
0.774841	3179.64
0.841922	3449.1
0.942544	3853.29
1.01299	4149.7
