Adsorption isotherm of Nitrogen on IRMOF-2-Cl
DOI: 10.1021/Jp303274m
Adsorbate Nitrogen: InChIKey IJGRMHOSHXDMSA-UHFFFAOYSA-N
Temperature: 292 K
Tabular data in the source: 0
pressure (bar)	uptake (cm3(STP)/mol)
0.305542	962.079
0.35516	1119.8
0.464841	1450.94
0.514459	1592.82
0.561466	1750.58
0.618918	1908.19
0.663313	2065.99
0.712931	2239.57
0.762549	2365.59
0.793887	2460.2
0.822613	2539.01
0.885288	2696.53
0.937517	2917.61
1.0028	3106.79
