Adsorption isotherm of Nitrogen on IRMOF-2-Br
DOI: 10.1021/Jp303274m
Adsorbate Nitrogen: InChIKey IJGRMHOSHXDMSA-UHFFFAOYSA-N
Temperature: 292 K
Tabular data in the source: 0
pressure (bar)	uptake (cm3(STP)/mol)
0.0408269	144.578
0.0742308	289.157
0.122481	506.024
0.155885	650.602
0.189288	831.325
0.222692	975.904
0.248673	1084.34
0.259808	1156.63
0.293212	1301.2
0.326615	1481.93
0.360019	1626.51
0.393423	1771.08
0.426827	1951.81
0.460231	2096.39
0.489923	2277.11
0.519615	2385.54
0.538173	2457.83
0.571577	2602.41
0.604981	2783.13
0.638385	2927.71
0.671788	3072.29
0.705192	3253.01
0.731173	3325.3
0.738596	3397.59
0.772	3542.17
0.805404	3722.89
0.838808	3867.47
0.872212	4012.05
0.905615	4192.77
0.935308	4337.35
0.968712	4481.93
1.00212	4626.51
