Adsorption isotherm of Argon on IRMOF-2-Br
DOI: 10.1021/Jp303274m
Adsorbate Argon: InChIKey XKRFYHLGVUSROY-UHFFFAOYSA-N
Temperature: 273 K
Tabular data in the source: 0
pressure (bar)	uptake (cm3(STP)/mol)
0.0446198	252.281
0.0656021	336.204
0.0865968	448.297
0.107591	560.389
0.128586	672.482
0.149581	784.574
0.170575	896.666
0.194188	1008.69
0.220382	1036.13
0.241389	1176.39
0.25716	1316.79
0.283354	1344.24
0.296531	1541.05
0.322713	1540.32
0.34372	1680.59
0.362096	1792.75
0.388303	1848.36
0.472269	2268.56
0.522137	2548.86
0.574587	2744.59
0.595582	2856.68
0.613971	2997.02
0.640165	3024.46
0.650724	3221.35
0.676905	3220.62
0.697925	3389.05
0.718895	3444.8
0.737283	3585.14
0.758254	3640.89
0.776642	3781.23
0.797612	3836.98
0.821225	3949
0.842208	4032.92
0.863202	4145.02
0.88679	4200.7
0.907773	4284.62
0.926162	4424.96
0.949774	4536.98
0.970794	4705.41
0.994419	4845.59
