Adsorption isotherm of Xenon on IRMOF-2-F
DOI: 10.1021/Jp303274m
Adsorbate Xenon: InChIKey FHNFHKCVQCLJFQ-UHFFFAOYSA-N
Temperature: 292 K
Tabular data in the source: 0
pressure (bar)	uptake (cm3(STP)/mol)
0.102375	2341.04
0.1365	3251.45
0.212625	4812.14
0.254625	5982.66
0.312375	7283.24
0.359625	8323.7
0.406875	9364.16
0.454125	10664.7
0.501375	11705.2
0.564375	13265.9
0.606375	14306.4
0.6615	15606.9
0.716625	17037.6
0.75075	17948
0.816375	19508.7
0.879375	21199.4
0.924	22369.9
0.95025	23280.3
0.99225	24190.8
1.00538	24580.9
