Adsorption isotherm of Xenon on IRMOF-2-I
DOI: 10.1021/Jp303274m
Adsorbate Xenon: InChIKey FHNFHKCVQCLJFQ-UHFFFAOYSA-N
Temperature: 292 K
Tabular data in the source: 0
pressure (bar)	uptake (cm3(STP)/mol)
0.060375	2601.16
0.09975	4291.91
0.144375	6112.72
0.1995	8193.64
0.2625	10664.7
0.29925	12095.4
0.35175	14176.3
0.401625	16127.2
0.464625	18468.2
0.506625	20159
0.56175	22239.9
0.609	24060.7
0.66675	26271.7
0.711375	28222.5
0.75075	29523.1
0.816375	32384.4
0.879375	34855.5
0.924	36546.2
0.958125	37976.9
0.989625	39277.5
1.008	40057.8
