Adsorption isotherm of Xenon on IRMOF-2-F
DOI: 10.1021/Jp303274m
Adsorbate Xenon: InChIKey FHNFHKCVQCLJFQ-UHFFFAOYSA-N
Temperature: 292 K
Tabular data in the source: 0
pressure (bar)	uptake (cm3(STP)/mol)
0.0228382	542.169
0.106556	2349.4
0.16748	3975.9
0.22077	5240.96
0.281672	6686.75
0.342574	8132.53
0.422519	10120.5
0.487216	11566.3
0.555731	13192.8
0.612838	14638.6
0.677535	16084.3
0.742254	17710.8
0.814587	19518.1
0.875489	20963.9
0.940186	22409.6
1.0087	24036.1
1.05817	25120.5
