Adsorption isotherm of Argon on IRMOF-2-F
DOI: 10.1021/Jp303274m
Adsorbate Argon: InChIKey XKRFYHLGVUSROY-UHFFFAOYSA-N
Temperature: 292 K
Tabular data in the source: 0
pressure (bar)	uptake (cm3(STP)/mol)
0.0199984	90.3614
0.0999918	451.807
0.156654	692.771
0.23998	1054.22
0.339972	1536.14
0.436631	1987.95
0.563287	2500
0.656613	2951.81
0.736606	3313.25
0.839931	3795.18
0.913258	4126.51
0.963254	4367.47
