Adsorption isotherm of Nitrogen on IRMOF-2-I
DOI: 10.1021/Jp303274m
Adsorbate Nitrogen: InChIKey IJGRMHOSHXDMSA-UHFFFAOYSA-N
Temperature: 273 K
Tabular data in the source: 0
pressure (bar)	uptake (cm3(STP)/mol)
0.02625	169.014
0.065625	281.69
0.107625	450.704
0.189	901.408
0.21525	985.915
0.2625	1239.44
0.312375	1464.79
0.359625	1690.14
0.412125	1943.66
0.454125	2140.85
0.511875	2394.37
0.567	2676.06
0.6195	2901.41
0.664125	3070.42
0.714	3323.94
0.758625	3492.96
0.795375	3633.8
0.82425	3774.65
0.84	3859.15
0.861	4000
0.8925	4169.01
0.92925	4338.03
0.958125	4535.21
0.987	4732.39
1.01063	4845.07
