Adsorption isotherm of Xenon on IRMOF-2-Br
DOI: 10.1021/Jp303274m
Adsorbate Xenon: InChIKey FHNFHKCVQCLJFQ-UHFFFAOYSA-N
Temperature: 273 K
Tabular data in the source: 0
pressure (bar)	uptake (cm3(STP)/mol)
0.0293309	1963.68
0.0959921	5325.43
0.138655	7285.4
0.213316	11208.3
0.255979	13168.3
0.306641	15407.7
0.362637	18209
0.402634	20451.4
0.458629	23252.8
0.506625	26056.3
0.554621	27733.1
0.615949	31096.4
0.703942	35297.3
0.8106	40619.7
0.922591	46785.8
0.957255	48184.6
1.00258	50988.9
