Adsorption isotherm of Argon on IRMOF-2-Br
DOI: 10.1021/Jp303274m
Adsorbate Argon: InChIKey XKRFYHLGVUSROY-UHFFFAOYSA-N
Temperature: 292 K
Tabular data in the source: 0
pressure (bar)	uptake (cm3(STP)/mol)
0.104729	394.615
0.164948	583.875
0.251349	867.826
0.306331	1073.02
0.358696	1230.7
0.408442	1404.27
0.45557	1546.19
0.507934	1719.72
0.55768	1877.44
0.612663	2050.93
0.662409	2208.66
0.709537	2350.57
0.751428	2476.72
0.77761	2539.71
0.809029	2634.32
0.835211	2713.16
0.856157	2776.23
0.871866	2839.39
0.887576	2886.69
0.921612	2997.11
0.96874	3154.87
1.01063	3296.87
