Adsorption isotherm of Nitrogen on IRMOF-2-F
DOI: 10.1021/Jp303274m
Adsorbate Nitrogen: InChIKey IJGRMHOSHXDMSA-UHFFFAOYSA-N
Temperature: 273 K
Tabular data in the source: 0
pressure (bar)	uptake (cm3(STP)/mol)
0.02625	132.075
0.063	283.019
0.107625	452.83
0.147	622.642
0.19425	773.585
0.207375	830.189
0.2625	1018.87
0.30975	1207.55
0.364875	1415.09
0.4095	1622.64
0.462	1773.58
0.50925	1962.26
0.553875	2150.94
0.611625	2358.49
0.66675	2509.43
0.711375	2698.11
0.756	2849.06
0.790125	2962.26
0.82425	3075.47
0.83475	3113.21
0.863625	3207.55
0.8715	3264.15
0.889875	3320.75
0.924	3415.09
0.93975	3452.83
0.963375	3490.57
0.989625	3641.51
1.01325	3754.72
