Adsorption isotherm of Radon on IRMOF-2-I
DOI: 10.1021/Jp303274m
Adsorbate Radon: InChIKey SYUHGPGVQRZVTB-UHFFFAOYSA-N
Temperature: 292 K
Tabular data in the source: 0
pressure (bar)	uptake (cm3(STP)/mol)
0.0602849	7887.32
0.111295	11831
0.208678	26619.7
0.491554	95633.8
0.774429	189296
0.992382	234648
1.6416	283944
1.99404	295775
