Adsorption isotherm of Argon on IRMOF-1
DOI: 10.1021/Jp303274m
Adsorbate Argon: InChIKey XKRFYHLGVUSROY-UHFFFAOYSA-N
Temperature: 273 K
Tabular data in the source: 0
pressure (bar)	uptake (cm3(STP)/mol)
0.0287624	65.2045
0.128028	454.874
0.20378	757.919
0.263873	974.507
0.360508	1385.65
0.431036	1667.05
0.538143	2078.42
0.629554	2467.92
0.707937	2749.49
0.804597	3117.58
0.901232	3528.72
0.961325	3745.31
1.00572	3940.03
