Adsorption isotherm of Nitrogen on IRMOF-2-F
DOI: 10.1021/Jp303274m
Adsorbate Nitrogen: InChIKey IJGRMHOSHXDMSA-UHFFFAOYSA-N
Temperature: 292 K
Tabular data in the source: 0
pressure (bar)	uptake (cm3(STP)/mol)
0.0299975	83.3333
0.136655	375
0.296642	875
0.419965	1229.17
0.536623	1562.5
0.629948	1833.33
0.72994	2125
0.826599	2437.5
0.906592	2625
1.00325	2895.83
