Adsorption isotherm of Nitrogen on NJU-Bai13
DOI: 10.1039/C3ce41119b
Adsorbate Nitrogen: InChIKey IJGRMHOSHXDMSA-UHFFFAOYSA-N
Temperature: 77 K
Tabular data in the source: 0
pressure (bar)	uptake (cm3(STP)/g)
0.00400996	23.2217
0.00619484	395.524
0.0105646	552.835
0.0324133	833.373
0.0520772	870.079
0.0782957	896.297
0.128548	914.65
0.205018	925.138
0.301153	938.247
0.395102	943.491
0.451909	946.112
0.548044	948.734
0.598296	953.978
0.648548	953.978
0.746867	959.222
0.858296	961.844
0.985018	964.465
