Adsorption isotherm of Nitrogen on NJU-Bai13
DOI: 10.1039/C3ce41119b
Adsorbate Nitrogen: InChIKey IJGRMHOSHXDMSA-UHFFFAOYSA-N
Temperature: 273 K
Tabular data in the source: 0
pressure (bar)	uptake (mmol/g)
0.167594	0.449449
3.18272	1.10491
7.11549	1.95701
10.3054	2.54693
13.1894	3.13684
16.2046	3.59567
19.9189	4.12004
