Adsorption isotherm of Hydrogen on NJU-Bai13
DOI: 10.1039/C3ce41119b
Adsorbate Hydrogen: InChIKey UFHFLCQGNIYNRP-UHFFFAOYSA-N
Temperature: 77 K
Tabular data in the source: 0
pressure (bar)	uptake (wt%)
0.417732	0.867215
1.16141	1.69813
1.53324	2.00847
2.27692	2.40891
3.0492	2.73927
4.0789	3.07965
5.99529	3.54015
7.94028	3.89054
9.99969	4.17085
12.0877	4.37107
14.0327	4.56127
16.0063	4.72145
16.9216	4.78152
17.9513	4.84158
18.9238	4.88163
19.9535	4.91166
