Adsorption isotherm of Carbon Dioxide on NJU-Bai13
DOI: 10.1039/C3ce41119b
Adsorbate Carbon Dioxide: InChIKey CURLTUGMZLYLDI-UHFFFAOYSA-N
Temperature: 298 K
Tabular data in the source: 0
pressure (bar)	uptake (mmol/g)
0.167594	0.449449
1.34743	2.48138
3.05163	4.70995
4.23146	5.95533
6.06675	7.92172
8.03314	10.2158
10.1306	12.2478
12.2718	14.1486
14.0634	15.7873
16.2483	17.6226
18.3457	18.8024
19.8315	19.8511
