Adsorption isotherm of Methane on NJU-Bai13
DOI: 10.1039/C3ce41119b
Adsorbate Methane: InChIKey VNWKTOKETHGBQD-UHFFFAOYSA-N
Temperature: 298 K
Tabular data in the source: 0
pressure (bar)	uptake (cm3(STP)/g)
0.42223	4.79178
1.2673	14.0876
2.02786	21.1298
3.01378	31.2707
3.94336	40.003
5.97153	57.7495
7.94336	72.6791
9.94336	87.6087
12.0279	101.13
14.0842	113.806
16.0279	125.355
17.0983	131.271
18.0279	136.623
19.0701	141.411
20.0279	146.764
