Adsorption isotherm of Carbon Dioxide on NJU-Bai13
DOI: 10.1039/C3ce41119b
Adsorbate Carbon Dioxide: InChIKey CURLTUGMZLYLDI-UHFFFAOYSA-N
Temperature: 273 K
Tabular data in the source: 0
pressure (bar)	uptake (mmol/g)
0.211292	1.03936
1.30373	3.79231
3.00793	8.05281
4.10037	10.1503
6.06675	14.2142
6.9844	16.3772
8.07684	18.8024
9.16928	20.1789
10.218	21.6209
12.2718	23.2595
14.3256	24.3083
16.2483	24.9637
18.171	25.4226
19.8315	25.7503
