Adsorption isotherm of Methane on NJU-Bai13
DOI: 10.1039/C3ce41119b
Adsorbate Methane: InChIKey VNWKTOKETHGBQD-UHFFFAOYSA-N
Temperature: 298 K
Tabular data in the source: 0
pressure (bar)	uptake (cm3(STP)/g)
0.0801993	2.99633
2.92054	37.0804
4.01297	47.5678
6.9407	76.8451
11.0046	110.929
15.2869	144.139
19.8315	174.29
