Adsorption isotherm of Nitrogen on NJU-Bai13
DOI: 10.1039/C3ce41119b
Adsorbate Nitrogen: InChIKey IJGRMHOSHXDMSA-UHFFFAOYSA-N
Temperature: 298 K
Tabular data in the source: 0
pressure (bar)	uptake (mmol/g)
0.167594	0.449449
3.13902	0.711634
7.20289	1.3671
12.1407	2.02256
16.2046	2.54693
19.9626	3.0713
