Adsorption isotherm of Hydrogen on NJU-Bai13
DOI: 10.1039/C3ce41119b
Adsorbate Hydrogen: InChIKey UFHFLCQGNIYNRP-UHFFFAOYSA-N
Temperature: 77 K
Tabular data in the source: 0
pressure (bar)	uptake (wt%)
0.167594	0.0284008
0.254989	0.701342
0.779359	1.52722
1.56591	2.12369
2.70205	2.72017
3.96927	3.20958
5.10541	3.50017
7.11549	4.00487
9.08188	4.40252
12.2281	4.92252
16.2046	5.38134
19.9626	5.73311
