Adsorption isotherm of N-propane on Rho-ZMOF
DOI: 10.1016/j.micromeso.2014.07.028
Adsorbate N-propane: InChIKey ATUOYWHBWRKTHZ-UHFFFAOYSA-N
Temperature: 303 K
Tabular data in the source: 0
pressure (bar)	uptake (molecules/unitcell)
0.0431099	1.70936
0.0615319	5.70705
0.0632864	9.70725
0.14725	14.2689
0.27658	19.3669
0.539751	19.397
1.1097	19.8732
2.31415	23.7355
4.81403	24.0213
