Adsorption isotherm of Carbon Dioxide on 80Krho-ZMOF
DOI: 10.1016/j.micromeso.2014.07.028
Adsorbate Carbon Dioxide: InChIKey CURLTUGMZLYLDI-UHFFFAOYSA-N
Temperature: 303 K
Tabular data in the source: 0
pressure (bar)	uptake (molecules/unitcell)
0.00401606	-0.275229
0.100402	21.1927
0.196787	28.6239
0.297189	33.8532
0.401606	39.0826
0.497992	42.3853
0.598394	44.5872
0.698795	47.8899
0.803213	50.9174
0.899598	51.4679
1	53.945
