Adsorption isotherm of Propene on 80Krho-ZMOF
DOI: 10.1016/j.micromeso.2014.07.028
Adsorbate Propene: InChIKey QQONPFPTGQHPMA-UHFFFAOYSA-N
Temperature: 303 K
Tabular data in the source: 0
pressure (bar)	uptake (molecules/unitcell)
-2.22045e-16	-2.22045e-16
0.0438596	27.2677
0.0657895	43.7425
0.131579	51.1214
0.263158	64.1746
0.526316	66.9856
1.11842	76.0093
2.34649	81.5515
4.82456	86.3836
