Adsorption isotherm of Propene on 100Krho-ZMOF
DOI: 10.1016/j.micromeso.2014.07.028
Adsorbate Propene: InChIKey QQONPFPTGQHPMA-UHFFFAOYSA-N
Temperature: 303 K
Tabular data in the source: 0
pressure (bar)	uptake (molecules/unitcell)
-0.000754224	-0.568182
0.000125704	3.40909
0.014456	7.95455
0.0164672	15.9091
0.0186042	25.5682
0.020364	34.6591
0.0566925	43.75
0.12143	51.1364
0.252288	59.6591
0.515889	68.1818
1.08985	73.8636
2.30704	72.1591
4.82691	82.3864
