Adsorption isotherm of N-propane on 100Narho-ZMOF
DOI: 10.1016/j.micromeso.2014.07.028
Adsorbate N-propane: InChIKey ATUOYWHBWRKTHZ-UHFFFAOYSA-N
Temperature: 303 K
Tabular data in the source: 0
pressure (bar)	uptake (molecules/unitcell)
-0.0222222	-0.564972
0.111111	8.47458
0.244444	7.34463
0.533333	9.60452
1.11111	7.9096
2.31111	6.21469
4.82222	7.9096
