Adsorption isotherm of Propene on Rho-ZMOF
DOI: 10.1016/j.micromeso.2014.07.028
Adsorbate Propene: InChIKey QQONPFPTGQHPMA-UHFFFAOYSA-N
Temperature: 303 K
Tabular data in the source: 0
pressure (bar)	uptake (molecules/unitcell)
0.0159156	0.566444
0.033335	3.99519
0.0350895	7.99539
0.0403529	13.7125
0.0421074	19.996
0.0436112	23.9962
0.0736879	31.9916
0.136974	37.6986
0.265803	43.9696
0.527219	47.9397
1.11735	51.7369
2.30187	52.0227
4.80174	52.4437
