Adsorption isotherm of Carbon Dioxide on Rho-ZMOF
DOI: 10.1016/j.micromeso.2014.07.028
Adsorbate Carbon Dioxide: InChIKey CURLTUGMZLYLDI-UHFFFAOYSA-N
Temperature: 303 K
Tabular data in the source: 0
pressure (bar)	uptake (molecules/unitcell)
1.83597e-05	-0.276498
0.102998	8.84793
0.202361	12.4424
0.297758	15.7604
0.397158	18.8018
0.500652	20.1843
0.600143	21.8433
0.703619	23.5023
0.799089	25.7143
0.898599	27.0968
1.00211	28.2028
