Adsorption isotherm of Propene on 100Lisod-ZMOF
DOI: 10.1016/j.micromeso.2014.07.028
Adsorbate Propene: InChIKey QQONPFPTGQHPMA-UHFFFAOYSA-N
Temperature: 303 K
Tabular data in the source: 0
pressure (bar)	uptake (molecules/unitcell)
8.88178e-16	8.88178e-16
0.0226244	63.0656
0.0452489	68.7449
0.135747	73.8482
0.248869	75.5399
0.520362	75.509
1.1086	76.5786
2.30769	91.7832
4.84163	96.6089
