Adsorption isotherm of Propene on 22Nasod-ZMOF
DOI: 10.1016/j.micromeso.2014.07.028
Adsorbate Propene: InChIKey QQONPFPTGQHPMA-UHFFFAOYSA-N
Temperature: 303 K
Tabular data in the source: 0
pressure (bar)	uptake (molecules/unitcell)
-0.000753296	1.69492
0.0149404	5.64972
0.0197112	11.2994
0.0316384	16.3842
0.0328939	21.4689
0.0349027	25.9887
0.0394225	28.8136
0.117514	35.5932
0.250345	36.7232
0.515505	40.113
1.11475	41.8079
2.31325	45.1977
4.80213	45.1977
