Adsorption isotherm of Carbon Dioxide on 84Narho-ZMOF
DOI: 10.1016/j.micromeso.2014.07.028
Adsorbate Carbon Dioxide: InChIKey CURLTUGMZLYLDI-UHFFFAOYSA-N
Temperature: 303 K
Tabular data in the source: 0
pressure (bar)	uptake (molecules/unitcell)
0.02	3.84771
0.048	7.96844
0.1	11.2569
0.204	17.2833
0.3	21.3853
0.5	27.3853
0.752	34.1967
0.992	39.0848
