Adsorption isotherm of N-propane on 100Narho-ZMOF
DOI: 10.1016/j.micromeso.2014.07.028
Adsorbate N-propane: InChIKey ATUOYWHBWRKTHZ-UHFFFAOYSA-N
Temperature: 303 K
Tabular data in the source: 0
pressure (bar)	uptake (molecules/unitcell)
-0.0221239	-1.42109e-14
-0.00150845	2.27273
0.0172214	6.81818
0.0216211	22.1591
0.0380883	27.8409
0.125327	33.5227
0.234312	40.9091
0.520666	46.5909
1.09501	50.5682
2.31119	53.4091
4.83281	55.6818
