Adsorption isotherm of Propene on 100Ksod-ZMOF
DOI: 10.1016/j.micromeso.2014.07.028
Adsorbate Propene: InChIKey QQONPFPTGQHPMA-UHFFFAOYSA-N
Temperature: 303 K
Tabular data in the source: 0
pressure (bar)	uptake (molecules/unitcell)
0.0104725	1.72414
0.0137931	4.5977
0.0149425	7.47126
0.016092	11.4943
0.0185185	16.6667
0.0196679	23.5632
0.0205619	27.5862
0.0212005	32.7586
0.0218391	37.931
0.0286079	45.4023
0.0307791	52.8736
0.034355	61.4943
0.0392082	71.2644
0.0501916	74.1379
0.0719029	76.4368
0.137931	79.3103
0.248787	80.4598
0.514943	82.7586
1.11379	87.931
2.31418	86.2069
4.80243	89.0805
