Adsorption isotherm of N-propane on 28Ksod-ZMOF
DOI: 10.1016/j.micromeso.2014.07.028
Adsorbate N-propane: InChIKey ATUOYWHBWRKTHZ-UHFFFAOYSA-N
Temperature: 303 K
Tabular data in the source: 0
pressure (bar)	uptake (molecules/unitcell)
-0.00190239	1.13636
-0.000253653	6.25
0.0209263	8.52273
0.108563	13.6364
0.265447	10.7955
0.555372	11.9318
1.11315	13.0682
2.31813	14.7727
4.84045	14.7727
