Adsorption isotherm of Carbon Dioxide on 84Narho-ZMOF
DOI: 10.1016/j.micromeso.2014.07.028
Adsorbate Carbon Dioxide: InChIKey CURLTUGMZLYLDI-UHFFFAOYSA-N
Temperature: 303 K
Tabular data in the source: 0
pressure (bar)	uptake (molecules/unitcell)
0.004	0.274128
0.1	13.7339
0.204	18.109
0.4	24.1101
0.6	30.9358
0.7	33.1101
0.8	36.1101
0.896	38.5607
1	40.4587
