Adsorption isotherm of N-propane on 100Ksod-ZMOF
DOI: 10.1016/j.micromeso.2014.07.028
Adsorbate N-propane: InChIKey ATUOYWHBWRKTHZ-UHFFFAOYSA-N
Temperature: 303 K
Tabular data in the source: 0
pressure (bar)	uptake (molecules/unitcell)
0.0220945	0.574713
0.0435504	4.02299
0.132184	5.17241
0.265262	6.32184
0.553768	8.04598
1.13218	5.17241
2.3318	6.89655
4.84266	8.04598
