Adsorption isotherm of Propene on 70Lirho-ZMOF
DOI: 10.1016/j.micromeso.2014.07.028
Adsorbate Propene: InChIKey QQONPFPTGQHPMA-UHFFFAOYSA-N
Temperature: 303 K
Tabular data in the source: 0
pressure (bar)	uptake (molecules/unitcell)
-0.0222222	-0.0222222
0	24.1573
0.0222222	33.7079
0.0444444	37.6404
0.111111	44.9438
0.244444	50
0.511111	60.1124
1.11111	58.9888
2.31111	69.1011
4.84444	63.4831
