Adsorption isotherm of Carbon Dioxide on Rho-ZMOF
DOI: 10.1016/j.micromeso.2014.07.028
Adsorbate Carbon Dioxide: InChIKey CURLTUGMZLYLDI-UHFFFAOYSA-N
Temperature: 303 K
Tabular data in the source: 0
pressure (bar)	uptake (molecules/unitcell)
0.0158628	1.10599
0.0516092	2.76498
0.103218	5.52995
0.2026	8.84793
0.301963	12.4424
0.389484	14.3779
0.500817	17.6959
0.751501	22.3963
0.827088	24.0553
0.926543	26.2673
0.990214	27.3733
