Adsorption isotherm of Carbon Dioxide on 70Lirho-ZMOF
DOI: 10.1016/j.micromeso.2014.07.028
Adsorbate Carbon Dioxide: InChIKey CURLTUGMZLYLDI-UHFFFAOYSA-N
Temperature: 303 K
Tabular data in the source: 0
pressure (bar)	uptake (molecules/unitcell)
0.004	3.85211
0.048	5.21615
0.096	8.23046
0.196	13.1571
0.3	16.9817
0.5	23.5321
0.752	29.2426
0.996	34.9552
