Adsorption isotherm of N-propane on Sod-ZMOF
DOI: 10.1016/j.micromeso.2014.07.028
Adsorbate N-propane: InChIKey ATUOYWHBWRKTHZ-UHFFFAOYSA-N
Temperature: 303 K
Tabular data in the source: 0
pressure (bar)	uptake (molecules/unitcell)
0.0238071	6.17978
0.113997	8.42697
0.270444	6.17978
0.540132	8.98876
1.1008	9.55056
2.31168	10.1124
4.82239	7.86517
