Adsorption isotherm of Propene on Sod-ZMOF
DOI: 10.1016/j.micromeso.2014.07.028
Adsorbate Propene: InChIKey QQONPFPTGQHPMA-UHFFFAOYSA-N
Temperature: 303 K
Tabular data in the source: 0
pressure (bar)	uptake (molecules/unitcell)
0.000503854	2.24719
0.00100771	4.49438
0.00226735	10.1124
0.00327505	14.6067
0.00478662	21.3483
0.0508893	26.9663
0.118532	28.6517
0.231143	30.8989
0.522371	29.7753
1.10583	32.0225
2.3171	34.2697
4.82869	35.9551
