Adsorption isotherm of Propene on 84Narho-ZMOF
DOI: 10.1016/j.micromeso.2014.07.028
Adsorbate Propene: InChIKey QQONPFPTGQHPMA-UHFFFAOYSA-N
Temperature: 303 K
Tabular data in the source: 0
pressure (bar)	uptake (molecules/unitcell)
0.0220264	0.0220264
0.0440529	10.2857
0.0660793	42.8571
0.132159	48
0.264317	54.2857
0.550661	61.7143
1.10132	69.1429
2.31278	76
4.80176	82.2857
