Adsorption isotherm of N-propane on 84Narho-ZMOF
DOI: 10.1016/j.micromeso.2014.07.028
Adsorbate N-propane: InChIKey ATUOYWHBWRKTHZ-UHFFFAOYSA-N
Temperature: 303 K
Tabular data in the source: 0
pressure (bar)	uptake (molecules/unitcell)
2.22045e-16	2.22045e-16
0.0220264	3.42857
0.0440529	21.1429
0.0660793	27.4286
0.132159	31.4286
0.242291	40
0.550661	48.5714
1.12335	47.4286
2.31278	46.2857
4.80176	41.7143
