Adsorption isotherm of Carbon Dioxide on 70Lirho-ZMOF
DOI: 10.1016/j.micromeso.2014.07.028
Adsorbate Carbon Dioxide: InChIKey CURLTUGMZLYLDI-UHFFFAOYSA-N
Temperature: 303 K
Tabular data in the source: 0
pressure (bar)	uptake (molecules/unitcell)
0	0
0.096	10.2304
0.196	14.1014
0.304	17.9724
0.396	20.4608
0.496	24.6083
0.596	27.3733
0.704	29.8618
0.8	32.6267
0.9	35.3917
0.996	38.1567
