Adsorption isotherm of Propene on 100Narho-ZMOF
DOI: 10.1016/j.micromeso.2014.07.028
Adsorbate Propene: InChIKey QQONPFPTGQHPMA-UHFFFAOYSA-N
Temperature: 303 K
Tabular data in the source: 0
pressure (bar)	uptake (molecules/unitcell)
0	0
0.0222222	33.3333
0.0444444	69.4915
0.111111	83.0508
0.266667	85.8757
0.533333	85.8757
1.11111	90.9605
2.31111	96.0452
4.8	100
