Adsorption isotherm of N-propane on 80Krho-ZMOF
DOI: 10.1016/j.micromeso.2014.07.028
Adsorbate N-propane: InChIKey ATUOYWHBWRKTHZ-UHFFFAOYSA-N
Temperature: 303 K
Tabular data in the source: 0
pressure (bar)	uptake (molecules/unitcell)
-0.0221523	-0.571429
-0.0212712	3.42857
-0.0203902	7.42857
-0.0188798	11.4286
0.00251731	14.2857
0.0483323	19.4286
0.137823	25.7143
0.22618	26.8571
0.49314	38.8571
1.0876	37.7143
2.29906	37.7143
4.80944	34.8571
