Adsorption isotherm of Propene on 28Ksod-ZMOF
DOI: 10.1016/j.micromeso.2014.07.028
Adsorbate Propene: InChIKey QQONPFPTGQHPMA-UHFFFAOYSA-N
Temperature: 303 K
Tabular data in the source: 0
pressure (bar)	uptake (molecules/unitcell)
-0.00420908	1.14283
-0.00318869	3.9999
-0.00191322	8.57121
-0.000892834	14.2853
-0.000255096	18.8567
0.0164537	23.4305
0.0170914	26.2876
0.0827785	29.1523
0.238514	31.4558
0.505217	36.6292
1.10839	34.4124
2.29114	35.6904
4.83559	36.5526
