Adsorption isotherm of Propene on 100Narho-ZMOF
DOI: 10.1016/j.micromeso.2014.07.028
Adsorbate Propene: InChIKey QQONPFPTGQHPMA-UHFFFAOYSA-N
Temperature: 303 K
Tabular data in the source: 0
pressure (bar)	uptake (molecules/unitcell)
-0.0250151	2.84091
-0.0242609	5.11364
-0.0232552	9.65909
-0.0227524	13.0682
-0.00502816	22.7273
0.0143302	35.2273
0.0338144	47.1591
0.0986776	53.9773
0.23029	59.0909
0.51614	67.0455
1.09048	71.0227
2.30667	73.8636
4.82791	77.8409
