Adsorption isotherm of N-propane on 22Nasod-ZMOF
DOI: 10.1016/j.micromeso.2014.07.028
Adsorbate N-propane: InChIKey ATUOYWHBWRKTHZ-UHFFFAOYSA-N
Temperature: 303 K
Tabular data in the source: 0
pressure (bar)	uptake (molecules/unitcell)
-0.00251099	5.64972
-0.00150659	3.38983
-0.000251099	0.564972
0.0846202	9.60452
0.174262	7.9096
0.285374	7.9096
0.552793	6.21469
1.13082	5.64972
2.33082	5.64972
4.84093	7.9096
