Adsorption isotherm of N-propane on 27Lisod-ZMOF
DOI: 10.1016/j.micromeso.2014.07.028
Adsorbate N-propane: InChIKey ATUOYWHBWRKTHZ-UHFFFAOYSA-N
Temperature: 303 K
Tabular data in the source: 0
pressure (bar)	uptake (molecules/unitcell)
-0.0224215	-0.0224215
-8.88178e-16	-1.42109e-14
0.0896861	8.14996
0.224215	8.747
0.538117	7.62071
1.12108	8.26989
2.30942	7.82668
4.79821	6.37188
