Adsorption isotherm of N-propane on 70Lirho-ZMOF
DOI: 10.1016/j.micromeso.2014.07.028
Adsorbate N-propane: InChIKey ATUOYWHBWRKTHZ-UHFFFAOYSA-N
Temperature: 303 K
Tabular data in the source: 0
pressure (bar)	uptake (molecules/unitcell)
-0.00212484	0.567457
-0.00112492	2.25983
-0.000499963	5.08462
0.0181236	9.60428
0.0219984	18.0811
0.0608704	24.8656
0.0812439	32.7775
0.102492	36.7347
0.255481	45.2266
0.520461	47.5164
1.09442	48.2839
2.31233	53.231
4.81001	58.7356
