Adsorption isotherm of Propene on 27Lisod-ZMOF
DOI: 10.1016/j.micromeso.2014.07.028
Adsorbate Propene: InChIKey QQONPFPTGQHPMA-UHFFFAOYSA-N
Temperature: 303 K
Tabular data in the source: 0
pressure (bar)	uptake (molecules/unitcell)
-0.044843	-0.044843
-0.0224215	1.16018
-8.88178e-16	22.677
0.0224215	28.4884
0.112108	33.734
0.224215	33.1656
0.515695	38.4321
1.09865	39.6626
2.30942	43.2918
4.79821	47.0696
