Adsorption isotherm of N-propane on 100Krho-ZMOF
DOI: 10.1016/j.micromeso.2014.07.028
Adsorbate N-propane: InChIKey ATUOYWHBWRKTHZ-UHFFFAOYSA-N
Temperature: 303 K
Tabular data in the source: 0
pressure (bar)	uptake (molecules/unitcell)
-0.00125704	5.68182
-0.000754224	3.40909
-0.000251408	1.13636
0.0198612	10.2273
0.0409795	14.7727
0.0843473	18.75
0.127464	23.8636
0.280697	31.25
0.544298	39.7727
1.09652	43.75
2.3117	51.1364
4.83508	45.4545
