Adsorption isotherm of N-propane on 100Lirho-ZMOF
DOI: 10.1016/j.micromeso.2014.07.028
Adsorbate N-propane: InChIKey ATUOYWHBWRKTHZ-UHFFFAOYSA-N
Temperature: 303 K
Tabular data in the source: 0
pressure (bar)	uptake (molecules/unitcell)
2.88658e-15	2.88658e-15
0.0222222	15.2517
0.0888889	29.9335
0.244444	42.3453
0.533333	45.1375
1.11111	49.592
2.33333	46.629
4.84444	53.1249
