Adsorption isotherm of Propene on 100Lirho-ZMOF
DOI: 10.1016/j.micromeso.2014.07.028
Adsorbate Propene: InChIKey QQONPFPTGQHPMA-UHFFFAOYSA-N
Temperature: 303 K
Tabular data in the source: 0
pressure (bar)	uptake (molecules/unitcell)
-0.00125704	5.68182
0.0194841	9.09091
0.0344429	11.9318
0.0374598	18.1818
0.0402253	30.6818
0.0422365	44.3182
0.0766794	53.4091
0.141166	61.9318
0.273909	61.9318
0.51526	71.0227
1.13385	75
2.28241	83.5227
4.80541	79.5455
