Adsorption isotherm of N-propane on 100Lisod-ZMOF
DOI: 10.1016/j.micromeso.2014.07.028
Adsorbate N-propane: InChIKey ATUOYWHBWRKTHZ-UHFFFAOYSA-N
Temperature: 303 K
Tabular data in the source: 0
pressure (bar)	uptake (molecules/unitcell)
-0.00281539	0.565637
-0.00115175	5.11377
0.0207315	7.95219
0.0223951	12.5003
0.131811	14.7577
0.266054	18.7198
0.53518	23.8028
1.09775	26.0116
2.33895	15.0751
4.83914	14.2228
