Adsorption isotherm of Ethane on Zeolite 5A
DOI: 10.1007/978-1-4613-1375-5_17
Adsorbate Ethane: InChIKey OTMSDBZUPAUEDD-UHFFFAOYSA-N
Temperature: 293 K
Tabular data in the source: 0
pressure (bar)	uptake (mmol/g)
0.260929	1.61593
0.570676	2.03747
0.884729	2.35363
2.70674	2.77518
5.43683	2.97892
11.0668	3.23185
24.5471	3.41452
29.9413	3.4356
