Adsorption isotherm of Ethane on Zeolite 5A
DOI: 10.1007/978-1-4613-1375-5_17
Adsorbate Ethane: InChIKey OTMSDBZUPAUEDD-UHFFFAOYSA-N
Temperature: 293 K
Tabular data in the source: 0
pressure (bar)	uptake (mmol/g)
2.93455	1.20141
6.31735	0.435597
9.87493	0.393443
15.2297	0.379391
19.7262	0.36534
24.4276	0.337237
29.2502	0.344262
