Adsorption isotherm of Ethane on Zeolite 5A
DOI: 10.1007/978-1-4613-1375-5_17
Adsorbate Ethane: InChIKey OTMSDBZUPAUEDD-UHFFFAOYSA-N
Temperature: 293 K
Tabular data in the source: 0
pressure (bar)	uptake (mmol/g)
3.42022	2.3185
7.85076	1.91803
10.9294	1.59485
14.4601	1.20843
18.2367	0.807963
21.9615	0.674473
26.1739	0.611241
