Adsorption isotherm of Ethane on Zeolite 5A
DOI: 10.1007/978-1-4613-1375-5_17
Adsorbate Ethane: InChIKey OTMSDBZUPAUEDD-UHFFFAOYSA-N
Temperature: 293 K
Tabular data in the source: 0
pressure (bar)	uptake (mmol/g)
2.50908	0.611241
4.93201	0.330211
6.6515	0.259953
8.40899	0.259953
9.47166	0.259953
11.1063	0.266979
11.8011	0.266979
