Adsorption isotherm of Ethane on Zeolite 5A
DOI: 10.1007/978-1-4613-1375-5_17
Adsorbate Ethane: InChIKey OTMSDBZUPAUEDD-UHFFFAOYSA-N
Temperature: 293 K
Tabular data in the source: 0
pressure (bar)	uptake (mmol/g)
2.98614	1.93911
6.69247	1.25761
9.53216	0.779859
13.0963	0.576112
16.6528	0.562061
19.4747	0.519906
23.1952	0.491803
