Adsorption isotherm of Ethane on Zeolite 5A
DOI: 10.1007/978-1-4613-1375-5_17
Adsorbate Ethane: InChIKey OTMSDBZUPAUEDD-UHFFFAOYSA-N
Temperature: 293 K
Tabular data in the source: 0
pressure (bar)	uptake (mmol/g)
1.62052	0.351288
3.91366	0.245902
5.26415	0.203747
6.20449	0.196721
7.18571	0.189696
8.04459	0.175644
8.5765	0.161593
