Adsorption isotherm of Nitrogen on TFP-DP-COF
DOI: 10.1021/acsmaterialslett.0c00485
Article source: Figure S8
Adsorbate Nitrogen: InChIKey IJGRMHOSHXDMSA-UHFFFAOYSA-N
Kind: experiment
Temperature: 77 K
Tabular data in the source: 0
pressure (bar)	uptake (cm3(STP)/g)
0.000979	19.9073
0.000824	38.655
0.000687	55.2803
0.001766	69.0762
0.003451	81.4574
0.005163	90.655
0.008683	97.3772
0.013389	104.807
0.019264	115.068
0.027522	125.329
0.039396	130.639
0.051282	134.534
0.086975	141.976
0.117933	145.524
0.152475	148.013
0.18583	149.97
0.217993	151.928
0.255523	153.356
0.28828	155.49
0.323595	156.672
0.358346	157.913
0.394754	158.909
0.42785	160.149
0.461773	161.39
0.498179	162.631
0.532104	163.626
0.565198	165.112
0.601606	166.107
0.636771	167.348
0.669455	168.343
0.703382	169.092
0.738133	170.333
0.772882	171.819
0.807623	174.288
0.841538	176.511
0.875445	179.717
0.908513	184.396
0.944856	193.253
0.978642	211.197
1.00149	250.263
0.968625	221.511
0.933195	202.215
0.906775	194.467
0.869569	189.787
0.834834	186.581
0.801753	183.621
0.765344	182.625
0.732251	181.139
0.697088	179.653
0.659428	179.885
0.627572	178.891
0.594886	178.142
0.560953	178.129
0.527025	177.38
0.491455	175.157
0.456714	172.688
0.420306	171.692
0.388038	170.452
0.353283	169.702
0.320179	169.445
0.283771	168.449
0.250255	167.945
0.217572	166.828
0.182824	165.219
0.147252	163.241
0.112509	161.018
0.079022	157.075
0.045147	149.939
0.007738	119.711
