Adsorption isotherm of Nitrogen on TFP-DB-COF
DOI: 10.1021/acsmaterialslett.0c00485
Article source: Figure S8
Adsorbate Nitrogen: InChIKey IJGRMHOSHXDMSA-UHFFFAOYSA-N
Kind: experiment
Temperature: 77 K
Tabular data in the source: 0
pressure (bar)	uptake (cm3(STP)/g)
0.001155	14.572
0.00021	28.8191
0.000916	43.5582
0.00072	67.3858
0.003124	76.9669
0.007183	86.5486
0.011273	92.4455
0.012052	98.3413
0.020233	109.89
0.03091	119.965
0.03832	124.635
0.052358	128.57
0.089541	135.953
0.117651	139.648
0.149907	142.362
0.187132	144.586
0.221881	146.073
0.255387	147.804
0.289718	149.782
0.325706	151.514
0.358382	153.492
0.394786	154.979
0.429539	155.974
0.462631	157.705
0.498205	159.438
0.532958	160.433
0.568538	161.551
0.601633	162.914
0.638041	163.91
0.671127	166.378
0.703802	168.355
0.736486	169.35
0.772466	172.065
0.806793	174.534
0.843184	177.74
0.875425	182.174
0.910969	187.591
0.943171	196.937
0.97694	216.847
0.99855	256.035
1.00292	277.776
0.978379	243.131
0.940566	211.675
0.901784	197.413
0.873693	191.508
0.83566	186.827
0.802578	183.867
0.765346	182.379
0.731426	180.77
0.698334	179.162
0.662753	178.166
0.627175	176.802
0.593662	176.053
0.561809	174.691
0.52623	173.45
0.491481	171.963
0.455913	169.494
0.418675	168.743
0.388472	167.996
0.352479	166.754
0.320211	165.514
0.283807	164.027
0.249882	163.032
0.217618	161.301
0.182867	160.06
0.148122	158.083
0.110074	155.121
0.079486	150.934
0.044788	143.306
0.008606	114.798
