Adsorption isotherm of Nitrogen on PC-500
DOI: 10.1016/j.electacta.2015.07.130
Article source: Figure 4a- PC 500
Adsorbate Nitrogen: InChIKey IJGRMHOSHXDMSA-UHFFFAOYSA-N
Kind: experiment
Temperature: 77 K
Tabular data in the source: 0
pressure (bar)	uptake (cm3(STP)/g)
0.005928	59.86
0.01298	66.33
0.025493	71.38
0.03899	74.92
0.05046	75.67
0.067847	80.3
0.091689	82.35
0.096938	81.8
0.120617	84.12
0.155108	87.32
0.178119	90.73
0.202559	92.29
0.22864	94.68
0.253677	95.56
0.280518	98.08
0.304502	99.58
0.354648	102.58
0.403973	105.85
0.41904	108.23
0.454199	108.3
0.458171	112.32
0.476542	116.34
0.504578	111.22
0.548351	123.9
0.554653	113.81
0.599702	126.56
0.605326	116.33
0.652026	129.96
0.6554	119.12
0.705323	122.03
0.70585	121.78
0.755844	124.98
0.75787	134.05
0.805544	127.7
0.812515	136.09
0.853369	129.54
0.865589	141.81
0.900151	136.08
0.913941	150.74
0.937185	158.23
0.950297	146.37
0.953519	164.23
0.980431	164.44
0.984707	180.66
0.998426	182.36
1.01049	203.43
