Adsorption isotherm of Nitrogen on AC
DOI: 10.1016/j.electacta.2015.07.130
Article source: Figure 4a- AC
Adsorbate Nitrogen: InChIKey IJGRMHOSHXDMSA-UHFFFAOYSA-N
Kind: experiment
Temperature: 77 K
Tabular data in the source: 0
pressure (bar)	uptake (cm3(STP)/g)
0.003445	4.91
0.003597	11.45
0.003678	22.22
0.004053	27
0.004124	70.98
0.004134	70.29
0.004205	36.34
0.004428	44.38
0.004428	44.92
0.004651	79.15
0.004661	84.41
0.004732	87.33
0.004732	85.26
0.004803	99.19
0.004813	167.23
0.004884	140.44
0.004955	105.39
0.004965	190.54
0.005036	172.48
0.005259	177.48
0.005259	177.89
0.005269	181.68
0.00534	206.31
0.00534	205.54
0.005634	149.84
0.006546	211.4
0.007822	228.24
0.010892	237.99
0.013963	245.9
0.01682	254.01
0.020417	260.21
0.026709	266.48
0.030083	272.55
0.035261	276.5
0.039233	280.11
0.042303	284.07
0.045677	288.7
0.056468	294.7
0.062467	301.45
0.069286	304.58
0.074758	307.92
0.084049	314.06
0.092895	318.08
0.099197	319.57
0.111265	325.64
0.115237	326.05
0.127447	332.25
0.133293	335.38
0.143344	336.47
0.15833	343.76
0.18127	350.78
0.207797	358.41
0.230889	363.72
0.24857	366.72
0.255096	369.24
0.280133	373.67
0.302617	376.73
0.30434	376.94
0.355833	383.47
0.360028	383.95
0.409941	389.93
0.421107	391.3
0.45881	392.24
0.468557	399.26
0.502136	406.62
0.506635	397.41
0.5498	408.72
0.557966	399.45
0.599722	411.17
0.607139	401.83
0.649716	412.25
0.656829	405.5
0.699031	414.15
0.707046	407.19
0.750595	416.11
0.758093	409.09
0.799687	418.22
0.806881	411.94
0.852528	418.89
0.857402	415.55
0.899817	421.67
0.907538	417.17
0.925006	422.08
0.951016	423.71
0.967948	423.09
0.978972	425.61
1.00475	432.29
