Adsorption isotherm of Nitrogen on PC-1000
DOI: 10.1016/j.electacta.2015.07.130
Article source: Figure 4a- PC 1000
Adsorbate Nitrogen: InChIKey IJGRMHOSHXDMSA-UHFFFAOYSA-N
Kind: experiment
Temperature: 77 K
Tabular data in the source: 0
pressure (bar)	uptake (cm3(STP)/g)
0.000922	243.04
0.002472	14.66
0.002493	15.44
0.002574	200.97
0.002716	208.47
0.002776	6.95
0.002857	119.52
0.002857	116.4
0.002857	114.73
0.002928	22.56
0.002928	59.97
0.002928	77.24
0.002938	108.16
0.002938	115.68
0.003009	61.56
0.003009	59.59
0.003009	172.54
0.003019	169.75
0.00308	92.85
0.00309	146.09
0.003151	30.61
0.003161	56.13
0.003161	62.39
0.003232	52.36
0.003242	185.7
0.003303	45.61
0.003323	259.6
0.003475	218.08
0.003536	106.62
0.003617	175.68
0.003698	225.86
0.004002	233.76
0.004904	266.96
0.005431	278.08
0.005573	285.51
0.007528	295.12
0.011571	306.16
0.013902	315.09
0.01832	322.32
0.021319	329.41
0.025149	334.11
0.030914	339.29
0.036609	345.77
0.045383	353.13
0.052952	357.9
0.059995	361.1
0.067422	366.28
0.080087	373.5
0.089227	377.05
0.096502	381.14
0.11014	384.95
0.121833	386.45
0.128429	392.79
0.136677	393.26
0.154288	399.94
0.174451	405.18
0.180004	408.18
0.203005	413.77
0.205558	414.72
0.2195	417.92
0.230362	421.26
0.255704	426.37
0.27991	432.02
0.302171	436.38
0.305171	437.27
0.357485	447.69
0.406577	455.86
0.412129	460.49
0.434765	468.12
0.458293	465.26
0.468861	485.71
0.476957	493.07
0.48633	503.15
0.499451	516.58
0.507537	472.75
0.546821	522.03
0.558351	480.64
0.599358	528.83
0.608649	488.06
0.651003	534.21
0.659312	495.21
0.703013	540.47
0.708029	502.56
0.750757	546.8
0.756746	509.78
0.797002	554.77
0.802849	520.2
0.849397	535.99
0.850664	534.37
0.899462	556.45
0.904113	586.79
0.932666	605.94
0.954481	621.61
0.956802	603.82
0.970673	631.7
1.00545	656.71
