Adsorption isotherm of Nitrogen on PC-900
DOI: 10.1016/j.electacta.2015.07.130
Article source: Figure 4a- PC 900
Adsorbate Nitrogen: InChIKey IJGRMHOSHXDMSA-UHFFFAOYSA-N
Kind: experiment
Temperature: 77 K
Tabular data in the source: 0
pressure (bar)	uptake (cm3(STP)/g)
0.007903	316.46
0.01225	329.07
0.017276	339.84
0.02447	348.77
0.032039	356.47
0.038108	361.65
0.04359	366.76
0.05505	375.55
0.064352	380.39
0.072143	383.8
0.087504	389.73
0.094627	395.45
0.113291	400.9
0.129483	408.6
0.150245	414.39
0.154288	417.05
0.174674	422.84
0.179852	425.84
0.205933	431.22
0.230221	437.28
0.251205	441.23
0.254802	442.6
0.279464	448.18
0.303296	452.47
0.35711	464.12
0.405604	473.38
0.408228	474.09
0.427946	480.81
0.45657	480.05
0.466916	498.66
0.475913	505.07
0.485357	516.72
0.50087	532.19
0.506635	489.31
0.548918	539.27
0.558726	496.94
0.601161	544.58
0.608345	505.31
0.653769	551.52
0.658643	512.19
0.70354	557.92
0.707887	519.13
0.751588	565.21
0.755773	527.51
0.799475	574.54
0.803598	538
0.849772	584.96
0.851272	552.3
0.900587	573.77
0.90389	605.47
0.93447	627.14
0.955606	644.11
0.956052	643.11
0.969853	656.24
1.00575	688.41
