Adsorption isotherm of Nitrogen on PC-850
DOI: 10.1016/j.electacta.2015.07.130
Article source: Figure 4a- PC 850
Adsorbate Nitrogen: InChIKey IJGRMHOSHXDMSA-UHFFFAOYSA-N
Kind: experiment
Temperature: 77 K
Tabular data in the source: 0
pressure (bar)	uptake (cm3(STP)/g)
0.002401	6.34
0.002624	24.34
0.002624	41.45
0.002705	31.15
0.002999	17.32
0.003232	47.86
0.003526	54.2
0.003901	62.45
0.004053	90.74
0.004205	70.29
0.004205	70.1
0.004286	85.15
0.004357	83.51
0.004955	112.6
0.005036	112.76
0.007356	118.82
0.011632	128.78
0.023254	135.73
0.035393	141.05
0.045444	144.39
0.062457	149.09
0.075122	151.54
0.09409	155.02
0.103615	155.5
0.118378	158.84
0.124903	159.11
0.156233	163.54
0.17895	165.38
0.195517	168.51
0.203461	169.4
0.228346	171.71
0.253312	173.82
0.2791	175.39
0.302486	177.68
0.304512	177.84
0.355712	182.82
0.402564	187.45
0.404662	187.24
0.423103	190.79
0.455405	188.81
0.459985	198.35
0.472874	202.37
0.48405	208.64
0.500768	195.16
0.505784	192.83
0.551208	219.96
0.556386	195.21
0.601516	222.2
0.606309	198.89
0.653536	225.34
0.656829	202.29
0.704361	227.79
0.70736	204.74
0.753838	231.26
0.755631	209.04
0.802484	235.55
0.803609	214.01
0.851282	220.14
0.853086	241.14
0.900009	229.82
0.906079	233.48
0.925573	258.11
0.953235	252.04
0.964401	285.99
0.979326	282.1
0.985244	311.21
1.00227	312.71
1.00279	313.42
