Adsorption isotherm of Nitrogen on PC-700
DOI: 10.1016/j.electacta.2015.07.130
Article source: Figure 4a- PC 700
Adsorbate Nitrogen: InChIKey IJGRMHOSHXDMSA-UHFFFAOYSA-N
Kind: experiment
Temperature: 77 K
Tabular data in the source: 0
pressure (bar)	uptake (cm3(STP)/g)
0.015523	71.44
0.032394	75.94
0.04663	79.15
0.068151	82.42
0.094759	85.62
0.114325	86.16
0.122867	88.55
0.149404	89.36
0.154429	91.41
0.179396	93.66
0.201505	94
0.204656	95.36
0.230818	96.99
0.25158	97.47
0.257801	99.04
0.282535	100.4
0.301959	101.15
0.308849	102.24
0.355256	104.42
0.404722	107.96
0.415899	108.5
0.454199	109.25
0.455405	109.47
0.473097	116.95
0.48868	123.09
0.502106	113
0.504203	113.07
0.549627	133.31
0.554795	115.11
0.600452	135.83
0.60645	118.38
0.652847	138.07
0.655623	120.55
0.705323	123.48
0.706225	122.73
0.755925	126
0.7563	126.33
0.804946	128.86
0.807651	146.86
0.852326	133.08
0.860644	152.31
0.899695	139.35
0.907426	151.54
0.920538	165.12
0.950976	154.48
0.955252	178.28
0.97811	174.18
0.980137	191.77
0.996329	193
1.01073	215.84
