Adsorption isotherm of P-Xylene on MIL-101(Cr) monolith - Run 1
DOI: 10.1016/j.micromeso.2015.05.014
Article source: Figure 7
Adsorbate P-Xylene: InChIKey URLKBWYHVLBVBO-UHFFFAOYSA-N
Kind: experiment
Temperature: 298 K
Tabular data in the source: 0
pressure (bar)	uptake (mmol/g)
0.011891	0.034629
0.416171	0.294711
0.814507	0.479786
1.2069	0.636008
1.61712	0.780712
2.01546	0.913864
2.41379	1.04702
2.81213	1.1744
3.21046	1.29024
3.61474	1.41186
4.01308	1.51617
4.41141	1.63201
