Adsorption isotherm of P-Xylene on MIL-101(Cr) powder - Run 2
DOI: 10.1016/j.micromeso.2015.05.014
Article source: Figure 7
Adsorbate P-Xylene: InChIKey URLKBWYHVLBVBO-UHFFFAOYSA-N
Kind: experiment
Temperature: 298 K
Tabular data in the source: 0
pressure (bar)	uptake (mmol/g)
0.017836	0.167328
0.416171	0.60048
0.814507	0.854786
1.21879	1.05141
1.61712	1.20764
2.01546	1.34656
2.40785	1.46816
2.81213	1.57824
3.21641	1.68833
3.61474	1.78109
4.01308	1.86809
4.41141	1.95509
