Adsorption isotherm of P-Xylene on MIL-101(Cr) powder - Run 1
DOI: 10.1016/j.micromeso.2015.05.014
Article source: Figure 7
Adsorbate P-Xylene: InChIKey URLKBWYHVLBVBO-UHFFFAOYSA-N
Kind: experiment
Temperature: 298 K
Tabular data in the source: 0
pressure (bar)	uptake (mmol/g)
0.011891	0.271168
0.422117	0.692795
0.820452	0.947101
1.21879	1.14371
1.61118	1.29994
2.0214	1.4331
2.41379	1.55471
2.81213	1.66478
3.21641	1.76333
3.61474	1.86186
4.00713	1.96039
4.41141	2.03586
