Adsorption isotherm of P-Xylene on MIL-101(Cr) powder - Run 1
DOI: 10.1016/j.micromeso.2015.05.014
Article source: Figure 7
Adsorbate P-Xylene: InChIKey URLKBWYHVLBVBO-UHFFFAOYSA-N
Kind: experiment
Temperature: 293 K
Tabular data in the source: 0
pressure (bar)	uptake (mmol/g)
0.011891	0.513475
0.416171	0.969711
0.814507	1.23556
1.21284	1.4264
1.61118	1.59417
2.01546	1.73309
2.41974	1.86048
2.81213	1.97632
3.22235	2.08641
3.62069	2.19072
4.01902	2.28925
4.42331	2.38203
