Adsorption isotherm of P-Xylene on MIL-101(Cr) powder - Run 2
DOI: 10.1016/j.micromeso.2015.05.014
Article source: Figure 7
Adsorbate P-Xylene: InChIKey URLKBWYHVLBVBO-UHFFFAOYSA-N
Kind: experiment
Temperature: 293 K
Tabular data in the source: 0
pressure (bar)	uptake (mmol/g)
0.017836	0.403867
0.416171	0.888942
0.814507	1.15479
1.21879	1.35141
1.61712	1.51917
2.01546	1.66386
2.41379	1.78548
2.81807	1.90133
3.21046	2.00563
3.62069	2.10418
4.01308	2.1854
4.41736	2.2724
