Adsorption isotherm of di-PEG-lysozyme-5kDa, Water on Toyopearl PPG-600M
DOI: 10.1002/btpr.2474
Article source: Figure 4
Adsorbate di-PEG-lysozyme-5kDa: InChIKey NIST-ISODB-6FF7D40AFE90F925B5E0
Adsorbate Water: InChIKey XLYOFNOQVPJJNP-UHFFFAOYSA-N
Kind: experiment
Temperature: 298 K
Tabular data in the source: 0
pressure (bar)	di-PEG-lysozyme-5kDa fraction	di-PEG-lysozyme-5kDa uptake (mmol adsorbed)	Water fraction	Water uptake (mmol adsorbed)	total uptake (mmol adsorbed)
1.01325	-0.0002	0.06345			
1.01325	-6.8e-05	0.2221			
1.01325	-1.4e-05	0.02568			
1.01325	-9e-06	0.16468			
1.01325	0.000111	0.09821			
1.01325	0.000479	0.12994			
1.01325	0.00128	0.24477			
1.01325	0.003486	0.3158			
1.01325	0.006304	0.37626			
1.01325	0.008388	0.44426			
1.01325	0.017878	0.48211			
1.01325	0.027918	0.51695			
1.01325	0.032694	0.55778			
1.01325	0.048919	0.6244			
1.01325	0.068263	0.64118			
1.01325	0.088281	0.66703			
