Adsorption isotherm of di-PEG-lysozyme-5kDa on Toyopearl PPG-600M
DOI: 10.1002/btpr.2474
Article source: Figure 3
Adsorbate di-PEG-lysozyme-5kDa: InChIKey NIST-ISODB-6FF7D40AFE90F925B5E0
Kind: experiment
Temperature: 298 K
Tabular data in the source: 0
pressure (bar)	uptake (mmol adsorbed)
1.01325	0.01787
1.01325	0.02149
1.01325	0.02611
1.01325	0.02244
1.01325	0.02871
1.01325	0.03729
1.01325	0.04983
1.01325	0.06337
1.01325	0.06266
1.01325	0.06858
1.01325	0.07053
1.01325	0.07909
1.01325	0.09263
1.01325	0.09457
1.01325	0.09519
1.01325	0.11569
1.01325	0.11862
1.01325	0.13614
