Adsorption isotherm of di-PEG-lysozyme-5kDa on Toyopearl PPG-600M
DOI: 10.1002/btpr.2474
Article source: Figure 3
Adsorbate di-PEG-lysozyme-5kDa: InChIKey NIST-ISODB-6FF7D40AFE90F925B5E0
Kind: experiment
Temperature: 298 K
Tabular data in the source: 0
pressure (bar)	uptake (mmol adsorbed)
1.01325	0.02515
1.01325	0.04434
1.01325	0.06717
1.01325	0.08105
1.01325	0.10389
1.01325	0.11545
1.01325	0.13
1.01325	0.14521
1.01325	0.15015
1.01325	0.16801
1.01325	0.17356
1.01325	0.198
1.01325	0.21747
1.01325	0.25714
1.01325	0.27429
1.01325	0.28979
