Adsorption isotherm of di-PEG-lysozyme-5kDa, Water on Toyopearl PPG-600M
DOI: 10.1002/btpr.2474
Article source: Figure 4
Adsorbate di-PEG-lysozyme-5kDa: InChIKey NIST-ISODB-6FF7D40AFE90F925B5E0
Adsorbate Water: InChIKey XLYOFNOQVPJJNP-UHFFFAOYSA-N
Kind: experiment
Temperature: 298 K
Tabular data in the source: 0
pressure (bar)	di-PEG-lysozyme-5kDa fraction	di-PEG-lysozyme-5kDa uptake (mmol adsorbed)	Water fraction	Water uptake (mmol adsorbed)	total uptake (mmol adsorbed)
1.01325	0.000184	0.01437			
1.01325	0.000415	0.04538			
1.01325	0.001289	0.10777			
1.01325	0.002213	0.18008			
1.01325	0.004066	0.23153			
1.01325	0.006747	0.27392			
1.01325	0.010835	0.31678			
1.01325	0.015194	0.37584			
1.01325	0.023157	0.38534			
1.01325	0.027401	0.45917			
1.01325	0.037599	0.47485			
1.01325	0.045235	0.51103			
1.01325	0.055184	0.55006			
1.01325	0.068813	0.55286			
1.01325	0.078704	0.59046			
