Adsorption isotherm of di-PEG-lysozyme-5kDa on Toyopearl PPG-600M
DOI: 10.1002/btpr.2474
Article source: Figure 3
Adsorbate di-PEG-lysozyme-5kDa: InChIKey NIST-ISODB-6FF7D40AFE90F925B5E0
Kind: experiment
Temperature: 298 K
Tabular data in the source: 0
pressure (bar)	uptake (mmol adsorbed)
1.01325	0.00961
1.01325	0.01422
1.01325	0.02348
1.01325	0.02844
1.01325	0.03638
1.01325	0.0297
1.01325	0.04657
1.01325	0.05415
1.01325	0.06504
1.01325	0.09337
1.01325	0.11467
1.01325	0.12528
1.01325	0.15072
1.01325	0.18921
1.01325	0.18573
