Adsorption isotherm of di-PEG-lysozyme-5kDa, Water on Toyopearl PPG-600M
DOI: 10.1002/btpr.2474
Article source: Figure 4
Adsorbate di-PEG-lysozyme-5kDa: InChIKey NIST-ISODB-6FF7D40AFE90F925B5E0
Adsorbate Water: InChIKey XLYOFNOQVPJJNP-UHFFFAOYSA-N
Kind: experiment
Temperature: 298 K
Tabular data in the source: 0
pressure (bar)	di-PEG-lysozyme-5kDa fraction	di-PEG-lysozyme-5kDa uptake (mmol adsorbed)	Water fraction	Water uptake (mmol adsorbed)	total uptake (mmol adsorbed)
1.01325	0.000169	0.00756			
1.01325	0.000237	0.19339			
1.01325	0.000302	0.28404			
1.01325	0.001285	0.3883			
1.01325	0.003921	0.48502			
1.01325	0.010291	0.59536			
1.01325	0.020333	0.66344			
1.01325	0.036254	0.80559			
1.01325	0.062092	0.94028			
