Adsorption isotherm of di-PEG-lysozyme-5kDa, Water on Toyopearl PPG-600M
DOI: 10.1002/btpr.2474
Article source: Figure 4
Adsorbate di-PEG-lysozyme-5kDa: InChIKey NIST-ISODB-6FF7D40AFE90F925B5E0
Adsorbate Water: InChIKey XLYOFNOQVPJJNP-UHFFFAOYSA-N
Kind: experiment
Temperature: 298 K
Tabular data in the source: 0
pressure (bar)	di-PEG-lysozyme-5kDa fraction	di-PEG-lysozyme-5kDa uptake (mmol adsorbed)	Water fraction	Water uptake (mmol adsorbed)	total uptake (mmol adsorbed)
1.01325	0.000199	0.0068			
1.01325	0.000465	0.16582			
1.01325	0.000962	0.34184			
1.01325	0.002358	0.42042			
1.01325	0.009984	0.55872			
1.01325	0.024354	0.64385			
1.01325	0.039311	0.71497			
1.01325	0.055107	0.78158			
1.01325	0.068945	0.8663			
