Adsorption isotherm of di-PEG-lysozyme-5kDa, Water on Toyopearl PPG-600M
DOI: 10.1002/btpr.2474
Article source: Figure 4
Adsorbate di-PEG-lysozyme-5kDa: InChIKey NIST-ISODB-6FF7D40AFE90F925B5E0
Adsorbate Water: InChIKey XLYOFNOQVPJJNP-UHFFFAOYSA-N
Kind: experiment
Temperature: 298 K
Tabular data in the source: 0
pressure (bar)	di-PEG-lysozyme-5kDa fraction	di-PEG-lysozyme-5kDa uptake (mmol adsorbed)	Water fraction	Water uptake (mmol adsorbed)	total uptake (mmol adsorbed)
1.01325	0.000138	0.01097			
1.01325	0.000508	0.07147			
1.01325	0.001122	0.1229			
1.01325	0.002164	0.16676			
1.01325	0.006023	0.24691			
1.01325	0.010432	0.3195			
1.01325	0.016064	0.34519			
1.01325	0.022125	0.3966			
1.01325	0.029042	0.43287			
1.01325	0.03755	0.44494			
1.01325	0.043795	0.49332			
1.01325	0.053098	0.4963			
1.01325	0.069441	0.54464			
1.01325	0.085478	0.58693			
