Adsorption isotherm of di-PEG-lysozyme-5kDa on Toyopearl PPG-600M
DOI: 10.1002/btpr.2474
Article source: Figure 3
Adsorbate di-PEG-lysozyme-5kDa: InChIKey NIST-ISODB-6FF7D40AFE90F925B5E0
Kind: experiment
Temperature: 298 K
Tabular data in the source: 0
pressure (bar)	uptake (mmol adsorbed)
1.01325	0.02259
1.01325	0.04734
1.01325	0.06418
1.01325	0.08155
1.01325	0.09415
1.01325	0.12573
1.01325	0.16404
1.01325	0.19548
1.01325	0.21477
1.01325	0.32518
1.01325	0.30735
1.01325	0.38909
