Adsorption isotherm of di-PEG-lysozyme-5kDa, Water on Toyopearl PPG-600M
DOI: 10.1002/btpr.2474
Article source: Figure 4
Adsorbate di-PEG-lysozyme-5kDa: InChIKey NIST-ISODB-6FF7D40AFE90F925B5E0
Adsorbate Water: InChIKey XLYOFNOQVPJJNP-UHFFFAOYSA-N
Kind: experiment
Temperature: 298 K
Tabular data in the source: 0
pressure (bar)	di-PEG-lysozyme-5kDa fraction	di-PEG-lysozyme-5kDa uptake (mmol adsorbed)	Water fraction	Water uptake (mmol adsorbed)	total uptake (mmol adsorbed)
1.01325	0.000138	0.00416			
1.01325	0.000477	0.06013			
1.01325	0.001488	0.10928			
1.01325	0.002959	0.16071			
1.01325	0.005226	0.20683			
1.01325	0.010092	0.2295			
1.01325	0.013673	0.25445			
1.01325	0.01646	0.31267			
1.01325	0.029956	0.30883			
1.01325	0.036539	0.41393			
1.01325	0.06145	0.43727			
1.01325	0.087679	0.52338			
