Adsorption isotherm of di-PEG-lysozyme-5kDa, Water on Toyopearl PPG-600M
DOI: 10.1002/btpr.2474
Article source: Figure 2
Adsorbate di-PEG-lysozyme-5kDa: InChIKey NIST-ISODB-6FF7D40AFE90F925B5E0
Adsorbate Water: InChIKey XLYOFNOQVPJJNP-UHFFFAOYSA-N
Kind: experiment
Temperature: 298 K
Tabular data in the source: 0
pressure (bar)	di-PEG-lysozyme-5kDa fraction	di-PEG-lysozyme-5kDa uptake (mmol adsorbed)	Water fraction	Water uptake (mmol adsorbed)	total uptake (mmol adsorbed)
1.01325	-5.2e-05	0.0298			
1.01325	-2.2e-05	0.22399			
1.01325	5.4e-05	0.09517			
1.01325	0.000133	0.1426			
1.01325	0.000135	0.27463			
1.01325	0.000184	0.06826			
1.01325	0.000211	0.18362			
1.01325	0.000384	0.41956			
1.01325	0.000385	0.46478			
1.01325	0.000449	0.36564			
1.01325	0.002225	0.55846			
1.01325	0.002883	0.64245			
1.01325	0.004985	0.70707			
1.01325	0.011685	0.7782			
1.01325	0.017071	0.87515			
1.01325	0.022326	0.95273			
1.01325	0.03454	0.97224			
1.01325	0.042422	1.03046			
1.01325	0.053193	1.12424			
