Adsorption isotherm of di-PEG-lysozyme-5kDa, Water on Toyopearl PPG-600M
DOI: 10.1002/btpr.2474
Article source: Figure 4
Adsorbate di-PEG-lysozyme-5kDa: InChIKey NIST-ISODB-6FF7D40AFE90F925B5E0
Adsorbate Water: InChIKey XLYOFNOQVPJJNP-UHFFFAOYSA-N
Kind: experiment
Temperature: 298 K
Tabular data in the source: 0
pressure (bar)	di-PEG-lysozyme-5kDa fraction	di-PEG-lysozyme-5kDa uptake (mmol adsorbed)	Water fraction	Water uptake (mmol adsorbed)	total uptake (mmol adsorbed)
1.01325	0.000164	0.00541			
1.01325	0.000214	0.02642			
1.01325	0.00024	0.06904			
1.01325	0.000314	0.10986			
1.01325	0.000436	0.13387			
1.01325	0.00085	0.15788			
1.01325	0.001728	0.23772			
1.01325	0.003649	0.30614			
1.01325	0.006687	0.36016			
1.01325	0.013466	0.42016			
1.01325	0.023138	0.54378			
1.01325	0.037341	0.56671			
1.01325	0.057968	0.61805			
1.01325	0.076455	0.69436			
