Adsorption isotherm of di-PEG-lysozyme-5kDa, Water on Toyopearl PPG-600M
DOI: 10.1002/btpr.2474
Article source: Figure 2
Adsorbate di-PEG-lysozyme-5kDa: InChIKey NIST-ISODB-6FF7D40AFE90F925B5E0
Adsorbate Water: InChIKey XLYOFNOQVPJJNP-UHFFFAOYSA-N
Kind: experiment
Temperature: 298 K
Tabular data in the source: 0
pressure (bar)	di-PEG-lysozyme-5kDa fraction	di-PEG-lysozyme-5kDa uptake (mmol adsorbed)	Water fraction	Water uptake (mmol adsorbed)	total uptake (mmol adsorbed)
1.01325	6.9e-05	0.18789			
1.01325	0.000191	0.06123			
1.01325	0.000234	0.14109			
1.01325	0.000275	0.10396			
1.01325	0.000588	0.3054			
1.01325	0.001209	0.33847			
1.01325	0.002845	0.41937			
1.01325	0.010024	0.56137			
1.01325	0.024484	0.6419			
1.01325	0.039543	0.7092			
1.01325	0.055057	0.7755			
1.01325	0.068876	0.86415			
