Adsorption isotherm of di-PEG-lysozyme-5kDa, Water on Toyopearl PPG-600M
DOI: 10.1002/btpr.2474
Article source: Figure 4
Adsorbate di-PEG-lysozyme-5kDa: InChIKey NIST-ISODB-6FF7D40AFE90F925B5E0
Adsorbate Water: InChIKey XLYOFNOQVPJJNP-UHFFFAOYSA-N
Kind: experiment
Temperature: 298 K
Tabular data in the source: 0
pressure (bar)	di-PEG-lysozyme-5kDa fraction	di-PEG-lysozyme-5kDa uptake (mmol adsorbed)	Water fraction	Water uptake (mmol adsorbed)	total uptake (mmol adsorbed)
1.01325	0.000857	0.01904			
1.01325	0.001476	0.05811			
1.01325	0.002672	0.08621			
1.01325	0.003502	0.11051			
1.01325	0.00383	0.12337			
1.01325	0.005546	0.14099			
1.01325	0.007417	0.16195			
1.01325	0.012199	0.19623			
1.01325	0.016847	0.22957			
1.01325	0.021906	0.26122			
1.01325	0.040544	0.31333			
1.01325	0.056335	0.31628			
1.01325	0.065793	0.38507			
1.01325	0.078035	0.41905			
