Adsorption isotherm of di-PEG-lysozyme-5kDa, Water on Toyopearl PPG-600M
DOI: 10.1002/btpr.2474
Article source: Figure 2
Adsorbate di-PEG-lysozyme-5kDa: InChIKey NIST-ISODB-6FF7D40AFE90F925B5E0
Adsorbate Water: InChIKey XLYOFNOQVPJJNP-UHFFFAOYSA-N
Kind: experiment
Temperature: 298 K
Tabular data in the source: 0
pressure (bar)	di-PEG-lysozyme-5kDa fraction	di-PEG-lysozyme-5kDa uptake (mmol adsorbed)	Water fraction	Water uptake (mmol adsorbed)	total uptake (mmol adsorbed)
1.01325	0.000526	0.05983			
1.01325	0.001101	0.10788			
1.01325	0.001561	0.14503			
1.01325	0.002514	0.17572			
1.01325	0.006258	0.24399			
1.01325	0.010117	0.30258			
1.01325	0.016504	0.34908			
1.01325	0.022153	0.39758			
1.01325	0.029182	0.42939			
1.01325	0.037521	0.44647			
1.01325	0.043803	0.48883			
1.01325	0.054039	0.49012			
1.01325	0.069388	0.54064			
1.01325	0.085398	0.58913			
