Adsorption isotherm of di-PEG-lysozyme-5kDa, Water on Toyopearl PPG-600M
DOI: 10.1002/btpr.2474
Article source: Figure 4
Adsorbate di-PEG-lysozyme-5kDa: InChIKey NIST-ISODB-6FF7D40AFE90F925B5E0
Adsorbate Water: InChIKey XLYOFNOQVPJJNP-UHFFFAOYSA-N
Kind: experiment
Temperature: 298 K
Tabular data in the source: 0
pressure (bar)	di-PEG-lysozyme-5kDa fraction	di-PEG-lysozyme-5kDa uptake (mmol adsorbed)	Water fraction	Water uptake (mmol adsorbed)	total uptake (mmol adsorbed)
1.01325	0.00123	0.05269			
1.01325	0.001273	0.09647			
1.01325	0.002165	0.22973			
1.01325	0.005678	0.33445			
1.01325	0.022835	0.45496			
1.01325	0.034346	0.52153			
1.01325	0.05369	0.52925			
1.01325	0.068202	0.64722			
1.01325	0.087975	0.68063			
