Adsorption isotherm of di-PEG-lysozyme-5kDa on Toyopearl PPG-600M
DOI: 10.1002/btpr.2474
Article source: Figure 3
Adsorbate di-PEG-lysozyme-5kDa: InChIKey NIST-ISODB-6FF7D40AFE90F925B5E0
Kind: experiment
Temperature: 298 K
Tabular data in the source: 0
pressure (bar)	uptake (mmol adsorbed)
1.01325	0.10498
1.01325	0.13216
1.01325	0.04895
1.01325	0.07404
1.01325	0.15348
1.01325	0.21704
1.01325	0.01048
1.01325	0.0272
1.01325	0.09034
1.01325	0.34162
1.01325	0.41976
1.01325	0.56545
1.01325	0.64567
1.01325	0.71207
1.01325	0.78432
1.01325	0.86665
