Adsorption isotherm of di-PEG-lysozyme-5kDa on Toyopearl PPG-600M
DOI: 10.1002/btpr.2474
Article source: Figure 3
Adsorbate di-PEG-lysozyme-5kDa: InChIKey NIST-ISODB-6FF7D40AFE90F925B5E0
Kind: experiment
Temperature: 298 K
Tabular data in the source: 0
pressure (bar)	uptake (mmol adsorbed)
1.01325	0.00829
1.01325	-0.00281
1.01325	0.00713
1.01325	0.00445
1.01325	0.00965
1.01325	0.01275
1.01325	0.01051
1.01325	0.04216
1.01325	0.04525
1.01325	0.08053
1.01325	0.08115
