Adsorption isotherm of di-PEG-lysozyme-5kDa, Water on Toyopearl PPG-600M
DOI: 10.1002/btpr.2474
Article source: Figure 4
Adsorbate di-PEG-lysozyme-5kDa: InChIKey NIST-ISODB-6FF7D40AFE90F925B5E0
Adsorbate Water: InChIKey XLYOFNOQVPJJNP-UHFFFAOYSA-N
Kind: experiment
Temperature: 298 K
Tabular data in the source: 0
pressure (bar)	di-PEG-lysozyme-5kDa fraction	di-PEG-lysozyme-5kDa uptake (mmol adsorbed)	Water fraction	Water uptake (mmol adsorbed)	total uptake (mmol adsorbed)
1.01325	0.00023	0.00529			
1.01325	0.000604	0.19415			
1.01325	0.001495	0.27877			
1.01325	0.003243	0.36414			
1.01325	0.00695	0.46314			
1.01325	0.015921	0.53951			
1.01325	0.023882	0.63098			
1.01325	0.037689	0.70362			
1.01325	0.063035	0.79373			
