Adsorption isotherm of di-PEG-lysozyme-5kDa on Toyopearl PPG-600M
DOI: 10.1002/btpr.2474
Article source: Figure 3
Adsorbate di-PEG-lysozyme-5kDa: InChIKey NIST-ISODB-6FF7D40AFE90F925B5E0
Kind: experiment
Temperature: 298 K
Tabular data in the source: 0
pressure (bar)	uptake (mmol adsorbed)
1.01325	0.00659
1.01325	0.00625
1.01325	0.00855
1.01325	0.00587
1.01325	0.01975
1.01325	0.01575
1.01325	0.02233
1.01325	0.02725
1.01325	0.03516
1.01325	0.04143
1.01325	0.03721
1.01325	0.0263
1.01325	0.04212
1.01325	0.04333
1.01325	0.04662
1.01325	0.052
1.01325	0.07241
