Adsorption isotherm of di-PEG-lysozyme-5kDa, Water on Toyopearl PPG-600M
DOI: 10.1002/btpr.2474
Article source: Figure 2
Adsorbate di-PEG-lysozyme-5kDa: InChIKey NIST-ISODB-6FF7D40AFE90F925B5E0
Adsorbate Water: InChIKey XLYOFNOQVPJJNP-UHFFFAOYSA-N
Kind: experiment
Temperature: 298 K
Tabular data in the source: 0
pressure (bar)	di-PEG-lysozyme-5kDa fraction	di-PEG-lysozyme-5kDa uptake (mmol adsorbed)	Water fraction	Water uptake (mmol adsorbed)	total uptake (mmol adsorbed)
1.01325	0.004013	0.00773			
1.01325	0.007936	0.01611			
1.01325	0.011233	0.03313			
1.01325	0.019781	0.03899			
1.01325	0.027755	0.0567			
1.01325	0.036434	0.06544			
1.01325	0.047301	0.10081			
1.01325	0.060097	0.1112			
1.01325	0.072398	0.13312			
1.01325	0.085455	0.14864			
