Adsorption isotherm of di-PEG-lysozyme-5kDa on Toyopearl PPG-600M
DOI: 10.1002/btpr.2474
Article source: Figure 3
Adsorbate di-PEG-lysozyme-5kDa: InChIKey NIST-ISODB-6FF7D40AFE90F925B5E0
Kind: experiment
Temperature: 298 K
Tabular data in the source: 0
pressure (bar)	uptake (mmol adsorbed)
1.01325	0.03476
1.01325	0.07185
1.01325	0.10661
1.01325	0.14335
1.01325	0.15725
1.01325	0.21616
1.01325	0.27439
1.01325	0.32137
1.01325	0.37589
1.01325	0.3904
1.01325	0.40854
1.01325	0.44724
1.01325	0.45279
1.01325	0.50341
1.01325	0.51757
