Adsorption isotherm of Nitrogen on COF-QA-EO
DOI: 10.1002/adma.202001284
Article source: Figure S22
Adsorbate Nitrogen: InChIKey IJGRMHOSHXDMSA-UHFFFAOYSA-N
Kind: experiment
Temperature: 77 K
Tabular data in the source: 0
pressure (bar)	uptake (cm3(STP)/g)
0.005673	4.70356
0.013616	6.50198
0.045386	7.6087
0.093042	8.85375
0.112331	9.26877
0.15091	10.0988
0.186084	10.9289
0.223528	11.2055
0.257567	11.7589
0.292742	12.5889
0.327916	13.1423
0.359687	13.5573
0.398265	13.9723
0.432305	14.3874
0.468614	14.9407
0.504923	15.7708
0.540097	16.3241
0.575272	16.8775
0.610446	17.8458
0.645621	18.8142
0.683064	19.6443
0.717104	21.0277
0.752279	22.4111
0.788588	24.2095
0.823762	26.8379
0.858936	30.2964
0.894111	34.8617
0.928151	41.917
0.961056	53.3992
1.0019	83.5573
1.00985	96.2846
0.009077	5.81028
0.049925	8.02372
0.085099	8.85375
0.120274	9.82213
0.156583	10.3755
0.191757	10.9289
0.226932	11.6206
0.260971	12.1739
0.297281	12.5889
0.332455	13.004
0.349475	13.2806
0.385784	13.834
0.439113	14.9407
0.476557	16.0474
0.510596	18.5375
0.544636	19.6443
0.580945	20.4743
0.617254	21.7194
0.651294	23.1028
0.686468	24.9012
0.722777	26.6996
0.757952	29.3281
0.794261	32.3715
0.83057	36.5217
0.865744	42.332
0.888438	47.1739
0.927016	58.5178
0.96446	75.5336
1.00758	96.2846
