Adsorption isotherm of Nitrogen on COF-QA-2
DOI: 10.1002/adma.202001284
Article source: Figure S22
Adsorbate Nitrogen: InChIKey IJGRMHOSHXDMSA-UHFFFAOYSA-N
Kind: experiment
Temperature: 77 K
Tabular data in the source: 0
pressure (bar)	uptake (cm3(STP)/g)
0.016083	7.51138
0.053994	10.698
0.081565	11.8361
0.119476	12.7466
0.15394	13.8847
0.189554	14.7951
0.224018	15.478
0.259631	16.3885
0.295244	17.5266
0.329708	18.2094
0.365321	18.8923
0.402083	20.0303
0.437696	20.9408
0.472161	21.8513
0.507774	22.9894
0.541089	23.6722
0.579	24.5827
0.613464	26.176
0.647929	27.5417
0.68469	29.3627
0.720304	30.956
0.754768	33.4598
0.788083	36.1912
0.824845	39.6055
0.85931	44.8407
0.892625	51.6692
0.92594	63.0501
0.966149	88.3156
1.00751	148.634
0.013786	7.51138
0.052845	10.698
0.08731	11.1533
0.121774	12.9742
0.157387	13.6571
0.194149	14.7951
0.228613	15.7056
0.264226	16.6161
0.297542	17.5266
0.332006	17.9818
0.369917	18.8923
0.404381	20.0303
0.441143	20.9408
0.476756	22.5341
0.512369	25.2656
0.549131	26.6313
0.582446	28.2246
0.61806	30.0455
0.653673	31.8665
0.689286	34.1426
0.722601	37.3293
0.760512	40.7435
0.797274	45.7511
0.835185	52.1244
0.870798	61.4568
0.902964	72.8376
0.939726	96.0546
0.969595	124.734
1.00751	148.179
