Adsorption isotherm of Nitrogen on COF-QA-6
DOI: 10.1002/adma.202001284
Article source: Figure S23
Adsorbate Nitrogen: InChIKey IJGRMHOSHXDMSA-UHFFFAOYSA-N
Kind: experiment
Temperature: 77 K
Tabular data in the source: 0
pressure (bar)	uptake (cm3(STP)/g)
0.004187	0
0.092114	1.16851
0.152825	1.66052
0.187368	1.84502
0.222957	2.09102
0.258546	2.27552
0.294136	2.39852
0.348566	2.58303
0.384156	2.64453
0.419745	2.76753
0.455334	2.89053
0.491971	2.95203
0.525466	3.01353
0.561056	3.07503
0.597692	3.07503
0.632235	3.07503
0.668871	3.07503
0.703413	3.13653
0.739003	3.25953
0.809135	3.75154
0.843677	3.81304
0.880313	4.12054
0.915903	4.18204
0.970333	5.78106
1.00174	15.7442
