Adsorption isotherm of Nitrogen on COF-QA-4
DOI: 10.1002/adma.202001284
Article source: Figure S23
Adsorbate Nitrogen: InChIKey IJGRMHOSHXDMSA-UHFFFAOYSA-N
Kind: experiment
Temperature: 77 K
Tabular data in the source: 0
pressure (bar)	uptake (cm3(STP)/g)
0.012561	0.430504
0.04501	1.10701
0.09316	1.84502
0.115142	2.02952
0.151778	2.46003
0.187368	2.95203
0.22191	3.25953
0.257499	3.56704
0.293089	3.87454
0.328678	4.24354
0.383109	4.55105
0.419745	4.73555
0.455334	5.04305
0.489877	5.04305
0.526513	5.10455
0.562103	5.41205
0.596645	5.65806
0.633281	5.78106
0.667824	6.02706
0.70446	6.02706
0.737956	6.33456
0.773545	6.39606
0.810181	6.58057
0.844724	6.82657
0.880313	6.94957
0.915903	7.19557
0.97138	12.1771
1.00069	28.8438
