Adsorption isotherm of Nitrogen on COF-QA-2
DOI: 10.1002/adma.202001284
Article source: Figure S23
Adsorbate Nitrogen: InChIKey IJGRMHOSHXDMSA-UHFFFAOYSA-N
Kind: experiment
Temperature: 77 K
Tabular data in the source: 0
pressure (bar)	uptake (cm3(STP)/g)
0.092114	2.46003
0.116189	3.01353
0.151778	3.69004
0.187368	4.42804
0.222957	4.85855
0.257499	5.41205
0.294136	5.90406
0.328678	6.33456
0.384156	6.94957
0.419745	7.19557
0.455334	7.62608
0.490924	7.87208
0.526513	8.05658
0.561056	8.54858
0.597692	9.04059
0.632235	9.53259
0.666777	9.8401
0.703413	10.0861
0.739003	10.5166
0.775639	11.0086
0.809135	11.5006
0.844724	11.9926
0.880313	12.4846
0.915903	12.9151
0.970333	17.9582
1.00069	44.8955
