Adsorption isotherm of Nitrogen on COF-QA-6
DOI: 10.1002/adma.202001284
Article source: Figure S22
Adsorbate Nitrogen: InChIKey IJGRMHOSHXDMSA-UHFFFAOYSA-N
Kind: experiment
Temperature: 77 K
Tabular data in the source: 0
pressure (bar)	uptake (cm3(STP)/g)
0.014555	2.2973
0.051502	3.24324
0.081732	3.64865
0.118679	4.18919
0.152267	4.45946
0.189215	4.86486
0.222803	5.27027
0.25975	5.54054
0.295578	5.81081
0.331406	6.21622
0.363874	6.48649
0.399702	6.75676
0.436649	7.16216
0.471357	7.56757
0.506065	7.7027
0.539654	8.10811
0.576601	8.64865
0.612428	9.18919
0.648256	9.72973
0.681844	10.1351
0.717672	10.6757
0.7535	11.4865
0.789327	12.2973
0.824035	13.5135
0.858743	15
0.894571	16.8919
0.930399	19.3243
0.966226	21.8919
1.00205	24.8649
0.011196	2.2973
0.051502	3.24324
0.08621	3.64865
0.120918	4.32432
0.156746	4.59459
0.191454	5
0.226162	5.40541
0.26087	5.67568
0.300056	6.08108
0.335884	6.35135
0.349319	6.62162
0.386267	6.75676
0.441128	7.7027
0.475836	8.24324
0.511663	10.1351
0.547491	10.9459
0.581079	11.4865
0.616907	12.027
0.652735	13.1081
0.687443	13.9189
0.72439	15
0.757978	16.2162
0.793806	17.2973
0.827394	18.7838
0.865461	20.1351
0.881136	20.4054
0.915844	22.027
0.952791	23.3784
1.00653	26.0811
