Adsorption isotherm of Nitrogen on COF-QA-4
DOI: 10.1002/adma.202001284
Article source: Figure S22
Adsorbate Nitrogen: InChIKey IJGRMHOSHXDMSA-UHFFFAOYSA-N
Kind: experiment
Temperature: 77 K
Tabular data in the source: 0
pressure (bar)	uptake (cm3(STP)/g)
0.012316	8.02548
0.051502	10.0318
0.080612	10.7006
0.11644	11.8153
0.152267	12.2611
0.188095	12.9299
0.225042	13.3758
0.258631	13.8217
0.293339	14.2675
0.329166	14.7134
0.362755	15.3822
0.398582	15.6051
0.43441	15.828
0.470238	16.4968
0.503826	16.9427
0.540773	18.0573
0.576601	18.5032
0.611309	19.3949
0.646017	20.2866
0.680725	21.4013
0.717672	22.9618
0.75126	24.7452
0.788208	26.9745
0.822916	29.4268
0.857624	33.8853
0.892332	39.4586
0.92704	48.1529
0.959509	64.4268
0.998695	127.962
1.00989	163.631
0.007837	5.35032
0.049263	8.24841
0.076134	9.14013
0.104124	9.36306
0.139952	10.2548
0.17242	10.9236
0.208248	11.8153
0.242956	12.2611
0.278784	12.707
0.314611	13.3758
0.349319	13.5987
0.386267	14.2675
0.438888	15.3822
0.475836	16.2739
0.510544	18.7261
0.544132	19.8408
0.57996	20.9554
0.615787	22.293
0.651615	24.0764
0.687443	25.6369
0.722151	27.8662
0.756859	30.0955
0.775892	31.879
0.813959	35.8917
0.854265	41.9108
0.892332	51.9427
0.92704	66.6561
0.968465	107.006
1.00877	163.408
