Adsorption isotherm of Nitrogen on COF-QA-EO
DOI: 10.1002/adma.202001284
Article source: Figure S23
Adsorbate Nitrogen: InChIKey IJGRMHOSHXDMSA-UHFFFAOYSA-N
Kind: experiment
Temperature: 77 K
Tabular data in the source: 0
pressure (bar)	uptake (cm3(STP)/g)
0.009421	0.184502
0.046057	0.676507
0.078506	1.04551
0.117236	1.35301
0.152825	1.84502
0.186321	2.21402
0.220863	2.46003
0.257499	2.76753
0.293089	2.70603
0.348566	3.07503
0.385202	3.19803
0.419745	3.19803
0.455334	3.38253
0.489877	3.44403
0.526513	3.32103
0.562103	3.38253
0.596645	3.38253
0.632235	3.56704
0.666777	3.56704
0.702366	3.44403
0.737956	3.69004
0.774592	3.62854
0.809135	3.32103
0.844724	3.44403
0.880313	3.50553
0.915903	3.81304
0.969287	6.39606
1.00069	16.7282
