Adsorption isotherm of Nitric oxide on MOF-74-Ni
DOI: 10.1039/C3ce41289j
Adsorbate Nitric oxide: InChIKey MWUXSHHQAYIFBG-UHFFFAOYSA-N
Temperature: 298 K
Tabular data in the source: 0
pressure (bar)	uptake (mmol/g)
0.0019466	0.102374
0.0019466	3.14372
0.0159286	3.93027
0.0555443	4.59447
0.123124	4.83918
0.146427	5.17128
0.202355	5.31111
0.3748	5.71313
0.640458	6.09767
0.873492	6.35985
1.01098	6.51716
