Adsorption isotherm of Nitrogen on MOF-74-Ni
DOI: 10.1039/C3ce41289j
Adsorbate Nitrogen: InChIKey IJGRMHOSHXDMSA-UHFFFAOYSA-N
Temperature: 77 K
Tabular data in the source: 0
pressure (bar)	uptake (mmol/g)
0.00427693	0.576802
0.00427693	8.8968
0.0135983	9.75327
0.0229196	10.2427
0.0555443	10.4568
0.109142	10.7321
0.227989	10.8544
0.402764	11.038
0.549575	11.038
0.72202	11.1603
0.838537	11.1603
0.910777	11.405
0.952723	11.7109
0.983017	12.6286
1.00865	13.9439
