Adsorption isotherm of Nitric oxide on MOF-74-Ni
DOI: 10.1039/C3ce41289j
Adsorbate Nitric oxide: InChIKey MWUXSHHQAYIFBG-UHFFFAOYSA-N
Temperature: 298 K
Tabular data in the source: 0
pressure (bar)	uptake (mmol/g)
0.0019466	0.102374
0.0369016	5.01397
0.0532139	5.25868
0.109142	5.53834
0.137106	5.71313
0.30256	6.16758
0.365479	6.42977
0.624146	6.74439
1.01797	7.12893
