Adsorption isotherm of Nitrogen on MOF-74-Ni
DOI: 10.1039/C3ce41289j
Adsorbate Nitrogen: InChIKey IJGRMHOSHXDMSA-UHFFFAOYSA-N
Temperature: 77 K
Tabular data in the source: 0
pressure (bar)	uptake (mmol/g)
0.0112679	0.515625
0.0299106	0.60739
0.118463	0.668566
0.244301	0.729743
0.451701	0.576802
0.666092	0.637978
0.86184	0.668566
0.941071	0.821508
0.983017	1.3721
1.00166	2.28974
1.01098	3.60504
