Adsorption isotherm of Deuterium on CuBTC
DOI: 10.1021/Ja066098k
Adsorbate Deuterium: InChIKey UFHFLCQGNIYNRP-VVKOMZTBSA-N
Temperature: 77 K
Tabular data in the source: 0
pressure (bar)	uptake (mmol/g)
0.0139257	1.53181
0.0218942	2.36735
0.0521752	4.03894
0.100918	5.64156
0.198792	7.41991
0.300946	8.53716
0.399068	9.41064
0.499287	10.1102
0.599544	10.6705
0.69981	11.196
0.795987	11.6866
