Adsorption isotherm of Hydrogen on CuBTC
DOI: 10.1021/Ja066098k
Adsorbate Hydrogen: InChIKey UFHFLCQGNIYNRP-UHFFFAOYSA-N
Temperature: 77 K
Tabular data in the source: 0
pressure (bar)	uptake (mmol/g)
4.44e-16	0.393701
0.0213675	2.75591
0.0854701	4.19948
0.17094	6.03675
0.277778	7.28346
0.42735	8.00525
0.470085	8.53018
0.619658	9.18635
0.705128	9.71129
0.918803	10.6299
0.982906	10.8924
2.00855	13.3858
2.47863	14.1732
3.01282	14.6982
3.99573	15.6168
5	16.2073
6.00427	16.8635
6.98718	17.2572
8.01282	17.6509
9.01709	17.979
10.0214	18.2415
