Adsorption isotherm of Nitric oxide on CuBTC
DOI: 10.1021/Ja066098k
Adsorbate Nitric oxide: InChIKey MWUXSHHQAYIFBG-UHFFFAOYSA-N
Temperature: 298 K
Tabular data in the source: 0
pressure (bar)	uptake (mmol/g)
0.0218907	0.392947
0.0418106	0.634761
0.0836664	0.997481
0.133496	1.42065
0.171355	1.8136
0.233206	1.96474
0.324947	2.41814
0.51049	2.93199
0.658125	3.35516
0.787805	3.71788
1.00731	4.0806
