Adsorption isotherm of Hydrogen on CuBTC
DOI: 10.1021/Ja066098k
Adsorbate Hydrogen: InChIKey UFHFLCQGNIYNRP-UHFFFAOYSA-N
Temperature: 77 K
Tabular data in the source: 0
pressure (bar)	uptake (mmol/g)
4.44e-16	1.11549
0.0213675	1.83727
0.0854701	4.85564
0.17094	6.69291
0.299145	7.74278
0.363248	8.66142
0.42735	9.25197
0.576923	9.64567
0.662393	10.2362
0.854701	10.8924
0.982906	11.3517
