Adsorption isotherm of Nitric oxide on CuBTC
DOI: 10.1021/Ja066098k
Adsorbate Nitric oxide: InChIKey MWUXSHHQAYIFBG-UHFFFAOYSA-N
Temperature: 196 K
Tabular data in the source: 0
pressure (bar)	uptake (mmol/g)
0.0277681	1.05793
0.0635455	1.96474
0.103285	3.0529
0.160827	5.10831
0.220566	5.95466
0.374078	7.04282
0.509721	7.55668
0.643358	8.13098
0.778986	8.73552
