Adsorption isotherm of Ethene on MIL-142A
DOI: 10.1021/acs.iecr.7b05260
Article source: Figure 4a
Adsorbate Ethene: InChIKey VGGSQFUCUMXWEO-UHFFFAOYSA-N
Kind: experiment
Temperature: 298 K
Tabular data in the source: 0
pressure (bar)	uptake (mmol/g)
0.00353	0.0242
0.00958	0.0485
0.0232	0.102
0.0394	0.164
0.0752	0.294
0.0974	0.377
0.13	0.488
0.161	0.593
0.191	0.695
0.231	0.825
0.282	0.989
0.332	1.15
0.383	1.3
0.433	1.45
0.484	1.6
0.534	1.74
0.585	1.89
0.636	2.03
0.687	2.16
0.737	2.3
0.788	2.43
0.84	2.56
0.889	2.68
0.941	2.8
0.991	2.92
