Adsorption isotherm of Ethane on MIL-142A
DOI: 10.1021/acs.iecr.7b05260
Article source: Figure 4a
Adsorbate Ethane: InChIKey OTMSDBZUPAUEDD-UHFFFAOYSA-N
Kind: experiment
Temperature: 298 K
Tabular data in the source: 0
pressure (bar)	uptake (mmol/g)
0.00908	0.0701
0.0232	0.146
0.0399	0.224
0.0747	0.399
0.0964	0.501
0.131	0.671
0.162	0.814
0.192	0.954
0.232	1.14
0.282	1.36
0.335	1.6
0.384	1.81
0.436	2.02
0.487	2.22
0.537	2.41
0.588	2.6
0.638	2.78
0.689	2.95
0.739	3.11
0.789	3.27
0.841	3.42
0.892	3.56
0.942	3.68
0.993	3.81
