Adsorption isotherm of Carbon Dioxide on PPN-125-DETA
DOI: 10.1002/cssc.201402622
Article source: Figure 5
Adsorbate Carbon Dioxide: InChIKey CURLTUGMZLYLDI-UHFFFAOYSA-N
Kind: experiment
Temperature: 373 K
Tabular data in the source: 0
pressure (bar)	uptake (wt%)
0.011169	0.105263
0.019595	0.231579
0.041824	0.336842
0.066905	0.526316
0.094708	0.673684
0.119724	0.8
0.147482	0.905263
0.172498	1.03158
0.200235	1.11579
0.227972	1.2
0.252944	1.28421
0.277895	1.34737
0.305632	1.43158
0.336112	1.49474
0.361062	1.55789
0.388756	1.6
0.413706	1.66316
0.444186	1.72632
0.469115	1.76842
0.496808	1.81053
0.521737	1.85263
0.546665	1.89474
0.574358	1.93684
0.60203	1.95789
0.626959	2
0.657439	2.06316
0.67958	2.08421
0.73771	2.14737
0.75983	2.14737
0.787545	2.21053
0.815217	2.23158
0.842889	2.25263
0.86503	2.27368
0.892724	2.31579
0.920395	2.33684
0.950832	2.35789
0.972974	2.37895
1.00339	2.37895
1.02553	2.4
1.05597	2.42105
1.08364	2.44211
