Adsorption isotherm of Carbon Dioxide on PPN-125
DOI: 10.1002/cssc.201402622
Article source: Figure 1b
Adsorbate Carbon Dioxide: InChIKey CURLTUGMZLYLDI-UHFFFAOYSA-N
Kind: experiment
Temperature: 298 K
Tabular data in the source: 0
pressure (bar)	uptake (cm3(STP)/g)
0	0
0.994978	1.61692
2.48703	4.10448
4.48199	6.59204
6.14501	8.58209
7.64457	9.95025
9.13994	11.9403
10.9739	13.4328
12.8087	14.801
14.476	16.1692
15.9747	17.6617
19.6494	19.6517
20.983	20.7711
22.8194	21.8905
24.6559	23.01
26.1588	23.8806
28.1638	24.8756
29.8343	25.7463
31.5048	26.6169
33.0028	28.2338
33.0078	27.4876
34.6741	28.9801
35.0144	28.2338
36.6799	29.8507
36.6857	28.9801
38.0152	30.7214
38.1878	29.9751
39.8542	31.4677
40.0276	30.597
41.5264	32.0896
41.699	31.3433
43.3645	32.9602
43.3704	32.0896
45.0367	33.5821
45.0417	32.8358
46.7105	33.9552
47.0492	33.4577
48.3803	34.9502
48.3861	34.0796
50.0525	35.5721
50.0575	34.8259
51.8931	36.0697
52.0649	35.4478
53.5653	36.6915
53.7379	35.9453
55.074	36.6915
55.2375	37.3134
56.9147	37.1891
57.0774	37.9353
58.7545	37.8109
60.2591	38.4328
60.7579	39.0547
61.9321	38.9303
62.7653	39.6766
63.9404	39.4279
64.439	40.0498
65.4464	39.801
66.4486	40.4229
67.118	40.5473
69.1269	40.9204
