Adsorption isotherm of Carbon Dioxide on PPN-125-DETA
DOI: 10.1002/cssc.201402622
Article source: Figure 5
Adsorbate Carbon Dioxide: InChIKey CURLTUGMZLYLDI-UHFFFAOYSA-N
Kind: experiment
Temperature: 393 K
Tabular data in the source: 0
pressure (bar)	uptake (wt%)
0	0
0.016633	0.062992
0.041576	0.146982
0.063725	0.188976
0.094183	0.251969
0.121848	0.272966
0.146761	0.314961
0.171675	0.356955
0.199354	0.39895
0.227033	0.440945
0.254712	0.48294
0.276861	0.524934
0.30729	0.545932
0.334983	0.608924
0.359882	0.629921
0.387547	0.650919
0.415226	0.692913
0.440125	0.713911
0.467818	0.776903
0.495482	0.7979
0.523161	0.839895
0.548061	0.860892
0.575725	0.88189
0.600639	0.923885
0.628303	0.944882
0.653202	0.965879
0.678102	0.986877
0.705795	1.04987
0.73621	1.04987
0.758358	1.09186
0.786023	1.11286
0.813687	1.13386
0.838572	1.13386
0.86903	1.19685
0.89668	1.19685
0.9188	1.19685
0.946493	1.25984
0.974128	1.23885
1.00734	1.28084
1.03778	1.32283
1.05714	1.32283
1.07928	1.36483
