Adsorption isotherm of Nitrogen on PPN-125-DETA
DOI: 10.1002/cssc.201402622
Article source: Figure 1a
Adsorbate Nitrogen: InChIKey IJGRMHOSHXDMSA-UHFFFAOYSA-N
Kind: experiment
Temperature: 77 K
Tabular data in the source: 0
pressure (bar)	uptake (cm3(STP)/g)
0	0
8.7e-05	8.90399
0.005062	17.1164
0.014926	24.6374
0.024749	28.0487
0.037013	30.7719
0.051738	34.8616
0.059141	41.0159
0.071351	38.2597
0.071411	44.424
0.090957	40.9729
0.091011	46.4523
0.113005	42.9979
0.115513	49.1589
0.130156	45.0295
0.152203	47.0545
0.152257	52.5339
0.174257	49.7644
0.176758	55.2405
0.19385	51.1078
0.213443	52.4512
0.213497	57.9305
0.233089	59.2739
0.235497	55.1611
0.255083	55.8195
0.27473	62.6423
0.282025	57.8379
0.294329	64.6706
0.316308	59.8463
0.331067	67.3606
0.338356	61.8713
0.358003	68.6941
0.36039	62.5265
0.394741	71.3841
0.397121	64.5316
0.414266	65.8783
0.416787	73.4091
0.441201	67.2117
0.455974	76.0959
0.458347	68.5584
0.47794	69.9018
0.480468	78.1176
0.49998	71.2419
0.502501	78.7727
0.519566	71.9003
0.534264	73.2503
0.541673	80.0896
0.558826	82.1212
0.561193	73.8988
0.578332	74.5606
0.580873	84.1462
0.600378	76.5856
0.617597	85.4664
0.63955	77.9025
0.642078	86.1182
0.659143	79.2459
0.681184	80.5859
0.681265	88.805
0.70077	81.2444
0.703305	90.1451
0.725271	83.951
0.740057	94.205
0.762003	85.9561
0.764544	95.5417
0.781602	87.9844
0.796294	88.6495
0.798855	100.29
0.815886	89.9929
0.82581	103.678
0.837941	92.7028
0.862441	95.4094
0.865009	107.735
0.882041	97.4377
0.884616	110.448
0.901654	100.836
0.90911	112.47
0.926168	104.912
0.926242	112.446
0.945782	108.31
0.962981	115.136
