Adsorption isotherm of Carbon Dioxide on PPN-125-DETA
DOI: 10.1002/cssc.201402622
Article source: Figure 5
Adsorbate Carbon Dioxide: InChIKey CURLTUGMZLYLDI-UHFFFAOYSA-N
Kind: experiment
Temperature: 313 K
Tabular data in the source: 0
pressure (bar)	uptake (wt%)
0.000699	0.336842
0.001441	0.694737
0.004861	1.01053
0.005777	1.45263
0.006476	1.78947
0.007262	2.16842
0.0109	2.58947
0.011555	2.90526
0.017827	3.26316
0.023881	3.51579
0.044458	4.10526
0.078773	4.65263
0.109799	4.94737
0.129372	5.05263
0.157458	5.26316
0.182561	5.36842
0.210473	5.49474
0.235576	5.6
0.263488	5.72632
0.291312	5.81053
0.319093	5.87368
0.346917	5.95789
0.374742	6.04211
0.396992	6.10526
0.424773	6.16842
0.452554	6.23158
0.480378	6.31579
0.510924	6.37895
0.530366	6.42105
0.560956	6.50526
0.585971	6.56842
0.610943	6.61053
0.641489	6.67368
0.666505	6.73684
0.691477	6.77895
0.719214	6.82105
0.746995	6.88421
0.774732	6.92632
0.802513	6.98947
0.82472	7.03158
0.855222	7.07368
0.877473	7.13684
0.907975	7.17895
0.930182	7.22105
0.963493	7.28421
0.99123	7.32632
1.0162	7.36842
1.04109	7.36842
1.07444	7.45263
1.09656	7.45263
