Adsorption isotherm of Nitrogen on PPN-125
DOI: 10.1002/cssc.201402622
Article source: Figure 1a
Adsorbate Nitrogen: InChIKey IJGRMHOSHXDMSA-UHFFFAOYSA-N
Kind: experiment
Temperature: 77 K
Tabular data in the source: 0
pressure (bar)	uptake (cm3(STP)/g)
0	0
0.001754	89.7814
0.002091	107.047
0.002792	17.9596
0.003224	40.0596
0.003588	58.7065
0.003777	68.3753
0.003979	78.7347
0.004721	116.719
0.005423	27.6317
0.006812	98.7662
0.007365	127.082
0.007554	136.751
0.007703	144.348
0.015162	151.264
0.02014	156.105
0.032456	161.646
0.049642	166.504
0.057048	170.658
0.062106	179.643
0.074207	174.134
0.079252	182.428
0.096235	176.927
0.101294	185.912
0.11844	188.697
0.120705	179.723
0.133116	190.099
0.15269	192.197
0.157411	183.916
0.176944	183.943
0.199148	195.713
0.216091	188.14
0.21628	197.809
0.257666	191.65
0.260269	199.94
0.277199	191.676
0.282271	201.352
0.301629	192.4
0.316292	193.111
0.318909	202.092
0.333573	202.803
0.338308	195.213
0.374959	196.644
0.379964	202.866
0.401803	195.99
0.40442	204.971
0.416642	205.678
0.431144	198.102
0.458029	199.519
0.465488	206.436
0.480165	207.837
0.482472	200.934
0.502154	208.557
0.519109	201.674
0.538777	208.607
0.550865	202.408
0.568091	209.338
0.575321	204.514
0.587624	209.365
0.602193	205.241
0.619297	205.955
0.626716	210.799
0.643822	211.513
0.653494	206.692
0.663355	211.54
0.682794	206.732
0.702435	212.283
0.707251	208.837
0.719445	208.163
0.724409	212.313
0.743969	213.721
0.748785	210.275
0.768318	210.301
0.780621	215.153
0.782981	211.012
0.805064	216.567
0.807438	213.117
0.824529	213.141
0.824597	216.594
0.853842	213.871
0.863609	213.884
0.86856	217.344
0.885624	215.986
0.885692	219.439
0.907613	216.707
0.910121	220.163
0.927172	218.115
0.92724	221.568
0.949174	219.526
0.966279	220.24
