Adsorption isotherm of Carbon Dioxide on PPN-125-DETA
DOI: 10.1002/cssc.201402622
Article source: Figure 1b
Adsorbate Carbon Dioxide: InChIKey CURLTUGMZLYLDI-UHFFFAOYSA-N
Kind: experiment
Temperature: 298 K
Tabular data in the source: 0
pressure (bar)	uptake (cm3(STP)/g)
0	0
0	3.875
0.167637	5.75
0.335273	19.5
0.50291	17.625
0.670545	27.625
0.838183	21
1.17346	22.75
2.34691	26.125
2.68219	33.125
4.35855	28.5
6.03491	36.875
6.53784	30.375
7.54364	31.25
7.71126	38.125
9.22002	32.125
9.38764	38.875
11.064	32.875
12.7404	33.5
14.5844	40.75
16.2608	34.75
16.4284	41.375
17.7695	35.25
17.9371	41.75
19.4458	42.125
19.6135	35.875
21.2898	36.25
22.9662	36.875
24.4749	42.875
24.8102	37.375
26.319	37.875
27.9953	38.375
28.3306	43.5
29.6717	38.625
31.3481	39
31.6833	43.75
33.192	39.5
33.3597	44
35.036	39.875
35.2037	44.25
36.5448	40.25
36.88	44.375
38.2211	40.75
38.5564	44.75
39.8975	40.75
41.9092	45.125
43.4179	41.75
43.7532	45.25
45.4295	42.125
46.9382	45.5
47.1059	42.5
48.6146	42.75
48.7822	45.75
50.4586	43
52.3026	43.375
53.8114	45.875
53.979	43.75
55.6554	46.125
57.1641	44.25
58.6728	44.625
59.0081	46.125
60.6844	44.875
62.3608	45.25
64.0372	45.375
64.205	46.125
65.5458	45.75
66.2165	46.375
67.3899	46
69.066	46.375
