Adsorption isotherm of Nitrogen on Pyâ€“An COF
DOI: 10.1039/c5cc03457d
Article source: Figure 2a
Adsorbate Nitrogen: InChIKey IJGRMHOSHXDMSA-UHFFFAOYSA-N
Kind: experiment
Temperature: 77 K
Tabular data in the source: 0
pressure (bar)	uptake (cm3(STP)/g)
0.013045	196.459
0.010419	169.24
0.009294	133.024
0.009192	89.1906
0.007044	63.2865
0.007044	42.3652
0.005356	23.1356
0.007044	7.08065
0.005356	108.26
0.020545	226.393
0.030671	255.528
0.01717	159.885
0.04586	287.099
0.071175	328.853
0.08974	362.153
0.109992	413.939
0.138682	438.088
0.182561	446.546
0.224753	452.964
0.263569	456.484
0.30576	460.609
0.374954	466.941
0.408708	468.476
0.455962	472.014
0.506592	473.786
0.557222	477.478
0.611227	480.421
0.660169	483.57
0.709111	487.18
0.761429	490.918
0.810371	496.007
0.861001	501.892
0.911631	512.389
0.952135	530.6
0.975762	555.968
0.990951	588.366
0.994326	624.537
1.00108	676.366
0.013795	148.994
0.012529	93.1183
0.008732	15.633
0.020545	181.906
0.027296	239.619
0.040797	272.287
0.064425	311.911
0.081301	341.97
0.098178	385.47
0.12518	434.509
0.16259	447.058
0.204501	455.42
0.244851	461.414
0.283821	466.658
0.337826	470.957
0.386768	476.814
0.43571	479.461
0.489715	485.914
0.53697	493.951
0.57892	496.891
0.609961	498.572
0.643293	500.321
0.68886	504.252
0.742865	506.234
0.793495	511.938
0.844384	518.125
0.894754	531.649
0.938634	556.758
0.965636	589.284
0.992639	651.076
0.997702	677.289
0.007429	86.2486
0.007429	69.3069
0.004457	50.8251
0.005943	33.1133
