Adsorption isotherm of Nitrogen on Pyâ€“An COF after 4 cycles
DOI: 10.1039/c5cc03457d
Article source: Figure S9
Adsorbate Nitrogen: InChIKey IJGRMHOSHXDMSA-UHFFFAOYSA-N
Kind: experiment
Temperature: 77 K
Tabular data in the source: 0
pressure (bar)	uptake (cm3(STP)/g)
0.010045	56.3186
0.007435	31.5191
0.005944	13.2321
0.015265	84.5398
0.024834	123.644
0.020485	99.9227
0.035771	150.366
0.043974	178.973
0.046583	200.199
0.067752	223.504
0.078192	246.012
0.097911	279.725
0.085731	250.628
0.128142	313.074
0.16468	321.205
0.182588	309.282
0.205786	329.141
0.215211	313.81
0.381351	346.816
0.249845	333.255
0.262819	322.744
0.285387	335.152
0.31279	325.06
0.336279	343.174
0.375665	332.059
0.406456	333.544
0.440601	348.344
0.463293	335.411
0.487652	354.4
0.508531	338.775
0.539849	364.275
0.555508	340.956
0.5923	368.146
0.607706	344.252
0.638154	371.002
0.655429	348.103
0.691222	373.796
0.709491	352.016
0.740809	375.521
0.759078	355.743
0.793007	377.721
0.808666	359.779
0.843247	380.195
0.859994	364.523
0.895372	382.47
0.915	375.78
0.935933	396.354
0.970715	413.848
0.95282	387.469
0.992227	477.767
0.998607	456.701
0.996577	426.306
1.00702	497.974
0.975548	403.037
0.14374	301.402
0.115463	293.224
0.02592	163.551
0.018851	135.514
0.011782	112.15
0.009426	43.2243
0.009426	71.2617
