Adsorption isotherm of Carbon monoxide on CuBTC
DOI: 10.1021/Ie902008g
Adsorbate Carbon monoxide: InChIKey UGFAIRIUMAVXCW-UHFFFAOYSA-N
Temperature: 303 K
Tabular data in the source: 0
pressure (bar)	uptake (mmol/g)
0.746717	0.449454
1.07445	1.18357
3.15008	2.26727
4.89798	3.17618
9.04924	4.29483
11.5618	4.95903
15.2761	5.65819
20.1921	6.28744
35.2677	7.86055
39.9652	8.28004
