Adsorption isotherm of Methane on CuBTC
DOI: 10.1021/Ie902008g
Adsorbate Methane: InChIKey VNWKTOKETHGBQD-UHFFFAOYSA-N
Temperature: 303 K
Tabular data in the source: 0
pressure (bar)	uptake (mmol/g)
0.441397	0.193514
1.09686	0.346455
5.02963	1.00192
10.0898	0.980068
