Adsorption isotherm of Carbon Dioxide on CuBTC
DOI: 10.1021/ie902008g
Article source: Figure 2
Adsorbate Carbon Dioxide: InChIKey CURLTUGMZLYLDI-UHFFFAOYSA-N
Kind: experiment
Temperature: 303 K
Tabular data in the source: 0
pressure (bar)	uptake (mmol/g)
0.313382	1.03975
0.446393	1.88586
0.579918	2.57328
0.84902	3.31336
1.11795	4.10634
1.38568	5.2696
1.38654	5.00511
2.06151	6.16765
2.87138	7.59443
3.81802	8.7036
4.90127	9.54803
5.03616	9.81228
6.39158	10.4446
7.88292	11.0239
9.91742	11.5493
10.0527	11.7077
14.8014	12.4399
19.8224	12.96
38.9588	14.1429
