Adsorption isotherm of Carbon monoxide on CuBTC
DOI: 10.1021/ie902008g
Article source: Figure 2
Adsorbate Carbon monoxide: InChIKey UGFAIRIUMAVXCW-UHFFFAOYSA-N
Kind: experiment
Temperature: 303 K
Tabular data in the source: 0
pressure (bar)	uptake (mmol/g)
0.319151	0.372624
0.45593	0.532319
1.00167	0.958175
1.00305	1.1711
1.95637	1.65019
3.04613	2.23574
4.95312	3.24715
6.99241	3.72624
9.03205	4.25856
10.1204	4.63118
12.023	4.95057
15.0135	5.58935
19.9049	6.28137
29.8219	7.45247
35.1191	7.93156
39.7366	8.25095
