Adsorption isotherm of Carbon Dioxide on CuBTC
DOI: 10.1021/Ie902008g
Adsorbate Carbon Dioxide: InChIKey CURLTUGMZLYLDI-UHFFFAOYSA-N
Temperature: 303 K
Tabular data in the source: 0
pressure (bar)	uptake (mmol/g)
0.528229	1.81282
0.746717	2.47702
1.07445	3.31601
1.62067	5.20374
2.27613	6.14761
2.93159	7.61584
3.91478	8.66458
6.42739	10.3775
10.2509	11.671
20.0829	13.0693
38.982	14.2229
