Adsorption isotherm of Carbon Dioxide on Cu-BTC
DOI: 10.1021/ie902008g
Article source: Figure 4a
Adsorbate Carbon Dioxide: InChIKey CURLTUGMZLYLDI-UHFFFAOYSA-N
Kind: experiment
Temperature: 303 K
Tabular data in the source: 0
pressure (bar)	uptake (mmol/g)
0.228571	0
0.457143	0
1.11429	0
4.94286	0
9.94286	0
