Adsorption isotherm of Methane on Cu-BTC
DOI: 10.1021/ie902008g
Article source: Figure 2
Adsorbate Methane: InChIKey VNWKTOKETHGBQD-UHFFFAOYSA-N
Kind: experiment
Temperature: 303 K
Tabular data in the source: 0
pressure (bar)	uptake (mmol/g)
0.318118	0
1.00029	0
2.09039	0
3.04406	0
5.0868	0
6.99276	0
8.89768	0
10.2579	0
12.026	0
19.9107	0
24.5309	0
29.8292	0
36.2134	0
39.8806	0
49.6585	0
