Adsorption isotherm of Methane on CuBTC
DOI: 10.1021/Ie902008g
Adsorbate Methane: InChIKey VNWKTOKETHGBQD-UHFFFAOYSA-N
Temperature: 303 K
Tabular data in the source: 0
pressure (bar)	uptake (mmol/g)
2.16688	1.46324
3.04083	2.02256
5.22571	3.00139
10.2509	4.92408
11.5618	5.41349
19.7551	7.26626
29.6963	8.59466
39.6375	9.50357
49.2509	10.2027
