Adsorption isotherm of Carbon Dioxide on CuBTC
DOI: 10.1021/Ie902008g
Adsorbate Carbon Dioxide: InChIKey CURLTUGMZLYLDI-UHFFFAOYSA-N
Temperature: 303 K
Tabular data in the source: 0
pressure (bar)	uptake (mmol/g)
0.179212	0.521245
0.441397	0.892673
1.12308	1.98511
4.95098	6.44225
10.0111	8.73637
