Adsorption isotherm of Methane on Cu-BTC
DOI: 10.1021/ie902008g
Article source: Figure 4a
Adsorbate Methane: InChIKey VNWKTOKETHGBQD-UHFFFAOYSA-N
Kind: experiment
Temperature: 303 K
Tabular data in the source: 0
pressure (bar)	uptake (mmol/g)
0.485042	0
1.11311	0
4.96824	0
9.96824	0
