Adsorption isotherm of Carbon Dioxide on NJU-Bai6
DOI: 10.1021/Cg301577a
Adsorbate Carbon Dioxide: InChIKey CURLTUGMZLYLDI-UHFFFAOYSA-N
Temperature: 298 K
Tabular data in the source: 0
pressure (bar)	uptake (cm3(STP)/g)
0.0180579	2.43936
0.0381223	3.22467
0.0662124	4.44599
0.092296	5.49301
0.11838	6.54002
0.144463	7.49998
0.172553	8.4601
0.198637	9.42005
0.226727	10.2931
0.250804	11.1658
0.278895	12.126
0.304978	12.9988
0.333068	13.6978
0.359152	14.5707
0.385236	15.3565
0.413326	16.0554
0.439409	16.8412
0.465493	17.8012
0.491577	18.4129
0.51766	19.1987
0.54575	19.8976
0.573841	20.5966
0.601931	21.2955
0.626008	21.9941
0.654098	22.693
0.680182	23.3047
0.708272	24.0036
0.734355	24.6153
0.760439	25.227
0.786523	25.6646
0.812606	26.3634
0.840697	26.8882
0.86678	27.4128
0.89487	28.1117
0.92296	28.6365
0.95105	29.1613
0.977134	29.686
1.01124	30.3854
1.03733	30.91
