Adsorption isotherm of Nitrogen on NJU-Bai6
DOI: 10.1021/Cg301577a
Adsorbate Nitrogen: InChIKey IJGRMHOSHXDMSA-UHFFFAOYSA-N
Temperature: 298 K
Tabular data in the source: 0
pressure (bar)	uptake (cm3(STP)/g)
0.0200644	0.0887887
0.0401287	0.0905128
0.0662124	0.0927541
0.092296	0.0949953
0.120386	0.184474
0.14647	0.186715
0.17456	0.189129
0.200644	0.19137
0.226727	0.193611
0.252811	0.195852
0.278895	0.285158
0.306985	0.200507
0.333068	0.202749
0.361158	0.205162
0.387242	0.294468
0.413326	0.29671
0.439409	0.386015
0.469506	0.301537
0.491577	0.303433
0.519667	0.305847
0.547757	0.395325
0.573841	0.310502
0.583873	0.311364
0.628014	0.402222
0.63604	0.489976
0.662124	0.492217
0.688207	0.494458
0.716298	0.496872
0.742381	0.499113
0.768465	0.501355
0.794549	0.590661
0.824645	0.593247
0.848722	0.595316
0.876812	0.597729
0.906909	0.68738
0.92898	0.602212
0.95707	0.604625
0.983153	0.693931
1.00924	0.783237
1.03933	0.785823
