Adsorption isotherm of Carbon Dioxide on Zeolite 13X
DOI: 10.1007/s10450-020-00236-1
Article source: Table 5
Adsorbate Carbon Dioxide: InChIKey CURLTUGMZLYLDI-UHFFFAOYSA-N
Kind: experiment
Temperature: 283 K
Tabular data in the source: 0
pressure (bar)	uptake (mmol/m2)
24.943	56.0365
29.9	70.6648
34.935	87.7274
39.857	107.674
43.909	128.245
44.528	131.937
44.667	132.801
44.776	133.507
44.88	134.147
44.976	134.737
45.033	135.087
44.945	134.558
44.844	133.933
44.748	133.337
44.231	130.211
42.488	120.522
40.45	110.463
35.42	89.5786
30.23	71.7387
25.102	56.4976
20.125	43.31
