Adsorption isotherm of Carbon Dioxide on Zeolite 13X
DOI: 10.1007/s10450-020-00236-1
Article source: Table 3
Adsorbate Carbon Dioxide: InChIKey CURLTUGMZLYLDI-UHFFFAOYSA-N
Kind: experiment
Temperature: 283 K
Tabular data in the source: 0
pressure (bar)	uptake (mmol/g)
0.001	0.0163
0.042	2.815
0.118	3.8814
0.176	4.2648
0.379	4.8956
0.458	5.0425
0.59	5.2144
0.684	5.3198
0.796	5.4189
0.887	5.4906
0.987	5.5595
1.191	5.6736
1.394	5.766
1.591	5.8446
1.799	5.9139
4.914	6.4251
9.93	6.7524
14.912	6.9385
19.886	7.0729
24.895	7.1842
29.911	7.2843
34.929	7.3825
39.881	7.4934
42.039	7.5597
44.04	7.6584
44.444	7.7155
44.572	7.7497
44.667	7.7871
44.77	7.8449
44.864	7.9459
44.968	8.1605
45.088	8.5585
45.082	8.8643
45.044	9.0577
44.934	8.685
44.84	8.0751
44.756	7.9181
44.63	7.8587
44.289	7.775
42.479	7.6249
40.46	7.5639
25.099	7.2659
20.078	7.164
