Adsorption isotherm of Carbon Dioxide on Zeolite 13X
DOI: 10.1007/s10450-020-00236-1
Article source: Table 5
Adsorbate Carbon Dioxide: InChIKey CURLTUGMZLYLDI-UHFFFAOYSA-N
Kind: experiment
Temperature: 283 K
Tabular data in the source: 0
pressure (bar)	uptake (mmol/m2)
24.943	1.645
29.9	1.897
34.935	2.263
39.857	2.827
43.909	3.685
44.528	3.89
44.667	3.941
44.776	3.984
44.88	4.023
44.976	4.06
45.033	4.084
44.945	4.049
44.844	4.01
44.748	3.974
44.231	3.793
42.488	3.317
40.45	2.923
35.42	2.308
30.23	1.918
25.102	1.652
20.125	1.465
