Adsorption isotherm of Ethanol on C30H18N3Ni3O13
DOI: 10.1039/C1jm12834e
Adsorbate Ethanol: InChIKey LFQSCWFLJHTTHZ-UHFFFAOYSA-N
Temperature: 298 K
Tabular data in the source: 0
pressure (bar)	uptake (wt%)
0.000792275	0.188585
0.00228848	0.439093
0.00281741	0.818514
0.00352209	1.13414
0.00510757	1.82843
0.00598874	2.33395
0.00625358	2.65051
0.007662	2.96463
0.00801537	3.47127
0.00836873	3.97792
0.00889747	4.29392
0.00960326	4.99009
0.0100448	5.55997
0.0104861	6.06643
0.0113695	7.33304
0.011636	8.22042
0.0119018	8.8541
0.0120794	9.42455
0.0122572	10.0584
0.012435	10.6923
0.0126128	11.3262
0.0127906	11.96
0.0129682	12.5305
0.013146	13.1643
0.0133238	13.7982
0.013592	15.2564
0.0138579	15.9535
0.0141237	16.5872
0.0143013	17.1577
0.0144791	17.7915
0.0146569	18.4254
0.0148347	19.0593
0.0150125	19.6931
0.0151901	20.2636
0.0152799	20.8976
0.0154577	21.5315
0.0156355	22.1654
0.0159911	23.4331
0.0168727	24.0655
0.0174899	24.5716
0.0176675	25.142
0.0185472	25.1401
0.0198694	26.0253
0.020749	26.0234
0.0227742	26.6533
0.0247108	27.0932
0.0255023	27.0281
0.0275269	27.4677
0.0284066	27.4658
0.029991	27.7796
0.0308706	27.7777
0.0308708	27.8411
0.0332467	28.0898
0.0343905	28.1507
0.0352704	28.2123
0.0373822	28.3981
0.038262	28.4596
0.0423099	28.8949
0.0465329	29.0762
0.0474128	29.1378
0.0503163	29.3218
0.0511962	29.3834
0.0540119	29.6311
0.0548918	29.6926
0.0566517	29.8792
