Adsorption isotherm of Nitrogen on C30H18N3Ni3O13
DOI: 10.1039/C1jm12834e
Adsorbate Nitrogen: InChIKey IJGRMHOSHXDMSA-UHFFFAOYSA-N
Temperature: 77 K
Tabular data in the source: 0
pressure (bar)	uptake (cm3(STP)/g)
0.000503617	240.594
0.000780607	207.92
0.00110796	169.306
0.00156121	115.84
0.00207323	55.4434
0.00242576	13.8589
0.00299652	246.532
0.00312243	231.68
0.020749	252.454
0.0461565	255.399
0.076659	257.348
0.109705	259.294
0.140215	260.253
0.191072	261.191
0.224135	261.158
0.252102	262.119
0.282622	262.088
0.310589	263.05
0.351282	263.008
0.381801	262.977
0.478437	263.869
0.526759	263.82
0.572529	264.763
0.633568	264.701
0.704771	265.618
0.740385	264.592
0.760731	264.571
0.811588	265.51
0.864997	265.455
0.941286	266.367
