Adsorption isotherm of Cyclohexane on C30H18N3Ni3O13
DOI: 10.1039/C1jm12834e
Adsorbate Cyclohexane: InChIKey XDTMQSROBMDMFD-UHFFFAOYSA-N
Temperature: 298 K
Tabular data in the source: 0
pressure (bar)	uptake (wt%)
0.00357009	0.25745
0.00974233	0.261509
0.0139643	0.34932
0.019162	0.352739
0.0243586	0.44119
0.0305308	0.44525
0.0337783	0.532419
0.0399505	0.536479
0.0448222	0.624717
0.0506685	0.713596
0.0548916	0.716373
0.0600882	0.804825
0.0652859	0.808244
0.0708073	0.896909
0.0753542	0.984933
0.080227	0.988138
0.0854236	1.07659
0.0909461	1.08022
0.095493	1.16825
0.101014	1.25691
0.105886	1.34515
0.11076	1.26332
0.115956	1.43681
0.121153	1.44022
