Adsorption isotherm of Benzene on C30H18N3Ni3O13
DOI: 10.1039/C1jm12834e
Adsorbate Benzene: InChIKey UHOVQNZJYSORNB-UHFFFAOYSA-N
Temperature: 298 K
Tabular data in the source: 0
pressure (bar)	uptake (wt%)
0.00158094	0.171135
0.00504542	1.61905
0.0100898	3.32314
0.0151352	4.94219
0.0201806	6.56124
0.0252239	8.35035
0.0299527	9.96919
0.0349981	11.5882
0.0400435	13.2073
0.045089	14.8263
0.0498221	16.105
0.0545563	17.2987
0.0596092	18.3225
0.0646654	19.0913
0.0697238	19.6899
0.0744666	20.2033
0.0798437	20.6321
0.0845865	21.1455
0.0912322	21.4051
0.0956606	21.7482
0.100408	21.9215
0.10642	22.1807
0.114967	22.3565
0.121929	22.6163
