Adsorption isotherm of Hydrogen on C30H18N3Ni3O13
DOI: 10.1039/C1jm12834e
Adsorbate Hydrogen: InChIKey UFHFLCQGNIYNRP-UHFFFAOYSA-N
Temperature: 77 K
Tabular data in the source: 0
pressure (bar)	uptake (wt%)
0.026945	0.00546075
0.0349576	0.0491468
0.0456565	0.0982935
0.0697313	0.207509
0.0831256	0.256655
0.104542	0.344027
0.13134	0.43686
0.155506	0.491468
0.16891	0.535154
0.203794	0.627986
0.252155	0.720819
0.276313	0.780887
0.303202	0.819113
0.354296	0.890102
0.370413	0.922867
0.408084	0.961092
0.424202	0.993857
0.456501	1.02116
0.475323	1.04846
0.486486	1.07505
0.567568	1.14291
0.621622	1.18634
0.72973	1.24605
0.756757	1.2732
0.810811	1.30034
0.837838	1.32749
0.891892	1.35463
0.918919	1.37906
0.972973	1.44421
1.08108	1.47678
1.18919	1.5012
1.27027	1.52833
1.35135	1.55276
1.45946	1.57989
1.54054	1.60432
1.62162	1.62874
1.7027	1.65588
1.78378	1.6803
1.81081	1.75089
1.89189	1.70744
2.08108	1.75085
2.24324	1.76712
2.35135	1.78882
2.51351	1.81052
2.7027	1.8295
2.86486	1.85119
3.02703	1.87289
3.21622	1.89187
3.37838	1.91357
3.56757	1.93526
3.72973	1.95696
3.97297	1.98951
4.2973	2.00575
4.54054	2.01929
4.78378	2.03012
5.02703	2.04366
5.24324	2.05721
5.48649	2.06803
5.78378	2.09243
6.02703	2.09782
6.32432	2.10864
6.56757	2.11676
6.83784	2.12486
7.08108	2.13298
7.35135	2.14108
7.59459	2.15191
7.78378	2.16546
8.05405	2.16542
8.32432	2.17082
8.56757	2.17621
8.83784	2.18161
9.08108	2.18972
9.35135	2.19511
9.59459	2.20051
9.81081	2.20862
10.0811	2.20859
10.3243	2.2167
10.5946	2.21938
10.8378	2.22477
11.1081	2.23017
11.3514	2.23556
11.6216	2.24096
11.8378	2.24907
12.1081	2.24904
12.3514	2.25172
12.6216	2.2544
12.8919	2.25436
13.1622	2.25704
13.4054	2.257
13.8378	2.26237
14.1081	2.26234
14.3243	2.26502
14.5946	2.26499
14.8649	2.26767
15.1351	2.27034
15.3784	2.27031
15.6486	2.27299
15.8108	2.27568
16.0811	2.27565
16.3514	2.27832
16.6216	2.281
16.8919	2.28368
17.1622	2.28364
17.4054	2.28633
17.8108	2.28898
18.0811	2.28895
18.3514	2.29163
18.6216	2.2943
18.8919	2.29698
19.1351	2.29966
19.3514	2.30235
19.6216	2.30231
