Adsorption isotherm of Immunoglobulin G, Human Serum Albumin, Water on MabDirect MM
DOI: 10.1007/s10450-018-9984-8
Article source: Figure 2
Adsorbate Immunoglobulin G: InChIKey NIST-ISODB-264D8CF23E4B4269D990
Adsorbate Human Serum Albumin: InChIKey NIST-ISODB-A974C5751199C37EF0D4
Adsorbate Water: InChIKey XLYOFNOQVPJJNP-UHFFFAOYSA-N
Kind: experiment
Temperature: 293 K
Tabular data in the source: 0
pressure (bar)	Immunoglobulin G fraction	Immunoglobulin G uptake (mg/g)	Human Serum Albumin fraction	Human Serum Albumin uptake (mg/g)	Water fraction	Water uptake (mg/g)	total uptake (mg/g)
1.01325	0.096998	0.917942	0.096998	21.7803			
1.01325	0.202656	2.42003	0.202656	20.3616			
1.01325	0.398383	4.9235	0.398383	16.7733			
1.01325	0.502309	6.34214	0.502309	15.7719			
1.01325	0.601039	7.76078	0.601039	14.854			
1.01325	0.801963	9.84701	0.801963	14.1864			
1.01325	0.999423	12.9346	0.999423	13.936			
1.01325	1.20035	14.854	1.20035	12.5174			
1.01325	1.50173	19.1933	1.50173	10.8484			
1.01325	1.99711	25.2851	1.99884	7.59388			
1.01325	2.50115	30.2921	2.50115	6.09179			
1.01325	3.00173	34.9652	3.00346	3.33797			
