Adsorption isotherm of Immunoglobulin G, Water on MabDirect MM
DOI: 10.1007/s10450-018-9984-8
Article source: Figure 2
Adsorbate Immunoglobulin G: InChIKey NIST-ISODB-264D8CF23E4B4269D990
Adsorbate Water: InChIKey XLYOFNOQVPJJNP-UHFFFAOYSA-N
Kind: experiment
Temperature: 293 K
Tabular data in the source: 0
pressure (bar)	Immunoglobulin G fraction	Immunoglobulin G uptake (mg/g)	Water fraction	Water uptake (mg/g)	total uptake (mg/g)
1.01325	0	0.166898			
1.01325	0.202656	8.92907			
1.01325	0.502309	20.612			
1.01325	0.699769	27.3713			
1.01325	0.999423	36.3839			
1.01325	1.99884	58.4145			
