Adsorption isotherm of Isobutanol on ZIF-8
DOI: 10.1002/anie.201104383
Adsorbate Isobutanol: InChIKey ZXEKIIBDNHEJCQ-UHFFFAOYSA-N
Temperature: 313 K
Tabular data in the source: 0
pressure (bar)	uptake (mmol/g)
0.00188889	0.120316
0.00411111	0.20004
0.00588889	0.502318
0.008	1.55226
0.0101111	3.1075
0.014	4.19697
0.018	4.37685
0.0222222	4.5162
0.0261111	4.61529
0.0301111	4.73454
0.035	4.81293
