Adsorption isotherm of Isobutanol on ZIF-8
DOI: 10.1002/anie.201104383
Adsorbate Isobutanol: InChIKey ZXEKIIBDNHEJCQ-UHFFFAOYSA-N
Temperature: 313 K
Tabular data in the source: 0
pressure (bar)	uptake (mmol/g)
0.00244444	0.0796119
0.00433333	0.543527
0.00511111	0.826099
0.00544444	1.14932
0.00588889	1.47249
0.00622222	1.77549
0.00677778	2.15924
0.007	2.66442
0.00755556	3.06836
0.00788889	3.33096
0.00844444	3.79555
0.00922222	4.07811
0.00988889	4.36074
0.0112222	4.5824
0.0118889	4.74376
0.0138889	4.70231
0.0175556	4.72067
0.0208889	4.73921
0.0236667	4.73781
0.0264444	4.73639
0.0291111	4.73506
0.0315556	4.75403
0.0338889	4.73264
0.0361111	4.73151
