Adsorption isotherm of Water on ZIF-8
DOI: 10.1002/anie.201104383
Adsorbate Water: InChIKey XLYOFNOQVPJJNP-UHFFFAOYSA-N
Temperature: 313 K
Tabular data in the source: 0
pressure (bar)	uptake (mmol/g)
0.00221568	0.078259
0.00454257	0.0734398
0.0100828	0.0619646
0.0141826	0.0534733
0.0181711	0.128061
0.0222709	0.119569
0.025927	0.194845
0.0308028	0.101898
0.035789	0.0915699
