Adsorption isotherm of Nitrogen on ZIF-8
DOI: 10.1002/anie.201104383
Adsorbate Nitrogen: InChIKey IJGRMHOSHXDMSA-UHFFFAOYSA-N
Temperature: 77 K
Tabular data in the source: 0
pressure (bar)	uptake (cm3(STP)/g)
1.02e-06	1.6805
4.04e-06	1.59663
5.7e-06	1.57566
7.92e-06	1.55569
1.12e-05	4.05997
2.12e-05	4.02102
3.52e-05	7.35707
4.43e-05	9.02659
6.24e-05	9.84737
7.98e-05	14.8829
0.000139445	25.7917
0.000178407	43.4534
0.000213743	56.0687
0.00033851	83.8184
0.000527244	103.152
0.000732052	115.758
0.000967502	123.317
0.00134311	131.714
0.0018954	140.111
0.00202387	140.949
0.00347658	147.65
0.00353421	149.332
0.00617208	159.399
0.00739387	169.489
0.00930276	176.209
0.0152097	175.337
0.0302916	194.656
0.0449202	215.676
0.062345	216.497
0.0784317	219.85
0.130375	224.028
0.183949	226.532
0.259552	230.72
0.438657	240.789
0.589281	246.663
0.729465	257.593
0.874146	277.784
0.889203	298.827
0.905169	341.755
1.0027	463.803
