Adsorption isotherm of Water on ZIF-8
DOI: 10.1002/anie.201104383
Adsorbate Water: InChIKey XLYOFNOQVPJJNP-UHFFFAOYSA-N
Temperature: 313 K
Tabular data in the source: 0
pressure (bar)	uptake (mmol/g)
0.002	0.162159
0.004	0.24116
0.00611111	0.153612
0.00811111	0.149455
0.0102222	0.145066
0.0141111	0.303298
0.018	0.128896
0.0221111	0.286666
0.0262222	0.278119
0.0301111	0.270034
0.0351111	0.25964
