Adsorption isotherm of Nitrogen on IRMOF-1
DOI: 10.1021/Cm202554j
Adsorbate Nitrogen: InChIKey IJGRMHOSHXDMSA-UHFFFAOYSA-N
Temperature: 77 K
Tabular data in the source: 0
pressure (bar)	uptake (cm3(STP)/g)
0.0117209	90.3226
0.0311565	97.8495
0.0603126	112.903
0.0777947	105.376
0.0952925	120.43
0.116671	127.957
0.13805	135.484
0.157485	143.011
0.178859	143.011
0.194403	143.011
0.241041	150.538
0.291566	158.065
0.34209	165.591
0.390666	165.591
0.437309	180.645
0.485896	195.699
0.53642	203.226
0.585007	218.28
0.637474	225.806
0.684117	240.86
0.722988	255.914
0.750201	270.968
0.783238	278.495
0.798804	308.602
0.818239	316.129
0.843509	331.183
0.878505	361.29
0.905728	391.398
0.921299	429.032
0.934937	481.72
0.942761	556.989
0.948658	654.839
0.952617	760.215
0.9624	858.065
0.964396	933.333
