Adsorption isotherm of Hydrogen on MDC-8
DOI: 10.1021/Cm202554j
Adsorbate Hydrogen: InChIKey UFHFLCQGNIYNRP-UHFFFAOYSA-N
Temperature: 77 K
Tabular data in the source: 0
pressure (bar)	uptake (wt%)
0.0165289	0.534722
0.0220386	0.631944
0.0358127	0.741319
0.0413223	0.789931
0.0550964	0.911458
0.0688705	0.996528
0.0826446	1.05729
0.107438	1.16667
0.134986	1.28819
0.165289	1.37326
0.217631	1.49479
0.267218	1.61632
0.294766	1.66493
0.338843	1.75
0.38292	1.81076
0.429752	1.87153
0.46832	1.90799
0.506887	1.96875
0.534435	1.99306
0.584022	2.04167
0.639118	2.10243
0.669421	2.13889
0.730028	2.17535
0.785124	2.21181
0.823691	2.24826
0.84573	2.26042
0.906336	2.30903
0.933884	2.32118
0.961433	2.34549
1.00826	2.38194
1.04408	2.40625
1.06887	2.4184
