Adsorption isotherm of Hydrogen on MDC-3
DOI: 10.1021/Cm202554j
Adsorbate Hydrogen: InChIKey UFHFLCQGNIYNRP-UHFFFAOYSA-N
Temperature: 298 K
Tabular data in the source: 0
pressure (bar)	uptake (wt%)
0.00956938	0.0015873
0.0318979	0.00444444
0.0574163	0.00888889
0.0733652	0.0120635
0.0829346	0.0142857
0.105263	0.0168254
0.133971	0.0212698
0.14673	0.0222222
0.15949	0.024127
0.169059	0.0250794
0.172249	0.0247619
0.183413	0.0263492
0.197767	0.0279365
0.207337	0.0301587
0.213716	0.0301587
0.223285	0.0301587
0.23445	0.0320635
0.248804	0.0336508
0.259968	0.0355556
0.266348	0.0355556
0.275917	0.0355556
0.287081	0.0371429
0.301435	0.0387302
0.315789	0.04
0.328549	0.0419048
0.342903	0.0422222
0.355662	0.0438095
0.370016	0.0450794
0.38437	0.0463492
0.398724	0.047619
0.416268	0.0501587
0.429027	0.0501587
0.441786	0.0511111
0.45614	0.052381
0.470494	0.0536508
0.484848	0.0546032
0.500797	0.055873
0.515152	0.0568254
0.526316	0.0587302
0.542265	0.0584127
0.555024	0.06
0.570973	0.0606349
0.585327	0.0619048
0.599681	0.0628571
0.61563	0.0634921
0.629984	0.0644444
0.645933	0.0653968
0.660287	0.0666667
0.673046	0.0673016
0.685805	0.068254
0.700159	0.0695238
0.714514	0.0707937
0.730463	0.0720635
0.744817	0.0733333
0.759171	0.0742857
0.773525	0.0755556
0.789474	0.0768254
0.803828	0.0780952
0.818182	0.0793651
0.832536	0.0806349
0.845295	0.0815873
0.859649	0.0825397
0.874003	0.0834921
0.888357	0.0844444
0.904306	0.0853968
0.91866	0.0866667
0.933014	0.087619
0.948963	0.0885714
0.963317	0.0895238
0.977671	0.0907937
0.99362	0.091746
1.00797	0.0926984
1.02392	0.0936508
1.03828	0.0946032
1.05263	0.095873
1.06699	0.0968254
