Adsorption isotherm of Hydrogen on IRMOF-1
DOI: 10.1021/Cm202554j
Adsorbate Hydrogen: InChIKey UFHFLCQGNIYNRP-UHFFFAOYSA-N
Temperature: 77 K
Tabular data in the source: 0
pressure (bar)	uptake (wt%)
0.0192837	0.0364583
0.0358127	0.0972222
0.0606061	0.157986
0.0798898	0.194444
0.110193	0.243056
0.115702	0.243056
0.137741	0.291667
0.15978	0.340278
0.181818	0.376736
0.209366	0.425347
0.231405	0.449653
0.258953	0.486111
0.280992	0.522569
0.30854	0.559028
0.333333	0.607639
0.360882	0.631944
0.385675	0.668403
0.413223	0.692708
0.438017	0.717014
0.465565	0.753472
0.490358	0.789931
0.515152	0.814236
0.5427	0.838542
0.570248	0.862847
0.595041	0.887153
0.62259	0.923611
0.647383	0.947917
0.674931	0.972222
0.699725	0.996528
0.724518	1.02083
0.752066	1.04514
0.77686	1.06944
0.804408	1.09375
0.829201	1.11806
0.856749	1.13021
0.884298	1.15451
0.909091	1.19097
0.936639	1.20312
0.961433	1.22743
0.988981	1.25174
1.01653	1.26389
1.04132	1.28819
1.06887	1.3125
