Adsorption isotherm of Nitrogen on IRMOF-1
DOI: 10.1021/Cm202554j
Adsorbate Nitrogen: InChIKey IJGRMHOSHXDMSA-UHFFFAOYSA-N
Temperature: 77 K
Tabular data in the source: 0
pressure (bar)	uptake (cm3(STP)/g)
5.55e-17	106.195
0.0021166	247.807
0.0063498	654.925
0.010583	725.76
0.0190494	770.085
0.0359822	805.637
0.052915	823.491
0.0698478	823.645
0.0867807	832.649
0.101597	832.784
0.120646	850.656
0.133346	859.622
0.146045	868.587
0.165095	859.911
0.186261	868.953
0.209544	869.165
0.232826	878.227
0.268808	887.404
0.283625	887.539
0.300557	896.543
0.374638	906.067
0.42332	897.661
0.476235	906.993
0.537617	916.402
0.601115	916.98
0.615931	925.964
0.679429	926.543
0.713295	935.701
0.761976	936.144
0.787376	936.376
0.838174	936.838
0.857224	937.012
0.87839	946.054
0.888973	937.301
0.922838	946.459
0.944004	946.652
0.96517	937.995
