Adsorption isotherm of Nitrogen on IRMOF-3
DOI: 10.1021/Cm202554j
Adsorbate Nitrogen: InChIKey IJGRMHOSHXDMSA-UHFFFAOYSA-N
Temperature: 77 K
Tabular data in the source: 0
pressure (bar)	uptake (cm3(STP)/g)
0.00515518	444.398
0.00930546	493.776
0.0176757	522.822
0.0358568	540.249
0.0582404	554.772
0.0876322	560.581
0.117021	569.295
0.150618	569.295
0.170214	572.199
0.18561	575.104
0.212207	575.104
0.240205	575.104
0.264003	575.104
0.275202	575.104
0.292001	575.104
0.333992	580.913
0.374588	580.913
0.423584	580.913
0.47258	580.913
0.534172	583.817
0.59017	580.913
0.60137	580.913
0.67976	583.817
0.690953	589.627
0.760956	580.913
0.777749	586.722
0.819752	580.913
0.865951	578.008
0.888349	578.008
0.917746	578.008
0.941544	578.008
0.970939	580.913
