Adsorption isotherm of Hydrogen on MDC-1
DOI: 10.1021/Cm202554j
Adsorbate Hydrogen: InChIKey UFHFLCQGNIYNRP-UHFFFAOYSA-N
Temperature: 298 K
Tabular data in the source: 0
pressure (bar)	uptake (wt%)
1.18729	0.120253
2.39844	0.142405
4.09544	0.167722
5.79322	0.189873
6.5193	0.205696
8.21707	0.227848
9.42668	0.256329
11.1275	0.265823
12.582	0.287975
14.5231	0.310127
16.2216	0.329114
18.1635	0.348101
19.6179	0.370253
21.318	0.382911
23.2599	0.401899
24.9577	0.424051
26.8995	0.443038
28.8406	0.46519
30.5407	0.477848
32.2392	0.496835
34.4259	0.509494
36.6118	0.525316
38.5545	0.541139
40.7404	0.556962
42.9271	0.56962
45.113	0.585443
47.299	0.601266
49.2416	0.617089
51.185	0.629747
53.3717	0.642405
55.3143	0.658228
57.501	0.670886
59.6869	0.686709
61.8736	0.699367
64.0596	0.71519
66.2455	0.731013
68.4322	0.743671
70.3756	0.756329
72.319	0.768987
74.5057	0.781646
76.4483	0.797468
78.635	0.810127
80.8217	0.822785
83.0084	0.835443
85.1951	0.848101
87.381	0.863924
89.5677	0.876582
91.7544	0.889241
93.9404	0.905063
96.1271	0.917722
98.3138	0.93038
100.256	0.946203
