Adsorption isotherm of Hydrogen on MDC-1
DOI: 10.1021/Cm202554j
Adsorbate Hydrogen: InChIKey UFHFLCQGNIYNRP-UHFFFAOYSA-N
Temperature: 77 K
Tabular data in the source: 0
pressure (bar)	uptake (wt%)
0.0550964	0.862847
0.0688705	0.960069
0.0881543	1.09375
0.140496	1.37326
0.157025	1.47049
0.212121	1.70139
0.231405	1.77431
0.253444	1.84722
0.336088	2.09028
0.355372	2.15104
0.380165	2.19965
0.404959	2.26042
0.426997	2.32118
0.473829	2.40625
0.509642	2.47917
0.534435	2.53993
0.581267	2.61285
0.630854	2.71007
0.674931	2.78299
0.707989	2.8316
0.746556	2.89236
0.796143	2.96528
0.826446	3.01389
0.84573	3.05035
0.873278	3.07465
0.92011	3.14757
0.980716	3.23264
1.0303	3.30556
1.06887	3.34201
