Adsorption isotherm of Nitrogen on IRMOF-8
DOI: 10.1021/Cm202554j
Adsorbate Nitrogen: InChIKey IJGRMHOSHXDMSA-UHFFFAOYSA-N
Temperature: 77 K
Tabular data in the source: 0
pressure (bar)	uptake (cm3(STP)/g)
0.0122127	386.307
0.0303821	415.353
0.0555685	426.971
0.070973	421.162
0.0947652	426.971
0.11856	429.876
0.146549	438.589
0.187149	435.685
0.208147	435.685
0.233339	441.494
0.265537	441.494
0.285135	441.494
0.296331	444.398
0.334131	441.494
0.377527	441.494
0.422324	441.494
0.479716	444.398
0.535714	441.494
0.593107	444.398
0.601503	447.303
0.682696	447.303
0.695298	444.398
0.763893	444.398
0.770892	444.398
0.822685	447.303
0.860485	444.398
0.877283	444.398
0.884283	444.398
0.92348	444.398
0.943075	447.303
0.969673	447.303
