Adsorption isotherm of Nitrogen on MDC-1
DOI: 10.1021/Cm202554j
Adsorbate Nitrogen: InChIKey IJGRMHOSHXDMSA-UHFFFAOYSA-N
Temperature: 77 K
Tabular data in the source: 0
pressure (bar)	uptake (cm3(STP)/g)
0.0021166	460.196
0.0063498	548.73
0.021166	584.264
0.0338656	628.627
0.0507984	681.879
0.0698478	708.601
0.0867807	744.153
0.110063	788.613
0.131229	815.355
0.148162	824.358
0.162978	859.892
0.188378	868.973
0.209544	895.714
0.237059	931.363
0.279391	922.899
0.296324	976.151
0.31749	1002.89
0.33654	1020.76
0.355589	1020.94
0.376755	1029.98
0.400038	1065.59
0.427553	1083.54
0.450836	1110.3
0.478352	1137.1
0.505868	1163.9
0.533384	1190.7
0.543967	1208.49
0.579949	1244.22
0.596882	1262.07
0.620164	1279.99
0.64133	1297.88
0.670963	1342.39
0.719644	1395.94
0.761976	1467.12
0.787376	1502.75
0.808542	1556.04
0.85299	1662.64
0.882623	1777.95
0.897439	1848.88
0.912255	1902.12
0.924955	2008.43
0.935538	2141.27
0.944004	2256.39
0.950354	2389.19
