Adsorption isotherm of Nitrogen on MDC-3
DOI: 10.1021/Cm202554j
Adsorbate Nitrogen: InChIKey IJGRMHOSHXDMSA-UHFFFAOYSA-N
Temperature: 77 K
Tabular data in the source: 0
pressure (bar)	uptake (cm3(STP)/g)
0.00809726	302.075
0.0150647	334.025
0.0290403	357.261
0.0514095	386.307
0.075193	400.83
0.0989765	415.353
0.119963	426.971
0.146541	447.303
0.167533	453.112
0.184326	458.921
0.209518	464.73
0.23191	470.539
0.265496	482.158
0.279495	482.158
0.299085	490.871
0.335479	493.776
0.37467	499.585
0.418054	511.203
0.476838	522.822
0.534219	537.344
0.601402	548.963
0.676972	572.199
0.702164	578.008
0.759539	598.34
0.779123	612.863
0.830855	676.763
0.850456	673.859
0.879589	938.174
0.901749	1176.35
0.914267	1257.68
0.926814	1309.96
0.944974	1347.72
0.971558	1362.24
