Adsorption isotherm of Hydrogen on IRMOF-3
DOI: 10.1021/Cm202554j
Adsorbate Hydrogen: InChIKey UFHFLCQGNIYNRP-UHFFFAOYSA-N
Temperature: 298 K
Tabular data in the source: 0
pressure (bar)	uptake (wt%)
0.0142857	0.000528908
0.0269841	0.000810812
0.0380952	0.00109277
0.0587302	0.00172734
0.068254	0.00197406
0.0857143	0.00236168
0.107937	0.00274913
0.133333	0.00341882
0.153968	0.00380633
0.171429	0.00408807
0.188889	0.00451098
0.212698	0.00503955
0.24127	0.00560325
0.265079	0.00606123
0.293651	0.00662493
0.315873	0.00694179
0.338095	0.00729395
0.355556	0.00764627
0.388889	0.00810392
0.425397	0.00856146
0.452381	0.00898403
0.480952	0.00930067
0.511111	0.00972314
0.531746	0.0100048
0.585714	0.0107087
0.631746	0.011413
0.673016	0.011941
0.714286	0.0125042
0.768254	0.0131023
0.803175	0.0135599
0.847619	0.0140171
0.895238	0.0145802
0.94127	0.015108
0.985714	0.0156005
1.02381	0.0160227
1.06508	0.0164801
