Adsorption isotherm of Hydrogen on IRMOF-1
DOI: 10.1021/Cm202554j
Adsorbate Hydrogen: InChIKey UFHFLCQGNIYNRP-UHFFFAOYSA-N
Temperature: 298 K
Tabular data in the source: 0
pressure (bar)	uptake (wt%)
1.45446	0.0221519
3.39863	0.0316456
5.58456	0.0474684
7.77126	0.0601266
9.71388	0.0759494
11.9014	0.085443
13.844	0.101266
15.7866	0.117089
17.9725	0.132911
19.6711	0.151899
21.8601	0.155063
24.0468	0.167722
26.2343	0.177215
28.6643	0.189873
30.6084	0.199367
32.5526	0.208861
34.9834	0.218354
37.1708	0.227848
39.3575	0.240506
41.7883	0.25
43.9758	0.259494
46.1625	0.272152
48.35	0.281646
50.2949	0.287975
52.4824	0.297468
54.6691	0.310127
56.8565	0.31962
59.2873	0.329114
61.474	0.341772
63.9048	0.351266
66.0923	0.360759
68.279	0.373418
70.2231	0.382911
72.4121	0.386076
73.8705	0.392405
76.0579	0.401899
78.0029	0.408228
80.4344	0.414557
82.6219	0.424051
85.0534	0.43038
87.2417	0.436709
89.6732	0.443038
92.104	0.452532
94.2915	0.462025
96.4797	0.468354
98.9105	0.477848
101.1	0.481013
