Adsorption isotherm of Nitrogen on MDC-1
DOI: 10.1021/Cm202554j
Adsorbate Nitrogen: InChIKey IJGRMHOSHXDMSA-UHFFFAOYSA-N
Temperature: 77 K
Tabular data in the source: 0
pressure (bar)	uptake (cm3(STP)/g)
0.00200572	90.3226
0.00402711	203.226
0.00418903	436.559
0.01205	564.516
0.0237396	609.677
0.0393152	654.839
0.0587822	707.527
0.0743369	722.581
0.0957365	760.215
0.113234	775.269
0.132696	820.43
0.146303	827.957
0.183241	858.065
0.210454	873.118
0.237683	910.753
0.280445	933.333
0.299902	970.968
0.340727	1001.08
0.37766	1023.66
0.395158	1038.71
0.424335	1083.87
0.451548	1098.92
0.476818	1113.98
0.505995	1159.14
0.533208	1174.19
0.570152	1211.83
0.599313	1234.41
0.618764	1264.52
0.638216	1294.62
0.675154	1324.73
0.721829	1384.95
0.764618	1445.16
0.78796	1482.8
0.811324	1550.54
0.856081	1648.39
0.885305	1761.29
0.898938	1806.45
0.912602	1896.77
0.924333	2002.15
0.941904	2122.58
0.947817	2243.01
0.949844	2363.44
