Adsorption isotherm of Nitrogen on IRMOF-1
DOI: 10.1021/Cm202554j
Adsorbate Nitrogen: InChIKey IJGRMHOSHXDMSA-UHFFFAOYSA-N
Temperature: 77 K
Tabular data in the source: 0
pressure (bar)	uptake (cm3(STP)/g)
0.0117679	158.065
0.0312036	165.591
0.0564787	188.172
0.0739661	188.172
0.097293	203.226
0.114791	218.28
0.134216	210.753
0.153662	233.333
0.171149	233.333
0.192528	240.86
0.241109	248.387
0.291634	255.914
0.34021	255.914
0.386863	286.022
0.439331	293.548
0.487917	308.602
0.536493	308.602
0.585085	331.183
0.633661	331.183
0.684201	361.29
0.723072	376.344
0.748337	383.871
0.781389	413.978
0.800825	421.505
0.818333	451.613
0.837764	451.613
0.843598	459.14
0.861111	496.774
0.886387	519.355
0.909729	556.989
0.925289	579.57
0.929191	602.151
0.942834	662.366
0.948726	752.688
0.952675	843.011
0.956613	918.28
0.964437	993.548
0.96837	1061.29
