Adsorption isotherm of Hydrogen on IRMOF-3
DOI: 10.1021/Cm202554j
Adsorbate Hydrogen: InChIKey UFHFLCQGNIYNRP-UHFFFAOYSA-N
Temperature: 77 K
Tabular data in the source: 0
pressure (bar)	uptake (wt%)
0.0165289	0.0850694
0.0385675	0.145833
0.0578512	0.206597
0.0743802	0.255208
0.107438	0.328125
0.132231	0.376736
0.168044	0.449653
0.214876	0.534722
0.242424	0.571181
0.264463	0.619792
0.297521	0.668403
0.338843	0.704861
0.380165	0.765625
0.426997	0.826389
0.476584	0.887153
0.534435	0.960069
0.573003	0.984375
0.625344	1.03299
0.674931	1.0816
0.713499	1.11806
0.757576	1.15451
0.807163	1.20312
0.84573	1.22743
0.903581	1.27604
0.961433	1.3125
1.02204	1.36111
1.04408	1.39757
1.06887	1.39757
