Adsorption isotherm of Hydrogen on IRMOF-8
DOI: 10.1021/Cm202554j
Adsorbate Hydrogen: InChIKey UFHFLCQGNIYNRP-UHFFFAOYSA-N
Temperature: 77 K
Tabular data in the source: 0
pressure (bar)	uptake (wt%)
0.0110193	0.182292
0.0192837	0.279514
0.0247934	0.352431
0.0440771	0.4375
0.0523416	0.498264
0.0661157	0.546875
0.0853994	0.619792
0.110193	0.680556
0.134986	0.765625
0.170799	0.838542
0.212121	0.935764
0.242424	0.984375
0.269972	1.04514
0.30303	1.09375
0.338843	1.16667
0.38292	1.21528
0.426997	1.28819
0.46832	1.32465
0.498623	1.36111
0.534435	1.40972
0.570248	1.43403
0.628099	1.48264
0.674931	1.5434
0.707989	1.56771
0.757576	1.60417
0.809917	1.65278
0.84573	1.67708
0.876033	1.70139
0.92011	1.72569
0.975207	1.77431
1.00275	1.78646
1.02755	1.79861
1.06612	1.83507
