Adsorption isotherm of Hydrogen on MDC-3
DOI: 10.1021/Cm202554j
Adsorbate Hydrogen: InChIKey UFHFLCQGNIYNRP-UHFFFAOYSA-N
Temperature: 77 K
Tabular data in the source: 0
pressure (bar)	uptake (wt%)
0.00275482	0.133681
0.00826446	0.279514
0.0110193	0.388889
0.0192837	0.449653
0.0275482	0.595486
0.0413223	0.692708
0.0523416	0.741319
0.0633609	0.814236
0.0826446	0.911458
0.107438	0.984375
0.132231	1.0816
0.170799	1.17882
0.214876	1.27604
0.242424	1.32465
0.267218	1.37326
0.30303	1.42188
0.338843	1.48264
0.363636	1.50694
0.393939	1.5434
0.429752	1.59201
0.460055	1.62847
0.495868	1.66493
0.534435	1.70139
0.575758	1.73785
0.630854	1.77431
0.674931	1.82292
0.721763	1.84722
0.77135	1.88368
0.809917	1.90799
0.848485	1.92014
0.892562	1.96875
0.953168	1.99306
1.01377	2.02951
1.06612	2.05382
