Adsorption isotherm of Nitrogen on MDC-8
DOI: 10.1021/Cm202554j
Adsorbate Nitrogen: InChIKey IJGRMHOSHXDMSA-UHFFFAOYSA-N
Temperature: 77 K
Tabular data in the source: 0
pressure (bar)	uptake (cm3(STP)/g)
0.00117625	223.651
0.00126338	136.515
0.00133018	69.7095
0.00526554	334.025
0.00801013	389.212
0.0261738	424.066
0.0485429	453.112
0.0709207	473.444
0.0918987	493.776
0.107292	499.585
0.132481	508.299
0.150668	519.917
0.164652	534.44
0.187039	546.058
0.209428	554.772
0.236011	569.295
0.266803	575.104
0.280796	580.913
0.338156	615.768
0.419306	659.336
0.475275	685.477
0.535441	714.523
0.602601	749.378
0.673952	792.946
0.759292	845.228
0.853006	923.651
