Adsorption isotherm of Nitrogen on Co-MOF
DOI: 10.1021/cg501324r
Article source: Figure 5a
Adsorbate Nitrogen: InChIKey IJGRMHOSHXDMSA-UHFFFAOYSA-N
Kind: experiment
Temperature: 77 K
Tabular data in the source: 0
pressure (bar)	uptake (cm3(STP)/g)
0	-0.002985
0.00029	83.4862
0.00116	85.3211
0.00203	72.4771
0.00261	87.156
0.0029	76.1468
0.00406	88.0734
0.00493	77.9817
0.0058	78.8991
0.00841	90.8257
0.0087	78.8991
0.01131	90.8257
0.0116	79.8165
0.01421	91.7431
0.01711	81.6514
0.02001	91.7431
0.02291	91.7431
0.0232	82.5688
0.025811	91.7431
0.028711	83.4862
0.029001	91.7431
0.031611	83.4862
0.031901	92.6606
0.034801	83.4862
0.037701	92.6606
0.037991	84.4037
0.040601	92.6606
0.040891	84.4037
0.043211	92.6606
0.046401	84.4037
0.049301	92.6606
0.049591	85.3211
0.052201	85.3211
0.055101	91.7431
0.055391	85.3211
0.058001	91.7431
0.058291	86.2385
0.060901	91.7431
0.061481	86.2385
0.063801	91.7431
0.064091	86.2385
0.066701	90.8257
0.069601	90.8257
0.069891	86.2385
0.072792	87.156
0.075402	90.8257
0.078302	87.156
0.080912	87.156
0.081202	90.8257
0.084102	89.9083
0.084392	88.0734
0.087002	89.9083
0.087872	88.0734
0.090192	89.9083
0.090482	88.0734
0.092802	88.9908
0.096282	88.9908
