Adsorption isotherm of Nitrogen on Micro-Co-MOF
DOI: 10.1021/cg501324r
Article source: Figure 5b
Adsorbate Nitrogen: InChIKey IJGRMHOSHXDMSA-UHFFFAOYSA-N
Kind: experiment
Temperature: 77 K
Tabular data in the source: 0
pressure (bar)	uptake (cm3(STP)/g)
0	23.7443
2.4e-05	33.79
0.000331	57.5342
0.004386	67.5799
0.007567	68.4932
0.009312	82.1918
0.009882	70.3196
0.011625	82.1918
0.013062	70.3196
0.013939	83.105
0.015087	71.2329
0.016831	84.0183
0.017401	72.1461
0.018856	84.9315
0.019714	72.1461
0.021169	84.9315
0.022606	73.0594
0.02377	84.0183
0.02492	73.9726
0.026373	84.9315
0.027233	73.9726
0.028398	85.8447
0.029546	73.9726
0.033314	85.8447
0.034461	73.9726
0.03823	86.758
0.039377	73.9726
0.042856	86.758
0.044581	73.9726
0.047771	86.758
0.049208	73.9726
0.052687	86.758
0.053835	75.7991
0.057603	87.6712
0.058751	76.7123
0.062807	87.6712
0.063666	75.7991
0.067723	88.5845
0.068582	76.7123
0.07235	88.5845
0.073209	76.7123
0.076975	87.6712
0.078414	78.5388
0.08247	88.5845
0.083041	79.4521
0.087388	92.2374
0.087957	79.4521
0.090877	119.635
0.091724	90.411
0.092066	163.47
0.093561	231.963
0.094348	120.548
0.094373	156.164
0.094498	328.767
0.094981	197.26
0.095109	374.429
0.09541	389.954
