Adsorption isotherm of Carbon Dioxide on Micro-Co-MOF
DOI: 10.1021/cg501324r
Article source: Figure 6b
Adsorbate Carbon Dioxide: InChIKey CURLTUGMZLYLDI-UHFFFAOYSA-N
Kind: experiment
Temperature: 196 K
Tabular data in the source: 0
pressure (bar)	uptake (cm3(STP)/g)
0.013151	8.88889
0.01643	10.6667
0.019606	6.66667
0.019686	11.1111
0.022942	11.5556
0.02295	12
0.029389	8.88889
0.029477	13.7778
0.032749	15.1111
0.042539	17.7778
0.05221	13.7778
0.061977	15.1111
0.062097	21.7778
0.068616	23.1111
0.084774	18.6667
0.091422	27.1111
0.094549	20.4444
0.097933	28
0.11733	23.1111
0.120594	24
0.123962	30.6667
0.127218	31.1111
0.143368	26.2222
0.149879	27.1111
0.149998	33.7778
0.156503	34.2222
0.172652	29.3333
0.179163	30.2222
0.182531	36.8889
0.208423	32
0.211783	38.2222
0.214927	32.4444
0.237692	34.2222
0.244292	40
0.247451	35.1111
0.273552	41.7778
0.276703	36.4444
0.299468	38.2222
0.306052	43.1111
0.309308	43.5556
0.335224	40
0.33532	45.3333
0.364572	46.6667
0.370972	41.3333
0.393737	43.1111
0.397072	48
0.403584	48.8889
0.423006	45.3333
0.426357	51.1111
0.432877	52.4444
0.43614	53.3333
0.436173	55.1111
0.439476	58.2222
0.442803	62.6667
0.442883	67.1111
0.442972	72
0.446436	84
0.449572	77.7778
0.455506	46.6667
0.456291	90.2222
0.456444	98.6667
0.456452	99.1111
0.459716	100
0.459724	100.444
0.459732	100.889
0.459747	101.778
0.459763	102.667
0.459779	103.556
0.459804	104.889
0.45982	105.778
0.459835	106.667
0.459851	107.556
0.463115	108.444
0.463139	109.778
0.466419	111.556
0.468608	52.8889
0.468704	58.2222
0.47297	114.667
0.475272	62.2222
0.475352	66.6667
0.478663	70.2222
0.478696	72
0.481992	74.6667
0.482023	76.4444
0.482056	78.2222
0.48208	79.5556
0.482111	81.3333
0.485391	83.1111
0.485416	84.4444
0.485447	86.2222
0.485463	87.1111
0.485479	88
0.485496	88.8889
0.48552	90.2222
0.485535	91.1111
0.489288	119.111
0.492159	98.2222
0.495791	119.556
0.498758	104
0.502087	108.444
0.508637	111.556
0.518405	112.889
0.521813	121.778
0.537938	115.556
0.54445	116.444
0.547705	116.889
0.551057	122.667
0.576958	118.222
0.580221	119.111
0.58031	124
0.606226	120.444
0.606298	124.444
0.635463	120.889
0.638726	121.778
0.638782	124.889
0.67121	122.222
0.671266	125.333
0.697199	122.667
0.700502	125.778
0.72973	125.778
0.732938	123.556
0.762167	123.556
0.762215	126.222
0.791403	124
0.791443	126.222
0.820631	124
0.823927	126.667
0.849867	124.444
0.856403	126.667
0.875889	126.667
0.882344	124.444
0.911612	126.667
0.914836	125.333
0.937593	126.667
0.940817	125.333
0.973301	125.778
0.973325	127.111
1.00578	125.778
