Adsorption isotherm of Carbon Dioxide on Co-MOF
DOI: 10.1021/cg501324r
Article source: Figure 6a
Adsorbate Carbon Dioxide: InChIKey CURLTUGMZLYLDI-UHFFFAOYSA-N
Kind: experiment
Temperature: 196 K
Tabular data in the source: 0
pressure (bar)	uptake (cm3(STP)/g)
0.009743	15.5172
0.01299	17.2906
0.016238	7.53695
0.019486	18.6207
0.022733	10.197
0.025981	11.5271
0.029228	22.1675
0.032476	23.0542
0.035724	24.8276
0.042219	27.0443
0.045466	16.8473
0.058457	20.3941
0.061704	31.4778
0.0682	33.6946
0.074695	23.4975
0.087685	25.7143
0.100676	39.0148
0.10717	29.2611
0.120161	42.5616
0.123409	31.4778
0.126656	43.0049
0.139647	34.1379
0.152637	35.468
0.155884	46.1084
0.159132	46.5517
0.172123	38.1281
0.181865	39.0148
0.18836	49.2118
0.207846	41.2315
0.211093	50.9852
0.214341	42.1182
0.237074	43.4483
0.24357	44.335
0.269551	45.665
0.272798	54.0887
0.276046	46.5517
0.302027	55.4187
0.305274	48.3251
0.331255	50.0985
0.334502	56.7488
0.340997	50.5419
0.360483	51.4286
0.36373	51.8719
0.386464	59.8522
0.389711	53.202
0.396207	53.6453
0.422188	61.6256
0.451416	56.3054
0.457911	62.5123
0.464406	72.7094
0.467653	75.8128
0.470902	86.8966
0.474149	91.7734
0.477397	97.9803
0.480644	70.936
0.483892	73.5961
0.490387	87.3399
0.493634	110.394
0.503378	113.941
0.506625	99.7537
0.509872	103.3
0.51312	106.404
0.516367	120.148
0.519616	121.478
0.526111	112.611
0.529358	124.581
0.539101	117.044
0.542348	118.374
0.545597	129.015
0.558586	131.232
0.565081	125.468
0.574825	127.685
0.58132	134.335
0.584567	135.222
0.59431	129.458
0.604053	131.232
0.610548	137.882
0.623539	133.448
0.636529	135.222
0.639776	140.099
0.665757	136.552
0.669004	140.985
0.694985	137.882
0.698234	141.429
0.730709	142.315
0.75669	139.655
0.759938	142.759
0.785918	143.202
0.789166	140.099
0.818394	143.202
0.847622	143.202
0.880099	141.429
0.909327	141.872
0.912574	143.202
0.938555	143.202
0.967783	143.202
0.971031	142.315
1.00351	142.759
