Adsorption isotherm of Carbon Dioxide on Micro-Co-MOF
DOI: 10.1021/cg501324r
Article source: Figure 6b
Adsorbate Carbon Dioxide: InChIKey CURLTUGMZLYLDI-UHFFFAOYSA-N
Kind: experiment
Temperature: 273 K
Tabular data in the source: 0
pressure (bar)	uptake (cm3(STP)/g)
0.003248	1.77778
0.016238	1.77778
0.032476	2.22222
0.035724	0.444444
0.064952	2.66667
0.09418	3.55556
0.097428	0.888889
0.123409	3.11111
0.126656	1.33333
0.14939	4
0.159132	1.77778
0.185113	4
0.18836	1.77778
0.211093	4.44444
0.214341	1.77778
0.240322	4.44444
0.246818	2.22222
0.272798	4.44444
0.279293	2.66667
0.308521	4.88889
0.33775	4.88889
0.366978	4.88889
0.370226	2.66667
0.396207	3.55556
0.399455	5.33333
0.428683	4.88889
0.435178	3.11111
0.461158	5.33333
0.467653	3.55556
0.490387	5.33333
0.516367	5.77778
0.519616	4
0.545597	5.77778
0.552092	4
0.58132	5.77778
0.607301	6.22222
0.610548	4.44444
0.636529	5.77778
0.64952	4.44444
0.669004	6.22222
0.6755	4.88889
0.701481	6.22222
0.707976	5.33333
0.727462	5.33333
0.730709	6.22222
0.759938	6.22222
0.763185	4.88889
0.792413	5.77778
0.821641	5.77778
0.850871	6.66667
0.854118	5.77778
0.880099	6.66667
0.912574	6.66667
0.919069	6.22222
0.935308	6.66667
0.94505	6.66667
0.967783	7.11111
1.00026	6.66667
