Adsorption isotherm of Carbon Dioxide on Co-MOF
DOI: 10.1021/cg501324r
Article source: Figure 6a
Adsorbate Carbon Dioxide: InChIKey CURLTUGMZLYLDI-UHFFFAOYSA-N
Kind: experiment
Temperature: 273 K
Tabular data in the source: 0
pressure (bar)	uptake (cm3(STP)/g)
0.006495	3.11111
0.009743	3.55556
0.022733	4
0.032476	0.444444
0.035724	4
0.061704	4.44444
0.090933	4.88889
0.09418	1.33333
0.123409	5.33333
0.126656	1.33333
0.155884	5.77778
0.181865	6.22222
0.185113	2.22222
0.214341	6.22222
0.217589	2.22222
0.24357	6.66667
0.272798	3.11111
0.276046	6.66667
0.302027	7.11111
0.305274	3.11111
0.334502	7.11111
0.344246	3.55556
0.36373	7.55556
0.366978	4
0.396207	7.55556
0.399455	4.44444
0.422188	8
0.428683	4.88889
0.454664	8
0.461158	4.88889
0.483892	8.44444
0.487139	4.88889
0.516367	8.44444
0.519616	5.33333
0.545597	5.33333
0.578072	8.88889
0.58132	5.77778
0.607301	5.77778
0.636529	8.88889
0.639776	6.22222
0.665757	8.88889
0.669004	6.66667
0.698234	9.33333
0.727462	9.33333
0.730709	7.11111
0.75669	9.33333
0.763185	7.11111
0.789166	9.33333
0.792413	7.55556
0.818394	9.77778
0.821641	8
0.850871	9.77778
0.876851	9.77778
0.883346	8.44444
0.912574	8.88889
0.935308	9.77778
0.94505	8.88889
0.967783	9.77778
0.971031	9.33333
1.00351	9.33333
