Adsorption isotherm of Carbon Dioxide on Î³-alumina
DOI: 10.1007/s10450-021-00332-w
Article source: Figure 3
Adsorbate Carbon Dioxide: InChIKey CURLTUGMZLYLDI-UHFFFAOYSA-N
Kind: experiment
Temperature: 298 K
Tabular data in the source: 0
pressure (bar)	uptake (mmol/g)
0.00037	0.03224
0.00044	0.03582
0.00051	0.0394
0.00073	0.0394
0.00083	0.0394
0.00092	0.04299
0.00102	0.04299
0.00208	0.04657
0.003	0.05015
0.00406	0.05552
0.00505	0.0591
0.00707	0.0609
0.00806	0.06806
0.00907	0.06806
0.01008	0.07164
0.0317	0.08239
0.04207	0.09313
0.05263	0.10209
0.10233	0.12716
0.1519	0.15045
0.20294	0.17194
0.25218	0.19343
0.30124	0.21134
0.3528	0.23284
0.40246	0.25075
0.45608	0.26866
0.55567	0.2991
0.65508	0.32955
0.70428	0.34567
0.75718	0.36179
0.86374	0.38687
0.91045	0.40299
0.97241	0.4191
1.01159	0.43701
