Adsorption isotherm of Nitrogen on Î³-alumina
DOI: 10.1007/s10450-021-00332-w
Article source: Figure 2
Adsorbate Nitrogen: InChIKey IJGRMHOSHXDMSA-UHFFFAOYSA-N
Kind: experiment
Temperature: 77 K
Tabular data in the source: 0
pressure (bar)	uptake (mmol/g)
1e-05	0.1637
3e-05	0.2625
4e-05	0.3283
7e-05	0.3876
9e-05	0.4139
0.00011	0.4468
0.00022	0.5324
0.00044	0.6246
0.00061	0.6773
0.00086	0.7299
0.00105	0.7431
0.00213	0.8353
0.0031	0.8879
0.00422	0.9406
0.00514	0.9669
0.00622	0.9867
0.00712	1.013
0.0081	1.0328
0.00905	1.0459
0.00963	1.0525
0.01012	1.0657
0.02145	1.1842
0.02956	1.25
0.04174	1.3159
0.05021	1.362
0.06041	1.408
0.07091	1.4541
0.0807	1.4871
0.08962	1.5331
0.09649	1.5529
0.20339	1.9084
0.40807	2.6655
0.5063	3.2251
0.6091	4.2061
0.70619	5.4307
0.75572	5.7994
0.81372	5.9969
0.86544	6.2141
0.90917	6.4841
0.96102	7.0502
0.97895	7.3794
1.00338	7.814
