Adsorption isotherm of Carbon Dioxide on Î³-alumina
DOI: 10.1007/s10450-021-00332-w
Article source: Figure 3
Adsorbate Carbon Dioxide: InChIKey CURLTUGMZLYLDI-UHFFFAOYSA-N
Kind: experiment
Temperature: 298 K
Tabular data in the source: 0
pressure (bar)	uptake (mmol/g)
0.3347	0.16478
0.57427	0.24358
0.76722	0.28657
0.9853	0.32955
1.48196	0.41194
1.95399	0.48358
3.92641	0.68418
5.98389	0.84179
7.99443	0.97075
9.86919	1.08537
14.844	1.32896
19.8315	1.55821
38.3066	2.12776
