Adsorption isotherm of Nitrogen on MOF-74-Ni
DOI: 10.1021/Cg500190h
Article source: Figure 4
Adsorbate Nitrogen: InChIKey IJGRMHOSHXDMSA-UHFFFAOYSA-N
Kind: experiment
Temperature: 77 K
Tabular data in the source: 0
pressure (bar)	uptake (cm3(STP)/g)
0.012772	121.49
0.03193	130.659
0.051088	137.536
0.072375	142.12
0.093662	144.413
0.11282	146.705
0.134107	151.289
0.155393	151.289
0.17668	153.582
0.197967	155.874
0.219254	155.874
0.24054	155.874
0.259699	158.166
0.280985	158.166
0.302272	160.458
0.323559	162.751
0.344845	162.751
0.366133	162.751
0.389548	162.751
0.412963	165.043
0.440636	165.043
0.464051	165.043
0.478952	167.335
0.500238	174.212
0.521526	167.335
0.542812	169.628
0.5641	169.628
0.585386	171.92
0.606672	171.92
0.62796	171.92
0.649246	171.92
0.668405	174.212
0.689691	174.212
0.710978	174.212
0.725879	176.504
0.747166	176.504
0.768452	176.504
0.789739	178.797
0.811026	178.797
0.832313	181.089
0.85147	183.381
0.872758	185.673
0.894044	187.966
0.913203	192.55
0.934489	199.427
0.953647	208.596
0.970676	222.35
0.985577	238.395
0.991964	247.564
1.00048	256.734
