Adsorption isotherm of Nitrogen on MOF-74-Ni
DOI: 10.1021/Cg500190h
Article source: Figure 4
Adsorbate Nitrogen: InChIKey IJGRMHOSHXDMSA-UHFFFAOYSA-N
Kind: experiment
Temperature: 77 K
Tabular data in the source: 0
pressure (bar)	uptake (cm3(STP)/g)
0.012772	121.49
0.03193	130.659
0.051088	137.536
0.072375	142.12
0.093662	144.413
0.11282	146.705
0.134107	151.289
0.155393	151.289
0.17668	153.582
0.197967	155.874
0.219254	155.874
0.24054	155.874
0.259699	158.166
0.280985	158.166
0.302272	160.458
0.323559	162.751
0.344845	162.751
0.366133	162.751
0.389548	162.751
0.412963	165.043
0.427864	167.335
0.447022	171.92
0.468309	171.92
0.489595	171.92
0.515139	174.212
0.525784	176.504
0.54707	176.504
0.568356	176.504
0.589644	176.504
0.61093	176.504
0.632217	178.797
0.653504	178.797
0.67479	178.797
0.696077	178.797
0.717364	181.089
0.738651	181.089
0.757809	183.381
0.779096	183.381
0.800382	185.673
0.821669	187.966
0.842956	190.258
0.862114	192.55
0.883401	199.427
0.902559	208.596
0.911074	213.181
0.925975	226.934
0.93236	231.519
0.94939	240.688
0.968547	249.857
0.987706	256.734
