Adsorption isotherm of Nitrogen on Zn-MOF-74
DOI: 10.1021/Cg500190h
Article source: Figure 4
Adsorbate Nitrogen: InChIKey IJGRMHOSHXDMSA-UHFFFAOYSA-N
Kind: experiment
Temperature: 77 K
Tabular data in the source: 0
pressure (bar)	uptake (cm3(STP)/g)
0.019158	210.888
0.038316	217.765
0.046831	222.35
0.068118	224.642
0.076632	226.934
0.097919	229.226
0.114948	231.519
0.136236	233.811
0.159651	236.103
0.180937	236.103
0.212868	240.688
0.234154	240.688
0.255441	242.98
0.272471	245.272
0.293757	245.272
0.315044	247.564
0.329945	249.857
0.351232	249.857
0.372518	252.149
0.393805	254.441
0.415092	254.441
0.43425	256.734
0.457666	259.026
0.478952	259.026
0.500238	261.318
0.513012	263.61
0.534298	263.61
0.555584	268.195
0.574743	270.487
0.596029	272.779
0.617316	275.072
0.647117	279.656
0.668405	281.948
0.687562	286.533
0.708849	291.117
0.730136	295.702
0.747166	300.287
0.768452	304.871
0.78761	314.04
0.806768	323.209
0.823798	336.963
0.838698	346.132
0.849342	357.593
0.864242	380.516
0.877014	401.146
0.887658	424.069
0.896173	444.699
0.898302	465.33
0.902559	485.96
0.908945	513.467
0.913203	536.39
0.917459	593.696
0.919588	639.542
0.921717	662.464
0.923846	685.387
0.925975	731.232
0.930231	754.155
0.934489	777.077
0.945132	793.123
0.964291	800
0.981319	800
0.994091	804.585
