Adsorption isotherm of Nitrogen on MOF-74-Co
DOI: 10.1021/Cg500190h
Article source: Figure 4
Adsorbate Nitrogen: InChIKey IJGRMHOSHXDMSA-UHFFFAOYSA-N
Kind: experiment
Temperature: 77 K
Tabular data in the source: 0
pressure (bar)	uptake (cm3(STP)/g)
0.017029	93.9828
0.025544	105.444
0.034059	110.029
0.04896	116.905
0.068118	121.49
0.083018	126.074
0.102176	130.659
0.123463	135.244
0.142621	137.536
0.166037	142.12
0.187324	146.705
0.20861	148.997
0.22564	151.289
0.242669	155.874
0.263956	160.458
0.285243	160.458
0.306529	165.043
0.327816	167.335
0.346974	171.92
0.368261	174.212
0.38529	176.504
0.404449	181.089
0.425735	183.381
0.442765	187.966
0.459795	194.842
0.481081	199.427
0.500238	201.719
0.523655	201.719
0.54707	201.719
0.570485	204.011
0.591772	201.719
0.615188	204.011
0.644989	204.011
0.683305	204.011
0.715235	204.011
0.738651	204.011
0.75568	204.011
0.781224	204.011
0.811026	204.011
0.85147	204.011
0.891915	204.011
0.93236	206.304
0.96642	206.304
0.994091	206.304
