Adsorption isotherm of Nitrogen on Mg-MOF-74
DOI: 10.1021/Cg500190h
Article source: Figure 4
Adsorbate Nitrogen: InChIKey IJGRMHOSHXDMSA-UHFFFAOYSA-N
Kind: experiment
Temperature: 77 K
Tabular data in the source: 0
pressure (bar)	uptake (cm3(STP)/g)
0.029802	224.642
0.04896	236.103
0.068118	242.98
0.089404	249.857
0.108563	254.441
0.129849	259.026
0.149008	265.903
0.170294	268.195
0.189452	272.779
0.210739	277.364
0.232026	279.656
0.251184	284.241
0.272471	286.533
0.293757	291.117
0.312916	293.41
0.334202	297.994
0.355489	300.287
0.374647	304.871
0.395934	307.163
0.417221	314.04
0.429993	318.625
0.444894	323.209
0.461922	334.67
0.474694	353.009
0.487466	371.347
0.502367	389.685
0.517268	405.731
0.536427	410.315
0.557713	412.607
0.579	412.607
0.600287	414.9
0.621573	414.9
0.642861	414.9
0.664147	417.192
0.685434	417.192
0.706721	417.192
0.728007	417.192
0.749294	417.192
0.768452	419.484
0.789739	419.484
0.811026	419.484
0.832313	419.484
0.849342	419.484
0.870629	419.484
0.887658	417.192
0.906816	417.192
0.917459	419.484
0.938747	419.484
0.960033	421.777
0.981319	421.777
1.00261	421.777
