Adsorption isotherm of Nitrogen on Zn-MOF-74
DOI: 10.1021/Cg500190h
Article source: Figure 4
Adsorbate Nitrogen: InChIKey IJGRMHOSHXDMSA-UHFFFAOYSA-N
Kind: experiment
Temperature: 77 K
Tabular data in the source: 0
pressure (bar)	uptake (cm3(STP)/g)
0.014901	206.304
0.034059	213.181
0.046831	215.473
0.068118	217.765
0.089404	217.765
0.110691	220.057
0.123463	222.35
0.138364	226.934
0.159651	226.934
0.180937	229.226
0.189452	231.519
0.210739	231.519
0.232026	233.811
0.244798	236.103
0.266085	236.103
0.274599	238.395
0.295886	238.395
0.310787	240.688
0.332073	240.688
0.35336	242.98
0.370389	245.272
0.391677	245.272
0.412963	247.564
0.425735	249.857
0.447022	249.857
0.468309	252.149
0.481081	254.441
0.502367	254.441
0.523655	256.734
0.538556	259.026
0.559842	259.026
0.583257	263.61
0.604544	265.903
0.625831	268.195
0.644989	270.487
0.666276	275.072
0.679048	277.364
0.700334	279.656
0.719493	284.241
0.740779	288.825
0.762066	293.41
0.779096	300.287
0.825926	320.917
0.845085	332.378
0.859985	339.255
0.872758	357.593
0.88553	375.931
0.898302	394.269
0.908945	414.9
0.917459	430.946
0.921717	453.868
0.928103	474.499
0.934489	497.421
0.938747	529.513
0.943003	552.436
0.945132	577.65
0.947261	595.989
0.951519	616.619
0.953647	632.665
0.955775	648.711
0.957904	671.633
0.962162	694.556
0.964291	717.479
0.968547	740.401
0.970676	761.032
0.983448	779.37
0.99622	797.708
