Adsorption isotherm of Nitrogen on Mn-MOF-74
DOI: 10.1021/Cg500190h
Article source: Figure 4
Adsorbate Nitrogen: InChIKey IJGRMHOSHXDMSA-UHFFFAOYSA-N
Kind: experiment
Temperature: 77 K
Tabular data in the source: 0
pressure (bar)	uptake (cm3(STP)/g)
0.03193	105.444
0.051088	112.321
0.072375	116.905
0.093662	121.49
0.11282	123.782
0.134107	126.074
0.155393	130.659
0.174552	132.951
0.195838	135.244
0.219254	139.828
0.24054	139.828
0.261827	144.413
0.280985	146.705
0.302272	148.997
0.323559	151.289
0.344845	153.582
0.364004	155.874
0.381033	155.874
0.400191	162.751
0.421478	167.335
0.442765	171.92
0.459795	176.504
0.481081	178.797
0.500238	181.089
0.521526	185.673
0.542812	187.966
0.559842	192.55
0.579	197.135
0.606672	204.011
0.625831	208.596
0.642861	213.181
0.664147	220.057
0.685434	224.642
0.698206	233.811
0.717364	242.98
0.736522	254.441
0.75568	265.903
0.772709	277.364
0.789739	291.117
0.802511	302.579
0.817412	316.332
0.830184	327.794
0.840827	346.132
0.853599	364.47
0.862114	387.393
0.872758	410.315
0.879143	424.069
0.88553	435.53
0.891915	451.576
0.896173	465.33
0.902559	481.375
0.908945	497.421
0.917459	518.052
0.925975	538.682
0.936618	559.312
0.947261	579.943
0.951519	595.989
0.960033	616.619
0.968547	639.542
0.974934	660.172
0.981319	680.802
0.987706	699.14
0.994091	719.771
