Adsorption isotherm of Nitrogen on Zn-MOF-74
DOI: 10.1021/Cg500190h
Article source: Figure 4
Adsorbate Nitrogen: InChIKey IJGRMHOSHXDMSA-UHFFFAOYSA-N
Kind: experiment
Temperature: 77 K
Tabular data in the source: 0
pressure (bar)	uptake (cm3(STP)/g)
0.019158	210.888
0.038316	213.181
0.061732	213.181
0.076632	217.765
0.102176	217.765
0.121335	217.765
0.142621	217.765
0.163908	220.057
0.187324	220.057
0.20861	220.057
0.229897	220.057
0.251184	220.057
0.272471	220.057
0.325688	220.057
0.346974	220.057
0.368261	220.057
0.387419	222.35
0.408706	222.35
0.429993	222.35
0.451279	222.35
0.472567	222.35
0.493853	222.35
0.515139	222.35
0.536427	224.642
0.557713	224.642
0.579	224.642
0.600287	224.642
0.621573	224.642
0.642861	224.642
0.668405	224.642
0.696077	224.642
0.732265	224.642
0.745037	224.642
0.766324	224.642
0.78761	224.642
0.808897	224.642
0.830184	226.934
0.842956	226.934
0.864242	226.934
0.877014	226.934
0.898302	226.934
0.913203	226.934
0.936618	229.226
0.955775	229.226
0.983448	231.519
1.00474	236.103
