Adsorption isotherm of Nitrogen on Mn-MOF-74
DOI: 10.1021/Cg500190h
Article source: Figure 4
Adsorbate Nitrogen: InChIKey IJGRMHOSHXDMSA-UHFFFAOYSA-N
Kind: experiment
Temperature: 77 K
Tabular data in the source: 0
pressure (bar)	uptake (cm3(STP)/g)
0.03193	105.444
0.051088	112.321
0.072375	116.905
0.093662	121.49
0.11282	123.782
0.134107	126.074
0.155393	130.659
0.174552	132.951
0.195838	135.244
0.219254	139.828
0.24054	139.828
0.261827	144.413
0.280985	146.705
0.302272	148.997
0.323559	151.289
0.344845	153.582
0.364004	155.874
0.381033	155.874
0.410834	162.751
0.43425	167.335
0.457666	171.92
0.485339	171.92
0.513012	178.797
0.544941	183.381
0.570485	187.966
0.596029	194.842
0.630089	204.011
0.653504	210.888
0.676919	215.473
0.702463	224.642
0.72375	233.811
0.742908	242.98
0.762066	254.441
0.781224	265.903
0.798254	277.364
0.815283	291.117
0.830184	304.871
0.847213	323.209
0.862114	343.84
0.877014	359.885
0.894044	382.808
0.902559	405.731
0.913203	430.946
0.928103	456.16
0.936618	476.791
0.943003	499.713
0.951519	520.344
0.957904	543.266
0.962162	563.897
0.968547	586.819
0.974934	607.45
0.979192	630.372
0.983448	653.295
0.987706	669.341
0.991964	687.679
0.99622	712.894
