Adsorption isotherm of Nitrogen on Mg-MOF-74
DOI: 10.1021/Cg500190h
Article source: Figure 4
Adsorbate Nitrogen: InChIKey IJGRMHOSHXDMSA-UHFFFAOYSA-N
Kind: experiment
Temperature: 77 K
Tabular data in the source: 0
pressure (bar)	uptake (cm3(STP)/g)
0.029802	224.642
0.04896	236.103
0.068118	242.98
0.089404	249.857
0.108563	254.441
0.129849	259.026
0.149008	265.903
0.170294	268.195
0.189452	272.779
0.210739	277.364
0.232026	279.656
0.251184	284.241
0.272471	286.533
0.293757	291.117
0.312916	293.41
0.334202	297.994
0.355489	300.287
0.374647	304.871
0.395934	307.163
0.415092	314.04
0.436378	316.332
0.444894	316.332
0.46618	320.917
0.485339	325.501
0.506625	330.086
0.525784	334.67
0.54707	336.963
0.566228	343.84
0.587515	348.424
0.606672	353.009
0.62796	357.593
0.647117	364.47
0.668405	369.054
0.687562	375.931
0.708849	380.516
0.728007	387.393
0.749294	391.977
0.768452	398.854
0.789739	401.146
0.808897	405.731
0.830184	410.315
0.847213	412.607
0.866371	414.9
0.887658	417.192
0.906816	417.192
0.917459	419.484
0.938747	419.484
0.960033	421.777
0.981319	421.777
1.00261	421.777
