Adsorption isotherm of Nitrogen on ZIF-69
DOI: 10.1021/acs.iecr.6b02175
Article source: Figure 4
Adsorbate Nitrogen: InChIKey IJGRMHOSHXDMSA-UHFFFAOYSA-N
Kind: experiment
Temperature: 77 K
Tabular data in the source: 0
pressure (bar)	uptake (cm3(STP)/g)
0.008025	191.3
0.014155	194.68
0.021309	199.96
0.024825	201.52
0.028462	202.47
0.051392	206.4
0.081354	211.88
0.09328	211.54
0.103493	213.5
0.124376	214.92
0.133567	214.04
0.149465	216.01
0.163427	217.09
0.168422	217.76
0.179315	217.56
0.193733	218.91
0.203268	218.78
0.228012	219.79
0.2355	220.06
0.264215	221.06
0.265806	221.08
0.299628	221.48
0.30133	222.36
0.335497	222.83
0.336632	222.89
0.356157	224.39
0.368864	223.1
0.403152	225.27
0.408826	225.87
0.439923	226.48
0.441625	224.92
0.47488	226.21
0.478284	230.07
0.511539	226
0.513931	234.2
0.545818	226.88
0.548776	233.79
0.581008	227.42
0.58498	234.87
0.616309	228.84
0.619714	236.63
0.65081	228.5
0.654904	235.54
0.686791	228.43
0.691229	235.88
0.72039	229.98
0.725953	236.69
0.757627	230.59
0.763301	237.97
0.79224	231.6
0.797924	237.9
0.829244	233.02
0.831513	237.7
0.865001	233.43
0.866471	233.34
0.883959	237.96
0.901205	234.71
0.920274	239.11
0.93446	236.61
0.971129	238.09
1.00609	239.58
