Adsorption isotherm of Nitrogen on Zeolite 5A
DOI: 10.1021/acs.iecr.6b02175
Article source: Figure 4
Adsorbate Nitrogen: InChIKey IJGRMHOSHXDMSA-UHFFFAOYSA-N
Kind: experiment
Temperature: 77 K
Tabular data in the source: 0
pressure (bar)	uptake (cm3(STP)/g)
0.001439	188.18
0.00155	185
0.00156	186.78
0.001621	82.07
0.001814	5.89
0.002168	27.02
0.002219	150.53
0.002341	163.4
0.002412	76.25
0.002442	140.51
0.002452	169.76
0.002513	38.39
0.002523	60.88
0.002553	135.64
0.002574	178.97
0.002634	50.85
0.002888	107.87
0.002928	207.82
0.002969	43.81
0.002999	124.73
0.003019	173.96
0.003111	98.32
0.003131	155.41
0.003212	71.85
0.003293	14.63
0.003344	131.17
0.003445	87.02
0.003496	217.64
0.003557	93.45
0.003648	31.49
0.003719	198.54
0.00379	113.02
0.003911	116.47
0.004458	66.63
0.00532	223.26
0.006687	238.09
0.007245	231.52
0.009535	259.49
0.010203	266.28
0.010214	266.33
0.01146	254.48
0.012716	278.69
0.01759	274.99
0.04587	313.12
0.052122	324.9
0.08027	328.35
0.087758	327
0.110687	331.06
0.121357	331.67
0.13691	333.02
0.158482	334.78
0.166315	334.3
0.1965	335.93
0.20036	336.33
0.225337	336.87
0.232034	337.28
0.256889	338.84
0.268582	339.17
0.282991	339.31
0.306153	340.8
0.314432	339.64
0.340543	341
0.344971	342.28
0.368235	342.42
0.381408	343.5
0.397751	343.16
0.417044	344.65
0.429192	344.58
0.453257	348.3
0.456094	344.24
0.485266	345.05
0.491396	349.99
0.515005	348.03
0.527143	351.14
0.544176	349.11
0.564826	351.07
0.574472	349.04
0.599226	352.76
0.601941	350.12
0.62862	352.02
0.637588	354.18
0.658359	353.77
0.673001	355.67
0.686619	353.43
0.711139	357.43
0.746552	359.05
0.775157	358.03
0.785715	361.82
0.805807	361.08
0.820905	366.02
0.83429	362.36
0.860168	363.85
0.860401	364
0.891619	369.4
0.895024	378.75
0.9192	373.12
0.933163	389.04
0.949284	381.04
0.968819	418.63
0.976986	401.42
1.00481	447.27
1.00731	446.79
