Adsorption isotherm of Nitrogen on Zeolite 5A
DOI: 10.1021/acs.iecr.6b02175
Article source: Figure 4
Adsorbate Nitrogen: InChIKey IJGRMHOSHXDMSA-UHFFFAOYSA-N
Kind: experiment
Temperature: 77 K
Tabular data in the source: 0
pressure (bar)	uptake (cm3(STP)/g)
0	50.38
3e-05	104.18
4.1e-05	101.17
0.000355	25.12
0.00073	126.02
0.003465	152.5
0.009261	163.94
0.00994	157.51
0.017428	158.12
0.028442	161.1
0.032079	161.37
0.048423	164.82
0.053753	163.53
0.07192	165.43
0.07646	164.95
0.090534	166.64
0.094161	167.12
0.112663	166.85
0.115845	167.86
0.120496	167.93
0.132867	168.81
0.142291	168.81
0.154095	169.42
0.16363	170.23
0.173164	169.69
0.182132	169.55
0.194503	169.95
0.205173	170.7
0.214029	170.43
0.232754	171.04
0.236726	171.04
0.251479	171.85
0.256818	171.17
0.274297	171.98
0.276567	171.64
0.292454	172.25
0.294613	172.45
0.313793	172.45
0.316864	172.52
0.336612	173.4
0.348761	174.01
0.356137	174.07
0.367597	174.41
0.374406	174.55
0.387122	174.34
0.395178	174.41
0.414703	175.09
0.425606	179.62
0.4374	174.2
0.4466	179.08
0.456591	175.02
0.468284	179.48
0.477362	174.95
0.487687	179.35
0.497789	174.74
0.515268	179.35
0.52004	175.62
0.535928	179.75
0.538309	176.09
0.554998	176.09
0.558514	175.96
0.574513	175.96
0.579174	175.69
0.596196	175.82
0.597676	179.41
0.615722	180.9
0.618326	175.75
0.636828	176.49
0.638651	180.29
0.656697	179.68
0.658734	175.54
0.678492	179.47
0.679627	176.22
0.697562	180.01
0.699142	176.22
0.71958	177.23
0.730584	179.6
0.740463	177.23
0.752156	176.89
0.762704	177.23
0.776899	176.96
0.782006	176.89
0.798806	176.96
0.802433	177.02
0.817186	176.96
0.829446	177.43
0.840005	177.09
0.852944	178.04
0.859185	177.83
0.871446	177.22
0.879045	178.58
0.896412	179.66
0.904022	178.24
0.9215	178.37
0.931602	179.32
0.942728	179.11
0.952262	179.72
0.954644	179.66
0.961909	179.18
0.972234	178.57
0.976895	178.71
0.98268	178.71
0.993005	178.23
0.993917	180.01
0.997099	184.93
1.01253	182.7
