Adsorption isotherm of Nitrogen on CuBTC
DOI: 10.1016/j.cej.2015.07.020
Article source: Figure 5
Adsorbate Nitrogen: InChIKey IJGRMHOSHXDMSA-UHFFFAOYSA-N
Kind: experiment
Temperature: 333 K
Tabular data in the source: 0
pressure (bar)	uptake (mmol/g)
0	0
0.247529	0.04322
0.499682	0.08389
0.749972	0.12537
1.00172	0.16799
1.99982	0.32957
2.99234	0.49325
3.98312	0.64439
4.97603	0.79769
5.97639	0.92633
6.98806	1.06116
7.98403	1.19752
9.00289	1.31368
10.0257	1.45103
11.0031	1.55127
12.0189	1.68152
12.9965	1.80438
13.9786	1.88521
14.9687	1.99926
15.9716	2.10628
16.983	2.22737
18.002	2.29601
18.9996	2.40836
