Adsorption isotherm of Nitrogen on CuBTC
DOI: 10.1016/j.cej.2015.07.020
Article source: Figure 5
Adsorbate Nitrogen: InChIKey IJGRMHOSHXDMSA-UHFFFAOYSA-N
Kind: experiment
Temperature: 293 K
Tabular data in the source: 0
pressure (bar)	uptake (mmol/g)
0	0
0.099697	0.028659
0.249392	0.071492
0.499815	0.14262
0.749173	0.212798
0.99933	0.282561
1.99636	0.554406
2.99473	0.817068
3.99403	1.0709
4.99359	1.31619
5.99382	1.55345
6.99099	1.78222
7.99029	2.00409
8.99011	2.21902
9.98396	2.426
10.9912	2.6293
11.9945	2.82563
12.995	3.01554
13.9946	3.19968
14.9917	3.37807
16.0071	3.55448
17.0044	3.72283
18.0051	3.88706
19.002	4.04618
19.2845	4.1239
