Adsorption isotherm of Carbon Dioxide on CuBTC
DOI: 10.1016/j.cej.2015.07.020
Article source: Figure 5
Adsorbate Carbon Dioxide: InChIKey CURLTUGMZLYLDI-UHFFFAOYSA-N
Kind: experiment
Temperature: 293 K
Tabular data in the source: 0
pressure (bar)	uptake (mmol/g)
0	0
0.025641	0.14283
0.109606	0.63778
0.248393	1.43454
0.501484	2.82024
0.75005	4.01387
0.997286	5.02223
1.99794	7.74877
2.99726	9.37182
3.99006	10.4037
5.01227	11.1276
5.99283	11.6358
7.00932	12.0393
7.98815	12.3494
9.00025	12.6157
9.98799	12.8387
10.9988	13.0339
12.0134	13.2081
12.6413	13.3053
14.0188	13.4997
14.7392	13.5916
15.1946	13.6536
17.0119	13.8525
17.9747	13.9521
18.8997	14.0441
19.4879	14.0987
