Adsorption isotherm of Carbon Dioxide on CuBTC
DOI: 10.1016/j.cej.2015.07.020
Article source: Figure 5
Adsorbate Carbon Dioxide: InChIKey CURLTUGMZLYLDI-UHFFFAOYSA-N
Kind: experiment
Temperature: 333 K
Tabular data in the source: 0
pressure (bar)	uptake (mmol/g)
0	0
0.087118	0.16446
0.09936	0.18374
0.251054	0.47166
0.501085	0.92066
0.748187	1.34629
0.999415	1.74951
2.00047	3.27529
2.99926	4.49657
3.9898	5.46784
4.99458	6.32845
5.9943	7.04738
6.98923	7.65683
7.98283	8.17315
8.99147	8.61629
9.96657	8.99603
10.9624	9.33069
12.0022	9.63338
12.9981	9.89229
13.9969	10.1369
14.9758	10.3347
15.9994	10.5359
16.9991	10.7135
17.9949	10.8737
18.9928	11.0276
19.4998	11.1067
