Adsorption isotherm of Nitrogen on CuBTC
DOI: 10.1021/Jp7100094
Adsorbate Nitrogen: InChIKey IJGRMHOSHXDMSA-UHFFFAOYSA-N
Temperature: 77 K
Tabular data in the source: 0
pressure (bar)	uptake (ml/g)
2.36e-05	63.5417
0.000238027	191.667
0.000762767	256.25
0.00145444	320.833
0.00329992	345.833
0.00948204	361.458
0.0196662	365.625
0.0285149	369.792
0.0405341	370.833
0.047712	370.833
0.0587296	371.875
0.0695803	372.917
0.0809318	373.958
0.0847711	373.958
