Adsorption isotherm of Nitrogen on [Nd(HCOO)3]n
DOI: 10.1007/s10562-011-0731-y
Adsorbate Nitrogen: InChIKey IJGRMHOSHXDMSA-UHFFFAOYSA-N
Temperature: 77 K
Tabular data in the source: 0
pressure (bar)	uptake (cm3(STP)/g)
0.0189257	0.421053
0.04416	0.526316
0.0651886	0.736842
0.08832	0.842105
0.11776	1
0.157714	1.31579
0.195566	1.57895
0.233417	1.89474
0.275474	2.26316
0.311223	2.57895
0.351177	2.94737
0.386926	3.26316
0.42688	3.68421
0.462629	4.15789
0.504686	4.52632
0.54464	5
0.584594	5.52632
0.620343	6
0.639269	6.31579
0.660297	6.52632
0.683429	6.89474
0.702354	7.15789
0.738103	7.78947
0.759131	8.05263
0.78016	8.42105
0.811703	8.89474
0.841143	9.36842
0.862171	9.78947
0.889509	10.3684
0.910537	10.8947
0.937874	12.1053
0.946286	12.8421
0.954697	13.8947
0.958903	15.2632
