Adsorption isotherm of Methane on Graphite, C8
DOI: 10.1021/acs.energyfuels.6b03144
Article source: Figure 18
Adsorbate Methane: InChIKey VNWKTOKETHGBQD-UHFFFAOYSA-N
Kind: experiment
Temperature: 333 K
Tabular data in the source: 0
pressure (bar)	uptake (mmol/m2)
19.18	0.003722
40.36	0.005285
60.82	0.006309
80.05	0.006978
98.93	0.007467
120.75	0.007936
140.23	0.008451
161.32	0.008704
180.32	0.008813
200.55	0.008845
239.67	0.008929
280.26	0.008869
320.48	0.008984
360.33	0.00894
400.18	0.008978
