Adsorption isotherm of Methane on Graphite, 0.0625 O/C atomic ratio
DOI: 10.1021/acs.energyfuels.6b03144
Article source: Figure 9c
Adsorbate Methane: InChIKey VNWKTOKETHGBQD-UHFFFAOYSA-N
Kind: experiment
Isotherm type: absolute
Temperature: 333 K
Tabular data in the source: 0
pressure (bar)	uptake (mmol/m2)
11.73	0.003773
23.29	0.005453
41.24	0.006765
80.9	0.008102
120.87	0.008972
160.03	0.009056
202.29	0.009118
