Adsorption isotherm of Methane on Graphite, C16
DOI: 10.1021/acs.energyfuels.6b03144
Article source: Figure 18
Adsorbate Methane: InChIKey VNWKTOKETHGBQD-UHFFFAOYSA-N
Kind: experiment
Temperature: 333 K
Tabular data in the source: 0
pressure (bar)	uptake (mmol/m2)
19.76	0.002746
39.4	0.004322
60.75	0.005173
79.78	0.005888
99.54	0.006389
119.67	0.006859
140.77	0.007073
159.56	0.007276
180.05	0.007449
200.43	0.007709
239.59	0.007725
279.35	0.008064
320.1	0.008075
359.99	0.008033
399.15	0.008023
