Adsorption isotherm of Methane on Graphite, C8
DOI: 10.1021/acs.energyfuels.6b03144
Article source: Figure 21
Adsorbate Methane: InChIKey VNWKTOKETHGBQD-UHFFFAOYSA-N
Kind: experiment
Temperature: 333 K
Tabular data in the source: 0
pressure (bar)	uptake (mmol/m2)
19.59	0.004514
39.78	0.006106
60.27	0.007209
79.04	0.007942
99.38	0.00853
119.35	0.008988
139.46	0.009344
159.95	0.009744
179.7	0.009796
199.51	0.009838
239.59	0.009974
280.35	0.010078
320.06	0.010176
360.14	0.010192
401.43	0.010216
