Adsorption isotherm of Methane on Graphite, C4
DOI: 10.1021/acs.energyfuels.6b03144
Article source: Figure 18
Adsorbate Methane: InChIKey VNWKTOKETHGBQD-UHFFFAOYSA-N
Kind: experiment
Temperature: 333 K
Tabular data in the source: 0
pressure (bar)	uptake (mmol/m2)
19.97	0.004084
40.97	0.005543
62.31	0.006575
81.63	0.007148
102.05	0.007588
120.75	0.007968
141.19	0.008188
161.62	0.008435
181.12	0.008528
201.1	0.008595
239.78	0.008756
280.21	0.008723
320.32	0.008777
359.79	0.008857
398.17	0.008804
