Adsorption isotherm of Methane on graphite, 0.25 O/C atomic ratio, 1nm
DOI: 10.1021/acs.energyfuels.6b03144
Article source: Figure 6a
Adsorbate Methane: InChIKey VNWKTOKETHGBQD-UHFFFAOYSA-N
Kind: experiment
Isotherm type: absolute
Temperature: 333 K
Tabular data in the source: 0
pressure (bar)	uptake (mmol/m2)
19.1	0.005361
39.81	0.007203
59.68	0.00812
81.28	0.008647
99.65	0.009017
120.26	0.009354
139.62	0.009587
159.73	0.009956
179.83	0.009946
200.39	0.010141
239.99	0.010234
280.77	0.010653
319.96	0.010729
359.31	0.010974
400.04	0.010985
