Adsorption isotherm of Methane on Graphite, C16
DOI: 10.1021/acs.energyfuels.6b03144
Article source: Figure 18
Adsorbate Methane: InChIKey VNWKTOKETHGBQD-UHFFFAOYSA-N
Kind: experiment
Temperature: 333 K
Tabular data in the source: 0
pressure (bar)	uptake (mmol/m2)
19.15	0.002996
40.13	0.004651
59.16	0.005622
79.41	0.006483
98.93	0.007104
119.55	0.007616
139.68	0.007699
159.68	0.008138
179.81	0.008289
200.06	0.008268
239.22	0.008649
279.35	0.008847
320.34	0.008889
359.99	0.008905
400.37	0.00902
