Adsorption isotherm of Carbon Dioxide, Methane on Graphite, C16
DOI: 10.1021/acs.energyfuels.6b03144
Article source: Figure 21
Adsorbate Carbon Dioxide: InChIKey CURLTUGMZLYLDI-UHFFFAOYSA-N
Adsorbate Methane: InChIKey VNWKTOKETHGBQD-UHFFFAOYSA-N
Kind: experiment
Temperature: 333 K
Tabular data in the source: 0
pressure (bar)	Carbon Dioxide fraction	Carbon Dioxide uptake (mmol/m2)	Methane fraction	Methane uptake (mmol/m2)	total uptake (mmol/m2)
19.24			0.6	0.001755	
40.78			0.6	0.002659	
60.98			0.6	0.003283	
80.21			0.6	0.003861	
99.82			0.6	0.004344	
120.59			0.6	0.004562	
139.24			0.6	0.004937	
160.59			0.6	0.005171	
179.91			0.6	0.005307	
200.2			0.6	0.005428	
239.33			0.6	0.005545	
280.09			0.6	0.005584	
320.38			0.6	0.005682	
359.89			0.6	0.005654	
399.89			0.6	0.005623	
