Adsorption isotherm of Methane on Graphite, C16
DOI: 10.1021/acs.energyfuels.6b03144
Article source: Figure 18
Adsorbate Methane: InChIKey VNWKTOKETHGBQD-UHFFFAOYSA-N
Kind: experiment
Temperature: 333 K
Tabular data in the source: 0
pressure (bar)	uptake (mmol/m2)
19.03	0.003429
39.89	0.005319
60.14	0.006311
79.41	0.007041
99.66	0.007605
118.33	0.007986
139.31	0.008367
160.29	0.008618
179.81	0.008759
199.7	0.008905
239.83	0.00914
278.38	0.009296
320.34	0.009479
359.99	0.009416
400.24	0.009489
