Adsorption isotherm of Carbon Dioxide, Methane on Graphite, C8
DOI: 10.1021/acs.energyfuels.6b03144
Article source: Figure 21
Adsorbate Carbon Dioxide: InChIKey CURLTUGMZLYLDI-UHFFFAOYSA-N
Adsorbate Methane: InChIKey VNWKTOKETHGBQD-UHFFFAOYSA-N
Kind: experiment
Temperature: 333 K
Tabular data in the source: 0
pressure (bar)	Carbon Dioxide fraction	Carbon Dioxide uptake (mmol/m2)	Methane fraction	Methane uptake (mmol/m2)	total uptake (mmol/m2)
19.97			0.8	0.002675	
39.33			0.8	0.003708	
59.45			0.8	0.004418	
79.11			0.8	0.005309	
99.08			0.8	0.005587	
119.8			0.8	0.006052	
140.06			0.8	0.006104	
159.73			0.8	0.006272	
179.55			0.8	0.006556	
200.26			0.8	0.006666	
239.59			0.8	0.007093	
280.43			0.8	0.007165	
320.21			0.8	0.007223	
360.29			0.8	0.007353	
400.53			0.8	0.007405	
