Adsorption isotherm of Carbon Dioxide, Methane on Graphite, C4
DOI: 10.1021/acs.energyfuels.6b03144
Article source: Figure 21
Adsorbate Carbon Dioxide: InChIKey CURLTUGMZLYLDI-UHFFFAOYSA-N
Adsorbate Methane: InChIKey VNWKTOKETHGBQD-UHFFFAOYSA-N
Kind: experiment
Temperature: 333 K
Tabular data in the source: 0
pressure (bar)	Carbon Dioxide fraction	Carbon Dioxide uptake (mmol/m2)	Methane fraction	Methane uptake (mmol/m2)	total uptake (mmol/m2)
20.32			0.2	0.000405	
40.99			0.2	0.000731	
61.05			0.2	0.001102	
81.6			0.2	0.001509	
100.67			0.2	0.002006	
122.46			0.2	0.002061	
139.92			0.2	0.002417	
159.48			0.2	0.002718	
180.65			0.2	0.002994	
200.58			0.2	0.002932	
240			0.2	0.002918	
280.38			0.2	0.002952	
320.37			0.2	0.002987	
360.95			0.2	0.002961	
400.76			0.2	0.002919	
