Adsorption isotherm of Methane on graphite, 0.25 O/C atomic ratio, 3nm
DOI: 10.1021/acs.energyfuels.6b03144
Article source: Figure 6a
Adsorbate Methane: InChIKey VNWKTOKETHGBQD-UHFFFAOYSA-N
Kind: experiment
Isotherm type: excess
Temperature: 333 K
Tabular data in the source: 0
pressure (bar)	uptake (mmol/m2)
18.73	0.004448
38.93	0.006137
60.67	0.006826
79.04	0.007277
100.04	0.007526
120.3	0.007561
140.18	0.007608
159.69	0.007559
180.33	0.007547
200.22	0.007498
240	0.006985
279.41	0.006662
319.94	0.006339
358.59	0.006088
398.37	0.005753
