Adsorption isotherm of Methane on graphite, 0.25 O/C atomic ratio, 1.5nm
DOI: 10.1021/acs.energyfuels.6b03144
Article source: Figure 6a
Adsorbate Methane: InChIKey VNWKTOKETHGBQD-UHFFFAOYSA-N
Kind: experiment
Isotherm type: absolute
Temperature: 333 K
Tabular data in the source: 0
pressure (bar)	uptake (mmol/m2)
20.44	0.00537
40.48	0.006791
59.57	0.008039
79.91	0.008876
99.62	0.009487
120.26	0.009846
140.9	0.010311
160.29	0.010405
179.68	0.010803
200.63	0.01091
240.03	0.010924
280.36	0.010992
320.08	0.011179
360.41	0.011326
400.12	0.011327
