Adsorption isotherm of Methane on Graphite, C8
DOI: 10.1021/acs.energyfuels.6b03144
Article source: Figure 18
Adsorbate Methane: InChIKey VNWKTOKETHGBQD-UHFFFAOYSA-N
Kind: experiment
Temperature: 333 K
Tabular data in the source: 0
pressure (bar)	uptake (mmol/m2)
21.76	0.003167
40.99	0.004576
61.32	0.005641
81.05	0.006356
101.15	0.006825
121.37	0.007232
141.48	0.007444
160.36	0.007532
180.84	0.007656
200.83	0.007606
240.06	0.007706
280.41	0.007739
320.63	0.007797
359.99	0.007779
398.74	0.00774
