Adsorption isotherm of Methane on graphite, 0.25 O/C atomic ratio, 4nm
DOI: 10.1021/acs.energyfuels.6b03144
Article source: Figure 6a
Adsorbate Methane: InChIKey VNWKTOKETHGBQD-UHFFFAOYSA-N
Kind: experiment
Isotherm type: absolute
Temperature: 333 K
Tabular data in the source: 0
pressure (bar)	uptake (mmol/m2)
19.17	0.004716
38.31	0.006529
59.68	0.007635
80.29	0.008321
100.64	0.00869
121	0.009102
141.11	0.009534
160.47	0.009967
179.83	0.010041
200.43	0.010315
240.14	0.010632
280.35	0.010686
319.8	0.010698
360.75	0.01072
400.95	0.010763
