Adsorption isotherm of Nitrogen on Kerogen
DOI: 10.1021/acs.energyfuels.6b03144
Article source: Figure 1
Adsorbate Nitrogen: InChIKey IJGRMHOSHXDMSA-UHFFFAOYSA-N
Kind: experiment
Temperature: 77 K
Tabular data in the source: 0
pressure (bar)	uptake (cm3(STP)/g)
0.006039	42.488
0.009109	48.577
0.018613	51.698
0.027094	55.858
0.044765	67.891
0.052536	59.58
0.096976	66.574
0.098699	75.928
0.149229	78.917
0.15091	71.939
0.196364	76.856
0.197742	85.616
0.249629	88.605
0.255374	80.887
0.297109	92.186
0.305904	83.578
0.350699	95.77
0.357113	86.716
0.400216	101.282
0.410358	91.041
0.451738	96.253
0.464323	108.135
0.505399	124.037
0.511093	102.511
0.556952	130.143
0.557216	105.053
0.607492	135.507
0.609113	110.417
0.658974	115.929
0.659724	141.465
0.707893	147.422
0.710193	121.293
0.760399	129.181
0.765039	156.154
0.809834	136.344
0.815042	164.778
0.857284	146.088
0.862066	176.393
0.864133	150.019
0.903548	189.316
0.905179	164.251
0.914167	168.182
0.947178	208.038
0.955658	186.155
0.96423	197.195
0.971151	226.752
0.977544	218.711
0.978456	238.352
0.986177	252.291
0.99639	236.302
0.997312	261.648
0.998842	271.937
1.0007	247.994
1.00252	288.305
