Adsorption isotherm of Methane on graphite, 0.25 O/C atomic ratio, 2nm
DOI: 10.1021/acs.energyfuels.6b03144
Article source: Figure 6a
Adsorbate Methane: InChIKey VNWKTOKETHGBQD-UHFFFAOYSA-N
Kind: experiment
Isotherm type: absolute
Temperature: 333 K
Tabular data in the source: 0
pressure (bar)	uptake (mmol/m2)
20.28	0.005257
40.95	0.006758
59.93	0.00792
80.29	0.008837
100.65	0.009449
120.27	0.009987
140.63	0.010535
160.98	0.01062
180.83	0.010747
200.19	0.010905
241.14	0.011128
280.35	0.011202
319.81	0.011256
360.02	0.011331
400.22	0.011511
