Adsorption isotherm of Methane on Graphite, C16
DOI: 10.1021/acs.energyfuels.6b03144
Article source: Figure 21
Adsorbate Methane: InChIKey VNWKTOKETHGBQD-UHFFFAOYSA-N
Kind: experiment
Temperature: 333 K
Tabular data in the source: 0
pressure (bar)	uptake (mmol/m2)
19.83	0.003377
40.41	0.005311
60.03	0.006341
80.04	0.007082
99.84	0.00762
118.88	0.008033
139.46	0.0084
159.07	0.008642
180.22	0.008743
199.84	0.008907
239.83	0.009172
280.02	0.00932
319.63	0.009453
360.4	0.009445
400.2	0.009523
