Adsorption isotherm of Methane on Graphite, C8
DOI: 10.1021/acs.energyfuels.6b03144
Article source: Figure 18
Adsorbate Methane: InChIKey VNWKTOKETHGBQD-UHFFFAOYSA-N
Kind: experiment
Temperature: 333 K
Tabular data in the source: 0
pressure (bar)	uptake (mmol/m2)
19.9	0.004518
40.34	0.006082
60.43	0.007177
80.03	0.007949
101.48	0.008577
119.99	0.009
140.46	0.00935
160.19	0.009762
180.67	0.009784
200.66	0.009842
240.26	0.010008
280.11	0.010098
320.17	0.010239
358.95	0.010228
399.27	0.01023
