Adsorption isotherm of Methane on graphite, 0.25 O/C atomic ratio, 10nm
DOI: 10.1021/acs.energyfuels.6b03144
Article source: Figure 6a
Adsorbate Methane: InChIKey VNWKTOKETHGBQD-UHFFFAOYSA-N
Kind: experiment
Isotherm type: absolute
Temperature: 333 K
Tabular data in the source: 0
pressure (bar)	uptake (mmol/m2)
20.41	0.004684
39.56	0.006655
60.67	0.007562
81.27	0.007973
99.39	0.008332
120	0.008764
140.1	0.008765
159.96	0.008976
179.81	0.009208
199.67	0.009325
240.12	0.009389
280.07	0.009327
320.03	0.009454
360.48	0.009361
398.94	0.009404
