Adsorption isotherm of Methane on Graphite, C8
DOI: 10.1021/acs.energyfuels.6b03144
Article source: Figure 18
Adsorbate Methane: InChIKey VNWKTOKETHGBQD-UHFFFAOYSA-N
Kind: experiment
Temperature: 333 K
Tabular data in the source: 0
pressure (bar)	uptake (mmol/m2)
20.18	0.002689
40.51	0.003934
60.84	0.004968
80.08	0.005467
99.69	0.006075
120.66	0.006302
141.86	0.006555
160.62	0.006643
181.22	0.006731
199.37	0.006779
240.08	0.006889
280.42	0.006932
321.5	0.006852
359.88	0.006936
400.1	0.006902
