Adsorption isotherm of Methane on Graphite, C4
DOI: 10.1021/acs.energyfuels.6b03144
Article source: Figure 18
Adsorbate Methane: InChIKey VNWKTOKETHGBQD-UHFFFAOYSA-N
Kind: experiment
Temperature: 333 K
Tabular data in the source: 0
pressure (bar)	uptake (mmol/m2)
19.31	0.004757
42.03	0.006475
62.1	0.007581
80.79	0.008254
101.53	0.008667
121.48	0.009061
140.34	0.009447
161.23	0.009894
181.67	0.01004
200.22	0.010254
240.63	0.010614
280.11	0.010634
320.06	0.010675
358.75	0.010702
398.55	0.010709
