Adsorption isotherm of Carbon Dioxide, Methane on Graphite, C4
DOI: 10.1021/acs.energyfuels.6b03144
Article source: Figure 21
Adsorbate Carbon Dioxide: InChIKey CURLTUGMZLYLDI-UHFFFAOYSA-N
Adsorbate Methane: InChIKey VNWKTOKETHGBQD-UHFFFAOYSA-N
Kind: experiment
Temperature: 333 K
Tabular data in the source: 0
pressure (bar)	Carbon Dioxide fraction	Carbon Dioxide uptake (mmol/m2)	Methane fraction	Methane uptake (mmol/m2)	total uptake (mmol/m2)
20.21			0.4	0.001032	
39.94			0.4	0.001579	
59.83			0.4	0.002146	
79.56			0.4	0.002639	
99.92			0.4	0.003364	
120.67			0.4	0.003521	
139.39			0.4	0.003926	
159.51			0.4	0.004267	
179.56			0.4	0.004618	
200.54			0.4	0.004681	
239.61			0.4	0.004771	
280.55			0.4	0.004633	
321.18			0.4	0.004695	
360.1			0.4	0.004731	
400.03			0.4	0.004733	
