Adsorption isotherm of Methane on graphite, 0.25 O/C atomic ratio, 6nm
DOI: 10.1021/acs.energyfuels.6b03144
Article source: Figure 6a
Adsorbate Methane: InChIKey VNWKTOKETHGBQD-UHFFFAOYSA-N
Kind: experiment
Isotherm type: absolute
Temperature: 333 K
Tabular data in the source: 0
pressure (bar)	uptake (mmol/m2)
19.67	0.004779
41.05	0.006623
58.93	0.007688
80.29	0.008373
98.9	0.008722
120.25	0.009091
140.11	0.00946
160.22	0.009798
180.07	0.009862
199.43	0.009883
239.14	0.009958
279.59	0.010086
319.79	0.010065
359.25	0.010045
399.21	0.01011
