Adsorption isotherm of Methane on graphite, 0.25 O/C atomic ratio, 3nm
DOI: 10.1021/acs.energyfuels.6b03144
Article source: Figure 6a
Adsorbate Methane: InChIKey VNWKTOKETHGBQD-UHFFFAOYSA-N
Kind: experiment
Isotherm type: absolute
Temperature: 333 K
Tabular data in the source: 0
pressure (bar)	uptake (mmol/m2)
17.94	0.004863
39.31	0.00675
61.41	0.007762
80.78	0.0085
99.16	0.009048
119.27	0.009407
140.12	0.009787
159.73	0.010061
179.58	0.010304
199.19	0.010547
240.14	0.010622
279.6	0.010686
319.56	0.010782
360.26	0.010878
400.46	0.010942
