Adsorption isotherm of Methane on graphite, 0.25 O/C atomic ratio, 8nm
DOI: 10.1021/acs.energyfuels.6b03144
Article source: Figure 6a
Adsorbate Methane: InChIKey VNWKTOKETHGBQD-UHFFFAOYSA-N
Kind: experiment
Isotherm type: excess
Temperature: 333 K
Tabular data in the source: 0
pressure (bar)	uptake (mmol/m2)
18.73	0.00446
38.56	0.006053
59.55	0.006731
79.43	0.006825
97.43	0.007134
120.31	0.007109
138.7	0.007049
159.72	0.006869
180.73	0.006845
200.62	0.00663
240.41	0.006033
280.57	0.005663
321.1	0.005304
359.38	0.004957
399.16	0.004682
