Adsorption isotherm of Methane on graphite, 0.25 O/C atomic ratio, 10nm
DOI: 10.1021/acs.energyfuels.6b03144
Article source: Figure 6a
Adsorbate Methane: InChIKey VNWKTOKETHGBQD-UHFFFAOYSA-N
Kind: experiment
Isotherm type: excess
Temperature: 333 K
Tabular data in the source: 0
pressure (bar)	uptake (mmol/m2)
19.85	0.004388
40.81	0.006101
58.42	0.006707
79.43	0.006801
100.44	0.006848
119.19	0.007026
138.71	0.006727
159.72	0.006667
178.48	0.006619
198.75	0.006475
239.29	0.005974
279.45	0.005508
318.85	0.005161
359.76	0.004755
399.16	0.00448
