Adsorption isotherm of Methane on graphite, 0.25 O/C atomic ratio, 2nm
DOI: 10.1021/acs.energyfuels.6b03144
Article source: Figure 6a
Adsorbate Methane: InChIKey VNWKTOKETHGBQD-UHFFFAOYSA-N
Kind: experiment
Isotherm type: excess
Temperature: 333 K
Tabular data in the source: 0
pressure (bar)	uptake (mmol/m2)
19.46	0.004995
39.68	0.006101
59.92	0.006933
78.28	0.007539
99.28	0.007824
119.53	0.008085
139.41	0.008286
159.68	0.008059
178.44	0.007856
199.83	0.007724
239.99	0.007449
279.77	0.007007
319.18	0.006625
360.83	0.006314
399.49	0.00611
