Adsorption isotherm of Methane on graphite, 0.25 O/C atomic ratio, 1nm
DOI: 10.1021/acs.energyfuels.6b03144
Article source: Figure 6a
Adsorbate Methane: InChIKey VNWKTOKETHGBQD-UHFFFAOYSA-N
Kind: experiment
Isotherm type: excess
Temperature: 333 K
Tabular data in the source: 0
pressure (bar)	uptake (mmol/m2)
18.9	0.005001
40.42	0.006553
59.84	0.007182
79.49	0.007361
100.48	0.007407
119.24	0.007416
139.49	0.007391
160.19	0.007334
180	0.007078
199.51	0.00694
240.17	0.006495
280.23	0.006375
319.69	0.006099
359.46	0.005876
399.07	0.005529
