Adsorption isotherm of Methane on graphite, 0.25 O/C atomic ratio, 4nm
DOI: 10.1021/acs.energyfuels.6b03144
Article source: Figure 6a
Adsorbate Methane: InChIKey VNWKTOKETHGBQD-UHFFFAOYSA-N
Kind: experiment
Isotherm type: excess
Temperature: 333 K
Tabular data in the source: 0
pressure (bar)	uptake (mmol/m2)
18.73	0.00446
39.68	0.006113
61.05	0.006695
79.79	0.00717
99.3	0.007193
122.18	0.007287
138.69	0.00737
158.57	0.007512
179.96	0.007285
200.6	0.007272
240.75	0.007044
280.16	0.006698
320.32	0.006268
360.1	0.005921
400.25	0.005646
