Adsorption isotherm of Methane on Graphite, 0.125 O/C atomic ratio
DOI: 10.1021/acs.energyfuels.6b03144
Article source: Figure 9b
Adsorbate Methane: InChIKey VNWKTOKETHGBQD-UHFFFAOYSA-N
Kind: experiment
Isotherm type: absolute
Temperature: 333 K
Tabular data in the source: 0
pressure (bar)	uptake (mmol/m2)
11.47	0.003707
22.8	0.005468
41.5	0.006726
80.92	0.008095
119.69	0.008934
159.14	0.00899
199.26	0.00913
