Adsorption isotherm of Carbon Dioxide, Methane on Graphite, C8
DOI: 10.1021/acs.energyfuels.6b03144
Article source: Figure 21
Adsorbate Carbon Dioxide: InChIKey CURLTUGMZLYLDI-UHFFFAOYSA-N
Adsorbate Methane: InChIKey VNWKTOKETHGBQD-UHFFFAOYSA-N
Kind: experiment
Temperature: 333 K
Tabular data in the source: 0
pressure (bar)	Carbon Dioxide fraction	Carbon Dioxide uptake (mmol/m2)	Methane fraction	Methane uptake (mmol/m2)	total uptake (mmol/m2)
19.32			0.4	0.001181	
39.09			0.4	0.001888	
58.75			0.4	0.002247	
78.89			0.4	0.002724	
98.79			0.4	0.003247	
120.59			0.4	0.003344	
139.06			0.4	0.003923	
160.15			0.4	0.00396	
179.57			0.4	0.004452	
200.55			0.4	0.004447	
240.22			0.4	0.004616	
280.5			0.4	0.004581	
320.53			0.4	0.004597	
361.16			0.4	0.004654	
400.6			0.4	0.004675	
