Adsorption isotherm of Methane on Graphite, C16
DOI: 10.1021/acs.energyfuels.6b03144
Article source: Figure 18
Adsorbate Methane: InChIKey VNWKTOKETHGBQD-UHFFFAOYSA-N
Kind: experiment
Temperature: 333 K
Tabular data in the source: 0
pressure (bar)	uptake (mmol/m2)
19.76	0.002396
40.01	0.003951
59.16	0.00474
78.56	0.005392
98.81	0.006003
119.79	0.006279
139.92	0.006509
160.41	0.006707
179.93	0.006927
200.06	0.006906
238.49	0.007255
280.33	0.007391
319.73	0.007349
359.87	0.007537
398.78	0.007349
