Adsorption isotherm of Carbon Dioxide, Methane on Graphite, C4
DOI: 10.1021/acs.energyfuels.6b03144
Article source: Figure 21
Adsorbate Carbon Dioxide: InChIKey CURLTUGMZLYLDI-UHFFFAOYSA-N
Adsorbate Methane: InChIKey VNWKTOKETHGBQD-UHFFFAOYSA-N
Kind: experiment
Temperature: 333 K
Tabular data in the source: 0
pressure (bar)	Carbon Dioxide fraction	Carbon Dioxide uptake (mmol/m2)	Methane fraction	Methane uptake (mmol/m2)	total uptake (mmol/m2)
19.67			0.6	0.001891	
40.11			0.6	0.003017	
60.23			0.6	0.003555	
80.35			0.6	0.004042	
100.79			0.6	0.004751	
119.2			0.6	0.005156	
140.73			0.6	0.005484	
159.13			0.6	0.005832	
180.19			0.6	0.005831	
199.53			0.6	0.006059	
240.71			0.6	0.006285	
281.11			0.6	0.006157	
320.88			0.6	0.006263	
359.57			0.6	0.006369	
400.28			0.6	0.006361	
