Adsorption isotherm of Methane on graphite, 0.25 O/C atomic ratio, 6nm
DOI: 10.1021/acs.energyfuels.6b03144
Article source: Figure 6a
Adsorbate Methane: InChIKey VNWKTOKETHGBQD-UHFFFAOYSA-N
Kind: experiment
Isotherm type: excess
Temperature: 333 K
Tabular data in the source: 0
pressure (bar)	uptake (mmol/m2)
20.6	0.004448
40.81	0.005946
59.17	0.006766
78.67	0.007194
100.42	0.007276
119.93	0.007287
138.69	0.00737
157.83	0.007333
178.09	0.007154
200.24	0.006891
240.39	0.006485
279.43	0.006138
319.58	0.005697
358.62	0.005314
398.77	0.005063
