Adsorption isotherm of Carbon Dioxide, Methane on Graphite, C8
DOI: 10.1021/acs.energyfuels.6b03144
Article source: Figure 21
Adsorbate Carbon Dioxide: InChIKey CURLTUGMZLYLDI-UHFFFAOYSA-N
Adsorbate Methane: InChIKey VNWKTOKETHGBQD-UHFFFAOYSA-N
Kind: experiment
Temperature: 333 K
Tabular data in the source: 0
pressure (bar)	Carbon Dioxide fraction	Carbon Dioxide uptake (mmol/m2)	Methane fraction	Methane uptake (mmol/m2)	total uptake (mmol/m2)
19.2			0.2	0.000669	
39.57			0.2	0.000971	
60.3			0.2	0.001248	
80.08			0.2	0.001597	
100.46			0.2	0.001741	
121.55			0.2	0.002033	
140.97			0.2	0.002218	
159.91			0.2	0.002454	
180.65			0.2	0.002772	
200.78			0.2	0.002736	
239.87			0.2	0.002839	
281.21			0.2	0.002783	
320.41			0.2	0.00281	
361.04			0.2	0.0028	
401.2			0.2	0.002826	
