Adsorption isotherm of Carbon Dioxide, Methane on Graphite, C16
DOI: 10.1021/acs.energyfuels.6b03144
Article source: Figure 21
Adsorbate Carbon Dioxide: InChIKey CURLTUGMZLYLDI-UHFFFAOYSA-N
Adsorbate Methane: InChIKey VNWKTOKETHGBQD-UHFFFAOYSA-N
Kind: experiment
Temperature: 333 K
Tabular data in the source: 0
pressure (bar)	Carbon Dioxide fraction	Carbon Dioxide uptake (mmol/m2)	Methane fraction	Methane uptake (mmol/m2)	total uptake (mmol/m2)
19.93			0.4	0.001064	
39.56			0.4	0.001777	
60.03			0.4	0.002184	
79.42			0.4	0.002518	
99.53			0.4	0.003093	
119.76			0.4	0.003339	
140.11			0.4	0.003688	
159.97			0.4	0.003845	
179.72			0.4	0.00416	
200.19			0.4	0.004155	
240.29			0.4	0.004204	
280.02			0.4	0.004273	
319.87			0.4	0.004317	
359.84			0.4	0.004209	
400.3			0.4	0.004277	
