Adsorption isotherm of Methane on graphite, 0.25 O/C atomic ratio, 8nm
DOI: 10.1021/acs.energyfuels.6b03144
Article source: Figure 6a
Adsorbate Methane: InChIKey VNWKTOKETHGBQD-UHFFFAOYSA-N
Kind: experiment
Isotherm type: absolute
Temperature: 333 K
Tabular data in the source: 0
pressure (bar)	uptake (mmol/m2)
19.42	0.004705
40.8	0.006666
59.67	0.007488
81.02	0.007984
99.15	0.008616
120.75	0.008901
141.84	0.009081
159.71	0.009303
180.56	0.009461
200.17	0.009514
239.62	0.009442
279.58	0.009559
319.78	0.00956
359.99	0.009592
400.69	0.009604
