Adsorption isotherm of Carbon Dioxide, Methane on Graphite, C16
DOI: 10.1021/acs.energyfuels.6b03144
Article source: Figure 21
Adsorbate Carbon Dioxide: InChIKey CURLTUGMZLYLDI-UHFFFAOYSA-N
Adsorbate Methane: InChIKey VNWKTOKETHGBQD-UHFFFAOYSA-N
Kind: experiment
Temperature: 333 K
Tabular data in the source: 0
pressure (bar)	Carbon Dioxide fraction	Carbon Dioxide uptake (mmol/m2)	Methane fraction	Methane uptake (mmol/m2)	total uptake (mmol/m2)
19.05			0.8	0.002519	
40.02			0.8	0.003814	
59.64			0.8	0.004516	
78.29			0.8	0.005272	
100.79			0.8	0.005678	
119.83			0.8	0.00606	
140.21			0.8	0.0062	
159.63			0.8	0.006372	
179.63			0.8	0.006598	
200.79			0.8	0.006707	
240.01			0.8	0.006949	
280.2			0.8	0.007058	
320.96			0.8	0.007027	
360.38			0.8	0.007269	
399.8			0.8	0.007167	
