Adsorption isotherm of Methane on Graphite, 0.25 O/C atomic ratio
DOI: 10.1021/acs.energyfuels.6b03144
Article source: Figure 9a
Adsorbate Methane: InChIKey VNWKTOKETHGBQD-UHFFFAOYSA-N
Kind: experiment
Isotherm type: absolute
Temperature: 333 K
Tabular data in the source: 0
pressure (bar)	uptake (mmol/m2)
10.43	0.003749
22.66	0.00541
40.8	0.006735
79.62	0.00806
118.86	0.008908
160.2	0.009049
199.86	0.009103
