Adsorption isotherm of Carbon Dioxide, Methane on Graphite, C4
DOI: 10.1021/acs.energyfuels.6b03144
Article source: Figure 21
Adsorbate Carbon Dioxide: InChIKey CURLTUGMZLYLDI-UHFFFAOYSA-N
Adsorbate Methane: InChIKey VNWKTOKETHGBQD-UHFFFAOYSA-N
Kind: experiment
Temperature: 333 K
Tabular data in the source: 0
pressure (bar)	Carbon Dioxide fraction	Carbon Dioxide uptake (mmol/m2)	Methane fraction	Methane uptake (mmol/m2)	total uptake (mmol/m2)
19.9			0.8	0.002963	0.2
40.54			0.8	0.003672	0.2
59.8			0.8	0.004422	0.2
80.24			0.8	0.005259	0.2
99.9			0.8	0.005785	0.2
119.95			0.8	0.006247	0.2
140.39			0.8	0.00655	0.2
159.06			0.8	0.006765	0.2
180.67			0.8	0.006892	0.2
200.52			0.8	0.00709	0.2
240.42			0.8	0.007256	0.2
279.92			0.8	0.007502	0.2
320.21			0.8	0.007652	0.2
359.31			0.8	0.007739	0.2
400.44			0.8	0.00785	0.2
