Adsorption isotherm of Methane on Graphite, C4
DOI: 10.1021/acs.energyfuels.6b03144
Article source: Figure 21
Adsorbate Methane: InChIKey VNWKTOKETHGBQD-UHFFFAOYSA-N
Kind: experiment
Temperature: 333 K
Tabular data in the source: 0
pressure (bar)	uptake (mmol/m2)
20.5	0.004767
40.16	0.006514
60.8	0.007567
79.28	0.008213
99.92	0.008651
119.38	0.009049
140.01	0.00948
160.65	0.00987
180.5	0.010061
199.76	0.010228
239.65	0.010609
280.33	0.010624
320.42	0.010686
360.06	0.010658
400.3	0.01072
