Adsorption isotherm of Methane on Graphite, C4
DOI: 10.1021/acs.energyfuels.6b03144
Article source: Figure 18
Adsorbate Methane: InChIKey VNWKTOKETHGBQD-UHFFFAOYSA-N
Kind: experiment
Temperature: 333 K
Tabular data in the source: 0
pressure (bar)	uptake (mmol/m2)
20.74	0.00311
41.61	0.004108
62.03	0.005113
81.1	0.0057
101.43	0.006075
121.15	0.006308
141.73	0.006488
161.45	0.006716
180.92	0.006848
201.49	0.006797
239.53	0.006915
279.56	0.007049
319.58	0.007201
359.41	0.007269
398.84	0.007345
