Adsorption isotherm of Methane on Graphite, C4
DOI: 10.1021/acs.energyfuels.6b03144
Article source: Figure 18
Adsorbate Methane: InChIKey VNWKTOKETHGBQD-UHFFFAOYSA-N
Kind: experiment
Temperature: 333 K
Tabular data in the source: 0
pressure (bar)	uptake (mmol/m2)
20.47	0.003584
40.85	0.004937
62.35	0.005863
82.13	0.006522
100.98	0.007009
120.95	0.007182
141.85	0.007536
161.2	0.007589
180.53	0.007783
200.98	0.007809
240.46	0.007877
279.93	0.007944
320.2	0.007938
358.74	0.007838
396.8	0.007952
