Adsorption isotherm of Carbon Dioxide, Methane on Graphite, C16
DOI: 10.1021/acs.energyfuels.6b03144
Article source: Figure 21
Adsorbate Carbon Dioxide: InChIKey CURLTUGMZLYLDI-UHFFFAOYSA-N
Adsorbate Methane: InChIKey VNWKTOKETHGBQD-UHFFFAOYSA-N
Kind: experiment
Temperature: 333 K
Tabular data in the source: 0
pressure (bar)	Carbon Dioxide fraction	Carbon Dioxide uptake (mmol/m2)	Methane fraction	Methane uptake (mmol/m2)	total uptake (mmol/m2)
19.91			0.2	0.000534	
39.42			0.2	0.00085	
60.38			0.2	0.001107	
80.19			0.2	0.001353	
99.04			0.2	0.001673	
120.48			0.2	0.001856	
140.48			0.2	0.002137	
160.19			0.2	0.00234	
179.9			0.2	0.002531	
200.37			0.2	0.0025	
240.75			0.2	0.002562	
280.65			0.2	0.002597	
320.36			0.2	0.002519	
360.26			0.2	0.002535	
401.31			0.2	0.002539	
