Adsorption isotherm of Carbon Dioxide, Methane on Graphite, C8
DOI: 10.1021/acs.energyfuels.6b03144
Article source: Figure 21
Adsorbate Carbon Dioxide: InChIKey CURLTUGMZLYLDI-UHFFFAOYSA-N
Adsorbate Methane: InChIKey VNWKTOKETHGBQD-UHFFFAOYSA-N
Kind: experiment
Temperature: 333 K
Tabular data in the source: 0
pressure (bar)	Carbon Dioxide fraction	Carbon Dioxide uptake (mmol/m2)	Methane fraction	Methane uptake (mmol/m2)	total uptake (mmol/m2)
19.32			0.6	0.001873	
39.69			0.6	0.002769	
59.95			0.6	0.003338	
79.73			0.6	0.003989	
99.74			0.6	0.004522	
120.83			0.6	0.004707	
139.78			0.6	0.00505	
159.32			0.6	0.005373	
180			0.6	0.005485	
200.11			0.6	0.005666	
239.74			0.6	0.005751	
280.73			0.6	0.005906	
320.06			0.6	0.006036	
360.74			0.6	0.006037	
399.47			0.6	0.00596	
