Adsorption isotherm of Nitrogen on Activated Carbon-800-1
DOI: 10.1039/C2cp44436d
Adsorbate Nitrogen: InChIKey IJGRMHOSHXDMSA-UHFFFAOYSA-N
Temperature: 77 K
Tabular data in the source: 0
pressure (bar)	uptake (cm3(STP)/g)
0.0160248	481.022
0.0481111	569.022
0.0818861	617.022
0.124105	659.022
0.162946	685.022
0.193344	697.022
0.223741	709.022
0.257516	719.022
0.325066	731.022
0.411192	735.022
0.483809	741.022
0.547981	743.022
0.635796	749.022
0.69828	753.022
0.743876	755.022
0.826625	759.022
0.875599	763.022
0.907685	767.022
0.946526	773.022
0.975235	785.022
0.993811	803.022
1.00563	835.022
