Adsorption isotherm of Carbon Dioxide on Activated Carbon-700-1
DOI: 10.1039/C2cp44436d
Adsorbate Carbon Dioxide: InChIKey CURLTUGMZLYLDI-UHFFFAOYSA-N
Temperature: 348 K
Tabular data in the source: 0
pressure (bar)	uptake (mmol/g)
0.0458153	0.0526263
0.144149	0.28596
0.235815	0.42596
0.327482	0.612626
0.425815	0.77596
0.519149	0.904293
0.619149	1.06763
0.712482	1.19596
0.812482	1.34763
0.899149	1.47596
1.00082	1.60429
