Adsorption isotherm of Carbon Dioxide on Activated Carbon-800-1
DOI: 10.1039/C2cp44436d
Adsorbate Carbon Dioxide: InChIKey CURLTUGMZLYLDI-UHFFFAOYSA-N
Temperature: 298 K
Tabular data in the source: 0
pressure (bar)	uptake (mmol/g)
0.0258153	0.145108
0.0591486	0.315108
0.129149	0.595108
0.225815	0.935108
0.325815	1.24511
0.414149	1.51511
0.505815	1.75511
0.607482	2.01511
0.707482	2.28511
0.805815	2.53511
0.892482	2.73511
0.997482	3.00511
