Adsorption isotherm of Carbon Dioxide on Activated Carbon-600-0.5
DOI: 10.1039/C2cp44436d
Adsorbate Carbon Dioxide: InChIKey CURLTUGMZLYLDI-UHFFFAOYSA-N
Temperature: 298 K
Tabular data in the source: 0
pressure (bar)	uptake (mmol/g)
0.00914863	0.232554
0.0241486	0.472554
0.042482	0.662554
0.132482	1.28255
0.240815	1.73755
0.337482	1.99755
0.415815	2.17255
0.517482	2.37755
0.614149	2.52255
0.705815	2.65755
0.810815	2.78255
0.900815	2.88755
1.00415	3.00255
