Adsorption isotherm of Carbon Dioxide on Activated Carbon-750-0.5
DOI: 10.1039/C2cp44436d
Adsorbate Carbon Dioxide: InChIKey CURLTUGMZLYLDI-UHFFFAOYSA-N
Temperature: 348 K
Tabular data in the source: 0
pressure (bar)	uptake (mmol/g)
0.0291486	0.0992929
0.129149	0.379293
0.225815	0.577626
0.325815	0.799293
0.415815	0.95096
0.514149	1.10263
0.615815	1.31263
0.702482	1.44096
0.807482	1.58096
0.897482	1.69763
0.992482	1.83763
