Adsorption isotherm of Nitrogen on Activated Carbon-600-1
DOI: 10.1039/C2cp44436d
Adsorbate Nitrogen: InChIKey IJGRMHOSHXDMSA-UHFFFAOYSA-N
Temperature: 77 K
Tabular data in the source: 0
pressure (bar)	uptake (cm3(STP)/g)
0.0160248	261.022
0.0582436	283.022
0.0970848	291.022
0.14437	295.022
0.249072	299.022
0.40106	301.022
0.600332	303.022
0.799605	311.022
0.892486	311.022
0.938082	311.022
0.976924	319.022
0.988745	331.022
1.00563	351.022
