Adsorption isotherm of Carbon Dioxide on Activated Carbon-800-1
DOI: 10.1039/C2cp44436d
Adsorbate Carbon Dioxide: InChIKey CURLTUGMZLYLDI-UHFFFAOYSA-N
Temperature: 348 K
Tabular data in the source: 0
pressure (bar)	uptake (mmol/g)
0.0358153	0.0551082
0.142482	0.215108
0.230815	0.325108
0.334149	0.445108
0.437482	0.575108
0.530815	0.675108
0.614149	0.745108
0.707482	0.855108
0.802482	0.975108
0.902482	1.06511
0.994149	1.15511
