Adsorption isotherm of Nitrogen on Activated Carbon-800-0.5
DOI: 10.1039/C2cp44436d
Adsorbate Nitrogen: InChIKey IJGRMHOSHXDMSA-UHFFFAOYSA-N
Temperature: 77 K
Tabular data in the source: 0
pressure (bar)	uptake (cm3(STP)/g)
0.00926985	355.022
0.0531773	393.022
0.0953961	401.022
0.156191	409.022
0.269337	415.022
0.370662	419.022
0.504074	423.022
0.640862	423.022
0.710101	427.022
0.762452	427.022
0.818181	431.022
0.865466	433.022
0.934705	435.022
0.96848	443.022
0.983679	457.022
1.00057	469.022
1.0107	485.022
