Adsorption isotherm of Nitrogen on Activated Carbon-800-2
DOI: 10.1039/C2cp44436d
Adsorbate Nitrogen: InChIKey IJGRMHOSHXDMSA-UHFFFAOYSA-N
Temperature: 77 K
Tabular data in the source: 0
pressure (bar)	uptake (cm3(STP)/g)
0.0126473	485.022
0.0481111	569.022
0.0835748	633.022
0.120727	695.022
0.159569	745.022
0.191655	793.022
0.230496	833.022
0.26596	871.022
0.294669	901.022
0.331821	921.022
0.404437	963.022
0.466921	983.022
0.544604	999.022
0.615531	1005.02
0.71179	1017.02
0.787784	1025.02
0.851956	1031.02
0.916129	1043.02
0.958347	1059.02
0.9955	1101.02
1.00901	1163.02
