Adsorption isotherm of Nitrogen on Activated Carbon-700-0.5
DOI: 10.1039/C2cp44436d
Adsorbate Nitrogen: InChIKey IJGRMHOSHXDMSA-UHFFFAOYSA-N
Temperature: 298 K
Tabular data in the source: 0
pressure (bar)	uptake (mmol/g)
0.017482	0.0367388
0.0741486	0.0500722
0.117482	0.0634055
0.167482	0.0900722
0.255815	0.130072
0.300815	0.170072
0.394149	0.216739
0.485815	0.263406
0.582482	0.316739
0.675815	0.370072
0.780815	0.396739
0.867482	0.436739
0.917482	0.463405
0.964149	0.476739
1.00748	0.503406
