Adsorption isotherm of Nitrogen on Activated Carbon-700-2
DOI: 10.1039/C2cp44436d
Adsorbate Nitrogen: InChIKey IJGRMHOSHXDMSA-UHFFFAOYSA-N
Temperature: 77 K
Tabular data in the source: 0
pressure (bar)	uptake (cm3(STP)/g)
0.0278461	521.022
0.0565548	569.022
0.0835748	595.022
0.124105	609.022
0.159569	619.022
0.203476	623.022
0.274404	629.022
0.34702	637.022
0.424702	641.022
0.505762	647.022
0.591889	647.022
0.656061	651.022
0.760764	657.022
0.841824	661.022
0.904307	667.022
0.948215	675.022
0.976924	685.022
0.992122	699.022
1.00394	711.022
