Adsorption isotherm of Carbon Dioxide on Activated Carbon-750-0.5
DOI: 10.1039/C2cp44436d
Adsorbate Carbon Dioxide: InChIKey CURLTUGMZLYLDI-UHFFFAOYSA-N
Temperature: 298 K
Tabular data in the source: 0
pressure (bar)	uptake (mmol/g)
0.0191486	0.23759
0.037482	0.479257
0.135815	1.22926
0.237482	1.82092
0.337482	2.25426
0.415815	2.57092
0.519149	2.95426
0.610815	3.22926
0.705815	3.50426
0.807482	3.80426
0.902482	4.03759
1.00082	4.26259
