Adsorption isotherm of Nitrogen on Activated Carbon-750-0.5
DOI: 10.1039/C2cp44436d
Adsorbate Nitrogen: InChIKey IJGRMHOSHXDMSA-UHFFFAOYSA-N
Temperature: 77 K
Tabular data in the source: 0
pressure (bar)	uptake (cm3(STP)/g)
0.0143361	327.022
0.0497998	349.022
0.0920186	357.022
0.14437	357.022
0.230496	363.022
0.341954	369.022
0.44159	369.022
0.566557	371.022
0.645929	373.022
0.740499	373.022
0.84689	377.022
0.916129	377.022
0.958347	387.022
0.992122	395.022
1.00394	407.022
