Adsorption isotherm of Carbon Dioxide on Activated Carbon-800-0.5
DOI: 10.1039/C2cp44436d
Adsorbate Carbon Dioxide: InChIKey CURLTUGMZLYLDI-UHFFFAOYSA-N
Temperature: 298 K
Tabular data in the source: 0
pressure (bar)	uptake (mmol/g)
0.00748196	0.196739
0.0341486	0.396739
0.129149	1.03674
0.239149	1.53674
0.329149	1.93674
0.417482	2.34341
0.517482	2.67674
0.614149	2.99007
0.710815	3.28341
0.809149	3.55674
0.907482	3.81007
1.00082	4.05674
