Adsorption isotherm of Nitrogen on Activated Carbon-600-0.5-H
DOI: 10.1039/C2cp44436d
Adsorbate Nitrogen: InChIKey IJGRMHOSHXDMSA-UHFFFAOYSA-N
Temperature: 77 K
Tabular data in the source: 0
pressure (bar)	uptake (cm3(STP)/g)
0.0143361	113.022
0.0599323	131.022
0.115661	137.022
0.250761	139.022
0.380795	139.022
0.497319	143.022
0.694902	143.022
0.840135	149.022
0.91444	149.022
0.963414	153.022
0.992122	167.022
1.00901	181.022
