Adsorption isotherm of Carbon Dioxide on Activated Carbon-700-0.5
DOI: 10.1039/C2cp44436d
Adsorbate Carbon Dioxide: InChIKey CURLTUGMZLYLDI-UHFFFAOYSA-N
Temperature: 298 K
Tabular data in the source: 0
pressure (bar)	uptake (mmol/g)
0.00914863	0.310072
0.0358153	0.603405
0.134149	1.40341
0.232482	1.97007
0.327482	2.39674
0.420815	2.71007
0.515815	3.02341
0.619149	3.29674
0.709149	3.51674
0.807482	3.72341
0.907482	3.92341
1.00915	4.09007
