Adsorption isotherm of Nitrogen on Activated Carbon-700-0.5
DOI: 10.1039/C2cp44436d
Adsorbate Nitrogen: InChIKey IJGRMHOSHXDMSA-UHFFFAOYSA-N
Temperature: 298 K
Tabular data in the source: 0
pressure (bar)	uptake (mmol/g)
0.0241486	0.0225541
0.0791486	0.0325541
0.119149	0.0425541
0.157482	0.0625541
0.209149	0.0825541
0.259149	0.102554
0.345815	0.132554
0.444149	0.162554
0.542482	0.202554
0.585815	0.212554
0.640815	0.237554
0.682482	0.247554
0.720815	0.267554
0.774149	0.282554
0.817482	0.287554
0.867482	0.307554
0.914149	0.317554
0.960815	0.352554
1.01248	0.367554
