Adsorption isotherm of Carbon Dioxide on Activated Carbon-600-0.5
DOI: 10.1039/C2cp44436d
Adsorbate Carbon Dioxide: InChIKey CURLTUGMZLYLDI-UHFFFAOYSA-N
Temperature: 298 K
Tabular data in the source: 0
pressure (bar)	uptake (mmol/g)
0.00914863	0.243405
0.0258153	0.476739
0.0391486	0.683406
0.127482	1.29007
0.235815	1.73674
0.334149	2.01007
0.414149	2.20341
0.509149	2.39007
0.612482	2.56341
0.705815	2.67674
0.805815	2.81674
0.900815	2.91007
1.00748	3.01007
