Adsorption isotherm of Carbon Dioxide on Activated Carbon-750-0.5
DOI: 10.1039/C2cp44436d
Adsorbate Carbon Dioxide: InChIKey CURLTUGMZLYLDI-UHFFFAOYSA-N
Temperature: 298 K
Tabular data in the source: 0
pressure (bar)	uptake (mmol/g)
0.012482	0.25096
0.0341486	0.507626
0.129149	1.25429
0.239149	1.82596
0.334149	2.25763
0.407482	2.53763
0.520815	2.96929
0.610815	3.26096
0.714149	3.54096
0.805815	3.79763
0.902482	4.03096
1.00248	4.25263
