Adsorption isotherm of Nitrogen on Activated Carbon-750-0.5
DOI: 10.1039/C2cp44436d
Adsorbate Nitrogen: InChIKey IJGRMHOSHXDMSA-UHFFFAOYSA-N
Temperature: 298 K
Tabular data in the source: 0
pressure (bar)	uptake (mmol/g)
0.0258153	0.0209235
0.087482	0.0292569
0.155815	0.0542569
0.212482	0.0959235
0.304149	0.145924
0.394149	0.18759
0.494149	0.254257
0.572482	0.295924
0.660815	0.345924
0.744149	0.395924
0.815815	0.420924
0.874149	0.43759
0.922482	0.46259
0.969149	0.48759
1.00748	0.48759
