Adsorption isotherm of Carbon Dioxide on Activated Carbon-600-0.5
DOI: 10.1039/C2cp44436d
Adsorbate Carbon Dioxide: InChIKey CURLTUGMZLYLDI-UHFFFAOYSA-N
Temperature: 348 K
Tabular data in the source: 0
pressure (bar)	uptake (mmol/g)
0.0308153	0.0967388
0.129149	0.383406
0.222482	0.590072
0.324149	0.770072
0.420815	0.910072
0.512482	1.01674
0.612482	1.15007
0.712482	1.25674
0.805815	1.33674
0.899149	1.41674
1.00082	1.51007
