Adsorption isotherm of Carbon Dioxide on Activated Carbon-800-1
DOI: 10.1039/C2cp44436d
Adsorbate Carbon Dioxide: InChIKey CURLTUGMZLYLDI-UHFFFAOYSA-N
Temperature: 273 K
Tabular data in the source: 0
pressure (bar)	uptake (mmol/g)
0.00914863	0.205108
0.0341486	0.415108
0.122482	1.03511
0.220815	1.65511
0.314149	2.15511
0.407482	2.64511
0.514149	3.13511
0.605815	3.51511
0.709149	3.96511
0.799149	4.27511
0.899149	4.73511
0.990815	5.04511
