Adsorption isotherm of Carbon Dioxide on Activated Carbon-700-1
DOI: 10.1039/C2cp44436d
Adsorbate Carbon Dioxide: InChIKey CURLTUGMZLYLDI-UHFFFAOYSA-N
Temperature: 298 K
Tabular data in the source: 0
pressure (bar)	uptake (mmol/g)
0.0208153	0.14596
0.0558153	0.414293
0.127482	0.869293
0.232482	1.41763
0.315815	1.79096
0.405815	2.18763
0.515815	2.63096
0.604149	2.92263
0.707482	3.22596
0.807482	3.55263
0.895815	3.83263
1.00082	4.11263
