Adsorption isotherm of Nitrogen on Activated Carbon-700-0.5
DOI: 10.1039/C2cp44436d
Adsorbate Nitrogen: InChIKey IJGRMHOSHXDMSA-UHFFFAOYSA-N
Temperature: 77 K
Tabular data in the source: 0
pressure (bar)	uptake (cm3(STP)/g)
0.0109586	307.022
0.0481111	327.022
0.0920186	343.022
0.13086	343.022
0.191655	349.022
0.29298	355.022
0.380795	355.022
0.477054	361.022
0.561491	361.022
0.65775	363.022
0.73881	367.022
0.823247	367.022
0.877287	371.022
0.934705	371.022
0.98199	383.022
1.00901	401.022
