Adsorption isotherm of Nitrogen on Activated Carbon-600-0.5
DOI: 10.1039/C2cp44436d
Adsorbate Nitrogen: InChIKey IJGRMHOSHXDMSA-UHFFFAOYSA-N
Temperature: 77 K
Tabular data in the source: 0
pressure (bar)	uptake (cm3(STP)/g)
0.0075811	153.022
0.0548661	159.022
0.0987736	165.022
0.142681	165.022
0.242317	173.022
0.357152	175.022
0.593577	177.022
0.726989	177.022
0.791161	183.022
0.875599	185.022
0.931327	185.022
0.983679	197.022
1.00563	211.022
