Adsorption isotherm of Carbon Dioxide on Activated Carbon-750-0.5
DOI: 10.1039/C2cp44436d
Adsorbate Carbon Dioxide: InChIKey CURLTUGMZLYLDI-UHFFFAOYSA-N
Temperature: 298 K
Tabular data in the source: 0
pressure (bar)	uptake (mmol/g)
0.00083	0.00503608
0.0128297	0.271703
0.0381631	0.541703
0.100496	1.0917
0.15083	1.38504
