Adsorption isotherm of Carbon Dioxide on Activated Carbon-700-1
DOI: 10.1039/C2cp44436d
Adsorbate Carbon Dioxide: InChIKey CURLTUGMZLYLDI-UHFFFAOYSA-N
Temperature: 273 K
Tabular data in the source: 0
pressure (bar)	uptake (mmol/g)
0.00414863	0.204293
0.0291486	0.554293
0.0908153	1.26596
0.134149	1.72096
0.219149	2.51429
0.312482	3.16763
0.414149	3.87929
0.512482	4.46263
0.609149	4.98763
0.705815	5.48929
0.802482	6.00263
0.894149	6.43429
0.992482	6.86596
