Adsorption isotherm of Carbon Dioxide on Activated Carbon-600-0.5
DOI: 10.1039/C2cp44436d
Adsorbate Carbon Dioxide: InChIKey CURLTUGMZLYLDI-UHFFFAOYSA-N
Temperature: 273 K
Tabular data in the source: 0
pressure (bar)	uptake (mmol/g)
0.000815	0.450072
0.0108153	0.656739
0.0241486	0.950072
0.0408153	1.20341
0.134149	2.15674
0.220815	2.60341
0.339149	2.99674
0.417482	3.18341
0.510815	3.37007
0.612482	3.56341
0.709149	3.70341
0.804149	3.80341
0.900815	3.91007
1.00082	4.03007
