Adsorption isotherm of Carbon Dioxide on Activated Carbon-750-0.5
DOI: 10.1039/C2cp44436d
Adsorbate Carbon Dioxide: InChIKey CURLTUGMZLYLDI-UHFFFAOYSA-N
Temperature: 273 K
Tabular data in the source: 0
pressure (bar)	uptake (mmol/g)
0.012482	0.612626
0.0291486	0.869293
0.132482	2.09429
0.232482	2.99263
0.322482	3.57596
0.409149	4.10096
0.509149	4.59096
0.600815	4.96429
0.702482	5.40763
0.800815	5.73429
0.894149	6.00263
0.994149	6.31763
