Adsorption isotherm of Nitrogen on Activated Carbon-700-1
DOI: 10.1039/C2cp44436d
Adsorbate Nitrogen: InChIKey IJGRMHOSHXDMSA-UHFFFAOYSA-N
Temperature: 77 K
Tabular data in the source: 0
pressure (bar)	uptake (cm3(STP)/g)
0.0194023	419.022
0.0481111	483.022
0.0987736	517.022
0.137615	533.022
0.183211	543.022
0.276092	547.022
0.41457	555.022
0.488875	561.022
0.593577	565.022
0.664505	569.022
0.745565	573.022
0.808049	573.022
0.840135	577.022
0.899241	583.022
0.948215	589.022
0.970169	597.022
0.9955	615.022
1.01576	635.022
