Adsorption isotherm of Nitrogen on Activated Carbon-800-0.5
DOI: 10.1039/C2cp44436d
Adsorbate Nitrogen: InChIKey IJGRMHOSHXDMSA-UHFFFAOYSA-N
Temperature: 298 K
Tabular data in the source: 0
pressure (bar)	uptake (mmol/g)
0.017482	0.0500722
0.062482	0.0700722
0.105815	0.0900722
0.164149	0.116739
0.209149	0.143405
0.255815	0.156739
0.297482	0.210072
0.340815	0.203405
0.397482	0.230072
0.440815	0.270072
0.484149	0.276739
0.537482	0.303405
0.579149	0.336739
0.627482	0.350072
0.672482	0.383406
0.720815	0.390072
0.762482	0.410072
0.809149	0.423405
0.857482	0.436739
0.907482	0.463405
0.955815	0.490072
1.00415	0.510072
