Adsorption isotherm of Nitrogen on Activated Carbon-600-2
DOI: 10.1039/C2cp44436d
Adsorbate Nitrogen: InChIKey IJGRMHOSHXDMSA-UHFFFAOYSA-N
Temperature: 77 K
Tabular data in the source: 0
pressure (bar)	uptake (cm3(STP)/g)
0.0109586	271.022
0.0497998	299.022
0.0801973	309.022
0.119039	311.022
0.154502	311.022
0.200099	319.022
0.262582	317.022
0.399371	319.022
0.50914	329.022
0.625664	331.022
0.769207	337.022
0.851956	343.022
0.902619	349.022
0.94146	349.022
0.966791	357.022
0.988745	369.022
