Adsorption isotherm of Lead(II) Ion on Cucumber Peel
DOI: 10.1016/j.jclepro.2017.03.028
Article source: Figure 4a
Adsorbate Lead(II) Ion: InChIKey RVPVRDXYQKGNMQ-UHFFFAOYSA-N
Kind: experiment
Temperature: 303 K
Tabular data in the source: 0
pressure (bar)	uptake (mg/g)
1.01325	9.666
1.01325	24.783
1.01325	49.268
1.01325	74.301
1.01325	98.183
1.01325	117.402
1.01325	129.957
1.01325	131.576
