Adsorption isotherm of Nitrogen on Aminal-COF-2
DOI: 10.1021/jacs.9b08017
Article source: Figure 3(c)
Adsorbate Nitrogen: InChIKey IJGRMHOSHXDMSA-UHFFFAOYSA-N
Kind: experiment
Temperature: 77 K
Tabular data in the source: 0
pressure (bar)	uptake (cm3(STP)/g)
0	4.82574
0	17.6944
0	38.6059
0	49.866
0	62.7346
0.001834	91.689
0.001834	104.558
0.001834	117.426
0.001834	133.512
0.001834	172.118
0.001834	184.987
0.001834	197.855
0.005512	230.027
0.005512	242.895
0.00919	252.547
0.025747	267.024
0.053327	278.284
0.075396	291.153
0.102977	294.37
0.152636	300.804
0.204119	307.239
0.255613	310.456
0.303428	316.89
0.354911	320.107
0.40456	324.933
0.459732	329.759
0.505703	334.584
0.557196	337.802
0.606846	342.627
0.658339	345.845
0.709822	350.67
0.759482	358.713
0.810965	361.93
0.862458	371.582
0.913952	387.668
0.928664	400.536
0.947044	410.188
0.961757	423.056
0.972791	442.359
0.981991	463.271
0.991181	500.268
1.00222	571.046
0.051493	284.719
0.07724	292.761
0.101143	297.587
0.152636	307.239
0.204119	313.673
0.251934	320.107
0.303428	323.324
0.354911	326.542
0.402726	329.759
0.457898	339.41
0.505703	345.845
0.557196	349.062
0.60869	352.279
0.658339	357.105
0.707988	361.93
0.757637	366.756
0.807287	374.799
0.85878	381.233
0.910273	397.319
0.932342	410.188
0.939688	416.622
0.947044	423.056
0.9544	429.491
0.961757	442.359
0.972791	461.662
0.983825	487.399
0.993026	534.048
