Adsorption isotherm of Nitrogen on Aminal-COF-1
DOI: 10.1021/jacs.9b08017
Article source: Figure 3(a)
Adsorbate Nitrogen: InChIKey IJGRMHOSHXDMSA-UHFFFAOYSA-N
Kind: experiment
Temperature: 77 K
Tabular data in the source: 0
pressure (bar)	uptake (cm3(STP)/g)
0	2.51256
0	12.5628
0	25.1256
0	45.2261
0	55.2764
0	70.3518
0	94.2211
0	118.09
0	138.191
0	148.241
0	158.291
0	190.955
0	201.005
0	213.568
0	233.668
0.003901	243.719
0.009747	255.025
0.023386	268.844
0.050662	281.407
0.075994	287.688
0.09938	292.714
0.148086	301.508
0.20265	306.533
0.251367	312.814
0.300074	316.583
0.352692	322.864
0.4053	326.633
0.454017	331.658
0.50468	334.171
0.553386	336.683
0.60795	344.221
0.656667	345.477
0.709275	350.503
0.759937	354.271
0.8106	359.296
0.859317	364.322
0.911925	371.859
0.939202	376.884
0.958686	384.422
0.970379	389.447
0.982072	396.985
0.993765	407.035
1.00156	422.111
0.048717	286.432
0.072093	293.97
0.097424	298.995
0.148086	306.533
0.20265	314.07
0.253312	319.095
0.300074	324.121
0.354637	329.146
0.4053	331.658
0.452061	336.683
0.50468	345.477
0.557288	349.246
0.604049	354.271
0.656667	355.528
0.709275	359.296
0.759937	363.065
0.808655	365.578
0.859317	370.603
0.90998	376.884
0.935311	379.397
0.954796	386.935
0.970379	394.472
0.985973	402.01
0.993765	409.548
