Adsorption isotherm of Nitrogen on HP-CuBTC-0.10
DOI: 10.1039/c5ce00938c
Article source: Figure 3a- HP CuBTC 0.10
Adsorbate Nitrogen: InChIKey IJGRMHOSHXDMSA-UHFFFAOYSA-N
Kind: experiment
Temperature: 77 K
Tabular data in the source: 0
pressure (bar)	uptake (cm3(STP)/g)
8.1e-05	161.141
0.000162	80.916
0.000233	211.584
0.000314	50.357
0.000395	191.182
0.000476	40.415
0.000628	240.199
0.001023	249.276
0.001966	257.532
0.002594	266.782
0.004874	274.866
0.01069	282.993
0.021309	288.787
0.032231	291.858
0.041979	294.237
0.051412	295.578
0.061707	297.136
0.071698	297.743
0.081992	298.652
0.091983	299.778
0.102511	300.342
0.112491	301.294
0.122715	301.772
0.133009	302.335
0.142291	302.985
0.152747	303.549
0.163204	303.68
0.173975	304.331
0.182618	304.548
0.193622	304.939
0.202822	305.243
0.212337	305.763
0.223108	306.37
0.233716	306.416
0.24394	306.547
0.253525	307.11
0.263668	307.112
0.274915	307.806
0.284896	307.851
0.293853	308.155
0.304623	308.2
0.31508	308.461
0.325071	308.765
0.335284	308.897
0.345275	308.898
0.355256	309.246
0.36555	309.68
0.375541	309.682
0.385602	309.986
0.396059	309.988
0.406192	310.249
0.415473	310.294
0.426639	310.468
0.437015	310.513
0.446529	310.817
0.457057	310.906
0.466804	309.951
0.467047	309.913
0.477575	313.35
0.477737	313.416
0.487323	314.153
0.487485	314.075
0.497384	310.913
0.507375	314.891
0.507527	314.875
0.517588	310.83
0.52765	315.413
0.527731	315.435
0.537722	311.352
0.538583	315.199
0.548097	311.526
0.548249	311.513
0.557683	311.77
0.557764	311.787
0.567987	315.895
0.568372	315.879
0.577887	311.142
0.578282	315.422
0.588344	311.836
0.588658	311.909
0.598638	312.313
0.598881	312.364
0.607757	311.753
0.608315	316.248
0.618609	312.965
0.61869	312.964
0.629147	313.312
0.629532	313.363
0.638976	313.357
0.639442	316.643
0.649584	316.082
0.658785	312.453
0.65917	316.905
0.669627	316.993
0.66987	313.017
0.679769	313.213
0.679931	313.191
0.689679	313.236
0.699821	316.88
0.699892	316.869
0.709407	317.339
0.709488	317.346
0.719549	313.89
0.720097	317.305
0.730087	317.705
0.730239	317.739
0.74023	313.893
0.740615	317.784
0.749815	317.907
0.750129	317.958
0.760272	313.551
0.760667	313.681
0.770415	317.878
0.77081	318.048
0.780162	313.641
0.780628	318.136
0.790619	318.332
0.790852	318.613
0.800994	318.745
0.801075	318.664
0.811218	314.195
0.811532	313.862
0.821594	315.247
0.821746	315.385
0.831098	314.454
0.83126	314.471
0.841403	315.132
0.841555	315.078
0.862073	315.946
0.862468	316.109
0.871669	315.947
0.872216	319.794
0.882125	316.208
0.882358	316.228
0.892339	317.161
0.893129	319.928
0.902086	317.336
0.902796	319.713
0.912472	317.813
0.913881	320.32
0.922534	320.754
0.922919	318.463
0.932909	320.799
0.933771	319.373
0.942343	320.973
0.94289	318.899
0.953428	321.451
0.954208	319.895
0.962699	321.539
0.97269	322.059
0.982751	321.931
0.993593	322.236
1.00365	322.324
