Adsorption isotherm of Nitrogen on HP-CuBTC-0.08
DOI: 10.1039/c5ce00938c
Article source: Figure 3a- HP CuBTC 0.08
Adsorbate Nitrogen: InChIKey IJGRMHOSHXDMSA-UHFFFAOYSA-N
Kind: experiment
Temperature: 77 K
Tabular data in the source: 0
pressure (bar)	uptake (cm3(STP)/g)
0.002594	266.826
0.004955	274.952
0.010923	283.641
0.022089	288.96
0.032627	292.506
0.041979	295.49
0.052517	297.135
0.063125	299.427
0.073106	299.861
0.083492	300.598
0.093705	301.118
0.102744	302.503
0.112258	302.505
0.122168	302.939
0.132229	304.107
0.142919	304.628
0.152899	305.321
0.163599	305.712
0.171847	305.584
0.182618	305.975
0.192761	306.452
0.20267	306.453
0.21257	306.671
0.223341	306.803
0.233402	306.848
0.242754	306.936
0.254863	307.197
0.26383	307.631
0.273578	307.805
0.282069	307.85
0.293934	308.371
0.305019	308.805
0.314219	308.807
0.324757	309.068
0.335994	309.459
0.345903	310.152
0.355803	309.938
0.365317	310.458
0.376321	310.46
0.385917	310.677
0.39613	310.679
0.405878	310.422
0.415949	309.596
0.425302	311.203
0.487566	325.089
0.498012	326.778
0.508631	325.741
0.518379	326.347
0.529068	327.041
0.539049	326.913
0.549901	327.477
0.559182	327.867
0.570024	327.912
0.580015	328.649
0.589995	328.564
0.600847	328.739
0.610432	329.389
0.619866	329.045
0.630008	328.744
0.63929	329.134
0.649503	329.352
0.659808	329.7
0.671359	329.745
0.682049	329.704
0.69133	329.748
0.701311	329.88
0.711605	330.141
0.720259	330.358
0.729216	330.533
0.738102	330.751
0.749501	330.752
0.759563	330.711
0.771276	330.886
0.780709	331.363
0.790771	331.581
0.800913	331.366
0.809952	332.146
0.820722	331.586
0.830237	331.977
0.840379	331.978
0.851069	332.239
0.861526	331.939
0.870959	331.94
0.881102	332.547
0.891164	332.333
0.901934	332.205
0.909797	332.206
0.95358	333.727
0.965455	333.858
0.973004	333.989
0.986125	333.819
1.00397	332.006
