Adsorption isotherm of Nitrogen on CuBTC
DOI: 10.1039/c5ce00938c
Article source: Figure 3a- CuBTC
Adsorbate Nitrogen: InChIKey IJGRMHOSHXDMSA-UHFFFAOYSA-N
Kind: experiment
Temperature: 77 K
Tabular data in the source: 0
pressure (bar)	uptake (cm3(STP)/g)
0	262.416
8.1e-05	271.364
0.000162	221.828
0.000233	249.795
0.000314	231.251
0.000395	171.904
0.000476	132.094
0.000547	281.651
0.000628	338.924
0.000709	320.38
0.00079	365.42
0.000861	357.251
0.001733	381.241
0.00456	388.46
0.010224	394.685
0.02067	398.188
0.031056	401.95
0.040723	404.2
0.050946	405.718
0.051098	405.801
0.060846	412.243
0.062416	410.298
0.072245	416.178
0.073268	412.85
0.082306	418.557
0.083249	415.402
0.092611	420.375
0.093158	417.738
0.102359	419.943
0.102592	419.944
0.112572	421.363
0.112734	421.372
0.122482	422.503
0.122715	422.498
0.133009	425.266
0.133404	424.056
0.143547	424.668
0.143709	424.663
0.153214	426.869
0.153457	426.912
0.162961	428.031
0.163285	428.167
0.174046	428.428
0.174441	428.213
0.183165	427.647
0.183479	427.609
0.193308	430.117
0.193389	430.128
0.203136	429.914
0.203532	429.903
0.214069	432.152
0.214221	432.171
0.223341	430.814
0.229866	432.76
0.233878	433.15
0.243464	432.719
0.249908	433.801
0.252188	434.104
0.26383	433.544
0.270193	434.583
0.271926	434.799
0.283558	434.801
0.290397	435.796
0.292596	435.753
0.303296	435.193
0.310764	436.535
0.313044	436.578
0.324047	436.407
0.330887	437.359
0.332772	437.532
0.343461	437.016
0.35101	438.184
0.352743	438.184
0.363899	437.408
0.371214	438.793
0.373646	438.75
0.385835	438.665
0.391966	439.79
0.39535	439.661
0.405726	437.631
0.412251	440.529
0.41524	440.356
0.42522	438.586
0.432293	440.835
0.436457	440.489
0.44739	440.707
0.453054	441.53
0.456196	441.79
0.466095	440.84
0.472701	442.397
0.474353	442.225
0.485357	441.795
0.493068	442.747
0.49479	442.79
0.506503	441.971
0.512715	443.269
0.51468	443.399
0.525998	442.19
0.533547	443.964
0.535513	443.921
0.546365	443.447
0.553994	444.227
0.556031	444.227
0.567673	443.494
0.574432	445.008
0.576549	445.095
0.587634	444.233
0.594322	445.487
0.595973	445.487
0.608315	444.668
0.614759	445.75
0.616563	445.923
0.627891	445.623
0.635429	446.488
0.637476	446.575
0.647933	445.41
0.654772	447.097
0.65611	447.183
0.668532	445.975
0.675838	447.403
0.67828	447.403
0.688888	446.843
0.695576	447.839
0.697146	447.839
0.709569	447.149
0.716013	448.534
0.71806	448.664
0.728902	447.455
0.736683	448.667
0.738497	448.667
0.748792	447.848
0.756817	448.93
0.757911	449.103
0.761133	448.023
0.770181	448.327
0.776859	449.187
0.779139	449.236
0.79683	449.715
0.798715	449.672
0.817034	450.15
0.81821	450.242
0.832517	449.375
0.842031	450.76
0.852326	450.502
0.862549	450.979
0.872611	450.981
0.882439	450.983
0.89242	451.157
0.902796	451.332
0.912786	451.593
0.923628	451.941
0.933376	452.504
0.943366	452.722
0.954056	452.81
0.962942	453.028
0.973551	453.116
0.982275	453.074
0.9903	453.681
0.999095	453.769
1.00311	453.337
