Adsorption isotherm of Nitrogen on HP-CuBTC-0.25
DOI: 10.1039/c5ce00938c
Article source: Figure 3a- HP CuBTC 0.25
Adsorbate Nitrogen: InChIKey IJGRMHOSHXDMSA-UHFFFAOYSA-N
Kind: experiment
Temperature: 77 K
Tabular data in the source: 0
pressure (bar)	uptake (cm3(STP)/g)
0.000314	201.426
0.000395	190.707
0.000861	208.299
0.002442	217.247
0.004955	224.769
0.008724	229.783
0.021065	234.626
0.022717	233.849
0.031836	237.524
0.032941	236.574
0.041513	239.558
0.044887	239.039
0.051726	240.77
0.059275	240.512
0.062811	241.982
0.07264	240.687
0.082468	243.801
0.092135	244.753
0.101173	245.144
0.112106	245.794
0.122401	246.228
0.131915	247.008
0.142524	247.269
0.150863	247.616
0.162961	248.31
0.17279	248.614
0.182223	248.832
0.193237	249.179
0.203136	249.354
0.213279	249.788
0.223189	250.135
0.234111	250.483
0.244021	250.701
0.25392	250.875
0.263901	251.136
0.274753	251.916
0.284419	252.091
0.293853	251.963
0.304867	252.656
0.314452	252.917
0.324281	252.919
0.334656	253.31
0.345113	253.614
0.355175	253.875
0.364689	254.093
0.375298	254.138
0.385835	254.313
0.395816	254.617
0.405959	254.835
0.417591	255.355
0.425454	255.659
0.436387	256.223
0.446286	257.478
0.456591	255.232
0.456824	255.318
0.46492	262.15
0.466966	256.012
0.476866	256.662
0.477656	268.203
0.485752	256.361
0.487566	274.084
0.496685	256.579
0.496999	276.765
0.506818	277.804
0.507446	257.013
0.517203	256.885
0.517517	277.979
0.52687	257.19
0.527103	257.462
0.537083	257.278
0.537793	278.458
0.547307	278.589
0.548016	257.452
0.55674	257.713
0.557602	278.634
0.567592	257.888
0.567906	279.025
0.577421	257.803
0.578282	279.502
0.587867	258.67
0.588263	279.547
0.597777	258.153
0.598253	258.371
0.608001	258.883
0.608467	258.846
0.618376	280.157
0.618457	280.116
0.628904	280.894
0.62938	258.979
0.638733	280.521
0.638814	280.766
0.648956	280.897
0.649037	280.648
0.659018	259.33
0.659332	280.986
0.668137	259.591
0.668684	281.376
0.679303	281.701
0.679374	281.724
0.689051	260.416
0.689679	281.899
0.698636	260.417
0.699507	282.16
0.708779	282.161
0.70964	260.938
0.719549	261.113
0.720492	283.071
0.729773	261.028
0.730796	283.029
0.739754	261.462
0.740544	283.377
0.749734	262.242
0.750362	283.768
0.759167	262.2
0.760667	284.331
0.770181	262.634
0.770252	284.765
0.78079	262.982
0.781499	285.199
0.790376	263.329
0.790538	263.426
0.800518	285.32
0.80068	286.153
0.810509	286.198
0.810661	264.111
0.820489	264.545
0.820803	286.892
0.830551	287.326
0.831098	264.892
0.839903	265.931
0.840379	288.235
0.850046	288.712
0.850755	266.408
0.86027	267.275
0.860665	269.408
0.870807	290.099
0.871273	268.098
0.880707	290.403
0.882125	269.223
0.890687	271.029
0.891082	270.651
0.902015	291.79
0.902877	271.647
0.91152	292.354
0.911682	292.293
0.921348	292.96
0.922686	274.46
0.93141	293.956
0.932119	275.975
0.941715	294.477
0.943913	277.836
0.9513	295.04
0.9528	279.782
0.961361	295.647
0.962385	281.642
0.973318	284.238
0.978739	296.385
0.984636	286.876
0.986835	296.3
0.99415	290.509
0.994778	295.696
1.00421	294.142
