Adsorption isotherm of Nitrogen on HP-CuBTC-0.11
DOI: 10.1039/c5ce00938c
Article source: Figure 3a- HP CuBTC 0.11
Adsorbate Nitrogen: InChIKey IJGRMHOSHXDMSA-UHFFFAOYSA-N
Kind: experiment
Temperature: 77 K
Tabular data in the source: 0
pressure (bar)	uptake (cm3(STP)/g)
0.001256	249.017
0.001733	256.408
0.002756	266.048
0.005664	273.612
0.011632	281.74
0.020123	287.274
0.030894	290.604
0.042374	291.687
0.053226	294.152
0.062892	296.445
0.072721	297.7
0.082935	298.566
0.092611	299.346
0.102744	299.866
0.111792	300.776
0.121935	301.642
0.133171	302.378
0.142524	302.769
0.153376	303.074
0.163437	303.507
0.173104	303.596
0.18356	303.986
0.193389	304.723
0.204241	304.638
0.214616	304.726
0.224202	304.771
0.234973	305.249
0.245034	305.553
0.254782	306.117
0.265401	306.075
0.285686	306.684
0.294329	306.728
0.3051	307.119
0.315394	307.251
0.325142	307.814
0.334504	308.335
0.345974	307.818
0.356036	308.425
0.365236	307.648
0.376088	307.823
0.386383	308.387
0.395664	308.95
0.405645	308.476
0.425849	308.437
0.426244	308.507
0.437015	308.959
0.437167	308.957
0.44888	314.189
0.455091	316.006
0.45651	309.133
0.465315	317.996
0.476714	323.098
0.486694	309.96
0.486856	310.121
0.495976	327.597
0.50627	328.247
0.506818	309.704
0.516646	309.792
0.525532	328.985
0.536455	328.901
0.536769	310.444
0.546446	310.575
0.55674	329.25
0.566721	329.425
0.567906	310.103
0.576793	329.642
0.586925	329.86
0.608072	329.821
0.618376	329.952
0.627891	330.17
0.638266	330.474
0.64848	330.606
0.658542	330.737
0.66837	330.695
0.67828	330.567
0.688807	330.785
0.69895	330.83
0.708383	330.962
0.718759	331.309
0.739358	331.486
0.748954	331.617
0.75933	331.792
0.770019	331.793
0.779453	331.881
0.799971	332.231
0.810347	332.319
0.820408	332.277
0.830784	332.539
0.839832	332.454
0.850674	332.239
0.860503	332.587
0.870645	332.675
0.881882	333.325
0.891164	332.808
0.90162	333.199
0.910577	333.33
0.921196	333.548
0.932595	333.723
0.941867	333.681
0.957511	333.684
0.965141	333.512
0.976226	333.86
0.985183	333.343
0.994221	333.474
1.0039	332.784
