Adsorption isotherm of Hydrogen on DMOF-10
DOI: 10.1002/chem.201200696
Adsorbate Hydrogen: InChIKey UFHFLCQGNIYNRP-UHFFFAOYSA-N
Temperature: 77 K
Tabular data in the source: 0
pressure (bar)	uptake (wt%)
0.0296635	0.0910769
0.0822596	0.174769
0.154511	0.241231
0.190216	0.268308
0.236338	0.295385
0.289936	0.317538
0.388982	0.356923
0.495	0.384
0.606394	0.413538
0.704095	0.433231
0.804567	0.455385
0.854215	0.457846
0.954519	0.477538
1.04147	0.492308
