Adsorption isotherm of Hydrogen on DMOF-14
DOI: 10.1002/chem.201200696
Adsorbate Hydrogen: InChIKey UFHFLCQGNIYNRP-UHFFFAOYSA-N
Temperature: 77 K
Tabular data in the source: 0
pressure (bar)	uptake (wt%)
0.00400996	0.0284966
0.00619484	0.110211
0.0149343	0.196732
0.0542621	0.326513
0.0870352	0.386597
0.137287	0.461102
0.18317	0.504362
0.26838	0.554833
0.366699	0.600497
0.517455	0.653371
0.620144	0.684614
0.718464	0.708648
0.821153	0.735085
0.919472	0.747102
0.989388	0.763925
