Adsorption isotherm of Nitrogen on DMOF-8
DOI: 10.1002/chem.201200696
Adsorbate Nitrogen: InChIKey IJGRMHOSHXDMSA-UHFFFAOYSA-N
Temperature: 77 K
Tabular data in the source: 0
pressure (bar)	uptake (cm3(STP)/g)
0.00545668	29.2405
0.0146252	47.8481
0.031947	68.2278
0.0572317	82.8481
0.122902	91.2658
0.172107	95.6962
0.248564	99.2405
0.357286	101.899
0.503442	104.114
0.699565	105.886
0.858095	107.658
1.02665	109.43
