Adsorption isotherm of Hydrogen on DMOF-7
DOI: 10.1002/chem.201200696
Adsorbate Hydrogen: InChIKey UFHFLCQGNIYNRP-UHFFFAOYSA-N
Temperature: 77 K
Tabular data in the source: 0
pressure (bar)	uptake (cm3(STP)/g)
0.00805812	15.5063
0.0295676	26.5823
0.0954602	49.6203
0.163796	58.481
0.202659	62.0253
0.305923	70.443
0.408077	75.7595
0.571175	83.2911
0.67003	86.3924
0.771073	88.6076
0.877447	91.7089
1.0388	94.3671
