Adsorption isotherm of Nitrogen on DMOF-7
DOI: 10.1002/chem.201200696
Adsorbate Nitrogen: InChIKey IJGRMHOSHXDMSA-UHFFFAOYSA-N
Temperature: 77 K
Tabular data in the source: 0
pressure (bar)	uptake (cm3(STP)/g)
0.00920022	25.6962
0.0160528	51.8354
0.0223978	69.557
0.0326766	91.2658
0.0443197	102.785
0.0675423	111.646
0.113004	119.62
0.182418	124.494
0.373085	132.025
0.592875	136.899
0.796992	140
1.05108	142.658
