Adsorption isotherm of Hydrogen on DMOF-11
DOI: 10.1002/chem.201200696
Adsorbate Hydrogen: InChIKey UFHFLCQGNIYNRP-UHFFFAOYSA-N
Temperature: 77 K
Tabular data in the source: 0
pressure (bar)	uptake (wt%)
0.015633	0.0763077
0.0378205	0.172308
0.064375	0.256
0.102941	0.324923
0.1573	0.396308
0.235601	0.475077
0.344479	0.544
0.451843	0.590769
0.553325	0.627692
0.654639	0.662154
0.757885	0.686769
0.860793	0.706462
0.961098	0.726154
1.04561	0.743385
