Adsorption isotherm of Hydrogen on DMOF-13
DOI: 10.1002/chem.201200696
Adsorbate Hydrogen: InChIKey UFHFLCQGNIYNRP-UHFFFAOYSA-N
Temperature: 77 K
Tabular data in the source: 0
pressure (bar)	uptake (wt%)
0.00400996	0.110211
0.0149343	0.249606
0.0433377	0.36016
0.0848503	0.441875
0.165691	0.552429
0.266195	0.643757
0.318632	0.670194
0.373254	0.699034
0.421321	0.723068
0.475943	0.749505
0.572077	0.783152
0.674766	0.816799
0.722834	0.826413
0.917287	0.87448
0.991573	0.8889
