Adsorption isotherm of Hydrogen on DMOF-15
DOI: 10.1002/chem.201200696
Adsorbate Hydrogen: InChIKey UFHFLCQGNIYNRP-UHFFFAOYSA-N
Temperature: 77 K
Tabular data in the source: 0
pressure (bar)	uptake (wt%)
0.00182509	0.151068
0.0127495	0.247202
0.0433377	0.362564
0.0782957	0.441875
0.108884	0.482732
0.163506	0.550026
0.220312	0.61011
0.368884	0.723068
0.419136	0.754312
0.51964	0.809589
0.622329	0.850446
0.875775	0.941774
0.932581	0.956194
0.991573	0.973018
