Adsorption isotherm of Hydrogen on DMOF-9
DOI: 10.1002/chem.201200696
Adsorbate Hydrogen: InChIKey UFHFLCQGNIYNRP-UHFFFAOYSA-N
Temperature: 77 K
Tabular data in the source: 0
pressure (bar)	uptake (wt%)
0.015633	0.0763077
0.0634455	0.204308
0.114696	0.268308
0.148806	0.310154
0.181402	0.329846
0.292885	0.398769
0.399407	0.433231
0.503157	0.465231
0.605897	0.482462
0.703766	0.504615
0.809447	0.526769
0.914287	0.536615
0.969479	0.544
1.04584	0.556308
