Adsorption isotherm of Hydrogen on DMOF-6
DOI: 10.1002/chem.201200696
Adsorbate Hydrogen: InChIKey UFHFLCQGNIYNRP-UHFFFAOYSA-N
Temperature: 77 K
Tabular data in the source: 0
pressure (bar)	uptake (wt%)
0.0573819	0.330982
0.0928532	0.43865
0.129806	0.518405
0.15833	0.582209
0.222691	0.697853
0.285778	0.781595
0.345949	0.857362
0.399968	0.909202
0.459023	0.957055
0.563509	1.03681
0.677906	1.1046
0.776241	1.16043
0.88189	1.20429
0.979587	1.24417
1.06154	1.28006
