Adsorption isotherm of Hydrogen on DMOF-8
DOI: 10.1002/chem.201200696
Adsorbate Hydrogen: InChIKey UFHFLCQGNIYNRP-UHFFFAOYSA-N
Temperature: 77 K
Tabular data in the source: 0
pressure (bar)	uptake (cm3(STP)/g)
0.00805812	15.5063
0.0319152	26.1392
0.0786777	44.7468
0.138098	56.7089
0.183719	65.1266
0.28527	75.7595
0.390724	83.2911
0.547254	93.481
0.702674	100.57
0.799816	105.886
0.909172	110.316
1.02605	114.747
