Adsorption isotherm of Hydrogen on DMOF-5
DOI: 10.1002/chem.201200696
Adsorbate Hydrogen: InChIKey UFHFLCQGNIYNRP-UHFFFAOYSA-N
Temperature: 77 K
Tabular data in the source: 0
pressure (bar)	uptake (wt%)
0.0708469	0.342945
0.104087	0.394785
0.150793	0.458589
0.207569	0.514417
0.280089	0.574233
0.338188	0.59816
0.43912	0.653988
0.492025	0.677914
0.587125	0.717791
0.694733	0.745706
0.797307	0.777607
0.899562	0.801534
0.947112	0.821472
1.04142	0.841411
