Adsorption isotherm of Hydrogen on DMOF-2
DOI: 10.1002/chem.201200696
Adsorbate Hydrogen: InChIKey UFHFLCQGNIYNRP-UHFFFAOYSA-N
Temperature: 77 K
Tabular data in the source: 0
pressure (bar)	uptake (wt%)
0.0329854	0.17546
0.0671819	0.251227
0.103498	0.315031
0.155557	0.382822
0.20894	0.418712
0.243981	0.450613
0.288933	0.470552
0.344594	0.498466
0.442451	0.542331
0.492598	0.56227
0.547781	0.578221
0.650355	0.610123
0.760402	0.634049
0.855183	0.665951
0.957119	0.681902
1.03828	0.697853
