Adsorption isotherm of Hydrogen on DMOF-12
DOI: 10.1002/chem.201200696
Adsorbate Hydrogen: InChIKey UFHFLCQGNIYNRP-UHFFFAOYSA-N
Temperature: 77 K
Tabular data in the source: 0
pressure (bar)	uptake (wt%)
0.00705929	0.0270769
0.0683894	0.0861538
0.10359	0.105846
0.155593	0.142769
0.211458	0.16
0.281186	0.189538
0.339487	0.204308
0.43996	0.226462
0.542869	0.246154
0.645272	0.258462
0.750617	0.275692
0.850417	0.288
0.950216	0.300308
1.01305	0.305231
