Adsorption isotherm of Hydrogen on DMOF-3
DOI: 10.1002/chem.201200696
Adsorbate Hydrogen: InChIKey UFHFLCQGNIYNRP-UHFFFAOYSA-N
Temperature: 77 K
Tabular data in the source: 0
pressure (bar)	uptake (wt%)
0.0876584	0.43865
0.126253	0.494479
0.161135	0.522393
0.215792	0.590184
0.296423	0.657975
0.347048	0.689877
0.450418	0.741718
0.510955	0.761656
0.55543	0.769632
0.658163	0.805521
0.760258	0.82546
0.862194	0.841411
0.972401	0.869325
1.0482	0.881288
