Adsorption isotherm of Hydrogen on DMOF-4
DOI: 10.1002/chem.201200696
Adsorbate Hydrogen: InChIKey UFHFLCQGNIYNRP-UHFFFAOYSA-N
Temperature: 77 K
Tabular data in the source: 0
pressure (bar)	uptake (wt%)
0.0266274	0.21135
0.0597084	0.259202
0.103498	0.315031
0.157039	0.354908
0.231519	0.398773
0.27891	0.414724
0.334571	0.442638
0.3844	0.454601
0.445096	0.478528
0.484535	0.490491
0.544753	0.502454
0.652203	0.52638
0.746347	0.542331
0.846323	0.574233
0.945343	0.582209
1.02878	0.590184
