Adsorption isotherm of Hydrogen on DMOF-1
DOI: 10.1002/chem.201200696
Adsorbate Hydrogen: InChIKey UFHFLCQGNIYNRP-UHFFFAOYSA-N
Temperature: 77 K
Tabular data in the source: 0
pressure (bar)	uptake (wt%)
0.0681539	0.470552
0.103147	0.566258
0.164433	0.669939
0.219409	0.745706
0.294845	0.813497
0.350665	0.845399
0.456792	0.901227
0.509537	0.921166
0.554649	0.945092
0.659661	0.973006
0.762075	1.00092
0.861732	1.02485
0.963987	1.04877
1.05294	1.06472
