Adsorption isotherm of Nitrogen on Zeolite IWV
DOI: 10.1016/j.theochem.2009.01.010
Adsorbate Nitrogen: InChIKey IJGRMHOSHXDMSA-UHFFFAOYSA-N
Temperature: 298 K
Tabular data in the source: 0
pressure (bar)	uptake (mmol/g)
0.89977	0.0330579
1.94805	0.0909091
3.74635	0.173554
5.24576	0.231405
6.59604	0.272727
7.64494	0.322314
8.99522	0.363636
10.1939	0.421488
11.3944	0.454545
12.5943	0.495868
13.9446	0.53719
15.2942	0.586777
16.6445	0.628099
17.8444	0.669421
19.1953	0.702479
20.3952	0.743802
21.7461	0.77686
23.0964	0.818182
24.4473	0.85124
25.1973	0.876033
26.5482	0.909091
27.8991	0.942149
29.2494	0.983471
30.3001	1.00826
31.651	1.04132
33.1529	1.06612
34.5038	1.09917
35.2545	1.1157
36.6054	1.14876
37.9563	1.18182
39.4581	1.20661
40.3585	1.2314
41.7101	1.2562
43.2113	1.28926
45.3135	1.33058
46.665	1.35537
47.8662	1.38017
49.2177	1.40496
50.1193	1.41322
