Adsorption isotherm of Nitrogen on Zeolite SIV
DOI: 10.1016/j.theochem.2009.01.010
Adsorbate Nitrogen: InChIKey IJGRMHOSHXDMSA-UHFFFAOYSA-N
Temperature: 273 K
Tabular data in the source: 0
pressure (bar)	uptake (mmol/g)
0.757016	0.046281
1.66569	0.0991736
2.42145	0.158678
3.33012	0.21157
4.23879	0.264463
4.99518	0.317355
6.05676	0.363636
6.96543	0.416529
8.02702	0.46281
9.0886	0.509091
10.3031	0.54876
11.3653	0.58843
12.5798	0.628099
13.7943	0.667769
15.0088	0.707438
16.2233	0.747107
17.2855	0.786777
18.5	0.826446
19.5622	0.866116
20.9296	0.899174
22.1441	0.938843
23.3599	0.965289
24.7273	0.998347
26.0954	1.02479
27.3105	1.05785
28.6779	1.09091
29.8937	1.11736
31.2611	1.15041
32.6291	1.17686
33.8449	1.20331
35.3652	1.22975
36.7332	1.2562
38.1019	1.27603
39.4706	1.29587
40.8392	1.3157
42.3602	1.33554
43.7295	1.34876
45.0982	1.3686
46.4656	1.40165
47.6807	1.43471
49.0481	1.46777
49.8083	1.48099
