Adsorption isotherm of Nitrogen on Zeolite IHW
DOI: 10.1016/j.theochem.2009.01.010
Adsorbate Nitrogen: InChIKey IJGRMHOSHXDMSA-UHFFFAOYSA-N
Temperature: 298 K
Tabular data in the source: 0
pressure (bar)	uptake (mmol/g)
1.20878	0.0997188
1.96135	0.192748
3.46838	0.35889
4.07182	0.418708
4.37386	0.445297
5.12959	0.505132
5.27997	0.525066
6.18925	0.571639
7.09789	0.624852
8.15944	0.671442
9.37328	0.71805
10.2832	0.757984
11.4983	0.791314
12.7128	0.831282
13.9272	0.871251
15.2946	0.904597
16.6633	0.924665
17.8784	0.957995
19.3987	0.984719
20.3105	1.00474
21.6791	1.02481
23.2	1.04489
24.5687	1.06496
25.3288	1.07832
26.6981	1.09175
27.0021	1.09842
28.5236	1.11187
29.8923	1.13194
30.8053	1.13868
32.3269	1.15212
35.3694	1.18566
36.8909	1.1991
39.7824	1.21934
42.2171	1.23953
43.7392	1.24633
45.4131	1.2598
46.9353	1.2666
48.4575	1.27341
50.132	1.28024
