Adsorption isotherm of Nitrogen on Zeolite FAU
DOI: 10.1016/j.theochem.2009.01.010
Adsorbate Nitrogen: InChIKey IJGRMHOSHXDMSA-UHFFFAOYSA-N
Temperature: 325 K
Tabular data in the source: 0
pressure (bar)	uptake (mmol/g)
2.71605	0.552527
3.95062	0.821686
4.5679	0.920889
5.55556	1.07678
7.16049	1.27527
7.65432	1.31784
8.39506	1.37462
9.25926	1.48803
10.4938	1.60153
12.0988	1.71512
13.5802	1.85698
14.8148	1.94217
15.5556	1.9848
16.6667	2.05582
17.6543	2.12681
18.7654	2.19782
19.8765	2.26884
21.4815	2.36827
22.8395	2.4535
24.0741	2.51039
25.3086	2.58144
26.4198	2.63831
27.5309	2.68102
28.642	2.73789
30.3704	2.80905
31.4815	2.85176
32.716	2.89451
33.8272	2.95137
36.0494	3.05096
37.7778	3.10797
39.5062	3.17913
41.6049	3.25038
43.0864	3.29318
44.8148	3.35019
47.4074	3.42156
48.642	3.45015
49.7531	3.47872
