Adsorption isotherm of Nitrogen on Zeolite MSE
DOI: 10.1016/j.theochem.2009.01.010
Adsorbate Nitrogen: InChIKey IJGRMHOSHXDMSA-UHFFFAOYSA-N
Temperature: 325 K
Tabular data in the source: 0
pressure (bar)	uptake (mmol/g)
0.904523	0.0516529
2.56281	0.134298
3.61809	0.206612
4.82412	0.258264
5.27638	0.289256
6.48241	0.35124
7.68844	0.402893
9.04523	0.454545
10.2513	0.495868
11.608	0.547521
12.9648	0.588843
14.3216	0.640496
15.2261	0.681818
16.5829	0.71281
17.9397	0.764463
19.2965	0.795455
20.6533	0.836777
21.8593	0.867769
23.2161	0.909091
24.7236	0.940083
25.7789	0.971074
27.2864	1.00207
28.6432	1.04339
30.603	1.08471
32.1106	1.10537
33.4673	1.13636
34.9749	1.14669
35.2764	1.15702
36.6332	1.17769
38.1407	1.20868
39.6482	1.22934
40.5528	1.25
42.0603	1.26033
43.4171	1.29132
45.8291	1.32231
47.3367	1.33264
48.6935	1.36364
50.0503	1.36364
