Adsorption isotherm of Nitrogen on Zeolite UFI
DOI: 10.1016/j.theochem.2009.01.010
Adsorbate Nitrogen: InChIKey IJGRMHOSHXDMSA-UHFFFAOYSA-N
Temperature: 273 K
Tabular data in the source: 0
pressure (bar)	uptake (mmol/g)
0.911392	0.0575257
1.97468	0.115037
2.58228	0.155308
3.49367	0.201311
4.25316	0.247328
5.16456	0.299093
6.07595	0.339334
7.13924	0.379561
8.20253	0.419789
9.26582	0.460016
10.481	0.500228
11.6962	0.528918
12.7595	0.569145
13.9747	0.597835
15.1899	0.632286
16.4051	0.660976
17.6203	0.695427
18.8354	0.724117
20.0506	0.758569
21.2658	0.787258
22.481	0.815948
23.6962	0.844638
24.9114	0.879089
26.1266	0.907779
27.3418	0.942231
28.7089	0.970906
29.9241	0.999596
31.2911	1.01675
32.2025	1.03394
33.5696	1.0511
34.9367	1.07401
36.3038	1.09116
37.6709	1.11408
39.1899	1.13122
40.557	1.14837
41.9241	1.17128
43.2911	1.1942
44.8101	1.21134
46.1772	1.23425
47.5443	1.25716
48.9114	1.28008
49.9747	1.29726
