Adsorption isotherm of Nitrogen on Zeolite MSE
DOI: 10.1016/j.theochem.2009.01.010
Adsorbate Nitrogen: InChIKey IJGRMHOSHXDMSA-UHFFFAOYSA-N
Temperature: 273 K
Tabular data in the source: 0
pressure (bar)	uptake (mmol/g)
0.753769	0.0619835
2.11055	0.247934
3.01508	0.35124
3.76884	0.433884
4.67337	0.53719
5.57789	0.619835
6.48241	0.692149
7.53769	0.774793
8.59296	0.836777
9.64824	0.89876
10.7035	0.971074
11.9095	1.03306
13.1156	1.09504
14.3216	1.14669
15.6784	1.20868
16.8844	1.25
18.2412	1.30165
19.598	1.35331
20.9548	1.3843
22.3116	1.43595
23.8191	1.47727
25.1759	1.50826
26.5327	1.53926
28.0402	1.57025
28.794	1.59091
30.3015	1.61157
31.6583	1.64256
33.0151	1.67355
34.5226	1.70455
34.9749	1.72521
36.4824	1.74587
37.5377	1.76653
39.0452	1.78719
40.402	1.80785
41.005	1.81818
42.5126	1.82851
43.8693	1.84917
45.3769	1.86983
46.8844	1.88017
48.2412	1.90083
49.7487	1.92149
50.0503	1.93182
