Adsorption isotherm of Nitrogen on Zeolite FAU
DOI: 10.1016/j.theochem.2009.01.010
Adsorbate Nitrogen: InChIKey IJGRMHOSHXDMSA-UHFFFAOYSA-N
Temperature: 298 K
Tabular data in the source: 0
pressure (bar)	uptake (mmol/g)
0.49896	0.154639
1.49688	0.417526
3.1185	0.881443
3.99168	1.12887
4.9896	1.34536
6.11227	1.56186
7.73389	1.76289
9.48025	1.94845
11.3514	2.14948
13.2225	2.30412
14.9688	2.45876
16.341	2.55155
18.2121	2.70619
20.8316	2.86082
23.2017	3.01546
25.5717	3.15464
27.4428	3.23196
30.0624	3.37113
32.0582	3.44845
34.0541	3.54124
35.6757	3.60309
37.7963	3.68041
39.9168	3.75773
41.9127	3.83505
45.0312	3.9433
47.1518	4.00515
50.1455	4.08247
