Adsorption isotherm of Nitrogen on Zeolite UFI
DOI: 10.1016/j.theochem.2009.01.010
Adsorbate Nitrogen: InChIKey IJGRMHOSHXDMSA-UHFFFAOYSA-N
Temperature: 325 K
Tabular data in the source: 0
pressure (bar)	uptake (mmol/g)
0.911392	0.0229578
1.97468	0.0459009
2.88608	0.07462
4.10127	0.10331
5.16456	0.137776
6.37975	0.160704
7.59494	0.189394
8.96203	0.218069
10.7848	0.252462
12.1519	0.275376
13.519	0.304052
15.1899	0.338459
16.4051	0.355626
17.7722	0.384302
19.1392	0.407216
20.2025	0.430159
21.5696	0.447312
22.9367	0.470226
24.4557	0.493125
25.2152	0.498813
26.5823	0.521727
28.1013	0.538865
29.4684	0.556018
30.8354	0.573171
32.0506	0.590338
33.5696	0.601715
35.2405	0.618838
36.4557	0.641767
37.8228	0.664681
39.3418	0.68758
40.7089	0.704733
41.3165	0.716197
42.8354	0.727574
44.2025	0.738965
45.4177	0.750371
46.7848	0.767524
48.1519	0.784677
49.519	0.801829
50.2785	0.801757
