Adsorption isotherm of Nitrogen on Zeolite FAU
DOI: 10.1016/j.theochem.2009.01.010
Adsorbate Nitrogen: InChIKey IJGRMHOSHXDMSA-UHFFFAOYSA-N
Temperature: 323 K
Tabular data in the source: 0
pressure (bar)	uptake (mmol/g)
1.11111	0.170073
1.85185	0.297607
2.83951	0.439349
3.7037	0.566911
4.44444	0.680294
5.67901	0.836245
6.66667	0.963836
8.02469	1.09152
9.01235	1.20496
9.87654	1.29007
10.6173	1.36099
11.6049	1.44613
12.8395	1.55963
13.5802	1.60226
14.6914	1.70158
15.679	1.77257
16.7901	1.88604
18.642	2.01383
20.1235	2.09909
21.6049	2.21264
24.1975	2.34061
26.2963	2.46847
28.3951	2.58217
29.6296	2.66737
30.7407	2.71008
33.4568	2.83808
34.9383	2.89503
36.9136	3.02286
39.2593	3.10832
41.7284	3.22211
43.7037	3.30748
45.1852	3.36443
47.284	3.46398
