Adsorption isotherm of Nitrogen on Zeolite SIV
DOI: 10.1016/j.theochem.2009.01.010
Adsorbate Nitrogen: InChIKey IJGRMHOSHXDMSA-UHFFFAOYSA-N
Temperature: 325 K
Tabular data in the source: 0
pressure (bar)	uptake (mmol/g)
1.0641	0.0198347
2.43151	0.0528926
3.49499	0.0793388
5.16634	0.119008
6.53438	0.145455
7.90305	0.165289
9.27109	0.191736
10.7908	0.224793
12.1588	0.25124
13.6798	0.271074
15.2001	0.297521
16.5682	0.323967
18.0891	0.343802
19.4571	0.370248
20.065	0.383471
21.4337	0.403306
22.8024	0.42314
24.1704	0.449587
26.6038	0.482645
27.9731	0.495868
29.4941	0.515702
30.1026	0.522314
31.4712	0.542149
32.9928	0.555372
34.3609	0.581818
35.5779	0.595041
36.9466	0.614876
38.4681	0.628099
39.8374	0.641322
40.7499	0.654545
42.2715	0.667769
43.6401	0.687603
45.1624	0.694215
46.6833	0.71405
48.0526	0.727273
48.5088	0.733884
49.8781	0.747107
