Adsorption isotherm of Nitrogen on Zeolite IHW
DOI: 10.1016/j.theochem.2009.01.010
Adsorbate Nitrogen: InChIKey IJGRMHOSHXDMSA-UHFFFAOYSA-N
Temperature: 310 K
Tabular data in the source: 0
pressure (bar)	uptake (mmol/g)
0.907377	0.0664904
2.11616	0.166209
2.71834	0.239305
3.47407	0.29914
4.23042	0.352335
4.38018	0.378908
5.13591	0.438743
6.04518	0.485316
6.95445	0.53189
8.01538	0.585119
9.22985	0.625088
10.292	0.665039
11.5065	0.705008
12.5687	0.744959
13.9361	0.778306
15.1512	0.811635
16.3669	0.838326
17.7349	0.865033
19.1029	0.89174
20.6232	0.918465
21.9919	0.938533
23.3605	0.958601
24.7286	0.985309
26.0978	0.998738
27.6188	1.01882
28.988	1.03225
30.3573	1.04568
31.8783	1.06577
33.3998	1.07921
34.7691	1.09264
36.7475	1.10614
38.2697	1.11295
40.856	1.13979
42.2246	1.15986
43.4416	1.17327
44.8109	1.1867
46.3325	1.20015
47.8547	1.20695
49.986	1.21383
