Adsorption isotherm of Nitrogen on Zeolite FAU
DOI: 10.1016/j.theochem.2009.01.010
Adsorbate Nitrogen: InChIKey IJGRMHOSHXDMSA-UHFFFAOYSA-N
Temperature: 298 K
Tabular data in the source: 0
pressure (bar)	uptake (mmol/g)
1.12266	0.0463918
2.99376	0.108247
5.11435	0.185567
7.85863	0.278351
9.97921	0.340206
12.7235	0.43299
15.2183	0.525773
17.7131	0.572165
20.0832	0.664948
22.2037	0.726804
24.948	0.804124
27.5676	0.881443
30.0624	0.958763
32.6819	1.00515
35.052	1.08247
37.6715	1.14433
40.1663	1.20619
42.7859	1.26804
45.0312	1.31443
47.6507	1.36082
50.0208	1.42268
