Adsorption isotherm of Nitrogen on Zeolite IWV
DOI: 10.1016/j.theochem.2009.01.010
Adsorbate Nitrogen: InChIKey IJGRMHOSHXDMSA-UHFFFAOYSA-N
Temperature: 325 K
Tabular data in the source: 0
pressure (bar)	uptake (mmol/g)
1.35028	0.0413223
2.85093	0.0826446
3.90045	0.123967
5.25073	0.165289
6.45063	0.206612
7.80153	0.239669
9.15181	0.280992
10.2026	0.305785
11.5528	0.347107
12.9037	0.380165
14.254	0.421488
15.155	0.438017
16.5059	0.471074
17.8568	0.504132
19.2077	0.53719
20.4089	0.561983
21.7591	0.603306
23.1107	0.628099
24.4616	0.661157
25.3626	0.677686
26.7135	0.710744
28.2154	0.735537
29.5669	0.760331
30.9178	0.793388
32.2693	0.818182
32.8696	0.834711
34.2211	0.859504
35.2731	0.867769
36.624	0.900826
38.1253	0.933884
39.4762	0.966942
39.9279	0.958678
41.1284	0.991736
42.7807	1.01653
44.1322	1.04132
45.6341	1.06612
47.1366	1.08264
48.4882	1.10744
49.8397	1.13223
