Adsorption isotherm of Nitrogen on Zeolite UFI
DOI: 10.1016/j.theochem.2009.01.010
Adsorbate Nitrogen: InChIKey IJGRMHOSHXDMSA-UHFFFAOYSA-N
Temperature: 310 K
Tabular data in the source: 0
pressure (bar)	uptake (mmol/g)
0.911392	0.0287191
1.82278	0.0516768
2.88608	0.0919039
4.10127	0.126355
5.16456	0.160821
6.37975	0.195272
7.59494	0.223962
8.96203	0.258399
10.1772	0.287089
11.3924	0.315779
12.6076	0.35023
13.8228	0.384681
15.038	0.413371
16.4051	0.436285
17.7722	0.459199
19.1392	0.482113
20.5063	0.505027
21.7215	0.527955
23.2405	0.550855
24.4557	0.573783
25.9747	0.596683
27.4937	0.625344
28.8608	0.642496
30.3797	0.665396
31.7468	0.682548
33.1139	0.699701
34.6329	0.7226
36	0.739753
37.3671	0.768428
38.7342	0.797104
40.1013	0.820018
41.4684	0.83717
41.9241	0.842888
43.443	0.854265
44.8101	0.871417
46.1772	0.88857
47.6962	0.905708
49.0633	0.9171
49.9747	0.934296
