Adsorption isotherm of Nitrogen on Zeolite FAU
DOI: 10.1016/j.theochem.2009.01.010
Adsorbate Nitrogen: InChIKey IJGRMHOSHXDMSA-UHFFFAOYSA-N
Temperature: 298 K
Tabular data in the source: 0
pressure (bar)	uptake (mmol/g)
1.2474	0.231959
2.99376	0.525773
5.11435	0.819588
7.60915	1.09794
10.104	1.3299
12.973	1.56186
15.0936	1.71649
17.7131	1.90206
20.0832	2.04124
22.578	2.19588
24.948	2.31959
27.3181	2.41237
30.0624	2.48969
32.3077	2.59794
35.1767	2.67526
37.5468	2.76804
40.1663	2.84536
42.7859	2.92268
45.1559	3
47.4012	3.06186
50.0208	3.13918
