Adsorption isotherm of Nitrogen on Zeolite IHW
DOI: 10.1016/j.theochem.2009.01.010
Adsorbate Nitrogen: InChIKey IJGRMHOSHXDMSA-UHFFFAOYSA-N
Temperature: 273 K
Tabular data in the source: 0
pressure (bar)	uptake (mmol/g)
1.80464	0.239204
2.25517	0.305644
3.45448	0.504947
3.90564	0.564748
4.50656	0.651121
5.1081	0.730856
6.01674	0.784068
6.92539	0.837281
7.83466	0.883854
9.04913	0.923823
9.9584	0.970397
11.1735	1.00373
12.5409	1.03707
13.9083	1.07042
15.2763	1.09713
16.6443	1.12383
18.013	1.1439
19.5339	1.16399
20.9019	1.19069
22.2705	1.21076
23.7915	1.23085
24.0954	1.23752
25.617	1.25097
26.9856	1.27104
31.398	1.31136
32.9202	1.31817
34.2895	1.33159
35.8117	1.3384
37.3333	1.35185
38.7025	1.36528
40.2241	1.37872
44.4842	1.41903
46.0071	1.4192
47.5293	1.42601
49.0521	1.42617
