Adsorption isotherm of Nitrogen on Zeolite FAU
DOI: 10.1016/j.theochem.2009.01.010
Adsorbate Nitrogen: InChIKey IJGRMHOSHXDMSA-UHFFFAOYSA-N
Temperature: 310 K
Tabular data in the source: 0
pressure (bar)	uptake (mmol/g)
1.60494	0.396605
2.59259	0.637404
3.95062	0.949045
5.06173	1.16157
6.2963	1.37413
8.39506	1.61519
10.1235	1.77126
11.9753	1.98396
13.4568	2.09751
15.1852	2.22528
17.9012	2.42403
20.1235	2.56607
22.4691	2.72228
25.1852	2.86443
30	3.09198
32.5926	3.2058
35.0617	3.31959
37.7778	3.41929
40.1235	3.4906
43.0864	3.59035
45.1852	3.6616
48.0247	3.74718
50.1235	3.80427
