Adsorption isotherm of Nitrogen on Zeolite MSE
DOI: 10.1016/j.theochem.2009.01.010
Adsorbate Nitrogen: InChIKey IJGRMHOSHXDMSA-UHFFFAOYSA-N
Temperature: 298 K
Tabular data in the source: 0
pressure (bar)	uptake (mmol/g)
0.904523	0.0826446
2.86432	0.227273
3.76884	0.309917
4.82412	0.382231
5.42714	0.423554
6.48241	0.495868
7.68844	0.557851
8.74372	0.619835
10.402	0.702479
11.608	0.764463
12.9648	0.805785
14.1709	0.867769
15.3769	0.919421
16.7337	0.960744
18.0905	1.00207
19.4472	1.05372
20.3518	1.08471
21.7085	1.1157
22.4623	1.14669
23.8191	1.18802
25.3266	1.21901
26.6834	1.25
28.191	1.28099
29.5477	1.31198
30.3015	1.33264
31.6583	1.36364
33.1658	1.3843
34.5226	1.41529
35.4271	1.43595
36.7839	1.45661
38.2915	1.47727
39.6482	1.50826
40.402	1.5186
41.9095	1.53926
43.2663	1.54959
44.7739	1.57025
45.5276	1.58058
47.0352	1.60124
48.392	1.6219
50.0503	1.64256
