Adsorption isotherm of Nitrogen on Zeolite MSE
DOI: 10.1016/j.theochem.2009.01.010
Adsorbate Nitrogen: InChIKey IJGRMHOSHXDMSA-UHFFFAOYSA-N
Temperature: 310 K
Tabular data in the source: 0
pressure (bar)	uptake (mmol/g)
1.20603	0.0619835
2.11055	0.123967
3.01508	0.196281
4.07035	0.268595
5.12563	0.340909
6.33166	0.402893
7.38693	0.464876
8.59296	0.52686
9.79899	0.588843
11.005	0.640496
12.3618	0.692149
13.5678	0.743802
14.9246	0.795455
16.2814	0.826446
17.6382	0.878099
18.995	0.919421
20.3518	0.960744
21.7085	1.00207
22.7638	1.03306
24.1206	1.06405
25.6281	1.09504
26.9849	1.12603
28.4925	1.15702
29.8492	1.19835
31.206	1.21901
32.7136	1.25
33.1658	1.26033
34.6734	1.28099
35.8794	1.31198
37.3869	1.33264
38.7437	1.36364
39.6482	1.37397
41.005	1.39463
42.5126	1.41529
43.5678	1.43595
45.0754	1.45661
46.4322	1.47727
47.9397	1.4876
49.2965	1.5186
50.201	1.52893
