Adsorption isotherm of Nitrogen on Zeolite SIV
DOI: 10.1016/j.theochem.2009.01.010
Adsorbate Nitrogen: InChIKey IJGRMHOSHXDMSA-UHFFFAOYSA-N
Temperature: 298 K
Tabular data in the source: 0
pressure (bar)	uptake (mmol/g)
0.759533	0.0198347
1.36615	0.046281
2.73168	0.0991736
3.94555	0.145455
5.16005	0.185124
6.37454	0.224793
7.58967	0.257851
8.80417	0.297521
10.171	0.33719
11.3861	0.370248
12.7541	0.396694
14.1215	0.429752
15.185	0.456198
16.553	0.482645
17.9205	0.515702
19.1356	0.54876
20.1991	0.575207
21.5671	0.601653
22.9345	0.634711
24.3026	0.661157
25.6706	0.687603
27.0393	0.707438
28.5602	0.727273
30.2322	0.760331
31.6002	0.786777
32.9683	0.813223
34.3363	0.839669
35.2488	0.852893
36.6181	0.866116
38.1397	0.879339
40.2685	0.912397
41.6372	0.932231
43.1575	0.958678
44.5262	0.978512
45.1334	0.998347
46.655	1.01157
46.9589	1.01818
48.4805	1.0314
49.8492	1.05124
