Adsorption isotherm of Nitrogen on Zeolite UFI
DOI: 10.1016/j.theochem.2009.01.010
Adsorbate Nitrogen: InChIKey IJGRMHOSHXDMSA-UHFFFAOYSA-N
Temperature: 298 K
Tabular data in the source: 0
pressure (bar)	uptake (mmol/g)
1.06329	0.0402271
2.73418	0.0976798
3.79747	0.143668
5.31646	0.195374
6.53165	0.229825
7.59494	0.270053
8.81013	0.304504
10.0253	0.338955
10.3291	0.344687
11.3924	0.379153
12.6076	0.413604
13.9747	0.44228
15.3418	0.476716
16.557	0.499645
17.9241	0.534081
19.2911	0.556995
20.2025	0.579953
21.5696	0.602867
22.9367	0.625781
24.3038	0.648695
25.2152	0.671653
26.5823	0.694567
27.9494	0.717481
29.3165	0.740395
30.2278	0.757591
31.5949	0.774744
32.962	0.791897
34.3291	0.814811
35.3924	0.826231
36.7595	0.849145
38.1266	0.872059
39.4937	0.889212
40.2532	0.900662
41.6203	0.923576
42.9873	0.94649
44.3544	0.969404
45.2658	0.9866
46.6329	1.00375
48.1519	1.02089
49.519	1.0438
50.1266	1.04951
