Adsorption isotherm of Nitrogen on Zeolite FAU
DOI: 10.1016/j.theochem.2009.01.010
Adsorbate Nitrogen: InChIKey IJGRMHOSHXDMSA-UHFFFAOYSA-N
Temperature: 308 K
Tabular data in the source: 0
pressure (bar)	uptake (mmol/g)
0.864198	0.155864
1.35802	0.283339
1.7284	0.382483
2.22222	0.481656
4.07407	0.779263
5.67901	1.02021
6.17284	1.11938
6.91358	1.21861
8.02469	1.34623
9.87654	1.55893
10.8642	1.65822
12.5926	1.84259
15.4321	2.11213
18.642	2.3676
20.6173	2.50958
21.7284	2.56645
27.037	2.92147
30.1235	3.07786
32.963	3.27664
37.037	3.46157
40.1235	3.58965
44.6914	3.78884
47.037	3.9026
