Adsorption isotherm of Nitrogen on Zeolite IHW
DOI: 10.1016/j.theochem.2009.01.010
Adsorbate Nitrogen: InChIKey IJGRMHOSHXDMSA-UHFFFAOYSA-N
Temperature: 325 K
Tabular data in the source: 0
pressure (bar)	uptake (mmol/g)
0.75699	0.0465568
1.66563	0.0997694
2.26971	0.152948
2.72276	0.192832
3.6314	0.246045
4.38713	0.30588
5.14286	0.365714
6.05339	0.39901
7.11495	0.445601
8.32879	0.492208
9.39097	0.532159
10.1492	0.565438
11.365	0.592129
12.5801	0.625458
13.9468	0.665444
15.1619	0.698773
16.3783	0.718825
17.7457	0.752171
19.1137	0.778878
20.4817	0.805586
21.8497	0.832293
23.3706	0.852378
24.7393	0.872447
25.3484	0.872514
26.7164	0.899222
28.0851	0.91929
28.5413	0.92598
29.9106	0.939409
31.2792	0.959478
32.8002	0.979563
34.1694	0.992992
35.0812	1.01301
36.4518	1.01316
37.9734	1.02661
40.1034	1.04676
42.2335	1.06691
43.755	1.08036
45.1256	1.08051
46.6465	1.1006
47.7119	1.10735
49.2347	1.10752
50.3007	1.10764
