Adsorption isotherm of Nitrogen on Zeolite IWV
DOI: 10.1016/j.theochem.2009.01.010
Adsorbate Nitrogen: InChIKey IJGRMHOSHXDMSA-UHFFFAOYSA-N
Temperature: 310 K
Tabular data in the source: 0
pressure (bar)	uptake (mmol/g)
1.04952	0.0413223
2.69931	0.0991736
4.04772	0.165289
5.24824	0.198347
6.44752	0.247934
7.7978	0.289256
8.99832	0.322314
10.3492	0.355372
11.5491	0.396694
12.8994	0.438017
14.0993	0.479339
15.4502	0.512397
16.8005	0.553719
18.0004	0.595041
19.3513	0.628099
20.7022	0.661157
22.0531	0.694215
23.253	0.735537
24.7549	0.760331
26.1058	0.793388
27.4567	0.826446
28.8076	0.859504
30.1585	0.892562
31.3596	0.917355
32.8609	0.950413
33.3108	0.966942
34.6623	0.991736
36.1642	1.01653
37.3647	1.04959
38.2657	1.06612
39.6172	1.09091
40.9687	1.1157
42.3196	1.14876
42.9205	1.15702
44.272	1.18182
45.7739	1.20661
47.1255	1.2314
47.8767	1.23967
49.2282	1.26446
49.9795	1.27273
