Adsorption isotherm of Nitrogen on Zeolite FAU
DOI: 10.1016/j.theochem.2009.01.010
Adsorbate Nitrogen: InChIKey IJGRMHOSHXDMSA-UHFFFAOYSA-N
Temperature: 298 K
Tabular data in the source: 0
pressure (bar)	uptake (mmol/g)
0.623701	0.185567
0.873181	0.278351
1.74636	0.463918
2.74428	0.664948
3.1185	0.804124
3.86694	0.943299
5.61331	1.25258
6.61123	1.39175
7.35967	1.51546
9.97921	1.82474
11.1019	1.97938
12.8482	2.14948
15.9667	2.41237
17.8378	2.58247
19.4595	2.72165
20.4574	2.76804
22.2037	2.90722
23.5759	3.01546
25.9459	3.06186
29.4387	3.30928
31.684	3.49485
32.4324	3.54124
36.9231	3.7732
40.2911	3.9433
44.158	4.09794
47.2765	4.23711
