Adsorption isotherm of Nitrogen on Zeolite IWV
DOI: 10.1016/j.theochem.2009.01.010
Adsorbate Nitrogen: InChIKey IJGRMHOSHXDMSA-UHFFFAOYSA-N
Temperature: 273 K
Tabular data in the source: 0
pressure (bar)	uptake (mmol/g)
0.748773	0.0413223
1.6473	0.0909091
2.54521	0.14876
3.59287	0.214876
4.64115	0.272727
5.68943	0.330579
6.73771	0.38843
7.78599	0.446281
8.8349	0.495868
9.88318	0.553719
11.0825	0.603306
12.1314	0.652893
13.3306	0.702479
14.5305	0.743802
15.7298	0.793388
16.9291	0.842975
18.129	0.884298
19.1779	0.933884
20.3778	0.975207
21.7275	1.02479
22.9274	1.06612
24.1273	1.10744
25.3278	1.1405
26.6781	1.18182
28.0283	1.22314
29.2282	1.26446
30.5791	1.29752
31.9294	1.33884
33.1293	1.38017
34.4802	1.41322
35.8317	1.43802
37.0323	1.47107
38.6833	1.5124
40.0342	1.54545
41.3851	1.57851
42.887	1.60331
44.2372	1.64463
45.5888	1.66942
46.9403	1.69421
48.2912	1.72727
49.6427	1.75207
