Adsorption isotherm of Nitrogen on Zeolite FAU
DOI: 10.1016/j.theochem.2009.01.010
Adsorbate Nitrogen: InChIKey IJGRMHOSHXDMSA-UHFFFAOYSA-N
Temperature: 298 K
Tabular data in the source: 0
pressure (bar)	uptake (mmol/g)
0.748441	0.108247
1.8711	0.247423
3.61746	0.448454
5.11435	0.572165
6.36175	0.695876
7.73389	0.819588
9.97921	0.989691
12.0998	1.15979
15.0936	1.34536
17.2141	1.46907
20.0832	1.59278
22.4532	1.71649
24.948	1.80928
27.3181	1.90206
29.9376	2.01031
32.3077	2.11856
34.9272	2.19588
37.1726	2.25773
40.0416	2.33505
42.0374	2.41237
45.0312	2.47423
47.2765	2.55155
50.1455	2.59794
