Adsorption isotherm of Nitrogen on Zeolite FAU
DOI: 10.1016/j.theochem.2009.01.010
Adsorbate Nitrogen: InChIKey IJGRMHOSHXDMSA-UHFFFAOYSA-N
Temperature: 298 K
Tabular data in the source: 0
pressure (bar)	uptake (mmol/g)
0.997921	0.170103
2.74428	0.541237
4.9896	0.958763
7.85863	1.29897
9.97921	1.51546
12.7235	1.76289
15.0936	1.91753
17.3389	2.07216
19.9584	2.2268
22.578	2.36598
24.948	2.47423
27.5676	2.56701
30.1871	2.67526
32.6819	2.75258
34.9272	2.8299
37.5468	2.90722
40.1663	3
42.9106	3.07732
45.0312	3.12371
47.7755	3.20103
50.1455	3.24742
