Adsorption isotherm of Nitrogen on Zeolite SIV
DOI: 10.1016/j.theochem.2009.01.010
Adsorbate Nitrogen: InChIKey IJGRMHOSHXDMSA-UHFFFAOYSA-N
Temperature: 310 K
Tabular data in the source: 0
pressure (bar)	uptake (mmol/g)
0.911188	0.0264463
2.12632	0.0595041
3.34144	0.092562
4.55594	0.132231
5.92398	0.158678
7.13848	0.198347
8.35361	0.231405
9.56874	0.264463
10.9368	0.290909
12.4577	0.310744
13.8258	0.33719
15.1938	0.363636
16.5612	0.396694
17.9293	0.42314
19.2967	0.456198
20.5124	0.482645
21.8805	0.509091
23.2485	0.535537
24.6166	0.561983
25.9852	0.581818
27.3533	0.608264
28.7219	0.628099
30.0906	0.647934
30.6985	0.661157
32.0672	0.680992
33.5887	0.694215
34.9574	0.71405
36.3261	0.733884
37.8477	0.747107
38.4556	0.760331
39.9771	0.773554
41.3458	0.793388
42.7151	0.806612
44.0838	0.826446
45.6047	0.846281
46.9728	0.872727
48.3408	0.899174
49.7089	0.92562
