Adsorption isotherm of Carbon Dioxide on UiO-67/MCM-41
DOI: 10.1016/j.seppur.2013.03.042
Adsorbate Carbon Dioxide: InChIKey CURLTUGMZLYLDI-UHFFFAOYSA-N
Temperature: 373 K
Tabular data in the source: 0
pressure (bar)	uptake (mol/m3)
0.283721	695.652
0.609302	679.842
1	664.032
1.32558	616.601
1.71628	600.791
2.36744	577.075
2.75814	553.36
3.14884	537.549
3.60465	513.834
3.99535	490.119
4.51628	474.308
4.90698	450.593
5.16744	426.877
5.62326	411.067
5.94884	395.257
6.27442	371.542
6.79535	347.826
7.12093	339.921
7.64186	316.206
8.03256	292.49
8.42326	276.68
8.81395	260.87
9.26977	237.154
9.59535	229.249
10.0512	205.534
10.507	189.723
10.8977	166.008
11.3535	134.387
11.9395	126.482
12.2651	110.672
12.6558	86.9565
13.0465	79.0514
13.6326	63.2411
14.3488	39.5257
