Adsorption isotherm of Carbon Dioxide on USO-2-Ni
DOI: 10.1016/j.seppur.2013.03.042
Adsorbate Carbon Dioxide: InChIKey CURLTUGMZLYLDI-UHFFFAOYSA-N
Temperature: 373 K
Tabular data in the source: 0
pressure (bar)	uptake (mol/m3)
0.153488	1351.78
0.674419	1304.35
1.13023	1256.92
1.65116	1201.58
2.10698	1154.15
2.62791	1098.81
3.14884	1051.38
3.60465	1003.95
4.12558	948.617
4.5814	901.186
5.10233	845.85
5.62326	798.419
6.07907	750.988
6.6	703.557
7.12093	648.221
7.57674	600.791
8.09767	553.36
8.6186	505.929
9.13953	458.498
9.66047	418.972
10.1814	371.542
10.7023	324.111
11.2233	284.585
11.8093	237.154
12.3302	197.628
12.9163	158.103
13.4372	110.672
14.0233	71.1462
14.5442	31.6206
