Adsorption isotherm of Carbon Dioxide on UiO-67/MCM-41
DOI: 10.1016/j.seppur.2013.03.042
Adsorbate Carbon Dioxide: InChIKey CURLTUGMZLYLDI-UHFFFAOYSA-N
Temperature: 308 K
Tabular data in the source: 0
pressure (bar)	uptake (mol/m3)
0.183297	1806.37
0.509355	1750.49
0.900833	1694.54
1.29205	1624.71
1.68327	1554.88
2.13965	1471.09
2.40055	1429.17
2.85718	1359.27
3.1835	1317.28
3.44414	1261.46
3.76994	1191.7
4.03084	1149.77
4.55315	1093.7
4.94489	1051.64
5.33611	981.809
5.85868	939.624
6.31532	869.727
6.83764	813.653
7.1637	757.774
7.62085	715.654
8.07749	645.756
8.60007	603.571
8.86097	561.646
9.38302	491.684
9.84018	449.563
10.3625	393.49
10.9505	351.24
11.5382	295.101
12.1257	225.074
12.5826	169.065
13.0398	126.945
13.6278	84.6947
14.4115	14.4727
