Adsorption isotherm of Carbon Dioxide on USO-2-Ni
DOI: 10.1016/j.seppur.2013.03.042
Adsorbate Carbon Dioxide: InChIKey CURLTUGMZLYLDI-UHFFFAOYSA-N
Temperature: 308 K
Tabular data in the source: 0
pressure (bar)	uptake (mol/m3)
0.143302	3166.67
0.468069	3041.67
0.792835	2916.67
1.05218	2791.67
1.31153	2666.67
1.63629	2541.67
1.89564	2416.67
2.15498	2291.67
2.41433	2166.67
2.7391	2041.67
3.06412	1930.56
3.38889	1805.56
3.71366	1680.56
4.03868	1569.44
4.42913	1458.33
4.81957	1347.22
5.21002	1236.11
5.60047	1125
6.05633	1013.89
6.51272	930.556
6.96885	833.333
7.49039	736.111
8.01246	666.667
8.53427	583.333
9.05633	513.889
9.64382	444.444
10.2313	375
10.8191	319.444
11.4068	263.889
11.9945	208.333
12.648	166.667
13.2357	111.111
13.4971	97.2222
14.1508	69.4444
14.608	27.7778
15.1965	13.8889
15.8507	13.8889
