Adsorption isotherm of Nitrogen on Cd3C28H30N20O4
DOI: 10.1039/B712485f
Adsorbate Nitrogen: InChIKey IJGRMHOSHXDMSA-UHFFFAOYSA-N
Temperature: 77 K
Tabular data in the source: 0
pressure (bar)	uptake (ml/g)
0.0625219	0.20785
0.117221	0.195892
0.158897	0.186781
0.213596	0.174822
0.263095	0.38552
0.315189	0.374131
0.362083	0.585398
0.414178	0.574009
0.463659	0.341672
0.518367	0.55123
0.570462	0.539841
0.619952	0.529022
0.672054	0.73915
0.718948	0.950417
0.771051	1.16055
0.820533	0.928208
0.872644	1.35985
0.922142	1.57055
0.974261	2.22371
1.00821	4.43148
