Adsorption isotherm of Hydrogen on Cd3C28H30N20O4
DOI: 10.1039/B712485f
Adsorbate Hydrogen: InChIKey UFHFLCQGNIYNRP-UHFFFAOYSA-N
Temperature: 77 K
Tabular data in the source: 0
pressure (bar)	uptake (ml/g)
0.0210934	6.86248
0.0422115	14.3895
0.112795	21.2412
0.23544	27.1954
0.373672	32.0386
0.569192	36.4262
0.741228	39.7114
0.88209	45.2185
