Adsorption isotherm of Carbon Dioxide on Cd3C28H30N20O4
DOI: 10.1039/B712485f
Adsorbate Carbon Dioxide: InChIKey CURLTUGMZLYLDI-UHFFFAOYSA-N
Temperature: 195 K
Tabular data in the source: 0
pressure (bar)	uptake (ml/g)
0.00274486	3.76522
0.0109382	13.9533
0.0428462	31.4463
0.134548	45.825
0.306749	53.5405
0.486648	58.1531
0.650903	62.3261
0.825503	64.5031
0.937573	66.2507
