Adsorption isotherm of Carbon Dioxide on ZIF-71
DOI: 10.1021/Jp910522h
Adsorbate Carbon Dioxide: InChIKey CURLTUGMZLYLDI-UHFFFAOYSA-N
Temperature: 298 K
Tabular data in the source: 0
pressure (bar)	uptake (molecules/unitcell)
0.471698	20.4918
1.03774	28.6885
2.54717	49.1803
5	69.6721
7.54717	84.4262
10	95.9016
12.6415	106.557
15.0943	112.295
20.0943	123.77
25.0943	126.23
30.0943	131.148
