Adsorption isotherm of Carbon Dioxide on IRMOF-3
DOI: 10.1021/Jp910522h
Adsorbate Carbon Dioxide: InChIKey CURLTUGMZLYLDI-UHFFFAOYSA-N
Temperature: 298 K
Tabular data in the source: 0
pressure (bar)	uptake (mmol/g)
0.947718	1.64903
2.0498	2.20301
3.31199	3.85376
3.94523	5.50107
4.89152	6.60215
5.99575	7.97806
7.25794	9.62881
9.15122	12.1049
10.0975	13.206
11.3583	14.3088
12.4603	14.8628
13.4059	15.6899
15.2942	16.2482
16.3962	16.8022
17.4969	16.8082
18.441	17.0873
20.4865	17.6465
21.7444	17.6534
23.6319	17.9377
25.9912	18.2246
28.0352	18.2358
29.9227	18.5201
31.9675	18.8053
34.9543	18.5477
36.2129	18.8286
38.4142	18.8406
40.1445	19.1241
42.1892	19.4093
