Adsorption isotherm of Carbon Dioxide on ZIF-8
DOI: 10.1021/Jp910522h
Adsorbate Carbon Dioxide: InChIKey CURLTUGMZLYLDI-UHFFFAOYSA-N
Temperature: 298 K
Tabular data in the source: 0
pressure (bar)	uptake (molecules/unitcell)
0.846395	2.66985
1.59875	5.33803
2.3511	8.00621
3.19749	9.61411
3.94984	12.2823
5.17241	13.8969
6.01881	15.5048
6.95925	17.1143
8.08777	18.7272
9.02821	19.2748
9.87461	19.8208
10.721	20.3667
11.6614	20.3834
12.5078	20.3984
13.3542	20.9443
14.2947	20.961
15.2351	20.9776
16.1755	22.5872
17.116	22.6038
18.0564	23.1514
18.9969	23.1681
20.4075	23.1931
21.348	23.7407
22.2884	23.7573
23.2288	23.774
24.1693	24.3216
25.3918	24.3432
26.3323	24.3599
27.2727	24.9075
28.2132	24.9241
29.1536	24.9408
