Adsorption isotherm of Carbon monoxide on MOF-177
DOI: 10.1021/Jp910522h
Adsorbate Carbon monoxide: InChIKey UGFAIRIUMAVXCW-UHFFFAOYSA-N
Temperature: 298 K
Tabular data in the source: 0
pressure (bar)	uptake (molecules/unitcell)
1.33758	4.51883
2.19745	6.5272
3.05732	10.5439
4.58599	14.5607
5.73248	18.5774
6.97452	22.5941
8.12102	26.6109
9.36306	30.6276
10.7006	35.1464
12.0382	39.1632
13.2803	42.6778
14.4268	46.6946
16.1465	51.7155
17.7707	56.2343
19.3949	61.2552
20.3503	63.7657
21.1146	66.7782
21.9745	68.7866
22.7389	71.2971
23.5987	73.8075
24.4586	76.318
25.2229	78.3264
26.0828	80.8368
26.465	81.841
27.3248	83.8494
28.1847	86.3598
29.0446	88.8703
29.8089	91.8828
