Adsorption isotherm of Carbon Dioxide on PCN-6
DOI: 10.1021/Jp910522h
Adsorbate Carbon Dioxide: InChIKey CURLTUGMZLYLDI-UHFFFAOYSA-N
Temperature: 298 K
Tabular data in the source: 0
pressure (bar)	uptake (molecules/unitcell)
1.51899	93.0233
1.89873	130.233
2.8481	174.884
3.41772	219.535
4.08228	256.744
4.6519	286.512
5.12658	316.279
5.79114	346.047
6.36076	372.093
6.93038	401.86
7.68987	435.349
8.44937	461.395
9.11392	483.721
10.3481	520.93
11.1076	539.535
11.962	558.14
13.2911	584.186
14.1456	591.628
15	610.233
15.9494	617.674
16.8038	625.116
17.7532	632.558
18.7025	640
21.3608	658.605
22.3101	662.326
23.1646	669.767
24.1139	673.488
24.9684	684.651
25.9177	680.93
26.8671	684.651
27.1519	688.372
28.1013	692.093
28.8608	695.814
29.6203	695.814
