Adsorption isotherm of Carbon Dioxide on MIL-53(Cr)
DOI: 10.1021/Jp910522h
Adsorbate Carbon Dioxide: InChIKey CURLTUGMZLYLDI-UHFFFAOYSA-N
Temperature: 304 K
Tabular data in the source: 0
pressure (bar)	uptake (mmol/g)
0.00179595	0.323271
0.169538	0.516803
1.34984	2.97065
1.76937	3.4868
2.2726	4.0674
2.77546	4.58334
3.27797	5.03463
3.86381	5.4857
4.44965	5.93677
5.11846	6.32297
5.87025	6.6443
6.62167	6.90098
7.54012	7.22188
8.95892	7.60614
10.6277	7.98976
11.7958	8.24536
13.1302	8.43587
14.4642	8.56173
15.7149	8.68781
16.6319	8.75009
18.2163	8.93996
19.3	9.00181
20.1333	8.99966
20.967	9.06215
21.8007	9.12465
22.634	9.1225
23.3844	9.18521
24.2177	9.18306
25.0514	9.24556
