Adsorption isotherm of Nitrogen on CuBTC
DOI: 10.1021/Jp910522h
Adsorbate Nitrogen: InChIKey IJGRMHOSHXDMSA-UHFFFAOYSA-N
Temperature: 295 K
Tabular data in the source: 0
pressure (bar)	uptake (mmol/g)
0.0564576	0.0194665
0.0896679	0.0324129
0.119557	0.0453359
0.149446	0.0582588
0.182657	0.0712052
0.212546	0.0841282
0.239114	0.0970276
0.272325	0.103618
0.302214	0.116541
0.335424	0.129487
0.345387	0.135914
0.378598	0.142504
0.408487	0.155427
0.441697	0.168374
0.471587	0.181297
0.498155	0.168772
0.504797	0.194243
0.538007	0.207189
0.567897	0.213756
0.601107	0.226703
0.630996	0.239626
0.664207	0.252572
0.697417	0.259163
0.727306	0.272085
0.760517	0.285032
0.790406	0.297955
0.823616	0.304545
0.856827	0.317492
0.886716	0.330415
0.919926	0.343361
0.949815	0.349928
0.983026	0.362874
