Adsorption isotherm of Carbon Dioxide on ZIF-3
DOI: 10.1021/Jp910522h
Adsorbate Carbon Dioxide: InChIKey CURLTUGMZLYLDI-UHFFFAOYSA-N
Temperature: 298 K
Tabular data in the source: 0
pressure (bar)	uptake (molecules/unitcell)
2.54717	13.9344
2.83019	13.9344
4.90566	18.8525
7.35849	24.5902
10.4717	27.0492
11.6981	27.8689
13.8679	28.6885
15.6604	29.5082
17.7358	30.3279
19.5283	31.1475
21.6038	31.1475
23.9623	31.9672
25.9434	32.7869
27.8302	32.7869
29.5283	33.6066
