Adsorption isotherm of Carbon monoxide on PCN-10
DOI: 10.1021/Jp910522h
Adsorbate Carbon monoxide: InChIKey UGFAIRIUMAVXCW-UHFFFAOYSA-N
Temperature: 298 K
Tabular data in the source: 0
pressure (bar)	uptake (molecules/unitcell)
2.10191	2.51046
2.86624	4.51883
3.63057	6.5272
4.58599	8.03347
5.63694	9.53975
6.40127	11.046
7.07006	11.5481
8.12102	14.0586
8.88535	15.0628
9.4586	15.5649
10.6051	18.0753
12.1338	19.0795
12.8981	20.5858
13.5669	21.59
14.5223	22.0921
15.4777	24.1004
16.4331	25.1046
17.293	26.1088
18.3439	27.6151
19.3949	28.6192
20.828	30.1255
21.6879	30.6276
22.1656	31.6318
23.121	32.1339
23.5032	32.636
24.4586	33.1381
25.6051	34.1423
26.1783	35.1464
27.1338	35.6485
28.0892	36.6527
29.0446	37.1548
