Adsorption isotherm of Carbon Dioxide on ZIF-78
DOI: 10.1021/Jp910522h
Adsorbate Carbon Dioxide: InChIKey CURLTUGMZLYLDI-UHFFFAOYSA-N
Temperature: 298 K
Tabular data in the source: 0
pressure (bar)	uptake (molecules/unitcell)
0	14.3363
0.470219	29.7428
0.940439	36.1228
2.44514	44.1141
4.98433	46.8139
7.42947	50.043
9.96865	50.0879
12.5078	52.2568
15.047	53.8946
20.0313	55.0448
25.0157	55.133
30	55.7522
