Adsorption isotherm of Carbon Dioxide on IRMOF-3
DOI: 10.1021/Jp910522h
Adsorbate Carbon Dioxide: InChIKey CURLTUGMZLYLDI-UHFFFAOYSA-N
Temperature: 298 K
Tabular data in the source: 0
pressure (bar)	uptake (molecules/unitcell)
4.66019	41.8664
7.6699	69.0809
9.02913	81.6435
10.4854	92.0896
11.9417	100.426
12.7184	106.701
14.0777	112.934
16.1165	114.9
18.4466	121.066
20.1942	129.382
22.0388	131.362
23.6893	131.245
25.2427	135.356
26.4078	137.383
27.3786	137.315
28.3495	137.247
29.3204	139.288
