Adsorption isotherm of Nitrogen on CuBTC
DOI: 10.1021/Jp910522h
Adsorbate Nitrogen: InChIKey IJGRMHOSHXDMSA-UHFFFAOYSA-N
Temperature: 298 K
Tabular data in the source: 0
pressure (bar)	uptake (molecules/unitcell)
0.477707	2.0767
1.05096	4.15207
2.48408	8.7155
4.96815	14.931
7.54777	20.3118
10.0318	24.8607
12.4204	29.8275
15	33.5417
20.0637	40.5547
25.0318	46.7357
30.0955	52.082
