Adsorption isotherm of Nitrogen on IRMOF-6
DOI: 10.1021/Jp910522h
Adsorbate Nitrogen: InChIKey IJGRMHOSHXDMSA-UHFFFAOYSA-N
Temperature: 78 K
Tabular data in the source: 0
pressure (bar)	uptake (mmol/g)
0.00680162	6.59025
0.0104858	13.7297
0.0174089	21.9675
0.0204049	19.7708
0.0777598	26.7271
0.118853	27.2763
0.159865	26.7271
0.226208	27.0933
0.295668	26.9102
0.355668	26.9102
0.428313	27.0933
0.504103	27.0933
0.611471	27.0933
0.769352	26.9102
0.864103	27.0933
0.943036	26.9102
