Adsorption isotherm of Carbon Dioxide on ZIF-11
DOI: 10.1021/Jp910522h
Adsorbate Carbon Dioxide: InChIKey CURLTUGMZLYLDI-UHFFFAOYSA-N
Temperature: 298 K
Tabular data in the source: 0
pressure (bar)	uptake (molecules/unitcell)
2.45283	46.7213
5	68.0328
7.54717	81.1475
10	91.8033
12.6415	98.3607
15.0943	101.639
20.0943	111.475
25.0943	113.115
30.0943	114.754
