Adsorption isotherm of Carbon Dioxide on MOP-23
DOI: 10.1021/Jp910522h
Adsorbate Carbon Dioxide: InChIKey CURLTUGMZLYLDI-UHFFFAOYSA-N
Temperature: 298 K
Tabular data in the source: 0
pressure (bar)	uptake (molecules/unitcell)
1.23418	48.3721
1.89873	59.5349
2.75316	81.8605
3.89241	100.465
4.55696	111.628
5.60127	126.512
6.36076	141.395
7.12025	148.837
7.87975	152.558
9.01899	163.721
9.68354	167.442
10.538	174.884
12.057	178.605
12.9114	182.326
14.4304	186.047
15.7595	189.767
17.5633	197.209
19.3671	200.93
20.1266	200.93
21.0759	200.93
22.0253	204.651
22.9747	204.651
23.9241	204.651
24.9684	208.372
25.8228	208.372
26.6772	212.093
27.6266	212.093
28.5759	212.093
29.5253	215.814
