Adsorption isotherm of Carbon Dioxide on PCN-10
DOI: 10.1021/Jp910522h
Adsorbate Carbon Dioxide: InChIKey CURLTUGMZLYLDI-UHFFFAOYSA-N
Temperature: 298 K
Tabular data in the source: 0
pressure (bar)	uptake (molecules/unitcell)
0.873786	8.54701
2.62136	34.188
5.04854	55.5556
7.47573	64.1026
10.0971	68.3761
12.5243	68.3761
14.9515	76.9231
19.8058	76.9231
25.0485	76.9231
29.9029	85.4701
