Adsorption isotherm of Carbon Dioxide on MOF-602
DOI: 10.1021/Jp910522h
Adsorbate Carbon Dioxide: InChIKey CURLTUGMZLYLDI-UHFFFAOYSA-N
Temperature: 298 K
Tabular data in the source: 0
pressure (bar)	uptake (molecules/unitcell)
2.52131	42.3963
5.14156	62.6728
7.48185	77.4194
10.0101	90.3226
12.4463	95.8525
15.1633	103.226
19.9407	119.816
24.9988	138.249
30.0583	151.152
