Adsorption isotherm of Carbon Dioxide on IRMOF-10
DOI: 10.1021/Jp910522h
Adsorbate Carbon Dioxide: InChIKey CURLTUGMZLYLDI-UHFFFAOYSA-N
Temperature: 298 K
Tabular data in the source: 0
pressure (bar)	uptake (molecules/unitcell)
2.42718	23.0361
4.95146	41.8459
7.57282	64.8683
10	92.1238
15.0485	157.17
20.1942	255.964
25.0485	335.791
29.9029	373.425
