Adsorption isotherm of Carbon Dioxide on IRMOF-16
DOI: 10.1021/Jp910522h
Adsorbate Carbon Dioxide: InChIKey CURLTUGMZLYLDI-UHFFFAOYSA-N
Temperature: 298 K
Tabular data in the source: 0
pressure (bar)	uptake (molecules/unitcell)
1.06796	4.14431
1.94175	4.08286
2.81553	4.02141
4.17476	6.03553
5.53398	8.04965
6.69903	10.0774
7.86408	12.1052
9.02913	9.91356
10.0971	14.0579
11.068	16.0993
12.0388	16.031
13.0097	15.9627
13.8835	20.1207
14.8544	20.0524
15.8252	22.0939
16.7961	24.1353
17.767	26.1767
18.6408	28.225
19.6117	28.1567
20.3883	28.1021
20.8738	32.2874
21.8447	34.3288
22.8155	36.3702
23.6893	38.4185
24.6602	42.5696
25.534	44.6179
26.5049	48.769
27.3786	52.927
28.3495	57.0781
29.2233	61.2361
30.0971	63.2843
