Adsorption isotherm of Carbon Dioxide on IRMOF-13
DOI: 10.1021/Jp910522h
Adsorbate Carbon Dioxide: InChIKey CURLTUGMZLYLDI-UHFFFAOYSA-N
Temperature: 298 K
Tabular data in the source: 0
pressure (bar)	uptake (molecules/unitcell)
0.949367	44.6512
2.56329	89.3023
4.93671	141.395
7.5	178.605
9.96835	197.209
12.5316	208.372
15	215.814
19.9367	223.256
24.9684	234.419
30	241.86
