Adsorption isotherm of Carbon Dioxide on MOP-23
DOI: 10.1021/Jp910522h
Adsorbate Carbon Dioxide: InChIKey CURLTUGMZLYLDI-UHFFFAOYSA-N
Temperature: 298 K
Tabular data in the source: 0
pressure (bar)	uptake (molecules/unitcell)
0.949367	44.6512
2.46835	74.4186
5.12658	119.07
7.59494	148.837
9.96835	167.442
12.5316	178.605
14.9051	189.767
20.0316	200.93
25.0633	204.651
30	215.814
