Adsorption isotherm of Carbon Dioxide on MOF-505
DOI: 10.1021/Jp910522h
Adsorbate Carbon Dioxide: InChIKey CURLTUGMZLYLDI-UHFFFAOYSA-N
Temperature: 298 K
Tabular data in the source: 0
pressure (bar)	uptake (molecules/unitcell)
0.561204	5.52995
1.40063	23.9631
2.14804	35.023
2.70881	42.3963
3.55213	44.2396
4.4892	46.0829
5.23877	47.9263
6.17584	49.7696
7.11334	49.7696
8.0504	51.6129
8.9879	51.6129
9.83122	53.4562
10.7687	53.4562
11.7062	53.4562
12.6433	55.2995
13.5808	55.2995
14.5183	55.2995
15.3616	57.1429
16.2991	57.1429
17.2366	57.1429
18.1741	57.1429
19.1116	57.1429
20.0491	57.1429
20.9866	57.1429
21.9241	57.1429
22.8616	57.1429
23.7991	57.1429
24.7366	57.1429
25.5804	57.1429
26.5174	58.9862
27.4549	58.9862
28.3924	58.9862
29.3299	58.9862
30.2674	58.9862
