Adsorption isotherm of Carbon Dioxide on MIL-47(V)
DOI: 10.1021/Jp910522h
Adsorbate Carbon Dioxide: InChIKey CURLTUGMZLYLDI-UHFFFAOYSA-N
Temperature: 304 K
Tabular data in the source: 0
pressure (bar)	uptake (mmol/g)
1.0625	2.25806
2.25	3.62903
4.25	5.72581
6.3125	7.09677
8	8.06452
9.6875	8.70968
11.3125	9.1129
12.625	9.59677
13.9375	10
15.875	10.4839
17.5625	10.8871
18.8125	11.129
20.1875	11.5323
