Adsorption isotherm of Carbon Dioxide on IRMOF-12
DOI: 10.1021/Jp910522h
Adsorbate Carbon Dioxide: InChIKey CURLTUGMZLYLDI-UHFFFAOYSA-N
Temperature: 298 K
Tabular data in the source: 0
pressure (bar)	uptake (molecules/unitcell)
2.42718	29.3652
3.1068	35.6465
3.8835	46.1404
4.85437	56.6206
5.82524	67.1009
7.18447	81.7732
7.86408	92.274
8.93204	104.857
10.4854	127.955
11.8447	142.627
13.0097	165.752
14.1748	178.328
15.4369	203.556
16.2136	216.159
16.9903	228.763
17.767	243.476
18.0583	247.675
18.835	260.279
19.6117	272.882
20.3883	283.376
21.9417	300.145
23.2039	314.824
24.1748	323.194
25.2427	331.558
26.8932	344.1
27.767	350.368
28.7379	354.519
29.8058	360.773
