Adsorption isotherm of Carbon Dioxide on ZIF-10
DOI: 10.1021/Jp910522h
Adsorbate Carbon Dioxide: InChIKey CURLTUGMZLYLDI-UHFFFAOYSA-N
Temperature: 298 K
Tabular data in the source: 0
pressure (bar)	uptake (molecules/unitcell)
2.54717	16.3934
5	33.6066
7.45283	48.3607
10.0943	59.0164
12.6415	68.0328
15	73.7705
20.0943	81.1475
25.0943	86.0656
30	90.1639
