Adsorption isotherm of Carbon Dioxide on IRMOF-16
DOI: 10.1021/Jp910522h
Adsorbate Carbon Dioxide: InChIKey CURLTUGMZLYLDI-UHFFFAOYSA-N
Temperature: 298 K
Tabular data in the source: 0
pressure (bar)	uptake (molecules/unitcell)
2.52427	4.04189
5.04854	8.08379
7.47573	10.0228
10.0971	11.9482
12.6214	18.0998
15.0485	20.0388
20	30.2391
25.1456	40.4258
30.0971	65.394
