Adsorption isotherm of Carbon Dioxide on IRMOF-13
DOI: 10.1021/Jp910522h
Adsorbate Carbon Dioxide: InChIKey CURLTUGMZLYLDI-UHFFFAOYSA-N
Temperature: 298 K
Tabular data in the source: 0
pressure (bar)	uptake (molecules/unitcell)
1.23418	52.093
1.89873	70.6977
2.75316	93.0233
3.79747	115.349
4.46203	130.233
5.31646	145.116
6.17089	156.279
7.02532	163.721
7.68987	174.884
8.82911	182.326
9.58861	193.488
10.6329	197.209
11.2975	200.93
11.8671	204.651
12.8165	204.651
14.2405	215.814
15	219.535
15.8544	215.814
16.8038	219.535
17.7532	219.535
18.7025	223.256
19.6519	226.977
20.4114	226.977
21.3608	226.977
22.3101	230.698
23.2595	230.698
24.2089	230.698
25.443	234.419
26.3924	234.419
27.3418	234.419
28.2911	234.419
29.2405	234.419
