Adsorption isotherm of Carbon Dioxide on IRMOF-8
DOI: 10.1021/Jp910522h
Adsorbate Carbon Dioxide: InChIKey CURLTUGMZLYLDI-UHFFFAOYSA-N
Temperature: 298 K
Tabular data in the source: 0
pressure (bar)	uptake (molecules/unitcell)
5.14563	48.1613
7.37864	73.3208
8.73786	85.8834
10.2913	102.652
11.8447	125.749
13.3981	146.737
14.8544	161.403
16.2136	178.185
17.767	192.843
19.4175	205.386
20.8738	215.832
22.9126	226.237
24.7573	234.546
26.5049	238.642
28.2524	244.849
29.9029	248.952
