Adsorption isotherm of Carbon Dioxide on PCN-6
DOI: 10.1021/Jp910522h
Adsorbate Carbon Dioxide: InChIKey CURLTUGMZLYLDI-UHFFFAOYSA-N
Temperature: 298 K
Tabular data in the source: 0
pressure (bar)	uptake (molecules/unitcell)
0.949367	55.814
2.46835	145.116
4.93671	297.674
7.5	420.465
10.0633	509.767
12.4367	565.581
15.0949	595.349
20.0316	651.163
25.0633	669.767
30	695.814
