Adsorption isotherm of Carbon Dioxide on IRMOF-15
DOI: 10.1021/Jp910522h
Adsorbate Carbon Dioxide: InChIKey CURLTUGMZLYLDI-UHFFFAOYSA-N
Temperature: 298 K
Tabular data in the source: 0
pressure (bar)	uptake (molecules/unitcell)
2.53918	7.47857
4.89028	17.0777
7.42947	30.928
9.87461	48.4934
12.6019	62.8779
14.953	70.8841
20.0313	82.1244
25.0157	86.9914
30	91.8584
