Adsorption isotherm of Nitrogen on MOF-177
DOI: 10.1021/Jp910522h
Adsorbate Nitrogen: InChIKey IJGRMHOSHXDMSA-UHFFFAOYSA-N
Temperature: 298 K
Tabular data in the source: 0
pressure (bar)	uptake (molecules/unitcell)
1.05096	2.90207
2.38854	6.63349
5.15924	13.2617
7.54777	19.4785
9.93631	25.2787
12.4204	31.0775
15	36.0417
19.9682	47.2227
25.1274	57.9843
30.0955	67.4987
