Adsorption isotherm of Carbon Dioxide on ZIF-77
DOI: 10.1021/Jp910522h
Adsorbate Carbon Dioxide: InChIKey CURLTUGMZLYLDI-UHFFFAOYSA-N
Temperature: 298 K
Tabular data in the source: 0
pressure (bar)	uptake (molecules/unitcell)
0.282132	11.6864
0.846395	16.4752
2.63323	17.5687
5.07837	19.2049
7.52351	19.7792
9.96865	19.8225
12.6019	20.4
15.047	20.4433
20.0313	22.1244
25.0157	22.2127
30.094	21.7716
