Adsorption isotherm of Carbon Dioxide on ZIF-68
DOI: 10.1021/Jp910522h
Adsorbate Carbon Dioxide: InChIKey CURLTUGMZLYLDI-UHFFFAOYSA-N
Temperature: 298 K
Tabular data in the source: 0
pressure (bar)	uptake (molecules/unitcell)
0.940439	22.8485
2.44514	34.0256
4.98433	43.0971
7.42947	47.3881
14.953	54.9549
20.0313	55.5758
25.0157	58.8498
30.094	59.4707
