Adsorption isotherm of Carbon Dioxide on IRMOF-11
DOI: 10.1021/Jp910522h
Adsorbate Carbon Dioxide: InChIKey CURLTUGMZLYLDI-UHFFFAOYSA-N
Temperature: 298 K
Tabular data in the source: 0
pressure (bar)	uptake (mmol/g)
10.2497	11.289
11.5083	11.5699
12.4524	11.8491
13.5538	12.1291
14.3414	12.6813
15.4428	12.9613
17.331	13.5196
19.6903	13.8065
21.735	14.0917
23.7798	14.3769
25.8239	14.3881
28.0252	14.4001
30.0699	14.6853
32.1147	14.9705
34.158	14.7077
36.2028	14.9929
38.2469	15.0041
40.2909	15.0153
42.4922	15.0274
