Adsorption isotherm of Carbon monoxide on CuBTC
DOI: 10.1021/Jp910522h
Adsorbate Carbon monoxide: InChIKey UGFAIRIUMAVXCW-UHFFFAOYSA-N
Temperature: 295 K
Tabular data in the source: 0
pressure (bar)	uptake (mmol/g)
0.0531365	0.0385109
0.0863469	0.0578132
0.116236	0.0770921
0.146125	0.102727
0.176015	0.122006
0.205904	0.141285
0.22583	0.154137
0.25572	0.173416
0.28893	0.192718
0.318819	0.218353
0.348708	0.231276
0.361993	0.244082
0.391882	0.263361
0.425092	0.282663
0.454982	0.301942
0.488192	0.321244
0.518081	0.340523
0.551292	0.359826
0.581181	0.379104
0.61107	0.398383
0.64428	0.417686
0.67417	0.436964
0.684133	0.443391
0.714022	0.46267
0.747232	0.475616
0.777122	0.494895
0.810332	0.514197
0.846863	0.539879
0.876753	0.552802
0.909963	0.572104
0.939852	0.591383
0.9631	0.604259
0.992989	0.617182
