Adsorption isotherm of Carbon Dioxide on MOF-177
DOI: 10.1021/Jp910522h
Adsorbate Carbon Dioxide: InChIKey CURLTUGMZLYLDI-UHFFFAOYSA-N
Temperature: 298 K
Tabular data in the source: 0
pressure (bar)	uptake (molecules/unitcell)
1.02866	11.0599
2.43059	29.4931
4.95233	70.0461
7.56653	116.129
9.98848	182.488
12.413	237.788
14.9374	267.281
19.8975	304.147
24.9552	324.424
29.9214	335.484
