Adsorption isotherm of Nitrogen on ZIF-3
DOI: 10.1021/Jp910522h
Adsorbate Nitrogen: InChIKey IJGRMHOSHXDMSA-UHFFFAOYSA-N
Temperature: 298 K
Tabular data in the source: 0
pressure (bar)	uptake (molecules/unitcell)
0.955414	1.6534
2.00637	2.05547
2.96178	2.87553
3.9172	3.27893
4.87261	4.09899
5.63694	4.92171
6.21019	5.33041
6.87898	5.32113
7.92994	5.7232
8.88535	6.54326
9.55414	6.53397
10.6051	7.35271
11.7516	7.75345
12.8981	7.73753
13.949	8.55626
14.7134	8.96231
16.3376	9.77309
17.1975	10.1778
18.1529	10.1645
19.1083	10.5679
20.0637	10.9713
20.9236	11.3761
21.879	11.3628
22.8344	11.7662
23.7898	11.7529
24.6497	12.1576
25.6051	12.561
26.5605	12.5478
27.5159	12.9512
28.4713	12.9379
29.4268	13.3413
30.2866	13.3294
