Adsorption isotherm of Carbon Dioxide on PCN-6'
DOI: 10.1021/Jp910522h
Adsorbate Carbon Dioxide: InChIKey CURLTUGMZLYLDI-UHFFFAOYSA-N
Temperature: 298 K
Tabular data in the source: 0
pressure (bar)	uptake (molecules/unitcell)
4.95146	89.7436
7.47573	153.846
10.0971	217.949
12.3301	290.598
15.0485	354.701
20	517.094
24.9515	735.043
30	901.709
