Adsorption isotherm of Carbon Dioxide on IRMOF-9
DOI: 10.1021/Jp910522h
Adsorbate Carbon Dioxide: InChIKey CURLTUGMZLYLDI-UHFFFAOYSA-N
Temperature: 298 K
Tabular data in the source: 0
pressure (bar)	uptake (molecules/unitcell)
1.03448	10.1068
2.44514	20.2203
4.98433	36.7254
7.52351	51.1066
9.96865	60.1764
12.4138	66.0604
14.953	69.8222
20.0313	75.2218
25.0157	79.0268
30	81.2389
