Adsorption isotherm of Carbon Dioxide on MOF-505
DOI: 10.1021/Jp910522h
Adsorbate Carbon Dioxide: InChIKey CURLTUGMZLYLDI-UHFFFAOYSA-N
Temperature: 298 K
Tabular data in the source: 0
pressure (bar)	uptake (molecules/unitcell)
1.11938	23.9631
2.6155	40.553
5.14502	47.9263
7.58122	53.4562
10.0192	51.6129
12.4562	53.4562
14.8929	57.1429
19.9554	57.1429
25.1112	58.9862
29.9862	58.9862
