Adsorption isotherm of Carbon Dioxide on PCN-9
DOI: 10.1021/Jp910522h
Adsorbate Carbon Dioxide: InChIKey CURLTUGMZLYLDI-UHFFFAOYSA-N
Temperature: 298 K
Tabular data in the source: 0
pressure (bar)	uptake (molecules/unitcell)
1.16505	34.188
2.03883	47.0085
2.91262	64.1026
4.46602	72.6496
5.63107	81.1966
6.8932	85.4701
7.86408	89.7436
9.41748	94.0171
10.5825	98.2906
11.7476	98.2906
13.0097	102.564
14.466	102.564
15.3398	102.564
16.3107	106.838
17.2816	106.838
18.2524	106.838
19.2233	106.838
20.3883	106.838
21.3592	106.838
22.3301	106.838
23.301	106.838
24.2718	111.111
25.4369	111.111
26.4078	111.111
27.3786	111.111
28.3495	111.111
29.3204	111.111
