Adsorption isotherm of Carbon Dioxide on ZIF-8
DOI: 10.1021/Jp910522h
Adsorbate Carbon Dioxide: InChIKey CURLTUGMZLYLDI-UHFFFAOYSA-N
Temperature: 298 K
Tabular data in the source: 0
pressure (bar)	uptake (molecules/unitcell)
0.940439	2.67151
2.63323	8.01121
4.98433	13.8935
7.52351	17.6553
9.96865	19.8225
12.6019	20.4
14.953	22.5655
19.8433	23.1831
25.0157	23.8056
30	24.9558
