Adsorption isotherm of Carbon Dioxide on IRMOF-1
DOI: 10.1021/Jp910522h
Adsorbate Carbon Dioxide: InChIKey CURLTUGMZLYLDI-UHFFFAOYSA-N
Temperature: 298 K
Tabular data in the source: 0
pressure (bar)	uptake (molecules/unitcell)
1.65049	16.7616
3.59223	31.393
5.63107	48.1272
7.86408	69.0672
9.2233	85.8493
10.1942	96.3295
11.3592	106.796
12.7184	121.468
14.1748	129.805
15.1456	131.846
16.0194	136.004
16.8932	140.162
17.8641	142.204
18.835	144.245
19.8058	146.287
20.7767	146.218
21.6505	148.266
22.6214	150.308
23.5922	152.349
24.5631	152.281
25.534	154.323
26.5049	154.254
27.3786	156.302
28.3495	156.234
29.3204	158.276
30.2913	158.207
