Adsorption isotherm of Carbon Dioxide on ZIF-12
DOI: 10.1021/Jp910522h
Adsorbate Carbon Dioxide: InChIKey CURLTUGMZLYLDI-UHFFFAOYSA-N
Temperature: 298 K
Tabular data in the source: 0
pressure (bar)	uptake (molecules/unitcell)
0.470219	17.5304
0.940439	22.3175
1.22257	27.6323
1.69279	32.4193
2.16301	38.2684
2.72727	43.0571
3.19749	46.2513
3.8558	51.0417
4.51411	54.2392
5.45455	59.5656
6.2069	62.7647
6.95925	65.4329
8.08777	70.2316
8.84013	72.8998
10.1567	75.578
10.815	78.7755
11.7555	81.447
12.6959	84.6495
13.7304	85.1988
15.1411	86.8167
16.7398	89.4998
18.1505	91.6487
19.5611	93.2666
21.2539	95.4204
22.8527	97.0416
24.2633	97.0666
26.4263	99.2288
28.0251	100.319
29.7179	101.411
