Adsorption isotherm of Carbon Dioxide on IRMOF-6
DOI: 10.1021/Jp910522h
Adsorbate Carbon Dioxide: InChIKey CURLTUGMZLYLDI-UHFFFAOYSA-N
Temperature: 298 K
Tabular data in the source: 0
pressure (bar)	uptake (mmol/g)
13.7204	15.6916
17.4983	17.3562
21.4321	18.4736
24.1065	19.0362
27.7229	19.056
30.7104	19.0724
38.4177	20.2105
41.4059	20.5009
44.2354	20.2424
