Adsorption isotherm of Carbon monoxide on CuBTC
DOI: 10.1021/Jp910522h
Adsorbate Carbon monoxide: InChIKey UGFAIRIUMAVXCW-UHFFFAOYSA-N
Temperature: 298 K
Tabular data in the source: 0
pressure (bar)	uptake (molecules/unitcell)
1.1465	6.0251
2.00637	9.53975
2.7707	13.5565
3.82166	16.569
4.49045	19.5816
5.35032	23.0962
6.59236	26.6109
7.16561	29.1213
7.83439	31.1297
8.50318	33.1381
9.4586	35.6485
10.5096	38.6611
11.1783	41.1715
11.9427	42.6778
12.8025	45.6904
13.758	47.6987
14.7134	49.7071
15.2866	51.7155
17.1975	55.2301
18.3439	57.7406
19.586	60.7531
21.2102	63.7657
22.8344	66.7782
24.3631	69.2887
25.7962	72.3013
27.6115	75.3138
29.5223	78.3264
