Adsorption isotherm of Carbon Dioxide on ZIF-69
DOI: 10.1021/Jp910522h
Adsorbate Carbon Dioxide: InChIKey CURLTUGMZLYLDI-UHFFFAOYSA-N
Temperature: 298 K
Tabular data in the source: 0
pressure (bar)	uptake (molecules/unitcell)
0.566038	13.1148
1.03774	23.7705
1.98113	31.1475
3.30189	36.8852
4.62264	40.9836
5.84906	42.623
7.35849	45.082
9.15094	46.7213
10.9434	48.3607
13.0189	48.3607
14.5283	49.1803
17.0755	50.8197
19.2453	50.8197
21.6038	51.6393
23.3962	52.459
24.6226	52.459
26.2264	52.459
28.3019	54.0984
29.9057	54.918
