Adsorption isotherm of Carbon monoxide on CuBTC
DOI: 10.1021/Jp910522h
Adsorbate Carbon monoxide: InChIKey UGFAIRIUMAVXCW-UHFFFAOYSA-N
Temperature: 298 K
Tabular data in the source: 0
pressure (bar)	uptake (molecules/unitcell)
0.573248	3.51464
0.955414	5.52301
2.57962	12.5523
5.06369	22.5941
7.54777	30.6276
10.0318	38.159
12.5159	44.6862
15	50.7113
19.9682	62.2594
25.0318	72.3013
30.0955	79.8326
