Adsorption isotherm of Carbon Dioxide on MOF-14
DOI: 10.1021/Jp910522h
Adsorbate Carbon Dioxide: InChIKey CURLTUGMZLYLDI-UHFFFAOYSA-N
Temperature: 298 K
Tabular data in the source: 0
pressure (bar)	uptake (molecules/unitcell)
0.557316	22.1198
1.11636	36.8664
2.51526	68.2028
5.13292	99.5392
7.5661	117.972
10.0006	130.876
12.4363	138.249
14.9667	141.935
19.9338	149.309
24.9016	152.995
29.9633	156.682
