Adsorption isotherm of Carbon Dioxide on PCN-14
DOI: 10.1021/Jp910522h
Adsorbate Carbon Dioxide: InChIKey CURLTUGMZLYLDI-UHFFFAOYSA-N
Temperature: 298 K
Tabular data in the source: 0
pressure (bar)	uptake (molecules/unitcell)
0.485437	29.9145
0.970874	55.5556
2.23301	106.838
4.95146	132.479
7.37864	149.573
10	158.12
12.3301	158.12
14.8544	166.667
20	166.667
25.0485	175.214
30	175.214
