Adsorption isotherm of Carbon Dioxide on PCN-13
DOI: 10.1021/Jp910522h
Adsorbate Carbon Dioxide: InChIKey CURLTUGMZLYLDI-UHFFFAOYSA-N
Temperature: 298 K
Tabular data in the source: 0
pressure (bar)	uptake (molecules/unitcell)
0.28481	0.28481
0.759494	78.1395
1.13924	93.0233
1.89873	93.0233
2.75316	96.7442
4.17722	107.907
5.79114	111.628
6.83544	115.349
8.06962	115.349
9.39873	115.349
10.6329	115.349
11.7722	115.349
13.3861	119.07
14.4304	111.628
15.7595	119.07
16.1392	119.07
17.5633	119.07
18.9873	119.07
20.6962	119.07
22.5	122.791
24.3038	122.791
25.538	122.791
27.5316	122.791
29.3354	126.512
