Adsorption isotherm of Carbon Dioxide on ZIF-71
DOI: 10.1021/Jp910522h
Adsorbate Carbon Dioxide: InChIKey CURLTUGMZLYLDI-UHFFFAOYSA-N
Temperature: 298 K
Tabular data in the source: 0
pressure (bar)	uptake (molecules/unitcell)
0.0943396	13.9344
0.377358	23.7705
0.660377	34.4262
1.50943	45.082
2.16981	54.918
3.01887	60.6557
3.77358	68.8525
4.81132	75.4098
5.56604	81.1475
6.50943	85.2459
7.54717	90.9836
8.39623	95.082
9.33962	99.1803
10.3774	102.459
11.2264	105.738
11.9811	108.197
12.9245	109.836
13.8679	112.295
14.717	114.754
15.283	115.574
16.1321	117.213
17.0755	118.852
17.9245	121.311
18.8679	122.131
19.8113	123.77
20.6604	124.59
21.6038	126.23
22.5472	127.049
23.4906	127.869
24.434	127.869
25.283	127.049
26.1321	129.508
27.0755	129.508
28.0189	130.328
28.9623	130.328
29.9057	131.148
