Adsorption isotherm of Carbon Dioxide on ZIF-11
DOI: 10.1021/Jp910522h
Adsorbate Carbon Dioxide: InChIKey CURLTUGMZLYLDI-UHFFFAOYSA-N
Temperature: 298 K
Tabular data in the source: 0
pressure (bar)	uptake (molecules/unitcell)
1.13208	25.4098
1.79245	33.6066
2.35849	38.5246
2.83019	44.2623
3.49057	50
4.15094	55.7377
4.81132	61.4754
5.56604	66.3934
6.32075	71.3115
7.07547	76.2295
7.83019	79.5082
8.67925	82.7869
9.62264	85.2459
10.4717	87.7049
11.3208	90.9836
12.2642	93.4426
12.8302	95.9016
13.7736	97.541
14.6226	100
15.283	100.82
16.0377	102.459
16.9811	103.279
17.8302	104.918
18.7736	105.738
19.717	106.557
20.6604	106.557
21.6038	107.377
22.4528	108.197
23.3962	109.016
24.3396	109.836
25.3774	110.656
26.3208	111.475
27.2642	112.295
28.1132	113.934
29.0566	114.754
29.9057	114.754
