Adsorption isotherm of Carbon Dioxide on IRMOF-6
DOI: 10.1021/Jp910522h
Adsorbate Carbon Dioxide: InChIKey CURLTUGMZLYLDI-UHFFFAOYSA-N
Temperature: 298 K
Tabular data in the source: 0
pressure (bar)	uptake (molecules/unitcell)
0.85443	0
2.37342	18.6047
5.03165	48.3721
7.5	70.6977
9.96835	89.3023
12.4367	100.465
15.0949	107.907
19.8418	122.791
24.9684	126.512
30	130.233
