Adsorption isotherm of Nitrogen on PCN-13
DOI: 10.1021/Jp910522h
Adsorbate Nitrogen: InChIKey IJGRMHOSHXDMSA-UHFFFAOYSA-N
Temperature: 77 K
Tabular data in the source: 0
pressure (bar)	uptake (cm3(STP)/g)
0.0131387	40.1674
0.0164234	50.2092
0.0394161	57.113
0.0755474	59.6234
0.105109	60.251
0.144526	62.7615
0.183942	64.0167
0.229927	65.272
0.266058	65.8996
0.331752	67.1548
0.377737	67.7824
0.420438	67.7824
0.463139	69.0377
0.528832	70.2929
0.617518	72.1757
0.69635	74.0586
0.762044	75.9414
0.827737	76.569
0.909854	77.8243
0.99854	79.0795
