Adsorption isotherm of Carbon Dioxide on IRMOF-9
DOI: 10.1021/Jp910522h
Adsorbate Carbon Dioxide: InChIKey CURLTUGMZLYLDI-UHFFFAOYSA-N
Temperature: 298 K
Tabular data in the source: 0
pressure (bar)	uptake (molecules/unitcell)
1.03448	11.1688
1.69279	15.4282
2.82132	23.9437
3.66771	29.2685
4.32602	33.5279
5.54859	40.4522
6.30094	44.7133
6.95925	48.4418
7.99373	53.7698
9.12226	57.5066
9.96865	60.7074
11.0031	63.3806
11.9436	65.5211
12.884	68.1926
13.9185	69.8039
15.5172	71.4251
16.2696	71.9694
17.21	73.048
18.0564	74.1249
18.9969	74.6725
20.3135	76.2887
21.2539	76.8364
22.1944	77.384
23.0408	77.9299
23.9812	78.4775
24.9216	79.5561
25.674	79.5695
26.6144	80.1171
27.5549	80.6647
28.4953	81.2123
29.3417	81.7583
