Adsorption isotherm of Carbon monoxide on CuBTC
DOI: 10.1021/Jp910522h
Adsorbate Carbon monoxide: InChIKey UGFAIRIUMAVXCW-UHFFFAOYSA-N
Temperature: 295 K
Tabular data in the source: 0
pressure (bar)	uptake (mmol/g)
0.00657559	0.0190678
0.0428885	0.0572034
0.0858191	0.095339
0.14528	0.139831
0.221299	0.177966
0.316988	0.298729
0.422744	0.355932
0.54168	0.438559
0.680426	0.540254
0.832421	0.635593
0.994372	0.71822
