Adsorption isotherm of Carbon Dioxide on CuBTC
DOI: 10.1021/Jp910522h
Adsorbate Carbon Dioxide: InChIKey CURLTUGMZLYLDI-UHFFFAOYSA-N
Temperature: 298 K
Tabular data in the source: 0
pressure (bar)	uptake (molecules/unitcell)
0.463566	22.1198
1.02304	35.023
1.67497	53.4562
2.8881	77.4194
3.54133	90.3226
4.28917	99.5392
5.22365	112.442
6.0661	117.972
6.90855	123.502
7.75101	129.032
8.87514	132.719
9.99842	140.092
11.123	141.935
12.4351	143.779
14.0284	145.622
15.9029	147.465
17.4025	149.309
19.4646	151.152
21.2454	152.995
22.9325	154.839
24.9945	156.682
27.1508	156.682
28.9316	158.525
29.8691	158.525
