Adsorption isotherm of Nitrogen on CuBTC
DOI: 10.1021/Jp910522h
Adsorbate Nitrogen: InChIKey IJGRMHOSHXDMSA-UHFFFAOYSA-N
Temperature: 298 K
Tabular data in the source: 0
pressure (bar)	uptake (molecules/unitcell)
1.33758	4.56476
2.10191	7.05414
2.86624	9.54352
3.82166	12.0303
4.58599	13.2696
5.25478	14.927
6.11465	16.9984
6.97452	18.6531
7.92994	21.5565
8.88535	22.7933
9.4586	24.0353
10.2229	26.108
11.2739	27.3434
12.0382	28.9995
12.9936	30.6529
13.8535	31.4743
14.6178	32.7136
15.3822	34.3697
17.4841	36.8405
19.3949	39.7306
20.4459	41.3827
22.5478	43.4368
24.2675	45.4963
25.414	47.147
27.4204	49.6192
29.6178	51.2553
