Adsorption isotherm of Carbon Dioxide on ZIF-1
DOI: 10.1021/Jp910522h
Adsorbate Carbon Dioxide: InChIKey CURLTUGMZLYLDI-UHFFFAOYSA-N
Temperature: 298 K
Tabular data in the source: 0
pressure (bar)	uptake (molecules/unitcell)
1.60377	4.09836
2.64151	4.09836
4.15094	5.7377
5.56604	5.7377
7.26415	6.55738
9.71698	5.7377
12.0755	6.55738
14.2453	6.55738
16.4151	6.55738
18.4906	7.37705
21.6038	6.55738
23.3962	6.55738
25.9434	6.55738
27.3585	6.55738
29.9057	5.7377
