Adsorption isotherm of Nitrogen on IRMOF-6
DOI: 10.1021/Jp910522h
Adsorbate Nitrogen: InChIKey IJGRMHOSHXDMSA-UHFFFAOYSA-N
Temperature: 78 K
Tabular data in the source: 0
pressure (bar)	uptake (mmol/g)
0.00731444	13.5466
0.0109312	19.7708
0.0176383	25.0796
0.0240891	26.9102
0.0399865	28.3747
0.068448	28.9239
0.10004	29.1069
0.131633	29.29
0.163225	29.4731
0.19166	29.6561
0.223239	29.6561
0.254831	29.8392
0.286424	30.0223
0.318003	30.0223
0.349595	30.2053
0.381174	30.2053
0.412753	30.2053
0.441188	30.3884
0.472767	30.3884
0.504345	30.3884
0.535924	30.3884
0.567503	30.3884
0.599082	30.3884
0.630661	30.3884
0.66224	30.3884
0.693819	30.3884
0.725398	30.3884
0.756977	30.3884
0.788556	30.3884
0.820135	30.3884
0.851714	30.3884
0.883293	30.3884
0.914872	30.3884
0.946451	30.3884
0.97803	30.3884
