Adsorption isotherm of Carbon Dioxide on ZIF-65
DOI: 10.1021/Jp910522h
Adsorbate Carbon Dioxide: InChIKey CURLTUGMZLYLDI-UHFFFAOYSA-N
Temperature: 298 K
Tabular data in the source: 0
pressure (bar)	uptake (molecules/unitcell)
2.54717	14.7541
5	19.6721
7.54717	22.9508
10.0943	23.7705
12.5472	24.5902
15.0943	25.4098
20.0943	26.2295
25.1887	27.0492
30.0943	28.6885
