Adsorption isotherm of Carbon Dioxide on MIL-47(V)
DOI: 10.1021/Jp910522h
Adsorbate Carbon Dioxide: InChIKey CURLTUGMZLYLDI-UHFFFAOYSA-N
Temperature: 304 K
Tabular data in the source: 0
pressure (bar)	uptake (mmol/g)
0.25	0.725806
0.5	1.53226
0.9375	2.98387
1.25	3.70968
1.5625	4.35484
1.875	5.08065
2.25	5.64516
2.625	6.29032
3.0625	6.77419
3.5625	7.25806
4.125	7.66129
4.6875	7.98387
5.3125	8.22581
5.875	8.46774
6.5	8.62903
7.125	8.79032
7.6875	8.95161
8.3125	9.03226
8.9375	9.19355
9.5625	9.19355
10.125	9.27419
10.8125	9.35484
11.625	9.43548
12.1875	9.51613
12.8125	9.59677
13.4375	9.59677
14.1875	9.67742
14.8125	9.75806
15.4375	9.75806
16.0625	9.83871
16.6875	9.83871
17.3125	9.83871
17.9375	9.83871
18.5625	9.83871
19.1875	9.83871
19.8125	9.83871
20.375	9.91935
