Adsorption isotherm of Nitrogen on PCN-10
DOI: 10.1021/Jp910522h
Adsorbate Nitrogen: InChIKey IJGRMHOSHXDMSA-UHFFFAOYSA-N
Temperature: 298 K
Tabular data in the source: 0
pressure (bar)	uptake (molecules/unitcell)
2.57962	3.29751
5.06369	6.17967
7.54777	9.06184
10.0318	11.5273
12.5159	13.9928
15.0955	16.0403
20.0637	19.7213
25.1274	22.9843
30.0955	25.832
