Adsorption isotherm of Carbon Dioxide on IRMOF-18
DOI: 10.1021/Jp910522h
Adsorbate Carbon Dioxide: InChIKey CURLTUGMZLYLDI-UHFFFAOYSA-N
Temperature: 298 K
Tabular data in the source: 0
pressure (bar)	uptake (molecules/unitcell)
0.970874	23.1385
2.52427	52.5651
4.95146	77.7109
7.57282	94.4042
10.0971	100.556
12.4272	104.611
15.0485	110.756
20	114.627
25.0485	118.492
30	120.253
