Adsorption isotherm of Carbon Dioxide on PCN-10
DOI: 10.1021/Jp910522h
Adsorbate Carbon Dioxide: InChIKey CURLTUGMZLYLDI-UHFFFAOYSA-N
Temperature: 298 K
Tabular data in the source: 0
pressure (bar)	uptake (molecules/unitcell)
0.970874	8.54701
1.74757	25.641
2.62136	38.4615
4.07767	47.0085
5.14563	59.8291
6.31068	59.8291
7.47573	64.1026
8.64078	68.3761
9.90291	68.3761
10.7767	68.3761
12.3301	72.6496
15.0485	68.3761
17.4757	76.9231
19.9029	76.9231
22.1359	81.1966
25.0485	76.9231
27.2816	81.1966
30.0971	81.1966
