Adsorption isotherm of Carbon monoxide on MOF-177
DOI: 10.1021/Jp910522h
Adsorbate Carbon monoxide: InChIKey UGFAIRIUMAVXCW-UHFFFAOYSA-N
Temperature: 298 K
Tabular data in the source: 0
pressure (bar)	uptake (molecules/unitcell)
2.57962	8.03347
4.96815	17.0711
7.64331	25.1046
10.1274	32.636
12.5159	40.6695
15.0955	48.2008
20.0637	64.2678
24.9363	78.3264
30	91.8828
