Adsorption isotherm of Carbon Dioxide on IRMOF-1
DOI: 10.1021/Jp910522h
Adsorbate Carbon Dioxide: InChIKey CURLTUGMZLYLDI-UHFFFAOYSA-N
Temperature: 298 K
Tabular data in the source: 0
pressure (bar)	uptake (mmol/g)
13.0914	15.6882
14.1942	16.5161
15.4528	16.797
16.5549	17.351
17.5005	18.1781
18.6018	18.4581
19.8604	18.739
20.4915	19.5643
21.4356	19.8435
23.9528	20.4052
25.8411	20.9635
27.8859	21.2487
30.2451	21.5356
32.1327	21.8199
34.1767	21.8311
36.2215	22.1163
38.2655	22.1275
40.4675	22.4135
