Adsorption isotherm of Carbon Dioxide on PCN-6'
DOI: 10.1021/Jp910522h
Adsorbate Carbon Dioxide: InChIKey CURLTUGMZLYLDI-UHFFFAOYSA-N
Temperature: 298 K
Tabular data in the source: 0
pressure (bar)	uptake (molecules/unitcell)
3.20388	55.5556
4.17476	76.9231
5.33981	102.564
6.21359	123.932
7.47573	153.846
8.54369	183.761
9.41748	205.128
10	222.222
11.068	252.137
11.9417	277.778
12.8155	303.419
13.5922	324.786
14.466	358.974
15.2427	380.342
16.0194	405.983
16.699	431.624
17.4757	461.538
18.1553	487.179
18.932	512.821
19.6117	534.188
20	551.282
20.6796	581.197
21.4563	606.838
22.1359	632.479
22.9126	658.12
23.6893	683.761
24.466	709.402
25.0485	739.316
25.8252	760.684
26.6019	786.325
27.2816	811.966
28.1553	833.333
28.932	858.974
29.6117	884.615
