Adsorption isotherm of Carbon Dioxide on IRMOF-3
DOI: 10.1021/Jp910522h
Adsorbate Carbon Dioxide: InChIKey CURLTUGMZLYLDI-UHFFFAOYSA-N
Temperature: 298 K
Tabular data in the source: 0
pressure (bar)	uptake (molecules/unitcell)
5.04854	39.7294
7.6699	66.9712
10.0971	90.0072
12.4272	104.611
20	125.176
25.0485	133.26
30.0971	137.124
