Adsorption isotherm of Nitrogen on IRMOF-1
DOI: 10.1021/Jp910522h
Adsorbate Nitrogen: InChIKey IJGRMHOSHXDMSA-UHFFFAOYSA-N
Temperature: 298 K
Tabular data in the source: 0
pressure (bar)	uptake (molecules/unitcell)
2.48408	3.7155
4.96815	6.59766
7.45223	10.3132
10.0318	13.194
12.6115	15.6582
15	18.5417
19.9682	23.8893
25.1274	28.8177
30.0955	33.7487
