Adsorption isotherm of Carbon Dioxide on ZIF-77
DOI: 10.1021/Jp910522h
Adsorbate Carbon Dioxide: InChIKey CURLTUGMZLYLDI-UHFFFAOYSA-N
Temperature: 298 K
Tabular data in the source: 0
pressure (bar)	uptake (molecules/unitcell)
0.940439	3.20249
2.16301	6.94094
2.72727	8.54385
3.57367	11.2137
4.42006	12.2906
5.26646	14.4295
6.30094	15.5098
7.33542	17.121
8.08777	18.7272
9.02821	19.2748
9.87461	19.8208
10.721	20.3667
11.6614	20.3834
12.5078	20.3984
13.3542	20.9443
14.2947	20.961
15.2351	20.9776
16.1755	20.9943
17.116	21.0109
18.0564	21.0275
18.9969	21.0442
20.4075	21.0692
21.348	21.0858
22.2884	21.1024
23.2288	21.1191
24.1693	21.1357
25.3918	21.6884
26.3323	21.705
27.2727	21.7216
28.2132	21.7383
29.1536	21.7549
