Adsorption isotherm of Carbon Dioxide on ZIF-1
DOI: 10.1021/Jp910522h
Adsorbate Carbon Dioxide: InChIKey CURLTUGMZLYLDI-UHFFFAOYSA-N
Temperature: 298 K
Tabular data in the source: 0
pressure (bar)	uptake (molecules/unitcell)
0.943396	4.09836
2.64151	4.91803
5.09434	5.7377
7.54717	5.7377
10	5.7377
12.4528	5.7377
15.0943	5.7377
20	5.7377
25	5.7377
30	6.55738
