Adsorption isotherm of Carbon Dioxide on ZIF-74
DOI: 10.1021/Jp910522h
Adsorbate Carbon Dioxide: InChIKey CURLTUGMZLYLDI-UHFFFAOYSA-N
Temperature: 298 K
Tabular data in the source: 0
pressure (bar)	uptake (molecules/unitcell)
1.69811	10.6557
3.11321	12.2951
4.5283	11.4754
5.4717	13.1148
6.88679	13.1148
8.11321	13.1148
8.67925	13.1148
10.7547	13.1148
11.7925	13.1148
13.1132	13.9344
14.5283	13.9344
15.283	14.7541
16.2264	13.9344
17.1698	13.9344
18.1132	13.9344
19.0566	13.9344
20	14.7541
20.1887	14.7541
21.1321	13.9344
21.8868	14.7541
22.7358	14.7541
23.6792	14.7541
24.6226	14.7541
25.1887	14.7541
26.0377	14.7541
26.9811	14.7541
27.9245	14.7541
28.8679	14.7541
29.8113	15.5738
