Adsorption isotherm of Carbon Dioxide on MOF-2
DOI: 10.1021/Jp910522h
Adsorbate Carbon Dioxide: InChIKey CURLTUGMZLYLDI-UHFFFAOYSA-N
Temperature: 298 K
Tabular data in the source: 0
pressure (bar)	uptake (molecules/unitcell)
0.937068	1.84332
1.78039	3.68664
2.53039	3.68664
4.02995	5.52995
5.15495	5.52995
6.56077	7.37327
7.4987	5.52995
8.90495	5.52995
10.03	5.52995
11.342	7.37327
12.4679	3.68664
13.78	5.52995
14.9991	3.68664
17.4362	5.52995
20.0608	7.37327
22.78	5.52995
25.0295	7.37327
26.8112	5.52995
29.0612	5.52995
