Adsorption isotherm of Carbon Dioxide on IRMOF-6
DOI: 10.1021/Jp910522h
Adsorbate Carbon Dioxide: InChIKey CURLTUGMZLYLDI-UHFFFAOYSA-N
Temperature: 298 K
Tabular data in the source: 0
pressure (bar)	uptake (mmol/g)
13.403	14.594
15.2934	15.9742
16.5513	15.9811
17.6534	16.5351
18.2838	17.0865
20.0141	17.3699
21.5879	17.9265
23.6326	18.2117
25.8361	19.0457
27.8801	19.0569
30.0821	19.3429
31.969	19.3533
34.1717	19.9133
36.2157	19.9245
37.946	20.2079
40.3046	20.2208
42.5059	20.2329
