Adsorption isotherm of Carbon Dioxide on IRMOF-11
DOI: 10.1021/Jp910522h
Adsorbate Carbon Dioxide: InChIKey CURLTUGMZLYLDI-UHFFFAOYSA-N
Temperature: 298 K
Tabular data in the source: 0
pressure (bar)	uptake (molecules/unitcell)
1.23418	100.465
1.70886	126.512
2.27848	156.279
2.65823	178.605
3.32278	215.814
4.17722	241.86
4.6519	267.907
5.22152	293.953
5.98101	312.558
6.74051	334.884
7.40506	357.209
8.16456	372.093
9.01899	390.698
9.96835	416.744
10.8228	424.186
11.6772	435.349
12.8165	450.233
13.7658	461.395
14.6203	472.558
15.3797	480
16.3291	487.442
17.1835	491.163
18.1329	498.605
19.0823	502.326
20.4114	509.767
21.3608	513.488
22.3101	517.209
23.1646	520.93
24.1139	524.651
25.443	528.372
26.3924	532.093
27.3418	535.814
28.2911	535.814
29.1456	539.535
