Adsorption isotherm of Nitrogen on ZIF-3
DOI: 10.1021/Jp910522h
Adsorbate Nitrogen: InChIKey IJGRMHOSHXDMSA-UHFFFAOYSA-N
Temperature: 298 K
Tabular data in the source: 0
pressure (bar)	uptake (molecules/unitcell)
0.764331	0.822718
2.57962	2.46417
5.06369	4.09634
7.54777	5.7285
9.93631	7.362
12.5159	8.1595
15	8.95833
20.0637	10.9713
25.0318	12.1523
30.0955	13.7487
