Adsorption isotherm of Carbon monoxide on ZIF-3
DOI: 10.1021/Jp910522h
Adsorbate Carbon monoxide: InChIKey UGFAIRIUMAVXCW-UHFFFAOYSA-N
Temperature: 298 K
Tabular data in the source: 0
pressure (bar)	uptake (molecules/unitcell)
1.1465	1.50628
2.57962	3.01255
4.96815	6.0251
7.54777	7.53138
10.1274	9.53975
12.6115	11.046
14.9045	12.0502
20.0637	15.0628
25.1274	16.569
30	18.0753
