Adsorption isotherm of Carbon Dioxide on CuBTC
DOI: 10.1021/Jp910522h
Adsorbate Carbon Dioxide: InChIKey CURLTUGMZLYLDI-UHFFFAOYSA-N
Temperature: 298 K
Tabular data in the source: 0
pressure (bar)	uptake (molecules/unitcell)
0.651066	22.1198
1.11636	36.8664
2.60815	71.8894
5.1299	112.442
7.56394	127.189
10.0926	138.249
12.5288	143.779
15.0596	145.622
20.0271	151.152
25.1829	152.995
29.9633	156.682
