Adsorption isotherm of Carbon Dioxide on CuBTC
DOI: 10.1021/Jp910522h
Adsorbate Carbon Dioxide: InChIKey CURLTUGMZLYLDI-UHFFFAOYSA-N
Temperature: 298 K
Tabular data in the source: 0
pressure (bar)	uptake (molecules/unitcell)
1.77995	5.52995
4.3112	5.52995
6.56077	7.37327
9.09202	7.37327
11.3416	9.21659
13.7795	7.37327
16.3103	9.21659
18.467	7.37327
21.4666	9.21659
23.342	7.37327
25.3103	9.21659
27.2791	9.21659
29.2478	9.21659
