Adsorption isotherm of Carbon Dioxide on ZIF-67
DOI: 10.1021/Jp910522h
Adsorbate Carbon Dioxide: InChIKey CURLTUGMZLYLDI-UHFFFAOYSA-N
Temperature: 298 K
Tabular data in the source: 0
pressure (bar)	uptake (molecules/unitcell)
1.03774	1.63934
2.54717	4.91803
5	11.4754
7.64151	14.7541
10.1887	17.2131
12.6415	18.0328
15.0943	19.6721
20	21.3115
25.1887	22.1311
30.0943	23.7705
