Adsorption isotherm of Carbon Dioxide on MOF-14
DOI: 10.1021/Jp910522h
Adsorbate Carbon Dioxide: InChIKey CURLTUGMZLYLDI-UHFFFAOYSA-N
Temperature: 298 K
Tabular data in the source: 0
pressure (bar)	uptake (molecules/unitcell)
1.30256	42.3963
2.42281	62.6728
3.4506	77.4194
4.29133	90.3226
5.32085	97.6959
6.25619	106.912
7.28528	116.129
8.1273	123.502
9.25144	127.189
10.4689	132.719
12.0622	134.562
13.7484	140.092
16.2784	145.622
17.8713	149.309
19.4646	151.152
21.9021	151.152
24.0579	152.995
26.2146	151.152
28.8383	156.682
