Adsorption isotherm of Carbon Dioxide on IRMOF-14
DOI: 10.1021/Jp910522h
Adsorbate Carbon Dioxide: InChIKey CURLTUGMZLYLDI-UHFFFAOYSA-N
Temperature: 298 K
Tabular data in the source: 0
pressure (bar)	uptake (molecules/unitcell)
2.42718	31.4749
5.04854	62.9361
10.0971	138.53
12.6214	180.547
14.9515	231.016
20.0971	319.262
25.0485	367.437
30	390.295
