Adsorption isotherm of Nitrogen on CuBTC
DOI: 10.1021/Jp910522h
Adsorbate Nitrogen: InChIKey IJGRMHOSHXDMSA-UHFFFAOYSA-N
Temperature: 295 K
Tabular data in the source: 0
pressure (bar)	uptake (mmol/g)
0.125637	0.0444915
0.224846	0.0699153
0.347202	0.101695
0.505899	0.158898
0.641491	0.190678
0.826659	0.247881
0.995283	0.305085
