Adsorption isotherm of Carbon Dioxide on IRMOF-11
DOI: 10.1021/Jp910522h
Adsorbate Carbon Dioxide: InChIKey CURLTUGMZLYLDI-UHFFFAOYSA-N
Temperature: 298 K
Tabular data in the source: 0
pressure (bar)	uptake (mmol/g)
0.950589	2.74493
1.74035	4.11913
2.37288	5.49245
3.16193	6.59267
4.10749	7.41977
5.52692	9.07138
7.10286	10.4499
8.99183	11.2821
14.8153	13.5058
16.2304	13.5136
16.86	13.791
18.1179	13.7979
19.2193	14.0779
20.3199	14.0839
21.2641	14.3631
22.3647	14.3691
23.1516	14.6474
24.4095	14.6543
25.3529	14.6595
26.61	14.3924
27.2397	14.6698
28.9693	14.6793
30.5416	14.6879
32.5857	14.6991
34.1573	14.4337
36.0441	14.4441
37.6172	14.7267
38.8751	14.7336
40.4467	14.4682
41.8626	14.7499
43.4349	14.7585
45.0073	14.7672
