Adsorption isotherm of Carbon Dioxide on IRMOF-8
DOI: 10.1021/Jp910522h
Adsorbate Carbon Dioxide: InChIKey CURLTUGMZLYLDI-UHFFFAOYSA-N
Temperature: 298 K
Tabular data in the source: 0
pressure (bar)	uptake (molecules/unitcell)
2.71845	20.9059
4.95146	37.6265
9.32039	90.0619
12.5243	134.14
14.9515	169.835
20.0971	209.557
25.1456	234.519
30.0971	248.938
