Adsorption isotherm of Carbon monoxide on IRMOF-1
DOI: 10.1021/Jp910522h
Adsorbate Carbon monoxide: InChIKey UGFAIRIUMAVXCW-UHFFFAOYSA-N
Temperature: 298 K
Tabular data in the source: 0
pressure (bar)	uptake (molecules/unitcell)
3.24841	5.52301
4.58599	7.53138
6.01911	10.5439
7.92994	13.5565
9.74522	16.0669
10.5096	18.0753
11.2739	19.0795
12.1338	20.5858
12.9936	22.5941
13.8535	23.5983
14.6178	24.6025
15.4777	26.1088
16.4331	27.6151
17.293	29.1213
18.1529	30.6276
19.1083	31.6318
20.4459	33.6402
21.4013	35.1464
22.2611	36.6527
23.2166	37.6569
24.0764	39.1632
24.8408	40.6695
25.7006	41.6736
26.6561	42.6778
27.5159	43.682
28.4713	45.1883
29.3312	46.1925
