Adsorption isotherm of Carbon Dioxide on PCN-13
DOI: 10.1021/Jp910522h
Adsorbate Carbon Dioxide: InChIKey CURLTUGMZLYLDI-UHFFFAOYSA-N
Temperature: 298 K
Tabular data in the source: 0
pressure (bar)	uptake (molecules/unitcell)
0.189873	33.4884
0.474684	74.4186
1.0443	89.3023
2.56329	93.0233
4.93671	107.907
7.5	107.907
9.96835	107.907
12.4367	107.907
14.9051	111.628
19.9367	115.349
24.8734	119.07
30.0949	119.07
