Adsorption isotherm of Carbon Dioxide on PCN-9
DOI: 10.1021/Jp910522h
Adsorbate Carbon Dioxide: InChIKey CURLTUGMZLYLDI-UHFFFAOYSA-N
Temperature: 298 K
Tabular data in the source: 0
pressure (bar)	uptake (molecules/unitcell)
0.873786	34.188
2.52427	59.8291
4.95146	81.1966
7.47573	89.7436
10	94.0171
12.4272	98.2906
14.9515	102.564
20	102.564
25.0485	111.111
30	111.111
