Adsorption isotherm of Nitrogen on IRMOF-1
DOI: 10.1021/Jp910522h
Adsorbate Nitrogen: InChIKey IJGRMHOSHXDMSA-UHFFFAOYSA-N
Temperature: 298 K
Tabular data in the source: 0
pressure (bar)	uptake (molecules/unitcell)
2.86624	3.71019
3.82166	4.94692
4.77707	6.18365
5.5414	7.42304
6.40127	8.66109
7.26115	9.89915
7.83439	10.3079
8.88535	11.5433
9.74522	12.7813
10.414	13.1887
11.1783	14.4281
12.0382	15.2495
12.8981	16.4875
13.6624	17.3102
14.5223	18.1316
15.3822	18.953
16.7197	20.6011
18.1529	22.2479
19.4904	23.896
20.4459	24.716
21.9745	25.9448
23.4076	27.5916
24.5541	28.8256
25.6051	29.6444
27.0382	30.8745
28.5669	32.1032
29.8089	33.7527
