Adsorption isotherm of Carbon Dioxide on IRMOF-18
DOI: 10.1021/Jp910522h
Adsorbate Carbon Dioxide: InChIKey CURLTUGMZLYLDI-UHFFFAOYSA-N
Temperature: 298 K
Tabular data in the source: 0
pressure (bar)	uptake (molecules/unitcell)
0.485437	31.6114
1.06796	48.4481
1.84466	61.0517
2.71845	69.4291
3.59223	77.8065
4.46602	84.0741
5.04854	88.2526
6.60194	98.6918
8.54369	106.994
10.6796	113.173
13.7864	117.174
16.2136	119.113
17.5728	116.908
19.4175	120.997
21.2621	120.868
22.6214	120.772
24.1748	120.663
25.8252	122.656
27.2816	122.554
28.3495	124.589
30	122.363
