Adsorption isotherm of Nitrogen on MOF-177
DOI: 10.1021/Jp910522h
Adsorbate Nitrogen: InChIKey IJGRMHOSHXDMSA-UHFFFAOYSA-N
Temperature: 298 K
Tabular data in the source: 0
pressure (bar)	uptake (molecules/unitcell)
1.52866	3.72877
2.00637	5.3888
3.05732	8.29087
4.3949	11.6056
5.5414	14.0897
6.30573	16.1624
7.16561	17.8171
8.69427	21.9626
10.7962	26.9334
12.1338	30.2481
12.8981	31.9042
13.758	33.9756
14.5223	36.0483
15	36.4583
15.6688	38.5324
16.5287	40.1871
17.3885	41.8418
18.3439	43.9119
19.2038	45.5666
19.9682	47.6393
20.7325	48.8787
21.5924	50.5334
22.4522	52.1882
23.3121	54.2596
24.172	55.9143
24.9363	57.5703
25.7006	58.8097
26.5605	60.8811
27.4204	62.5358
28.2803	64.1906
29.1401	65.8453
30	67.5
