Adsorption isotherm of Carbon Dioxide on MOF-177
DOI: 10.1021/Jp910522h
Adsorbate Carbon Dioxide: InChIKey CURLTUGMZLYLDI-UHFFFAOYSA-N
Temperature: 298 K
Tabular data in the source: 0
pressure (bar)	uptake (molecules/unitcell)
1.21573	12.9032
2.05688	23.9631
3.7392	46.0829
4.48531	62.6728
5.88638	84.7926
6.91201	108.756
8.31092	140.092
9.14991	160.369
10.1755	184.332
11.2007	210.138
12.3214	228.571
13.4421	247.005
14.6578	259.908
16.0602	276.498
17.5576	287.558
18.6809	294.931
20.7404	307.834
22.6132	317.051
24.5806	322.581
26.3606	328.111
27.9535	331.797
29.6401	335.484
