Adsorption isotherm of Carbon Dioxide on ZIF-65
DOI: 10.1021/Jp910522h
Adsorbate Carbon Dioxide: InChIKey CURLTUGMZLYLDI-UHFFFAOYSA-N
Temperature: 298 K
Tabular data in the source: 0
pressure (bar)	uptake (molecules/unitcell)
1.32075	11.4754
2.35849	16.3934
3.58491	18.8525
4.81132	20.4918
6.13208	22.1311
8.01887	24.5902
9.33962	26.2295
10.6604	26.2295
11.7925	27.0492
12.4528	27.0492
14.1509	27.0492
15.566	26.2295
17.7358	27.0492
19.3396	27.8689
21.1321	28.6885
22.0755	29.5082
23.0189	29.5082
23.9623	29.5082
25.283	30.3279
26.2264	29.5082
27.1698	29.5082
28.1132	29.5082
29.0566	29.5082
29.9057	30.3279
