Adsorption isotherm of Carbon Dioxide on IRMOF-12
DOI: 10.1021/Jp910522h
Adsorbate Carbon Dioxide: InChIKey CURLTUGMZLYLDI-UHFFFAOYSA-N
Temperature: 298 K
Tabular data in the source: 0
pressure (bar)	uptake (molecules/unitcell)
2.42718	29.3652
4.85437	58.7304
7.57282	88.075
10	119.55
12.5243	155.237
15.0485	197.254
20	285.513
25.1456	333.675
30.0971	364.972
