Adsorption isotherm of Carbon Dioxide on ZIF-69
DOI: 10.1021/Jp910522h
Adsorbate Carbon Dioxide: InChIKey CURLTUGMZLYLDI-UHFFFAOYSA-N
Temperature: 298 K
Tabular data in the source: 0
pressure (bar)	uptake (molecules/unitcell)
2.54717	38.5246
5	44.2623
7.54717	46.7213
10.0943	49.1803
12.6415	50
15.0943	50.8197
20.0943	53.2787
25.1887	54.0984
30.0943	54.918
