Adsorption isotherm of Carbon Dioxide on MOF-177
DOI: 10.1021/Jp910522h
Adsorbate Carbon Dioxide: InChIKey CURLTUGMZLYLDI-UHFFFAOYSA-N
Temperature: 298 K
Tabular data in the source: 0
pressure (bar)	uptake (mmol/g)
0.945564	0.827099
2.2056	1.65592
3.15116	2.48302
3.94021	3.58323
5.20168	4.96001
6.30448	5.78797
7.09496	7.43614
8.35643	8.81291
9.30415	10.4619
10.2519	12.111
12.306	15.9578
13.4124	18.1557
14.6753	20.0804
15.6251	22.5514
16.4156	24.1995
17.5206	25.8494
18.4676	27.2245
19.7276	28.0533
20.6739	29.1544
21.776	29.7084
23.6649	30.5406
25.8691	31.6486
27.7574	32.2069
30.747	33.0452
32.0056	33.3261
34.0503	33.6112
36.0951	33.8964
38.2964	33.9085
40.1839	34.1928
42.3852	34.2049
