Adsorption isotherm of Carbon Dioxide on MOF-177
DOI: 10.1021/Jp910522h
Adsorbate Carbon Dioxide: InChIKey CURLTUGMZLYLDI-UHFFFAOYSA-N
Temperature: 298 K
Tabular data in the source: 0
pressure (bar)	uptake (mmol/g)
5.05162	7.69891
6.00149	10.1699
6.94993	12.0929
7.73969	13.4671
8.84536	15.3909
9.79452	17.5879
10.7437	19.7849
11.8501	21.9827
12.7985	23.9057
13.9042	25.8296
15.1671	27.7543
16.4285	29.1311
17.8472	30.5088
19.2645	31.3384
20.8383	31.895
22.2548	32.4507
23.8286	33.0073
25.2452	33.563
26.8183	33.8456
28.0769	34.1264
29.6492	34.1351
31.2223	34.4177
32.9519	34.4271
34.9959	34.4383
37.8276	35.0018
40.3433	35.0156
42.2302	35.0259
44.5887	35.0388
45.0604	35.0414
