Adsorption isotherm of Carbon Dioxide on ZIF-74
DOI: 10.1021/Jp910522h
Adsorbate Carbon Dioxide: InChIKey CURLTUGMZLYLDI-UHFFFAOYSA-N
Temperature: 298 K
Tabular data in the source: 0
pressure (bar)	uptake (molecules/unitcell)
1.03774	9.83607
2.64151	11.4754
5	13.1148
7.54717	13.1148
10	13.1148
12.4528	13.9344
15.0943	13.9344
20.0943	13.9344
25.0943	14.7541
30.0943	14.7541
