Adsorption isotherm of Carbon Dioxide on IRMOF-15
DOI: 10.1021/Jp910522h
Adsorbate Carbon Dioxide: InChIKey CURLTUGMZLYLDI-UHFFFAOYSA-N
Temperature: 298 K
Tabular data in the source: 0
pressure (bar)	uptake (molecules/unitcell)
1.41066	3.74178
2.82132	9.60746
3.57367	12.2756
4.51411	14.4162
5.45455	20.2735
6.11285	22.9401
6.95925	27.7338
7.89969	32.5292
8.93417	39.9811
9.78056	44.7749
11.1912	53.8264
12.6959	61.8176
14.0125	67.1507
15.2351	70.3581
16.2696	73.5623
17.116	75.1702
18.0564	77.3107
18.9028	78.3877
19.7492	80.5265
20.2194	81.0658
21.1599	82.1444
22.0063	83.2213
22.9467	84.2999
23.7931	85.3769
24.7335	86.4555
25.9561	87.539
26.8966	88.6176
27.837	89.6962
28.7774	90.2438
29.7179	90.7915
