Adsorption isotherm of Carbon Dioxide on ZIF-67
DOI: 10.1021/Jp910522h
Adsorbate Carbon Dioxide: InChIKey CURLTUGMZLYLDI-UHFFFAOYSA-N
Temperature: 298 K
Tabular data in the source: 0
pressure (bar)	uptake (molecules/unitcell)
1.13208	1.63934
2.35849	4.91803
3.86792	9.01639
5.84906	12.2951
6.88679	13.9344
8.58491	15.5738
10	16.3934
11.6981	18.0328
13.2075	18.8525
14.8113	19.6721
17.0755	20.4918
19.2453	20.4918
20.9434	21.3115
23.2075	21.3115
24.717	22.1311
25.4717	22.1311
26.3208	22.9508
27.2642	22.9508
28.2075	22.9508
29.1509	22.9508
