Adsorption isotherm of Carbon monoxide on PCN-13
DOI: 10.1021/Jp910522h
Adsorbate Carbon monoxide: InChIKey UGFAIRIUMAVXCW-UHFFFAOYSA-N
Temperature: 77 K
Tabular data in the source: 0
pressure (bar)	uptake (cm3(STP)/g)
0.00328467	0.00328467
0.00985401	42.6778
0.0164234	57.113
0.0328467	61.5063
0.0492701	62.7615
0.0854015	64.0167
0.121533	64.0167
0.170803	63.3891
0.226642	63.3891
0.29562	64.0167
0.364599	63.3891
0.45	64.6444
0.502555	64.0167
0.581387	64.0167
0.650365	64.0167
0.729197	64.0167
0.788321	64.0167
0.863869	63.3891
0.932847	63.3891
0.99854	63.3891
