Adsorption isotherm of Carbon Dioxide on CuBTC
DOI: 10.1021/Jp910522h
Adsorbate Carbon Dioxide: InChIKey CURLTUGMZLYLDI-UHFFFAOYSA-N
Temperature: 295 K
Tabular data in the source: 0
pressure (bar)	uptake (mmol/g)
0.159389	0.822791
0.322368	3.01547
0.955615	4.66277
1.43091	6.03524
2.22211	7.95738
3.01044	8.78362
3.95672	9.88469
5.05952	10.7127
6.1616	11.2666
6.94849	11.5449
9.15122	12.1049
9.93811	12.3832
11.196	12.3901
12.1394	12.3953
13.2408	12.6753
14.3414	12.6813
15.4421	12.6874
