Adsorption isotherm of Carbon Dioxide on ZIF-12
DOI: 10.1021/Jp910522h
Adsorbate Carbon Dioxide: InChIKey CURLTUGMZLYLDI-UHFFFAOYSA-N
Temperature: 298 K
Tabular data in the source: 0
pressure (bar)	uptake (molecules/unitcell)
0.470219	15.9375
0.940439	25.5034
2.44514	41.4592
4.89028	56.9007
7.42947	68.0961
9.87461	75.573
12.5078	84.6462
14.953	88.4062
20.0313	94.8678
25.1097	98.1435
30	100.885
