Adsorption isotherm of Carbon monoxide on PCN-10
DOI: 10.1021/Jp910522h
Adsorbate Carbon monoxide: InChIKey UGFAIRIUMAVXCW-UHFFFAOYSA-N
Temperature: 298 K
Tabular data in the source: 0
pressure (bar)	uptake (molecules/unitcell)
1.1465	2.00837
2.67516	4.01674
5.15924	8.53556
7.54777	13.0544
10.1274	16.569
12.707	20.5858
15	24.1004
20.0637	29.1213
25.0318	34.6444
30.0955	38.159
