Adsorption isotherm of Nitrogen on PCN-13
DOI: 10.1021/Jp910522h
Adsorbate Nitrogen: InChIKey IJGRMHOSHXDMSA-UHFFFAOYSA-N
Temperature: 77 K
Tabular data in the source: 0
pressure (bar)	uptake (cm3(STP)/g)
0.0525547	59.6234
0.118248	60.251
0.157664	60.8787
0.190511	60.8787
0.220073	60.8787
0.25292	61.5063
0.285766	61.5063
0.318613	61.5063
0.35146	61.5063
0.384307	61.5063
0.417153	61.5063
0.45	60.8787
0.482847	60.8787
0.515693	60.8787
0.54854	60.8787
0.581387	60.8787
0.614234	60.251
0.64708	60.251
0.679927	60.251
0.712774	60.251
0.74562	60.251
0.778467	60.251
0.811314	60.251
0.844161	60.251
0.877007	60.251
0.909854	60.8787
0.942701	60.8787
0.972263	61.5063
