Adsorption isotherm of Carbon Dioxide on MOF-2
DOI: 10.1021/Jp910522h
Adsorbate Carbon Dioxide: InChIKey CURLTUGMZLYLDI-UHFFFAOYSA-N
Temperature: 298 K
Tabular data in the source: 0
pressure (bar)	uptake (molecules/unitcell)
2.53039	3.68664
5.15452	7.37327
7.59245	5.52995
10.03	5.52995
12.5608	7.37327
14.9983	7.37327
19.967	7.37327
24.9358	7.37327
29.9045	7.37327
