Adsorption isotherm of Carbon Dioxide on IRMOF-10
DOI: 10.1021/Jp910522h
Adsorbate Carbon Dioxide: InChIKey CURLTUGMZLYLDI-UHFFFAOYSA-N
Temperature: 298 K
Tabular data in the source: 0
pressure (bar)	uptake (molecules/unitcell)
4.27184	44.0034
6.40777	58.6211
8.4466	75.3554
9.41748	85.8356
10.8738	104.721
12.1359	121.509
13.6893	142.497
14.8544	161.403
16.0194	180.308
16.9903	201.337
18.2524	224.455
19.3204	245.477
20.6796	266.478
21.7476	285.39
23.5922	312.687
25.6311	335.75
26.7961	348.327
27.6699	356.704
28.6408	362.965
29.5146	371.342
