Adsorption isotherm of Carbon Dioxide on ZIF-78
DOI: 10.1021/Jp910522h
Adsorbate Carbon Dioxide: InChIKey CURLTUGMZLYLDI-UHFFFAOYSA-N
Temperature: 298 K
Tabular data in the source: 0
pressure (bar)	uptake (molecules/unitcell)
0.0940439	15.9309
0.282132	24.4298
0.470219	32.3977
0.940439	38.7777
1.88088	42.5112
2.63323	44.6484
4.51411	46.8056
5.26646	47.3498
6.77116	48.9694
7.89969	51.1133
9.31034	51.6692
10.1567	52.2152
11.8495	52.7761
12.9781	53.327
14.6708	53.888
15.7994	54.4389
17.3041	54.9965
18.9028	55.0248
20.5956	55.0548
22.1944	55.6141
24.2633	55.6507
25.768	55.6773
28.2132	55.7206
29.6238	56.2765
