Adsorption isotherm of Carbon monoxide on ZIF-3
DOI: 10.1021/Jp910522h
Adsorbate Carbon monoxide: InChIKey UGFAIRIUMAVXCW-UHFFFAOYSA-N
Temperature: 298 K
Tabular data in the source: 0
pressure (bar)	uptake (molecules/unitcell)
1.52866	2.51046
2.10191	3.01255
2.96178	3.51464
3.82166	4.51883
4.49045	5.02092
5.63694	6.0251
7.07006	7.53138
8.02548	8.03347
8.98089	8.53556
9.84076	9.53975
10.7962	10.0418
11.7516	10.5439
12.6115	11.046
13.5669	11.5481
14.5223	12.0502
15.4777	12.5523
16.4331	13.0544
17.3885	13.0544
18.2484	13.5565
19.2038	14.0586
20.2548	15.0628
21.0191	15.0628
21.7834	15.0628
22.5478	15.5649
23.5032	15.5649
24.4586	16.0669
25.414	16.569
26.3694	16.569
27.2293	17.0711
28.1847	17.5732
29.1401	17.5732
30.0955	18.0753
