Adsorption isotherm of Carbon Dioxide on PCN-14
DOI: 10.1021/Jp910522h
Adsorbate Carbon Dioxide: InChIKey CURLTUGMZLYLDI-UHFFFAOYSA-N
Temperature: 298 K
Tabular data in the source: 0
pressure (bar)	uptake (molecules/unitcell)
1.35922	68.3761
2.03883	89.7436
3.00971	111.111
4.27184	128.205
5.33981	136.752
6.69903	141.026
7.96117	153.846
9.32039	149.573
10.3883	158.12
11.9417	158.12
13.2039	162.393
14.3689	162.393
15.6311	166.667
17.3786	166.667
19.0291	170.94
20.3883	170.94
22.0388	170.94
23.9806	170.94
26.0194	170.94
27.8641	175.214
29.8058	175.214
