Adsorption isotherm of Carbon Dioxide on ZIF-3
DOI: 10.1021/Jp910522h
Adsorbate Carbon Dioxide: InChIKey CURLTUGMZLYLDI-UHFFFAOYSA-N
Temperature: 298 K
Tabular data in the source: 0
pressure (bar)	uptake (molecules/unitcell)
5.09434	21.3115
7.54717	24.5902
10.0943	27.8689
12.5472	29.5082
15	30.3279
20.0943	32.7869
25.0943	32.7869
30.0943	33.6066
