Adsorption isotherm of Carbon Dioxide on ZIF-75
DOI: 10.1021/Jp910522h
Adsorbate Carbon Dioxide: InChIKey CURLTUGMZLYLDI-UHFFFAOYSA-N
Temperature: 298 K
Tabular data in the source: 0
pressure (bar)	uptake (molecules/unitcell)
0.566038	5.7377
1.03774	5.7377
2.45283	7.37705
5.09434	7.37705
7.54717	7.37705
10	7.37705
12.5472	7.37705
15	7.37705
20	7.37705
25	7.37705
30.0943	7.37705
