Adsorption isotherm of Carbon Dioxide on ZIF-68
DOI: 10.1021/Jp910522h
Adsorbate Carbon Dioxide: InChIKey CURLTUGMZLYLDI-UHFFFAOYSA-N
Temperature: 298 K
Tabular data in the source: 0
pressure (bar)	uptake (molecules/unitcell)
1.22257	19.1367
1.78683	23.3945
2.3511	27.6522
3.10345	31.3824
3.8558	34.0505
4.79624	38.846
5.73668	40.9865
6.58307	42.5944
7.52351	44.7349
8.36991	45.8119
9.31034	47.4214
11.5674	50.1162
13.0721	51.2048
14.3887	52.2901
15.7994	53.377
17.21	53.9329
19.185	55.5608
21.1599	56.6577
22.5705	56.6827
24.7335	57.7829
26.2382	57.8095
28.3072	57.8461
29.906	59.4674
