Adsorption isotherm of Carbon Dioxide on PCN-11
DOI: 10.1021/Jp910522h
Adsorbate Carbon Dioxide: InChIKey CURLTUGMZLYLDI-UHFFFAOYSA-N
Temperature: 298 K
Tabular data in the source: 0
pressure (bar)	uptake (molecules/unitcell)
1.16505	8.54701
2.62136	38.4615
4.95146	55.5556
7.57282	68.3761
10	68.3761
12.5243	72.6496
15.0485	76.9231
20.0971	81.1966
25.0485	81.1966
30.0971	85.4701
