Adsorption isotherm of Carbon Dioxide on MOF-602
DOI: 10.1021/Jp910522h
Adsorbate Carbon Dioxide: InChIKey CURLTUGMZLYLDI-UHFFFAOYSA-N
Temperature: 298 K
Tabular data in the source: 0
pressure (bar)	uptake (molecules/unitcell)
0.743952	25.8065
1.95795	46.0829
2.70622	53.4562
3.54781	62.6728
4.38983	70.0461
5.23229	75.576
6.07474	81.106
7.01138	84.7926
7.94758	90.3226
8.79047	94.0092
9.7271	97.6959
10.0079	99.5392
10.945	101.382
11.7879	105.069
12.7245	108.756
13.6616	110.599
14.5045	114.286
15.4411	117.972
16.2844	119.816
17.2211	123.502
18.0639	127.189
19.001	129.032
19.8439	132.719
20.781	134.562
21.6238	138.249
22.5609	140.092
23.498	141.935
24.4351	143.779
25.4654	147.465
26.4025	149.309
28.1825	154.839
29.1195	156.682
