Adsorption isotherm of Carbon Dioxide on ZIF-10
DOI: 10.1021/Jp910522h
Adsorbate Carbon Dioxide: InChIKey CURLTUGMZLYLDI-UHFFFAOYSA-N
Temperature: 298 K
Tabular data in the source: 0
pressure (bar)	uptake (molecules/unitcell)
2.92453	18.8525
3.86792	23.7705
4.81132	28.6885
5.56604	34.4262
6.60377	39.3443
7.54717	45.082
8.58491	49.1803
9.71698	54.0984
10.4717	57.377
11.5094	61.4754
12.6415	64.7541
13.6792	67.2131
15.283	70.4918
16.4151	72.1311
17.8302	74.5902
19.1509	77.8689
20.4717	79.5082
22.0755	80.3279
23.7736	82.7869
25	83.6066
26.3208	84.4262
27.7358	86.0656
29.1509	86.8852
30.0943	87.7049
