Adsorption isotherm of Carbon Dioxide on IRMOF-3
DOI: 10.1021/Jp910522h
Adsorbate Carbon Dioxide: InChIKey CURLTUGMZLYLDI-UHFFFAOYSA-N
Temperature: 298 K
Tabular data in the source: 0
pressure (bar)	uptake (mmol/g)
1.73964	3.84515
3.63435	6.86923
5.68272	8.52429
7.89262	11.8241
9.78447	13.7522
11.0452	14.855
12.1473	15.409
13.7232	16.7875
15.4543	17.345
17.657	17.905
19.7025	18.4641
21.4321	18.4736
23.1631	19.031
24.2637	19.0371
25.0506	19.3153
26.6237	19.5979
27.5671	19.6031
28.6677	19.6091
29.1402	19.8857
30.398	19.8926
31.0263	19.6221
31.9704	19.9012
32.9138	19.9064
33.542	19.6358
34.171	19.6393
35.5868	19.921
37.1591	19.9296
38.1018	19.6608
38.7322	20.2122
40.1473	20.22
41.5624	20.2277
42.3479	19.9581
42.821	20.5086
43.9202	19.9667
44.8644	20.2458
