Adsorption isotherm of Carbon Dioxide on IRMOF-14
DOI: 10.1021/Jp910522h
Adsorbate Carbon Dioxide: InChIKey CURLTUGMZLYLDI-UHFFFAOYSA-N
Temperature: 298 K
Tabular data in the source: 0
pressure (bar)	uptake (molecules/unitcell)
2.42718	31.4749
2.91262	37.7699
3.78641	46.1472
5.43689	71.3476
6.21359	83.9512
7.08738	94.4383
8.15534	111.241
8.93204	123.844
9.61165	136.455
10.3883	142.729
11.068	157.45
11.8447	170.053
12.9126	191.075
13.5922	203.685
14.3689	220.509
15.4369	241.53
16.1165	254.141
16.8932	268.854
17.6699	281.458
18.4466	294.061
19.2233	304.555
20	319.269
20.7767	325.543
21.7476	333.914
22.6214	342.291
23.4951	350.668
24.3689	356.936
25.3398	363.197
26.3107	369.458
27.1845	375.725
28.1553	379.877
29.0291	386.144
