Adsorption isotherm of Carbon Dioxide on PCN-11
DOI: 10.1021/Jp910522h
Adsorbate Carbon Dioxide: InChIKey CURLTUGMZLYLDI-UHFFFAOYSA-N
Temperature: 298 K
Tabular data in the source: 0
pressure (bar)	uptake (molecules/unitcell)
1.16505	1.16505
1.94175	34.188
3.39806	51.2821
4.36893	59.8291
5.43689	64.1026
6.40777	68.3761
7.96117	72.6496
8.93204	72.6496
10.3883	76.9231
11.3592	76.9231
12.9126	76.9231
13.8835	76.9231
15.3398	76.9231
16.3107	81.1966
17.2816	81.1966
18.2524	81.1966
19.2233	81.1966
20.3883	81.1966
21.3592	81.1966
22.3301	85.4701
23.2039	85.4701
24.1748	85.4701
25.4369	89.7436
26.4078	85.4701
27.3786	85.4701
28.3495	85.4701
29.3204	85.4701
