Adsorption isotherm of Carbon Dioxide on IRMOF-1
DOI: 10.1021/Jp910522h
Adsorbate Carbon Dioxide: InChIKey CURLTUGMZLYLDI-UHFFFAOYSA-N
Temperature: 298 K
Tabular data in the source: 0
pressure (bar)	uptake (molecules/unitcell)
5.04854	41.8391
7.37864	69.1014
10	100.563
12.5243	119.372
15.0485	131.853
20	144.163
25.0485	150.137
30	156.118
