Adsorption isotherm of Carbon Dioxide on Cu-BTC
DOI: 10.1021/Jp910522h
Adsorbate Carbon Dioxide: InChIKey CURLTUGMZLYLDI-UHFFFAOYSA-N
Temperature: 298 K
Tabular data in the source: 0
pressure (bar)	uptake (molecules/unitcell)
1.12414	3.68664
2.52995	5.52995
5.15452	7.37327
7.59202	7.37327
10.0295	7.37327
12.5603	9.21659
14.9045	7.37327
20.0603	9.21659
25.03	5.52995
29.9978	9.21659
