Adsorption isotherm of Carbon Dioxide on IRMOF-1
DOI: 10.1021/Jp910522h
Adsorbate Carbon Dioxide: InChIKey CURLTUGMZLYLDI-UHFFFAOYSA-N
Temperature: 298 K
Tabular data in the source: 0
pressure (bar)	uptake (mmol/g)
8.99901	14.0219
10.417	15.1256
13.5696	18.1565
17.5076	20.9179
19.0807	21.2004
20.4973	21.7561
22.0703	22.0387
23.6434	22.3213
25.2165	22.6039
26.7895	22.8865
28.3619	22.8951
29.7777	23.1769
31.3501	23.1855
34.181	23.475
35.7534	23.4836
40.9421	23.512
42.5145	23.5206
44.0868	23.5292
