Adsorption isotherm of Carbon Dioxide on MIL-53(Cr)
DOI: 10.1021/Jp910522h
Adsorbate Carbon Dioxide: InChIKey CURLTUGMZLYLDI-UHFFFAOYSA-N
Temperature: 304 K
Tabular data in the source: 0
pressure (bar)	uptake (mmol/g)
0.0862057	0.517018
0.338357	0.904297
0.340153	1.22757
0.424922	1.48597
0.511487	2.06764
1.01256	2.26031
1.59732	2.51742
2.26469	2.64501
2.68136	2.64393
3.2654	2.77173
3.85016	3.02884
4.51825	3.28573
4.93599	3.47861
5.35481	3.86546
5.60804	4.4467
5.94424	4.96308
6.19819	5.67363
6.78367	6.06004
6.86987	6.57706
7.37094	6.76973
7.37274	7.093
7.95678	7.2208
8.62488	7.47769
9.20928	7.67015
9.87737	7.92704
10.3781	8.05506
11.1288	8.18243
12.2958	8.24406
13.7142	8.56367
15.1312	8.62466
16.2993	8.88026
17.2167	9.0072
18.0507	9.13435
18.9681	9.26129
20.0529	9.5171
21.2199	9.57874
22.0536	9.64124
22.5539	9.7046
23.3876	9.7671
23.972	9.95956
24.6394	10.0871
