Adsorption isotherm of Carbon Dioxide on IRMOF-11
DOI: 10.1021/Jp910522h
Adsorbate Carbon Dioxide: InChIKey CURLTUGMZLYLDI-UHFFFAOYSA-N
Temperature: 298 K
Tabular data in the source: 0
pressure (bar)	uptake (molecules/unitcell)
1.13924	81.8605
2.56329	167.442
5.03165	286.512
7.5	353.488
10.0633	416.744
12.5316	457.674
14.9051	480
19.9367	513.488
25.0633	532.093
30.0949	546.977
