Adsorption isotherm of Carbon Dioxide on ZIF-75
DOI: 10.1021/Jp910522h
Adsorbate Carbon Dioxide: InChIKey CURLTUGMZLYLDI-UHFFFAOYSA-N
Temperature: 298 K
Tabular data in the source: 0
pressure (bar)	uptake (molecules/unitcell)
0.471698	5.7377
1.22642	5.7377
2.26415	6.55738
3.49057	6.55738
5.18868	7.37705
7.45283	6.55738
8.86792	7.37705
10.8491	7.37705
12.4528	6.55738
14.3396	7.37705
16.3208	6.55738
18.7736	6.55738
20.0943	6.55738
22.0755	7.37705
24.1509	7.37705
25.9434	6.55738
28.0189	6.55738
29.6226	6.55738
