Adsorption isotherm of Nitrogen on PCN-10
DOI: 10.1021/Jp910522h
Adsorbate Nitrogen: InChIKey IJGRMHOSHXDMSA-UHFFFAOYSA-N
Temperature: 298 K
Tabular data in the source: 0
pressure (bar)	uptake (molecules/unitcell)
2.96178	4.5422
4.01274	4.94427
4.49045	5.77097
5.44586	7.0077
6.40127	8.24443
6.97452	8.65313
7.73885	9.47585
8.3121	10.3012
9.26752	11.1213
10.9873	12.7641
11.9427	13.5841
15.3822	16.8697
16.242	17.2744
17.9618	18.5005
18.9172	19.3206
19.7771	20.142
20.5414	20.548
21.4968	20.9514
23.0255	22.1802
23.9809	22.5836
24.8408	23.405
25.7006	23.8097
26.6561	24.2131
27.4204	24.6192
28.4713	25.4379
29.6178	25.8386
