Adsorption isotherm of Carbon monoxide on IRMOF-1
DOI: 10.1021/Jp910522h
Adsorbate Carbon monoxide: InChIKey UGFAIRIUMAVXCW-UHFFFAOYSA-N
Temperature: 298 K
Tabular data in the source: 0
pressure (bar)	uptake (molecules/unitcell)
5.06369	8.03347
7.54777	12.5523
10.1274	17.0711
12.5159	20.5858
15	25.1046
20.0637	32.636
25.1274	39.6653
30	46.1925
