Adsorption isotherm of Carbon Dioxide on IRMOF-6
DOI: 10.1021/Jp910522h
Adsorbate Carbon Dioxide: InChIKey CURLTUGMZLYLDI-UHFFFAOYSA-N
Temperature: 298 K
Tabular data in the source: 0
pressure (bar)	uptake (molecules/unitcell)
1.0443	14.8837
1.99367	26.0465
2.75316	37.2093
3.60759	52.093
4.46203	55.814
5.31646	66.9767
6.17089	70.6977
7.02532	81.8605
7.68987	85.5814
8.35443	93.0233
9.49367	100.465
10.2532	104.186
11.3924	111.628
13.481	119.07
15.2848	122.791
16.2342	122.791
17.1835	122.791
18.1329	126.512
19.0823	126.512
19.9367	133.953
20.8861	130.233
21.8354	130.233
22.7848	133.953
23.7342	133.953
24.6835	133.953
25.538	133.953
26.3924	137.674
27.3418	137.674
28.2911	137.674
29.2405	137.674
30.1899	141.395
