Adsorption isotherm of Carbon monoxide on PCN-13
DOI: 10.1021/Jp910522h
Adsorbate Carbon monoxide: InChIKey UGFAIRIUMAVXCW-UHFFFAOYSA-N
Temperature: 77 K
Tabular data in the source: 0
pressure (bar)	uptake (cm3(STP)/g)
0.00985401	0.00985401
0.0131387	32.636
0.0164234	55.2301
0.0459854	58.3682
0.0919708	62.7615
0.144526	64.6444
0.210219	66.5272
0.29562	66.5272
0.364599	67.7824
0.486131	69.0377
0.578102	69.6653
0.660219	70.2929
0.722628	72.1757
0.785036	72.1757
0.860584	73.431
0.932847	74.0586
1.00839	75.9414
