Adsorption isotherm of Ethanol on Zeolite Na-A
DOI: 10.1016/j.micromeso.2008.01.044
Adsorbate Ethanol: InChIKey LFQSCWFLJHTTHZ-UHFFFAOYSA-N
Temperature: 378 K
Tabular data in the source: 0
pressure (bar)	uptake (molecules/unitcell)
5.14446e-09	1.2
5.52421e-08	4
5.93198e-07	10.8
6.36971e-06	22.4
7.52125e-05	36.8
0.000888076	44
0.0095363	46.8
