Adsorption isotherm of Ethanol on Zeolite Na-A
DOI: 10.1016/j.micromeso.2008.01.044
Adsorbate Ethanol: InChIKey LFQSCWFLJHTTHZ-UHFFFAOYSA-N
Temperature: 378 K
Tabular data in the source: 0
pressure (bar)	uptake (molecules/unitcell)
4.35692e-10	0.8
1.49713e-09	4.4
4.67843e-09	7.2
1.60764e-08	12.4
6.07449e-08	17.6
1.72628e-07	26.8
3.3556e-07	32.8
5.93198e-07	38.8
1.26791e-06	41.6
3.27688e-06	45.6
1.36151e-05	48
7.52125e-05	50.4
0.000807644	54.4
0.00539461	55.2
0.0327688	56.4
0.21888	57.6
1.09961	59.2
