Adsorption isotherm of Water on Zeolite Na-A
DOI: 10.1016/j.micromeso.2008.01.044
Adsorbate Water: InChIKey XLYOFNOQVPJJNP-UHFFFAOYSA-N
Temperature: 378 K
Tabular data in the source: 0
pressure (bar)	uptake (molecules/unitcell)
1.27427e-08	3.01508
3.09906e-08	8.0402
8.8587e-08	13.0653
3.22678e-07	19.0955
1e-06	24.1206
3.09906e-06	30.1508
1.12883e-05	37.1859
3.22678e-05	52.2613
0.000108415	68.3417
0.000309906	85.4271
0.00104121	105.528
0.00523962	135.678
0.0127427	146.734
0.143845	171.859
1	190.955
