Adsorption isotherm of Methanol on Zeolite Na-A
DOI: 10.1016/j.micromeso.2008.01.044
Adsorbate Methanol: InChIKey OKKJLVBELUTLKV-UHFFFAOYSA-N
Temperature: 378 K
Tabular data in the source: 0
pressure (bar)	uptake (molecules/unitcell)
1.17538e-08	1.19649
1.12883e-07	2.34737
3.49832e-07	4.72281
1.08415e-06	7.09825
3.94903e-06	12.6702
1.12883e-05	17.0474
1.98724e-05	23.0351
3.22678e-05	28.2246
6.15843e-05	33.8105
0.0001	39
0.00104121	51.7491
0.01	59.3
0.0394903	63.2702
0.169071	68.4386
0.445782	71.6175
1.08415	74.3982
