Adsorption isotherm of Water on Zeolite Na-A
DOI: 10.1016/j.micromeso.2008.01.044
Adsorbate Water: InChIKey XLYOFNOQVPJJNP-UHFFFAOYSA-N
Temperature: 378 K
Tabular data in the source: 0
pressure (bar)	uptake (molecules/unitcell)
9.60417e-06	0.627193
3.22678e-05	6.5614
0.0001	10.5
0.00036425	25.4298
0.00104121	37.3728
0.00169071	57.3465
0.00215442	70.3333
0.00322678	84.3114
0.00411188	97.2982
0.00568054	111.281
0.00850785	128.259
0.0108415	138.246
0.0394903	161.175
0.0960417	176.127
0.349832	189.057
1	197
