Adsorption isotherm of Methanol on Zeolite Na-A
DOI: 10.1016/j.micromeso.2008.01.044
Adsorbate Methanol: InChIKey OKKJLVBELUTLKV-UHFFFAOYSA-N
Temperature: 378 K
Tabular data in the source: 0
pressure (bar)	uptake (molecules/unitcell)
1.17538e-08	1.19649
3.94903e-08	1.57018
1.04121e-07	2.34912
2.33572e-07	3.53158
4.11188e-07	5.1193
1.62379e-06	10.6895
2.63663e-06	13.8789
4.28134e-06	17.0684
7.53685e-06	20.2561
1.32681e-05	25.4439
1.69071e-05	29.0386
2.33572e-05	33.0316
2.97632e-05	36.6263
4.11188e-05	40.6193
5.23962e-05	44.214
6.67667e-05	47.8088
0.000149775	57.3912
0.000224326	60.9825
0.000309906	64.5754
0.000464162	68.1667
0.0006952	71.3579
0.00112883	76.5474
0.00233572	79.3316
0.00445779	82.1175
0.0162379	86.4895
0.036425	87.6719
0.32268	91.2246
1	94.4
