Adsorption isotherm of Nitrogen on PCN-777
DOI: 10.1002/anie.201409334
Article source: Figure 4a
Adsorbate Nitrogen: InChIKey IJGRMHOSHXDMSA-UHFFFAOYSA-N
Kind: experiment
Temperature: 77 K
Tabular data in the source: 0
pressure (bar)	uptake (cm3(STP)/g)
0	61.4699
0.002879	120.229
0.005757	173.643
0.010075	221.693
0.018711	261.669
0.023028	280.32
0.035982	306.875
0.047496	322.759
0.066207	346.566
0.087796	370.334
0.094992	380.93
0.109385	394.103
0.126656	415.256
0.149684	436.333
0.168395	454.795
0.188546	473.237
0.208695	494.352
0.228845	515.467
0.246116	531.275
0.269145	555.025
0.289294	578.813
0.303687	610.694
0.310883	618.617
0.318079	629.213
0.322398	637.174
0.329594	645.096
0.331034	650.423
0.333911	623.659
0.33679	661.037
0.339669	666.344
0.345426	679.632
0.348305	692.957
0.352622	655.483
0.355501	826.492
0.356941	834.491
0.358379	928.013
0.359819	893.25
0.361258	1366.28
0.365576	724.8
0.369894	754.142
0.371333	989.312
0.372773	1096.2
0.374211	1382.15
0.375651	1122.89
0.37709	1157.61
0.37853	1219.06
0.381408	1253.77
0.382847	1275.13
0.384286	1304.51
0.385726	1390.01
0.388605	1341.87
0.394362	1352.48
0.401558	1363.08
0.402997	1395.13
0.41595	1370.91
0.418829	1400.27
0.433222	1400.08
0.434661	1381.35
0.451933	1405.18
0.45625	1389.08
0.466325	1402.31
0.485036	1391.38
0.490793	1410.01
0.502308	1399.17
0.503746	1409.84
0.51814	1414.99
0.521018	1401.59
0.53541	1414.77
0.538289	1406.71
0.552682	1414.54
0.559878	1411.77
0.567074	1419.69
0.577149	1419.56
0.580028	1414.18
0.590103	1419.39
0.601617	1416.56
0.611692	1421.78
0.620328	1418.99
0.633281	1426.84
0.640477	1421.4
0.654871	1426.55
0.672141	1423.65
0.689413	1426.1
0.690852	1426.08
0.706684	1425.87
0.712441	1423.12
0.726835	1428.28
0.729712	1428.24
0.752741	1433.28
0.757059	1427.88
0.77577	1438.32
0.787284	1435.5
0.79448	1438.07
0.807434	1437.9
0.821827	1437.71
0.823266	1440.37
0.844855	1440.08
0.847734	1440.04
0.860687	1442.55
0.870762	1439.74
0.879398	1442.3
0.880836	1439.61
0.899547	1447.38
0.903865	1447.32
0.916819	1444.48
0.924015	1447.06
0.936968	1446.89
0.938407	1446.87
0.952801	1446.68
0.962875	1446.54
