Adsorption isotherm of N-propane on CaIICuII6L3(OH)2(H2O)}*32H2O, L = (S,S)-alamox
DOI: 10.1039/c7ta01179b
Article source: Figure 5
Adsorbate N-propane: InChIKey ATUOYWHBWRKTHZ-UHFFFAOYSA-N
Kind: experiment
Temperature: 273 K
Tabular data in the source: 0
pressure (bar)	uptake (cm3(STP)/g)
0.002426	3.738
0.006426	15.675
0.008239	10.736
0.009399	21.186
0.011599	26.678
0.016679	32.379
0.019065	37.776
0.022998	43.229
0.026731	48.779
0.032571	54.213
0.03937	59.629
0.048449	65.502
0.062542	70.135
0.074354	73.186
0.083873	76.37
0.092312	75.645
0.095152	77.247
0.107005	78.409
0.107991	77.094
0.117737	77.856
0.118857	79.172
0.129763	80.144
0.143162	79.857
0.146015	80.772
0.162867	81.096
0.16304	81.935
0.183318	82.869
0.197677	82.887
0.201703	82.391
0.212969	84.05
0.231154	84.183
0.236901	83.763
0.245886	84.621
0.257365	85.326
0.267885	85.631
0.275751	84.753
0.28091	85.401
0.295842	85.782
0.306761	85.343
0.312668	86.468
0.32396	86.563
0.337946	86.543
0.344465	85.742
0.349998	86.752
0.36665	87.038
0.377956	86.237
0.382529	87.705
0.399181	87.666
0.412593	87.246
0.428085	87.76
0.44111	87.912
0.460829	87.95
0.469615	88.598
0.479201	88.292
0.490293	88.807
0.498532	88.387
0.515944	88.615
0.534516	88.805
0.556728	88.957
0.577393	89.127
0.592325	89.394
0.604764	89.374
0.619122	89.45
0.629842	89.774
0.6442	89.964
0.656826	89.944
0.667172	89.83
0.680571	90.058
0.702769	90.324
0.721527	90.438
0.733593	90.418
0.754645	90.36
0.765564	90.417
0.779723	90.779
0.793695	90.874
0.80768	90.663
0.827012	90.796
0.844051	90.795
0.861276	91.119
0.884434	90.985
0.895153	91.194
0.912765	91.27
0.93019	91.269
0.948562	91.535
0.967707	91.801
0.989519	92.678
