Adsorption isotherm of Ethane on CaIICuII6L3(OH)2(H2O)}*13H2O, L = (S,S)-valmox
DOI: 10.1039/c7ta01179b
Article source: Figure 5
Adsorbate Ethane: InChIKey OTMSDBZUPAUEDD-UHFFFAOYSA-N
Kind: experiment
Temperature: 273 K
Tabular data in the source: 0
pressure (bar)	uptake (cm3(STP)/g)
0.003266	1.064
0.011319	1.876
0.021118	3.329
0.025531	4.072
0.049316	6.061
0.056222	6.712
0.073301	7.889
0.096125	9.661
0.101298	9.832
0.12739	11.568
0.190691	15.063
0.199504	15.485
0.256859	18.167
0.267591	18.578
0.32264	20.803
0.331266	21.111
0.394941	23.289
0.461482	25.374
0.525343	27.026
0.591698	28.551
0.655359	29.858
0.723247	31.108
0.789975	32.256
0.854023	33.289
0.921138	34.229
0.968307	34.91
0.987105	34.93
