Adsorption isotherm of Methane on CaIICuII6L3(OH)2(H2O)}*11H2O, L = (S,S)-leumox
DOI: 10.1039/c7ta01179b
Article source: Figure 5
Adsorbate Methane: InChIKey VNWKTOKETHGBQD-UHFFFAOYSA-N
Kind: experiment
Temperature: 273 K
Tabular data in the source: 0
pressure (bar)	uptake (cm3(STP)/g)
0.010746	0.1712
0.027624	0.1765
0.051982	0.3188
0.063501	0.4271
0.079607	0.4153
0.104738	0.4833
0.132749	0.637
0.19681	0.9155
0.262232	1.2626
0.32784	1.5925
0.395354	1.8424
0.460202	2.1438
0.52561	2.4394
0.591791	2.7122
0.656626	2.9278
0.723007	3.1606
0.790135	3.4048
0.852863	3.6948
0.920004	3.899
0.964894	4.1094
0.988679	4.1203
