Adsorption isotherm of Nitrogen on CaIICuII6L3(OH)2(H2O)}*13H2O, L = (S,S)-valmox
DOI: 10.1039/c7ta01179b
Article source: Figure 4
Adsorbate Nitrogen: InChIKey IJGRMHOSHXDMSA-UHFFFAOYSA-N
Kind: experiment
Temperature: 77 K
Tabular data in the source: 0
pressure (bar)	uptake (cm3(STP)/g)
-0.000152	78.989
-2e-05	54.623
0.000111	27.622
0.004023	104.936
0.011146	113.54
0.016647	122.891
0.026891	126.315
0.037429	129.87
0.047369	131.625
0.049	135.62
0.065323	133.819
0.072294	135.003
0.074675	139.569
0.085648	136.319
0.09649	139.304
0.103167	144.352
0.105832	139.917
0.119044	141.672
0.125874	145.404
0.144861	145.007
0.155105	148.694
0.170091	146.278
0.178987	149.965
0.181662	146.715
0.191014	148.91
0.199616	152.07
0.215646	150.927
0.226923	154.131
0.239386	151.276
0.248292	155.183
0.266986	153.688
0.275001	157.068
0.298001	155.178
0.304972	158.207
0.325297	156.844
0.331083	159.302
0.352006	158.158
0.356758	161.056
0.377236	158.332
0.381836	162.985
0.402759	159.954
0.406761	164.08
0.427684	161.181
0.430805	164.561
0.450979	162.54
0.457068	164.954
0.47635	163.284
0.481406	166.883
0.501285	164.247
0.507071	168.33
0.527994	164.772
0.531561	168.81
0.553072	165.647
0.559455	170.081
0.580672	167.357
0.587491	170.034
0.606337	168.057
0.609904	171.174
0.630827	169.46
0.638396	172.796
0.657829	169.633
0.660798	172.925
0.679644	170.465
0.686028	174.46
0.705907	171.78
0.708278	174.809
0.730833	172.787
0.734845	175.728
0.756356	175.199
0.763185	178.096
0.782325	176.558
0.789742	179.938
0.807109	178.575
0.814819	182.438
0.832034	180.636
0.838417	184.104
0.857557	184.015
0.870324	187.438
0.883233	186.866
0.887681	190.597
0.907864	191.474
0.916477	196.566
0.936954	197.661
0.940217	201.525
0.944523	205.124
0.960542	205.123
0.968415	215.878
0.976733	226.371
0.98029	214.385
0.9895	235.414
0.99024	224.569
0.991435	240.374
0.999308	257.408
