Adsorption isotherm of Ethane on CaIICuII6L3(OH)2(H2O)}*11H2O, L = (S,S)-leumox
DOI: 10.1039/c7ta01179b
Article source: Figure 5
Adsorbate Ethane: InChIKey OTMSDBZUPAUEDD-UHFFFAOYSA-N
Kind: experiment
Temperature: 273 K
Tabular data in the source: 0
pressure (bar)	uptake (cm3(STP)/g)
0.005	0.3027
0.014012	0.834
0.027078	1.5708
0.027278	2.0508
0.050303	2.8103
0.058369	3.3472
0.076994	4.1182
0.082367	4.3867
0.104831	5.1119
0.130549	6.1627
0.139762	6.3739
0.199264	8.1554
0.263925	9.754
0.326866	11.0611
0.395181	12.231
0.462135	13.2237
0.52565	14.0908
0.592418	14.9579
0.657453	15.6135
0.72402	16.2292
0.790588	16.8448
0.855823	17.3976
0.919698	17.8247
0.96824	18.2236
0.987985	18.2403
