Adsorption isotherm of Methane on CaIICuII6L3(OH)2(H2O)}*13H2O, L = (S,S)-valmox
DOI: 10.1039/c7ta01179b
Article source: Figure 5
Adsorbate Methane: InChIKey VNWKTOKETHGBQD-UHFFFAOYSA-N
Kind: experiment
Temperature: 273 K
Tabular data in the source: 0
pressure (bar)	uptake (cm3(STP)/g)
0.005946	0.251
0.023198	0.443
0.048703	0.646
0.061355	0.69
0.07498	0.837
0.101245	1.131
0.129043	1.345
0.195397	2.045
0.261738	2.494
0.327506	3.115
0.393474	3.735
0.459242	4.196
0.524824	4.633
0.590778	5.196
0.656746	5.657
0.723274	6.186
0.788282	6.52
0.852317	6.974
0.920924	7.369
0.966334	7.68
0.988559	7.792
