Adsorption isotherm of Ethane on CaIICuII6L3(OH)2(H2O)}*32H2O, L = (S,S)-alamox
DOI: 10.1039/c7ta01179b
Article source: Figure 5
Adsorbate Ethane: InChIKey OTMSDBZUPAUEDD-UHFFFAOYSA-N
Kind: experiment
Temperature: 273 K
Tabular data in the source: 0
pressure (bar)	uptake (cm3(STP)/g)
0.008519	5.625
0.011746	7.303
0.019918	10.373
0.027344	13.004
0.033797	15.884
0.040277	17.981
0.052289	20.669
0.059528	22.538
0.070208	25.36
0.076127	26.351
0.081087	27.362
0.099219	30.812
0.108391	31.746
0.126323	35.102
0.133202	35.884
0.152294	38.762
0.166253	40.097
0.197397	43.757
0.20809	45.244
0.246326	48.465
0.260459	50.104
0.273271	51.21
0.32092	54.702
0.334399	55.759
0.388141	59
0.40114	59.961
0.455136	62.65
0.464522	63.442
0.518037	65.362
0.530076	66.443
0.583365	67.834
0.595404	68.939
0.652786	70.186
0.662186	70.859
0.714261	72.346
0.726074	72.995
0.781056	73.545
0.789962	74.674
0.845184	75.152
0.858436	75.897
0.912938	76.351
0.919204	77.024
0.971053	77.79
0.986972	77.79
