Adsorption isotherm of Nitrogen on CaIICuII6L3(OH)2(H2O)}*32H2O, L = (S,S)-alamox
DOI: 10.1039/c7ta01179b
Article source: Figure 4
Adsorbate Nitrogen: InChIKey IJGRMHOSHXDMSA-UHFFFAOYSA-N
Kind: experiment
Temperature: 77 K
Tabular data in the source: 0
pressure (bar)	uptake (cm3(STP)/g)
-0.001956	47.159
2e-05	119.205
0.000142	71.745
0.000162	96.814
0.000486	144.669
0.001398	170.528
0.002746	195.597
0.007812	217.812
0.011227	222.729
0.013304	225.626
0.018056	229.182
0.024733	232.43
0.030518	236.952
0.038685	239.19
0.046102	242.087
0.055008	243.359
0.067917	245.026
0.080532	247.089
0.101313	248.755
0.114809	249.895
0.126238	251.299
0.140626	251.561
0.151316	253.316
0.16541	253.096
0.175947	253.885
0.190781	254.674
0.201025	255.024
0.214227	255.462
0.22744	256.119
0.241828	256.249
0.253105	257.127
0.275659	257.388
0.300889	258
0.327891	258.7
0.353567	259.532
0.378786	259.793
0.404897	260.449
0.429528	260.798
0.454606	261.059
0.481315	261.627
0.505652	262.24
0.531024	262.325
0.558624	262.542
0.582658	263.067
0.609225	263.416
0.63489	263.808
0.660271	264.552
0.684599	264.462
0.710416	264.635
0.735352	264.984
0.750631	265.334
0.763094	265.596
0.783125	266.121
0.801232	266.559
0.812357	266.426
0.834172	266.6
0.854497	267.607
0.862218	267.563
0.885806	268.219
0.908513	268.788
0.912221	269.314
0.93433	269.664
0.950359	271.682
0.964453	271.988
0.973207	272.953
0.979439	276.289
0.997251	278.658
1.00333	284.628
