Adsorption isotherm of N-Butane on CaIICuII6L3(OH)2(H2O)}*32H2O, L = (S,S)-alamox
DOI: 10.1039/c7ta01179b
Article source: Figure 5
Adsorbate N-Butane: InChIKey IJDNQMDRQITEOD-UHFFFAOYSA-N
Kind: experiment
Temperature: 273 K
Tabular data in the source: 0
pressure (bar)	uptake (cm3(STP)/g)
0.000107	4.71
0.00192	11.022
0.004106	17.048
0.004253	30.663
0.004386	23.589
0.007026	36.308
0.007093	44.088
0.008146	49.714
0.009186	55.835
0.013666	62.471
0.026198	68.039
0.049303	72.004
0.059422	73.186
0.073967	73.948
0.085633	74.329
0.090419	74.672
0.106098	75.415
0.119683	76.178
0.129256	75.834
0.136909	76.406
0.150481	77.302
0.161587	77.072
0.170959	77.663
0.185505	77.834
0.193557	77.643
0.202157	78.329
0.219182	78.786
0.228381	78.557
0.236034	79.129
0.254592	79.433
0.267231	79.223
0.279097	79.547
0.292683	79.909
0.299202	79.546
0.303975	79.985
0.316801	80.442
0.333066	80.575
0.340919	80.365
0.349145	80.593
0.360437	80.802
0.371729	80.707
0.379769	81.011
0.395088	81.354
0.40638	80.877
0.412499	81.258
0.425698	81.868
0.441217	81.619
0.460162	81.828
0.471081	81.447
0.480454	82.037
0.496333	82.475
0.508598	82.227
0.518544	82.703
0.533103	82.054
0.538822	82.989
0.558167	82.873
0.567367	82.187
0.577872	83.216
0.590525	82.453
0.603337	83.539
0.619429	83.005
0.632055	83.672
0.642214	83.061
0.657506	83.918
0.670532	83.498
0.683544	84.28
0.701929	83.478
0.710142	84.489
0.722981	83.782
0.73502	84.945
0.749778	84.334
0.766804	85.058
0.779256	84.772
0.792641	85.61
0.805667	85.229
0.822506	85.686
0.84529	85.723
0.850063	86.314
0.869968	86.294
0.879341	86.599
0.910165	87.017
0.92739	87.474
0.944989	88.16
0.963921	89.056
0.975573	90.676
0.986666	91.171
0.993732	92.353
