Adsorption isotherm of N-propane on CaIICuII6L3(OH)2(H2O)}*11H2O, L = (S,S)-leumox
DOI: 10.1039/c7ta01179b
Article source: Figure 5
Adsorbate N-propane: InChIKey ATUOYWHBWRKTHZ-UHFFFAOYSA-N
Kind: experiment
Temperature: 273 K
Tabular data in the source: 0
pressure (bar)	uptake (cm3(STP)/g)
0.004066	2.1485
0.014265	4.0397
0.025251	6.7366
0.052556	9.8731
0.079447	11.6496
0.103831	12.9462
0.131083	14.0656
0.197677	15.8126
0.262152	17.1026
0.328346	18.1582
0.394928	19.0195
0.462269	19.8066
0.52577	20.4337
0.592338	21.015
0.657293	21.5454
0.721087	21.7239
0.724487	21.947
0.785869	22.104
0.793121	22.3558
0.85233	22.5129
0.857903	22.7287
0.918311	22.8569
0.921951	23.1088
0.969294	23.3721
0.988092	23.2231
