Adsorption isotherm of N-propane on CaIICuII6L3(OH)2(H2O)}*13H2O, L = (S,S)-valmox
DOI: 10.1039/c7ta01179b
Article source: Figure 5
Adsorbate N-propane: InChIKey ATUOYWHBWRKTHZ-UHFFFAOYSA-N
Kind: experiment
Temperature: 273 K
Tabular data in the source: 0
pressure (bar)	uptake (cm3(STP)/g)
0.00444	5.311
0.00484	7.555
0.013679	10.324
0.022518	13.552
0.027318	14.49
0.032691	15.496
0.03693	17.442
0.046716	19.433
0.052862	20.29
0.076087	23.836
0.100632	25.974
0.112724	26.853
0.125576	27.756
0.131336	28.145
0.194811	31.215
0.262072	33.538
0.32924	35.346
0.394474	36.952
0.460189	38.328
0.525423	39.358
0.591618	40.502
0.656373	41.157
0.723047	41.811
0.788282	42.495
0.85013	43.02
0.920431	43.587
0.965601	43.927
0.985652	43.881
