Adsorption isotherm of Nitrogen on CaIICuII6L3(OH)2(H2O)}*11H2O, L = (S,S)-leumox
DOI: 10.1039/c7ta01179b
Article source: Figure 4
Adsorbate Nitrogen: InChIKey IJGRMHOSHXDMSA-UHFFFAOYSA-N
Kind: experiment
Temperature: 77 K
Tabular data in the source: 0
pressure (bar)	uptake (cm3(STP)/g)
-0.001064	48.564
0.000111	23.495
0.005026	61.603
0.008005	64.324
0.01453	66.431
0.024024	67.704
0.028482	70.162
0.035311	71.61
0.045251	73.058
0.055788	74.593
0.058757	78.501
0.070774	75.163
0.077005	80.475
0.08887	75.951
0.103268	82.272
0.107129	78.013
0.126421	83.587
0.138144	80.03
0.153129	85.341
0.164853	81.74
0.175684	86.349
0.191115	82.879
0.202393	87.312
0.216193	83.974
0.227622	88.495
0.24201	84.498
0.254473	89.327
0.259073	85.199
0.270796	85.33
0.28029	89.368
0.301953	85.459
0.303442	89.849
0.329401	85.807
0.330151	89.978
0.355522	90.151
0.355968	86.859
0.379262	87.866
0.382089	91.51
0.399891	88.172
0.405971	93
0.425557	89.003
0.432386	93.086
0.450482	89.221
0.455538	93.303
0.476603	89.965
0.482683	94.003
0.503758	89.874
0.507618	94.396
0.527498	90.706
0.532989	94.613
0.554794	91.406
0.558067	95.313
0.580915	92.677
0.584928	96.013
0.605699	93.245
0.610299	96.318
0.631364	93.55
0.635964	96.184
0.65555	93.899
0.661193	97.104
0.678996	96.883
0.685967	93.984
0.707184	95.694
0.726334	98.678
0.735382	96.482
0.759416	97.314
0.779265	100.048
0.785243	97.171
0.8103	98.607
0.82787	101.703
0.835347	99.158
0.857405	99.377
0.862644	102.142
0.883952	102.915
0.910134	104.129
0.914622	107.337
0.934431	108.441
0.943044	114.968
0.962852	112.532
0.964727	123.595
0.972954	119.612
0.980442	135.431
0.986045	128.903
0.990169	145.387
0.995032	139.523
1.00252	157.002
