Adsorption isotherm of N-Butane on CaIICuII6L3(OH)2(H2O)}*11H2O, L = (S,S)-leumox
DOI: 10.1039/c7ta01179b
Article source: Figure 5
Adsorbate N-Butane: InChIKey IJDNQMDRQITEOD-UHFFFAOYSA-N
Kind: experiment
Temperature: 273 K
Tabular data in the source: 0
pressure (bar)	uptake (cm3(STP)/g)
0.005613	2.657
0.012559	4.9311
0.018558	7.7139
0.021452	8.0909
0.027024	8.7365
0.049716	11.9531
0.054902	12.5016
0.075847	14.0154
0.103885	15.6148
0.129216	16.9056
0.196864	19.0505
0.262392	20.6617
0.3296	21.9561
0.395354	23.0345
0.461335	23.9401
0.52661	24.7234
0.591845	25.4379
0.657453	26.0364
0.718848	26.4636
0.786375	26.9249
0.790788	27.2219
0.849677	27.2891
0.85525	27.609
0.916818	27.779
0.922004	28.1789
0.967467	28.2693
0.986279	28.6232
0.999144	29.5029
