Adsorption isotherm of N-Butane on CaIICuII6L3(OH)2(H2O)}*13H2O, L = (S,S)-valmox
DOI: 10.1039/c7ta01179b
Article source: Figure 5
Adsorbate N-Butane: InChIKey IJDNQMDRQITEOD-UHFFFAOYSA-N
Kind: experiment
Temperature: 273 K
Tabular data in the source: 0
pressure (bar)	uptake (cm3(STP)/g)
0.00196	6.09
0.007719	8.585
0.009466	10.6
0.020425	15.567
0.023491	16.001
0.028291	16.825
0.030411	17.912
0.04425	22.57
0.052302	23.485
0.053836	24.263
0.0761	27.534
0.103538	30.404
0.115431	31.226
0.128669	32.346
0.197344	36.378
0.261778	39.094
0.326986	41.214
0.393141	42.934
0.460069	44.39
0.525277	45.652
0.590258	46.773
0.655706	47.491
0.723274	48.336
0.787202	49.108
0.855383	49.899
0.918391	49.963
0.918698	50.762
0.971973	52.263
0.984759	52.989
0.992678	53.842
0.999678	54.15
