Adsorption isotherm of Methane on CaIICuII6L3(OH)2(H2O)}*32H2O, L = (S,S)-alamox
DOI: 10.1039/c7ta01179b
Article source: Figure 5
Adsorbate Methane: InChIKey VNWKTOKETHGBQD-UHFFFAOYSA-N
Kind: experiment
Temperature: 273 K
Tabular data in the source: 0
pressure (bar)	uptake (cm3(STP)/g)
0.005346	0.457
0.018745	0.61
0.029264	1.2
0.052422	1.657
0.079793	2.476
0.105818	3.333
0.135082	4.305
0.198624	5.942
0.264258	7.656
0.330053	9.226
0.396274	10.737
0.462815	12.036
0.526303	13.366
0.591311	14.695
0.658146	15.873
0.723167	17.203
0.790308	18.169
0.85593	19.377
0.918978	20.198
0.97008	20.844
0.992652	21.549
