Adsorption isotherm of 1-Propanol, Toluene on Dealuminated Y-zeolites (DAY-55)
DOI: 10.1016/s0255-2701(98)00038-5
Article source: Figure 4
Adsorbate 1-Propanol: InChIKey BDERNNFJNOPAEC-UHFFFAOYSA-N
Adsorbate Toluene: InChIKey YXFVVABEGXRONW-UHFFFAOYSA-N
Kind: experiment
Temperature: 318 K
Tabular data in the source: 0
pressure (bar)	1-Propanol fraction	1-Propanol uptake (molefraction)	Toluene fraction	Toluene uptake (molefraction)	total uptake (molefraction)
0.0035	0.835	0.522	0.165	0.478	
0.0035	0.693	0.415	0.307	0.585	
0.0035	0.545	0.315	0.455	0.685	
0.0035	0.39	0.234	0.61	0.766	
0.0035	0.247	0.187	0.753	0.813	
0.0035	0.148	0.114	0.852	0.886	
