Adsorption isotherm of 1-Propanol on Dealuminated Y-zeolites (DAY-13)
DOI: 10.1016/s0255-2701(98)00038-5
Article source: Figure 3
Adsorbate 1-Propanol: InChIKey BDERNNFJNOPAEC-UHFFFAOYSA-N
Kind: experiment
Temperature: 318 K
Tabular data in the source: 0
pressure (bar)	uptake (mmol/g)
0.000564	1.01
0.0012	1.36
0.00254	1.77
0.00388	1.99
0.00558	2.08
0.0102	2.33
0.0207	2.52
