Adsorption isotherm of Toluene on Dealuminated Y-zeolites (DAY-100)
DOI: 10.1016/s0255-2701(98)00038-5
Article source: Figure 3
Adsorbate Toluene: InChIKey YXFVVABEGXRONW-UHFFFAOYSA-N
Kind: experiment
Temperature: 318 K
Tabular data in the source: 0
pressure (bar)	uptake (mmol/g)
0.000267	0.507
0.000445	0.86
0.000534	1.01
0.000979	1.35
0.00169	1.57
0.00196	1.54
0.00231	1.61
0.004	1.65
0.00632	1.68
0.0155	1.79
0.0211	1.85
