Adsorption isotherm of Toluene on Dealuminated Y-zeolites (DAY-13)
DOI: 10.1016/s0255-2701(98)00038-5
Article source: Figure 3
Adsorbate Toluene: InChIKey YXFVVABEGXRONW-UHFFFAOYSA-N
Kind: experiment
Temperature: 318 K
Tabular data in the source: 0
pressure (bar)	uptake (mmol/g)
0.000104	0.504
0.000386	1.01
0.000654	1.05
0.000837	1.23
0.00191	1.53
0.00334	1.62
0.00566	1.72
0.0105	1.76
0.021	1.89
