Adsorption isotherm of 1-Propanol, Toluene on Dealuminated Y-zeolites (DAY-55)
DOI: 10.1016/s0255-2701(98)00038-5
Article source: Figure 4
Adsorbate 1-Propanol: InChIKey BDERNNFJNOPAEC-UHFFFAOYSA-N
Adsorbate Toluene: InChIKey YXFVVABEGXRONW-UHFFFAOYSA-N
Kind: experiment
Temperature: 318 K
Tabular data in the source: 0
pressure (bar)	1-Propanol fraction	1-Propanol uptake (molefraction)	Toluene fraction	Toluene uptake (molefraction)	total uptake (molefraction)
0.0105	0.842	0.513	0.158	0.487	
0.0105	0.693	0.421	0.307	0.579	
0.0105	0.588	0.382	0.412	0.618	
0.0105	0.408	0.303	0.592	0.697	
0.0105	0.247	0.217	0.753	0.783	
0.0105	0.154	0.178	0.846	0.822	
