Adsorption isotherm of 1-Propanol, Toluene on Dealuminated Y-zeolites (DAY-100)
DOI: 10.1016/s0255-2701(98)00038-5
Article source: Figure 4
Adsorbate 1-Propanol: InChIKey BDERNNFJNOPAEC-UHFFFAOYSA-N
Adsorbate Toluene: InChIKey YXFVVABEGXRONW-UHFFFAOYSA-N
Kind: experiment
Temperature: 318 K
Tabular data in the source: 0
pressure (bar)	1-Propanol fraction	1-Propanol uptake (molefraction)	Toluene fraction	Toluene uptake (molefraction)	total uptake (molefraction)
0.0035	0.801	0.479	0.199	0.521	
0.0035	0.689	0.386	0.311	0.614	
0.0035	0.559	0.306	0.441	0.694	
0.0035	0.404	0.259	0.596	0.741	
0.0035	0.242	0.179	0.758	0.821	
0.0035	0.161	0.106	0.839	0.894	
