Adsorption isotherm of 1-Propanol, Toluene on Dealuminated Y-zeolites (DAY-13)
DOI: 10.1016/s0255-2701(98)00038-5
Article source: Figure 4
Adsorbate 1-Propanol: InChIKey BDERNNFJNOPAEC-UHFFFAOYSA-N
Adsorbate Toluene: InChIKey YXFVVABEGXRONW-UHFFFAOYSA-N
Kind: experiment
Temperature: 318 K
Tabular data in the source: 0
pressure (bar)	1-Propanol fraction	1-Propanol uptake (molefraction)	Toluene fraction	Toluene uptake (molefraction)	total uptake (molefraction)
0.0105	0.833	0.749	0.167	0.251	
0.0105	0.714	0.689	0.286	0.311	
0.0105	0.565	0.635	0.435	0.365	
0.0105	0.447	0.556	0.553	0.444	
0.0105	0.291	0.469	0.709	0.531	
0.0105	0.16	0.337	0.84	0.663	
