Adsorption isotherm of 1-Propanol on Dealuminated Y-zeolites (DAY-55)
DOI: 10.1016/s0255-2701(98)00038-5
Article source: Figure 3
Adsorbate 1-Propanol: InChIKey BDERNNFJNOPAEC-UHFFFAOYSA-N
Kind: experiment
Temperature: 318 K
Tabular data in the source: 0
pressure (bar)	uptake (mmol/g)
0.000632	0.221
0.00109	0.485
0.00253	0.904
0.00289	1.1
0.00379	1.43
0.00595	1.9
0.0103	2.36
0.0219	2.6
