Adsorption isotherm of 1-Propanol on Dealuminated Y-zeolites (DAY-100)
DOI: 10.1016/s0255-2701(98)00038-5
Article source: Figure 3
Adsorbate 1-Propanol: InChIKey BDERNNFJNOPAEC-UHFFFAOYSA-N
Kind: experiment
Temperature: 318 K
Tabular data in the source: 0
pressure (bar)	uptake (mmol/g)
0.000712	0.331
0.00116	0.529
0.00258	1.1
0.004	1.48
0.00694	2.16
0.0102	2.29
0.0208	2.65
