Adsorption isotherm of Toluene on Dealuminated Y-zeolites (DAY-55)
DOI: 10.1016/s0255-2701(98)00038-5
Article source: Figure 3
Adsorbate Toluene: InChIKey YXFVVABEGXRONW-UHFFFAOYSA-N
Kind: experiment
Temperature: 318 K
Tabular data in the source: 0
pressure (bar)	uptake (mmol/g)
0.000194	0.507
0.000385	0.926
0.000566	1.01
0.00093	1.24
0.00254	1.43
0.00308	1.46
0.0038	1.52
0.00594	1.61
0.0104	1.7
0.0209	1.76
