Adsorption isotherm of 1-Propanol, Toluene on Dealuminated Y-zeolites (DAY-100)
DOI: 10.1016/s0255-2701(98)00038-5
Article source: Figure 4
Adsorbate 1-Propanol: InChIKey BDERNNFJNOPAEC-UHFFFAOYSA-N
Adsorbate Toluene: InChIKey YXFVVABEGXRONW-UHFFFAOYSA-N
Kind: experiment
Temperature: 318 K
Tabular data in the source: 0
pressure (bar)	1-Propanol fraction	1-Propanol uptake (molefraction)	Toluene fraction	Toluene uptake (molefraction)	total uptake (molefraction)
0.0105	0.848	0.582	0.152	0.418	
0.0105	0.824	0.549	0.176	0.451	
0.0105	0.683	0.428	0.317	0.572	
0.0105	0.547	0.322	0.453	0.678	
0.0105	0.443	0.301	0.557	0.699	
0.0105	0.301	0.207	0.699	0.793	
0.0105	0.147	0.127	0.853	0.873	
