Adsorption isotherm of 1-Propanol, Toluene on Dealuminated Y-zeolites (DAY-13)
DOI: 10.1016/s0255-2701(98)00038-5
Article source: Figure 4
Adsorbate 1-Propanol: InChIKey BDERNNFJNOPAEC-UHFFFAOYSA-N
Adsorbate Toluene: InChIKey YXFVVABEGXRONW-UHFFFAOYSA-N
Kind: experiment
Temperature: 318 K
Tabular data in the source: 0
pressure (bar)	1-Propanol fraction	1-Propanol uptake (molefraction)	Toluene fraction	Toluene uptake (molefraction)	total uptake (molefraction)
0.0035	0.856	0.74	0.144	0.26	
0.0035	0.694	0.662	0.306	0.338	
0.0035	0.488	0.572	0.512	0.428	
0.0035	0.288	0.469	0.712	0.531	
0.0035	0.169	0.358	0.831	0.642	
0.0035	0.106	0.306	0.894	0.694	
