Adsorption isotherm of Methane on CTPP
DOI: 10.1016/j.ces.2016.02.007
Article source: Figure  6c
Adsorbate Methane: InChIKey VNWKTOKETHGBQD-UHFFFAOYSA-N
Kind: experiment
Temperature: 298 K
Tabular data in the source: 0
pressure (bar)	uptake (mmol/g)
0.02393	0.02109
0.04545	0.0303
0.06574	0.0411
0.09124	0.05551
0.11633	0.06969
0.13963	0.08411
0.167	0.09851
0.19079	0.11247
0.1956	0.11279
0.2167	0.12676
0.22991	0.12978
0.24147	0.13925
0.26348	0.14868
0.2686	0.15455
0.28905	0.16547
0.2964	0.16544
0.31668	0.1776
0.32997	0.18209
0.34308	0.19042
0.36215	0.19998
0.36884	0.20257
0.39149	0.21438
0.39687	0.2147
0.4183	0.22539
0.42947	0.2309
0.4443	0.23662
0.46304	0.2463
0.46997	0.25024
0.49312	0.26024
0.49621	0.26215
0.5196	0.27215
0.52873	0.27767
0.54478	0.28418
0.56312	0.29329
0.57102	0.29655
0.59467	0.30406
0.5967	0.30609
0.62018	0.31597
0.63028	0.32024
0.64642	0.3271
0.66256	0.33338
0.6717	0.33437
0.69541	0.34539
0.69671	0.34686
0.72174	0.35527
0.73029	0.36079
0.74669	0.36368
0.76265	0.37427
0.77244	0.37639
0.79673	0.38389
0.79722	0.38661
0.82216	0.39423
0.83088	0.4002
0.84858	0.40422
0.86292	0.41141
0.87286	0.41478
0.89537	0.42184
0.89691	0.42274
0.92275	0.43228
0.93164	0.43598
0.94517	0.44041
0.94615	0.4408
0.97452	0.45045
0.98716	0.45392
0.99955	0.45829
