Adsorption isotherm of Nitrogen on CTPP
DOI: 10.1016/j.ces.2016.02.007
Article source: Figure  2
Adsorbate Nitrogen: InChIKey IJGRMHOSHXDMSA-UHFFFAOYSA-N
Kind: experiment
Temperature: 77 K
Tabular data in the source: 0
pressure (bar)	uptake (mmol/g)
0.009981	55.42
0.010102	84.71
0.010214	65.79
0.010325	23.38
0.010447	35.08
0.010568	89.56
0.010568	91.35
0.010578	93.25
0.010822	101.39
0.010822	101.5
0.010933	73.32
0.014023	128.33
0.015452	142.86
0.020792	157.72
0.052253	191.26
0.068394	200.19
0.087494	206.48
0.105185	211.86
0.110768	259.86
0.12239	215.81
0.147327	268.88
0.156456	224.43
0.186843	276.78
0.190035	232.03
0.221851	251.1
0.223867	241.46
0.258632	242.75
0.260537	289.33
0.292819	252.08
0.29674	259.73
0.309548	252.98
0.327229	254.9
0.335305	300.97
0.360464	259.55
0.373281	306.73
0.394408	266.95
0.408887	311.79
0.428463	270.99
0.44734	318.67
0.462285	275.95
0.484485	327.8
0.496351	281.11
0.521631	334.07
0.531125	287.18
0.559608	339.84
0.563874	292.95
0.596642	346.11
0.597818	345.35
0.633312	352.8
0.650273	346.38
0.653729	356.03
0.691462	363.73
0.694188	329.66
0.728962	371.94
0.742844	345.69
0.766949	380.76
0.778804	362.24
0.803852	373.92
0.804328	375.54
0.837563	393.62
0.843733	406.53
0.876846	410.98
0.884324	426.23
0.921348	441.76
0.928117	457.72
0.951503	481.8
0.963854	514.44
0.977269	543.31
0.989135	585.51
1.00398	630.14
