Adsorption isotherm of Carbon Dioxide on CTPP
DOI: 10.1016/j.ces.2016.02.007
Article source: Figure  6a
Adsorbate Carbon Dioxide: InChIKey CURLTUGMZLYLDI-UHFFFAOYSA-N
Kind: experiment
Temperature: 298 K
Tabular data in the source: 0
pressure (bar)	uptake (mmol/g)
0.00792	0.00165
0.00874	0.05605
0.009	0.05409
0.02276	0.07916
0.03285	0.12321
0.041	0.15611
0.05074	0.20629
0.06156	0.24699
0.07055	0.35018
0.07276	0.28713
0.0898	0.33283
0.10246	0.36962
0.12775	0.53637
0.15381	0.51677
0.18604	0.70415
0.20919	0.66057
0.24373	0.84626
0.26104	0.7854
0.30265	0.9733
0.31253	0.89517
0.35973	1.11709
0.36658	1.00939
0.41926	1.12095
0.42038	1.11636
0.47212	1.20995
0.4766	1.32599
0.52374	1.29908
0.53418	1.41621
0.57827	1.39433
0.59177	1.50198
0.63111	1.47843
0.65105	1.60391
0.68236	1.5631
0.70852	1.68075
0.73678	1.6405
0.76683	1.77711
0.78865	1.71511
0.80579	1.81661
0.84246	1.79586
0.86363	1.87503
0.89481	1.86713
0.92292	1.93568
0.94594	1.93394
1.00061	2.00521
