Adsorption isotherm of Methane on CTPP
DOI: 10.1016/j.ces.2016.02.007
Article source: Figure  6c
Adsorbate Methane: InChIKey VNWKTOKETHGBQD-UHFFFAOYSA-N
Kind: experiment
Temperature: 273 K
Tabular data in the source: 0
pressure (bar)	uptake (mmol/g)
0.02115	0.10746
0.03888	0.18346
0.06401	0.2685
0.0892	0.33328
0.11408	0.39058
0.13956	0.43974
0.16416	0.48392
0.17907	0.51715
0.1882	0.5238
0.2133	0.56016
0.23981	0.5929
0.24493	0.60092
0.26412	0.62327
0.27705	0.63987
0.29113	0.6525
0.31122	0.67643
0.31757	0.68015
0.34002	0.70419
0.34523	0.70994
0.36697	0.72798
0.3786	0.74141
0.3922	0.74896
0.41123	0.77232
0.41907	0.77139
0.44014	0.7908
0.44463	0.79203
0.46751	0.81029
0.47787	0.81195
0.49218	0.82866
0.51101	0.83539
0.51775	0.84556
0.54357	0.86268
0.56809	0.87766
0.57762	0.88544
0.59326	0.89297
0.61101	0.90763
0.62154	0.90839
0.64255	0.92032
0.64367	0.93039
0.66895	0.93563
0.67773	0.94613
0.69494	0.95037
0.71011	0.95474
0.72012	0.96184
0.74342	0.97591
0.76958	0.98647
0.777	0.99131
0.79542	0.99827
0.81162	1.01022
0.82077	1.00928
0.84421	1.02834
0.84579	1.01815
0.86942	1.03097
0.87773	1.03548
0.89673	1.04198
0.91048	1.05642
0.92158	1.05322
0.94496	1.06967
0.94792	1.06174
0.97245	1.07298
0.98744	1.08063
0.99764	1.08207
