Adsorption isotherm of Nitrogen on CTPP
DOI: 10.1016/j.ces.2016.02.007
Article source: Figure  6a
Adsorbate Nitrogen: InChIKey IJGRMHOSHXDMSA-UHFFFAOYSA-N
Kind: experiment
Temperature: 298 K
Tabular data in the source: 0
pressure (bar)	uptake (mmol/g)
0.00938	0.00109
0.06662	0.00149
0.10997	0.00639
0.13664	0.00743
0.16246	0.0068
0.21495	0.01167
0.26732	0.01488
0.31981	0.02421
0.37193	0.02463
0.39873	0.02455
0.42308	0.02504
0.4774	0.0288
0.52879	0.03367
0.58165	0.03409
0.63451	0.03673
0.66008	0.03777
0.68712	0.04104
0.73949	0.0409
0.79088	0.04466
0.84446	0.05065
0.89756	0.05385
0.92168	0.05322
0.9492	0.05482
1.00206	0.05969
