Adsorption isotherm of Carbon Dioxide on CTPP
DOI: 10.1016/j.ces.2016.02.007
Article source: Figure  6a
Adsorbate Carbon Dioxide: InChIKey CURLTUGMZLYLDI-UHFFFAOYSA-N
Kind: experiment
Temperature: 273 K
Tabular data in the source: 0
pressure (bar)	uptake (mmol/g)
0.00863	0.05465
0.0115	0.18869
0.01226	0.17571
0.02442	0.23036
0.02963	0.35644
0.043	0.45571
0.05175	0.52878
0.06074	0.61802
0.06921	0.85177
0.07132	0.69387
0.08153	0.76079
0.09284	0.82548
0.10257	0.90301
0.12809	1.14452
0.15244	1.17402
0.18537	1.46796
0.20827	1.43721
0.24401	1.72166
0.26108	1.65187
0.30095	1.95639
0.31316	1.83695
0.35985	2.14369
0.36512	2.00698
0.41791	2.2897
0.41793	2.28985
0.47209	2.31577
0.47596	2.46027
0.52297	2.45679
0.53438	2.60461
0.57883	2.59388
0.59195	2.73333
0.6291	2.71258
0.65087	2.86819
0.68363	2.84131
0.70857	2.98519
0.73561	2.93992
0.76627	3.07876
0.78661	3.05695
0.80449	3.14672
0.84103	3.17061
0.86365	3.28716
0.89373	3.27815
0.92221	3.36734
0.94851	3.38344
1.00135	3.46866
