Adsorption isotherm of Nitrogen on CTPP
DOI: 10.1016/j.ces.2016.02.007
Article source: Figure  6a
Adsorbate Nitrogen: InChIKey IJGRMHOSHXDMSA-UHFFFAOYSA-N
Kind: experiment
Temperature: 273 K
Tabular data in the source: 0
pressure (bar)	uptake (mmol/g)
0.00792	0.00165
0.02363	0.00384
0.03459	0.00939
0.06929	0.01375
0.10011	0.01702
0.13116	0.02139
0.19631	0.02902
0.2594	0.04056
0.38825	0.05415
0.4193	0.05797
0.45231	0.06123
0.51575	0.07109
0.64509	0.08635
0.77333	0.10218
0.90327	0.11911
0.96404	0.12508
0.99899	0.13502
