Adsorption isotherm of Nitrogen on CTPP
DOI: 10.1016/j.ces.2016.02.007
Article source: Figure  6c
Adsorbate Nitrogen: InChIKey IJGRMHOSHXDMSA-UHFFFAOYSA-N
Kind: experiment
Temperature: 298 K
Tabular data in the source: 0
pressure (bar)	uptake (mmol/g)
0.01107	0.00902
0.06672	0.0102
0.11095	0.01165
0.13576	0.01145
0.16333	0.01408
0.21482	0.01652
0.26875	0.02065
0.32048	0.02332
0.37229	0.02802
0.39913	0.02975
0.42418	0.03035
0.47811	0.03403
0.53074	0.03691
0.58304	0.04105
0.63591	0.04337
0.66129	0.04431
0.68797	0.04604
0.73994	0.04983
0.79216	0.05295
0.8465	0.05685
0.89815	0.05861
0.92197	0.06035
0.94996	0.06128
1.00201	0.06508
