Adsorption isotherm of Nitrogen on CTPP
DOI: 10.1016/j.ces.2016.02.007
Article source: Figure  6c
Adsorbate Nitrogen: InChIKey IJGRMHOSHXDMSA-UHFFFAOYSA-N
Kind: experiment
Temperature: 273 K
Tabular data in the source: 0
pressure (bar)	uptake (mmol/g)
0.01009	0.01072
0.026	0.01146
0.03791	0.01346
0.07062	0.01811
0.1026	0.01903
0.13344	0.0238
0.19862	0.03118
0.26159	0.04116
0.38917	0.05864
0.42123	0.06329
0.4541	0.06726
0.5165	0.07646
0.64637	0.09359
0.77502	0.10994
0.90334	0.12368
0.96493	0.13243
1.00164	0.13559
