Adsorption isotherm of Carbon monoxide on Zeolite 5A
DOI: 10.1021/acs.jced.6b00312
Article source: Figure 6
Adsorbate Carbon monoxide: InChIKey UGFAIRIUMAVXCW-UHFFFAOYSA-N
Kind: experiment
Temperature: 308 K
Tabular data in the source: 0
pressure (bar)	uptake (mmol/g)
1.9505	0.144867
4.5295	0.212542
9.426	0.290005
12.5405	0.3111
15.8598	0.33715
19.2041	0.353055
