Adsorption isotherm of Carbon Dioxide, Hydrogen, Carbon monoxide, Methane on Zeolite 5A
DOI: 10.1021/acs.jced.6b00312
Article source: Figure 6
Adsorbate Carbon Dioxide: InChIKey CURLTUGMZLYLDI-UHFFFAOYSA-N
Adsorbate Hydrogen: InChIKey UFHFLCQGNIYNRP-UHFFFAOYSA-N
Adsorbate Carbon monoxide: InChIKey UGFAIRIUMAVXCW-UHFFFAOYSA-N
Adsorbate Methane: InChIKey VNWKTOKETHGBQD-UHFFFAOYSA-N
Kind: experiment
Temperature: 308 K
Tabular data in the source: 0
pressure (bar)	Carbon Dioxide fraction	Carbon Dioxide uptake (mmol/g)	Hydrogen fraction	Hydrogen uptake (mmol/g)	Carbon monoxide fraction	Carbon monoxide uptake (mmol/g)	Methane fraction	Methane uptake (mmol/g)	total uptake (mmol/g)
1.97045	0.165	0.54784	0.755	0.01978	0.045	0.144867	0.035	0.033233	
4.55105	0.165	0.86202	0.755	0.0372	0.045	0.212542	0.035	0.061485	
9.46515	0.165	1.19134	0.755	0.05156	0.045	0.290005	0.035	0.096111	
12.5785	0.165	1.32307	0.755	0.05986	0.045	0.3111	0.035	0.111918	
15.9021	0.165	1.44089	0.755	0.0652	0.045	0.33715	0.035	0.121381	
19.2491	0.165	1.52836	0.755	0.0761	0.045	0.353055	0.035	0.136565	
