Adsorption isotherm of Carbon monoxide on Zeolite 5A
DOI: 10.1021/acs.jced.6b00312
Article source: Figure 4
Adsorbate Carbon monoxide: InChIKey UGFAIRIUMAVXCW-UHFFFAOYSA-N
Kind: experiment
Temperature: 318 K
Tabular data in the source: 0
pressure (bar)	uptake (mmol/g)
2.1027	0.016992
5.0018	0.044235
9.3444	0.064594
12.4584	0.07974
15.5877	0.098349
18.7383	0.111157
