Adsorption isotherm of Hydrogen on Zeolite 5A
DOI: 10.1021/acs.jced.6b00312
Article source: Figure 6
Adsorbate Hydrogen: InChIKey UFHFLCQGNIYNRP-UHFFFAOYSA-N
Kind: experiment
Temperature: 308 K
Tabular data in the source: 0
pressure (bar)	uptake (mmol/g)
1.971	0.01978
4.5519	0.0372
9.4699	0.05156
12.5736	0.05986
15.8979	0.0652
19.2488	0.0761
