Adsorption isotherm of Hydrogen on Zeolite 5A
DOI: 10.1021/acs.jced.6b00312
Article source: Figure 7
Adsorbate Hydrogen: InChIKey UFHFLCQGNIYNRP-UHFFFAOYSA-N
Kind: experiment
Temperature: 318 K
Tabular data in the source: 0
pressure (bar)	uptake (mmol/g)
2.0314	0.01713
4.6466	0.02941
9.4628	0.05238
12.8265	0.06327
15.9517	0.07008
19.4004	0.0809
