Adsorption isotherm of Methane on Zeolite 5A
DOI: 10.1021/acs.jced.6b00312
Article source: Figure 6
Adsorbate Methane: InChIKey VNWKTOKETHGBQD-UHFFFAOYSA-N
Kind: experiment
Temperature: 308 K
Tabular data in the source: 0
pressure (bar)	uptake (mmol/g)
1.9646	0.033233
4.5421	0.061485
9.4557	0.096111
12.5668	0.111918
15.8925	0.121381
19.2356	0.136565
