Adsorption isotherm of Carbon Dioxide on Zeolite 5A
DOI: 10.1021/acs.jced.6b00312
Article source: Figure 7
Adsorbate Carbon Dioxide: InChIKey CURLTUGMZLYLDI-UHFFFAOYSA-N
Kind: experiment
Temperature: 318 K
Tabular data in the source: 0
pressure (bar)	uptake (mmol/g)
2.0668	0.43998
4.6786	0.70462
9.5302	0.99984
12.8747	1.1312
16.0101	1.23886
19.4557	1.3291
