Adsorption isotherm of Carbon Dioxide on Zeolite 5A
DOI: 10.1021/acs.jced.6b00312
Article source: Figure 6
Adsorbate Carbon Dioxide: InChIKey CURLTUGMZLYLDI-UHFFFAOYSA-N
Kind: experiment
Temperature: 308 K
Tabular data in the source: 0
pressure (bar)	uptake (mmol/g)
1.9957	0.54784
4.5807	0.86202
9.509	1.19134
12.6332	1.32307
15.958	1.44089
19.3079	1.52836
