Adsorption isotherm of Methane on Zeolite 5A
DOI: 10.1021/acs.jced.6b00312
Article source: Figure 7
Adsorbate Methane: InChIKey VNWKTOKETHGBQD-UHFFFAOYSA-N
Kind: experiment
Temperature: 318 K
Tabular data in the source: 0
pressure (bar)	uptake (mmol/g)
2.0403	0.02732
4.6437	0.0525
9.4327	0.08612
12.7668	0.10344
15.9111	0.11767
19.3353	0.12571
