Adsorption isotherm of Hydrogen on Zeolite 5A
DOI: 10.1021/acs.jced.6b00312
Article source: Figure 4
Adsorbate Hydrogen: InChIKey UFHFLCQGNIYNRP-UHFFFAOYSA-N
Kind: experiment
Temperature: 318 K
Tabular data in the source: 0
pressure (bar)	uptake (mmol/g)
2.1004	0.04298
5.0125	0.08825
9.3852	0.13063
12.4934	0.15401
15.6263	0.18312
18.7796	0.2107
