Adsorption isotherm of Carbon Dioxide, Hydrogen, Carbon monoxide, Methane on Zeolite 5A
DOI: 10.1021/acs.jced.6b00312
Article source: Figure 3
Adsorbate Carbon Dioxide: InChIKey CURLTUGMZLYLDI-UHFFFAOYSA-N
Adsorbate Hydrogen: InChIKey UFHFLCQGNIYNRP-UHFFFAOYSA-N
Adsorbate Carbon monoxide: InChIKey UGFAIRIUMAVXCW-UHFFFAOYSA-N
Adsorbate Methane: InChIKey VNWKTOKETHGBQD-UHFFFAOYSA-N
Kind: experiment
Temperature: 308 K
Tabular data in the source: 0
pressure (bar)	Carbon Dioxide fraction	Carbon Dioxide uptake (mmol/g)	Hydrogen fraction	Hydrogen uptake (mmol/g)	Carbon monoxide fraction	Carbon monoxide uptake (mmol/g)	Methane fraction	Methane uptake (mmol/g)	total uptake (mmol/g)
2.109	0.165	0.6492	0.755	0.0417	0.045	0.017789	0.035	0.039113	
4.88293	0.165	1.3815	0.755	0.0968	0.045	0.041957	0.035	0.084359	
9.33368	0.165	2.4478	0.755	0.1909	0.045	0.078824	0.035	0.144142	
12.4329	0.165	2.8487	0.755	0.2361	0.045	0.10471	0.035	0.180507	
15.5255	0.165	3.5529	0.755	0.2853	0.045	0.125082	0.035	0.207006	
18.7379	0.165	3.9378	0.755	0.3348	0.045	0.136018	0.035	0.230503	
