Adsorption isotherm of Carbon Dioxide on Zeolite 5A
DOI: 10.1021/acs.jced.6b00312
Article source: Figure 4
Adsorbate Carbon Dioxide: InChIKey CURLTUGMZLYLDI-UHFFFAOYSA-N
Kind: experiment
Temperature: 318 K
Tabular data in the source: 0
pressure (bar)	uptake (mmol/g)
2.1393	0.61167
5.0958	1.19829
9.5267	2.00701
12.6685	2.46027
15.8611	3.06119
19.0378	3.38654
