Adsorption isotherm of Methane on Zeolite 5A
DOI: 10.1021/acs.jced.6b00312
Article source: Figure 4
Adsorbate Methane: InChIKey VNWKTOKETHGBQD-UHFFFAOYSA-N
Kind: experiment
Temperature: 318 K
Tabular data in the source: 0
pressure (bar)	uptake (mmol/g)
2.0878	0.028639
4.9827	0.069011
9.3323	0.110055
12.427	0.142378
15.5675	0.15703
18.7066	0.182383
