Adsorption isotherm of Carbon Dioxide, Hydrogen, Carbon monoxide, Methane on Zeolite 5A
DOI: 10.1021/acs.jced.6b00312
Article source: Figure 2
Adsorbate Carbon Dioxide: InChIKey CURLTUGMZLYLDI-UHFFFAOYSA-N
Adsorbate Hydrogen: InChIKey UFHFLCQGNIYNRP-UHFFFAOYSA-N
Adsorbate Carbon monoxide: InChIKey UGFAIRIUMAVXCW-UHFFFAOYSA-N
Adsorbate Methane: InChIKey VNWKTOKETHGBQD-UHFFFAOYSA-N
Kind: experiment
Temperature: 298 K
Tabular data in the source: 0
pressure (bar)	Carbon Dioxide fraction	Carbon Dioxide uptake (mmol/g)	Hydrogen fraction	Hydrogen uptake (mmol/g)	Carbon monoxide fraction	Carbon monoxide uptake (mmol/g)	Methane fraction	Methane uptake (mmol/g)	total uptake (mmol/g)
2.07105	0.165	0.72688	0.755	0.03674	0.045	0.019645	0.035	0.045876	
4.81865	0.165	1.51569	0.755	0.09239	0.045	0.05819	0.035	0.110538	
9.2398	0.165	2.4194	0.755	0.14138	0.045	0.104525	0.035	0.188373	
12.2987	0.165	3.09705	0.755	0.18249	0.045	0.140263	0.035	0.225601	
15.4614	0.165	3.80642	0.755	0.22105	0.045	0.154525	0.035	0.266838	
18.5839	0.165	4.10498	0.755	0.24591	0.045	0.181558	0.035	0.298225	
