Adsorption isotherm of Nitrogen on Cu3(BTC)2@TiO2
DOI: 10.1002/adma.201400428
Adsorbate Nitrogen: InChIKey IJGRMHOSHXDMSA-UHFFFAOYSA-N
Temperature: 77 K
Tabular data in the source: 0
pressure (bar)	uptake (cm3(STP)/g)
0.0583847	194.109
0.0723969	196.121
0.09108	197.126
0.107428	199.138
0.130781	199.138
0.147129	200.144
0.165812	200.144
0.177489	201.149
0.189167	202.155
0.205513	202.155
0.224197	203.161
0.24288	203.161
0.266233	203.161
0.284917	203.161
0.298929	203.161
0.326953	204.167
0.350308	204.167
0.368991	206.178
0.380668	206.178
0.401687	206.178
0.415699	206.178
0.432047	208.19
0.443723	210.201
0.460071	210.201
0.478753	210.201
0.499772	210.201
0.518456	210.201
0.541809	211.207
0.555821	211.207
0.57684	211.207
0.597859	211.207
0.616541	211.207
0.632889	212.213
0.656243	213.218
0.672591	212.213
0.691273	213.218
0.714628	214.224
0.730976	215.23
0.751993	216.236
0.768341	219.253
0.78936	220.259
0.808043	223.276
0.826727	226.293
0.85008	229.31
0.868763	233.333
0.889781	235.345
0.913136	236.351
0.924812	232.328
