Adsorption isotherm of Nitrogen on CuBTC
DOI: 10.1002/adma.201400428
Adsorbate Nitrogen: InChIKey IJGRMHOSHXDMSA-UHFFFAOYSA-N
Temperature: 77 K
Tabular data in the source: 0
pressure (bar)	uptake (cm3(STP)/g)
0.0493585	302.73
0.0703501	306.753
0.0936839	309.77
0.110018	311.782
0.131037	311.782
0.147378	312.787
0.166047	314.799
0.182395	314.799
0.205742	315.805
0.224418	316.81
0.243102	316.81
0.261785	316.81
0.282803	316.81
0.287481	315.805
0.303815	317.816
0.322491	318.822
0.341194	315.805
0.359877	315.805
0.378554	316.81
0.399579	315.805
0.422926	316.81
0.43926	318.822
0.460252	322.845
0.488236	328.879
0.502255	327.874
0.51861	326.868
0.537299	325.862
0.553647	325.862
0.577001	325.862
0.600361	324.856
0.616709	324.856
0.633057	324.856
0.656417	323.851
0.679778	322.845
0.696119	323.851
0.714815	321.839
0.731163	321.839
0.749853	320.833
0.770878	319.828
0.789561	319.828
0.812922	318.822
0.833954	316.81
0.850288	318.822
0.873655	316.81
0.890009	315.805
0.908693	315.805
0.927376	315.805
