Adsorption isotherm of Carbon Dioxide on CuBTC
DOI: 10.1002/adma.201400428
Adsorbate Carbon Dioxide: InChIKey CURLTUGMZLYLDI-UHFFFAOYSA-N
Temperature: 298 K
Tabular data in the source: 0
pressure (bar)	uptake (cm3(STP)/g)
1.01098	2.01893
2.52784	5.29968
4.29665	8.58044
5.93908	11.6088
7.58109	14.3849
9.22278	16.9085
10.9916	20.1893
12.6324	22.2082
14.2749	25.2366
16.2944	27.7603
17.8097	30.0315
19.5769	32.3028
21.0922	34.5741
22.9858	37.0978
24.627	39.3691
26.3938	41.388
28.0347	43.4069
29.55	45.6782
31.1908	47.6972
32.9576	49.7161
34.5985	51.735
36.4905	53.2492
38.2573	55.2681
40.0245	57.5394
41.539	59.306
43.3058	61.3249
44.9459	62.8391
46.46	64.3533
48.2264	66.1199
49.9924	67.6341
51.6332	69.653
53.1469	70.9148
54.913	72.429
56.6794	74.1956
58.319	75.4574
59.9586	76.7192
61.5987	78.2334
63.238	79.2429
