Adsorption isotherm of Nitrogen on CuBTC
DOI: 10.1002/adma.201400428
Adsorbate Nitrogen: InChIKey IJGRMHOSHXDMSA-UHFFFAOYSA-N
Temperature: 77 K
Tabular data in the source: 0
pressure (bar)	uptake (cm3(STP)/g)
0.00153679	119.684
0.00319438	221.264
0.00516067	276.58
0.00518751	272.557
0.00526132	261.494
0.00538212	243.391
0.00566398	201.149
0.0059257	161.925
0.00812016	183.046
0.00865703	102.586
0.00906639	41.2356
0.00920732	20.1149
0.0144485	284.626
0.0261053	287.644
0.0401109	288.649
0.0494256	292.672
0.0610757	296.695
0.0890801	299.713
0.107749	301.724
0.124084	303.736
0.149773	303.736
0.16845	304.741
0.182455	305.747
0.205802	306.753
0.224492	305.747
0.243169	306.753
0.264181	307.759
0.282857	308.764
0.299211	307.759
0.320223	308.764
0.341242	308.764
0.364609	306.753
0.380949	307.759
0.39729	308.764
0.418309	308.764
0.436986	309.77
0.455668	309.77
0.476687	309.77
0.497706	309.77
0.516395	308.764
0.535071	309.77
0.55609	309.77
0.574779	308.764
0.593456	309.77
0.612139	309.77
0.630829	308.764
0.651847	308.764
0.67053	308.764
0.689221	307.759
0.707904	307.759
0.731257	307.759
0.752282	306.753
0.76863	306.753
0.787313	306.753
0.805996	306.753
0.827008	307.759
0.843356	307.759
0.866703	308.764
0.885372	310.776
0.904042	312.787
