Adsorption isotherm of Carbon Dioxide on Cu3(BTC)2@TiO2
DOI: 10.1002/adma.201400428
Adsorbate Carbon Dioxide: InChIKey CURLTUGMZLYLDI-UHFFFAOYSA-N
Temperature: 298 K
Tabular data in the source: 0
pressure (bar)	uptake (cm3(STP)/g)
2.39868	3.28076
4.16471	4.79495
5.67958	6.81388
7.57237	8.83281
9.21284	10.5994
10.9789	12.1136
12.6193	13.8801
14.2594	15.3943
16.2773	16.9085
17.665	18.1703
19.4319	20.1893
21.3234	21.4511
22.5848	22.4606
24.6028	23.9748
26.1169	25.489
28.1348	27.0032
29.5225	28.265
31.2885	29.7792
33.0538	30.7886
34.8198	32.3028
36.3331	33.3123
37.9728	34.5741
39.8643	35.836
41.5032	36.5931
43.1429	37.8549
44.9081	38.8644
46.4218	40.1262
48.0607	40.8833
50.2046	42.3975
51.4651	42.9022
53.2304	43.9117
55.122	45.1735
56.5089	45.9306
58.4001	46.9401
60.0394	47.9495
61.6782	48.7066
63.4427	49.2114
