Adsorption isotherm of Nitrogen on Cu3(BTC)2@TiO2
DOI: 10.1002/adma.201400428
Adsorbate Nitrogen: InChIKey IJGRMHOSHXDMSA-UHFFFAOYSA-N
Temperature: 77 K
Tabular data in the source: 0
pressure (bar)	uptake (cm3(STP)/g)
0.00371111	143.822
0.00395271	107.615
0.00424128	64.3678
0.00456339	16.092
0.00589215	166.954
0.00597268	154.885
0.00619414	121.695
0.00646257	81.4655
0.00817384	175
0.0091335	31.1782
0.0113414	50.2874
0.0151398	181.034
0.0291252	185.057
0.0454595	187.069
0.0641292	189.08
0.0874695	191.092
0.110816	192.098
0.124822	193.103
0.143498	194.109
0.166839	196.121
0.18318	197.126
0.204199	197.126
0.227546	198.132
0.2509	198.132
0.267241	199.138
0.283589	199.138
0.29993	200.144
0.318612	200.144
0.339624	201.149
0.362977	201.149
0.376984	202.155
0.400337	202.155
0.41902	202.155
0.440026	204.167
0.456373	204.167
0.477391	204.167
0.500746	204.167
0.514758	204.167
0.535783	203.161
0.55913	204.167
0.568465	205.172
0.594154	205.172
0.615172	205.172
0.636184	206.178
0.650197	206.178
0.671209	207.184
0.68755	208.19
0.710903	208.19
0.729586	208.19
0.748263	209.195
0.771603	211.207
0.790279	212.213
0.804285	213.218
0.829954	216.236
0.850959	218.247
0.864958	220.259
0.890621	224.282
0.911612	228.305
