Adsorption isotherm of Carbon Dioxide on GO-BBF4/MOF-60
DOI: 10.1016/j.micromeso.2014.08.012
Adsorbate Carbon Dioxide: InChIKey CURLTUGMZLYLDI-UHFFFAOYSA-N
Temperature: 298 K
Tabular data in the source: 0
pressure (bar)	uptake (mmol/g)
0.0180587	0.0872093
0.0361174	0.209302
0.0564334	0.331395
0.0790068	0.383721
0.0970655	0.523256
0.126411	0.662791
0.1693	0.802326
0.194131	0.94186
0.232506	1.06395
0.268623	1.20349
0.30474	1.34302
0.340858	1.44767
0.37246	1.56977
0.410835	1.7093
0.442438	1.79651
0.487585	1.9186
0.512415	2.02326
0.544018	2.09302
0.586907	2.21512
0.620767	2.30233
0.654628	2.38953
0.693002	2.49419
0.731377	2.59884
0.767494	2.6686
0.799097	2.77326
0.837472	2.84302
0.873589	2.94767
0.905192	3
0.927765	3.03488
0.950339	3.08721
0.96614	3.13953
0.990971	3.2093
1.00903	3.22674
