Adsorption isotherm of Carbon Dioxide on MOF
DOI: 10.1016/j.micromeso.2014.08.012
Adsorbate Carbon Dioxide: InChIKey CURLTUGMZLYLDI-UHFFFAOYSA-N
Temperature: 298 K
Tabular data in the source: 0
pressure (bar)	uptake (mmol/g)
0.0225734	0.0358798
0.0722348	0.30078
0.0970655	0.406915
0.126411	0.565839
0.160271	0.689834
0.196388	0.831452
0.23702	0.955685
0.268623	1.0796
0.300226	1.16843
0.343115	1.31028
0.376975	1.39919
0.413093	1.48818
0.446953	1.59463
0.48307	1.70116
0.51693	1.79007
0.548533	1.84381
0.586907	1.93287
0.620767	1.98669
0.6614	2.09338
0.699774	2.1649
0.722348	2.23587
0.765237	2.30755
0.79684	2.39638
0.839729	2.4856
0.869074	2.52172
0.909707	2.59332
0.923251	2.62889
0.941309	2.64706
0.957111	2.68271
0.979684	2.71859
1	2.77193
1.01354	2.78995
