Adsorption isotherm of Carbon Dioxide on GO-TAC/MOF-30
DOI: 10.1016/j.micromeso.2014.08.012
Adsorbate Carbon Dioxide: InChIKey CURLTUGMZLYLDI-UHFFFAOYSA-N
Temperature: 298 K
Tabular data in the source: 0
pressure (bar)	uptake (mmol/g)
0.0204349	0.193341
0.0997797	0.615786
0.147417	0.949955
0.181447	1.19617
0.23136	1.56546
0.265363	1.7415
0.294847	1.935
0.335651	2.14624
0.36286	2.30461
0.408202	2.55102
0.448999	2.74472
0.482989	2.88567
0.553257	3.23778
0.623519	3.57234
0.666565	3.73099
0.707362	3.92469
0.74589	4.10081
0.791219	4.31213
0.811601	4.36512
0.847879	4.57628
0.884132	4.71727
0.924922	4.89342
0.936254	4.94625
0.9725	5.06969
0.986088	5.10502
1.00194	5.14038
1.02459	5.21096
