Adsorption isotherm of Carbon Dioxide on GO-TBF4/MOF-60
DOI: 10.1016/j.micromeso.2014.08.012
Adsorbate Carbon Dioxide: InChIKey CURLTUGMZLYLDI-UHFFFAOYSA-N
Temperature: 298 K
Tabular data in the source: 0
pressure (bar)	uptake (mmol/g)
0.0180995	0.139535
0.0520362	0.366279
0.0859729	0.55814
0.0927602	0.593023
0.124434	0.784884
0.160633	0.994186
0.192308	1.18605
0.196833	1.22093
0.226244	1.37791
0.260181	1.60465
0.298643	1.81395
0.334842	2.0407
0.371041	2.25
0.404977	2.44186
0.443439	2.65116
0.477376	2.80814
0.513575	3
0.549774	3.2093
0.58371	3.36628
0.624434	3.55814
0.658371	3.75
0.692308	3.90698
0.728507	4.0814
0.760181	4.20349
0.800905	4.37791
0.834842	4.55233
0.871041	4.69186
0.909502	4.86628
0.925339	4.9186
0.957014	5.05814
0.970588	5.14535
0.988688	5.18023
1.00905	5.26744
1.0181	5.28488
