Adsorption isotherm of Carbon Dioxide on GO-TAc/MOF-90
DOI: 10.1016/j.micromeso.2014.08.012
Adsorbate Carbon Dioxide: InChIKey CURLTUGMZLYLDI-UHFFFAOYSA-N
Temperature: 298 K
Tabular data in the source: 0
pressure (bar)	uptake (mmol/g)
0.020316	0.0528335
0.0902935	0.578839
0.1693	0.947568
0.223476	1.28088
0.27088	1.5266
0.316027	1.71981
0.345372	1.87776
0.370203	2.00064
0.408578	2.22872
0.437923	2.33419
0.480813	2.50987
0.514673	2.6679
0.55079	2.82596
0.589165	2.96657
0.625282	3.14213
0.656885	3.23015
0.693002	3.38822
0.72912	3.52879
0.76298	3.65183
0.801354	3.77495
0.837472	3.95051
0.873589	4.0561
0.907449	4.16165
0.923251	4.23189
0.96614	4.39008
0.977427	4.40777
0.988713	4.46044
1.00226	4.49567
1.0158	4.53089
