Adsorption isotherm of Carbon Dioxide on GO-TAc/MOF-60
DOI: 10.1016/j.micromeso.2014.08.012
Adsorbate Carbon Dioxide: InChIKey CURLTUGMZLYLDI-UHFFFAOYSA-N
Temperature: 298 K
Tabular data in the source: 0
pressure (bar)	uptake (mmol/g)
0.013544	0.104651
0.0586907	0.366279
0.108352	0.767442
0.153499	1.06395
0.205418	1.41279
0.24605	1.65698
0.309255	2.05814
0.329571	2.25
0.361174	2.38953
0.404063	2.65116
0.440181	2.86047
0.480813	3.03488
0.514673	3.24419
0.55079	3.45349
0.586907	3.61047
0.623025	3.81977
0.659142	3.97674
0.688488	4.11628
0.726862	4.32558
0.765237	4.46512
0.805869	4.67442
0.837472	4.8314
0.873589	4.98837
0.902935	5.11047
0.923251	5.21512
0.959368	5.37209
0.979684	5.47674
0.993228	5.52907
1.00451	5.5814
1.01354	5.63372
