Adsorption isotherm of Nitrogen on PET/Limestone 83:17
DOI: 10.1016/j.jhazmat.2013.04.037
Article source: Figure 4a
Adsorbate Nitrogen: InChIKey IJGRMHOSHXDMSA-UHFFFAOYSA-N
Kind: experiment
Temperature: 77 K
Tabular data in the source: 0
pressure (bar)	uptake (cm3(STP)/g)
0.01249	63.2879
0.020296	63.2921
0.026541	64.918
0.032786	67.0848
0.042154	67.6307
0.048399	68.1749
0.057766	68.7207
0.08743	70.3592
0.123339	71.4601
0.154563	72.0176
0.18735	73.6577
0.218574	74.2152
0.2498	74.2319
0.276341	75.3278
0.310689	77.5096
0.315372	74.8078
0.340352	78.6072
0.345036	75.3645
0.368454	79.7039
0.380945	76.4654
0.405924	80.2648
0.410608	77.0221
0.434027	81.3615
0.448078	78.1238
0.469935	82.4624
0.482426	79.2239
0.496477	84.0992
0.519896	79.7847
0.52614	85.7376
0.549559	79.8006
0.555804	85.7534
0.577662	81.4382
0.587029	87.3927
0.610448	81.4557
0.621377	87.9519
0.643234	82.5549
0.652602	89.0503
0.677582	83.655
0.682266	89.0661
0.711929	90.1637
0.741593	85.8526
0.744715	92.3446
0.771257	86.9502
0.772818	93.4414
0.80092	95.079
0.804043	88.5902
0.835268	98.3425
0.844635	90.7754
0.871176	103.77
0.872738	94.5764
0.902401	113.523
0.905524	99.4617
0.942994	141.128
0.947678	109.22
0.972657	172.514
0.980464	129.79
1.007	181.187
