Adsorption isotherm of Nitrogen on PET/Limestone 30:70
DOI: 10.1016/j.jhazmat.2013.04.037
Article source: Figure 4a
Adsorbate Nitrogen: InChIKey IJGRMHOSHXDMSA-UHFFFAOYSA-N
Kind: experiment
Temperature: 77 K
Tabular data in the source: 0
pressure (bar)	uptake (cm3(STP)/g)
0.009367	12.4449
0.015612	13.53
0.020296	14.0733
0.029664	14.6192
0.03747	15.7051
0.045276	15.7093
0.051521	16.2535
0.084307	17.3527
0.115533	18.4511
0.123339	18.4553
0.148319	18.4686
0.156125	19.0136
0.182666	19.5687
0.18735	19.0303
0.215452	19.5862
0.218574	20.1287
0.251361	20.6871
0.277902	21.2421
0.291954	20.7087
0.312249	21.2604
0.316933	21.2629
0.345036	21.8188
0.352842	21.823
0.371577	22.3738
0.3747	22.3755
0.410608	23.4764
0.441833	24.0339
0.469935	26.2124
0.476181	24.5931
0.498038	26.2274
0.510528	24.6115
0.538631	26.7899
0.541753	25.7099
0.56361	27.3441
0.579223	26.2707
0.602642	27.9058
0.607326	27.3675
0.622938	28.4575
0.640112	27.385
0.657285	29.0167
0.669775	28.4825
0.686949	30.1143
0.705684	29.0426
0.71349	30.1285
0.744715	30.686
0.747838	31.2285
0.772818	31.2419
0.783747	32.3294
0.805604	32.8819
0.836829	34.5212
0.839952	33.982
0.874299	36.1638
0.877422	40.4924
0.905524	38.3439
0.947678	44.8568
0.971097	53.5232
1.00232	113.576
