Adsorption isotherm of Nitrogen on PET/Limestone 50:50 prepared at 1123K
DOI: 10.1016/j.jhazmat.2013.04.037
Article source: Figure 4b
Adsorbate Nitrogen: InChIKey IJGRMHOSHXDMSA-UHFFFAOYSA-N
Kind: experiment
Temperature: 77 K
Tabular data in the source: 0
pressure (bar)	uptake (cm3(STP)/g)
0.00641	34.3321
0.01876	36.1776
0.031108	37.4949
0.049622	38.5465
0.080476	39.859
0.092823	41.1763
0.111326	40.6433
0.122129	41.6969
0.146805	41.6904
0.157606	42.4799
0.180737	42.2098
0.189999	43.2638
0.210044	42.7304
0.219303	43.5203
0.242434	43.2501
0.250153	44.3045
0.276369	44.0336
0.279461	45.0892
0.310308	45.3453
0.311844	44.5526
0.338072	45.8663
0.345779	45.336
0.373549	46.6493
0.376629	46.1203
0.402856	47.434
0.412104	46.6393
0.436791	48.2175
0.446039	47.4228
0.469181	48.7373
0.475345	47.9433
0.507738	48.7272
0.510828	49.5187
0.52934	50.3062
0.546296	48.9813
0.56019	51.0905
0.575605	50.03
0.589497	51.6111
0.604909	50.2865
0.621887	52.1308
0.640388	51.3337
0.65274	53.1792
0.669694	51.8543
0.686673	53.9627
0.703631	52.9018
0.717528	55.2752
0.739112	54.2131
0.751465	56.3227
0.769964	55.2615
0.786949	58.1622
0.806991	57.1006
0.814722	60.0037
0.847131	63.1645
0.848653	60.259
0.873338	61.5731
0.873372	66.327
0.907347	72.9208
0.921184	66.8427
0.93208	81.1016
0.942804	70.7987
0.970749	97.202
0.976792	79.2412
1.00011	105.117
