Adsorption isotherm of Nitrogen on PET/Limestone 50:50
DOI: 10.1016/j.jhazmat.2013.04.037
Article source: Figure 4a
Adsorbate Nitrogen: InChIKey IJGRMHOSHXDMSA-UHFFFAOYSA-N
Kind: experiment
Temperature: 77 K
Tabular data in the source: 0
pressure (bar)	uptake (cm3(STP)/g)
0.009367	33.5387
0.021857	35.7088
0.034347	36.2563
0.051521	38.4289
0.081185	39.5265
0.095236	41.1566
0.11241	40.084
0.123339	41.7125
0.148319	40.6441
0.160809	42.2733
0.182666	41.7441
0.192033	43.3717
0.21233	42.8417
0.220136	43.9276
0.245116	43.4001
0.252922	43.9451
0.276341	43.9576
0.282586	44.5018
0.312249	45.0585
0.338791	46.1544
0.346597	45.6177
0.373138	46.1727
0.382506	45.6369
0.405924	47.272
0.41373	46.7353
0.440272	47.2903
0.446517	47.2936
0.471497	48.3887
0.477742	47.8512
0.510528	48.9504
0.530824	50.5838
0.543315	48.9679
0.56205	51.1414
0.577662	49.5271
0.593274	51.6989
0.607326	50.6247
0.622938	52.2556
0.641673	51.7247
0.655724	53.3548
0.671337	51.7406
0.68851	53.9132
0.704123	52.8398
0.719736	55.5525
0.744715	54.4841
0.752522	57.1926
0.772818	55.5808
0.78843	58.2935
0.805604	57.7618
0.814971	59.9302
0.847758	62.652
0.849319	59.9486
0.872738	61.5836
0.874299	66.4523
0.908646	73.5019
0.922698	67.5598
0.933627	81.0873
0.942994	70.8159
0.971097	97.8741
0.977341	80.0289
1.00232	105.463
