Adsorption isotherm of Nitrogen on PET/Limestone 50:50 prepared at 1273K
DOI: 10.1016/j.jhazmat.2013.04.037
Article source: Figure 4b
Adsorbate Nitrogen: InChIKey IJGRMHOSHXDMSA-UHFFFAOYSA-N
Kind: experiment
Temperature: 77 K
Tabular data in the source: 0
pressure (bar)	uptake (cm3(STP)/g)
0.006361	27.4653
0.012542	29.0484
0.026433	30.6294
0.034148	31.1556
0.04032	31.6822
0.05112	32.2076
0.083514	33.2555
0.094319	34.5733
0.115909	34.3035
0.125169	35.3575
0.145216	35.0882
0.157561	36.1414
0.180693	35.8713
0.186866	36.3979
0.214625	36.1265
0.219256	36.9176
0.247018	37.1745
0.250109	37.966
0.277867	37.6947
0.280955	38.2221
0.310259	38.4786
0.322605	39.5318
0.341114	39.791
0.348822	39.5249
0.375044	40.0463
0.405899	41.3588
0.412063	40.829
0.438287	41.6145
0.442914	41.6132
0.473762	42.1334
0.504622	44.2382
0.512324	42.9157
0.532388	45.0233
0.543172	43.4359
0.561695	45.808
0.57248	44.2205
0.59409	46.856
0.604873	45.0044
0.626482	47.6398
0.640352	46.0516
0.657335	48.6882
0.671203	47.1
0.688186	49.7366
0.708226	48.4108
0.722127	51.3124
0.73754	49.9878
0.771478	51.2995
0.800796	53.4047
0.857889	57.8796
0.870313	70.0253
0.873327	59.9885
0.910572	92.9919
0.913473	66.8447
0.942835	75.2885
0.943201	127.581
0.972898	183.828
1.00387	201.515
