Adsorption isotherm of Nitrogen on Limestone
DOI: 10.1016/j.jhazmat.2013.04.037
Article source: Figure 4a
Adsorbate Nitrogen: InChIKey IJGRMHOSHXDMSA-UHFFFAOYSA-N
Kind: experiment
Temperature: 77 K
Tabular data in the source: 0
pressure (bar)	uptake (cm3(STP)/g)
0.01249	0.547532
0.021857	1.0934
0.029664	1.09757
0.039031	1.64343
0.043715	1.64593
0.056205	1.6526
0.08743	2.21013
0.120216	2.22763
0.153003	2.24513
0.185789	2.26263
0.213891	3.90023
0.220136	2.82183
0.2498	3.37853
0.254484	2.84017
0.279463	3.39437
0.28727	2.85767
0.304443	3.94857
0.316933	3.41437
0.341913	3.4277
0.351281	3.97357
0.366894	3.9819
0.379383	3.98857
0.401241	4.5411
0.416853	4.00857
0.430905	4.55694
0.44964	4.02607
0.460568	4.03191
0.480864	4.5836
0.491793	5.1303
0.518334	5.14447
0.52614	6.77123
0.555804	6.78707
0.579223	5.71784
0.587029	6.80374
0.61357	5.19531
0.621377	6.82207
0.649479	5.21448
0.661969	7.3846
0.683826	7.39627
0.710368	7.41044
0.744715	7.96964
0.779063	8.52884
0.797798	9.0797
0.810288	8.54551
0.829023	10.1781
0.841512	9.10304
0.860247	10.7356
0.874299	9.66141
0.894595	11.2948
0.911769	10.2223
0.933627	11.8565
0.941433	11.3198
0.967974	19.447
0.982025	15.6684
1.00857	26.4999
