Adsorption isotherm of Nitrogen on PET/Limestone 50:50 HCl wash
DOI: 10.1016/j.jhazmat.2013.04.037
Article source: Figure 4a
Adsorbate Nitrogen: InChIKey IJGRMHOSHXDMSA-UHFFFAOYSA-N
Kind: experiment
Temperature: 77 K
Tabular data in the source: 0
pressure (bar)	uptake (cm3(STP)/g)
0.009367	143.334
0.014051	149.286
0.018735	151.993
0.026541	154.702
0.031225	156.327
0.03747	157.953
0.040592	159.036
0.046837	160.121
0.051521	160.665
0.082746	165.008
0.095236	169.883
0.113971	168.27
0.126461	173.144
0.153003	172.618
0.157686	175.865
0.181105	174.255
0.192033	178.588
0.213891	176.977
0.220136	180.767
0.243555	179.156
0.251361	183.488
0.282586	184.586
0.284147	181.882
0.310689	186.764
0.313811	184.062
0.340352	188.944
0.343475	186.782
0.3747	191.125
0.377822	188.964
0.405924	194.387
0.41217	190.605
0.440272	196.569
0.444956	193.326
0.469935	199.289
0.476181	195.507
0.502722	203.634
0.508967	197.688
0.532386	207.436
0.540192	200.409
0.56205	209.615
0.576101	203.673
0.594836	212.878
0.607326	205.853
0.626061	215.599
0.641673	210.198
0.660408	220.485
0.679143	224.822
0.691633	224.287
0.707245	227.541
0.722858	230.254
0.736909	231.884
0.755644	237.302
0.772818	238.934
0.786869	247.055
0.804043	245.982
0.814971	257.887
0.843074	271.964
0.861809	262.239
0.87586	269.278
0.878982	301.731
0.908646	334.199
0.918014	290.935
0.933627	366.664
0.93831	308.253
0.969535	414.28
0.978903	358.035
1.00232	434.85
