Adsorption isotherm of Hydrogen sulfide on MOF-74-Ni
DOI: 10.1021/Jp402440u
Adsorbate Hydrogen sulfide: InChIKey RWSOTUBLDIXVET-UHFFFAOYSA-N
Temperature: 473 K
Tabular data in the source: 0
pressure (bar)	uptake (mol/mol)
0.000186	0.0480903
0.000258	0.14963
0.000472	0.285494
0.000544	0.484284
0.0111983	0.618717
0.0291466	0.684504
