Adsorption isotherm of Hydrogen sulfide on MOF-74-Ni
DOI: 10.1021/Jp402440u
Adsorbate Hydrogen sulfide: InChIKey RWSOTUBLDIXVET-UHFFFAOYSA-N
Temperature: 473 K
Tabular data in the source: 0
pressure (bar)	uptake (mol/mol)
0.000186	0.236869
0.000258	0.0709726
0.000258	0.338409
0.000258	0.44424
0.000544	0.564372
0.00183091	0.684504
0.00948217	0.74457
0.0270729	0.810356
