Adsorption isotherm of Hydrogen sulfide on MOF-74-Ni
DOI: 10.1021/Jp402440u
Adsorbate Hydrogen sulfide: InChIKey RWSOTUBLDIXVET-UHFFFAOYSA-N
Temperature: 473 K
Tabular data in the source: 0
pressure (bar)	uptake (mol/mol)
0.000258	0.133899
0.000329	0.268332
0.000329	0.438519
0.000615	0.668772
0.0102688	0.820368
0.0399442	0.897595
