Adsorption isotherm of Hydrogen sulfide on MOF-74-Ni
DOI: 10.1021/Jp402440u
Adsorbate Hydrogen sulfide: InChIKey RWSOTUBLDIXVET-UHFFFAOYSA-N
Temperature: 473 K
Tabular data in the source: 0
pressure (bar)	uptake (mol/mol)
0.000258	0.314097
0.000401	0.162502
0.000401	0.498585
0.00433366	0.710247
0.0189211	0.780324
0.0493832	0.867562
