Adsorption isotherm of Nitrogen on Activated Carbon A30
DOI: 10.1016/j.colsurfa.2007.06.040
Adsorbate Nitrogen: InChIKey IJGRMHOSHXDMSA-UHFFFAOYSA-N
Temperature: 77 K
Tabular data in the source: 0
pressure (bar)	uptake (cm3(STP)/g)
0.00400996	2.84008
0.00400996	123.664
0.0171192	145.075
0.0804806	164.958
0.165691	172.605
0.207203	175.664
0.266195	183.311
0.386363	181.781
0.451909	184.84
0.521825	186.369
0.655102	187.899
0.810228	194.017
0.87359	195.546
0.915102	194.017
0.978464	195.546
