Adsorption isotherm of Nitrogen on Activated Carbon A340
DOI: 10.1016/j.colsurfa.2007.06.040
Adsorbate Nitrogen: InChIKey IJGRMHOSHXDMSA-UHFFFAOYSA-N
Temperature: 77 K
Tabular data in the source: 0
pressure (bar)	uptake (cm3(STP)/g)
0.00400996	2.84008
0.00837971	238.369
0.0193041	272.017
0.0455226	305.664
0.0870352	337.781
0.146027	359.193
0.229052	376.017
0.325186	385.193
0.495607	398.958
0.637623	408.134
0.759976	418.84
0.893254	435.664
0.952245	464.722
0.985018	498.37
0.998128	539.664
