Adsorption isotherm of Nitrogen on Activated Carbon A160
DOI: 10.1016/j.colsurfa.2007.06.040
Adsorbate Nitrogen: InChIKey IJGRMHOSHXDMSA-UHFFFAOYSA-N
Temperature: 77 K
Tabular data in the source: 0
pressure (bar)	uptake (cm3(STP)/g)
0.00400996	2.84008
0.00619484	201.664
0.00837971	230.722
0.0324133	256.722
0.0739259	270.487
0.141657	284.252
0.215943	285.781
0.408212	296.487
0.556783	298.017
0.709724	302.605
0.856111	305.664
0.987203	308.722
