Adsorption isotherm of Nitrogen on Activated Carbon A90
DOI: 10.1016/j.colsurfa.2007.06.040
Adsorbate Nitrogen: InChIKey IJGRMHOSHXDMSA-UHFFFAOYSA-N
Temperature: 77 K
Tabular data in the source: 0
pressure (bar)	uptake (cm3(STP)/g)
0.00400996	2.84008
0.00400996	123.664
0.0171192	145.075
0.0498923	157.311
0.100144	172.605
0.152581	181.781
0.244346	190.958
0.327371	190.958
0.486867	192.487
0.580817	198.605
0.751237	203.193
0.832077	204.722
0.904178	207.781
0.930396	203.193
0.96317	207.781
0.995943	215.428
