Adsorption isotherm of Nitrogen on Activated Carbon A420
DOI: 10.1016/j.colsurfa.2007.06.040
Adsorbate Nitrogen: InChIKey IJGRMHOSHXDMSA-UHFFFAOYSA-N
Temperature: 77 K
Tabular data in the source: 0
pressure (bar)	uptake (cm3(STP)/g)
0.00400996	2.84008
0.00837971	238.369
0.0193041	272.017
0.0345982	302.605
0.0673713	337.781
0.100144	360.722
0.159136	377.546
0.257455	397.428
0.351405	414.252
0.473758	429.546
0.563338	441.781
0.679136	457.075
0.78401	478.487
0.856111	506.017
0.917287	535.075
0.978464	605.428
0.998128	639.075
