Adsorption isotherm of Nitrogen on Activated Carbon A250
DOI: 10.1016/j.colsurfa.2007.06.040
Adsorbate Nitrogen: InChIKey IJGRMHOSHXDMSA-UHFFFAOYSA-N
Temperature: 77 K
Tabular data in the source: 0
pressure (bar)	uptake (cm3(STP)/g)
0.00400996	2.84008
0.00837971	238.369
0.0345982	279.664
0.0673713	298.017
0.137287	313.311
0.237791	327.075
0.386363	328.605
0.591741	334.722
0.700985	337.781
0.803674	343.899
0.886699	346.958
0.95443	356.134
0.993758	360.722
