Adsorption isotherm of Acetylene on Cu2TPTC-Me
DOI: 10.1016/j.micromeso.2015.05.036
Article source: Figure 6
Adsorbate Acetylene: InChIKey HSFWRNGVRCDJHI-UHFFFAOYSA-N
Kind: experiment
Temperature: 298 K
Tabular data in the source: 0
pressure (bar)	uptake (cm3(STP)/g)
0.004533	5.227
0.008826	13.911
0.030624	28.557
0.087979	54.953
0.154294	74.879
0.216862	90.377
0.282083	104.343
0.342958	116.457
0.40674	127.884
0.467842	138.077
0.532756	147.87
0.595844	156.59
0.656826	165.039
0.719074	172.948
0.782962	180.623
0.844037	187.222
0.907459	194.036
0.972867	200.636
1.03394	206.27
