Adsorption isotherm of Acetylene on CuBTC
DOI: 10.1016/j.micromeso.2015.05.036
Article source: Figure 6
Adsorbate Acetylene: InChIKey HSFWRNGVRCDJHI-UHFFFAOYSA-N
Kind: experiment
Temperature: 298 K
Tabular data in the source: 0
pressure (bar)	uptake (cm3(STP)/g)
0.001453	7.81
0.012012	23.456
0.068661	70.827
0.117937	95.665
0.176412	112.753
0.232714	125.412
0.291376	135.728
0.348958	144.468
0.409193	152.186
0.466495	158.882
0.508971	163.129
0.56578	168.638
0.619576	173.53
0.675878	178.314
0.73318	182.616
0.788468	185.897
0.84677	190.682
0.898059	194.822
0.957015	198.131
1.0108	201.064
1.06558	203.943
