Adsorption isotherm of Methane on Cu2TPTC-Me
DOI: 10.1016/j.micromeso.2015.05.036
Article source: Figure 5
Adsorbate Methane: InChIKey VNWKTOKETHGBQD-UHFFFAOYSA-N
Kind: experiment
Temperature: 273 K
Tabular data in the source: 0
pressure (bar)	uptake (cm3(STP)/g)
0.011827	0.624
0.029263	1.648
0.036554	2.281
0.063819	2.818
0.07016	3.013
0.095046	3.16
0.101386	3.696
0.125798	3.892
0.131028	4.428
0.158292	5.306
0.164316	5.599
0.188568	5.989
0.193007	6.233
0.220483	7.354
0.225893	7.896
0.253069	8.245
0.256214	8.632
0.283263	9.213
0.288422	9.677
0.314905	10.007
0.31805	10.258
0.345729	11.264
0.350131	11.535
0.377244	12.309
0.381018	12.599
0.408313	13.221
0.412207	13.221
0.440266	13.989
0.444461	14.143
0.471521	15.31
0.473718	15.525
0.502977	15.986
0.505972	16.232
0.534679	16.914
0.53674	17.085
0.56596	17.807
0.568288	17.942
0.59753	18.839
0.598559	18.865
0.627963	19.524
0.63042	19.695
0.659187	20.642
0.660886	20.711
0.691106	21.671
0.693103	21.978
0.722461	22.593
0.724958	22.746
0.754377	23.28
0.754773	23.289
0.784271	24.16
0.78607	24.218
0.816434	25.109
0.84671	25.939
0.879046	26.768
0.909481	27.549
0.9405	28.725
0.953334	29.112
0.971953	29.577
0.985038	30.003
1.00416	30.467
1.01624	30.854
1.03436	31.28
1.06637	31.69
