Adsorption isotherm of Carbon Dioxide on Cu2TPTC-Me
DOI: 10.1016/j.micromeso.2015.05.036
Article source: Figure 5
Adsorbate Carbon Dioxide: InChIKey CURLTUGMZLYLDI-UHFFFAOYSA-N
Kind: experiment
Temperature: 273 K
Tabular data in the source: 0
pressure (bar)	uptake (cm3(STP)/g)
0.013786	2.851
0.021864	5.823
0.031373	6.019
0.040245	9.089
0.063223	12.453
0.070032	15.62
0.095387	19.227
0.09982	21.809
0.126891	24.532
0.131379	27.724
0.158771	30.291
0.163203	33.823
0.189779	35.708
0.193567	39.606
0.221024	41.082
0.224512	44.611
0.251571	46.271
0.255858	49.954
0.283165	51.226
0.287039	55.099
0.314539	56.295
0.318019	60.266
0.345997	60.951
0.348971	64.647
0.377354	65.801
0.381241	69.699
0.408512	70.212
0.411985	74.146
0.439725	74.999
0.443178	78.614
0.471297	79.275
0.474622	83.083
0.503371	83.512
0.505249	87.436
0.533997	87.884
0.536569	91.654
0.565192	92.024
0.567008	95.774
0.5967	96.241
0.598957	99.702
0.627579	99.995
0.629899	103.803
0.659716	104.174
0.661723	107.731
0.690722	108.14
0.692602	111.987
0.721974	115.224
0.723293	115.528
0.752922	115.744
0.754929	119.185
0.785061	119.362
0.786311	122.88
0.816004	123.058
0.817381	126.344
0.84733	126.886
0.848196	127.019
0.87871	130.372
0.879733	130.558
0.909613	133.858
0.9104	133.918
0.940609	140.152
0.940715	140.146
0.957483	141.535
0.971789	141.226
0.988389	144.823
1.00399	144.516
1.02034	147.881
1.03516	147.895
1.06521	151.366
