Adsorption isotherm of Methane on Cu2TPTC-Me
DOI: 10.1016/j.micromeso.2015.05.036
Article source: Figure 5
Adsorbate Methane: InChIKey VNWKTOKETHGBQD-UHFFFAOYSA-N
Kind: experiment
Temperature: 298 K
Tabular data in the source: 0
pressure (bar)	uptake (cm3(STP)/g)
0.006993	1.252
0.020366	1.449
0.032203	1.606
0.038966	1.802
0.062331	2.039
0.069401	2.392
0.094304	2.355
0.100913	2.668
0.125508	2.67
0.131657	3.023
0.15579	3.533
0.162553	3.847
0.188839	4.162
0.193604	4.593
0.220811	5.103
0.225269	5.182
0.251093	5.732
0.254628	5.888
0.283066	6.517
0.287523	6.673
0.315346	7.341
0.319188	7.458
0.345321	7.774
0.349471	8.126
0.376986	8.637
0.382673	9.146
0.408344	9.343
0.412955	9.5
0.439849	9.995
0.442657	10.291
0.471999	10.515
0.473838	10.885
0.502404	11.257
0.506084	11.553
0.534651	11.827
0.537652	11.999
0.564442	12.388
0.566993	12.667
0.59769	13.31
0.599336	13.31
0.62737	13.924
0.630419	14.265
0.66059	14.762
0.662588	14.919
0.690103	15.234
0.692871	15.391
0.721615	15.706
0.722691	15.707
0.753742	16.609
0.754818	16.643
0.785253	17.237
0.815374	17.887
0.847136	18.481
0.879478	19.075
0.908916	19.817
0.941407	20.656
0.953119	20.75
0.972763	20.907
0.984108	21.187
1.00253	21.468
1.01607	22.215
1.03462	22.216
1.06305	22.25
