Adsorption isotherm of Acetylene on Cu2TPTC-Me
DOI: 10.1016/j.micromeso.2015.05.036
Article source: Figure 5
Adsorbate Acetylene: InChIKey HSFWRNGVRCDJHI-UHFFFAOYSA-N
Kind: experiment
Temperature: 298 K
Tabular data in the source: 0
pressure (bar)	uptake (cm3(STP)/g)
0.002804	2.655
0.002896	3.08
0.004337	6.357
0.007713	10.472
0.012834	14.218
0.016987	17.84
0.021621	22.349
0.033223	28.756
0.03786	32.526
0.06378	44.108
0.068902	47.386
0.091158	54.68
0.099184	58.771
0.123627	65.424
0.130921	68.534
0.155965	74.676
0.161336	77.591
0.187537	82.872
0.193063	85.689
0.21865	90.403
0.223868	93.161
0.251378	97.797
0.25529	100.32
0.282459	104.493
0.285563	106.744
0.314477	110.61
0.317945	113.529
0.344842	116.588
0.348611	119.102
0.376693	122.405
0.380074	124.869
0.408761	128.031
0.411926	130.484
0.438889	133.124
0.442298	135.608
0.470361	138.217
0.473526	140.607
0.501948	143.201
0.504938	145.489
0.533148	147.838
0.535985	150.263
0.564535	152.223
0.567516	154.877
0.595583	156.431
0.597771	158.992
0.627116	161.182
0.629488	163.526
0.658103	165.142
0.660475	167.501
0.689701	169.397
0.69134	171.337
0.721281	173.017
0.722965	175.246
0.752286	176.85
0.754293	178.993
0.783688	180.432
0.785373	182.31
0.815502	183.953
0.816366	185.974
0.846097	187.202
0.847857	189.451
0.877889	190.749
0.879408	192.845
0.909429	195.58
0.909545	195.594
0.940115	196.853
0.941817	196.999
0.956336	200.051
0.972263	200.192
0.987693	202.909
1.00313	202.972
1.01899	205.891
1.03547	206.14
1.06646	209.277
