Adsorption isotherm of Carbon Dioxide on Cu2TPTC-Me
DOI: 10.1016/j.micromeso.2015.05.036
Article source: Figure 5
Adsorbate Carbon Dioxide: InChIKey CURLTUGMZLYLDI-UHFFFAOYSA-N
Kind: experiment
Temperature: 298 K
Tabular data in the source: 0
pressure (bar)	uptake (cm3(STP)/g)
0.004622	1.195
0.010644	1.517
0.016765	1.937
0.020469	3.221
0.027455	2.778
0.036313	4.976
0.059726	6.412
0.067705	8.091
0.092188	9.65
0.097844	12.045
0.124362	13.234
0.129041	15.086
0.155753	16.177
0.160823	18.299
0.187046	19.144
0.191536	21.365
0.219115	21.938
0.223024	24.431
0.250121	25.176
0.254706	27.324
0.282258	28.354
0.285904	30.645
0.313728	31.082
0.316757	33.393
0.344677	33.969
0.347391	36.161
0.376206	36.804
0.379533	39.089
0.407063	39.748
0.411126	42.297
0.438593	42.754
0.441796	44.977
0.470731	45.449
0.474057	47.688
0.501831	48.237
0.505656	50.566
0.533245	50.748
0.536661	53.137
0.565127	53.441
0.567413	55.711
0.596256	55.813
0.598592	58.124
0.627264	60.782
0.628522	60.969
0.658117	61.289
0.661915	63.502
0.690437	63.778
0.692304	65.95
0.721338	66.351
0.722719	68.448
0.753113	68.948
0.754975	70.626
0.785083	71.594
0.786945	73.173
0.815981	75.189
0.817551	75.449
0.846978	76.319
0.848938	77.948
0.878613	79.999
0.879046	80.036
0.910006	81.13
0.911489	81.301
0.941312	83.435
0.94248	83.497
0.956745	85.513
0.973005	86.04
0.987976	87.844
1.00439	88.341
1.02014	90.071
1.03645	90.469
1.06589	92.721
