Adsorption isotherm of Acetylene on Cu2TPTC-Me
DOI: 10.1016/j.micromeso.2015.05.036
Article source: Figure 5
Adsorbate Acetylene: InChIKey HSFWRNGVRCDJHI-UHFFFAOYSA-N
Kind: experiment
Temperature: 273 K
Tabular data in the source: 0
pressure (bar)	uptake (cm3(STP)/g)
0.000619	2.746
0.00461	12.029
0.006607	16.168
0.007727	19.533
0.011614	23.324
0.014993	27.928
0.015763	24.099
0.01776	28.431
0.022254	37.559
0.033175	44.562
0.038433	51.408
0.063179	62.629
0.06856	70.404
0.099329	85.918
0.100609	86.116
0.122846	89.441
0.130359	98.841
0.156017	101.862
0.161144	110.333
0.188314	112.503
0.192813	120.665
0.219862	121.906
0.223352	130.455
0.250907	130.691
0.254774	139.703
0.282709	139.553
0.285822	148.14
0.314387	147.448
0.317751	156.344
0.345312	155.266
0.348927	163.814
0.376237	162.503
0.378848	170.858
0.408676	169.199
0.410657	177.631
0.438976	175.779
0.442844	184.172
0.470283	182.204
0.473649	190.288
0.501968	188.204
0.504455	196.056
0.533025	194.01
0.535136	201.669
0.564335	199.7
0.566824	206.972
0.595898	205.197
0.598011	211.85
0.62721	210.114
0.628947	216.535
0.65729	215.074
0.660662	221.276
0.690429	225.489
0.690606	225.516
0.721571	224.109
0.722949	229.635
0.752515	228.35
0.753493	233.814
0.783658	232.714
0.785238	237.319
0.815785	236.553
0.816001	236.525
0.847348	239.907
0.84753	244.327
0.878109	243.995
0.878597	244.042
0.90866	247.594
0.909176	247.558
0.940243	250.734
0.941113	253.674
0.956459	254.991
0.971688	253.794
0.987025	257.548
1.00288	256.738
1.0186	260.144
1.03445	260.031
1.06615	263.091
