Adsorption isotherm of Nitrogen on Cu2TPTC-Me
DOI: 10.1016/j.micromeso.2015.05.036
Article source: Figure 4
Adsorbate Nitrogen: InChIKey IJGRMHOSHXDMSA-UHFFFAOYSA-N
Kind: experiment
Temperature: 77 K
Tabular data in the source: 0
pressure (bar)	uptake (cm3(STP)/g)
0.00229	6.821
0.0023	47.053
0.00231	47.241
0.00232	74.038
0.00233	87.285
0.00233	107.401
0.002341	127.517
0.002351	147.633
0.002361	167.749
0.002371	187.864
0.002381	207.98
0.002391	228.096
0.002401	248.212
0.002401	268.328
0.002412	288.444
0.002422	308.56
0.002432	328.676
0.002442	348.792
0.0038	359.437
0.00381	360.819
0.00381	362.204
0.00461	483.967
0.00462	485.1
0.004631	486.201
0.004641	487.265
0.004945	505.15
0.006809	523.592
0.009859	534.872
0.012402	549.047
0.017499	560.025
0.021065	568.867
0.029739	577.867
0.05047	588.25
0.068151	594.211
0.083279	596.969
0.102662	602.17
0.122046	604.78
0.129524	606.768
0.156557	610.3
0.160641	611.219
0.192578	614.279
0.200269	615.375
0.228062	617.701
0.237779	619.283
0.261662	619.911
0.27529	621.981
0.297156	624.059
0.311726	625.646
0.334535	627.467
0.344819	629.973
0.370444	630.552
0.406617	633.298
0.441139	636.177
0.476359	638.389
0.512654	640.412
0.547479	642.209
0.582163	645.146
0.62019	647.239
0.654256	649.769
0.688736	651.915
0.725801	654.256
0.760069	657.746
0.795422	658.741
0.830328	660.149
0.86793	662.668
0.90159	664.682
0.936618	666.698
0.972163	669.362
1.00792	673.873
