Adsorption isotherm of Cs(I), Water on Cs(I) magnetic ion-imprinted polymer (Cs(I)-MIIP)
DOI: 10.1080/01932691.2016.1261361
Article source: Figure 9
Adsorbate Cs(I): InChIKey NCMHKCKGHRPLCM-UHFFFAOYSA-N
Adsorbate Water: InChIKey XLYOFNOQVPJJNP-UHFFFAOYSA-N
Kind: experiment
Temperature: 298 K
Tabular data in the source: 0
pressure (bar)	Cs(I) fraction	Cs(I) uptake (mg/g)	Water fraction	Water uptake (mg/g)	total uptake (mg/g)
1.01325	9.97	2.164			
1.01325	19.49	3.371			
1.01325	49.5	6.644			
1.01325	149.06	17.108			
1.01325	199.56	23.068			
1.01325	249.39	29.465			
1.01325	298.21	36.269			
1.01325	399.03	36.159			
1.01325	498.86	36.118			
