Adsorption isotherm of Carbon Dioxide on [Co3Cl4(pmc)2(CH3OH)4]
DOI: 10.1016/j.micromeso.2011.09.017
Adsorbate Carbon Dioxide: InChIKey CURLTUGMZLYLDI-UHFFFAOYSA-N
Temperature: 195 K
Tabular data in the source: 0
pressure (bar)	uptake (cm3(STP)/g)
0.00165589	20.1231
0.00202914	6.62626
0.00405828	13.2525
0.00813692	25.7689
0.0124463	29.9417
0.0167693	33.6237
0.0321201	38.5355
0.0386826	41.2365
0.0585193	43.9407
0.0783425	47.1358
0.100405	49.3498
0.12468	51.5643
0.144544	53.287
0.173244	55.5026
0.20417	57.228
0.252767	59.9393
0.270432	61.1707
0.334496	64.622
0.35438	65.6084
0.363209	66.3468
0.389724	67.5803
0.411821	68.5673
0.436136	69.3095
0.451603	70.0495
0.475918	70.7916
0.495809	71.5327
0.535605	72.5241
0.57762	73.2706
0.613011	73.5247
0.657238	74.2717
0.69704	75.0177
0.714739	75.022
0.750131	75.2761
0.781097	75.5291
0.807639	75.781
0.838605	76.034
0.869565	76.5324
0.902751	76.5406
0.929306	76.3017
0.962485	76.5552
0.993444	77.0536
