Adsorption isotherm of Carbon Dioxide on [Fe3(O)(pmc)5.3(O2CH)0.7]*DMF
DOI: 10.1016/j.micromeso.2011.09.017
Adsorbate Carbon Dioxide: InChIKey CURLTUGMZLYLDI-UHFFFAOYSA-N
Temperature: 273 K
Tabular data in the source: 0
pressure (bar)	uptake (cm3(STP)/g)
0.0160809	5.94962
0.0252678	9.25479
0.0481671	14.5376
0.0733369	19.4879
0.0893347	21.7951
0.148695	27.7161
0.187479	30.3394
0.23766	33.2863
0.26731	34.9223
0.292397	36.2302
0.353945	38.1762
0.417778	40.4518
0.470192	41.4105
0.515787	43.0359
0.568193	43.6634
0.622892	44.9517
0.682139	45.9059
0.752776	46.8525
0.802911	47.8126
0.834809	48.1226
0.855318	48.4402
0.878104	48.7562
0.90089	49.0723
0.910009	49.3973
0.966956	49.3596
1.00115	50.3304
