Adsorption isotherm of Methane on [Fe3(O)(pmc)5.3(O2CH)0.7]*DMF
DOI: 10.1016/j.micromeso.2011.09.017
Adsorbate Methane: InChIKey VNWKTOKETHGBQD-UHFFFAOYSA-N
Temperature: 273 K
Tabular data in the source: 0
pressure (bar)	uptake (cm3(STP)/g)
0.0341982	1.30186
0.0615553	2.27712
0.100302	3.24483
0.111706	3.89953
0.134492	4.21557
0.200603	6.48967
0.248461	7.45135
0.300882	8.74114
0.312272	8.73359
0.335066	9.38075
0.373812	10.3485
0.396598	10.6645
0.421655	10.6479
0.46952	11.9407
0.521934	12.8994
0.572055	13.1973
0.62219	14.1575
0.681438	15.1116
0.695112	15.4337
0.717891	15.4186
0.738399	15.7362
0.749796	16.0597
0.804465	16.0235
0.829537	16.6692
0.845482	16.6586
0.868268	16.9747
0.891054	17.2907
0.911563	17.6082
0.966254	18.5654
1.00271	18.8724
