Adsorption isotherm of Hydrogen on [Co3Cl4(pmc)2(CH3OH)4]
DOI: 10.1016/j.micromeso.2011.09.017
Adsorbate Hydrogen: InChIKey UFHFLCQGNIYNRP-UHFFFAOYSA-N
Temperature: 77 K
Tabular data in the source: 0
pressure (bar)	uptake (cm3(STP)/g)
0.0109533	3.92907
0.0174954	7.36626
0.0394291	14.2428
0.0438064	15.9617
0.0790551	21.3691
0.094501	22.8453
0.109947	24.3215
0.127592	26.289
0.140839	27.2738
0.158497	28.7506
0.176162	29.9819
0.193834	30.9678
0.213718	31.9543
0.246849	33.9256
0.26674	34.6667
0.291043	35.8996
0.313153	36.3959
0.339674	37.384
0.359565	38.125
0.392724	39.1148
0.414834	39.611
0.43915	40.3532
0.459047	40.8488
0.478952	41.0991
0.503268	41.8413
0.525385	42.0921
0.545276	42.8332
0.562968	43.0829
0.585085	43.3338
0.604983	43.8294
0.622668	44.3246
0.644785	44.5754
0.666902	44.8262
0.684594	45.076
0.706711	45.3268
0.728828	45.5776
0.755363	46.0749
0.777473	46.5712
0.815063	47.3166
0.843824	47.3236
0.896907	47.8275
0.987581	49.0767
