Adsorption isotherm of Methane on [Co3Cl4(pmc)2(CH3OH)4]
DOI: 10.1016/j.micromeso.2011.09.017
Adsorbate Methane: InChIKey VNWKTOKETHGBQD-UHFFFAOYSA-N
Temperature: 195 K
Tabular data in the source: 0
pressure (bar)	uptake (cm3(STP)/g)
0.0508032	2.95725
0.0706942	3.69833
0.0883457	5.42045
0.101572	7.14149
0.121463	7.88257
0.141348	8.86904
0.161239	9.61012
0.181116	10.842
0.201	11.8285
0.220891	12.5695
0.240776	13.556
0.26066	14.5425
0.280558	15.0382
0.302668	15.5344
0.322559	16.2755
0.342463	16.5258
0.36458	16.7766
0.38669	17.2728
0.406595	17.5231
0.4265	17.7734
0.44861	18.2696
0.470727	18.5204
0.490631	18.7707
0.512748	19.0215
0.532653	19.2718
0.55477	19.5226
0.576887	19.7735
0.596785	20.2691
0.618902	20.52
0.641019	20.7708
0.663135	21.0216
0.68304	21.2719
0.702945	21.5222
0.725068	21.5276
0.747192	21.5331
0.769309	21.7839
0.791433	21.7893
0.813557	21.7947
0.835674	22.0456
0.855585	22.0505
0.877702	22.3013
0.899819	22.5521
0.921936	22.8029
0.941847	22.8078
0.963964	23.0586
0.986081	23.3095
1.00377	23.5592
1.02589	23.81
