Adsorption isotherm of Nitrogen on [Co3Cl4(pmc)2(CH3OH)4]
DOI: 10.1016/j.micromeso.2011.09.017
Adsorbate Nitrogen: InChIKey IJGRMHOSHXDMSA-UHFFFAOYSA-N
Temperature: 195 K
Tabular data in the source: 0
pressure (bar)	uptake (cm3(STP)/g)
0.0707281	2.47134
0.170224	4.70435
0.181272	5.19786
0.232136	5.94654
0.271932	6.9379
0.329433	7.6882
0.39136	8.4396
0.451066	9.43584
0.484252	9.44399
0.524054	10.19
0.555021	10.4429
0.5882	10.6965
0.674469	11.2085
0.75408	12.455
0.833719	12.7199
0.924406	13.4784
1.01289	13.7455
