Adsorption isotherm of Nitrogen on [Fe3(O)(pmc)5.3(O2CH)0.7]*DMF
DOI: 10.1016/j.micromeso.2011.09.017
Adsorbate Nitrogen: InChIKey IJGRMHOSHXDMSA-UHFFFAOYSA-N
Temperature: 195 K
Tabular data in the source: 0
pressure (bar)	uptake (cm3(STP)/g)
0.0365591	4.94268
0.0639312	6.58018
0.171149	13.4628
0.212211	16.0846
0.264648	18.0367
0.303432	20.66
0.358131	21.9483
0.415138	24.5595
0.49033	25.5031
0.515402	26.1487
0.554141	26.7853
0.620229	28.0661
0.665817	29.3604
0.713645	28.9976
0.743287	30.3025
0.793408	30.6004
0.827591	31.24
0.873156	31.541
0.916443	31.8434
0.968849	32.471
1.00986	32.7749
