Adsorption isotherm of Hydrogen on [Fe3(O)(pmc)5.3(O2CH)0.7]*DMF
DOI: 10.1016/j.micromeso.2011.09.017
Adsorbate Hydrogen: InChIKey UFHFLCQGNIYNRP-UHFFFAOYSA-N
Temperature: 87 K
Tabular data in the source: 0
pressure (bar)	uptake (cm3(STP)/g)
0.00456621	5.39653
0.0159817	16.1885
0.0456621	28.4438
0.0821918	39.2235
0.121005	46.5664
0.139269	48.5206
0.194064	54.8741
0.23516	58.2895
0.280822	62.1935
0.344749	65.1069
0.406393	68.0214
0.461187	69.4669
0.511416	71.8962
0.568493	74.3222
0.616438	75.2803
0.675799	77.2143
0.742009	78.6542
0.824201	80.0863
0.908676	81.5172
0.995434	82.947
