Adsorption isotherm of Methane on [Fe3(O)(pmc)5.3(O2CH)0.7]*DMF
DOI: 10.1016/j.micromeso.2011.09.017
Adsorbate Methane: InChIKey VNWKTOKETHGBQD-UHFFFAOYSA-N
Temperature: 195 K
Tabular data in the source: 0
pressure (bar)	uptake (cm3(STP)/g)
0.0162317	12.572
0.0255091	19.8507
0.0462211	29.1085
0.0576633	31.4188
0.101116	39.0059
0.160462	44.2646
0.203817	47.5471
0.267657	50.1539
0.333761	52.0968
0.393031	54.0444
0.468223	54.9879
0.536589	56.2672
0.609504	57.2122
0.66645	57.1745
0.684681	57.4936
0.739365	58.1196
0.766707	58.4326
0.81455	58.7321
0.848725	59.0406
0.894283	59.0104
0.935299	59.6455
0.953522	59.6334
0.976301	59.6183
0.99908	59.6033
1.02186	59.5882
1.03781	59.9087
