Adsorption isotherm of Hydrogen on [Fe3(O)(pmc)5.3(O2CH)0.7]*DMF
DOI: 10.1016/j.micromeso.2011.09.017
Adsorbate Hydrogen: InChIKey UFHFLCQGNIYNRP-UHFFFAOYSA-N
Temperature: 77 K
Tabular data in the source: 0
pressure (bar)	uptake (cm3(STP)/g)
0.00684932	21.5917
0.0114155	28.9515
0.0251142	37.7791
0.0319635	45.1377
0.0479452	52.9826
0.0684932	59.3529
0.0821918	63.7633
0.121005	70.1247
0.141553	72.5686
0.194064	78.4324
0.232877	81.3581
0.280822	84.2794
0.347032	87.6824
0.408676	90.1062
0.513699	92.9994
0.527397	93.4835
0.550228	93.4723
0.614155	95.4041
0.673516	96.3566
0.687215	96.8406
0.710046	97.3202
0.730594	97.8009
0.746575	97.7931
0.792237	99.2431
0.819635	97.7572
0.8379	99.2207
0.860731	99.7003
0.883562	100.18
0.901826	102.134
0.947489	100.639
0.97032	101.119
0.993151	101.108
