Adsorption isotherm of Oxygen on [Co3Cl4(pmc)2(CH3OH)4]
DOI: 10.1016/j.micromeso.2011.09.017
Adsorbate Oxygen: InChIKey MYMOFIZGZYHOMD-UHFFFAOYSA-N
Temperature: 195 K
Tabular data in the source: 0
pressure (bar)	uptake (cm3(STP)/g)
0.0110415	0.738906
0.0353708	0.990275
0.0729541	1.98109
0.121579	3.71082
0.172429	4.95029
0.223287	5.94436
0.280782	6.94007
0.342694	8.18226
0.402394	9.4239
0.47317	10.1775
0.541726	11.1759
0.610283	12.1743
0.692113	13.176
0.771739	13.9317
0.849151	14.6869
0.942044	15.6913
1.03273	16.4497
