Adsorption isotherm of Carbon Dioxide on [Fe3(O)(pmc)5.3(O2CH)0.7]*DMF
DOI: 10.1016/j.micromeso.2011.09.017
Adsorbate Carbon Dioxide: InChIKey CURLTUGMZLYLDI-UHFFFAOYSA-N
Temperature: 195 K
Tabular data in the source: 0
pressure (bar)	uptake (cm3(STP)/g)
0.00288882	26.8193
0.00303213	33.1106
0.00317544	39.4019
0.00558154	45.0294
0.00801026	51.6503
0.00813094	56.9483
0.0127847	61.2498
0.0266254	68.8565
0.0449691	74.1424
0.0678232	77.4385
0.122568	80.7135
0.15448	81.6858
0.186393	82.658
0.218306	83.6303
0.259323	84.2653
0.300332	84.5693
0.341364	85.8666
0.384651	86.1691
0.423397	87.1368
0.464406	87.4408
0.507693	87.7432
0.54871	88.3783
0.589719	88.6823
0.623895	88.9908
0.66719	89.6244
0.712755	89.9253
0.760605	90.5559
0.82213	91.5085
0.879092	92.1331
0.908719	92.7757
0.942902	93.4153
0.977063	93.0615
1.00213	93.7072
