Adsorption isotherm of Nitrogen on [Fe3(O)(pmc)5.3(O2CH)0.7]*DMF
DOI: 10.1016/j.micromeso.2011.09.017
Adsorbate Nitrogen: InChIKey IJGRMHOSHXDMSA-UHFFFAOYSA-N
Temperature: 77 K
Tabular data in the source: 0
pressure (bar)	uptake (cm3(STP)/g)
0.0251142	1.46007
0.0479452	1.93966
0.0821918	1.92285
0.123288	1.90268
0.173516	1.38723
0.223744	1.85338
0.278539	2.31728
0.3379	2.28815
0.399543	2.25789
0.47032	2.22316
0.541096	2.18842
0.611872	1.66288
0.684932	2.11783
0.76484	2.07861
0.847032	2.52906
0.926941	1.99905
1.01826	3.91742
