Adsorption isotherm of Oxygen on [Fe3(O)(pmc)5.3(O2CH)0.7]*DMF
DOI: 10.1016/j.micromeso.2011.09.017
Adsorbate Oxygen: InChIKey MYMOFIZGZYHOMD-UHFFFAOYSA-N
Temperature: 195 K
Tabular data in the source: 0
pressure (bar)	uptake (cm3(STP)/g)
0.022839	2.63388
0.0410846	3.61518
0.057075	5.59134
0.0844471	7.22884
0.134651	11.1691
0.18711	14.1145
0.225886	16.4067
0.287457	19.3461
0.328504	21.3056
0.376361	22.2673
0.431076	24.2178
0.478941	25.5106
0.533648	27.13
0.581506	28.0917
0.631656	29.7141
0.68634	30.3402
0.736484	31.6315
0.786619	32.5916
0.836748	33.2207
0.884606	34.1824
0.937012	34.8099
1.00765	35.7565
