Adsorption isotherm of Oxygen on [Fe3(O)(pmc)5.3(O2CH)0.7]*DMF
DOI: 10.1016/j.micromeso.2011.09.017
Adsorbate Oxygen: InChIKey MYMOFIZGZYHOMD-UHFFFAOYSA-N
Temperature: 87 K
Tabular data in the source: 0
pressure (bar)	uptake (cm3(STP)/g)
0.00228311	0.00228311
0.00456621	76.0714
0.00684932	84.9046
0.00913242	98.155
0.0114155	102.08
0.0159817	106.495
0.0251142	109.436
0.0365297	114.338
0.0525114	117.275
0.06621	121.194
0.086758	122.657
0.100457	126.086
0.121005	127.548
0.139269	128.521
0.159817	130.965
0.171233	130.959
0.189498	132.422
0.212329	133.393
0.232877	134.855
0.251142	135.337
0.273973	136.307
0.328767	137.753
0.351598	138.723
0.372146	139.204
0.392694	139.685
0.408676	140.168
0.461187	141.614
0.513699	142.57
0.56621	142.544
0.621005	144.48
0.678082	145.434
0.737443	146.387
