Adsorption isotherm of Nitrogen on [Co3Cl4(pmc)2(CH3OH)4]
DOI: 10.1016/j.micromeso.2011.09.017
Adsorbate Nitrogen: InChIKey IJGRMHOSHXDMSA-UHFFFAOYSA-N
Temperature: 77 K
Tabular data in the source: 0
pressure (bar)	uptake (cm3(STP)/g)
0.0530834	0.503824
0.0796319	0.510339
0.110605	0.51794
0.143791	0.526084
0.181394	0.78071
0.223436	0.545629
0.265471	0.555944
0.31415	0.322491
0.367247	0.335521
0.41592	0.347465
0.477859	0.608064
0.537593	0.622722
0.597321	0.882778
0.670329	0.900694
0.752187	0.920782
0.834052	0.695473
0.91369	0.960415
0.975494	6.12896
1.00417	9.32618
1.00851	12.272
