Adsorption isotherm of Carbon Dioxide on C35H30N2O8Rh2
DOI: 10.1039/B704977c
Adsorbate Carbon Dioxide: InChIKey CURLTUGMZLYLDI-UHFFFAOYSA-N
Temperature: 293 K
Tabular data in the source: 0
pressure (bar)	uptake (cm3(STP)/g)
0.00585345	0.70548
0.0177418	0.898502
0.0474865	1.2208
0.0742615	1.47882
0.104025	1.67292
0.124832	1.99468
0.151607	2.2527
0.178392	2.44662
0.205176	2.64054
0.228972	2.89838
0.258736	3.09247
0.279552	3.35013
0.306337	3.54405
0.333122	3.73797
0.359906	3.93189
0.386691	4.1258
0.413475	4.31972
0.43729	4.44936
0.464065	4.70738
0.49085	4.9013
0.514655	5.09503
0.541439	5.28895
0.595009	5.67679
0.618823	5.80642
0.645617	5.93624
0.672402	6.13016
0.699187	6.32407
0.723001	6.45371
0.752765	6.64781
0.773601	6.77726
0.800395	6.90708
0.830168	7.03707
0.853983	7.16671
0.880777	7.29653
0.904592	7.42616
0.95522	7.55741
0.982014	7.68723
1.00883	7.68884
