Adsorption isotherm of Carbon Dioxide on [Rh(II)2(bza)4(2-epyz)]n
DOI: 10.1039/B704977c
Adsorbate Carbon Dioxide: InChIKey CURLTUGMZLYLDI-UHFFFAOYSA-N
Temperature: 195 K
Tabular data in the source: 0
pressure (bar)	uptake (cm3(STP)/g)
0.00300478	1.983
0.00902269	6.23229
0.0975468	10.7649
0.150606	11.6147
0.185962	11.6147
0.221344	12.4646
0.239164	17.2805
0.248212	24.3626
0.251392	32.2946
0.257526	40.5099
0.263528	44.1926
0.266708	52.1246
0.275664	56.0907
0.275755	59.2068
0.278785	62.0397
0.28179	64.0227
0.293667	67.1388
0.293717	68.8385
0.305561	70.8215
0.308532	71.6714
0.317405	72.8045
0.332162	73.6544
0.343964	74.221
0.370531	75.9207
0.41774	78.187
0.470841	80.4533
0.520979	82.153
0.574063	83.8527
0.627139	85.2691
0.677261	86.4023
0.733266	87.2521
0.783371	87.8187
0.836431	88.6686
0.886535	89.2351
0.939586	89.8017
0.995584	90.3683
1.05748	91.2181
