Adsorption isotherm of Carbon Dioxide on C35H30N2O8Rh2
DOI: 10.1039/B704977c
Adsorbate Carbon Dioxide: InChIKey CURLTUGMZLYLDI-UHFFFAOYSA-N
Temperature: 195 K
Tabular data in the source: 0
pressure (bar)	uptake (cm3(STP)/g)
0.00765819	8.5902
0.0195083	9.03963
0.0461496	10.1951
0.0728769	10.7736
0.0996137	11.288
0.126351	11.8025
0.147138	12.2524
0.170905	12.7026
0.197661	13.0888
0.224408	13.5391
0.248194	13.8611
0.27494	14.3114
0.301706	14.6335
0.322513	14.9553
0.349269	15.3415
0.379013	15.6638
0.39982	15.9856
0.429565	16.3079
0.450372	16.6296
0.477128	17.0159
0.500924	17.2737
0.524719	17.5315
0.551475	17.9178
0.575281	18.1115
0.602046	18.4336
0.625842	18.6915
0.652607	19.0136
0.676403	19.2714
0.703178	19.5294
0.729943	19.8516
0.756738	19.9814
0.777554	20.239
0.804329	20.4971
0.831123	20.6269
0.854928	20.8206
0.878715	21.1426
0.902539	21.2081
0.935292	21.3383
0.956127	21.4677
0.979942	21.5974
1.00378	21.5988
