Adsorption isotherm of Carbon Dioxide on [Rh(II)2(bza)4(pyz)]n
DOI: 10.1039/B704977c
Adsorbate Carbon Dioxide: InChIKey CURLTUGMZLYLDI-UHFFFAOYSA-N
Temperature: 195 K
Tabular data in the source: 0
pressure (bar)	uptake (cm3(STP)/g)
0.000434024	14.7309
0.0034555	17.2805
0.00376432	27.762
0.00650201	20.6799
0.00660217	24.0793
0.00686091	32.8612
0.0100159	39.9433
0.0191221	49.0085
0.0341627	59.4901
0.0432104	66.5722
0.0522498	73.3711
0.058276	77.9037
0.0701533	81.0198
0.0790674	83.5694
0.0879399	84.7025
0.0938827	86.4023
0.123413	88.6686
0.147026	90.085
0.173576	91.2181
0.197172	92.068
0.223706	92.6346
0.253178	92.9178
0.276774	93.7677
0.300353	94.051
0.326878	94.3343
0.350457	94.6176
0.379929	94.9008
0.403509	95.1841
0.430034	95.4674
0.453605	95.4674
0.48013	95.7507
0.506656	96.034
0.527289	96.3173
0.556752	96.3173
0.580331	96.6006
0.636312	96.6006
0.659891	96.8839
0.686409	96.8839
0.707041	97.1671
0.736505	97.1671
0.760076	97.1671
0.786593	97.1671
0.81311	97.1671
0.836681	97.1671
0.863215	97.7337
0.886777	97.4504
0.913294	97.4504
0.939812	97.4504
0.966329	97.4504
0.992838	97.1671
1.02819	96.8839
