Adsorption isotherm of Nitrogen on COP
DOI: 10.1002/smll.202102944
Article source: Figure S7A
Adsorbate Nitrogen: InChIKey IJGRMHOSHXDMSA-UHFFFAOYSA-N
Kind: experiment
Temperature: 77 K
Tabular data in the source: 0
pressure (bar)	uptake (cm3(STP)/g)
0.010421	6.82386
0.058167	9.08603
0.090907	10.0106
0.131832	10.7288
0.172302	11.3955
0.211862	11.9078
0.254606	12.3169
0.292803	12.9323
0.332818	13.4446
0.375107	13.9567
0.415123	14.3661
0.454229	14.6725
0.496518	15.3391
0.536078	15.6969
0.576094	16.2607
0.616564	16.6185
0.657034	17.2337
0.698868	17.9003
0.738884	18.3097
0.779354	19.2338
0.820279	20.3123
0.85984	21.6998
0.8994	23.3447
0.938506	26.9974
0.960333	31.0888
0.970791	34.4345
0.982159	39.0928
0.989435	46.2483
0.997165	58.5004
1.00217	75.2831
1.00262	75.1801
0.991709	60.3026
0.980341	47.8963
0.96579	39.7631
0.948055	34.5131
0.906676	29.728
0.863932	27.517
0.823007	26.181
0.781173	25.5144
0.740703	25.0021
0.700687	24.5413
0.678406	24.4398
0.638845	23.876
0.597466	23.7242
0.556086	23.4179
0.516525	23.1115
0.475146	22.4449
0.434676	22.0356
0.39557	21.6262
0.35419	21.1655
0.314629	20.9106
0.27234	20.3984
0.231415	19.9377
0.1914	19.4769
0.15093	18.9131
0.111369	18.2979
0.070444	17.5797
0.031338	16.3466
0.01315	15.3181
