Adsorption isotherm of Nitrogen on Tph-BDP
DOI: 10.1002/smll.202102944
Article source: Figure 2F
Adsorbate Nitrogen: InChIKey IJGRMHOSHXDMSA-UHFFFAOYSA-N
Kind: experiment
Temperature: 77 K
Tabular data in the source: 0
pressure (bar)	uptake (cm3(STP)/g)
0.000314	20.1637
0.004767	37.6711
0.010333	41.972
0.054165	50.4773
0.090092	53.8622
0.136236	56.5324
0.173325	58.4843
0.213916	59.9249
0.254506	61.3656
0.294806	62.9085
0.335105	64.5539
0.376861	65.3805
0.415115	66.5135
0.455704	67.5447
0.496002	68.7805
0.536592	69.914
0.576598	71.2521
0.61865	72.8978
0.656904	74.2356
0.698373	76.1883
0.742178	78.2438
0.778396	81.2193
0.817537	85.1167
0.859019	90.3455
0.89731	100.385
0.937691	121.38
0.95558	140.016
0.968208	157.423
0.979093	177.184
0.987941	198.275
0.999145	224.281
1.00541	255.507
1.00541	255.712
0.995703	239.023
0.985706	222.333
0.976001	205.746
0.971006	198.272
0.965136	191.002
0.923485	145.539
0.879856	115.739
0.845649	104.881
0.78926	95.8613
0.743696	92.1674
0.702518	89.9077
0.679449	89.1869
0.638564	87.1319
0.598559	86.2033
0.557969	84.9162
0.517086	83.5267
0.479696	79.3224
0.435887	76.3456
0.396465	75.2123
0.336894	73.3587
0.314993	72.7404
0.274696	71.7094
0.234397	70.2688
0.192638	68.8279
0.152922	67.0803
0.11233	65.3326
0.071445	63.2776
0.03084	58.5609
0.010966	53.8479
