Adsorption isotherm of Nitrogen on Amine-MIL-101(Cr)
DOI: 10.1039/C3cc43352h
Adsorbate Nitrogen: InChIKey IJGRMHOSHXDMSA-UHFFFAOYSA-N
Temperature: 77 K
Tabular data in the source: 0
pressure (bar)	uptake (cm3(STP)/g)
0.00650032	337.01
0.0319231	417.319
0.0607356	479.558
0.111581	557.86
0.165816	602.029
0.199713	628.13
0.252254	660.253
0.320048	684.346
0.365809	690.369
0.450552	706.431
0.550548	732.531
0.652239	754.616
0.75393	780.717
0.838673	812.84
0.896298	852.995
0.930195	889.134
0.955617	929.288
0.974261	991.528
0.996294	1095.93
