Adsorption isotherm of Methane on 100WT%-PEI-MIL-101(Cr)
DOI: 10.1039/C3cc43352h
Adsorbate Methane: InChIKey VNWKTOKETHGBQD-UHFFFAOYSA-N
Temperature: 298 K
Tabular data in the source: 0
pressure (bar)	uptake (mmol/g)
0.00614139	0.0191201
0.220298	0.0325049
0.61515	0.0458897
1.01	0.0726593
1.1907	0.0659669
1.40485	0.0726593
1.59559	0.0726593
1.79636	0.0927365
2.00717	0.0994289
2.19456	0.0860441
