Adsorption isotherm of Nitrogen on 75WT%-PEI-MIL-101(Cr)
DOI: 10.1039/C3cc43352h
Adsorbate Nitrogen: InChIKey IJGRMHOSHXDMSA-UHFFFAOYSA-N
Temperature: 77 K
Tabular data in the source: 0
pressure (bar)	uptake (cm3(STP)/g)
0.00989002	27.821
0.0759892	47.8982
0.18446	61.9522
0.279372	65.9677
0.438688	76.0063
0.533599	82.0295
0.64207	92.0681
0.736982	102.107
0.818334	122.184
0.870875	136.238
0.918331	164.346
0.948838	194.462
0.974261	246.663
0.98782	282.802
0.996294	306.894
