Adsorption isotherm of Carbon Dioxide on 75WT%-PEI-MIL-101(Cr)
DOI: 10.1039/C3cc43352h
Adsorbate Carbon Dioxide: InChIKey CURLTUGMZLYLDI-UHFFFAOYSA-N
Temperature: 298 K
Tabular data in the source: 0
pressure (bar)	uptake (mmol/g)
0.00948759	1.41114
0.0128338	0.0458897
0.0462958	2.54885
0.166759	2.97716
0.340762	3.19801
0.47461	3.31178
0.658651	3.41217
1.03343	3.59287
1.4082	3.74679
1.75621	3.85387
2.14102	3.92079
