Adsorption isotherm of Methane on 75WT%-PEI-MIL-101(Cr)
DOI: 10.1039/C3cc43352h
Adsorbate Methane: InChIKey VNWKTOKETHGBQD-UHFFFAOYSA-N
Temperature: 298 K
Tabular data in the source: 0
pressure (bar)	uptake (mmol/g)
0.01618	0.0391973
0.287222	0.0592745
0.621843	0.0726593
0.80923	0.0860441
1.02673	0.0927365
1.32455	0.112814
1.60897	0.132891
1.8064	0.152968
2.00382	0.173045
2.18117	0.199815
