Adsorption isotherm of Carbon Dioxide on Amine-MIL-101(Cr)
DOI: 10.1039/C3cc43352h
Adsorbate Carbon Dioxide: InChIKey CURLTUGMZLYLDI-UHFFFAOYSA-N
Temperature: 298 K
Tabular data in the source: 0
pressure (bar)	uptake (mmol/g)
0.0128338	0.0458897
0.103181	0.701746
0.21026	0.982827
0.360839	1.15683
0.524803	1.28398
0.795845	1.48476
1.09031	1.65207
1.26766	1.74576
1.41155	1.81938
1.5889	1.87961
1.79301	1.95323
1.9804	2.01346
2.1611	2.10715
