Adsorption isotherm of Nitrogen on 50WT%-PEI-MIL-101(Cr)
DOI: 10.1039/C3cc43352h
Adsorbate Nitrogen: InChIKey IJGRMHOSHXDMSA-UHFFFAOYSA-N
Temperature: 77 K
Tabular data in the source: 0
pressure (bar)	uptake (cm3(STP)/g)
0.0115849	136.238
0.0353128	184.423
0.0624304	216.547
0.12175	236.624
0.167511	258.709
0.24039	272.763
0.338691	284.809
0.447162	294.848
0.547158	302.879
0.650544	316.933
0.752235	335.002
0.857316	363.111
0.911551	387.203
0.950533	429.365
0.975956	485.582
0.982735	529.751
0.994599	553.844
