Adsorption isotherm of Methane on 50WT%-PEI-MIL-101(Cr)
DOI: 10.1039/C3cc43352h
Adsorbate Methane: InChIKey VNWKTOKETHGBQD-UHFFFAOYSA-N
Temperature: 298 K
Tabular data in the source: 0
pressure (bar)	uptake (mmol/g)
0.00948759	0.0391973
0.206914	0.0860441
0.390955	0.132891
0.611804	0.173045
0.996618	0.266739
1.37139	0.326971
1.74951	0.427357
1.94694	0.460819
2.13767	0.521051
