Adsorption isotherm of Methane on Amine-MIL-101(Cr)
DOI: 10.1039/C3cc43352h
Adsorbate Methane: InChIKey VNWKTOKETHGBQD-UHFFFAOYSA-N
Temperature: 298 K
Tabular data in the source: 0
pressure (bar)	uptake (mmol/g)
0.0128338	0.0325049
0.193529	0.146276
0.387609	0.253354
0.574996	0.347048
0.785807	0.440742
1.14385	0.614744
1.51528	0.76867
1.88002	0.942672
2.07744	1.02967
