Adsorption isotherm of Carbon Dioxide on 100WT%-PEI-MIL-101(Cr)
DOI: 10.1039/C3cc43352h
Adsorbate Carbon Dioxide: InChIKey CURLTUGMZLYLDI-UHFFFAOYSA-N
Temperature: 298 K
Tabular data in the source: 0
pressure (bar)	uptake (mmol/g)
0.00614139	0.0391973
0.00948759	1.10998
0.0262186	2.14061
0.0864503	2.65593
0.267145	2.89685
0.424417	3.04409
0.608458	3.11101
0.792499	3.19132
1.15389	3.35863
1.50859	3.50586
1.87667	3.63302
2.05736	3.6464
