Adsorption isotherm of Nitrogen on 100WT%-PEI-MIL-101(Cr)
DOI: 10.1039/C3cc43352h
Adsorbate Nitrogen: InChIKey IJGRMHOSHXDMSA-UHFFFAOYSA-N
Temperature: 77 K
Tabular data in the source: 0
pressure (bar)	uptake (cm3(STP)/g)
0.00650032	5.73602
0.0641253	11.7592
0.118361	15.7746
0.187849	17.7823
0.262423	21.7978
0.321743	25.8132
0.399706	29.8287
0.465805	31.8364
0.548853	37.8596
0.659018	45.8905
0.736982	59.9445
0.821724	73.9986
0.874265	88.0526
0.911551	102.107
0.955617	136.238
0.974261	166.354
0.989514	204.501
0.997989	234.616
