Adsorption isotherm of Carbon Dioxide on 50WT%-PEI-MIL-101(Cr)
DOI: 10.1039/C3cc43352h
Adsorbate Carbon Dioxide: InChIKey CURLTUGMZLYLDI-UHFFFAOYSA-N
Temperature: 298 K
Tabular data in the source: 0
pressure (bar)	uptake (mmol/g)
0.00948759	0.0391973
0.0630268	1.29068
0.196875	1.74576
0.360839	2.067
0.534842	2.30123
0.695459	2.52877
0.859423	2.70947
1.03008	2.88347
1.18735	3.07086
1.36135	3.21809
1.54205	3.35863
1.72944	3.53263
1.91348	3.68656
2.10421	3.74679
