Adsorption isotherm of Nitrogen on BDT COF
DOI: 10.1039/c6ce00193a
Article source: Figure S12
Adsorbate Nitrogen: InChIKey IJGRMHOSHXDMSA-UHFFFAOYSA-N
Kind: experiment
Temperature: 77 K
Tabular data in the source: 0
pressure (bar)	uptake ()
0.992676	1132.52
0.956935	1073.44
0.964293	1051.29
0.934859	1008.46
0.938013	1043.91
0.912783	998.121
0.908579	1027.66
0.886503	987.783
0.882298	1015.84
0.86653	981.875
0.859171	1008.46
0.839198	975.968
0.832891	1001.08
0.808713	962.675
0.810815	993.691
0.789791	962.675
0.787688	987.783
0.754049	955.291
0.759305	980.398
0.734076	950.86
0.729871	981.875
0.707795	943.476
0.707795	974.491
0.683617	944.953
0.683617	968.583
0.657337	937.568
0.657337	967.106
0.633158	931.66
0.630005	962.675
0.607929	928.706
0.604775	956.768
0.581649	924.276
0.579546	956.768
0.556419	919.845
0.556419	950.86
0.530139	916.891
0.530139	940.522
0.508063	936.091
0.507012	906.553
0.483885	919.845
0.478629	894.737
0.456553	890.307
0.448143	905.076
0.42817	896.214
0.42817	891.784
0.405043	894.737
0.403992	890.307
0.380865	891.784
0.380865	879.968
0.354585	882.922
0.357738	877.015
0.335663	874.061
0.327253	872.584
0.306228	863.722
0.302024	848.953
0.292563	853.384
0.288358	845.999
0.274692	848.953
0.277845	838.615
0.252616	791.354
0.251565	758.861
0.237899	661.385
0.228438	659.908
0.215823	609.693
0.203209	597.878
0.191645	580.155
0.180082	568.34
0.168518	547.663
0.15275	526.986
0.150648	521.078
0.136982	503.356
0.127521	500.402
0.113855	472.34
0.099138	467.91
0.088626	444.279
0.070755	419.172
0.051833	401.449
0.048679	394.064
0.029757	357.141
0.012938	293.634
0.008733	278.865
0.00663	243.419
0.007681	237.511
0.001374	44.0356
