Adsorption isotherm of Nitrogen on BDT:BDT-OEt 1:1 COF
DOI: 10.1039/c6ce00193a
Article source: Figure S12
Adsorbate Nitrogen: InChIKey IJGRMHOSHXDMSA-UHFFFAOYSA-N
Kind: experiment
Temperature: 77 K
Tabular data in the source: 0
pressure (bar)	uptake ()
0.996258	845.058
0.955624	819.163
0.961165	810.531
0.939002	810.531
0.937155	799.741
0.911297	804.057
0.911297	799.741
0.887286	804.057
0.89098	797.583
0.861429	788.951
0.855888	799.741
0.835571	797.583
0.833724	784.635
0.81156	793.267
0.809713	782.477
0.783856	791.109
0.783856	782.477
0.757998	786.793
0.761692	773.846
0.733988	788.951
0.733988	773.846
0.711824	773.846
0.702589	784.635
0.682272	769.53
0.680425	786.793
0.661956	786.793
0.652721	767.372
0.632404	763.056
0.632404	778.161
0.604699	758.74
0.606546	776.003
0.584383	756.582
0.582536	773.846
0.556678	752.266
0.556678	769.53
0.527126	745.792
0.53082	771.688
0.503116	741.476
0.504963	767.372
0.480952	763.056
0.477258	741.476
0.455094	735.002
0.453247	747.95
0.431084	741.476
0.429237	737.16
0.407073	728.528
0.403379	732.844
0.379368	728.528
0.379368	726.37
0.351664	722.054
0.362746	717.738
0.327653	717.738
0.331347	711.265
0.309183	706.949
0.30549	706.949
0.288867	706.949
0.288867	706.949
0.274091	700.475
0.264856	694.001
0.253774	691.843
0.253774	687.527
0.233458	659.473
0.227917	657.315
0.211294	564.523
0.203906	540.786
0.192824	501.942
0.176201	482.521
0.17066	471.731
0.157732	447.993
0.152191	445.835
0.133721	422.098
0.126333	415.624
0.111557	387.57
0.102322	381.096
0.093087	365.991
0.070924	342.253
0.054301	314.199
0.04876	305.568
0.03029	277.514
0.009974	232.197
0.008127	230.039
0.004433	217.091
0.00628	210.617
0.004433	167.458
