Adsorption isotherm of Nitrogen on BDT:BDT-OEt 3:1 COF
DOI: 10.1039/c6ce00193a
Article source: Figure S12
Adsorbate Nitrogen: InChIKey IJGRMHOSHXDMSA-UHFFFAOYSA-N
Kind: experiment
Temperature: 77 K
Tabular data in the source: 0
pressure (bar)	uptake (cm3(STP)/g)
0.991119	970.106
0.962354	949.401
0.960141	939.049
0.93912	937.755
0.934695	928.696
0.913674	932.578
0.915887	926.108
0.883802	926.108
0.889334	919.638
0.860569	923.52
0.862781	910.579
0.83291	919.638
0.836229	907.991
0.80857	915.756
0.807463	893.757
0.790868	896.345
0.779804	914.462
0.75989	913.168
0.756571	889.874
0.730018	885.992
0.731124	902.815
0.708997	901.521
0.705678	880.816
0.679125	875.64
0.676913	898.933
0.654785	870.464
0.658104	895.051
0.630445	867.875
0.629339	888.58
0.603893	858.817
0.607212	885.992
0.57734	860.111
0.583978	883.404
0.553	853.641
0.553	878.228
0.533086	851.053
0.529767	876.934
0.505427	844.582
0.502108	870.464
0.47998	861.405
0.481087	836.818
0.45564	841.994
0.45564	830.348
0.430194	830.348
0.429088	826.466
0.402535	822.583
0.403641	818.701
0.378195	816.113
0.377089	816.113
0.354961	809.643
0.356068	810.937
0.330621	803.172
0.328409	803.172
0.304069	792.82
0.28858	785.056
0.275303	777.291
0.256495	764.351
0.253176	742.352
0.234368	628.474
0.22773	611.651
0.212241	548.243
0.200071	528.832
0.192326	513.303
0.17905	495.186
0.174625	488.716
0.153604	466.717
0.133689	443.424
0.129264	436.953
0.112668	417.542
0.103817	408.484
0.089435	392.955
0.067307	364.486
0.050712	346.369
0.047393	337.311
0.029691	302.371
0.009777	255.785
0.009777	245.432
0.007564	213.081
0.006458	211.787
0.002032	117.321
