Adsorption isotherm of Nitrogen on BDT:BDT-OEt 1:3 COF
DOI: 10.1039/c6ce00193a
Article source: Figure S12
Adsorbate Nitrogen: InChIKey IJGRMHOSHXDMSA-UHFFFAOYSA-N
Kind: experiment
Temperature: 77 K
Tabular data in the source: 0
pressure (bar)	uptake (cm3(STP)/g)
0.992554	944.24
0.992554	944.24
0.961771	915.743
0.963053	903.744
0.936118	902.244
0.934836	888.745
0.906618	896.244
0.911749	888.745
0.888661	888.745
0.884813	878.246
0.863009	872.246
0.856596	881.245
0.834791	882.745
0.832226	863.247
0.811704	857.247
0.807856	875.246
0.783486	854.248
0.783486	869.246
0.760399	843.748
0.756551	866.247
0.732182	843.748
0.732182	866.247
0.710377	834.749
0.707812	863.247
0.683442	828.75
0.679594	860.247
0.655224	824.25
0.656507	854.248
0.634702	819.75
0.630855	849.748
0.607767	816.751
0.606485	842.249
0.580832	807.751
0.582115	839.249
0.55518	833.249
0.551332	806.252
0.533375	797.252
0.529527	824.25
0.50131	822.75
0.498745	791.253
0.475657	786.753
0.479505	812.251
0.457701	776.254
0.453853	794.252
0.429483	782.253
0.4282	768.755
0.401265	771.754
0.405113	764.255
0.376896	767.255
0.379461	759.755
0.355091	761.255
0.355091	749.256
0.329439	749.256
0.325591	737.257
0.306351	728.258
0.302504	743.257
0.284547	738.757
0.289677	720.758
0.274286	716.259
0.271721	734.257
0.249916	722.258
0.247351	708.759
0.228112	699.76
0.231959	689.261
0.214003	635.265
0.198611	623.266
0.190916	572.27
0.176807	543.773
0.171676	519.774
0.149872	485.277
0.15372	479.278
0.135763	449.28
0.122937	449.28
0.108828	420.782
0.098567	410.283
0.092154	393.784
0.070349	359.287
0.054958	330.79
0.049827	324.79
0.029305	291.793
0.013914	245.296
0.008783	239.297
0.003653	221.298
0.00237	164.303
