Adsorption isotherm of Nitrogen on BDt-OEt COF
DOI: 10.1039/c6ce00193a
Article source: Figure 1b/S12
Adsorbate Nitrogen: InChIKey IJGRMHOSHXDMSA-UHFFFAOYSA-N
Kind: experiment
Temperature: 77 K
Tabular data in the source: 0
pressure (bar)	uptake (cm3(STP)/g)
0.993816	690.803
0.962234	678.937
0.964339	675.971
0.939074	674.982
0.939074	670.038
0.911703	668.06
0.91065	662.128
0.886437	655.206
0.881173	667.072
0.863277	663.116
0.858013	652.239
0.835906	651.251
0.832748	660.15
0.809588	659.161
0.809588	646.307
0.784322	645.318
0.783269	659.161
0.759057	656.195
0.758004	639.385
0.732738	638.396
0.730633	649.273
0.707473	637.407
0.703262	654.217
0.680102	635.43
0.677996	649.273
0.655889	633.452
0.654836	648.284
0.631676	631.474
0.629571	646.307
0.607463	626.53
0.603252	641.362
0.58325	624.553
0.580092	641.362
0.553774	621.586
0.551668	638.396
0.527456	617.631
0.527456	636.418
0.506401	613.676
0.505348	634.441
0.480083	628.508
0.477977	612.687
0.456923	603.788
0.447448	617.631
0.426393	611.698
0.430604	600.821
0.403233	595.877
0.406391	604.776
0.382179	600.821
0.37902	585.989
0.359019	585.989
0.349544	592.911
0.331648	579.067
0.329542	588.955
0.308487	585
0.303224	575.112
0.28638	570.168
0.288486	579.067
0.2748	577.09
0.273747	567.201
0.254798	559.291
0.248482	568.19
0.229533	560.28
0.236902	553.358
0.217953	545.448
0.199003	542.481
0.192687	517.761
0.174791	499.962
0.172685	480.186
0.147419	449.533
0.154789	443.6
0.132681	408.002
0.125312	410.969
0.111627	385.26
0.101099	373.394
0.091625	355.595
0.073728	329.886
0.04741	294.289
0.050568	293.3
0.030566	257.702
0.009512	211.228
0.009512	207.273
0.006353	191.452
0.006353	188.485
0.003195	53.0179
