Adsorption isotherm of Argon on BLP-2(H)
DOI: 10.1039/C2cc33583b
Article source: Figure S6
Adsorbate Argon: InChIKey XKRFYHLGVUSROY-UHFFFAOYSA-N
Kind: experiment
Isotherm type: excess
Temperature: 87 K
Tabular data in the source: 0
pressure (bar)	uptake (cm3(STP)/g)
0.0007	145.348
0.001	173.486
0.0024	193.126
0.0028	237.316
0.0056	258.592
0.0069	270.867
0.0097	283.961
0.0236	306.056
0.05	328.969
0.0472	337.152
0.0736	342.062
0.1013	351.064
0.1013	359.247
0.1541	367.43
0.2013	383.797
0.2026	376.432
0.2526	385.434
0.304	393.617
0.3026	400.982
0.3553	400.982
0.4039	413.257
0.4067	408.347
0.458	414.075
0.5066	425.532
0.508	419.804
0.5594	424.714
0.6066	436.988
0.6107	430.442
0.6607	435.352
0.7079	446.809
0.7107	441.898
0.762	446.809
0.8064	458.265
0.8148	452.537
0.8578	460.72
0.8647	458.265
0.9119	465.63
0.9355	468.903
0.9619	472.177
0.9883	475.45
1.0091	477.087
