Adsorption isotherm of Hydrogen on BLP-2(H)
DOI: 10.1039/C2cc33583b
Article source: Figure S12
Adsorbate Hydrogen: InChIKey UFHFLCQGNIYNRP-UHFFFAOYSA-N
Kind: experiment
Isotherm type: excess
Temperature: 77 K
Tabular data in the source: 0
pressure (bar)	uptake (cm3(STP)/g)
0.3187	105.285
1.9522	200.406
3.2669	226.423
4.4223	240.244
5.259	247.561
6.0558	253.658
6.9323	258.943
8.008	264.634
9.004	268.293
10.0398	271.951
11.6335	276.016
13.8645	280.894
16.0956	283.333
18.247	285.772
20.0797	286.585
22.1116	286.992
23.9442	286.992
25.9761	286.585
28.008	286.179
30.0398	284.553
31.992	282.927
34.0637	281.301
35.9761	279.675
37.9681	278.049
40	276.016
