Adsorption isotherm of Hydrogen on BLP-2(H)
DOI: 10.1039/C2cc33583b
Article source: Figure S10
Adsorbate Hydrogen: InChIKey UFHFLCQGNIYNRP-UHFFFAOYSA-N
Kind: experiment
Isotherm type: excess
Temperature: 87 K
Tabular data in the source: 0
pressure (bar)	uptake (cm3(STP)/g)
0.0076	3.4111
0.0165	5.7726
0.0267	7.8717
0.0395	10.758
0.0471	14.1691
0.0624	15.7434
0.0726	17.8426
0.0789	19.6793
0.084	20.7289
0.1031	24.1399
0.1273	28.863
0.1553	33.3236
0.2011	40.6706
0.2546	47.2303
0.3042	53.2653
0.3539	59.0379
0.4061	64.2857
0.457	68.484
0.5092	73.4694
0.5575	77.6676
0.6136	82.1283
0.6619	85.8017
0.7103	89.2128
0.7612	92.6239
0.8121	96.035
0.863	99.1837
0.9165	102.332
0.9636	105.481
1.0082	107.58
