Adsorption isotherm of Hydrogen on BLP-2(H)
DOI: 10.1039/C2cc33583b
Article source: Figure S10
Adsorbate Hydrogen: InChIKey UFHFLCQGNIYNRP-UHFFFAOYSA-N
Kind: experiment
Isotherm type: excess
Temperature: 77 K
Tabular data in the source: 0
pressure (bar)	uptake (cm3(STP)/g)
0.0089	9.7085
0.0191	17.0554
0.0306	24.4023
0.0407	28.6006
0.0484	34.3732
0.0636	39.3586
0.0738	43.5569
0.0789	46.1808
0.0891	50.6414
0.1006	54.0525
0.1273	61.6618
0.1528	68.7464
0.2011	81.6035
0.252	91.0496
0.3017	100.758
0.3551	107.58
0.4061	116.502
0.4557	121.487
0.5066	128.309
0.5601	133.032
0.6059	138.805
0.6606	142.74
0.7077	147.201
0.7625	151.399
0.8083	155.598
0.8643	159.271
0.9063	162.945
0.9598	165.568
1.0133	168.717
