Adsorption isotherm of Hydrogen on BLP-2(H)
DOI: 10.1039/C2cc33583b
Article source: Figure S12
Adsorbate Hydrogen: InChIKey UFHFLCQGNIYNRP-UHFFFAOYSA-N
Kind: experiment
Isotherm type: excess
Temperature: 87 K
Tabular data in the source: 0
pressure (bar)	uptake (cm3(STP)/g)
0.4781	73.5772
2.2311	148.374
3.4263	171.545
4.3426	182.52
5.1793	191.057
5.9363	197.967
6.9721	205.285
7.9283	210.976
9.004	217.073
10	221.545
11.6335	226.423
13.7849	232.114
16.0159	236.585
18.0876	240.244
20.1992	241.87
22.0319	244.309
24.1036	244.715
25.9761	245.529
28.008	247.561
30	247.561
31.992	247.154
34.0637	246.342
36.0159	246.748
37.8884	245.529
39.9203	245.122
