Adsorption isotherm of Nitrogen on ([Co@Zn3(L)(H2L)(DMF)(DABCO)]
DOI: 10.1021/cg500978s
Adsorbate Nitrogen: InChIKey IJGRMHOSHXDMSA-UHFFFAOYSA-N
Temperature: 77 K
Tabular data in the source: 0
pressure (bar)	uptake (cm3(STP)/g)
0.000227675	6.59302
0.000436377	12.6366
0.000664051	19.2296
0.0011194	32.4157
0.00132811	38.4593
0.00159372	46.1511
0.00321275	26.3682
0.00356691	103.291
0.00410447	52.1908
0.00433214	58.7839
0.00454085	64.8275
0.00461042	133.509
0.00474322	137.355
0.00480647	72.5193
0.00501517	78.5629
0.00518593	83.5077
0.0052555	152.189
0.00543257	90.6501
0.0056982	98.342
0.00605868	108.781
0.00674171	128.56
0.00740575	147.79
0.00769035	156.031
0.00860738	115.919
0.00877813	120.864
0.0147862	161.513
0.0218441	165.897
0.0312041	170.277
0.0381861	172.463
0.0566784	174.629
0.0682455	176.258
0.0843978	177.329
0.100569	178.95
0.112117	180.03
0.12827	181.101
0.146704	181.619
0.160536	182.145
0.174386	183.221
0.1905	183.193
0.211238	183.708
0.236618	185.313
0.268922	187.456
0.298868	187.954
0.331134	188.999
0.363363	188.944
0.391006	189.446
0.423235	189.392
0.455501	190.436
0.485466	191.484
0.52462	191.967
0.549923	191.375
0.584492	192.415
0.614399	191.815
0.64893	191.756
0.678914	193.354
0.713425	192.746
0.738767	193.252
0.77326	192.095
0.803186	192.044
0.837736	192.535
0.8677	193.583
0.899948	194.077
0.934517	195.118
