Adsorption isotherm of Nitrogen on ([Co3(L)(H2L)(DMF)(DABCO)]
DOI: 10.1021/cg500978s
Adsorbate Nitrogen: InChIKey IJGRMHOSHXDMSA-UHFFFAOYSA-N
Temperature: 77 K
Tabular data in the source: 0
pressure (bar)	uptake (cm3(STP)/g)
0.0978534	236.479
0.121029	238.423
0.148395	239.677
0.177878	241.599
0.205243	242.854
0.234696	243.426
0.264164	244.673
0.293632	245.92
0.32307	245.818
0.352553	247.74
0.382007	248.312
0.411459	248.885
0.440912	249.457
0.47041	252.053
0.501981	253.293
0.531419	253.191
0.56299	254.431
0.590325	254.336
0.621881	254.901
0.649215	254.806
0.678668	255.378
0.706018	255.958
0.739661	255.841
0.767011	256.421
0.800669	256.979
0.82799	256.209
0.855355	257.464
0.888998	257.347
0.931067	257.875
0.96052	258.448
