Adsorption isotherm of Carbon Dioxide on ([Zn3(L)(H2L)(DMF)(DABCO)]
DOI: 10.1021/cg500978s
Adsorbate Carbon Dioxide: InChIKey CURLTUGMZLYLDI-UHFFFAOYSA-N
Temperature: 273 K
Tabular data in the source: 0
pressure (bar)	uptake (cm3(STP)/g)
0.211957	48.4007
0.26087	57.002
0.3125	65.6026
0.413043	79.5737
0.459239	85.304
0.505435	91.0343
0.548913	95.3295
0.605978	99.6208
0.654891	104.273
0.703804	107.131
0.755435	110.706
0.804348	114.641
0.850543	117.858
0.902174	120.356
0.953804	123.213
1.00815	125.71
1.05435	127.851
1.1087	130.707
1.15489	133.207
