Adsorption isotherm of Carbon Dioxide on ([Co@Zn3(L)(H2L)(DMF)(DABCO)]
DOI: 10.1021/cg500978s
Adsorbate Carbon Dioxide: InChIKey CURLTUGMZLYLDI-UHFFFAOYSA-N
Temperature: 273 K
Tabular data in the source: 0
pressure (bar)	uptake (cm3(STP)/g)
0.0217391	5.0194
0.0244565	6.45452
0.0326087	9.68294
0.0597826	15.4187
0.108696	26.1739
0.157609	38.006
0.209239	46.9656
0.26087	54.8482
0.309783	63.4495
0.358696	69.897
0.410326	75.9847
0.451087	81.7166
0.505435	86.3677
0.55163	91.38
0.605978	95.6721
0.654891	98.8889
0.706522	102.464
0.755435	105.68
0.807065	109.614
0.853261	112.114
0.904891	114.971
0.953804	117.47
1.01087	119.966
1.05707	122.107
1.10598	124.964
1.15217	127.105
1.2038	129.244
