Adsorption isotherm of Carbon Dioxide on ([triangle Co@Zn3(L)(H2L)(DMF)(DABCO)]
DOI: 10.1021/cg500978s
Adsorbate Carbon Dioxide: InChIKey CURLTUGMZLYLDI-UHFFFAOYSA-N
Temperature: 273 K
Tabular data in the source: 0
pressure (bar)	uptake (cm3(STP)/g)
0.0108696	1.79175
0.048913	8.60134
0.0842391	14.3348
0.127717	19.7069
0.165761	25.4396
0.211957	30.452
0.25	34.7487
0.293478	39.4029
0.334239	43.3399
0.377717	46.9172
0.413043	51.2147
0.453804	55.1517
0.5	59.0872
0.543478	62.6644
0.584239	66.2425
0.630435	69.819
0.665761	72.3216
0.706522	75.1817
0.747283	78.7598
0.793478	81.9773
0.828804	84.4799
0.875	88.0564
0.913043	90.5583
0.961957	93.0571
1	95.9179
1.03804	98.4198
1.08152	100.561
1.125	103.062
1.16304	105.922
