Adsorption isotherm of Nitrogen on ([Zn3(L)(H2L)(DMF)(DABCO)]
DOI: 10.1021/cg500978s
Adsorbate Nitrogen: InChIKey IJGRMHOSHXDMSA-UHFFFAOYSA-N
Temperature: 77 K
Tabular data in the source: 0
pressure (bar)	uptake (cm3(STP)/g)
0.0538796	244.729
0.0876443	250.009
0.127641	251.894
0.165535	253.787
0.20762	254.99
0.241278	255.548
0.281229	255.409
0.319093	255.952
0.354869	257.177
0.394835	257.713
0.428478	257.596
0.466327	257.465
0.506308	258.676
0.544156	258.544
0.577814	259.102
0.615648	258.296
0.655584	257.483
0.689197	256.016
0.735456	255.856
0.762776	255.086
0.798521	254.962
0.838472	254.823
0.861618	255.418
0.901599	256.628
0.958326	254.407
