Adsorption isotherm of Nitrogen on ([Co@Zn3(L)(H2L)(DMF)(DABCO)]
DOI: 10.1021/cg500978s
Adsorbate Nitrogen: InChIKey IJGRMHOSHXDMSA-UHFFFAOYSA-N
Temperature: 77 K
Tabular data in the source: 0
pressure (bar)	uptake (cm3(STP)/g)
0.054604	181.226
0.0938526	184.456
0.133063	186.587
0.169953	188.173
0.209126	189.206
0.243694	190.246
0.282867	191.278
0.322002	191.212
0.358891	192.798
0.395743	193.285
0.432576	193.222
0.469446	194.258
0.508657	196.39
0.547773	195.774
0.589247	196.802
0.619174	196.752
0.658328	197.235
0.699746	196.615
0.736598	197.102
0.771091	195.944
0.810244	196.427
0.833246	195.839
0.870078	195.777
0.909213	195.71
0.964519	197.265
