Adsorption isotherm of Nitrogen on ([Zn3(L)(H2L)(DMF)(DABCO)]
DOI: 10.1021/cg500978s
Adsorbate Nitrogen: InChIKey IJGRMHOSHXDMSA-UHFFFAOYSA-N
Temperature: 77 K
Tabular data in the source: 0
pressure (bar)	uptake (cm3(STP)/g)
0.00937345	229.365
0.0157879	234.066
0.0349097	242.77
0.0665718	248.058
0.104511	251.974
0.148713	253.845
0.186592	255.063
0.228676	256.266
0.262335	256.824
0.298081	256.7
0.333857	257.925
0.361207	258.505
0.388557	259.085
0.420098	258.975
0.449535	258.873
0.487415	260.091
0.518939	259.306
0.55467	258.508
0.626101	255.561
0.663949	255.429
0.705958	253.259
0.737498	253.15
0.775331	252.344
0.798476	252.938
0.836324	252.807
0.893127	253.959
0.935181	253.813
