Adsorption isotherm of Nitrogen on ([Co3(L)(H2L)(DMF)(DABCO)]
DOI: 10.1021/cg500978s
Adsorbate Nitrogen: InChIKey IJGRMHOSHXDMSA-UHFFFAOYSA-N
Temperature: 77 K
Tabular data in the source: 0
pressure (bar)	uptake (cm3(STP)/g)
0.00151311	100.955
0.00216879	4.70252
0.00228984	12.7789
0.00240081	20.1823
0.00253195	28.9318
0.00269334	39.7003
0.00288501	192.488
0.00293544	55.8532
0.00325824	77.3903
0.00452926	162.193
0.00528581	212.67
0.00605245	123.821
0.0265098	228.736
0.0433356	231.358
0.0664661	234.628
0.0811836	236.586
0.0979894	237.862
0.1442	241.035
0.165212	242.967
0.205107	244.82
0.234512	246.717
0.263908	247.941
0.29539	248.484
0.326893	250.372
0.352091	251.613
0.373094	252.872
0.40036	252.086
0.427656	253.318
0.454933	253.205
0.486425	254.42
0.517918	255.636
0.547283	254.84
0.572461	254.736
0.601846	255.287
0.633329	255.829
0.664782	254.352
0.68998	255.593
0.723551	255.454
0.752945	256.678
0.786527	257.211
0.813803	257.098
0.84108	256.985
0.870464	257.535
0.899838	257.413
