Adsorption isotherm of Hydrogen on Interpenetrated-MOFMC-meso
DOI: 10.1016/j.ijhydene.2013.03.044
Adsorbate Hydrogen: InChIKey UFHFLCQGNIYNRP-UHFFFAOYSA-N
Temperature: 77 K
Tabular data in the source: 0
pressure (bar)	uptake (wt%)
0.00264473	0.0244565
0.00525072	0.0815217
0.0078567	0.138587
0.010453	0.203804
0.0130202	0.293478
0.0182903	0.358696
0.0288983	0.432065
0.034149	0.513587
0.0447861	0.5625
0.0500756	0.611413
0.0580291	0.668478
0.0633283	0.709239
0.0952492	0.847826
0.132498	1.00272
0.169805	1.1087
0.201794	1.19022
0.233783	1.27174
0.268465	1.33696
0.303156	1.39402
0.337857	1.44293
0.372549	1.5
0.40725	1.54891
0.441961	1.58967
0.471334	1.62228
0.508719	1.66304
0.540766	1.69565
0.575486	1.72826
0.607533	1.76087
0.642263	1.78533
0.676994	1.80978
0.709041	1.84239
0.746445	1.86685
0.778501	1.8913
0.810558	1.91576
0.847962	1.94022
0.880028	1.95652
0.914758	1.98098
0.949498	1.99728
0.984238	2.01359
