Adsorption isotherm of Hydrogen on IRMOF-1
DOI: 10.1016/j.ijhydene.2013.03.044
Adsorbate Hydrogen: InChIKey UFHFLCQGNIYNRP-UHFFFAOYSA-N
Temperature: 77 K
Tabular data in the source: 0
pressure (bar)	uptake (wt%)
0.00265442	0.0163043
0.00781795	0.171196
0.00789545	0.105978
0.00795358	0.0570652
0.0182709	0.375
0.0183581	0.30163
0.0184066	0.26087
0.0208576	0.44837
0.0260986	0.538043
0.0367163	0.603261
0.0393126	0.668478
0.0552875	0.725543
0.0659343	0.766304
0.113849	0.945652
0.132469	1.02717
0.164458	1.1087
0.201814	1.17391
0.236495	1.23913
0.268513	1.2962
0.305878	1.35326
0.337916	1.39402
0.372627	1.43478
0.407347	1.46739
0.442058	1.50815
0.474115	1.53261
0.508835	1.56522
0.540882	1.59783
0.575612	1.62228
0.610343	1.64674
0.645073	1.6712
0.677129	1.69565
0.711869	1.71196
0.7466	1.73641
0.78134	1.75272
0.813396	1.77717
0.848136	1.79348
0.880202	1.80978
0.914942	1.82609
0.949682	1.84239
0.987096	1.8587
