Adsorption isotherm of Benzene on MIL-141(Cs)
DOI: 10.1021/Jp404474h
Adsorbate Benzene: InChIKey UHOVQNZJYSORNB-UHFFFAOYSA-N
Temperature: 313 K
Tabular data in the source: 0
pressure (bar)	uptake (molecules/unitcell)
0.000334	2.94989
0.00142654	6.50031
0.00688851	8.77258
0.0139891	9.8235
0.0243668	10.278
0.0352907	10.704
0.047125	11.1585
0.0558641	11.4993
0.0649674	11.9253
0.0760734	12.4366
