Adsorption isotherm of Benzene on MIL-141(Cs)
DOI: 10.1021/Jp404474h
Adsorbate Benzene: InChIKey UHOVQNZJYSORNB-UHFFFAOYSA-N
Temperature: 313 K
Tabular data in the source: 0
pressure (bar)	uptake (molecules/unitcell)
0.000334	0.478795
0.000516	2.46703
0.00179067	3.68837
0.0037934	4.7677
0.00688851	5.47779
0.0121684	6.01745
0.0209076	6.52871
0.027644	6.86955
