Adsorption isotherm of Benzene on MIL-141(Cs)
DOI: 10.1021/Jp404474h
Adsorbate Benzene: InChIKey UHOVQNZJYSORNB-UHFFFAOYSA-N
Temperature: 313 K
Tabular data in the source: 0
pressure (bar)	uptake (molecules/unitcell)
0.000152	1.30249
0.00106241	3.57476
0.00342926	5.10854
0.00652438	5.73342
0.0118043	6.4719
0.0161739	6.69913
0.0196331	6.86955
0.0230923	6.98316
0.0343804	7.2672
0.0423913	7.46602
0.0531332	7.83527
0.0607799	8.06249
0.0678805	8.37493
0.0811713	8.77258
