Adsorption isotherm of Nitrogen on MIL-141(Cs)
DOI: 10.1021/Jp404474h
Adsorbate Nitrogen: InChIKey IJGRMHOSHXDMSA-UHFFFAOYSA-N
Temperature: 77 K
Tabular data in the source: 0
pressure (bar)	uptake (cm3(STP)/g)
0.00182509	1.56053
0.00619484	196.014
0.00837971	173.619
0.00837971	184.544
0.0127495	203.661
0.0411528	210.216
0.0761108	211.855
0.207203	215.678
0.401657	218.955
0.700985	220.594
0.906363	221.14
0.943506	222.779
0.987203	225.51
