Adsorption isotherm of Sulfur Hexafluoride on Silicalite S115
DOI: 10.1002/aic.690470520
Adsorbate Sulfur Hexafluoride: InChIKey SFZCNBIFKDRMGX-UHFFFAOYSA-N
Temperature: 298 K
Tabular data in the source: 0
pressure (bar)	uptake (mmol/g)
0.000947	0.0446254
0.00128511	0.0605417
0.00167398	0.0754111
0.00205147	0.091668
0.00251409	0.108743
0.00320892	0.132186
0.00348084	0.149339
0.0036998	0.158734
0.00444286	0.181534
0.00512251	0.202604
0.00590614	0.228895
0.00667257	0.255462
0.00753845	0.271532
0.00834526	0.314346
0.0106517	0.359498
0.0127909	0.411135
0.0153598	0.453289
0.0212662	0.551008
0.0260618	0.669793
0.0319389	0.738468
0.0391413	0.834297
0.049959	0.942562
0.0599926	1.09118
0.0847683	1.23278
0.112687	1.3427
0.162496	1.46242
0.244046	1.61236
0.389581	1.71379
0.585097	1.77768
0.762145	1.84395
1.14464	1.9127
