Adsorption isotherm of Sulfur Hexafluoride on Silicalite S115
DOI: 10.1002/aic.690470520
Adsorbate Sulfur Hexafluoride: InChIKey SFZCNBIFKDRMGX-UHFFFAOYSA-N
Temperature: 298 K
Tabular data in the source: 0
pressure (bar)	uptake (mmol/g)
0.000625	0.0300397
0.000993	0.0455502
0.00145177	0.0650814
0.00192248	0.0884914
0.00281108	0.12152
0.00411041	0.165232
0.00642086	0.233752
0.0103669	0.354446
0.0181794	0.506427
0.0252969	0.623612
0.0422157	0.864902
0.0831045	1.18772
0.138685	1.43385
0.2096	1.55217
0.367553	1.66369
0.700037	1.78322
1.37807	1.83704
