Adsorption isotherm of Ethane on Zeolite 13X
DOI: 10.1002/aic.690470520
Adsorbate Ethane: InChIKey OTMSDBZUPAUEDD-UHFFFAOYSA-N
Temperature: 293 K
Tabular data in the source: 0
pressure (bar)	uptake (mmol/g)
0.00629785	0.0974514
0.00791536	0.119547
0.0111143	0.168444
0.0145617	0.219167
0.0190784	0.287147
0.0233231	0.34861
0.0316342	0.467949
0.0417344	0.62814
0.0562156	0.820127
0.0706537	1.04877
0.0906648	1.3
0.123828	1.66242
0.163364	2.03934
0.235832	2.45027
0.359846	2.84377
0.613431	3.18811
1.08257	3.44054
