Adsorption isotherm of N-propane on Zeolite 13X
DOI: 10.1002/aic.690470520
Adsorbate N-propane: InChIKey ATUOYWHBWRKTHZ-UHFFFAOYSA-N
Temperature: 293 K
Tabular data in the source: 0
pressure (bar)	uptake (mmol/g)
0.000405	0.0994978
0.00097	0.232459
0.00157582	0.376212
0.00215221	0.53009
0.00287898	0.677874
0.00351952	0.837349
0.00421408	0.995674
0.0051161	1.1717
0.00674958	1.48801
0.00813775	1.65667
0.00960963	1.82539
0.011586	2.00433
0.0142622	2.14809
0.0181753	2.32622
0.0246521	2.48445
0.0358351	2.66265
0.0619405	2.87347
0.0851849	2.92367
0.141247	3.04775
0.232587	3.14425
0.359846	3.18811
0.501789	3.22141
