Adsorption isotherm of N-propane on Zeolite 13X
DOI: 10.1002/aic.690470520
Adsorbate N-propane: InChIKey ATUOYWHBWRKTHZ-UHFFFAOYSA-N
Temperature: 293 K
Tabular data in the source: 0
pressure (bar)	uptake (mmol/g)
0.000417	0.100189
0.000654	0.15717
0.000984	0.233266
0.00129798	0.317487
0.00174837	0.421766
0.00252394	0.606756
0.00335293	0.789468
0.00439292	0.995674
0.00504571	1.14363
0.00679649	1.49836
0.00808157	1.67398
0.0112694	1.96311
0.0157147	2.2238
0.0222191	2.42494
0.0329767	2.61694
0.0800363	2.88344
0.175081	3.06893
0.31987	3.14425
0.545284	3.24381
1.0901	3.28906
