Adsorption isotherm of Carbon Dioxide on Zeolite 13X
DOI: 10.1002/aic.690470520
Adsorbate Carbon Dioxide: InChIKey CURLTUGMZLYLDI-UHFFFAOYSA-N
Temperature: 293 K
Tabular data in the source: 0
pressure (bar)	uptake (mmol/g)
9.66e-05	0.198222
0.000168	0.304562
0.000309	0.453587
0.000513	0.606756
0.00081	0.773231
0.00122801	0.948546
0.00203619	1.19217
0.00349523	1.47263
0.00548307	1.74502
0.00974369	2.11121
0.0171955	2.5104
0.0301369	2.95421
0.0520912	3.41679
0.0834329	3.83052
0.144213	4.32419
0.256273	4.83103
0.491469	5.37862
0.975733	5.88546
1.0901	5.86511
