Adsorption isotherm of Carbon Dioxide on Zeolite 13X
DOI: 10.1002/aic.690470520
Adsorbate Carbon Dioxide: InChIKey CURLTUGMZLYLDI-UHFFFAOYSA-N
Temperature: 293 K
Tabular data in the source: 0
pressure (bar)	uptake (mmol/g)
0.000112	0.208793
0.000173	0.321916
0.000184	0.323033
0.000303	0.438145
0.00037	0.501513
0.000459	0.570083
0.00061	0.682586
0.000863	0.828693
0.0010115	0.878953
0.00113791	0.945266
0.00153275	1.07824
0.00206459	1.2172
0.00255915	1.31813
0.00270498	1.35048
0.00351952	1.48801
0.00387795	1.55116
0.00461119	1.65667
0.00604146	1.78166
0.00866124	2.03229
0.0125034	2.2705
0.0175566	2.51911
0.0248234	2.73746
0.033206	3.01624
0.0435056	3.27769
0.0566064	3.51279
0.0741642	3.73876
0.0906648	3.92452
0.116344	4.22061
0.150333	4.41499
0.187639	4.63435
0.218529	4.78109
0.280423	4.91542
0.350012	5.12403
0.43086	5.26799
0.515888	5.45365
0.600815	5.54892
0.734489	5.62633
0.826282	5.78441
1.02421	5.94693
