Adsorption isotherm of Sulfur Hexafluoride on Zeolite 13X
DOI: 10.1002/aic.690470520
Adsorbate Sulfur Hexafluoride: InChIKey SFZCNBIFKDRMGX-UHFFFAOYSA-N
Temperature: 295 K
Tabular data in the source: 0
pressure (bar)	uptake (mmol/g)
0.00563712	0.191474
0.00921841	0.305618
0.013034	0.413092
0.017315	0.528257
0.0220657	0.645788
0.027733	0.773231
0.0343762	0.906783
0.0435056	1.04514
0.0535547	1.16361
0.0677773	1.32729
0.0851849	1.45237
0.106324	1.58373
0.129083	1.67979
0.135496	1.70913
0.162236	1.78166
0.201098	1.91608
0.24927	2.01826
0.315469	2.12589
0.396492	2.18562
0.471461	2.29421
0.564501	2.35867
0.662001	2.39157
