Adsorption isotherm of Ethane on Zeolite 13X
DOI: 10.1002/aic.690470520
Adsorbate Ethane: InChIKey OTMSDBZUPAUEDD-UHFFFAOYSA-N
Temperature: 293 K
Tabular data in the source: 0
pressure (bar)	uptake (mmol/g)
0.0134002	0.200293
0.0205889	0.308811
0.0287104	0.424698
0.037098	0.550676
0.0453519	0.666236
0.0546793	0.800482
0.0641235	0.929037
0.0757215	1.07824
0.0857771	1.23418
0.0985235	1.38842
0.111607	1.55116
0.139303	1.86372
0.151378	1.94281
0.172672	2.08939
0.198331	2.21611
0.218529	2.35867
0.24927	2.5104
0.280423	2.61694
0.308981	2.70917
0.354895	2.79495
0.421998	2.93381
0.484707	3.02671
0.552891	3.11175
0.639465	3.18811
0.704587	3.25506
0.820578	3.34652
0.929548	3.36978
