Adsorption isotherm of Ethane on Silicalite S115
DOI: 10.1002/aic.690470520
Adsorbate Ethane: InChIKey OTMSDBZUPAUEDD-UHFFFAOYSA-N
Temperature: 296 K
Tabular data in the source: 0
pressure (bar)	uptake (mmol/g)
0.00147595	0.0306411
0.00238303	0.0507974
0.00378454	0.0762661
0.00663655	0.138232
0.0118317	0.226904
0.0191031	0.372454
0.029352	0.506427
0.0436338	0.681798
0.076516	0.964535
0.113746	1.19955
0.183652	1.47713
0.537441	1.78322
