Adsorption isotherm of Methane on Silicalite S115
DOI: 10.1002/aic.690470520
Adsorbate Methane: InChIKey VNWKTOKETHGBQD-UHFFFAOYSA-N
Temperature: 297 K
Tabular data in the source: 0
pressure (bar)	uptake (mmol/g)
0.0103669	0.0100968
0.0197448	0.01812
0.0352011	0.0318804
0.0648647	0.0577832
0.0964259	0.0893728
0.153136	0.131549
0.239213	0.195556
0.338414	0.271222
0.528636	0.395276
0.735604	0.516566
1.13026	0.709373
1.85528	1.01354
3.09611	1.31148
5.08216	1.59902
7.93884	1.83704
