Adsorption isotherm of Ethene on Zeolite 13X
DOI: 10.1002/aic.690470520
Adsorbate Ethene: InChIKey VGGSQFUCUMXWEO-UHFFFAOYSA-N
Temperature: 293 K
Tabular data in the source: 0
pressure (bar)	uptake (mmol/g)
0.0002	0.100537
0.000273	0.132178
0.000343	0.164409
0.000444	0.204499
0.000649	0.283196
0.000957	0.392178
0.00127129	0.487808
0.00160891	0.576038
0.00210795	0.709094
0.00319423	0.913086
0.00487394	1.19217
0.010736	1.67979
0.0133077	1.86372
0.0231621	2.27837
0.0343762	2.58989
0.0450388	2.73746
0.0731438	3.02671
0.131793	3.3932
0.247549	3.68732
0.364866	3.85714
0.588458	4.02084
0.776341	4.10527
1.06768	4.20602
