Adsorption isotherm of Methane on Silicalite S115
DOI: 10.1002/aic.690470520
Adsorbate Methane: InChIKey VNWKTOKETHGBQD-UHFFFAOYSA-N
Temperature: 297 K
Tabular data in the source: 0
pressure (bar)	uptake (mmol/g)
0.0260618	0.0251497
0.0531017	0.0486042
0.0865097	0.0727007
0.110419	0.103564
0.143831	0.125889
0.172718	0.149339
0.220452	0.192953
0.28138	0.234549
0.381738	0.310534
0.497251	0.368378
0.573319	0.447792
0.73177	0.524762
0.861047	0.630153
1.1216	0.747534
