Adsorption isotherm of Ethane on Silicalite S115
DOI: 10.1002/aic.690470520
Adsorbate Ethane: InChIKey OTMSDBZUPAUEDD-UHFFFAOYSA-N
Temperature: 296 K
Tabular data in the source: 0
pressure (bar)	uptake (mmol/g)
0.00142265	0.0302007
0.00246348	0.0510352
0.00327484	0.0700877
0.00462728	0.0962528
0.0073867	0.151173
0.0106517	0.207608
0.0153598	0.295742
0.0208381	0.377478
0.0265972	0.458854
0.033948	0.557772
0.0442206	0.686338
0.056442	0.775403
0.0720412	0.954133
0.0977358	1.14576
0.135319	1.29444
0.207405	1.46242
0.29306	1.65219
0.477433	1.75612
