Adsorption isotherm of Sulfur Hexafluoride on Zeolite 13X
DOI: 10.1002/aic.690470520
Adsorbate Sulfur Hexafluoride: InChIKey SFZCNBIFKDRMGX-UHFFFAOYSA-N
Temperature: 295 K
Tabular data in the source: 0
pressure (bar)	uptake (mmol/g)
0.00274271	0.0964441
0.0039049	0.134954
0.00515166	0.17438
0.00723371	0.241486
0.0103705	0.336742
0.0146629	0.45674
0.0222191	0.654798
0.032523	0.866859
0.0499705	1.13181
0.0767779	1.39807
0.117152	1.62823
0.186344	1.86372
0.270876	2.03934
0.410466	2.2238
0.675902	2.38331
