Adsorption isotherm of Ethene on Zeolite 13X
DOI: 10.1002/aic.690470520
Adsorbate Ethene: InChIKey VGGSQFUCUMXWEO-UHFFFAOYSA-N
Temperature: 293 K
Tabular data in the source: 0
pressure (bar)	uptake (mmol/g)
0.000217	0.119547
0.000246	0.119961
0.00026	0.132637
0.000535	0.243165
0.000546	0.249133
0.000565	0.259706
0.000654	0.280268
0.000899	0.372323
0.000957	0.401802
0.00108405	0.43663
0.00137195	0.522797
0.00148057	0.554504
0.00167719	0.598408
0.00200817	0.69451
0.0020934	0.714023
0.00243802	0.775914
0.00272378	0.837349
0.00287898	0.857899
0.00291915	0.882002
0.00344714	0.955139
0.00351952	1.00607
0.00374593	1.00956
0.00395938	1.06709
0.00461119	1.16765
0.0051161	1.2088
0.00540763	1.26447
0.00608345	1.33652
0.00693921	1.39324
0.00723371	1.46246
0.00797038	1.50877
0.00941199	1.60583
0.010736	1.69146
0.0133077	1.80652
0.0134933	1.88972
0.0142622	1.90946
0.0181753	2.08939
0.0208762	2.17806
0.0253447	2.31016
0.0297222	2.41655
0.0365876	2.52785
0.042907	2.66265
0.0506676	2.728
0.0706537	2.98506
0.103419	3.22141
0.144213	3.38147
0.201098	3.52498
0.265305	3.61148
0.345196	3.76475
0.433855	3.81727
0.526721	3.91095
0.617695	3.97927
