Adsorption isotherm of Nitrogen on CuBTC
DOI: 10.1002/ejic.201000494
Adsorbate Nitrogen: InChIKey IJGRMHOSHXDMSA-UHFFFAOYSA-N
Temperature: 77 K
Tabular data in the source: 0
pressure (bar)	uptake (cm3(STP)/g)
0.00529079	48.1043
0.0357488	69.6682
0.152202	89.5735
0.435691	127.725
0.553823	145.972
0.675399	179.147
0.785299	238.863
0.842963	306.872
0.873676	381.517
0.911535	539.1
0.933977	646.919
0.94937	691.706
0.96971	713.27
