Adsorption isotherm of Nitrogen on CuBTC
DOI: 10.1002/ejic.201000494
Adsorbate Nitrogen: InChIKey IJGRMHOSHXDMSA-UHFFFAOYSA-N
Temperature: 77 K
Tabular data in the source: 0
pressure (bar)	uptake (cm3(STP)/g)
0	61.3744
0.0408798	84.5972
0.191076	107.82
0.435747	139.336
0.557276	162.559
0.673793	195.735
0.73972	228.91
0.80735	265.403
0.848062	315.166
0.88381	384.834
0.91653	525.829
0.93532	575.592
0.97588	593.839
