Adsorption isotherm of Water on Aluminum fumarate powder
DOI: 10.1021/acs.iecr.7b00106
Article source: Figure 2
Adsorbate Water: InChIKey XLYOFNOQVPJJNP-UHFFFAOYSA-N
Kind: experiment
Temperature: 298 K
Tabular data in the source: 0
pressure (bar)	uptake ()
0.000416	0.005534
0.001501	0.006324
0.003217	0.016206
0.004986	0.026087
0.006219	0.036364
0.007774	0.084585
0.008256	0.114625
0.008806	0.155336
0.009222	0.188142
0.009382	0.205534
0.010039	0.233992
0.010615	0.263241
0.011152	0.279051
0.012492	0.298419
0.014476	0.313043
0.015923	0.319763
0.017317	0.325296
0.019314	0.335573
0.020293	0.33834
0.022156	0.349012
0.023483	0.354941
0.025145	0.367984
0.027504	0.398419
0.028549	0.423715
0.029849	0.473913
0.030332	0.504743
0.030774	0.536759
0.030211	0.535178
0.028978	0.505138
0.028924	0.503557
0.027959	0.474308
0.026968	0.452964
0.025172	0.425296
0.024287	0.41581
0.022732	0.400791
0.021365	0.393676
0.019837	0.386561
0.018322	0.378656
0.016687	0.372332
0.015253	0.365217
0.013966	0.361265
0.012197	0.349407
0.010481	0.333597
0.009222	0.32332
0.008176	0.296443
0.007868	0.26917
0.007653	0.240711
0.007506	0.214229
0.007385	0.187352
0.007198	0.159684
0.006983	0.132016
0.006728	0.104348
0.006139	0.07747
0.004504	0.052964
0.003136	0.041897
