Adsorption isotherm of Water on Aluminum fumarate coating
DOI: 10.1021/acs.iecr.7b00106
Article source: Figure 2
Adsorbate Water: InChIKey XLYOFNOQVPJJNP-UHFFFAOYSA-N
Kind: experiment
Temperature: 298 K
Tabular data in the source: 0
pressure (bar)	uptake ()
0.000268	0.004348
0.001635	0.011858
0.003163	0.018972
0.004785	0.026482
0.006273	0.035968
0.007332	0.073518
0.007774	0.101186
0.008163	0.129644
0.008779	0.168379
0.009557	0.199209
0.011929	0.224506
0.012519	0.226877
0.013913	0.232806
0.015575	0.236364
0.017331	0.242292
0.018792	0.243478
0.020494	0.249012
0.021874	0.251779
0.023764	0.256522
0.0256	0.263241
0.026659	0.266798
0.028589	0.277075
0.029823	0.289328
0.030828	0.314625
0.030345	0.314625
0.028723	0.299605
0.02741	0.2917
0.024743	0.281028
0.024367	0.280237
0.02288	0.274704
0.020909	0.271937
0.019877	0.268775
0.017759	0.264427
0.016768	0.262846
0.015253	0.259289
0.013832	0.255731
0.012063	0.250198
0.010669	0.242292
0.009195	0.234387
0.007988	0.20751
0.007694	0.180237
0.007466	0.152964
0.007265	0.125296
0.007037	0.098419
0.006755	0.071146
0.005737	0.049407
0.004611	0.042292
0.00327	0.036364
