Adsorption isotherm of Water on Aluminum fumarate coating after 360 cycles
DOI: 10.1021/acs.iecr.7b00106
Article source: Figure S1
Adsorbate Water: InChIKey XLYOFNOQVPJJNP-UHFFFAOYSA-N
Kind: experiment
Temperature: 298 K
Tabular data in the source: 0
pressure (bar)	uptake ()
0.000285	0.003418
0.001668	0.013671
0.003154	0.020127
0.004924	0.028481
0.006246	0.035696
0.007487	0.067975
0.007813	0.082405
0.008321	0.112405
0.009074	0.152658
0.009481	0.167089
0.011475	0.199367
0.012798	0.205823
0.014324	0.212658
0.015707	0.216076
0.017843	0.221392
0.018698	0.222911
0.020855	0.227848
0.022014	0.230506
0.023886	0.235063
0.025331	0.238481
0.027162	0.243797
0.028708	0.249873
0.029909	0.258228
0.03119	0.295823
0.030315	0.290506
0.028749	0.267722
0.027223	0.258608
0.025839	0.253671
0.023378	0.247595
0.02291	0.246835
0.021221	0.243418
0.019695	0.24038
0.018372	0.238481
0.016643	0.235063
0.0153	0.232405
0.013734	0.228987
0.011475	0.221772
0.010397	0.216076
0.009196	0.208861
0.007996	0.18038
0.00765	0.152278
0.007365	0.125316
0.00708	0.098354
0.006673	0.071772
0.00588	0.053544
0.004435	0.04443
0.003133	0.038734
