Adsorption isotherm of Nitrogen on CPM-5
DOI: 10.1021/Ja106903p
Adsorbate Nitrogen: InChIKey IJGRMHOSHXDMSA-UHFFFAOYSA-N
Temperature: 77 K
Tabular data in the source: 0
pressure (bar)	uptake (cm3(STP)/g)
0.00371815	147.871
0.0111545	152.618
0.0297452	156.428
0.0446178	159.287
0.0632086	160.254
0.0855175	161.224
0.107826	163.143
0.137572	163.173
0.178471	164.162
0.215653	165.148
0.260271	166.141
0.297452	166.179
0.334634	167.165
0.375534	167.206
0.42387	167.255
0.472206	168.252
0.494514	168.275
0.535414	168.316
0.568878	168.35
0.602341	167.436
0.632086	168.414
0.646959	168.43
0.68414	168.467
0.72504	167.561
0.76594	168.55
0.803121	167.64
0.844021	167.682
0.888639	168.675
0.92582	168.713
0.963002	169.698
