Adsorption isotherm of Carbon Dioxide on CPM-5
DOI: 10.1021/Ja106903p
Adsorbate Carbon Dioxide: InChIKey CURLTUGMZLYLDI-UHFFFAOYSA-N
Temperature: 299 K
Tabular data in the source: 0
pressure (bar)	uptake (mmol/g)
0.0264805	0.117371
0.0681079	0.28169
0.0983841	0.399061
0.124865	0.516432
0.155141	0.633803
0.185417	0.751174
0.208137	0.821596
0.230858	0.892019
0.2498	0.938967
0.280094	1.03286
0.306593	1.12676
0.333127	1.17371
0.359643	1.24413
0.408897	1.3615
0.461947	1.47887
0.514997	1.59624
0.568047	1.71362
0.624893	1.83099
0.674183	1.90141
0.734824	2.01878
0.791688	2.11268
0.848569	2.1831
0.905433	2.277
0.96611	2.34742
1.02677	2.44131
1.0533	2.48826
