Adsorption isotherm of Methane on CPM-5
DOI: 10.1021/Ja106903p
Adsorbate Methane: InChIKey VNWKTOKETHGBQD-UHFFFAOYSA-N
Temperature: 273 K
Tabular data in the source: 0
pressure (bar)	uptake (mmol/g)
0.0454944	0.0704225
0.0644548	0.0938967
0.106154	0.164319
0.19716	0.28169
0.269224	0.352113
0.314719	0.422535
0.341288	0.422535
0.360231	0.469484
0.382987	0.492958
0.451237	0.586854
0.496767	0.610329
0.542244	0.704225
0.633268	0.798122
0.675003	0.821596
0.697741	0.868545
0.747049	0.915493
0.796375	0.938967
0.838091	0.985915
0.864643	1.00939
0.910155	1.05634
0.932929	1.05634
0.955685	1.07981
0.978441	1.10329
1.00499	1.12676
1.01636	1.15023
