Adsorption isotherm of Hydrogen on CPM-6
DOI: 10.1021/Ja106903p
Adsorbate Hydrogen: InChIKey UFHFLCQGNIYNRP-UHFFFAOYSA-N
Temperature: 77 K
Tabular data in the source: 0
pressure (bar)	uptake (cm3(STP)/g)
0.00371815	2.84738
0.00743631	16.1213
0.0148726	22.7639
0.0297452	36.997
0.0632086	58.832
0.0929538	77.8195
0.133854	93.0269
0.156162	100.633
0.185908	109.194
0.215653	116.807
0.249116	125.371
0.278862	130.141
0.308607	135.858
0.34207	142.528
0.371815	146.349
0.401561	151.119
0.431306	154.94
0.464769	158.766
0.494514	162.588
0.520542	166.405
0.554005	170.231
0.58375	173.105
0.613495	176.926
0.639522	178.849
0.672986	182.674
0.702731	186.496
0.736194	188.425
0.769658	191.303
0.795685	194.173
0.829148	197.051
0.858894	198.977
0.888639	201.85
0.918384	203.776
0.948129	205.702
0.981593	208.58
1.01134	210.506
