Adsorption isotherm of Nitrogen on CPM-6
DOI: 10.1021/Ja106903p
Adsorbate Nitrogen: InChIKey IJGRMHOSHXDMSA-UHFFFAOYSA-N
Temperature: 77 K
Tabular data in the source: 0
pressure (bar)	uptake (cm3(STP)/g)
0	67.2986
0.00371815	181.994
0.00743631	188.633
0.0111545	193.376
0.0223089	197.179
0.0297452	199.082
0.048336	201.945
0.0706449	203.863
0.0929538	205.782
0.118981	205.808
0.137572	207.723
0.156162	208.689
0.18219	209.664
0.215653	209.698
0.256553	209.739
0.330916	210.763
0.364379	211.744
0.401561	211.782
0.446178	212.775
0.487078	211.869
0.52426	212.855
0.587468	211.971
0.646959	212.979
0.680422	213.013
0.72504	213.059
0.743631	213.078
0.78453	211.223
0.799403	212.186
0.840303	212.228
0.862612	211.303
0.903511	211.344
0.918384	211.359
0.936975	212.326
0.977874	213.315
