Adsorption isotherm of Carbon Dioxide on CPM-6
DOI: 10.1021/Ja106903p
Adsorbate Carbon Dioxide: InChIKey CURLTUGMZLYLDI-UHFFFAOYSA-N
Temperature: 273 K
Tabular data in the source: 0
pressure (bar)	uptake (mmol/g)
0.0113382	0.117371
0.0301875	0.375587
0.052864	0.610329
0.102044	1.05634
0.147415	1.50235
0.173936	1.69014
0.200457	1.87793
0.226979	2.06573
0.2535	2.25352
0.283831	2.44131
0.314162	2.62911
0.34451	2.79343
0.374876	2.93427
0.405225	3.09859
0.435591	3.23944
0.473576	3.38028
0.50396	3.49765
0.522935	3.59155
0.557128	3.70892
0.59134	3.80282
0.644543	3.96714
0.686355	4.08451
0.724376	4.1784
0.758587	4.2723
0.800417	4.3662
0.861275	4.48357
0.899313	4.55399
0.941143	4.64789
0.963963	4.69484
1.02486	4.76526
1.04387	4.81221
1.06291	4.81221
