Adsorption isotherm of Methane on CPM-6
DOI: 10.1021/Ja106903p
Adsorbate Methane: InChIKey VNWKTOKETHGBQD-UHFFFAOYSA-N
Temperature: 273 K
Tabular data in the source: 0
pressure (bar)	uptake (mmol/g)
0.0454944	0.0704225
0.0644548	0.0938967
0.106154	0.164319
0.155444	0.234742
0.174404	0.258216
0.219898	0.328638
0.273002	0.375587
0.314701	0.446009
0.363973	0.539906
0.432223	0.633803
0.500492	0.704225
0.568742	0.798122
0.591481	0.84507
0.659767	0.892019
0.701465	0.962441
0.750773	1.00939
0.800081	1.05634
0.841816	1.07981
0.860758	1.12676
0.910066	1.17371
0.929027	1.19718
0.955596	1.19718
0.974539	1.24413
1.00109	1.26761
1.02007	1.26761
