Adsorption isotherm of Hydrogen on CPM-5
DOI: 10.1021/Ja106903p
Adsorbate Hydrogen: InChIKey UFHFLCQGNIYNRP-UHFFFAOYSA-N
Temperature: 77 K
Tabular data in the source: 0
pressure (bar)	uptake (cm3(STP)/g)
0.00743631	8.53836
0.0111545	17.0729
0.0371815	39.8482
0.0594905	53.141
0.0780812	61.6907
0.104108	70.2479
0.126417	76.9056
0.148726	81.6676
0.174753	86.4334
0.197062	91.1954
0.24168	97.8758
0.263989	100.742
0.334634	107.449
0.386688	111.293
0.427588	115.126
0.472206	117.067
0.516823	119.956
0.561441	123.793
0.606059	124.786
0.650677	126.727
0.699013	129.62
0.747349	131.565
0.788249	133.502
0.836585	134.499
0.858894	134.522
0.903511	136.463
0.929538	137.437
0.948129	137.456
0.974156	138.43
0.996465	138.453
1.01134	139.416
