Adsorption isotherm of Carbon Dioxide on CPM-6
DOI: 10.1021/Ja106903p
Adsorbate Carbon Dioxide: InChIKey CURLTUGMZLYLDI-UHFFFAOYSA-N
Temperature: 299 K
Tabular data in the source: 0
pressure (bar)	uptake (mmol/g)
0.0188892	0.117371
0.052961	0.234742
0.0832193	0.375587
0.113495	0.492958
0.13618	0.610329
0.162679	0.704225
0.196733	0.84507
0.227026	0.938967
0.280005	1.15023
0.314113	1.22066
0.378478	1.43192
0.435271	1.61972
0.495876	1.78404
0.556482	1.94836
0.624679	2.11268
0.689081	2.277
0.7535	2.41784
0.859618	2.62911
0.924055	2.74648
0.958162	2.8169
1.03017	2.95775
1.0643	3.00469
