Adsorption isotherm of Carbon Dioxide on CPM-5
DOI: 10.1021/Ja106903p
Adsorbate Carbon Dioxide: InChIKey CURLTUGMZLYLDI-UHFFFAOYSA-N
Temperature: 273 K
Tabular data in the source: 0
pressure (bar)	uptake (mmol/g)
0.00756477	0.0704225
0.0226228	0.305164
0.0453529	0.469484
0.0718564	0.680751
0.113472	1.05634
0.151367	1.31455
0.193089	1.5493
0.242412	1.80751
0.28798	1.99531
0.337357	2.1831
0.371532	2.32394
0.405726	2.44131
0.447538	2.55869
0.523561	2.76995
0.5768	2.88732
0.633849	3.00469
0.664269	3.07512
0.690916	3.09859
0.713735	3.14554
0.744155	3.21596
0.774593	3.26291
0.805031	3.30986
0.865925	3.38028
0.957239	3.52113
0.987676	3.56808
1.04859	3.61502
