Adsorption isotherm of Nitrogen on recovered-PI-COF-TT
DOI: 10.1039/d0sc01747g
Article source: Figure S25
Adsorbate Nitrogen: InChIKey IJGRMHOSHXDMSA-UHFFFAOYSA-N
Kind: experiment
Temperature: 77 K
Tabular data in the source: 0
pressure (bar)	uptake (mmol/g)
0	5.78035
0.000958	10.9827
0.000239	15.3821
0.000904	20.1991
0.000904	25.0161
0.000904	28.2274
0.000904	33.0443
0.000904	37.8613
0.000904	41.0726
0.000239	47.4952
0.000904	53.9178
0.000904	57.1291
0.000904	60.3404
0.000904	64.3545
-0.000426	69.9743
0.000904	74.7913
0.002235	80.411
0.002235	86.0308
0.002235	91.6506
0.003565	95.6647
0.003565	98.876
0.003565	103.693
0.004895	108.51
0.007555	114.933
0.011546	122.158
0.05145	154.271
0.083373	168.722
0.119287	180.764
0.156531	189.595
0.191115	196.821
0.227029	204.046
0.262943	206.455
0.301517	208.06
0.33344	211.272
0.370684	212.877
0.406598	216.089
0.439852	216.49
0.475766	218.497
0.510349	220.103
0.547593	224.117
0.580847	225.723
0.615431	227.328
0.652675	229.737
0.691249	230.54
0.723172	232.948
0.759086	234.554
0.79367	237.765
0.828254	240.173
0.865498	246.596
0.898751	253.019
0.934665	262.653
0.967919	285.132
1.00516	410.372
0.971909	314.836
0.937325	273.089
0.88944	258.638
0.849536	253.019
0.812292	249.807
0.777708	246.596
0.741794	244.99
0.724502	244.188
0.688589	242.582
0.652675	240.976
0.620751	240.976
0.579517	240.173
0.544933	236.962
0.51301	236.962
0.478426	236.159
0.441182	235.356
0.405268	233.751
0.370684	233.751
0.336101	231.342
0.298857	228.934
0.264273	228.934
0.229689	226.525
0.192445	218.497
0.159192	212.075
0.123278	205.652
0.088029	196.821
0.05411	183.173
