Adsorption isotherm of Carbon Dioxide on PI-COF-1
DOI: 10.1039/d0sc01747g
Article source: Figure S8
Adsorbate Carbon Dioxide: InChIKey CURLTUGMZLYLDI-UHFFFAOYSA-N
Kind: experiment
Temperature: 273 K
Tabular data in the source: 0
pressure (bar)	uptake (mmol/g)
0.006198	0.061381
0.020661	0.173913
0.035124	0.240409
0.045455	0.31202
0.059917	0.383632
0.07438	0.439898
0.086777	0.485934
0.099174	0.537084
0.115702	0.578005
0.126033	0.624041
0.140496	0.664962
0.152893	0.695652
0.169421	0.731458
0.179752	0.772379
0.194215	0.803069
0.206612	0.83376
0.219008	0.859335
0.231405	0.890026
0.247934	0.915601
0.260331	0.941176
0.274793	0.966752
0.285124	0.992327
0.299587	1.0179
0.311983	1.03836
0.328512	1.05371
0.340909	1.07928
0.353306	1.09974
0.365702	1.12021
0.380165	1.14067
0.392562	1.15601
0.407025	1.18159
0.419421	1.20205
0.431818	1.21228
0.444215	1.23274
0.460744	1.2532
0.47314	1.26343
0.485537	1.289
0.497934	1.30435
0.512397	1.31969
0.524793	1.34527
0.541322	1.36061
0.553719	1.37596
0.566116	1.38619
0.578512	1.40665
0.590909	1.42711
0.603306	1.44246
0.619835	1.45268
0.632231	1.46803
0.646694	1.48849
0.657025	1.50384
0.673554	1.51918
0.68595	1.52941
0.698347	1.54987
0.714876	1.57033
0.725207	1.58056
0.737603	1.59591
0.752066	1.61637
0.764463	1.63171
0.780992	1.65217
0.789256	1.6624
0.805785	1.68286
0.822314	1.70333
0.832645	1.71355
0.845041	1.73401
0.859504	1.74936
0.871901	1.76471
0.886364	1.77494
0.896694	1.78517
0.909091	1.80563
0.92562	1.82609
0.938017	1.8312
0.954545	1.85166
0.966942	1.86189
0.979339	1.88235
0.995868	1.8977
1.00413	1.90793
1.0124	1.92327
0.981405	1.90793
0.954545	1.89514
0.927686	1.87724
0.917355	1.87724
0.907025	1.87724
0.892562	1.86189
0.878099	1.85678
0.867769	1.85166
0.853306	1.83632
0.836777	1.8312
0.826446	1.82097
0.81405	1.81586
0.799587	1.80051
0.786157	1.79028
0.772727	1.78005
0.760331	1.77494
0.747934	1.75448
0.733471	1.73913
0.721074	1.73401
0.706612	1.71355
0.693182	1.70844
0.679752	1.69309
0.665289	1.67775
0.650826	1.66752
0.640496	1.65217
0.626033	1.63171
0.613636	1.62148
0.599174	1.60614
0.586777	1.59079
0.57438	1.58056
0.56095	1.55499
0.545455	1.53453
0.533058	1.52174
0.520661	1.50895
0.508264	1.48849
0.491736	1.46803
0.481405	1.44757
0.466942	1.43222
0.454545	1.41176
0.442149	1.3913
0.427686	1.37596
0.411157	1.3555
0.400826	1.34015
0.38843	1.31458
0.373967	1.29412
0.359504	1.26343
0.349174	1.24297
0.334711	1.22251
0.320248	1.20205
0.305785	1.17136
0.293388	1.15089
0.280992	1.12021
0.266529	1.09974
0.252066	1.06394
0.239669	1.04348
0.227273	1.00767
0.214876	0.976982
0.198347	0.941176
0.188017	0.910486
0.173554	0.869565
0.161157	0.83376
0.146694	0.792839
0.132231	0.757033
0.119835	0.705882
0.109504	0.659847
0.095041	0.608696
0.078512	0.547315
0.068182	0.485934
0.053719	0.414322
0.041322	0.337596
0.02686	0.250639
0.014463	0.132992
0.006198	0.061381
