Adsorption isotherm of Carbon Dioxide on PI-COF-TT
DOI: 10.1039/d0sc01747g
Article source: Figure S10
Adsorbate Carbon Dioxide: InChIKey CURLTUGMZLYLDI-UHFFFAOYSA-N
Kind: experiment
Temperature: 273 K
Tabular data in the source: 0
pressure (bar)	uptake (mmol/g)
0.018947	0.123711
0.004211	0.051546
0.031579	0.195876
0.042105	0.257732
0.056842	0.304124
0.069474	0.350515
0.082105	0.391753
0.098947	0.448454
0.109474	0.479381
0.124211	0.510309
0.136842	0.556701
0.151579	0.587629
0.164211	0.613402
0.176842	0.649485
0.189474	0.675258
0.204211	0.716495
0.218947	0.737113
0.231579	0.768041
0.244211	0.798969
0.256842	0.819588
0.269474	0.850515
0.284211	0.881443
0.296842	0.902062
0.311579	0.92268
0.324211	0.953608
0.338947	0.969072
0.351579	1
0.364211	1.02062
0.376842	1.03608
0.391579	1.06701
0.405263	1.08763
0.416842	1.10825
0.431579	1.12887
0.444211	1.14948
0.456842	1.1701
0.471579	1.19588
0.486316	1.21134
0.496842	1.23196
0.513684	1.25258
0.524211	1.2732
0.534737	1.29381
0.553684	1.31443
0.562105	1.3299
0.578947	1.34536
0.589474	1.36598
0.606316	1.38144
0.616842	1.40206
0.631579	1.42268
0.642105	1.4433
0.658947	1.46392
0.669474	1.47938
0.682105	1.49485
0.698947	1.51031
0.709474	1.53093
0.724211	1.54639
0.734737	1.56701
0.749474	1.58247
0.766316	1.59278
0.778947	1.60825
0.791579	1.62887
0.804211	1.64433
0.816842	1.66495
0.833684	1.68557
0.844211	1.70103
0.858947	1.7165
0.869474	1.73196
0.884211	1.74742
0.898947	1.76804
0.911579	1.7835
0.924211	1.79897
0.938947	1.81959
0.953684	1.8299
0.964211	1.85052
0.978947	1.86082
0.989474	1.88144
1.00632	1.89691
1.01263	1.90722
0.978947	1.87629
0.951579	1.85567
0.926316	1.83505
0.917895	1.8299
0.907368	1.81443
0.892632	1.80928
0.877895	1.79381
0.867368	1.77835
0.850526	1.76804
0.837895	1.74742
0.825263	1.73711
0.812632	1.7268
0.8	1.71134
0.785263	1.70103
0.774737	1.68557
0.757895	1.6701
0.747368	1.65979
0.732632	1.63918
0.722105	1.62371
0.705263	1.61856
0.692632	1.59794
0.677895	1.58247
0.665263	1.56186
0.650526	1.54639
0.64	1.53093
0.625263	1.51031
0.612632	1.5
0.6	1.47938
0.587368	1.46392
0.572632	1.44845
0.557895	1.43299
0.547368	1.41753
0.532632	1.39691
0.522105	1.37629
0.505263	1.35567
0.494737	1.34021
0.48	1.31959
0.467368	1.29897
0.454737	1.2835
0.44	1.26289
0.425263	1.23711
0.412632	1.2165
0.4	1.19588
0.385263	1.1701
0.372632	1.15464
0.357895	1.13402
0.345263	1.10825
0.330526	1.08763
0.32	1.0567
0.305263	1.03608
0.294737	1.01031
0.28	0.984536
0.266316	0.958763
0.252632	0.927835
0.237895	0.902062
0.225263	0.871134
0.212632	0.845361
0.2	0.809278
0.187368	0.783505
0.172632	0.752577
0.157895	0.716495
0.147368	0.680412
0.132632	0.64433
0.12	0.603093
0.107368	0.561856
0.094737	0.520619
0.077895	0.479381
0.067368	0.427835
0.052632	0.371134
0.04	0.309278
0.025263	0.242268
0.010526	0.154639
0.006316	0.113402
