Adsorption isotherm of Carbon Dioxide on PI-COF-2
DOI: 10.1039/d0sc01747g
Article source: Figure S9
Adsorbate Carbon Dioxide: InChIKey CURLTUGMZLYLDI-UHFFFAOYSA-N
Kind: experiment
Temperature: 298 K
Tabular data in the source: 0
pressure (bar)	uptake (mmol/g)
0.005502	0.016308
0.01988	0.047323
0.031861	0.072698
0.047437	0.103713
0.059418	0.129088
0.072598	0.151644
0.085778	0.171381
0.098957	0.188298
0.110939	0.210854
0.125316	0.230591
0.139694	0.250327
0.151675	0.270064
0.166053	0.2898
0.181629	0.306717
0.192412	0.320815
0.205592	0.337732
0.216375	0.357468
0.231951	0.374385
0.245131	0.391302
0.259508	0.408219
0.27149	0.422317
0.283471	0.436414
0.297849	0.447693
0.309831	0.467429
0.325406	0.478707
0.339784	0.492805
0.351766	0.509722
0.366143	0.521
0.376927	0.532278
0.392502	0.552014
0.404484	0.566112
0.42006	0.57739
0.434438	0.588668
0.445221	0.602765
0.456004	0.614043
0.470382	0.628141
0.48476	0.642238
0.499137	0.656336
0.511119	0.664795
0.526695	0.681712
0.537478	0.69017
0.551856	0.701448
0.563837	0.724004
0.577017	0.738102
0.592593	0.74938
0.604574	0.760658
0.616555	0.771936
0.630933	0.783214
0.642915	0.800131
0.657292	0.811409
0.67167	0.819867
0.687246	0.839604
0.698029	0.850882
0.710011	0.86216
0.724388	0.870618
0.738766	0.887536
0.751946	0.898814
0.765125	0.910092
0.778305	0.924189
0.789088	0.935467
0.804664	0.949565
0.816646	0.960843
0.831023	0.97494
0.845401	0.986218
0.858581	0.997496
0.869364	1.01159
0.883742	1.02005
0.899318	1.03133
0.911299	1.04261
0.924479	1.05107
0.940054	1.06516
0.952036	1.07926
0.964017	1.09054
0.977197	1.10746
0.990976	1.11451
1.00236	1.12719
1.01194	1.13565
0.979593	1.13001
0.953234	1.12155
0.928073	1.11028
0.918488	1.10746
0.887336	1.09336
0.877751	1.09054
0.868166	1.0849
0.853788	1.07926
0.83941	1.0708
0.827429	1.06516
0.813051	1.05671
0.798673	1.04825
0.786692	1.04261
0.773512	1.03415
0.757937	1.02005
0.745955	1.01441
0.732775	1.00313
0.719596	0.994677
0.707614	0.983399
0.693237	0.972121
0.680057	0.960843
0.666878	0.949565
0.6525	0.943926
0.640518	0.929828
0.626141	0.91855
0.612961	0.907272
0.599781	0.893175
0.585404	0.881897
0.571026	0.870618
0.560243	0.85934
0.547063	0.848062
0.531487	0.828326
0.518308	0.814228
0.507524	0.808589
0.494345	0.794492
0.478769	0.780394
0.466787	0.769116
0.453608	0.752199
0.43923	0.735282
0.427249	0.726824
0.412871	0.712726
0.399691	0.695809
0.385314	0.678892
0.370936	0.661975
0.358954	0.647877
0.344577	0.63378
0.332595	0.614043
0.320614	0.602765
0.307434	0.583029
0.293057	0.566112
0.279877	0.549195
0.265499	0.526639
0.251121	0.512541
0.240338	0.498444
0.22596	0.475888
0.211583	0.453332
0.198403	0.430775
0.186422	0.411039
0.172044	0.391302
0.158864	0.368746
0.145685	0.351829
0.132505	0.320815
0.119326	0.298259
0.106146	0.278522
0.092966	0.250327
0.079787	0.216493
0.067805	0.185478
0.053428	0.151644
0.041446	0.114991
0.02587	0.069879
0.011493	0.016308
0.004304	0
