Adsorption isotherm of Carbon Dioxide on PI-COF-2
DOI: 10.1039/d0sc01747g
Article source: Figure S9
Adsorbate Carbon Dioxide: InChIKey CURLTUGMZLYLDI-UHFFFAOYSA-N
Kind: experiment
Temperature: 273 K
Tabular data in the source: 0
pressure (bar)	uptake (mmol/g)
0.004141	0.038977
0.018634	0.107186
0.035197	0.16078
0.045549	0.209501
0.057971	0.25335
0.072464	0.292326
0.084886	0.331303
0.098344	0.37028
0.111801	0.404385
0.126294	0.433618
0.136646	0.472594
0.151139	0.496955
0.167702	0.526188
0.178054	0.557856
0.192547	0.584653
0.206004	0.609013
0.217391	0.638246
0.231884	0.662607
0.245131	0.687351
0.257112	0.709907
0.27149	0.732463
0.287066	0.752199
0.300245	0.777575
0.311029	0.80295
0.325406	0.822687
0.337388	0.839604
0.352964	0.86216
0.363747	0.876257
0.378125	0.910092
0.392502	0.927009
0.404484	0.941106
0.417664	0.966482
0.430843	0.986218
0.445221	1.00032
0.457202	1.02005
0.47158	1.03415
0.48476	1.05671
0.497939	1.07644
0.511119	1.09618
0.521902	1.10746
0.53628	1.12719
0.550658	1.14975
0.565035	1.16667
0.579413	1.18076
0.590196	1.19768
0.604574	1.21742
0.617754	1.23152
0.629735	1.24843
0.644113	1.27381
0.656094	1.2879
0.67167	1.302
0.68485	1.31892
0.699227	1.33584
0.711209	1.35839
0.72319	1.37249
0.735172	1.39223
0.750748	1.4035
0.763927	1.42324
0.778305	1.44298
0.791485	1.45144
0.802268	1.47399
0.816646	1.49373
0.832221	1.51065
0.843005	1.52474
0.856184	1.54166
0.869364	1.55576
0.88494	1.57268
0.898119	1.59523
0.911299	1.60933
0.92328	1.62625
0.938856	1.64316
0.950838	1.66008
0.966414	1.67418
0.978395	1.69391
0.991575	1.71083
1.00595	1.72775
1.01075	1.74749
0.978395	1.72775
0.950838	1.71083
0.925677	1.70237
0.91729	1.69391
0.906506	1.68827
0.892129	1.67982
0.878949	1.66572
0.863373	1.65726
0.85259	1.6488
0.838212	1.64034
0.826231	1.63189
0.813051	1.61779
0.798673	1.60651
0.784296	1.59523
0.771116	1.58677
0.757937	1.56986
0.745955	1.5614
0.732775	1.55012
0.7172	1.53884
0.705218	1.52192
0.693237	1.51065
0.678859	1.49937
0.665679	1.47963
0.6525	1.46553
0.640518	1.45144
0.624942	1.43452
0.614159	1.42042
0.60098	1.40632
0.586602	1.39223
0.571026	1.37249
0.561441	1.35557
0.543469	1.33866
0.532685	1.31892
0.518308	1.30482
0.505128	1.28509
0.491948	1.26535
0.478769	1.25125
0.465589	1.2287
0.45241	1.20614
0.440428	1.19204
0.423654	1.16949
0.412871	1.14411
0.398493	1.12155
0.384115	1.10464
0.372134	1.0849
0.357756	1.06798
0.345775	1.03697
0.333793	1.02287
0.318218	0.994677
0.305038	0.972121
0.293057	0.943926
0.279877	0.92137
0.266697	0.898814
0.253518	0.873438
0.240338	0.848062
0.22596	0.819867
0.212781	0.788853
0.199601	0.755019
0.185224	0.724004
0.17444	0.69017
0.157666	0.659156
0.145685	0.619682
0.133703	0.583029
0.120524	0.540736
0.106146	0.498444
0.091768	0.456151
0.079787	0.40258
0.065409	0.354649
0.054626	0.301078
0.03905	0.23623
0.02587	0.157283
0.012691	0.069879
