Adsorption isotherm of Carbon Dioxide on PI-COF-TT
DOI: 10.1039/d0sc01747g
Article source: Figure S10
Adsorbate Carbon Dioxide: InChIKey CURLTUGMZLYLDI-UHFFFAOYSA-N
Kind: experiment
Temperature: 298 K
Tabular data in the source: 0
pressure (bar)	uptake (mmol/g)
0.004211	0.015464
0.016842	0.056701
0.031579	0.07732
0.042105	0.108247
0.058947	0.139175
0.071579	0.159794
0.086316	0.185567
0.101053	0.206186
0.113684	0.231959
0.126316	0.247423
0.136842	0.268041
0.151579	0.283505
0.166316	0.304124
0.178947	0.324742
0.193684	0.340206
0.208421	0.360825
0.216842	0.376289
0.235789	0.396907
0.248421	0.407216
0.258947	0.427835
0.273684	0.438144
0.286316	0.448454
0.298947	0.474227
0.311579	0.484536
0.328421	0.5
0.341053	0.515464
0.353684	0.530928
0.366316	0.546392
0.378947	0.551546
0.389474	0.572165
0.406316	0.582474
0.418947	0.597938
0.431579	0.613402
0.446316	0.634021
0.461053	0.639175
0.471579	0.654639
0.486316	0.664948
0.501053	0.685567
0.513684	0.695876
0.528421	0.706186
0.538947	0.726804
0.551579	0.731959
0.564211	0.747423
0.578947	0.757732
0.589474	0.768041
0.606316	0.778351
0.616842	0.798969
0.631579	0.809278
0.644211	0.824742
0.658947	0.835052
0.669474	0.840206
0.688421	0.85567
0.696842	0.871134
0.713684	0.881443
0.724211	0.891753
0.736842	0.907216
0.751579	0.912371
0.764211	0.92268
0.778947	0.943299
0.791579	0.953608
0.804211	0.963918
0.816842	0.969072
0.833684	0.989691
0.844211	1
0.858947	1.01031
0.871579	1.02577
0.886316	1.03093
0.901053	1.04639
0.915789	1.0567
0.926316	1.07217
0.938947	1.07732
0.953684	1.08247
0.968421	1.10309
0.983158	1.10825
0.993684	1.11856
1.00421	1.12887
1.01053	1.12887
0.978947	1.12371
0.951579	1.10309
0.928421	1.08763
0.917895	1.08247
0.905263	1.07732
0.892632	1.07217
0.88	1.06701
0.867368	1.05155
0.852632	1.04639
0.837895	1.03608
0.825263	1.03093
0.812632	1.02577
0.797895	1.01546
0.785263	1.00515
0.774737	0.989691
0.757895	0.984536
0.746316	0.979381
0.732632	0.963918
0.72	0.953608
0.707368	0.943299
0.692632	0.935567
0.677895	0.92268
0.665263	0.917526
0.650526	0.902062
0.64	0.891753
0.627368	0.881443
0.614737	0.876289
0.597895	0.85567
0.583158	0.850515
0.572632	0.840206
0.557895	0.824742
0.547368	0.819588
0.530526	0.804124
0.517895	0.78866
0.507368	0.778351
0.492632	0.765464
0.48	0.757732
0.467368	0.737113
0.454737	0.726804
0.44	0.71134
0.427368	0.701031
0.414737	0.685567
0.4	0.675258
0.389474	0.659794
0.372632	0.639175
0.362105	0.634021
0.345263	0.613402
0.334737	0.597938
0.32	0.592784
0.307368	0.572165
0.294737	0.556701
0.277895	0.536082
0.267368	0.525773
0.252632	0.505155
0.237895	0.489691
0.225263	0.463918
0.212632	0.453608
0.202105	0.438144
0.185263	0.417526
0.174737	0.391753
0.16	0.371134
0.146316	0.35567
0.134737	0.329897
0.122105	0.309278
0.105263	0.283505
0.092632	0.262887
0.08	0.231959
0.067368	0.21134
0.050526	0.180412
0.04	0.149485
0.027368	0.118557
0.010526	0.072165
0.006316	0.056701
