Adsorption isotherm of Nitrogen on PI-COF-1
DOI: 10.1039/d0sc01747g
Article source: Figure S5
Adsorbate Nitrogen: InChIKey IJGRMHOSHXDMSA-UHFFFAOYSA-N
Kind: experiment
Temperature: 77 K
Tabular data in the source: 0
pressure (bar)	uptake ()
0	6.15764
0	12.3153
0	17.8571
0	23.399
0	27.0936
0	32.6355
0	36.9458
0	39.4089
0	42.4877
0	45.8744
0	48.0296
0	51.1084
0	54.803
0.00103	57.266
0.002059	60.3448
0.003089	63.4236
0.004119	64.6552
0.005149	66.5025
0.006178	68.9655
0.008238	74.5074
0.049427	90.5172
0.096794	104.064
0.123567	108.99
0.156518	117.611
0.193588	121.921
0.228599	123.768
0.26155	123.768
0.29862	124.384
0.333631	124.384
0.391296	125
0.424247	123.768
0.459258	123.768
0.496328	124.384
0.531338	123.153
0.56429	123.153
0.60136	122.845
0.6374	122.537
0.671381	122.537
0.707421	121.613
0.741402	121.305
0.778473	122.537
0.815543	122.537
0.827899	122.537
0.885564	122.537
0.918515	123.768
0.934991	126.232
0.972061	129.926
1.00089	144.704
0.953526	129.31
0.916456	127.463
0.881445	126.847
0.844375	126.847
0.809364	126.847
0.774354	128.079
0.737284	128.695
0.704332	128.695
0.667262	129.926
0.632252	129.926
0.597241	131.158
0.56223	132.389
0.52516	132.389
0.490149	133.313
0.457198	133.621
0.420128	134.236
0.385117	134.236
0.348047	134.852
0.313037	135.468
0.275966	134.852
0.245075	134.852
0.205945	133.621
0.18947	133.005
0.158578	128.695
0.119448	120.69
0.084437	111.453
0.049427	102.217
