Adsorption isotherm of Nitrogen on PI-COF-TT
DOI: 10.1039/d0sc01747g
Article source: Figure S7
Adsorbate Nitrogen: InChIKey IJGRMHOSHXDMSA-UHFFFAOYSA-N
Kind: experiment
Temperature: 77 K
Tabular data in the source: 0
pressure (bar)	uptake (cm3(STP)/g)
0.002277	1.57895
0.001138	9.47368
0.002277	15.7895
0.002277	23.6842
0.002277	31.5789
0.002277	37.8947
0.002277	44.2105
0.002277	50.5263
0.002277	56.8421
0.002277	61.5789
0.002277	69.4737
0.003415	75.7895
0.004554	80.5263
0.002277	86.8421
0.002277	88.4211
0.002277	94.7368
0.002277	99.4737
0.002277	104.211
0.002277	107.368
0.004554	112.105
0.004554	115.263
0.006831	123.158
0.011385	131.053
0.05237	165.789
0.091079	187.895
0.118402	198.947
0.154834	208.421
0.188988	221.053
0.22542	230.526
0.268682	238.421
0.30739	240
0.334714	241.579
0.370007	244.737
0.403023	244.737
0.439454	249.474
0.475886	249.474
0.512317	252.632
0.548749	254.211
0.582903	255.789
0.621612	257.368
0.653489	258.947
0.689921	258.947
0.724075	263.684
0.761645	265.263
0.796938	266.842
0.828816	270
0.867524	273.158
0.899402	277.895
0.933556	288.947
0.972265	309.474
1.00414	394.737
0.969988	336.316
0.929002	303.158
0.897125	292.105
0.853862	284.211
0.817431	282.632
0.782138	277.895
0.762784	277.895
0.724075	276.316
0.692198	273.158
0.653489	273.158
0.621612	271.579
0.582903	271.579
0.548749	268.421
0.51004	268.421
0.478163	266.842
0.444008	263.684
0.407577	263.684
0.371146	260.526
0.334714	262.105
0.298283	258.947
0.264128	255.789
0.232251	252.632
0.191265	240
0.157111	228.947
0.122956	219.474
0.093356	205.263
0.05237	186.316
