Adsorption isotherm of Carbon Dioxide on PI-COF-1
DOI: 10.1039/d0sc01747g
Article source: Figure S8
Adsorbate Carbon Dioxide: InChIKey CURLTUGMZLYLDI-UHFFFAOYSA-N
Kind: experiment
Temperature: 298 K
Tabular data in the source: 0
pressure (bar)	uptake (mmol/g)
0.008264	0.035806
0.022727	0.092072
0.035124	0.132992
0.047521	0.163683
0.061983	0.199488
0.07438	0.240409
0.086777	0.26087
0.10124	0.30179
0.113636	0.322251
0.128099	0.347826
0.13887	0.376622
0.154413	0.391423
0.16637	0.415104
0.179522	0.450625
0.193871	0.462466
0.208219	0.489107
0.221371	0.506867
0.236915	0.527588
0.24648	0.545349
0.260828	0.56311
0.275176	0.580871
0.287133	0.601591
0.299089	0.619352
0.313437	0.637113
0.327785	0.651913
0.340938	0.672634
0.351699	0.684475
0.367243	0.699275
0.380395	0.717036
0.394743	0.734797
0.4067	0.749597
0.421048	0.761438
0.433004	0.779199
0.447352	0.793999
0.459309	0.80584
0.473657	0.81768
0.488005	0.832481
0.499962	0.850242
0.511918	0.862082
0.526266	0.876883
0.538223	0.888723
0.552571	0.900564
0.566919	0.912404
0.57768	0.924245
0.593224	0.936085
0.608768	0.953846
0.619529	0.959766
0.632681	0.971607
0.647029	0.983447
0.658986	0.995287
0.672138	1.00713
0.688877	1.01601
0.698443	1.03081
0.710399	1.03673
0.727139	1.05449
0.739096	1.06633
0.753444	1.07521
0.767792	1.08705
0.78214	1.09593
0.791705	1.10481
0.803662	1.11369
0.819205	1.12553
0.832358	1.13737
0.849097	1.14921
0.858662	1.15513
0.87301	1.16993
0.886163	1.17882
0.900511	1.19065
0.914859	1.19954
0.92562	1.21138
0.939968	1.22322
0.954316	1.2321
0.967468	1.24394
0.980621	1.24394
0.992577	1.25578
1.00334	1.2617
1.01051	1.27354
0.980621	1.25578
0.950729	1.24394
0.928011	1.23506
0.920837	1.22914
0.906489	1.22914
0.893337	1.22026
0.880184	1.2173
0.864641	1.20842
0.85388	1.19954
0.839532	1.19065
0.826379	1.18473
0.813227	1.17586
0.798879	1.16993
0.786922	1.16698
0.774966	1.15217
0.759422	1.14625
0.745074	1.13441
0.734313	1.12553
0.719965	1.11961
0.710399	1.11073
0.691269	1.09889
0.679312	1.08705
0.668551	1.07817
0.653007	1.06929
0.639855	1.06337
0.629094	1.04857
0.614746	1.03969
0.600398	1.03081
0.58605	1.01601
0.574093	1.00713
0.562137	0.992327
0.545397	0.983447
0.534636	0.971607
0.523875	0.959766
0.507136	0.947926
0.495179	0.936085
0.480831	0.915364
0.47007	0.909444
0.454526	0.888723
0.441374	0.876883
0.428222	0.862082
0.415069	0.841361
0.400721	0.832481
0.386373	0.82064
0.373221	0.80288
0.361264	0.791039
0.349307	0.773278
0.333764	0.752558
0.321807	0.737757
0.308655	0.719996
0.294307	0.705196
0.279959	0.684475
0.268002	0.669674
0.256045	0.648953
0.241697	0.631193
0.227349	0.607512
0.213001	0.586791
0.201045	0.56311
0.189088	0.545349
0.175935	0.512788
0.160392	0.489107
0.146044	0.459506
0.134087	0.438785
0.12213	0.406223
0.107782	0.370702
0.09463	0.344061
0.081478	0.305579
0.068325	0.264138
0.055173	0.222696
0.040825	0.178294
0.026477	0.130932
0.012129	0.06877
0.007346	0.024368
