Adsorption isotherm of Nitrogen on PI-COF-2
DOI: 10.1039/d0sc01747g
Article source: Figure S6
Adsorbate Nitrogen: InChIKey IJGRMHOSHXDMSA-UHFFFAOYSA-N
Kind: experiment
Temperature: 77 K
Tabular data in the source: 0
pressure (bar)	uptake (cm3(STP)/g)
0	4.21053
0	10.5263
0	18.9474
0.001095	27.3684
0.001095	35.7895
0.001095	42.1053
0.001095	46.3158
0.001095	54.7368
0.001095	58.9474
0.001095	63.1579
0.001095	71.5789
0.001095	75.7895
0.001095	84.2105
0.001095	92.6316
0.001095	98.9474
0.001095	103.158
0.001095	111.579
0.001095	122.105
0.001095	132.632
0.003286	143.158
0.003286	151.579
0.005477	157.895
0.005477	164.211
0.012049	177.895
0.049293	218.947
0.088728	244.211
0.119399	261.053
0.152261	280
0.189505	305.263
0.237703	345.263
0.263993	351.579
0.263993	351.579
0.303427	355.789
0.334099	355.789
0.371342	360
0.406395	364.211
0.439258	364.211
0.476501	368.421
0.511554	368.421
0.548798	370.526
0.583851	370.526
0.618904	374.737
0.656148	376.842
0.68901	381.053
0.726254	378.947
0.759116	383.158
0.794169	385.263
0.831413	389.474
0.866466	393.684
0.903709	400
0.934381	408.421
0.969434	429.474
1.00887	520
0.980388	465.263
0.938762	427.368
0.894946	410.526
0.85113	402.105
0.816077	400
0.778833	397.895
0.741589	397.895
0.728445	395.789
0.68901	393.684
0.653957	393.684
0.618904	393.684
0.583851	389.474
0.546607	389.474
0.513745	389.474
0.476501	385.263
0.44583	381.053
0.402014	378.947
0.353816	376.842
0.334099	374.737
0.301236	372.632
0.263993	368.421
0.231131	357.895
0.191696	326.316
0.156643	303.158
0.125972	284.211
0.088728	265.263
0.049293	238.947
