Adsorption isotherm of Nitrogen on Ni@PI-COF-TT
DOI: 10.1039/d0sc01747g
Article source: Figure S25
Adsorbate Nitrogen: InChIKey IJGRMHOSHXDMSA-UHFFFAOYSA-N
Kind: experiment
Temperature: 77 K
Tabular data in the source: 0
pressure (bar)	uptake (mmol/g)
0.009577	2.31214
0.099601	4.62428
0.796809	12.7168
0.833202	13.8728
0.867679	16.185
0.905987	16.185
0.936634	17.341
0.971111	25.4335
1.00367	49.711
0.974942	32.3699
0.928972	23.1214
0.888749	18.4971
0.844694	16.185
0.812132	13.8728
0.777655	12.7168
0.758501	12.7168
0.724024	12.7168
0.687631	11.5607
0.653154	11.5607
0.620592	11.5607
0.584199	9.24856
0.547806	9.24856
0.511414	11.5607
0.476936	10.4046
0.442459	10.4046
0.406066	9.24856
0.373504	9.24856
0.337112	8.09249
0.298803	8.09249
0.262411	6.93642
0.229849	8.09249
0.193456	6.93642
0.155148	6.93642
0.120671	5.78035
0.088109	6.93642
0.051716	4.62428
