Adsorption isotherm of Hydrogen on UiO-66
DOI: 10.1016/j.ijhydene.2013.01.163
Adsorbate Hydrogen: InChIKey UFHFLCQGNIYNRP-UHFFFAOYSA-N
Temperature: 77 K
Tabular data in the source: 0
pressure (bar)	uptake (wt%)
0.0496392	0.00881314
0.0829725	0.58048
0.149639	0.79048
0.382973	1.16381
0.549639	1.35631
0.782973	1.54881
0.982973	1.79381
1.41631	1.95131
1.88297	2.14965
2.91631	2.47048
3.98297	2.62798
5.04964	2.76798
5.94964	2.82048
7.94964	3.04215
9.98297	3.19381
11.9163	3.24631
14.083	3.32798
15.9496	3.38048
18.1163	3.39798
