Adsorption isotherm of Hydrogen on UiO-66
DOI: 10.1016/j.ijhydene.2013.01.163
Adsorbate Hydrogen: InChIKey UFHFLCQGNIYNRP-UHFFFAOYSA-N
Temperature: 77 K
Tabular data in the source: 0
pressure (bar)	uptake (wt%)
0.0496392	0.0204798
0.116306	0.586313
0.182973	0.697146
0.382973	0.866313
0.482973	0.977146
0.782973	1.15798
1.88297	1.53131
2.84964	1.70631
4.04964	1.85215
5.88297	1.99798
7.91631	2.11465
10.1496	2.26048
12.0496	2.33048
14.0163	2.40048
16.183	2.45881
18.0496	2.51131
