Adsorption isotherm of Nitrogen on UiO-66
DOI: 10.1016/j.ijhydene.2013.01.163
Adsorbate Nitrogen: InChIKey IJGRMHOSHXDMSA-UHFFFAOYSA-N
Temperature: 77 K
Tabular data in the source: 0
pressure (bar)	uptake (cm3(STP)/g)
0.00251422	-0.489176
0.00251422	55.5108
0.00251422	136.511
0.00757923	224.511
0.0126442	275.511
0.0295276	331.511
0.0683592	365.511
0.0970609	378.511
0.149399	391.511
0.238881	404.511
0.414468	417.511
0.515768	421.511
0.608626	426.511
0.714991	431.511
0.834863	441.511
0.910838	450.511
0.964864	466.511
0.988501	490.511
1.00201	527.511
1.00538	551.511
