Adsorption isotherm of Hydrogen on UiO-66
DOI: 10.1016/j.ijhydene.2013.01.163
Adsorbate Hydrogen: InChIKey UFHFLCQGNIYNRP-UHFFFAOYSA-N
Temperature: 77 K
Tabular data in the source: 0
pressure (bar)	uptake (wt%)
0.0496392	0.0204798
0.116306	0.586313
0.182973	0.907146
0.316306	1.23381
0.582973	1.43798
0.949639	1.75298
1.41631	2.00381
1.91631	2.18465
2.81631	2.40048
4.08297	2.57548
5.04964	2.68631
7.04964	2.86715
9.14964	2.97798
11.083	3.08298
13.1163	3.18215
15.083	3.25215
17.1496	3.31631
17.983	3.33381
