Adsorption isotherm of Hydrogen on UiO-66
DOI: 10.1016/j.ijhydene.2013.01.163
Adsorbate Hydrogen: InChIKey UFHFLCQGNIYNRP-UHFFFAOYSA-N
Temperature: 77 K
Tabular data in the source: 0
pressure (bar)	uptake (wt%)
0.0496392	0.00881314
0.0829725	0.58048
0.182973	0.883813
0.349639	1.21631
0.482973	1.43215
0.716306	1.58965
0.916306	1.74131
1.48297	2.00965
1.98297	2.20215
2.78297	2.40048
3.94964	2.57548
5.04964	2.69215
6.01631	2.76798
7.01631	2.86131
8.01631	2.93131
9.94964	3.04215
11.983	3.12381
14.083	3.20548
16.1496	3.28715
18.0496	3.33381
