Adsorption isotherm of Nitrogen on UiO-66
DOI: 10.1016/j.ijhydene.2013.01.163
Adsorbate Nitrogen: InChIKey IJGRMHOSHXDMSA-UHFFFAOYSA-N
Temperature: 77 K
Tabular data in the source: 0
pressure (bar)	uptake (cm3(STP)/g)
0.00251422	-0.489176
0.00251422	55.5108
0.00420256	124.511
0.00757923	145.511
0.0177092	156.511
0.0447226	163.511
0.0886192	169.511
0.120698	171.511
0.191608	174.511
0.276024	178.511
0.358753	180.511
0.444858	183.511
0.563041	188.511
0.667718	192.511
0.774083	197.511
0.828109	204.511
0.885513	213.511
0.934474	225.511
0.968241	239.511
0.993566	257.511
1.00538	285.511
1.01045	318.511
1.01551	346.511
