Adsorption isotherm of Nitrogen on {[Zn3(DLlac)2(pybz)2]*2.5DMF}n
DOI: 10.1021/Ja908293n
Adsorbate Nitrogen: InChIKey IJGRMHOSHXDMSA-UHFFFAOYSA-N
Temperature: 77 K
Tabular data in the source: 0
pressure (bar)	uptake (cm3(STP)/g)
0.00234663	166.664
0.00486767	95.7151
0.00730943	19.1357
0.0077851	52.9189
0.00902183	140.755
0.00954507	177.917
0.0107184	11.2488
0.0203269	193.67
0.0415575	201.528
0.0767887	203.74
0.108484	204.829
0.157779	205.898
0.207058	205.841
0.256337	205.784
0.302097	205.731
0.351408	207.926
0.400687	207.869
0.449966	207.812
0.499229	206.629
0.545004	207.702
0.590764	207.649
0.636523	207.596
0.692842	207.53
0.738601	207.477
0.78788	207.42
0.833656	208.493
0.882935	208.436
0.92519	209.513
0.953365	210.607
0.964004	216.225
