Adsorption isotherm of Nitrogen on COF-909
DOI: 10.1002/anie.201909020
Article source: Figure S25
Adsorbate Nitrogen: InChIKey IJGRMHOSHXDMSA-UHFFFAOYSA-N
Kind: experiment
Temperature: 77 K
Tabular data in the source: 0
pressure (bar)	uptake (cm3(STP)/g)
0.001664	202.398
0.004159	283.933
0.007487	312.71
0.009983	336.691
0.023293	396.643
0.028284	415.827
0.03494	435.012
0.044922	463.789
0.053241	490.168
0.06156	514.149
0.073207	574.101
0.079862	595.683
0.081526	602.878
0.089845	636.451
0.098164	670.024
0.119793	684.412
0.164716	715.588
0.232931	740.767
0.301978	758.753
0.364371	768.345
0.43425	780.336
0.498306	789.928
0.567353	797.122
0.630578	801.918
0.698793	811.511
0.767009	821.103
0.831897	835.492
0.898448	849.88
0.960841	902.638
0.972487	923.022
0.985797	961.391
0.990789	1002.16
1.0041	1093.29
0.988293	1027.34
0.981638	988.969
0.97831	967.386
0.965	931.415
0.88181	864.269
0.801948	842.686
0.72375	833.094
0.643888	821.103
0.567353	811.511
0.490819	801.918
0.409293	787.53
0.334422	773.141
0.259552	758.753
0.174698	729.976
0.124784	694.005
0.095668	660.432
0.084853	626.859
0.069879	564.508
0.069879	550.12
0.066552	535.731
0.056569	504.556
0.046586	478.177
0.039931	451.799
0.036603	442.206
0.033276	427.818
0.031612	423.022
0.029948	415.827
0.026621	403.837
0.019966	379.856
0.018302	365.468
0.01331	348.681
