Adsorption isotherm of Nitrogen on COF-808
DOI: 10.1002/anie.201909020
Article source: Figure S23
Adsorbate Nitrogen: InChIKey IJGRMHOSHXDMSA-UHFFFAOYSA-N
Kind: experiment
Temperature: 77 K
Tabular data in the source: 0
pressure (bar)	uptake (cm3(STP)/g)
0.003317	219.512
0.004975	236.856
0.007463	271.545
0.011608	301.897
0.011608	319.241
0.013267	334.417
0.018242	347.425
0.021559	364.77
0.023217	377.778
0.02985	392.954
0.031509	408.13
0.034825	421.138
0.0398	429.81
0.043117	440.65
0.048092	453.659
0.06053	485.095
0.067992	503.523
0.072967	533.875
0.074626	542.547
0.079601	579.404
0.087892	617.344
0.102818	636.856
0.144276	658.537
0.168322	667.209
0.235485	687.805
0.301819	708.401
0.366495	719.241
0.437804	726.829
0.50165	736.585
0.566325	743.089
0.632659	751.762
0.698164	758.266
0.767815	769.106
0.831661	781.03
0.895507	800.542
0.96267	861.247
0.974279	886.179
0.9834	919.783
0.991691	972.9
1.00247	1030.35
0.990033	983.74
0.985058	978.32
0.977596	951.219
0.9635	912.195
0.881411	818.97
0.80264	796.206
0.725527	783.198
0.649243	771.274
0.571301	764.77
0.494187	752.846
0.414587	744.173
0.334986	737.669
0.257044	715.989
0.184077	692.141
0.127693	670.461
0.102818	650.948
0.099501	650.948
0.096184	648.781
0.084576	629.268
0.084576	624.932
0.076284	564.228
0.069651	518.699
0.04975	468.835
