Adsorption isotherm of Nitrogen on ZJU-22
DOI: 10.1002/chem.201303615
Adsorbate Nitrogen: InChIKey IJGRMHOSHXDMSA-UHFFFAOYSA-N
Temperature: 77 K
Tabular data in the source: 0
pressure (bar)	uptake (cm3(STP)/g)
0.00452962	158.932
0.0448801	184.425
0.0879418	191.005
0.123434	193.214
0.156389	195.421
0.194424	196.905
0.237553	196.21
0.273046	198.419
0.313631	198.449
0.354209	199.207
0.392252	199.963
0.422698	199.258
0.468343	200.748
0.501319	200.772
0.541891	202.258
0.582483	201.561
0.617995	201.587
0.656043	201.616
0.66872	202.353
0.734664	203.13
0.767647	202.427
0.790476	202.444
0.831062	202.474
0.86403	203.226
0.922372	203.27
