Adsorption isotherm of Nitrogen on ZJU-21
DOI: 10.1002/chem.201303615
Adsorbate Nitrogen: InChIKey IJGRMHOSHXDMSA-UHFFFAOYSA-N
Temperature: 77 K
Tabular data in the source: 0
pressure (bar)	uptake (cm3(STP)/g)
0.00575094	301.525
0.0486918	321.2
0.0816137	327.045
0.119629	330.711
0.162737	332.199
0.195693	334.406
0.233728	335.889
0.271777	335.918
0.314879	338.133
0.345304	339.61
0.380817	339.637
0.423926	341.124
0.459438	341.151
0.50001	342.636
0.540589	343.394
0.576101	343.421
0.614142	344.177
0.654722	344.935
0.690227	345.689
0.730819	344.992
0.768868	345.02
0.789154	345.763
0.824666	345.79
0.865239	347.275
0.921044	347.317
