Adsorption isotherm of Nitrogen on ZJU-22
DOI: 10.1002/chem.201303615
Adsorbate Nitrogen: InChIKey IJGRMHOSHXDMSA-UHFFFAOYSA-N
Temperature: 77 K
Tabular data in the source: 0
pressure (bar)	uptake (cm3(STP)/g)
-0.00024158	126.19
0.00211382	145.835
0.00215408	141.47
0.00220106	136.377
0.00710647	154.569
0.00711989	153.114
0.00715345	149.476
0.00953569	166.211
0.0145619	171.307
0.0321905	185.143
0.0701991	189.537
0.0980817	191.74
0.108227	191.748
0.131043	193.22
0.189358	196.174
0.224871	196.2
0.252759	197.676
0.300955	197.712
0.379576	199.226
0.412551	199.251
0.445521	200.003
0.483562	200.759
0.511458	201.507
0.569813	200.096
0.607848	201.58
0.638288	201.602
0.699159	202.375
0.762566	203.15
0.795556	201.72
0.858951	203.95
0.889396	203.245
