Adsorption isotherm of Nitrogen on ZJU-21
DOI: 10.1002/chem.201303615
Adsorbate Nitrogen: InChIKey IJGRMHOSHXDMSA-UHFFFAOYSA-N
Temperature: 77 K
Tabular data in the source: 0
pressure (bar)	uptake (cm3(STP)/g)
0.000765003	292.064
0.000892503	278.241
0.00104684	261.509
0.00324791	297.886
0.00334857	286.973
0.0107571	308.804
0.0309826	316.095
0.0613613	322.665
0.0917601	327.053
0.106973	327.792
0.129789	329.264
0.157678	330.74
0.18809	333.673
0.221052	335.152
0.251485	335.903
0.28699	336.657
0.297136	336.664
0.378294	338.18
0.411256	339.66
0.441689	340.41
0.477194	341.164
0.505083	342.64
0.563431	341.956
0.598937	342.71
0.634449	342.737
0.669954	343.491
0.697851	344.24
0.753642	345.736
0.796771	345.041
0.857635	346.542
0.890611	346.566
