Adsorption isotherm of Carbon Dioxide on Mg-MOF-74@MR
DOI: 10.1021/acs.chemmater.5b02211
Article source: Figure 2a
Adsorbate Carbon Dioxide: InChIKey CURLTUGMZLYLDI-UHFFFAOYSA-N
Kind: experiment
Temperature: 303 K
Tabular data in the source: 0
pressure (bar)	uptake (cm3(STP)/g)
0	0
0.024007	1.61039
0.04241	2.44156
0.060945	3.48052
0.086908	4.15584
0.105178	4.77922
0.125935	5.2987
0.146692	5.81818
0.164797	6.18182
0.185455	6.54545
0.208699	6.96104
0.229356	7.32468
0.249947	7.58442
0.270539	7.84416
0.28609	8.20779
0.309201	8.41558
0.329826	8.72727
0.347798	8.88312
0.368356	9.09091
0.388881	9.24675
0.411992	9.45455
0.429964	9.61039
0.453042	9.76623
0.468428	9.87013
0.494092	10.0779
0.509478	10.1818
0.52997	10.2857
0.553048	10.4416
0.570986	10.5455
0.591445	10.5974
0.611937	10.7013
0.635015	10.8571
0.655474	10.9091
0.673379	10.961
0.691318	11.0649
0.737275	11.0649
0.772888	10.8571
0.813772	10.9091
0.85459	10.8571
0.892854	10.8052
0.933639	10.7013
0.971904	10.6494
1.01524	10.5455
1.05603	10.4416
1.09426	10.3377
1.13249	10.2338
1.17589	10.2338
1.21668	10.1299
