Adsorption isotherm of Carbon Dioxide on Mg-MOF-74@MR(Photoswitchg 1 hour)
DOI: 10.1021/acs.chemmater.5b02211
Article source: Figure 2a
Adsorbate Carbon Dioxide: InChIKey CURLTUGMZLYLDI-UHFFFAOYSA-N
Kind: experiment
Temperature: 303 K
Tabular data in the source: 0
pressure (bar)	uptake (cm3(STP)/g)
0	0
0.024552	1.81924
0.043267	2.80707
0.064531	3.795
0.085701	4.67903
0.106686	5.35527
0.130127	5.92771
0.148425	6.44798
0.169225	6.91642
0.190071	7.4368
0.210917	7.95718
0.234265	8.42573
0.252471	8.8421
0.27063	9.20652
0.293931	9.62311
0.3145	9.8318
0.335114	10.0924
0.355821	10.457
0.373888	10.7175
0.394549	11.0301
0.415256	11.3946
0.433416	11.759
0.45403	12.0197
0.474691	12.3322
0.495259	12.5409
0.515781	12.6977
0.556733	12.9072
0.574753	13.1158
0.597869	13.3246
0.616028	13.689
0.636597	13.8977
0.657211	14.1583
0.677779	14.367
0.700849	14.5238
0.718731	14.5766
0.76223	14.7862
0.780204	14.9429
0.798132	15.0475
0.82134	15.3602
0.839407	15.6208
0.859929	15.7775
0.883045	15.9863
0.901019	16.1429
0.921356	16.0918
0.962214	16.1975
0.98269	16.3023
1.00062	16.407
1.04426	16.7725
1.06487	17.0331
1.08535	17.1379
1.10082	17.3464
1.12616	17.1916
1.16688	17.1414
1.2051	17.1431
