Adsorption isotherm of Carbon Dioxide on Mg-MOF-74@MR(Irradiated 1 hour)
DOI: 10.1021/acs.chemmater.5b02211
Article source: Figure 2b
Adsorbate Carbon Dioxide: InChIKey CURLTUGMZLYLDI-UHFFFAOYSA-N
Kind: experiment
Temperature: 303 K
Tabular data in the source: 0
pressure (bar)	uptake (cm3(STP)/g)
0	0
0.024045	1.59243
0.039902	2.42676
0.066196	3.64054
0.08459	4.47504
0.108058	5.30985
0.126222	5.8413
0.149459	6.37307
0.167681	6.98028
0.190976	7.58781
0.211619	8.04366
0.232262	8.49951
0.255384	8.87976
0.270953	9.33529
0.291596	9.79114
0.314776	10.2471
0.335361	10.6272
0.353409	11.0072
0.37411	11.5388
0.39458	11.7673
0.417702	12.1476
0.433213	12.5273
0.456336	12.9076
0.476921	13.2877
0.494854	13.5161
0.518034	13.9721
0.535967	14.2005
0.559089	14.5808
0.577079	14.8849
0.597607	15.1892
0.620729	15.5695
0.63872	15.8737
0.656768	16.2536
0.679833	16.5581
0.697823	16.8622
0.720946	17.2425
0.738878	17.4709
0.762001	17.8511
0.780049	18.2311
0.803056	18.4598
0.823641	18.8399
0.844227	19.22
0.862159	19.4484
0.882802	19.9042
0.90333	20.2085
0.923858	20.5129
0.941848	20.817
0.964913	21.1215
0.982961	21.5014
1.00608	21.8817
1.02667	22.2618
1.04725	22.6419
1.06519	22.8703
1.08831	23.2505
1.10636	23.6305
1.12688	23.9348
1.14499	24.3905
1.1654	24.5433
1.18858	24.9993
1.21171	25.3795
