Adsorption isotherm of Carbon Dioxide on MIL-53(Al)@MR 15wt%(Irradiated)
DOI: 10.1021/acs.chemmater.5b02211
Article source: Figure 2d
Adsorbate Carbon Dioxide: InChIKey CURLTUGMZLYLDI-UHFFFAOYSA-N
Kind: experiment
Temperature: 303 K
Tabular data in the source: 0
pressure (bar)	uptake (cm3(STP)/g)
0	0
0.025393	0.311688
0.043361	0.857143
0.058762	1.32468
0.081818	1.94805
0.099832	2.57143
0.122796	3.03896
0.145943	3.81818
0.166387	4.28571
0.189442	4.90909
0.207502	5.61039
0.230695	6.46753
0.249442	8.33766
0.271169	10.987
0.312972	13.4805
0.331077	14.2597
0.354316	15.1948
0.377418	15.8961
0.392865	16.4416
0.436364	17.5325
0.454286	18
0.472116	18.3117
0.495126	18.8571
0.517998	19.1688
0.533354	19.5584
0.55618	19.7922
0.574057	20.1818
0.599404	20.4156
0.614622	20.5714
0.63754	20.961
0.660367	21.1948
0.678151	21.4286
0.698411	21.5844
0.718717	21.8182
0.739022	22.0519
0.759282	22.2078
0.777066	22.4416
0.797372	22.6753
0.817632	22.8312
0.840504	23.1429
0.858289	23.3766
0.878594	23.6104
0.901375	23.7662
0.921727	24.0779
0.939557	24.3896
0.962429	24.7013
0.980168	24.8571
1.00047	25.0909
1.02078	25.3247
1.04104	25.4805
1.05887	25.7922
1.08174	26.1039
1.10461	26.4156
1.12244	26.7273
1.14275	26.961
1.15801	27.1948
1.18341	27.5065
1.20633	27.8961
