Adsorption isotherm of Carbon Dioxide on MIL-53(Al)@MR 50wt%(Irradiated)
DOI: 10.1021/acs.chemmater.5b02211
Article source: Figure 2e
Adsorbate Carbon Dioxide: InChIKey CURLTUGMZLYLDI-UHFFFAOYSA-N
Kind: experiment
Temperature: 303 K
Tabular data in the source: 0
pressure (bar)	uptake (cm3(STP)/g)
0	0
0.020303	0.197516
0.038126	0.433895
0.058464	0.67052
0.083905	0.985857
0.104313	1.3007
0.124652	1.53733
0.142509	1.81282
0.165399	2.0888
0.183291	2.40339
0.206181	2.67938
0.226484	2.87689
0.244482	3.30882
0.269853	3.54594
0.287745	3.86053
0.308049	4.05805
0.330938	4.33403
0.34876	4.57041
0.368993	4.68971
0.389332	4.92633
0.40967	5.16296
0.430009	5.39958
0.450347	5.63621
0.470685	5.87283
0.491129	6.22679
0.508987	6.50228
0.531876	6.77826
0.552215	7.01488
0.572588	7.29062
0.592927	7.52724
0.615675	7.64678
0.656212	7.9636
0.67662	8.27844
0.697064	8.63239
0.714887	8.86877
0.73526	9.14451
0.75815	9.42049
0.775972	9.65687
0.79631	9.89349
0.816649	10.1301
0.834436	10.3274
0.857326	10.6034
0.877629	10.8009
0.897967	11.0375
0.920822	11.2744
0.936128	11.5105
0.958947	11.7083
0.981802	11.9451
0.997073	12.1422
1.01738	12.3397
1.04023	12.5766
1.0605	12.735
1.07829	12.9322
1.09859	13.1298
1.12392	13.3278
1.14171	13.525
1.16209	13.8008
1.1849	13.9985
1.20528	14.2743
