Adsorption isotherm of Carbon Dioxide on MIL-53(Al)@MR 15wt%(Relaxed)
DOI: 10.1021/acs.chemmater.5b02211
Article source: Figure 2d
Adsorbate Carbon Dioxide: InChIKey CURLTUGMZLYLDI-UHFFFAOYSA-N
Kind: experiment
Temperature: 303 K
Tabular data in the source: 0
pressure (bar)	uptake (cm3(STP)/g)
0	0
0.023053	0.626501
0.038449	1.09625
0.064107	1.87917
0.08724	2.66193
0.102714	3.28794
0.125807	3.99257
0.146373	4.69703
0.167098	5.714
0.186006	8.13711
0.204875	10.4821
0.230889	11.9682
0.249127	13.0631
0.272219	13.7677
0.292786	14.4722
0.313273	15.0204
0.331156	15.4122
0.35413	15.8824
0.374539	16.2744
0.392421	16.6662
0.41279	16.98
0.435646	17.2159
0.45341	17.3733
0.473739	17.609
0.496595	17.8448
0.51432	17.9241
0.537176	18.16
0.552413	18.3172
0.575229	18.4749
0.59552	18.6325
0.613204	18.6337
0.63606	18.8695
0.658798	18.871
0.676562	19.0284
0.696773	19.0297
0.71955	19.1093
0.757446	19.1118
0.77517	19.1911
0.795421	19.2705
0.818158	19.272
0.840975	19.4298
0.856094	19.3526
0.899082	19.4335
0.936978	19.436
0.957229	19.5154
0.979887	19.3607
1.01534	19.5192
1.03811	19.5988
1.06089	19.6784
1.09883	19.759
1.11908	19.8385
1.1368	19.9178
1.16214	20.0757
1.17987	20.1549
1.19767	20.3905
