Adsorption isotherm of Carbon Dioxide on MIL-53(Al)@MR 50wt%(Photoswitched)
DOI: 10.1021/acs.chemmater.5b02211
Article source: Figure 2e
Adsorbate Carbon Dioxide: InChIKey CURLTUGMZLYLDI-UHFFFAOYSA-N
Kind: experiment
Temperature: 303 K
Tabular data in the source: 0
pressure (bar)	uptake (cm3(STP)/g)
0	0
0.022641	0
0.03775	0.039216
0.060434	0.156863
0.080616	0.313725
0.103286	0.392157
0.125969	0.509804
0.141134	0.705882
0.161288	0.784314
0.183986	0.941176
0.199123	1.05882
0.224322	1.17647
0.242017	1.41176
0.264715	1.56863
0.305079	1.88235
0.342928	2.19608
0.363082	2.27451
0.38325	2.39216
0.405933	2.5098
0.426116	2.66667
0.446284	2.78431
0.466452	2.90196
0.48416	3.17647
0.506858	3.33333
0.524525	3.4902
0.544721	3.68627
0.567405	3.80392
0.585071	3.96078
0.607699	3.92157
0.645477	4.03922
0.665659	4.19608
0.685827	4.31373
0.708511	4.43137
0.731251	4.70588
0.743886	4.86275
0.771601	4.98039
0.786752	5.13725
0.811966	5.29412
0.832148	5.45098
0.84973	5.37255
0.892525	5.45098
0.910177	5.56863
0.927816	5.64706
0.953015	5.76471
0.970738	6.07843
0.993436	6.23529
1.0312	6.31373
1.07154	6.54902
1.08912	6.47059
1.1319	6.5098
1.15207	6.62745
1.16969	6.66667
1.19239	6.82353
