Adsorption isotherm of Carbon Dioxide on Mg-MOF-74@MR(1 day after relaxation)
DOI: 10.1021/acs.chemmater.5b02211
Article source: Figure 3
Adsorbate Carbon Dioxide: InChIKey CURLTUGMZLYLDI-UHFFFAOYSA-N
Kind: experiment
Temperature: 303 K
Tabular data in the source: 0
pressure (bar)	uptake (cm3(STP)/g)
0	0
0.024101	1.5321
0.042678	2.50398
0.063746	3.40147
0.087191	4.0753
0.105512	4.71134
0.126352	5.31029
0.149654	5.79754
0.167804	6.20968
0.191049	6.6223
0.20917	6.99712
0.232387	7.37242
0.25045	7.67262
0.268514	7.97281
0.291645	8.23616
0.309681	8.49904
0.330207	8.68752
0.35331	8.91356
0.371345	9.17643
0.391843	9.3276
0.417465	9.51655
0.432867	9.66725
0.450816	9.81817
0.473862	9.96958
0.491812	10.1205
0.514829	10.2346
0.532722	10.3109
0.553219	10.4621
0.573689	10.5759
0.594158	10.6898
0.617175	10.8038
0.635039	10.8428
0.658056	10.9569
0.67343	11.0703
0.69639	11.1097
0.742196	11.0394
0.77781	10.9681
0.818577	10.9719
0.859259	10.8637
0.900026	10.8675
0.940708	10.7594
0.986514	10.689
1.0221	10.5804
1.05771	10.5091
1.09845	10.4756
1.13913	10.3675
1.1773	10.2964
1.21801	10.2256
