Adsorption isotherm of Carbon Dioxide on Mg-MOF-74@MR(3 days after relaxation)
DOI: 10.1021/acs.chemmater.5b02211
Article source: Figure 3
Adsorbate Carbon Dioxide: InChIKey CURLTUGMZLYLDI-UHFFFAOYSA-N
Kind: experiment
Temperature: 303 K
Tabular data in the source: 0
pressure (bar)	uptake (cm3(STP)/g)
0	0
0.024206	1.15114
0.040204	1.78274
0.061244	2.34089
0.087403	2.89968
0.105657	3.23527
0.128953	3.4974
0.147206	3.83299
0.167868	4.02072
0.188529	4.20846
0.206555	4.3218
0.227217	4.50953
0.247802	4.62319
0.268425	4.77388
0.288935	4.81345
0.309558	4.96414
0.330106	5.04075
0.350691	5.15441
0.368566	5.11958
0.391634	5.15946
0.412144	5.19903
0.432616	5.20156
0.448007	5.24049
0.471038	5.24334
0.488989	5.28259
0.532339	5.13979
0.570496	4.92228
0.613771	4.7054
0.657084	4.52557
0.736032	4.16494
0.771592	3.91007
0.814829	3.65615
0.855583	3.476
0.934456	3.04129
0.972575	2.78674
1.01314	2.42138
1.05638	2.16745
1.09453	1.94994
1.13517	1.65866
1.17574	1.2933
1.21638	1.00202
