Adsorption isotherm of Carbon Dioxide on Mg-MOF-74@MR(2 days after relaxation)
DOI: 10.1021/acs.chemmater.5b02211
Article source: Figure 3
Adsorbate Carbon Dioxide: InChIKey CURLTUGMZLYLDI-UHFFFAOYSA-N
Kind: experiment
Temperature: 303 K
Tabular data in the source: 0
pressure (bar)	uptake (cm3(STP)/g)
0	0
0.01909	1.23253
0.037877	2.16653
0.061493	2.83965
0.08507	3.47544
0.105872	3.88718
0.124126	4.29876
0.147324	4.5614
0.168049	4.89851
0.188699	5.16099
0.206763	5.38599
0.227374	5.61116
0.24791	5.76169
0.268484	5.94953
0.291529	6.06291
0.312103	6.25075
0.330052	6.36381
0.34804	6.51418
0.371047	6.59024
0.394055	6.6663
0.409418	6.74188
0.42984	6.78046
0.450299	6.85636
0.470759	6.93226
0.508864	6.82269
0.552103	6.75075
0.595341	6.67881
0.63337	6.49461
0.674099	6.45983
0.714676	6.27579
0.752743	6.1289
0.793358	5.98217
0.833972	5.83545
0.874549	5.6514
0.91254	5.42988
0.953117	5.24584
0.993732	5.09911
1.03172	4.87759
1.07477	4.61908
1.1128	4.43488
1.15581	4.13904
1.19133	3.992
