Adsorption isotherm of Carbon Dioxide on Mg-MOF-74@MR(Irradiated for 2 hours)
DOI: 10.1021/acs.chemmater.5b02211
Article source: Figure 2b
Adsorbate Carbon Dioxide: InChIKey CURLTUGMZLYLDI-UHFFFAOYSA-N
Kind: experiment
Temperature: 303 K
Tabular data in the source: 0
pressure (bar)	uptake (cm3(STP)/g)
0	0
0.026545	1.81942
0.040022	3.03291
0.063523	4.09322
0.086972	5.0776
0.107736	5.83446
0.128552	6.66727
0.149265	7.34819
0.169926	7.95317
0.187954	8.40659
0.208667	9.08751
0.23186	9.69217
0.252419	10.1453
0.270446	10.5987
0.291005	11.0518
0.311564	11.5049
0.332124	11.958
0.352683	12.4111
0.37319	12.7882
0.393801	13.3172
0.414257	13.6184
0.437348	14.0712
0.455324	14.4487
0.478363	14.8255
0.49634	15.203
0.514265	15.5045
0.534721	15.8057
0.55776	16.1826
0.575685	16.4841
0.596193	16.8612
0.616598	17.0865
0.642169	17.463
0.660094	17.7645
0.680551	18.0658
0.698476	18.3673
0.721515	18.7441
0.739389	18.9697
0.762428	19.3465
0.777822	19.6484
0.798227	19.8736
0.821215	20.1745
0.83914	20.4761
0.859596	20.7773
0.877522	21.0788
0.900458	21.3037
0.920915	21.6049
0.94132	21.8302
0.961776	22.1314
0.98213	22.2807
1.00011	22.6582
1.02304	22.8832
1.0435	23.1844
1.06143	23.4859
1.08441	23.7868
1.10477	23.9361
1.12264	24.1617
1.1431	24.4629
1.16361	24.84
1.18396	24.9894
1.20695	25.2903
