Adsorption isotherm of Carbon Dioxide on MIL-53(Al)@MR 50wt%
DOI: 10.1021/acs.chemmater.5b02211
Article source: Figure 2e
Adsorbate Carbon Dioxide: InChIKey CURLTUGMZLYLDI-UHFFFAOYSA-N
Kind: experiment
Temperature: 303 K
Tabular data in the source: 0
pressure (bar)	uptake (cm3(STP)/g)
0	0
0.020379	0.194747
0.040757	0.389493
0.061135	0.58424
0.081514	0.778986
0.101892	0.973733
0.122228	1.12927
0.142565	1.2848
0.162943	1.47955
0.183279	1.63508
0.206136	1.79045
0.223909	1.90693
0.244288	2.10168
0.264624	2.25721
0.287438	2.37337
0.307732	2.48969
0.328068	2.64522
0.348404	2.80076
0.368698	2.91708
0.389076	3.11183
0.409328	3.18893
0.429664	3.34447
0.449958	3.46079
0.470294	3.61632
0.493108	3.73248
0.510881	3.84896
0.53126	4.04371
0.551553	4.16003
0.571847	4.27635
0.592183	4.43188
0.609956	4.54837
0.632771	4.66452
0.653107	4.82006
0.673358	4.89717
0.693694	5.0527
0.713946	5.12981
0.731761	5.28551
0.754533	5.36245
0.774785	5.43956
0.795078	5.55588
0.815372	5.6722
0.835708	5.82773
0.85848	5.90467
0.87369	5.98211
0.896505	6.09827
0.916756	6.17538
0.937092	6.33091
0.957386	6.44723
0.977637	6.52434
0.997931	6.64066
1.01818	6.71777
1.03848	6.83409
1.05873	6.91119
1.07646	6.98847
1.10184	7.14367
1.12209	7.22078
1.13982	7.29805
1.16007	7.37516
1.17784	7.49164
1.20061	7.56859
