Adsorption isotherm of Carbon Dioxide on Mg-MOF-74@MR(Photoswitching for 30 min
DOI: 10.1021/acs.chemmater.5b02211
Article source: Figure 2a
Adsorbate Carbon Dioxide: InChIKey CURLTUGMZLYLDI-UHFFFAOYSA-N
Kind: experiment
Temperature: 303 K
Tabular data in the source: 0
pressure (bar)	uptake (cm3(STP)/g)
0	0
0.023855	1.71532
0.039625	2.59912
0.063055	3.48325
0.086459	4.31543
0.104623	4.88765
0.125262	5.30412
0.148559	5.92851
0.169144	6.24109
0.187203	6.60551
0.207841	7.02198
0.228426	7.33456
0.248985	7.59519
0.26699	7.85571
0.290075	8.06451
0.310555	8.16929
0.33106	8.32602
0.351513	8.37885
0.369465	8.53547
0.389917	8.58831
0.410476	8.84894
0.430955	8.95372
0.448881	9.05839
0.469333	9.11123
0.489786	9.16406
0.510159	9.06105
0.553511	8.95903
0.58923	8.90862
0.632662	8.96245
0.650561	9.01518
0.671013	9.06801
0.691413	9.01694
0.732132	8.75897
0.772852	8.50099
0.811018	8.2429
0.851923	8.34857
0.872349	8.34945
0.892775	8.35034
0.933361	7.83261
0.971554	7.62647
1.01222	7.2646
1.05307	7.26637
1.07355	7.37115
1.09137	7.26802
1.13201	6.8542
1.17518	6.38854
1.21076	6.07839
