Adsorption isotherm of Carbon Dioxide on Mg-MOF-74@MR(Irradiated 30 minutes)
DOI: 10.1021/acs.chemmater.5b02211
Article source: Figure 2b
Adsorbate Carbon Dioxide: InChIKey CURLTUGMZLYLDI-UHFFFAOYSA-N
Kind: experiment
Temperature: 303 K
Tabular data in the source: 0
pressure (bar)	uptake (cm3(STP)/g)
0	0
0.021282	1.29577
0.042217	2.13466
0.068283	3.05002
0.089102	3.73662
0.107209	4.19462
0.125317	4.65262
0.148557	5.18709
0.169086	5.49296
0.187077	5.79867
0.210143	6.1047
0.228193	6.48656
0.253738	6.71661
0.269134	6.94601
0.289605	7.17574
0.310018	7.32932
0.330489	7.55904
0.353439	7.71278
0.371315	7.8662
0.39167	7.94363
0.41214	8.17336
0.435032	8.25095
0.452792	8.25208
0.470726	8.48165
0.491081	8.55908
0.513973	8.63667
0.531791	8.71395
0.552146	8.79138
0.575096	8.94512
0.61321	9.02368
0.631028	9.10095
0.658994	9.17887
0.676754	9.18
0.691977	9.18096
0.735108	9.1837
0.775644	9.11013
0.813527	8.88411
0.854121	8.88668
0.897194	8.81327
0.935135	8.6634
0.975613	8.51368
1.01621	8.51626
1.05668	8.36654
1.09722	8.29297
1.1351	8.06695
1.17818	7.99354
1.21612	7.84366
