Adsorption isotherm of Carbon Dioxide on MIL-53(Al)@MR 15wt%
DOI: 10.1021/acs.chemmater.5b02211
Article source: Figure 2d
Adsorbate Carbon Dioxide: InChIKey CURLTUGMZLYLDI-UHFFFAOYSA-N
Kind: experiment
Temperature: 303 K
Tabular data in the source: 0
pressure (bar)	uptake (cm3(STP)/g)
0	0
0.017864	0.237864
0.043546	0.789755
0.061647	1.34017
0.082394	2.04734
0.103022	2.59825
0.126177	3.14964
0.146864	3.77868
0.167551	4.40772
0.190647	4.88099
0.208748	5.4314
0.23208	6.2172
0.252768	6.84624
0.271284	7.94361
0.288516	10.6814
0.336247	13.6594
0.377977	15.3863
0.396256	16.1711
0.419411	16.7225
0.455673	17.9015
0.481236	18.2971
0.499159	18.6131
0.51961	18.9296
0.54006	19.2461
0.560451	19.4845
0.580902	19.801
0.601293	20.0393
0.621625	20.1995
0.639549	20.5155
0.662348	20.5981
0.68268	20.7583
0.700544	20.9962
0.723403	21.1569
0.743676	21.239
0.764067	21.4774
0.781813	21.5589
0.802263	21.8754
0.825122	22.0362
0.845395	22.1182
0.8632	22.278
0.886059	22.4387
0.903864	22.5984
0.926663	22.681
0.941942	22.8402
0.990127	23.084
1.00799	23.3219
1.0282	23.3258
1.04601	23.4855
1.0664	23.7239
1.08938	24.0409
1.10712	24.1225
1.12493	24.2822
1.14785	24.5211
1.16559	24.6027
1.18851	24.8415
1.20884	25.0017
