Adsorption isotherm of Carbon Dioxide on C26H24Mn2N8O10
DOI: 10.1039/C1cc12278a
Adsorbate Carbon Dioxide: InChIKey CURLTUGMZLYLDI-UHFFFAOYSA-N
Temperature: 298 K
Tabular data in the source: 0
pressure (bar)	uptake (cm3(STP)/g)
0.056338	0.390244
0.124748	0.487805
0.162978	0.390244
0.189135	0.487805
0.2334	0.585366
0.255533	0.585366
0.277666	0.487805
0.299799	0.682927
0.325956	0.585366
0.372233	0.780488
0.418511	0.780488
0.438632	0.780488
0.486922	0.878049
0.509054	0.878049
0.531187	0.97561
0.579477	0.97561
0.617706	0.97561
0.65996	1.17073
0.702213	1.26829
0.746479	1.26829
0.802817	1.26829
0.839034	1.26829
0.881288	1.36585
0.93159	1.36585
0.947686	1.36585
0.969819	1.36585
