Adsorption isotherm of Carbon Dioxide on C10H5MnN3O4
DOI: 10.1039/C1cc12278a
Adsorbate Carbon Dioxide: InChIKey CURLTUGMZLYLDI-UHFFFAOYSA-N
Temperature: 298 K
Tabular data in the source: 0
pressure (bar)	uptake (cm3(STP)/g)
0.0120724	1.36585
0.0241449	3.12195
0.0462777	5.36585
0.0663984	7.41463
0.084507	8.87805
0.0965795	10.439
0.104628	11.6098
0.124748	13.3659
0.144869	15.122
0.169014	17.2683
0.187123	18.439
0.207243	19.6098
0.227364	20.9756
0.249497	22.2439
0.269618	23.3171
0.289738	24.0976
0.303823	24.6829
0.327968	25.8537
0.346076	26.5366
0.368209	27.2195
0.394366	28
0.408451	28.4878
0.432596	29.0732
0.454728	29.561
0.472837	30.1463
0.49497	30.5366
0.515091	30.8293
0.531187	31.3171
0.555332	31.7073
0.577465	32.0976
0.60161	32.4878
0.62173	32.7805
0.639839	33.0732
0.68008	33.561
0.716298	34.1463
0.752515	34.1463
0.774648	34.439
0.794769	34.6341
0.816901	35.0244
0.830986	35.122
0.853119	35.3171
0.873239	35.8049
0.913481	36.1951
0.935614	36.3902
0.973843	36.7805
