Adsorption isotherm of Hydrogen on C43.7H10Mn2N6O8
DOI: 10.1039/C1cc12278a
Adsorbate Hydrogen: InChIKey UFHFLCQGNIYNRP-UHFFFAOYSA-N
Temperature: 77 K
Tabular data in the source: 0
pressure (bar)	uptake (cm3(STP)/g)
0.00906344	0.761318
0.0302115	1.7139
0.0619335	2.95266
0.0891239	4.09592
0.149547	6.00281
0.193353	7.43283
0.231118	8.86227
0.306647	11.436
0.348943	12.5807
0.400302	14.0114
0.450151	15.2519
0.47281	15.7294
0.528701	17.0655
0.574018	17.8302
0.610272	18.404
0.652568	19.0734
0.699396	19.9334
0.744713	20.5081
0.794562	21.1782
0.820242	21.4658
0.853474	21.6591
0.898792	22.3288
0.942598	22.9033
0.975831	23.3817
