Adsorption isotherm of Carbon Dioxide on C43.7H10Mn2N6O8
DOI: 10.1039/C1cc12278a
Adsorbate Carbon Dioxide: InChIKey CURLTUGMZLYLDI-UHFFFAOYSA-N
Temperature: 298 K
Tabular data in the source: 0
pressure (bar)	uptake (cm3(STP)/g)
0.0261569	1.17073
0.056338	1.65854
0.104628	1.95122
0.122736	2.2439
0.167002	2.53659
0.187123	2.63415
0.231388	2.92683
0.253521	3.02439
0.277666	3.12195
0.299799	3.12195
0.325956	3.21951
0.374245	3.5122
0.416499	3.60976
0.43662	3.70732
0.484909	3.90244
0.509054	3.90244
0.531187	4.19512
0.575453	4.39024
0.619718	4.58537
0.663984	4.68293
0.700201	5.07317
0.746479	5.46341
0.800805	5.65854
0.839034	5.95122
0.879276	6.53659
0.905433	6.92683
0.93159	7.60976
0.949698	8
0.969819	9.17073
