Adsorption isotherm of Methane on C43.7H10Mn2N6O8
DOI: 10.1039/C1cc12278a
Adsorbate Methane: InChIKey VNWKTOKETHGBQD-UHFFFAOYSA-N
Temperature: 298 K
Tabular data in the source: 0
pressure (bar)	uptake (cm3(STP)/g)
0.0124089	0.0374311
0.037218	0.0557963
0.0465144	0.0179564
0.0620212	0.0364968
0.0961296	0.0358544
0.119391	0.0730811
0.134895	0.0727892
0.1535	0.0724388
0.169003	0.0721468
0.184507	0.0718549
0.25428	0.108206
0.268237	0.126775
0.283741	0.126483
0.305449	0.144907
0.320953	0.144615
0.336456	0.144323
0.369023	0.200207
0.38453	0.218747
0.420192	0.236908
0.435699	0.255448
0.47136	0.273609
0.486867	0.292149
0.520978	0.310339
0.536485	0.32888
0.570602	0.384734
0.586106	0.384442
0.621771	0.421436
0.637278	0.439976
0.671395	0.495831
0.685348	0.495568
0.77219	0.625759
0.787694	0.625467
0.821817	0.718986
0.83577	0.718724
0.872988	0.77452
0.888498	0.811893
0.922615	0.867747
0.938122	0.886288
0.972245	0.979807
0.986201	0.998377
1.00636	1.03566
