Adsorption isotherm of Hydrogen on C10H5MnN3O4
DOI: 10.1039/C1cc12278a
Adsorbate Hydrogen: InChIKey UFHFLCQGNIYNRP-UHFFFAOYSA-N
Temperature: 77 K
Tabular data in the source: 0
pressure (bar)	uptake (cm3(STP)/g)
0.0392749	2.47522
0.0876133	6.18704
0.0996979	7.23381
0.145015	11.6107
0.194864	15.6079
0.220544	17.6065
0.268882	22.1738
0.306647	25.3143
0.348943	28.3602
0.371601	29.8832
0.407855	32.073
0.42145	33.1199
0.451662	34.6437
0.509063	37.2157
0.55287	39.121
0.598187	40.9314
0.622356	41.6941
0.655589	42.933
0.703927	44.2684
0.728097	44.8411
0.753776	45.699
0.799094	46.749
0.847432	47.7041
0.897281	48.3743
0.922961	48.7569
0.94713	48.8543
0.977341	49.3324
