Adsorption isotherm of Methane on C10H5MnN3O4
DOI: 10.1039/C1cc12278a
Adsorbate Methane: InChIKey VNWKTOKETHGBQD-UHFFFAOYSA-N
Temperature: 298 K
Tabular data in the source: 0
pressure (bar)	uptake (cm3(STP)/g)
0.280811	0.00949865
0.318253	0.0981126
0.333853	0.102922
0.366615	0.267164
0.380655	0.194422
0.416537	0.282555
0.432137	0.287364
0.466459	0.375016
0.482059	0.379826
0.516381	0.467478
0.531981	0.472287
0.617785	0.652882
0.633385	0.657691
0.667707	0.822414
0.683307	0.827224
0.717629	0.914876
0.733229	0.996757
0.767551	1.08441
0.783151	1.08922
0.817473	1.25394
0.833073	1.25875
0.967239	1.91668
0.981279	1.84394
0.99844	2.00337
