Adsorption isotherm of Nitrogen on PMMA-PMAA-CuBTC
DOI: 10.1002/chem.201201574
Adsorbate Nitrogen: InChIKey IJGRMHOSHXDMSA-UHFFFAOYSA-N
Temperature: 77 K
Tabular data in the source: 0
pressure (bar)	uptake (cm3(STP)/g)
0	319.298
0.00253661	240.346
0.00760982	363.144
0.0608785	377.083
0.0862446	384.055
0.124294	391.004
0.15727	394.453
0.192782	394.389
0.256197	399.537
0.317076	402.936
0.332295	404.663
0.40332	404.535
0.555517	406.014
0.646834	407.604
0.70264	407.503
0.776201	410.879
0.816787	412.56
0.905568	412.4
