Adsorption isotherm of Nitrogen on CuBTC
DOI: 10.1002/chem.201201574
Adsorbate Nitrogen: InChIKey IJGRMHOSHXDMSA-UHFFFAOYSA-N
Temperature: 77 K
Tabular data in the source: 0
pressure (bar)	uptake (cm3(STP)/g)
0	198.246
0.00760982	359.635
0.0152196	366.639
0.0380491	371.861
0.0634151	378.833
0.0887812	384.05
0.111611	389.272
0.162343	392.689
0.258734	399.533
0.304393	399.45
0.355125	402.867
0.40332	402.78
0.451516	404.448
0.499711	404.361
0.550443	407.778
0.596102	407.695
0.651908	409.349
0.700103	407.508
0.801567	409.079
0.847226	408.996
0.892885	412.423
0.941081	414.09
0.97913	419.285
