Adsorption isotherm of Nitrogen on CuBTC Membrane
DOI: 10.1002/chem.201201574
Adsorbate Nitrogen: InChIKey IJGRMHOSHXDMSA-UHFFFAOYSA-N
Temperature: 77 K
Tabular data in the source: 0
pressure (bar)	uptake (cm3(STP)/g)
0.0304393	20.9977
0.0786348	20.9106
0.152196	22.5322
0.195319	22.4543
0.233368	22.3856
0.281563	24.053
0.319612	23.9842
0.360198	22.1566
0.40332	22.0787
0.443906	22.0054
0.487028	23.6819
0.520004	21.868
0.5682	21.781
0.606249	23.4666
0.649371	21.6344
0.684884	23.3246
0.728006	21.4924
0.768592	21.4191
0.806641	23.1048
0.849763	23.0269
0.887812	22.9582
0.923324	26.4028
0.9563	31.6064
0.976593	49.1136
