Adsorption isotherm of Nitrogen on Pd-NPs@[Me2NH2]24[Tb12(TATB)16(HCOO)12].12DMF.48H2O ) ion exchange
DOI: 10.1039/c5ta04937g
Article source: Figure 4
Adsorbate Nitrogen: InChIKey IJGRMHOSHXDMSA-UHFFFAOYSA-N
Kind: experiment
Temperature: 77 K
Tabular data in the source: 0
pressure (bar)	uptake (cm3(STP)/g)
0	-0.001927
0	54.6961
0.001952	93.9227
0.007809	105.525
0.027332	111.602
0.060522	121.547
0.062474	116.022
0.080045	123.204
0.085902	118.785
0.099568	119.337
0.101521	125.414
0.115186	120.442
0.122995	125.967
0.140566	127.072
0.158137	123.204
0.163995	127.624
0.181565	123.757
0.185469	128.729
0.201089	124.862
0.20304	129.282
0.251848	130.939
0.259657	126.519
0.298704	128.177
0.304561	132.044
0.353369	129.834
0.35532	134.807
0.39632	135.912
0.404129	132.044
0.454888	133.702
0.458794	142.541
0.501744	135.912
0.503697	150.276
0.554456	138.122
0.605217	152.486
0.607169	140.331
0.655977	153.591
0.706737	144.199
0.757498	146.409
0.761402	156.354
0.806305	149.171
0.808257	158.011
0.829732	150.276
0.83559	159.669
0.855113	161.326
0.86097	152.486
0.882446	161.878
0.884397	153.591
0.907825	163.536
0.909778	155.801
0.931253	165.746
0.937109	158.011
0.954681	167.956
0.958585	161.326
0.976156	170.166
0.985918	166.298
0.98787	172.928
0.997632	170.718
1.00544	173.481
