Adsorption isotherm of Nitrogen on [Me2NH2]24[Tb12(TATB)16(HCOO)12].12DMF.48H2O ion exchange
DOI: 10.1039/c5ta04937g
Article source: Figure 4
Adsorbate Nitrogen: InChIKey IJGRMHOSHXDMSA-UHFFFAOYSA-N
Kind: experiment
Temperature: 77 K
Tabular data in the source: 0
pressure (bar)	uptake (cm3(STP)/g)
0	0
0.001952	0.552486
0.003905	96.1326
0.007809	108.287
0.009762	114.917
0.013666	111.05
0.017571	114.365
0.02538	117.127
0.029285	123.204
0.031237	119.337
0.039046	120.994
0.044903	122.099
0.056617	123.757
0.062474	127.624
0.070283	124.862
0.081997	130.387
0.083949	125.967
0.095663	126.519
0.101521	131.492
0.107377	127.624
0.119091	128.177
0.122995	133.702
0.13471	129.282
0.140566	129.834
0.142519	134.807
0.162042	131.492
0.173756	132.044
0.185469	138.122
0.187422	133.149
0.201089	133.702
0.204993	139.227
0.210849	134.807
0.255752	141.989
0.290895	144.199
0.310417	141.989
0.345559	148.066
0.361178	145.304
0.406081	148.619
0.408033	153.039
0.450984	160.773
0.456841	152.486
0.46465	166.298
0.507601	176.796
0.558362	162.431
0.609121	183.978
0.65793	186.74
0.659881	174.033
0.710642	189.503
0.712594	179.006
0.759449	192.265
0.761402	183.978
0.808257	195.028
0.81021	187.845
0.831685	190.055
0.837542	196.685
0.862922	192.265
0.88635	194.475
0.911729	197.79
0.913682	204.972
0.937109	201.105
0.941014	209.392
0.954681	212.707
0.96249	206.077
0.976156	219.337
0.985918	213.26
0.991774	224.862
0.997632	217.68
1.00544	223.204
1.00935	228.729
