Adsorption isotherm of Nitrogen on [Me2NH2]24[Tb12(TATB)16(HCOO)12].12DMF.48H2O ) solvent-free sample
DOI: 10.1039/c5ta04937g
Article source: Figure 4
Adsorbate Nitrogen: InChIKey IJGRMHOSHXDMSA-UHFFFAOYSA-N
Kind: experiment
Temperature: 77 K
Tabular data in the source: 0
pressure (bar)	uptake (cm3(STP)/g)
0	0
0.001952	38.674
0.003905	47.5138
0.005857	49.1713
0.007809	52.4862
0.009762	58.011
0.011714	54.6961
0.017571	55.8011
0.031237	61.8785
0.033189	56.3536
0.062474	63.5359
0.066379	58.5635
0.081997	64.6409
0.091759	59.116
0.101521	59.6685
0.103472	65.1934
0.119091	60.221
0.121044	65.7459
0.142519	60.221
0.162042	61.326
0.163995	66.8508
0.17766	61.8785
0.183518	66.8508
0.201089	61.8785
0.204993	67.4033
0.253801	68.5083
0.263563	64.0884
0.298704	64.0884
0.302608	69.6133
0.351416	65.1934
0.353369	70.1657
0.400224	71.2707
0.404129	65.7459
0.454888	66.2983
0.456841	72.9282
0.505649	66.8508
0.556409	75.6906
0.607169	68.5083
0.65793	69.6133
0.708689	77.3481
0.759449	71.8232
0.763354	77.9006
0.808257	77.9006
0.81021	72.3757
0.829732	73.4807
0.83559	78.453
0.86097	73.4807
0.88635	79.0055
0.909778	75.6906
0.911729	79.0055
0.935158	76.7956
0.937109	80.1105
0.954681	80.1105
0.96249	77.9006
0.978108	81.2155
0.98787	79.558
0.991774	81.768
1.00349	81.2155
1.00739	82.3204
