Adsorption isotherm of Carbon Dioxide on UiO-66-EA
DOI: 10.1039/c5ta05997f
Article source: Figure 2a
Adsorbate Carbon Dioxide: InChIKey CURLTUGMZLYLDI-UHFFFAOYSA-N
Kind: experiment
Temperature: 313 K
Tabular data in the source: 0
pressure (bar)	uptake (cm3(STP)/g)
0	0
0.004386	2.07243
0.008772	3.31613
0.015351	5.11262
0.032895	7.04874
0.046053	9.2605
0.083333	11.89
0.098684	12.8589
0.118421	14.7954
0.142544	15.7655
0.164474	16.5973
0.190789	17.7059
0.223684	18.8154
0.25	19.5097
0.282895	20.3429
0.315789	21.1762
0.339912	21.8702
0.372807	22.4272
0.39693	22.5686
0.423246	23.2629
0.45614	23.4055
0.480263	23.8232
0.510965	24.1037
0.539474	24.522
0.570175	24.9406
0.600877	25.083
0.629386	25.3632
0.655702	25.5049
0.686404	25.9235
0.714912	26.2037
0.745614	26.4842
0.774123	26.7644
0.804825	26.7686
0.837719	27.0494
0.866228	27.4677
0.89693	27.7482
0.929825	28.029
0.951754	28.032
0.991228	28.1756
1.01974	28.4558
