Adsorption isotherm of Carbon Dioxide on UiO-66-EA
DOI: 10.1039/c5ta05997f
Article source: Figure 2a
Adsorbate Carbon Dioxide: InChIKey CURLTUGMZLYLDI-UHFFFAOYSA-N
Kind: experiment
Temperature: 298 K
Tabular data in the source: 0
pressure (bar)	uptake (cm3(STP)/g)
0	0
0.004386	4.14425
0.008772	5.11171
0.013158	7.32226
0.019737	8.84251
0.030702	10.7777
0.041667	12.7129
0.052632	14.2338
0.061403	15.7543
0.078947	17.9667
0.08114	18.5195
0.10307	20.3181
0.122807	21.8402
0.135965	23.0851
0.166667	24.4705
0.190789	25.5788
0.217105	26.8256
0.254386	27.7976
0.278509	28.7677
0.313596	29.4632
0.339912	30.1574
0.375	30.8529
0.39693	31.2703
0.423246	31.9645
0.436404	32.1045
0.451754	32.3828
0.471491	32.6618
0.482456	32.9396
0.508772	33.3576
0.524123	33.4978
0.537281	33.6377
0.554825	33.9164
0.567982	34.0564
0.585526	34.335
0.600877	34.4753
0.620614	34.7542
0.657895	35.0356
0.688596	35.4542
0.714912	35.7341
0.741228	36.1521
0.780702	36.2957
0.807018	36.5756
0.837719	36.9942
0.868421	36.9984
0.894737	37.4164
0.901316	37.4173
0.929825	37.5594
0.953947	37.8389
0.962719	37.8402
0.995614	38.2591
1.01974	38.1243
