Adsorption isotherm of Carbon Dioxide on UiO-66
DOI: 10.1039/c5ta05997f
Article source: Figure 2a
Adsorbate Carbon Dioxide: InChIKey CURLTUGMZLYLDI-UHFFFAOYSA-N
Kind: experiment
Temperature: 313 K
Tabular data in the source: 0
pressure (bar)	uptake (cm3(STP)/g)
0	0
0.026358	0.969529
0.037347	1.52355
0.057115	2.21607
0.068104	2.77008
0.087883	3.73961
0.101053	4.01662
0.118622	4.57064
0.127406	4.84765
0.147185	5.81717
0.169139	6.37119
0.188906	7.06371
0.197696	7.47922
0.224055	8.44875
0.256998	9.55679
0.276771	10.3878
0.292134	10.6648
0.318487	11.4958
0.349237	12.6039
0.366799	13.0194
0.386554	13.4349
0.412919	14.5429
0.439265	15.2355
0.456827	15.651
0.467792	15.651
0.500735	16.759
0.535853	17.4515
0.566585	18.144
0.603915	19.2521
0.632454	19.9446
0.656607	20.6371
0.689538	21.4681
0.72465	22.0222
0.751002	22.8532
0.775162	23.6842
0.783927	23.5457
0.810261	23.9612
0.832222	24.6537
0.845386	24.7922
0.873931	25.6233
0.889288	25.7618
0.904651	26.0388
0.93319	26.7313
0.94636	27.0083
0.970507	27.5623
1.00124	28.2548
