Adsorption isotherm of Carbon Dioxide on UiO-66
DOI: 10.1039/c5ta05997f
Article source: Figure 2a
Adsorbate Carbon Dioxide: InChIKey CURLTUGMZLYLDI-UHFFFAOYSA-N
Kind: experiment
Temperature: 305 K
Tabular data in the source: 0
pressure (bar)	uptake (cm3(STP)/g)
0	0
0.02193	1.38424
0.048246	2.76909
0.08114	4.29298
0.105263	5.26316
0.120614	6.09401
0.164474	8.03377
0.192982	9.41892
0.223684	10.6663
0.278509	12.8838
0.317982	14.5467
0.348684	15.5178
0.379386	16.7651
0.410088	17.7362
0.440789	18.9835
0.45614	19.5381
0.471491	20.2309
0.502193	21.202
0.539474	22.5883
0.563596	23.4204
0.60307	24.3927
0.627193	25.2248
0.657895	26.4721
0.688596	27.3051
0.717105	28.2758
0.75	29.2472
0.77193	29.8028
0.782895	30.2186
0.813596	31.0516
0.839912	32.1602
0.870614	32.9932
0.888158	33.5481
0.905702	33.9649
0.932018	34.7972
0.945175	35.0753
0.962719	35.4921
0.995614	36.4635
