Adsorption isotherm of Carbon Dioxide on UiO-66-EA
DOI: 10.1039/c5ta05997f
Article source: Figure 2a
Adsorbate Carbon Dioxide: InChIKey CURLTUGMZLYLDI-UHFFFAOYSA-N
Kind: experiment
Temperature: 305 K
Tabular data in the source: 0
pressure (bar)	uptake (cm3(STP)/g)
0	0
0.006579	3.59207
0.010965	5.25013
0.013158	6.35541
0.019737	7.59941
0.024123	8.84311
0.030702	9.94899
0.048246	11.1945
0.054825	12.3004
0.078947	14.5137
0.100877	16.1742
0.122807	17.9728
0.140351	19.2183
0.162281	20.4644
0.190789	21.4352
0.217105	22.6819
0.25	23.6533
0.276316	24.4857
0.311404	25.1811
0.339912	25.8757
0.364035	26.4315
0.39693	26.9885
0.427632	27.5453
0.451754	27.8248
0.464912	28.241
0.480263	28.2431
0.497807	28.5218
0.513158	28.662
0.526316	28.9401
0.537281	29.0797
0.557018	29.3587
0.572368	29.4989
0.598684	29.9169
0.620614	30.0581
0.625	30.1968
0.655702	30.4773
0.695175	30.8971
0.714912	30.8998
0.745614	31.3185
0.778509	31.5992
0.804825	31.8791
0.835526	32.1596
0.868421	32.3023
0.89693	32.5824
0.929825	32.8632
0.960526	33.0056
0.991228	33.148
1.01754	33.2897
