Adsorption isotherm of Carbon Dioxide on UiO-66
DOI: 10.1039/c5ta05997f
Article source: Figure 2a
Adsorbate Carbon Dioxide: InChIKey CURLTUGMZLYLDI-UHFFFAOYSA-N
Kind: experiment
Temperature: 298 K
Tabular data in the source: 0
pressure (bar)	uptake (cm3(STP)/g)
0	0
0.019737	1.52206
0.032895	2.35261
0.041667	3.04443
0.052632	3.87467
0.063597	4.5668
0.08114	5.67419
0.105263	7.05874
0.122807	8.30426
0.144737	9.41226
0.164474	10.52
0.179825	11.7652
0.197368	12.4582
0.225877	14.1196
0.258772	15.7816
0.282895	17.3043
0.317982	18.8285
0.348684	20.2139
0.368421	21.4597
0.379386	21.8756
0.410088	23.1229
0.440789	24.5084
0.45614	25.4774
0.473684	26.0323
0.502193	27.2793
0.541667	28.666
0.563596	29.9121
0.594298	31.0213
0.60307	31.4369
0.627193	32.2689
0.657895	33.5163
0.688596	34.9017
0.721491	36.0113
0.75	36.982
0.774123	37.8141
0.780702	38.0913
0.809211	39.2002
0.835526	40.1707
0.844298	40.4481
0.872807	41.557
0.890351	42.3882
0.905702	42.5284
0.932018	43.4989
0.947368	44.1916
0.967105	44.6087
0.995614	45.7176
