Adsorption isotherm of Carbon Dioxide on C41H46Cu2N2O16
DOI: 10.1039/B925903a
Adsorbate Carbon Dioxide: InChIKey CURLTUGMZLYLDI-UHFFFAOYSA-N
Temperature: 293 K
Tabular data in the source: 0
pressure (bar)	uptake (cm3(STP)/g)
0.108623	3.78593
0.495437	11.1602
0.99717	16.7429
2.00019	28.3065
3.01175	32.3005
4.02444	35.2985
5.03803	37.4997
6.05184	39.5017
7.00988	40.9056
8.02414	42.5092
9.09552	43.5157
10.0538	44.7203
11.0689	45.5271
12.0841	46.3339
13.043	46.941
14.0582	47.7478
15.0738	48.1561
16.1454	48.9635
17.1613	49.1727
18.1202	49.7797
19.2487	50.1892
20.2079	50.597
