Adsorption isotherm of Hydrogen on C41H46Cu2N2O16
DOI: 10.1039/B925903a
Adsorbate Hydrogen: InChIKey UFHFLCQGNIYNRP-UHFFFAOYSA-N
Temperature: 77 K
Tabular data in the source: 0
pressure (bar)	uptake (cm3(STP)/g)
0.0053189	2.56141
0.00797835	6.14981
0.0159567	16.4022
0.0345728	25.1107
0.0718051	42.5278
0.130313	60.4469
0.202118	75.2823
0.271264	84.4781
0.335091	92.1381
0.401577	98.2583
0.470722	103.352
0.534549	107.422
0.601035	112.516
0.664862	115.561
0.734008	118.603
0.800494	122.159
0.86964	124.688
0.930807	127.734
0.999953	130.776
