Adsorption isotherm of Methane on C41H46Cu2N2O16
DOI: 10.1039/B925903a
Adsorbate Methane: InChIKey VNWKTOKETHGBQD-UHFFFAOYSA-N
Temperature: 293 K
Tabular data in the source: 0
pressure (bar)	uptake (cm3(STP)/g)
0.108848	3.58673
0.446185	4.78526
1.06531	6.38497
1.9651	9.38187
3.03469	11.982
3.99183	14.1827
5.00632	15.5871
6.02058	17.1907
7.03552	18.1966
8.05068	19.0034
9.12229	19.8108
10.0812	20.4178
11.0968	20.8262
12.1122	21.4338
13.1278	21.8422
14.0872	22.0508
15.1028	22.4592
16.1187	22.6684
17.191	22.8781
18.1503	23.0868
19.166	23.4952
20.2385	23.5057
