Adsorption isotherm of Nitrogen on C41H46Cu2N2O16
DOI: 10.1039/B925903a
Adsorbate Nitrogen: InChIKey IJGRMHOSHXDMSA-UHFFFAOYSA-N
Temperature: 77 K
Tabular data in the source: 0
pressure (bar)	uptake (cm3(STP)/g)
0.00265945	0.00265945
0.0106378	81.5331
0.0292539	87.6775
0.0664862	92.274
0.0904213	94.826
0.101059	95.8463
0.119675	97.3753
0.138291	98.9044
0.162226	100.431
0.180843	101.96
0.196799	102.977
0.263285	106.021
0.303177	107.539
0.353707	110.077
0.406896	112.615
0.457425	114.64
0.507955	116.666
0.558484	119.205
0.606354	121.232
0.656884	123.257
0.707413	125.283
0.760602	127.307
0.811132	129.333
0.829748	130.862
0.864321	131.87
0.91485	133.383
0.936126	135.424
0.96538	136.947
1.00793	141.541
