Adsorption isotherm of Nitrogen on PF-800 ZnCl2
DOI: 10.1021/acs.langmuir.5b02390
Article source: Figure 3c- N2 PF 800 ZnCl2
Adsorbate Nitrogen: InChIKey IJGRMHOSHXDMSA-UHFFFAOYSA-N
Kind: experiment
Temperature: 323 K
Tabular data in the source: 0
pressure (bar)	uptake (mmol/g)
0.0061	0.00906
0.01408	0.00885
0.03417	0.00821
0.06727	0.0216
0.1001	0.02679
0.13373	0.04126
0.16701	0.04732
0.20001	0.06071
0.23329	0.06546
0.26701	0.07929
0.30002	0.0875
0.33383	0.09851
0.36675	0.10543
0.40047	0.11645
0.43429	0.1238
0.46667	0.13158
0.50111	0.13871
0.53421	0.15124
0.56757	0.16031
0.60103	0.17111
0.63439	0.17824
0.6665	0.18451
0.70005	0.19704
0.73341	0.20482
0.76669	0.21303
0.79979	0.22124
0.81521	0.22557
0.86679	0.23875
0.88204	0.2422
0.93334	0.25236
0.9494	0.25712
1.01335	0.27354
1.06725	0.28348
