Adsorption isotherm of Carbon Dioxide on PF-800 ZnCl2
DOI: 10.1021/acs.langmuir.5b02390
Article source: Figure 3b- CO2 PF 800 ZnCl2
Adsorbate Carbon Dioxide: InChIKey CURLTUGMZLYLDI-UHFFFAOYSA-N
Kind: experiment
Temperature: 298 K
Tabular data in the source: 0
pressure (bar)	uptake (mmol/g)
0.00783	0.1065
0.01323	0.12592
0.01692	0.14201
0.02628	0.17843
0.03077	0.20593
0.03293	0.21545
0.06749	0.39299
0.10043	0.56111
0.10052	0.56151
0.13319	0.67524
0.16712	0.82736
0.1673	0.82789
0.19997	0.92897
0.23345	1.04143
0.23354	1.04159
0.26675	1.14661
0.29969	1.24708
0.29978	1.2475
0.33344	1.34968
0.3662	1.45926
0.3662	1.43954
0.40031	1.53213
0.43334	1.63685
0.46493	1.69333
0.49976	1.802
0.53343	1.86395
0.56709	1.95775
0.59985	2.01302
0.63324	2.10591
0.66637	2.15755
0.70012	2.24528
0.73342	2.29631
0.76663	2.38161
0.79976	2.42869
0.82379	2.48698
0.86681	2.55623
0.88967	2.61239
0.93315	2.67921
0.9615	2.73508
1.01343	2.82133
1.06636	2.91153
