Adsorption isotherm of Carbon Dioxide on PF-800 KOH
DOI: 10.1021/acs.langmuir.5b02390
Article source: Figure 3b- CO2 PF 800 KOH
Adsorbate Carbon Dioxide: InChIKey CURLTUGMZLYLDI-UHFFFAOYSA-N
Kind: experiment
Temperature: 298 K
Tabular data in the source: 0
pressure (bar)	uptake (mmol/g)
0.00748	0.1653
0.01153	0.20625
0.01316	0.26236
0.02027	0.31392
0.02658	0.38187
0.02901	0.42984
0.0327	0.4495
0.06783	0.73341
0.09971	0.93604
0.10106	0.99427
0.13186	1.12228
0.16626	1.287
0.16761	1.3428
0.19994	1.4414
0.23326	1.57609
0.23353	1.57845
0.26639	1.70289
0.29953	1.81271
0.29971	1.81271
0.33321	1.92889
0.36661	2.07419
0.36662	2.07419
0.40038	2.13063
0.43316	2.26198
0.46575	2.30781
0.50024	2.43249
0.53337	2.47679
0.56651	2.586
0.60027	2.62788
0.63323	2.72435
0.66663	2.76775
0.69976	2.8618
0.73299	2.897
0.76621	2.98438
0.79935	3.02262
0.82105	3.07996
0.8666	3.14126
0.8874	3.18919
0.93368	3.25079
0.95736	3.30116
1.01372	3.37854
1.06639	3.45622
