Adsorption isotherm of Carbon Dioxide on PF-800 ZnCl2
DOI: 10.1021/acs.langmuir.5b02390
Article source: Figure 3c- CO2 PF 800 ZnCl2
Adsorbate Carbon Dioxide: InChIKey CURLTUGMZLYLDI-UHFFFAOYSA-N
Kind: experiment
Temperature: 323 K
Tabular data in the source: 0
pressure (bar)	uptake (mmol/g)
0.01424	0.07423
0.02698	0.09408
0.03505	0.11329
0.0675	0.20089
0.10112	0.30238
0.1013	0.30274
0.13376	0.36769
0.16639	0.44732
0.1672	0.45962
0.20002	0.51852
0.23355	0.60311
0.23355	0.60312
0.26646	0.6536
0.30035	0.72016
0.30044	0.72027
0.33344	0.78436
0.36698	0.8437
0.36715	0.84422
0.40007	0.8998
0.43351	0.97338
0.46527	1.00661
0.50041	1.08321
0.53378	1.11536
0.56642	1.18527
0.59925	1.21677
0.63314	1.28538
0.66687	1.31645
0.70022	1.38097
0.73269	1.41139
0.76677	1.4703
0.8005	1.50352
0.82022	1.5415
0.86606	1.58897
0.88713	1.62781
0.93332	1.67614
0.95753	1.71239
1.01278	1.77409
1.06597	1.83731
