Adsorption isotherm of Nitrogen on PF-600 KOH
DOI: 10.1021/acs.langmuir.5b02390
Article source: Figure 3a- N2 PF 600 KOH
Adsorbate Nitrogen: InChIKey IJGRMHOSHXDMSA-UHFFFAOYSA-N
Kind: experiment
Temperature: 273 K
Tabular data in the source: 0
pressure (bar)	uptake (mmol/g)
0.1326	0.14118
0.16635	0.18115
0.19994	0.208
0.23308	0.2182
0.2658	0.22537
0.29956	0.28047
0.33297	0.30025
0.3662	0.32609
0.40013	0.35798
0.43336	0.3702
0.466	0.40361
0.49923	0.4133
0.53316	0.44469
0.56691	0.46448
0.60049	0.48426
0.63347	0.50152
0.6667	0.52888
0.69994	0.5421
0.73369	0.56895
0.76684	0.5847
0.80051	0.60398
0.81764	0.61463
0.8675	0.64255
0.88386	0.64916
0.93294	0.67757
0.95377	0.68672
1.01387	0.71568
1.06674	0.74562
