Adsorption isotherm of Nitrogen on PF-600 ZnCl2
DOI: 10.1021/acs.langmuir.5b02390
Article source: Figure 3a- N2 PF 600 ZnCl2
Adsorbate Nitrogen: InChIKey IJGRMHOSHXDMSA-UHFFFAOYSA-N
Kind: experiment
Temperature: 273 K
Tabular data in the source: 0
pressure (bar)	uptake (mmol/g)
0.03565	0.01977
0.06536	0.04357
0.10024	0.07595
0.13322	0.0947
0.16655	0.11397
0.19996	0.14079
0.23286	0.16611
0.26618	0.18991
0.29942	0.21069
0.33413	0.23247
0.36582	0.25577
0.39992	0.27554
0.4335	0.29581
0.46588	0.31356
0.49981	0.33383
0.53322	0.35662
0.56664	0.37437
0.59996	0.38708
0.63355	0.41189
0.6661	0.42712
0.70055	0.44436
0.7337	0.46817
0.76677	0.48642
0.80001	0.49963
0.81689	0.50977
0.86675	0.53816
0.88388	0.54728
0.93383	0.56811
0.95243	0.57573
1.0134	0.60365
1.06653	0.62599
