Adsorption isotherm of Nitrogen on PF-800 ZnCl2
DOI: 10.1021/acs.langmuir.5b02390
Article source: Figure 3b- N2 PF 800 ZnCl2
Adsorbate Nitrogen: InChIKey IJGRMHOSHXDMSA-UHFFFAOYSA-N
Kind: experiment
Temperature: 298 K
Tabular data in the source: 0
pressure (bar)	uptake (mmol/g)
0.01162	0.00454
0.02377	0.01333
0.03503	0.01847
0.06619	0.0321
0.10032	0.04209
0.13283	0.06511
0.16678	0.07479
0.201	0.09448
0.23377	0.10507
0.26673	0.12627
0.30005	0.13565
0.33319	0.15655
0.36759	0.16593
0.40037	0.18259
0.43279	0.19288
0.46692	0.21075
0.5006	0.22073
0.53347	0.2386
0.56714	0.25101
0.60037	0.26737
0.63378	0.27887
0.6671	0.29128
0.69997	0.30551
0.73383	0.31853
0.76661	0.33215
0.79939	0.3479
0.81587	0.35304
0.86711	0.37121
0.88286	0.37514
0.93383	0.39482
0.95049	0.40208
1.01317	0.4263
1.06693	0.44386
