Adsorption isotherm of Carbon Dioxide on PF-600 KOH
DOI: 10.1021/acs.langmuir.5b02390
Article source: Figure 3c- CO2 PF 600 KOH
Adsorbate Carbon Dioxide: InChIKey CURLTUGMZLYLDI-UHFFFAOYSA-N
Kind: experiment
Temperature: 323 K
Tabular data in the source: 0
pressure (bar)	uptake (mmol/g)
0.01837	0.14846
0.02751	0.22368
0.03046	0.2421
0.06803	0.41451
0.1012	0.57095
0.13276	0.67215
0.1672	0.8042
0.19886	0.87476
0.23383	0.99581
0.26675	1.06119
0.30011	1.15851
0.33347	1.21375
0.36702	1.30653
0.40021	1.35444
0.43267	1.43622
0.46533	1.47549
0.49995	1.55123
0.53314	1.58963
0.56677	1.6589
0.60005	1.69515
0.6336	1.76118
0.66635	1.79117
0.70034	1.85224
0.73317	1.88244
0.76636	1.94006
0.79992	1.97134
0.82279	2.00975
0.86648	2.05054
0.88962	2.08614
0.93286	2.1267
0.96013	2.16123
1.01333	2.21302
1.06662	2.26523
