Adsorption isotherm of Methane on PF-800 KOH
DOI: 10.1021/acs.langmuir.5b02390
Article source: Figure 3c- CH4 PF 800 KOH
Adsorbate Methane: InChIKey VNWKTOKETHGBQD-UHFFFAOYSA-N
Kind: experiment
Temperature: 323 K
Tabular data in the source: 0
pressure (bar)	uptake (mmol/g)
0.00697	0.08394
0.01431	0.13271
0.02041	0.14781
0.02676	0.19011
0.03374	0.22444
0.03393	0.22506
0.06734	0.38582
0.10031	0.52068
0.10075	0.56362
0.13364	0.64173
0.16698	0.79327
0.16724	0.79385
0.2005	0.85103
0.23347	0.94706
0.23358	0.94705
0.26674	1.03314
0.29973	1.11556
0.30026	1.11864
0.33308	1.19367
0.36632	1.30608
0.36634	1.26875
0.40031	1.34276
0.43339	1.44179
0.4654	1.4748
0.49955	1.56672
0.53301	1.60059
0.56689	1.68624
0.59989	1.71493
0.63333	1.79412
0.66616	1.82367
0.70005	1.89724
0.73305	1.92529
0.76631	1.99282
0.79941	2.02151
0.81895	2.06488
0.86675	2.11169
0.88576	2.15095
0.9323	2.19992
0.95499	2.23487
1.01283	2.29938
1.06601	2.36582
