Adsorption isotherm of Nitrogen on PF-800 ZnCl2
DOI: 10.1021/acs.langmuir.5b02390
Article source: Figure 3a- N2 PF 800 ZnCl2
Adsorbate Nitrogen: InChIKey IJGRMHOSHXDMSA-UHFFFAOYSA-N
Kind: experiment
Temperature: 273 K
Tabular data in the source: 0
pressure (bar)	uptake (mmol/g)
0.01696	0.01267
0.02247	0.01823
0.031	0.02583
0.06544	0.05772
0.10013	0.08154
0.13346	0.10788
0.16695	0.13725
0.19993	0.16157
0.23325	0.18741
0.26691	0.20971
0.30015	0.23404
0.33407	0.26038
0.36687	0.28672
0.40028	0.30701
0.46623	0.34909
0.53322	0.39622
0.60047	0.4368
0.66702	0.47839
0.73349	0.51745
0.80018	0.55136
0.8666	0.59082
0.93325	0.62808
1.01375	0.67071
1.06696	0.6946
