Adsorption isotherm of Nitrogen on PF-600 KOH
DOI: 10.1021/acs.langmuir.5b02390
Article source: Figure 2- PF 600 KOH
Adsorbate Nitrogen: InChIKey IJGRMHOSHXDMSA-UHFFFAOYSA-N
Kind: experiment
Temperature: 77 K
Tabular data in the source: 0
pressure (bar)	uptake (cm3(STP)/g)
0.00692	146.636
0.00768	146.836
0.04667	156.204
0.04694	156.315
0.07161	158.176
0.09437	159.942
0.09615	163.106
0.1176	160.887
0.13405	164.503
0.13795	161.668
0.15968	162.449
0.17818	165.735
0.17962	162.942
0.20244	163.517
0.22293	166.393
0.22451	164.544
0.24568	164.832
0.26782	165.543
0.26809	165.53
0.31209	165.941
0.31264	165.981
0.35334	167.995
0.35595	166.187
0.40036	166.886
0.40221	168.776
0.44511	167.749
0.44538	169.721
0.48897	170.173
0.48931	170.156
0.5342	170.894
0.53433	170.889
0.54002	170.624
0.57792	168.899
0.58559	171.076
0.62294	169.351
0.63	171.2
0.66632	169.885
0.67482	171.528
0.71135	170.296
0.72005	171.857
0.75596	171.2
0.76727	172.473
0.80016	172.309
0.81853	173.706
0.84306	174.076
0.86027	175.144
0.86897	177.691
0.89028	180.074
0.91002	182.087
0.95004	185.086
1.00021	186.976
