Adsorption isotherm of Nitrogen on PF-800 KOH
DOI: 10.1021/acs.langmuir.5b02390
Article source: Figure 3c- N2 PF 800 KOH
Adsorbate Nitrogen: InChIKey IJGRMHOSHXDMSA-UHFFFAOYSA-N
Kind: experiment
Temperature: 323 K
Tabular data in the source: 0
pressure (bar)	uptake (mmol/g)
0.00619	0.0136
0.01265	0.01381
0.02269	0.01618
0.03444	0.01833
0.06602	0.03062
0.10011	0.04335
0.13365	0.0606
0.16684	0.06879
0.20021	0.08324
0.23349	0.09251
0.2665	0.10458
0.30032	0.11601
0.33351	0.13046
0.36652	0.14318
0.4007	0.15375
0.43398	0.16323
0.4669	0.1766
0.50027	0.18652
0.53355	0.2001
0.56719	0.20937
0.60056	0.22231
0.63375	0.23179
0.66676	0.243
0.70049	0.25422
0.73314	0.26348
0.76714	0.27664
0.80006	0.28375
0.81486	0.28849
0.86662	0.30358
0.88196	0.3094
0.933	0.32536
0.94915	0.32924
1.01311	0.34842
1.06666	0.36394
