Adsorption isotherm of Methane on PF-800 ZnCl2
DOI: 10.1021/acs.langmuir.5b02390
Article source: Figure 3c- CH4 PF 800 ZnCl2
Adsorbate Methane: InChIKey VNWKTOKETHGBQD-UHFFFAOYSA-N
Kind: experiment
Temperature: 323 K
Tabular data in the source: 0
pressure (bar)	uptake (mmol/g)
0.0139	0.02223
0.02161	0.03022
0.03524	0.03885
0.065	0.07792
0.1015	0.11526
0.13297	0.1567
0.16776	0.18518
0.16776	0.18519
0.20022	0.22684
0.23331	0.25468
0.26666	0.29181
0.3002	0.31987
0.30029	0.31995
0.33409	0.35483
0.36638	0.38221
0.36727	0.38354
0.40144	0.41656
0.43336	0.43857
0.46725	0.47224
0.50205	0.4975
0.53531	0.52879
0.56813	0.55297
0.60113	0.57973
0.63485	0.60477
0.66785	0.63131
0.70094	0.65354
0.73358	0.68225
0.76766	0.70319
0.80129	0.72801
0.81868	0.73729
0.86764	0.77571
0.88576	0.7852
0.93383	0.81909
0.95436	0.83031
1.01454	0.8683
1.06709	0.90175
