Adsorption isotherm of Carbon Dioxide on PF-600 ZnCl2
DOI: 10.1021/acs.langmuir.5b02390
Article source: Figure 3c- CO2 PF 600 ZnCl2
Adsorbate Carbon Dioxide: InChIKey CURLTUGMZLYLDI-UHFFFAOYSA-N
Kind: experiment
Temperature: 323 K
Tabular data in the source: 0
pressure (bar)	uptake (mmol/g)
0.02949	0.13579
0.02957	0.13594
0.06706	0.20821
0.1004	0.32062
0.10077	0.32166
0.13358	0.38253
0.16666	0.46322
0.16702	0.46463
0.20029	0.53679
0.23364	0.62978
0.26709	0.68674
0.30062	0.76246
0.33299	0.82136
0.3668	0.89557
0.39962	0.94281
0.43396	1.01379
0.46535	1.05176
0.50041	1.12381
0.53314	1.16566
0.56614	1.23211
0.60004	1.26921
0.63349	1.33242
0.66685	1.37146
0.69958	1.42819
0.73321	1.46788
0.76675	1.52138
0.7994	1.55956
0.82235	1.59796
0.86603	1.64973
0.88934	1.68144
0.9332	1.73256
0.95992	1.77139
1.014	1.83351
1.06602	1.89649
