Adsorption isotherm of Methane on PF-800 ZnCl2
DOI: 10.1021/acs.langmuir.5b02390
Article source: Figure 3b- CH4 PF 800 ZnCl2
Adsorbate Methane: InChIKey VNWKTOKETHGBQD-UHFFFAOYSA-N
Kind: experiment
Temperature: 298 K
Tabular data in the source: 0
pressure (bar)	uptake (mmol/g)
0.00712	0.04788
0.01261	0.04848
0.02036	0.05756
0.03306	0.06785
0.06386	0.13722
0.10187	0.20142
0.13357	0.2723
0.16735	0.32712
0.19968	0.38406
0.23355	0.43645
0.26606	0.48672
0.30002	0.53426
0.33469	0.58331
0.36631	0.62692
0.40134	0.67294
0.43386	0.71473
0.46709	0.75439
0.50195	0.80011
0.53527	0.83886
0.56904	0.87883
0.60147	0.91334
0.63497	0.95239
0.66829	0.98539
0.70162	1.0205
0.73503	1.0541
0.76826	1.09073
0.80114	1.11949
0.82041	1.13704
0.86868	1.18093
0.88652	1.20091
0.93542	1.24297
0.95605	1.26689
1.01549	1.31895
1.06853	1.36131
