Adsorption isotherm of Carbon Dioxide on PF-600 KOH
DOI: 10.1021/acs.langmuir.5b02390
Article source: Figure 3a- PF 600 KOH
Adsorbate Carbon Dioxide: InChIKey CURLTUGMZLYLDI-UHFFFAOYSA-N
Kind: experiment
Temperature: 273 K
Tabular data in the source: 0
pressure (bar)	uptake (mmol/g)
0.00535	0.50606
0.01232	0.57714
0.01301	0.63964
0.02068	0.77372
0.02585	0.87656
0.03033	0.98576
0.03283	1.00963
0.06616	1.46231
0.09665	1.77928
0.097	1.7804
0.12921	2.03147
0.16486	2.25633
0.16805	2.34756
0.1994	2.46203
0.23393	2.68739
0.26605	2.77061
0.2999	2.9128
0.30007	2.91418
0.33314	3.02677
0.36621	3.1362
0.36647	3.16846
0.39963	3.23958
0.43364	3.37422
0.46559	3.4151
0.50047	3.53965
0.53328	3.57549
0.56721	3.67888
0.59985	3.71623
0.63352	3.81155
0.66668	3.83681
0.69992	3.93364
0.73359	3.95184
0.76674	4.01641
0.80016	4.05628
0.82375	4.10622
0.86681	4.14309
0.88954	4.18849
0.93346	4.23292
0.9599	4.27329
1.01372	4.32529
1.06617	4.38133
