Adsorption isotherm of Methane on PF-600 ZnCl2
DOI: 10.1021/acs.langmuir.5b02390
Article source: Figure 3a- CH4 PF 600 ZnCl2
Adsorbate Methane: InChIKey VNWKTOKETHGBQD-UHFFFAOYSA-N
Kind: experiment
Temperature: 273 K
Tabular data in the source: 0
pressure (bar)	uptake (mmol/g)
0.03359	0.14389
0.06735	0.27013
0.1005	0.37467
0.13133	0.47518
0.16681	0.57217
0.19945	0.65351
0.23312	0.73435
0.26602	0.81468
0.30038	0.88191
0.33379	0.94813
0.366	1.01131
0.40062	1.07349
0.433	1.13819
0.46624	1.19885
0.5012	1.26053
0.53341	1.31413
0.56708	1.35916
0.59903	1.41427
0.63511	1.4694
0.66775	1.50939
0.70168	1.55997
0.73337	1.59843
0.76739	1.65355
0.80132	1.6895
0.8225	1.71784
0.86805	1.77351
0.88838	1.80587
0.93376	1.85247
0.95882	1.88283
1.01445	1.9441
1.06603	2.00232
