Adsorption isotherm of Methane on PF-600 KOH
DOI: 10.1021/acs.langmuir.5b02390
Article source: Figure 3c- CH4 PF 600 KOH
Adsorbate Methane: InChIKey VNWKTOKETHGBQD-UHFFFAOYSA-N
Kind: experiment
Temperature: 323 K
Tabular data in the source: 0
pressure (bar)	uptake (mmol/g)
0.06671	0.09899
0.13343	0.18848
0.16751	0.2288
0.19943	0.26697
0.23342	0.30254
0.26633	0.3379
0.29978	0.37326
0.3352	0.40798
0.36632	0.43837
0.40112	0.46791
0.43565	0.50111
0.46731	0.52439
0.50139	0.55479
0.53574	0.58238
0.56892	0.61321
0.60058	0.63368
0.6352	0.66128
0.66811	0.6865
0.70139	0.71042
0.73412	0.7337
0.76857	0.7559
0.8013	0.77594
0.82059	0.78822
0.86866	0.82336
0.8874	0.83068
0.93341	0.86172
0.957	0.87421
1.01378	0.91193
1.06822	0.94275
