Adsorption isotherm of Nitrogen on PF-600 KOH
DOI: 10.1021/acs.langmuir.5b02390
Article source: Figure 3b- N2 PF 600 KOH
Adsorbate Nitrogen: InChIKey IJGRMHOSHXDMSA-UHFFFAOYSA-N
Kind: experiment
Temperature: 298 K
Tabular data in the source: 0
pressure (bar)	uptake (mmol/g)
0.06527	0.05542
0.10075	0.06601
0.13352	0.08963
0.16674	0.10233
0.19997	0.11868
0.23391	0.12805
0.26695	0.1544
0.30009	0.1671
0.33493	0.18314
0.3668	0.19737
0.40002	0.20886
0.43316	0.22187
0.46647	0.24034
0.50059	0.2585
0.53382	0.2703
0.56749	0.28725
0.59972	0.30844
0.63349	0.3163
0.66707	0.33294
0.70038	0.34626
0.73351	0.36018
0.76719	0.37258
0.7996	0.39104
0.81815	0.39285
0.86677	0.41434
0.88441	0.41644
0.93393	0.43884
0.95338	0.44246
1.01406	0.47152
1.0679	0.48936
