Adsorption isotherm of Carbon Dioxide on PF-600 KOH
DOI: 10.1021/acs.langmuir.5b02390
Article source: Figure 3b- CO2 PF 600 KOH
Adsorbate Carbon Dioxide: InChIKey CURLTUGMZLYLDI-UHFFFAOYSA-N
Kind: experiment
Temperature: 298 K
Tabular data in the source: 0
pressure (bar)	uptake (mmol/g)
0.0125	0.25965
0.01889	0.34338
0.02798	0.43044
0.03248	0.4993
0.06965	0.80053
0.09846	0.98043
0.09998	1.02835
0.13203	1.18884
0.16642	1.34782
0.16858	1.38634
0.19919	1.49951
0.23412	1.66182
0.26644	1.74769
0.30011	1.87542
0.33333	1.95644
0.36574	2.07629
0.39986	2.13577
0.43344	2.23863
0.46441	2.28841
0.50024	2.39005
0.53347	2.43407
0.56633	2.52055
0.59946	2.56517
0.63449	2.64831
0.66744	2.68778
0.70021	2.76122
0.73307	2.79249
0.76756	2.86017
0.80006	2.89326
0.82428	2.94212
0.8666	2.98554
0.89091	3.02621
0.93314	3.07023
0.9615	3.11212
1.01354	3.17192
1.06684	3.23143
