Adsorption isotherm of Nitrogen on PF-600 ZnCl2
DOI: 10.1021/acs.langmuir.5b02390
Article source: Figure 2- PF 600 ZnCl2
Adsorbate Nitrogen: InChIKey IJGRMHOSHXDMSA-UHFFFAOYSA-N
Kind: experiment
Temperature: 77 K
Tabular data in the source: 0
pressure (bar)	uptake (cm3(STP)/g)
0.00035	18.98
0.00036	39.791
0.00046	60.032
0.00055	71.215
0.00058	160.153
0.00061	9.403
0.00073	110.248
0.0008	49.472
0.00083	149.696
0.00084	169.472
0.00091	139.86
0.00098	91.094
0.00099	132.065
0.001	129.713
0.00107	100.36
0.0011	180.136
0.00124	80.326
0.00128	190.697
0.00145	210.469
0.00146	210.731
0.00189	221.603
0.00199	227.615
0.00224	231.387
0.00389	274.722
0.00847	278.755
0.04259	309.04
0.04311	309.572
0.06763	316.702
0.0912	321.154
0.09742	321.93
0.11581	324.519
0.13472	326.693
0.14241	327.418
0.16227	328.919
0.17833	330.265
0.18455	330.317
0.20311	331.766
0.22314	332.284
0.224	332.491
0.24611	333.837
0.26623	334.537
0.26821	334.614
0.31147	336.011
0.35438	337.441
0.35482	337.461
0.39902	338.962
0.44366	340.515
0.48806	341.9
0.5339	343.092
0.57564	344.037
0.57667	344.119
0.62183	345.27
0.63122	345.927
0.66624	346.461
0.67652	347.242
0.71037	348.433
0.72367	349.132
0.75451	350.077
0.77507	351.967
0.79782	353.364
0.82804	357.72
0.84017	358.87
0.86457	367.786
0.8802	363.595
0.91001	370.334
0.92988	368.32
0.94037	372.553
1.00006	376.415
