Adsorption isotherm of Methane on PF-800 KOH
DOI: 10.1021/acs.langmuir.5b02390
Article source: Figure 3c- CH4 PF 800 KOH
Adsorbate Methane: InChIKey VNWKTOKETHGBQD-UHFFFAOYSA-N
Kind: experiment
Temperature: 323 K
Tabular data in the source: 0
pressure (bar)	uptake (mmol/g)
0.01139	0.0384
0.01695	0.04229
0.02395	0.04876
0.03427	0.06494
0.06477	0.11261
0.09984	0.17432
0.1002	0.17474
0.13366	0.21746
0.16677	0.26448
0.16686	0.26465
0.19987	0.30676
0.23297	0.35185
0.26626	0.39046
0.29936	0.43058
0.29945	0.43073
0.33462	0.46876
0.36593	0.50731
0.3662	0.50759
0.40011	0.54038
0.43456	0.57921
0.46713	0.6053
0.50131	0.64262
0.53505	0.66872
0.5677	0.70474
0.60153	0.72911
0.63455	0.76125
0.66774	0.78584
0.7013	0.8156
0.73467	0.8389
0.7676	0.86844
0.80134	0.89152
0.81784	0.9064
0.86755	0.94113
0.88514	0.95385
0.93466	0.98857
0.9535	1.00173
1.01451	1.04378
1.06808	1.07764
