Adsorption isotherm of Methane on PF-800 KOH
DOI: 10.1021/acs.langmuir.5b02390
Article source: Figure 3a- CH4 PF 800 KOH
Adsorbate Methane: InChIKey VNWKTOKETHGBQD-UHFFFAOYSA-N
Kind: experiment
Temperature: 273 K
Tabular data in the source: 0
pressure (bar)	uptake (mmol/g)
0.03411	0.25907
0.0677	0.40575
0.10086	0.57762
0.13238	0.67641
0.16666	0.81351
0.19878	0.88206
0.23323	1.00554
0.26733	1.06905
0.29989	1.16683
0.33468	1.22278
0.36637	1.29882
0.36663	1.29889
0.40074	1.35887
0.4345	1.44153
0.46653	1.48185
0.50098	1.55746
0.53439	1.59677
0.56755	1.66734
0.60131	1.70665
0.63464	1.76361
0.6677	1.80141
0.70138	1.86038
0.73436	1.89415
0.7682	1.94456
0.80058	1.97984
0.81979	2.00554
0.86707	2.05645
0.88662	2.08669
0.93329	2.13155
0.95611	2.1623
1.01416	2.22026
1.0672	2.27268
