Adsorption isotherm of Methane on PF-800 KOH
DOI: 10.1021/acs.langmuir.5b02390
Article source: Figure 3b- CH4 PF 800 KOH
Adsorbate Methane: InChIKey VNWKTOKETHGBQD-UHFFFAOYSA-N
Kind: experiment
Temperature: 298 K
Tabular data in the source: 0
pressure (bar)	uptake (mmol/g)
0.00972	0.06797
0.01593	0.08041
0.02719	0.09954
0.03403	0.12594
0.06707	0.21487
0.10055	0.31065
0.10073	0.31108
0.13287	0.37635
0.16555	0.4489
0.16744	0.46467
0.20048	0.51902
0.23298	0.59398
0.23334	0.5946
0.26593	0.64318
0.29915	0.6954
0.29951	0.69647
0.33273	0.75278
0.36631	0.80902
0.36767	0.80865
0.40098	0.85723
0.43456	0.91613
0.46751	0.95075
0.50091	1.0054
0.5344	1.03699
0.56807	1.08922
0.60048	1.11959
0.6346	1.16727
0.66729	1.19461
0.70159	1.24198
0.73283	1.26508
0.76776	1.30759
0.8017	1.33706
0.8198	1.35893
0.86625	1.39964
0.88534	1.4206
0.93387	1.46616
0.95512	1.48409
1.01472	1.53331
1.0682	1.57615
