Adsorption isotherm of Methane on PF-600 KOH
DOI: 10.1021/acs.langmuir.5b02390
Article source: Figure 3b- CH4 PF 600 KOH
Adsorbate Methane: InChIKey VNWKTOKETHGBQD-UHFFFAOYSA-N
Kind: experiment
Temperature: 298 K
Tabular data in the source: 0
pressure (bar)	uptake (mmol/g)
0.06724	0.18944
0.10082	0.27189
0.13376	0.33402
0.16734	0.39979
0.16743	0.40006
0.2002	0.46738
0.23351	0.51891
0.23368	0.51931
0.26474	0.58165
0.29994	0.63802
0.30138	0.6396
0.33388	0.68379
0.36844	0.7338
0.36853	0.7339
0.4004	0.77471
0.43452	0.82351
0.46719	0.85957
0.50122	0.9017
0.53435	0.93534
0.56838	0.97747
0.60051	1.00929
0.63472	1.04414
0.66794	1.07384
0.70179	1.10899
0.73464	1.13627
0.76777	1.16839
0.80126	1.19839
0.82205	1.21506
0.86805	1.25234
0.88795	1.26931
0.93566	1.30688
0.95817	1.32507
1.01425	1.36931
1.06673	1.4081
