Adsorption isotherm of Nitrogen on PF-800 KOH
DOI: 10.1021/acs.langmuir.5b02390
Article source: Figure 3a- N2 PF 800 KOH
Adsorbate Nitrogen: InChIKey IJGRMHOSHXDMSA-UHFFFAOYSA-N
Kind: experiment
Temperature: 273 K
Tabular data in the source: 0
pressure (bar)	uptake (mmol/g)
0.03289	0.06261
0.06466	0.09295
0.09988	0.14246
0.13346	0.16172
0.16626	0.21475
0.2001	0.23249
0.23247	0.28451
0.26666	0.30276
0.29903	0.34823
0.33304	0.36748
0.36567	0.40791
0.40046	0.42566
0.43189	0.46457
0.4659	0.4808
0.49956	0.52073
0.53331	0.53645
0.56672	0.56932
0.59978	0.58656
0.63285	0.61892
0.66643	0.63818
0.70018	0.6655
0.73316	0.68778
0.76596	0.71207
0.7998	0.73234
0.81607	0.74549
0.86644	0.77639
0.88289	0.78753
0.93352	0.81894
0.9516	0.83059
1.01247	0.86757
1.06646	0.90251
