Adsorption isotherm of Nitrogen on PF-600 KOH
DOI: 10.1021/acs.langmuir.5b02390
Article source: Figure 3c- N2 PF 600 KOH
Adsorbate Nitrogen: InChIKey IJGRMHOSHXDMSA-UHFFFAOYSA-N
Kind: experiment
Temperature: 323 K
Tabular data in the source: 0
pressure (bar)	uptake (mmol/g)
0.00673	0.00259
0.01651	0.00604
0.03406	0.00943
0.06674	0.02115
0.09993	0.0287
0.13339	0.04036
0.16686	0.04813
0.19987	0.06108
0.23351	0.06669
0.26625	0.08007
0.29962	0.08741
0.33335	0.09776
0.36645	0.10769
0.40036	0.11676
0.43356	0.12453
0.46666	0.1351
0.50021	0.14503
0.53295	0.15647
0.56686	0.16208
0.60014	0.1733
0.63324	0.18128
0.66688	0.19121
0.70017	0.19963
0.73354	0.21064
0.76637	0.21776
0.79956	0.22433
0.81625	0.22704
0.93332	0.2579
0.95036	0.26178
1.01325	0.27711
1.06716	0.29049
