Adsorption isotherm of Methane on PF-600 ZnCl2
DOI: 10.1021/acs.langmuir.5b02390
Article source: Figure 3b- CH4 PF 600 ZnCl2
Adsorbate Methane: InChIKey VNWKTOKETHGBQD-UHFFFAOYSA-N
Kind: experiment
Temperature: 298 K
Tabular data in the source: 0
pressure (bar)	uptake (mmol/g)
0.06634	0.12727
0.10018	0.19121
0.13241	0.24818
0.16724	0.29877
0.19965	0.35817
0.23403	0.40331
0.26598	0.453
0.30028	0.49996
0.3334	0.53964
0.36644	0.57963
0.40154	0.62719
0.43251	0.66051
0.46572	0.70262
0.50209	0.7417
0.53494	0.78077
0.56789	0.81773
0.60065	0.85438
0.63459	0.8877
0.66789	0.92193
0.70111	0.95342
0.73441	0.98553
0.76754	1.01884
0.80093	1.05004
0.82083	1.07094
0.86781	1.11303
0.88735	1.13212
0.93514	1.16936
0.95738	1.19086
1.01436	1.2378
1.06782	1.27928
