Adsorption isotherm of Carbon Dioxide on PF-800 ZnCl2
DOI: 10.1021/acs.langmuir.5b02390
Article source: Figure 3a- PF 800 ZnCl2
Adsorbate Carbon Dioxide: InChIKey CURLTUGMZLYLDI-UHFFFAOYSA-N
Kind: experiment
Temperature: 273 K
Tabular data in the source: 0
pressure (bar)	uptake (mmol/g)
0.0118	0.20929
0.01258	0.22047
0.01964	0.31986
0.02584	0.40513
0.03144	0.46237
0.03299	0.47678
0.0702	0.83855
0.10172	1.09035
0.10405	1.12567
0.13178	1.29977
0.16511	1.52281
0.16709	1.55561
0.19938	1.72014
0.2322	1.92373
0.2334	1.93108
0.2663	2.07493
0.29997	2.23189
0.30049	2.23561
0.3333	2.38684
0.36655	2.5327
0.36655	2.5554
0.40005	2.67201
0.43337	2.82192
0.46377	2.91229
0.49969	3.07229
0.53345	3.1667
0.56712	3.30853
0.59993	3.39134
0.6336	3.52006
0.66659	3.60136
0.7	3.72352
0.73315	3.79927
0.76691	3.91134
0.80015	3.98759
0.82745	4.07846
0.8669	4.1628
0.89394	4.24862
0.93338	4.34305
0.96516	4.42435
1.01338	4.53141
1.06652	4.65664
