Adsorption isotherm of Carbon Dioxide on PF-600 ZnCl2
DOI: 10.1021/acs.langmuir.5b02390
Article source: Figure 3a- PF 600 ZnCl2
Adsorbate Carbon Dioxide: InChIKey CURLTUGMZLYLDI-UHFFFAOYSA-N
Kind: experiment
Temperature: 273 K
Tabular data in the source: 0
pressure (bar)	uptake (mmol/g)
0.01223	0.2405
0.01774	0.37511
0.0248	0.4447
0.03255	0.53193
0.06665	0.88489
0.10195	1.19848
0.10221	1.20106
0.13192	1.42294
0.16748	1.66147
0.16765	1.66285
0.19977	1.86975
0.23309	2.08206
0.2337	2.08508
0.26625	2.24043
0.29974	2.40888
0.30026	2.41231
0.33375	2.56725
0.36691	2.71704
0.3998	2.85373
0.43278	3.00605
0.46386	3.10341
0.50037	3.26078
0.53292	3.35613
0.56616	3.48526
0.60009	3.57456
0.63367	3.70319
0.66536	3.77282
0.70023	3.90095
0.73407	3.9726
0.76679	4.08257
0.8002	4.15222
0.82991	4.24756
0.86659	4.32275
0.89638	4.40953
0.93358	4.49178
0.96742	4.57654
1.0134	4.66638
1.06679	4.78597
