Adsorption isotherm of Methane on PF-800 ZnCl2
DOI: 10.1021/acs.langmuir.5b02390
Article source: Figure 3a- CH4 PF 800 ZnCl2
Adsorbate Methane: InChIKey VNWKTOKETHGBQD-UHFFFAOYSA-N
Kind: experiment
Temperature: 273 K
Tabular data in the source: 0
pressure (bar)	uptake (mmol/g)
0.00568	0.01614
0.00921	0.0353
0.0149	0.07111
0.01748	0.10288
0.02497	0.12104
0.03324	0.15181
0.067	0.29605
0.10032	0.40297
0.13262	0.51493
0.16689	0.60571
0.19944	0.70103
0.23345	0.78374
0.26617	0.86595
0.3001	0.93958
0.33274	1.01473
0.36615	1.07928
0.39973	1.14938
0.43487	1.21041
0.46587	1.27143
0.50143	1.32994
0.5332	1.38844
0.56799	1.44089
0.6008	1.49889
0.63481	1.54579
0.66771	1.60278
0.7006	1.64515
0.73419	1.69457
0.76734	1.74299
0.80092	1.78737
0.82116	1.81511
0.86679	1.87412
0.88824	1.89984
0.93381	1.96647
0.95781	1.9886
1.01456	2.05669
1.06717	2.12124
