Adsorption isotherm of Methane on PF-600 ZnCl2
DOI: 10.1021/acs.langmuir.5b02390
Article source: Figure 3c- CH4 PF 600 ZnCl2
Adsorbate Methane: InChIKey VNWKTOKETHGBQD-UHFFFAOYSA-N
Kind: experiment
Temperature: 323 K
Tabular data in the source: 0
pressure (bar)	uptake (mmol/g)
0.03372	0.02654
0.06411	0.0684
0.10025	0.10595
0.13351	0.14133
0.16714	0.17349
0.19996	0.20305
0.23331	0.23326
0.26586	0.26239
0.29985	0.29324
0.33374	0.32043
0.36665	0.34783
0.40082	0.37632
0.43481	0.4007
0.46745	0.42487
0.50179	0.45054
0.5356	0.47493
0.56761	0.50168
0.60061	0.52391
0.63496	0.54937
0.66787	0.57138
0.70132	0.59663
0.73441	0.61475
0.7675	0.63784
0.80077	0.65942
0.81933	0.67215
0.86749	0.70451
0.88605	0.7153
0.93546	0.74594
0.95456	0.75673
1.01366	0.79363
1.06738	0.82535
