Adsorption isotherm of Nitrogen on PF-600 ZnCl2
DOI: 10.1021/acs.langmuir.5b02390
Article source: Figure 3b- N2 PF 600 ZnCl2
Adsorbate Nitrogen: InChIKey IJGRMHOSHXDMSA-UHFFFAOYSA-N
Kind: experiment
Temperature: 298 K
Tabular data in the source: 0
pressure (bar)	uptake (mmol/g)
0.06545	0.01491
0.10163	0.02798
0.13134	0.04407
0.16654	0.0626
0.20021	0.07233
0.23369	0.08661
0.26592	0.10998
0.29968	0.11365
0.33308	0.13278
0.36701	0.14342
0.40014	0.15649
0.43363	0.16743
0.4664	0.17594
0.50043	0.19326
0.53373	0.20602
0.56713	0.21757
0.60017	0.22972
0.63357	0.23885
0.66678	0.25404
0.7009	0.26255
0.73295	0.2741
0.76644	0.28747
0.80118	0.29751
0.81676	0.30116
0.86744	0.32151
0.88274	0.32486
0.93361	0.34158
0.95143	0.34887
1.01327	0.36742
1.06711	0.3808
