Adsorption isotherm of Carbon Dioxide on PF-600 ZnCl2
DOI: 10.1021/acs.langmuir.5b02390
Article source: Figure 3b- CO2 PF 600 ZnCl2
Adsorbate Carbon Dioxide: InChIKey CURLTUGMZLYLDI-UHFFFAOYSA-N
Kind: experiment
Temperature: 298 K
Tabular data in the source: 0
pressure (bar)	uptake (mmol/g)
0.03042	0.24049
0.06769	0.434
0.10127	0.60782
0.13295	0.73256
0.16689	0.88821
0.20074	0.99537
0.23378	1.13556
0.26727	1.22817
0.30093	1.35261
0.30102	1.3317
0.33316	1.43826
0.3662	1.55391
0.36737	1.53451
0.40014	1.62834
0.43318	1.73793
0.4645	1.79935
0.50051	1.90892
0.53373	1.97003
0.56677	2.06901
0.60053	2.12648
0.63411	2.2194
0.6667	2.27112
0.70019	2.35616
0.73368	2.4106
0.76744	2.4911
0.79966	2.54524
0.82613	2.60454
0.86628	2.66927
0.89257	2.72736
0.93362	2.79117
0.96432	2.85168
1.01401	2.93061
1.06614	3.01681
