Adsorption isotherm of Nitrogen on PF-600 ZnCl2
DOI: 10.1021/acs.langmuir.5b02390
Article source: Figure 3c- N2 PF 600 ZnCl2
Adsorbate Nitrogen: InChIKey IJGRMHOSHXDMSA-UHFFFAOYSA-N
Kind: experiment
Temperature: 323 K
Tabular data in the source: 0
pressure (bar)	uptake (mmol/g)
0.03391	0.01857
0.06584	0.01879
0.10029	0.02354
0.1159	0.03196
0.13366	0.03715
0.1673	0.04147
0.20112	0.05119
0.23324	0.05896
0.26715	0.06804
0.29998	0.07344
0.33416	0.08013
0.36753	0.08813
0.40036	0.09612
0.43319	0.1054
0.46594	0.1121
0.50074	0.11794
0.53367	0.12722
0.56704	0.13608
0.60068	0.14256
0.63315	0.14925
0.66661	0.15595
0.70007	0.16394
0.73353	0.1728
0.76654	0.18338
0.7992	0.18662
0.81543	0.19677
0.86773	0.20498
0.88191	0.20693
0.93295	0.21514
0.94982	0.22183
1.01378	0.22983
1.06751	0.24452
