Adsorption isotherm of Nitrogen on PF-800 KOH
DOI: 10.1021/acs.langmuir.5b02390
Article source: Figure 3b- N2 PF 800 KOH
Adsorbate Nitrogen: InChIKey IJGRMHOSHXDMSA-UHFFFAOYSA-N
Kind: experiment
Temperature: 298 K
Tabular data in the source: 0
pressure (bar)	uptake (mmol/g)
0.00855	0.01637
0.02332	0.02122
0.03916	0.03244
0.06698	0.05275
0.10002	0.07488
0.13342	0.09762
0.16646	0.1146
0.20058	0.13521
0.23308	0.15219
0.26675	0.1728
0.30024	0.1919
0.33373	0.21312
0.36569	0.22707
0.36731	0.23131
0.39999	0.24859
0.4342	0.26466
0.46652	0.28528
0.50055	0.29892
0.53405	0.31559
0.567	0.33136
0.60058	0.34894
0.63362	0.3647
0.66675	0.38138
0.70051	0.39654
0.73328	0.41139
0.76713	0.42655
0.80062	0.44292
0.81565	0.44898
0.86706	0.47172
0.88236	0.47505
0.93368	0.50022
0.95061	0.50658
1.01354	0.53447
1.06692	0.55418
