Adsorption isotherm of Methane on PF-600 KOH
DOI: 10.1021/acs.langmuir.5b02390
Article source: Figure 3a- CH4 PF 600 KOH
Adsorbate Methane: InChIKey VNWKTOKETHGBQD-UHFFFAOYSA-N
Kind: experiment
Temperature: 273 K
Tabular data in the source: 0
pressure (bar)	uptake (mmol/g)
0.06688	0.38463
0.10075	0.51017
0.10144	0.53587
0.13203	0.62158
0.16538	0.73351
0.16676	0.74253
0.19924	0.82376
0.23258	0.90745
0.23353	0.92056
0.26593	0.98561
0.29867	1.07214
0.29953	1.07434
0.3327	1.12226
0.36673	1.19824
0.36725	1.1994
0.40016	1.2453
0.43368	1.30379
0.46676	1.35221
0.50071	1.41474
0.53336	1.45962
0.56748	1.51207
0.60108	1.54436
0.63416	1.58924
0.66656	1.62002
0.7005	1.65885
0.7341	1.68509
0.76787	1.73099
0.80044	1.75823
0.82103	1.78043
0.86755	1.8349
0.88883	1.8576
0.93406	1.89695
0.95853	1.91562
1.01444	1.96557
1.06716	2.00241
