Adsorption isotherm of Carbon Dioxide on PF-800 KOH
DOI: 10.1021/acs.langmuir.5b02390
Article source: Figure 3a- PF 800 KOH
Adsorbate Carbon Dioxide: InChIKey CURLTUGMZLYLDI-UHFFFAOYSA-N
Kind: experiment
Temperature: 273 K
Tabular data in the source: 0
pressure (bar)	uptake (mmol/g)
0.00484	0.29495
0.00665	0.37713
0.01036	0.50671
0.02096	0.65796
0.02665	0.78199
0.03191	0.8743
0.0326	0.88081
0.06724	1.3497
0.09817	1.66633
0.10179	1.78784
0.13134	1.94464
0.1658	2.18816
0.16752	2.22485
0.19931	2.40345
0.23307	2.59151
0.23351	2.67268
0.26641	2.76394
0.29991	2.99585
0.29992	2.99587
0.33376	3.07401
0.36684	3.27216
0.39991	3.33669
0.43377	3.51215
0.46511	3.56106
0.49991	3.72542
0.53281	3.77534
0.56649	3.91953
0.60033	3.96642
0.63349	4.09701
0.66665	4.1328
0.69938	4.25935
0.73279	4.29364
0.76664	4.40607
0.8004	4.44439
0.82193	4.52758
0.86654	4.58909
0.88859	4.65564
0.93363	4.72522
0.9593	4.78421
1.01304	4.87194
1.06695	4.9637
