Adsorption isotherm of Nitrogen on PF-800 ZnCl2
DOI: 10.1021/acs.langmuir.5b02390
Article source: Figure 2- PF 800 ZnCl2
Adsorbate Nitrogen: InChIKey IJGRMHOSHXDMSA-UHFFFAOYSA-N
Kind: experiment
Temperature: 77 K
Tabular data in the source: 0
pressure (bar)	uptake (cm3(STP)/g)
0.00069	9.532
0.001	131.265
0.00106	90.838
0.00112	80.526
0.00117	20.049
0.00118	15.811
0.00118	40.345
0.00119	60.723
0.00121	121.693
0.00122	171.98
0.00125	50.123
0.00126	70.666
0.00127	111.093
0.00128	141.537
0.00129	151.281
0.00136	161.791
0.00165	220.994
0.00166	222.097
0.00171	191.085
0.00171	189.728
0.00172	188.694
0.00178	239.979
0.0018	241.783
0.00393	273.788
0.00846	290.304
0.01889	310.887
0.04466	334.715
0.04583	334.674
0.06577	343.301
0.09045	351.557
0.09305	351.557
0.11629	356.528
0.13301	359.197
0.14158	359.978
0.16379	362.688
0.17701	364.578
0.18366	365.522
0.20354	367.247
0.22163	369.506
0.22451	369.013
0.2448	370.656
0.26481	372.75
0.267	372.668
0.30717	375.131
0.30833	376.035
0.35199	379.313
0.35364	379.361
0.39565	380.797
0.39805	382.441
0.44081	384
0.44088	384
0.48502	384.697
0.48612	385.436
0.52772	387.064
0.52916	387.037
0.57261	387.569
0.57398	388.62
0.58241	388.637
0.61654	389.293
0.62682	390.566
0.66136	390.852
0.67103	391.92
0.70454	392.904
0.71722	394.013
0.74923	395.162
0.76766	397.298
0.79254	398.529
0.82016	403.787
0.83387	404.978
0.85882	415.33
0.87013	410.687
0.89021	420.177
0.92976	427.907
0.93017	427.982
0.97026	427.323
1.00015	430.403
