Adsorption isotherm of Nitrogen on PF-800 KOH
DOI: 10.1021/acs.langmuir.5b02390
Article source: Figure 2- PF 800 KOH
Adsorbate Nitrogen: InChIKey IJGRMHOSHXDMSA-UHFFFAOYSA-N
Kind: experiment
Temperature: 77 K
Tabular data in the source: 0
pressure (bar)	uptake (cm3(STP)/g)
0.00011	136.592
0.00044	150.724
0.00061	176.605
0.00062	166.006
0.00087	14.666
0.00088	14.589
0.0009	51.022
0.00092	35.165
0.00093	25.018
0.00095	65.688
0.00103	115.025
0.00104	90.754
0.00105	96.457
0.00115	186.916
0.00128	75.958
0.00154	86.022
0.0025	199.938
0.00631	222.902
0.00904	234.076
0.01793	249.481
0.04067	263.159
0.04211	259.216
0.07067	270.142
0.09054	274.947
0.0915	278.234
0.11384	279.958
0.13336	286.161
0.13823	283.696
0.16207	287.187
0.17968	291.581
0.18482	289.938
0.20497	292.361
0.22038	295.482
0.22683	294.003
0.23313	296.386
0.24814	296.508
0.26904	297.411
0.27815	299.629
0.31214	300.408
0.34976	303.94
0.35613	302.789
0.39972	304.348
0.40506	308.169
0.44459	306.096
0.44481	306.113
0.48886	307.963
0.48887	307.96
0.53355	317.332
0.53382	317.324
0.577	319.064
0.57815	319.582
0.62283	320.977
0.62291	314.034
0.66732	315.881
0.66758	315.939
0.67793	323.809
0.71083	318.508
0.72316	326.56
0.75564	322.163
0.77146	330.501
0.79861	326.803
0.82135	336.045
0.84205	335.469
0.85986	342
0.87047	345.82
0.9096	350.255
0.91954	348.078
0.95962	355.265
0.99964	358.057
