Adsorption isotherm of Nitrogen on Py-MV-DBA-COF
DOI: 10.1021/jacs.6b06546
Article source: Figure 2
Adsorbate Nitrogen: InChIKey IJGRMHOSHXDMSA-UHFFFAOYSA-N
Kind: experiment
Temperature: 77 K
Tabular data in the source: 0
pressure (bar)	uptake (cm3(STP)/g)
0.006819	23.7752
0.008644	85.3187
0.008691	107.696
0.035956	180.499
0.073286	205.777
0.11061	228.258
0.137768	250.71
0.1802	284.394
0.227696	309.7
0.261608	320.982
0.307434	357.472
0.332886	374.326
0.346495	399.538
0.36351	433.151
0.387421	522.728
0.428217	584.379
0.494305	587.359
0.551915	587.518
0.616308	590.493
0.675642	604.643
0.731546	599.202
0.78069	602.135
0.843389	605.106
0.904393	608.071
0.967104	616.636
0.014483	152.222
0.070651	210.515
0.101149	230.979
0.153026	260.261
0.196091	289.493
0.228044	298.372
0.289117	342.199
0.332412	380.128
0.374787	516.602
0.419001	589.319
0.48084	595.47
0.554786	592.995
0.618387	599.156
0.660839	605.195
0.727811	605.579
0.768271	602.912
0.833634	609.083
0.883366	623.86
0.971564	627.263
