Adsorption isotherm of Nitrogen on Py-DBA-COF 2
DOI: 10.1021/jacs.6b06546
Article source: Figure 2
Adsorbate Nitrogen: InChIKey IJGRMHOSHXDMSA-UHFFFAOYSA-N
Kind: experiment
Temperature: 77 K
Tabular data in the source: 0
pressure (bar)	uptake (cm3(STP)/g)
0.013721	82.5355
0.015522	132.89
0.027466	172.084
0.037686	197.287
0.052977	216.91
0.073387	253.33
0.092055	267.367
0.127685	289.843
0.16162	312.314
0.207435	343.21
0.248177	379.686
0.288891	402.176
0.310953	419.02
0.339824	449.869
0.380584	494.737
0.431932	738.235
0.520094	763.654
0.557383	769.351
0.587888	772.232
0.616729	789.095
0.655694	786.406
0.684511	792.08
0.718411	797.768
0.757383	797.875
0.789594	806.356
0.82856	803.666
0.865837	803.769
0.903143	817.858
0.942103	812.371
0.982798	826.469
1.00998	860.111
0.016935	178.323
0.053486	227.808
0.087892	262.787
0.132566	286.231
0.161838	326.978
0.192183	341.645
0.228198	370.836
0.258849	397.098
0.294481	411.795
0.32881	443.876
0.420993	731.359
0.441147	760.46
0.496319	781.066
0.521299	792.803
0.556548	793.005
0.584977	801.863
0.616701	802.044
0.65716	799.377
0.692562	805.377
0.726279	814.266
0.740378	814.346
0.78237	802.992
0.819918	823.497
0.863826	817.951
0.899381	829.749
0.941756	832.89
0.971871	838.859
1.00934	856.465
