Adsorption isotherm of Nitrogen on Py-DBA-COF 1
DOI: 10.1021/jacs.6b06546
Article source: Figure 2
Adsorbate Nitrogen: InChIKey IJGRMHOSHXDMSA-UHFFFAOYSA-N
Kind: experiment
Temperature: 77 K
Tabular data in the source: 0
pressure (bar)	uptake (cm3(STP)/g)
0.011973	57.3559
0.051312	230.891
0.081888	267.339
0.122649	312.207
0.158261	326.291
0.195597	354.366
0.210871	365.597
0.255008	404.88
0.294045	435.757
0.328164	544.942
0.380874	631.801
0.401237	645.843
0.426653	645.913
0.445286	643.167
0.502896	643.326
0.465613	640.426
0.535089	643.415
0.567301	651.896
0.60459	657.593
0.630012	660.461
0.677449	657.794
0.702871	660.662
0.736759	660.755
0.780802	655.282
0.809631	666.551
0.85538	666.677
0.892663	669.577
0.977401	678.203
0.943501	672.515
1.00621	681.08
0.08636	271.474
0.119003	306.443
0.155325	347.231
0.198313	373.564
0.217853	379.473
0.255784	414.472
0.29701	440.795
0.342067	612.067
0.36222	641.168
0.406281	641.42
0.434557	644.481
0.480457	647.642
0.522755	647.884
0.547583	653.823
0.581069	654.014
0.614709	660.004
0.64513	677.569
0.685513	672.003
0.731719	686.76
0.787888	678.386
0.828577	684.416
0.858615	687.486
0.883289	687.628
0.918231	676.233
0.952024	688.021
1.00712	705.727
