Adsorption isotherm of Carbon Dioxide on ZIF-7
DOI: 10.1016/j.micromeso.2014.02.016
Adsorbate Carbon Dioxide: InChIKey CURLTUGMZLYLDI-UHFFFAOYSA-N
Temperature: 348 K
Tabular data in the source: 0
pressure (bar)	uptake (mmol/g)
0.203793	0.0930233
0.266735	0.0930233
0.342918	0.116279
0.395877	0.139535
0.465254	0.139535
0.518167	0.162791
0.587571	0.209302
0.642762	0.232558
0.715814	0.232558
0.811708	0.27907
0.872168	0.302326
0.971404	0.348837
1.06265	0.372093
1.16252	0.418605
1.29482	0.465116
1.66495	0.55814
2.0288	0.674419
2.10305	0.697674
2.22004	0.813953
2.38737	1.16279
2.56726	1.51163
2.66348	1.86047
2.81242	2.09302
2.91622	2.23256
3.07858	2.37209
3.19183	2.46512
3.3686	2.48837
3.68562	2.5814
3.96004	2.60465
4.33281	2.69767
4.65661	2.81395
5.00311	2.81395
5.28032	2.86047
5.57237	2.86047
5.77697	2.93023
6.20869	3.04651
6.5533	3.11628
7.17051	3.23256
7.70673	3.37209
8.5842	3.44186
8.90061	3.55814
9.39507	3.65116
9.74406	3.88372
9.7499	4.11628
9.91813	3.7907
