Adsorption isotherm of Methane on ZIF-7
DOI: 10.1016/j.micromeso.2014.02.016
Adsorbate Methane: InChIKey VNWKTOKETHGBQD-UHFFFAOYSA-N
Temperature: 323 K
Tabular data in the source: 0
pressure (bar)	uptake (mmol/g)
0.0155039	0.0043956
0.0465116	0.0043956
0.117829	0.00586081
0.164341	0.00586081
0.20155	0.0102564
0.23876	0.0102564
0.288372	0.0117216
0.303876	0.0117216
0.334884	0.0102564
0.390698	0.0102564
0.406202	0.0102564
0.437209	0.0117216
0.468217	0.014652
0.502326	0.014652
0.55814	0.014652
0.570543	0.014652
0.604651	0.0161172
0.635659	0.014652
0.688372	0.0131868
0.71938	0.014652
0.772093	0.0161172
0.824806	0.0161172
0.855814	0.014652
0.886822	0.0161172
0.905426	0.0175824
0.936434	0.0161172
0.995349	0.014652
1.03876	0.0131868
1.08837	0.0131868
