Adsorption isotherm of Carbon Dioxide on ZIF-7
DOI: 10.1016/j.micromeso.2014.02.016
Adsorbate Carbon Dioxide: InChIKey CURLTUGMZLYLDI-UHFFFAOYSA-N
Temperature: 273 K
Tabular data in the source: 0
pressure (bar)	uptake (mmol/g)
0.043299	0.156704
0.0525773	0.195868
0.0649485	0.235057
0.102062	0.303763
0.136082	0.411532
0.16701	0.548591
0.204124	1.31111
0.24433	1.99547
0.269072	2.14226
0.349485	2.30903
0.417526	2.38776
0.485567	2.45672
0.531959	2.49619
0.596907	2.53581
0.664948	2.58522
0.729897	2.61506
0.801031	2.65473
0.865979	2.68458
0.934021	2.71445
1.01443	2.75419
1.06701	2.78393
