Adsorption isotherm of Carbon Dioxide on ZIF-7
DOI: 10.1016/j.micromeso.2014.02.016
Adsorbate Carbon Dioxide: InChIKey CURLTUGMZLYLDI-UHFFFAOYSA-N
Temperature: 298 K
Tabular data in the source: 0
pressure (bar)	uptake (mmol/g)
0.134896	0.116279
0.200207	0.162791
0.266815	0.209302
0.336946	0.255814
0.403209	0.302326
0.465554	0.395349
0.52808	0.55814
0.610675	1.25581
0.680863	1.69767
0.731914	1.90698
0.786702	2.06977
0.845493	2.18605
0.924954	2.23256
0.993963	2.30233
1.08745	2.37209
1.14765	2.39535
1.21127	2.44186
1.27832	2.46512
1.3735	2.48837
1.67371	2.60465
2.03925	2.67442
2.35472	2.7907
2.67012	2.83721
3.02838	2.95349
3.37318	3.02326
3.75751	3.11628
4.03803	3.2093
4.41835	3.32558
4.66434	3.46512
5.01291	3.5814
5.58637	3.83721
6.00385	3.95349
6.22501	4.06977
7.0635	4.37209
7.3247	4.53488
7.7325	4.67442
8.01789	4.81395
8.62125	5.11628
9.1029	5.32558
9.4393	5.48837
9.78836	5.65116
9.79287	5.83721
9.79761	6.02326
