Adsorption isotherm of Carbon Dioxide on ZIF-7
DOI: 10.1016/j.micromeso.2014.02.016
Adsorbate Carbon Dioxide: InChIKey CURLTUGMZLYLDI-UHFFFAOYSA-N
Temperature: 323 K
Tabular data in the source: 0
pressure (bar)	uptake (mmol/g)
0.0309278	0.0197958
0.0587629	0.0395665
0.102062	0.0399191
0.13299	0.0499429
0.16701	0.0795359
0.201031	0.0895849
0.231959	0.109381
0.265979	0.109658
0.334021	0.139528
0.398969	0.169373
0.46701	0.189471
0.531959	0.199772
0.6	0.229642
0.668041	0.24974
0.73299	0.269813
0.801031	0.299683
0.865979	0.329528
0.930928	0.359372
1.01134	0.418659
1.06701	0.467972
