Adsorption isotherm of Methane on ZIF-7
DOI: 10.1016/j.micromeso.2014.02.016
Adsorbate Methane: InChIKey VNWKTOKETHGBQD-UHFFFAOYSA-N
Temperature: 273 K
Tabular data in the source: 0
pressure (bar)	uptake (mmol/g)
0.0248062	0.0161172
0.0372093	0.0190476
0.0527132	0.0205128
0.0651163	0.0278388
0.0992248	0.0410256
0.136434	0.0498168
0.167442	0.0630037
0.20155	0.0761905
0.235659	0.0893773
0.266667	0.101099
0.300775	0.111355
0.334884	0.124542
0.368992	0.134799
0.4	0.14652
0.431008	0.156777
0.471318	0.167033
0.502326	0.18022
0.533333	0.189011
0.570543	0.197802
0.60155	0.208059
0.63876	0.218315
0.669767	0.228571
0.700775	0.238828
0.734884	0.246154
0.768992	0.254945
0.803101	0.263736
0.837209	0.273993
0.868217	0.282784
0.902326	0.294505
0.936434	0.301832
0.976744	0.310623
1.01705	0.320879
1.06977	0.332601
