Adsorption isotherm of Carbon Dioxide on ZIF-7
DOI: 10.1016/j.micromeso.2014.02.016
Adsorbate Carbon Dioxide: InChIKey CURLTUGMZLYLDI-UHFFFAOYSA-N
Temperature: 323 K
Tabular data in the source: 0
pressure (bar)	uptake (mmol/g)
0.72882	0.255814
0.797278	0.27907
0.856702	0.325581
0.954179	0.372093
1.08201	0.418605
1.14198	0.465116
1.184	0.55814
1.2502	0.790698
1.34419	1.06977
1.47238	1.60465
1.61202	1.95349
1.73281	2.13953
1.89588	2.23256
2.61999	2.44186
3.02531	2.55814
3.36954	2.60465
3.62118	2.69767
4.03367	2.7907
4.33491	2.88372
4.65876	3
4.91756	3.09302
5.28421	3.13953
5.67937	3.27907
5.88789	3.34884
6.32747	3.44186
6.67867	3.51163
6.92516	3.65116
7.44166	3.72093
8.14498	3.95349
8.14854	4.11628
8.91641	4.25581
9.41174	4.34884
9.75911	4.48837
9.7627	4.62791
10.1242	4.81395
