Adsorption isotherm of Carbon Dioxide on ZIF-7
DOI: 10.1016/j.micromeso.2014.02.016
Adsorbate Carbon Dioxide: InChIKey CURLTUGMZLYLDI-UHFFFAOYSA-N
Temperature: 298 K
Tabular data in the source: 0
pressure (bar)	uptake (mmol/g)
0.0494845	0.0785789
0.102062	0.127867
0.13299	0.167207
0.170103	0.187053
0.197938	0.206824
0.231959	0.236417
0.269072	0.275807
0.334021	0.315424
0.402062	0.384382
0.463918	0.482605
0.525773	0.776269
0.596907	1.41203
0.67732	1.9306
0.73299	2.05809
0.816495	2.16626
0.884536	2.23522
0.930928	2.27468
1.01443	2.31445
1.06701	2.34419
