Adsorption isotherm of Carbon Dioxide on ZIF-7
DOI: 10.1016/j.micromeso.2014.02.016
Adsorbate Carbon Dioxide: InChIKey CURLTUGMZLYLDI-UHFFFAOYSA-N
Temperature: 273 K
Tabular data in the source: 0
pressure (bar)	uptake (mmol/g)
0.0377358	0.116279
0.0682216	0.139535
0.130197	0.27907
0.164445	0.395349
0.183278	0.697674
0.197165	1.18605
0.223898	1.7907
0.236363	1.93023
0.263336	2.09302
0.338673	2.25581
0.405331	2.34884
0.485043	2.39535
0.521171	2.4186
0.601714	2.48837
0.646562	2.53488
0.720095	2.55814
0.787789	2.60465
0.877425	2.65116
0.959843	2.67442
1.05005	2.72093
1.14868	2.74419
1.25672	2.81395
1.35045	2.88372
1.96911	3.02326
2.31489	3.13953
2.67288	3.23256
3.37684	3.44186
3.62894	3.53488
3.97118	3.69767
4.345	3.7907
4.66993	3.93023
5.01892	4.04651
5.39424	4.18605
5.69456	4.32558
6.01201	4.48837
6.34761	4.67442
6.70178	4.86047
7.07669	5.09302
7.47068	5.23256
7.74676	5.39535
8.03415	5.60465
8.33221	5.81395
8.7967	5.97674
9.12284	6.18605
9.46063	6.37209
9.81115	6.55814
9.81522	6.72093
10	7
