Adsorption isotherm of Methane on ZIF-7
DOI: 10.1016/j.micromeso.2014.02.016
Adsorbate Methane: InChIKey VNWKTOKETHGBQD-UHFFFAOYSA-N
Temperature: 298 K
Tabular data in the source: 0
pressure (bar)	uptake (mmol/g)
0.00930233	0.00879121
0.027907	0.0102564
0.0434109	0.0117216
0.0465116	0.0117216
0.0682171	0.0161172
0.102326	0.0117216
0.155039	0.0322344
0.170543	0.03663
0.217054	0.0395604
0.257364	0.0483516
0.269767	0.0483516
0.322481	0.0527473
0.337984	0.0571429
0.365891	0.0630037
0.403101	0.0659341
0.458915	0.0732601
0.471318	0.0761905
0.52093	0.0835165
0.533333	0.0864469
0.567442	0.0879121
0.63876	0.0952381
0.672868	0.0996337
0.722481	0.102564
0.772093	0.10696
0.806202	0.108425
0.868217	0.114286
0.905426	0.118681
0.936434	0.115751
0.99845	0.120147
1.01395	0.124542
1.07287	0.126007
