Adsorption isotherm of Carbon Dioxide on ZIF-7
DOI: 10.1016/j.micromeso.2014.02.016
Adsorbate Carbon Dioxide: InChIKey CURLTUGMZLYLDI-UHFFFAOYSA-N
Temperature: 373 K
Tabular data in the source: 0
pressure (bar)	uptake (mmol/g)
0.0180788	0.0232558
0.0391052	0.0232558
0.0787281	0.0232558
0.134865	0.0232558
0.20377	0.0465116
0.266704	0.0465116
0.342863	0.0465116
0.402967	0.0697674
0.473587	0.0697674
0.508827	0.0697674
0.587395	0.0930233
0.666055	0.116279
0.755231	0.139535
0.826114	0.139535
0.903649	0.139535
1.00647	0.186047
1.10101	0.209302
1.2485	0.255814
1.36584	0.302326
1.66395	0.325581
1.99109	0.348837
2.38254	0.372093
2.65381	0.44186
2.95543	0.44186
3.29329	0.674419
3.4752	0.651163
3.60288	0.72093
3.80391	0.906977
3.94403	1.02326
4.01671	1.13953
4.16668	1.44186
4.32066	1.60465
4.40149	1.83721
4.56478	2.04651
4.735	2.32558
4.99597	2.25581
5.27351	2.34884
5.66722	2.44186
6.0885	2.4186
6.42717	2.53488
6.78297	2.55814
7.28769	2.55814
7.83267	2.69767
8.72348	2.72093
8.7267	2.86047
9.5519	3.11628
9.7277	3.23256
10.2726	3.48837
