Adsorption isotherm of Phosphate Ion on ferrihydrite (9.5 pH)
DOI: 10.2136/sssaj2016.10.0342
Article source: Figure 1a
Adsorbate Phosphate Ion: InChIKey NBIIXXVUZAFLBC-UHFFFAOYSA-K
Kind: experiment
Temperature: 298 K
Tabular data in the source: 0
pressure (bar)	uptake (mmol/kg)
1.01325	367.84
1.01325	864.48
1.01325	719.69
1.01325	952.65
