Adsorption isotherm of Phosphate Ion on ferrihydrite (8 pH)
DOI: 10.2136/sssaj2016.10.0342
Article source: Figure 1a
Adsorbate Phosphate Ion: InChIKey NBIIXXVUZAFLBC-UHFFFAOYSA-K
Kind: experiment
Temperature: 298 K
Tabular data in the source: 0
pressure (bar)	uptake (mmol/kg)
1.01325	494.02
1.01325	1252.74
1.01325	1124.94
1.01325	1191.26
1.01325	1406.42
1.01325	1563.34
