Adsorption isotherm of Phosphate Ion on ferrihydrite-calcite mixture (9.5 pH)
DOI: 10.2136/sssaj2016.10.0342
Article source: Figure 4a
Adsorbate Phosphate Ion: InChIKey NBIIXXVUZAFLBC-UHFFFAOYSA-K
Kind: experiment
Temperature: 298 K
Tabular data in the source: 0
pressure (bar)	uptake (mmol/kg)
1.01325	314.8
1.01325	422.78
1.01325	567.04
1.01325	655.28
1.01325	694.11
1.01325	748.58
1.01325	871.02
