Adsorption isotherm of Phosphate Ion on ferrihydrite-calcite mixture (8 pH)
DOI: 10.2136/sssaj2016.10.0342
Article source: Figure 4a
Adsorbate Phosphate Ion: InChIKey NBIIXXVUZAFLBC-UHFFFAOYSA-K
Kind: experiment
Temperature: 298 K
Tabular data in the source: 0
pressure (bar)	uptake (mmol/kg)
1.01325	280.39
1.01325	680.4
1.01325	836.44
1.01325	904.9
1.01325	963.78
1.01325	1133.05
1.01325	1238.13
