Adsorption isotherm of Phosphate Ion on Calcite (8pH)
DOI: 10.2136/sssaj2016.10.0342
Article source: Figure 1b
Adsorbate Phosphate Ion: InChIKey NBIIXXVUZAFLBC-UHFFFAOYSA-K
Kind: experiment
Temperature: 298 K
Tabular data in the source: 0
pressure (bar)	uptake (mmol/kg)
1.01325	187.51
1.01325	435.69
1.01325	650.54
1.01325	842.19
1.01325	940.31
1.01325	1074.67
1.01325	1165.07
