Adsorption isotherm of Phosphate Ion on Calcite (9.5pH)
DOI: 10.2136/sssaj2016.10.0342
Article source: Figure 1b
Adsorbate Phosphate Ion: InChIKey NBIIXXVUZAFLBC-UHFFFAOYSA-K
Kind: experiment
Temperature: 298 K
Tabular data in the source: 0
pressure (bar)	uptake (mmol/kg)
1.01325	247.67
1.01325	457.79
1.01325	664.36
1.01325	781.81
1.01325	858.19
1.01325	882.76
1.01325	1183.57
1.01325	1391.7
