Adsorption isotherm of Nitrogen on Pd@ZIF-8
DOI: 10.1016/s1872-2067(14)60292-8
Article source: Figure  2
Adsorbate Nitrogen: InChIKey IJGRMHOSHXDMSA-UHFFFAOYSA-N
Kind: experiment
Temperature: 77 K
Tabular data in the source: 0
pressure (bar)	uptake (ml/g)
0.002016	118.95
0.002087	45.36
0.00228	60.52
0.00456	160.38
0.004641	162.45
0.005786	151.42
0.009585	192.1
0.010426	217.63
0.013841	255.78
0.014044	255.8
0.05504	263.17
0.103949	264.68
0.153761	265.26
0.203572	267.19
0.255734	268.53
0.304097	269.45
0.355712	270.28
0.408228	271.12
0.456773	271.96
0.50929	272.63
0.559831	274.55
0.610179	274.8
0.661247	275.98
0.710876	276.56
0.76087	277.73
0.813204	278.66
0.862296	280.41
0.913546	281
0.962456	282.67
1.0087	292.8
