Adsorption isotherm of Nitrogen on ZIF-8
DOI: 10.1016/s1872-2067(14)60292-8
Article source: Figure  2
Adsorbate Nitrogen: InChIKey IJGRMHOSHXDMSA-UHFFFAOYSA-N
Kind: experiment
Temperature: 77 K
Tabular data in the source: 0
pressure (bar)	uptake (ml/g)
0.003182	22.68
0.003384	59.59
0.00386	127.32
0.006566	164.23
0.007123	169.55
0.007143	169.76
0.008532	197.41
0.008532	197.38
0.010193	255.82
0.014307	272.96
0.055496	282.76
0.105307	284.51
0.155838	285.44
0.203663	286.44
0.257264	287.86
0.306903	289.03
0.355266	290.12
0.408147	291.04
0.456155	292.22
0.510111	292.38
0.559922	293.97
0.609906	293.47
0.661703	295.06
0.713135	296.82
0.76168	296.9
0.813305	299.25
0.865457	299.25
0.913465	301.17
0.962375	301.93
1.00807	311.8
