Adsorption isotherm of Hydrogen on Cu4Cl3(btt)8
DOI: 10.1021/Jp1058963
Adsorbate Hydrogen: InChIKey UFHFLCQGNIYNRP-UHFFFAOYSA-N
Temperature: 87 K
Tabular data in the source: 0
pressure (bar)	uptake (wt%)
0	0
0.0127743	0.37931
0.0667189	0.643678
0.188767	0.942529
0.329206	1.14943
0.537722	1.4023
0.719201	1.55172
0.859848	1.66667
0.991484	1.74713
