Adsorption isotherm of Hydrogen on CuBTC
DOI: 10.1021/Jp1058963
Adsorbate Hydrogen: InChIKey UFHFLCQGNIYNRP-UHFFFAOYSA-N
Temperature: 77 K
Tabular data in the source: 0
pressure (bar)	uptake (wt%)
0.0136524	0.341026
0.0278063	0.717949
0.0459031	1.05897
0.0822792	1.4359
0.149014	1.75897
0.219442	2.02821
0.334815	2.33333
0.480798	2.60256
0.599111	2.8
0.734701	2.96154
0.8609	3.08718
0.982154	3.17692
1.08119	3.26667
