Adsorption isotherm of Hydrogen on CuBTC
DOI: 10.1021/Jp1058963
Adsorbate Hydrogen: InChIKey UFHFLCQGNIYNRP-UHFFFAOYSA-N
Temperature: 298 K
Tabular data in the source: 0
pressure (bar)	uptake (wt%)
1.81292	0.0529412
7.28062	0.220588
12.8351	0.414706
21.7261	0.626471
31.3211	0.802941
43.8428	0.997059
56.2488	1.15588
68.568	1.28824
80.4484	1.41176
93.1196	1.52647
104.913	1.62353
