Adsorption isotherm of Hydrogen on CuBTC
DOI: 10.1021/Jp1058963
Adsorbate Hydrogen: InChIKey UFHFLCQGNIYNRP-UHFFFAOYSA-N
Temperature: 77 K
Tabular data in the source: 0
pressure (bar)	uptake (wt%)
2.43675	3.31658
4.69286	3.8593
8.4695	4.31156
14.5633	4.73367
23.988	5.06533
31.5296	5.18593
37.2505	5.27638
43.7472	5.36683
49.4576	5.42714
55.9439	5.48744
61.913	5.54774
