Adsorption isotherm of Hydrogen on PCN-12
DOI: 10.1021/Jp1058963
Adsorbate Hydrogen: InChIKey UFHFLCQGNIYNRP-UHFFFAOYSA-N
Temperature: 77 K
Tabular data in the source: 0
pressure (bar)	uptake (wt%)
0.0116817	0.19622
0.0469316	0.481305
0.104247	0.748138
0.178914	0.978948
0.261756	1.15604
0.353524	1.33297
0.440077	1.45643
0.576477	1.63256
0.698987	1.77323
0.825458	1.87812
0.983423	2.0003
1.07369	2.07011
