Adsorption isotherm of Hydrogen on Cu4Cl3(btt)8
DOI: 10.1021/Jp1058963
Adsorbate Hydrogen: InChIKey UFHFLCQGNIYNRP-UHFFFAOYSA-N
Temperature: 77 K
Tabular data in the source: 0
pressure (bar)	uptake (wt%)
-2.84e-14	-1.78e-15
1.32743	2.69072
3.9823	3.49485
8.23009	4.05155
13.5398	4.3299
19.3805	4.48454
26.8142	4.57732
35.5752	4.51546
44.6018	4.45361
53.0973	4.39175
60	4.3299
