Adsorption isotherm of Hydrogen on CuBTC
DOI: 10.1021/Jp1058963
Adsorbate Hydrogen: InChIKey UFHFLCQGNIYNRP-UHFFFAOYSA-N
Temperature: 87 K
Tabular data in the source: 0
pressure (bar)	uptake (wt%)
0.87931	1.2
1.51422	1.59
2.73879	2.22
4.21293	2.82
7.67457	3.15
11.3767	3.42
15.3103	3.6
20.0198	3.78
24.1487	3.75
30.6142	3.75
36.5625	3.75
43.831	3.84
49.4935	3.75
