Adsorption isotherm of Hydrogen on CuBTC
DOI: 10.1021/Jp1058963
Adsorbate Hydrogen: InChIKey UFHFLCQGNIYNRP-UHFFFAOYSA-N
Temperature: 87 K
Tabular data in the source: 0
pressure (bar)	uptake (wt%)
0.834052	1.05
2.27198	1.53
3.66466	1.86
5.33405	2.25
8.85	2.76
12.8108	3.03
17.2707	3.24
24.8341	3.45
30.2922	3.54
39.344	3.54
47.8784	3.54
55.3694	3.51
60.8004	3.51
