Adsorption isotherm of Hydrogen on Cu4Cl3(btt)8
DOI: 10.1021/Jp1058963
Adsorbate Hydrogen: InChIKey UFHFLCQGNIYNRP-UHFFFAOYSA-N
Temperature: 77 K
Tabular data in the source: 0
pressure (bar)	uptake (wt%)
0	4.44e-16
0.0137615	0.526596
0.0366972	0.957447
0.0963303	1.2766
0.211009	1.65957
0.334862	1.88298
0.481651	2.07447
0.655963	2.26596
0.825688	2.44149
1.05046	2.58511
