Adsorption isotherm of Hydrogen on PCN-12
DOI: 10.1021/Jp1058963
Adsorbate Hydrogen: InChIKey UFHFLCQGNIYNRP-UHFFFAOYSA-N
Temperature: 77 K
Tabular data in the source: 0
pressure (bar)	uptake (wt%)
0.0124331	0.249778
0.021906	0.606752
0.0641239	1.07028
0.10559	1.48026
0.16812	1.80057
0.257179	2.10255
0.354412	2.35081
0.50049	2.58035
0.650279	2.75625
0.799567	2.89644
0.952818	3.00084
1.08771	3.06986
