Adsorption isotherm of Hydrogen on Cu4Cl3(btt)8
DOI: 10.1021/Jp1058963
Adsorbate Hydrogen: InChIKey UFHFLCQGNIYNRP-UHFFFAOYSA-N
Temperature: 77 K
Tabular data in the source: 0
pressure (bar)	uptake (wt%)
-2.84e-14	-1.78e-15
0.79646	2.65979
2.92035	3.43299
7.43363	4.1134
12.7434	4.45361
19.115	4.60825
26.8142	4.6701
35.5752	4.6701
44.6018	4.57732
53.0973	4.48454
59.7345	4.42268
