Adsorption isotherm of Hydrogen on CuBTC
DOI: 10.1021/Jp1058963
Adsorbate Hydrogen: InChIKey UFHFLCQGNIYNRP-UHFFFAOYSA-N
Temperature: 87 K
Tabular data in the source: 0
pressure (bar)	uptake (wt%)
0.0106529	0.108247
0.053677	0.293814
0.114731	0.494845
0.185178	0.726804
0.244971	0.850515
0.31441	1.02062
0.410767	1.20619
0.506369	1.34536
0.628637	1.48454
0.737572	1.62371
0.868729	1.76289
0.96827	1.87113
1.06731	1.94845
