Adsorption isotherm of Hydrogen on Cu4Cl3(btt)8
DOI: 10.1021/Jp1058963
Adsorbate Hydrogen: InChIKey UFHFLCQGNIYNRP-UHFFFAOYSA-N
Temperature: 87 K
Tabular data in the source: 0
pressure (bar)	uptake (wt%)
0	0
0.0497126	0.126437
0.14023	0.298851
0.249007	0.436782
0.385005	0.597701
0.512017	0.712644
0.666275	0.83908
0.806975	0.931034
0.95222	1.02299
1.03848	1.06897
