Adsorption isotherm of Hydrogen on CuBTC
DOI: 10.1021/Jp1058963
Adsorbate Hydrogen: InChIKey UFHFLCQGNIYNRP-UHFFFAOYSA-N
Temperature: 200 K
Tabular data in the source: 0
pressure (bar)	uptake (wt%)
-0.269195	0.0857912
9.62079	0.36868
20.7631	0.665496
30.9223	0.862594
42.3572	1.0879
54.5646	1.28441
65.0632	1.43855
78.0431	1.60627
90.5431	1.73127
100.971	1.84258
