Adsorption isotherm of Hydrogen on Cu4Cl3(btt)8
DOI: 10.1021/Jp1058963
Adsorbate Hydrogen: InChIKey UFHFLCQGNIYNRP-UHFFFAOYSA-N
Temperature: 77 K
Tabular data in the source: 0
pressure (bar)	uptake (wt%)
-2.84e-14	-1.78e-15
0.530973	2.35052
1.06195	3
2.12389	3.7732
6.10619	4.51546
14.6018	5.01031
24.4248	5.28866
34.5133	5.47423
41.9469	5.53608
49.115	5.62887
60	5.75258
