Adsorption isotherm of Hydrogen on PCN-12
DOI: 10.1021/Jp1058963
Adsorbate Hydrogen: InChIKey UFHFLCQGNIYNRP-UHFFFAOYSA-N
Temperature: 77 K
Tabular data in the source: 0
pressure (bar)	uptake (wt%)
0.27931	0.07
1.74828	2.415
7.04483	3.71
13.2	4.41
18.9931	4.76
25.5414	5.04
33.631	5.285
42.2276	5.495
48.9724	5.565
55.7276	5.67
61.6966	5.74
