Adsorption isotherm of Hydrogen on CuBTC
DOI: 10.1021/Jp1058963
Adsorbate Hydrogen: InChIKey UFHFLCQGNIYNRP-UHFFFAOYSA-N
Temperature: 87 K
Tabular data in the source: 0
pressure (bar)	uptake (wt%)
0.0106529	0.108247
0.0374112	0.386598
0.0646735	0.695876
0.123047	1.00515
0.185109	1.26804
0.282726	1.53093
0.402314	1.77835
0.511753	1.94845
0.634525	2.11856
0.76543	2.24227
0.896586	2.38144
1.00032	2.47423
1.08133	2.53608
