Adsorption isotherm of Hydrogen on CuBTC
DOI: 10.1021/Jp1058963
Adsorbate Hydrogen: InChIKey UFHFLCQGNIYNRP-UHFFFAOYSA-N
Temperature: 87 K
Tabular data in the source: 0
pressure (bar)	uptake (wt%)
0.584483	1.08
4.83491	2.31
7.82457	2.79
11.5448	3.12
15.256	3.42
20.0017	3.72
26.0043	3.9
31.231	4.08
36.181	4.2
43.7172	4.32
50.2099	4.41
55.9267	4.5
60.3414	4.56
