Adsorption isotherm of Hydrogen on CuBTC
DOI: 10.1021/Jp1058963
Adsorbate Hydrogen: InChIKey UFHFLCQGNIYNRP-UHFFFAOYSA-N
Temperature: 200 K
Tabular data in the source: 0
pressure (bar)	uptake (wt%)
-0.271573	0.0843406
3.16325	0.179582
6.16585	0.261169
14.6955	0.464275
29.0009	0.69056
55.2899	0.976859
62.7257	1.01266
