Adsorption isotherm of Hydrogen on CuBTC
DOI: 10.1021/Jp1058963
Adsorbate Hydrogen: InChIKey UFHFLCQGNIYNRP-UHFFFAOYSA-N
Temperature: 200 K
Tabular data in the source: 0
pressure (bar)	uptake (wt%)
-0.269195	0.0857912
3.24204	0.727645
10.8614	1.12547
20.728	1.39408
34.1877	1.60452
49.2158	1.77165
62.8979	1.86774
78.6049	1.94897
92.5796	1.97355
102.434	1.98502
