Adsorption isotherm of Hydrogen on CuBTC
DOI: 10.1021/Jp1058963
Adsorbate Hydrogen: InChIKey UFHFLCQGNIYNRP-UHFFFAOYSA-N
Temperature: 87 K
Tabular data in the source: 0
pressure (bar)	uptake (wt%)
0.584483	1.08
1.82198	2.61
4.13534	3.42
7.125	3.9
10.5957	4.26
16.1172	4.56
23.431	4.8
30.4681	4.98
36.4435	5.07
43.7211	5.19
50.9897	5.28
57.9996	5.37
62.4142	5.43
