Adsorption isotherm of Hydrogen on CuBTC
DOI: 10.1021/Jp1058963
Adsorbate Hydrogen: InChIKey UFHFLCQGNIYNRP-UHFFFAOYSA-N
Temperature: 298 K
Tabular data in the source: 0
pressure (bar)	uptake (wt%)
2.51688	0.0176471
8.45709	0.0794118
18.4667	0.132353
29.7927	0.211765
45.2459	0.3
59.3828	0.361765
66.8177	0.379412
