Adsorption isotherm of Hydrogen on CuBTC
DOI: 10.1021/Jp1058963
Adsorbate Hydrogen: InChIKey UFHFLCQGNIYNRP-UHFFFAOYSA-N
Temperature: 77 K
Tabular data in the source: 0
pressure (bar)	uptake (wt%)
2.90071	2.41206
5.43623	3.01508
10.0511	3.64824
14.562	3.9799
21.9282	4.34171
28.7147	4.52261
35.7494	4.67337
42.5152	4.79397
49.0015	4.85427
55.2396	4.94472
62.2431	5.00503
