Adsorption isotherm of Hydrogen on Cu4Cl3(btt)8
DOI: 10.1021/Jp1058963
Adsorbate Hydrogen: InChIKey UFHFLCQGNIYNRP-UHFFFAOYSA-N
Temperature: 77 K
Tabular data in the source: 0
pressure (bar)	uptake (wt%)
0	4.44e-16
0.0137615	0.526596
0.0458716	0.909574
0.123853	1.22872
0.266055	1.57979
0.412844	1.81915
0.600917	2.0266
0.729358	2.1383
0.866972	2.23404
1	2.32979
