Adsorption isotherm of Hydrogen on CuBTC
DOI: 10.1021/Jp1058963
Adsorbate Hydrogen: InChIKey UFHFLCQGNIYNRP-UHFFFAOYSA-N
Temperature: 200 K
Tabular data in the source: 0
pressure (bar)	uptake (wt%)
0.129513	0.0865385
1.9584	0.490385
6.73077	0.951923
14.2092	1.3125
24.0286	1.60096
36.6837	1.875
52.6472	2.17788
70.9517	2.40865
86.3344	2.59615
101.652	2.74038
