Adsorption isotherm of Hydrogen on CuBTC
DOI: 10.1021/Jp1058963
Adsorbate Hydrogen: InChIKey UFHFLCQGNIYNRP-UHFFFAOYSA-N
Temperature: 298 K
Tabular data in the source: 0
pressure (bar)	uptake (wt%)
2.51688	0.0176471
9.8891	0.141176
19.7782	0.282353
28.351	0.397059
37.7146	0.502941
47.4879	0.608824
58.9585	0.732353
71.6297	0.847059
81.784	0.944118
91.9094	1.03235
101.567	1.10294
