Adsorption isotherm of Hydrogen on CuBTC
DOI: 10.1021/Jp1058963
Adsorbate Hydrogen: InChIKey UFHFLCQGNIYNRP-UHFFFAOYSA-N
Temperature: 77 K
Tabular data in the source: 0
pressure (bar)	uptake (wt%)
0.318782	0.203945
1.29019	1.72305
2.7611	2.33338
5.80208	3.02692
7.94821	3.31332
11.3808	3.59596
16.3307	3.78635
21.5027	3.85902
28.4757	3.92641
36.1855	3.87458
43.8952	3.82275
53.1311	3.70791
60.069	3.65833
