Adsorption isotherm of Hydrogen on PCN-12
DOI: 10.1021/Jp1058963
Adsorbate Hydrogen: InChIKey UFHFLCQGNIYNRP-UHFFFAOYSA-N
Temperature: 77 K
Tabular data in the source: 0
pressure (bar)	uptake (wt%)
0.479221	1.435
1.45455	2.8
3.12727	3.92
6.7026	4.515
10.9519	4.795
16.4883	5.04
24.587	5.18
33.6896	5.215
42.226	5.11
49.2156	5.04
55.9455	4.97
61.3883	4.935
