Adsorption isotherm of Hydrogen on Cu4Cl3(btt)8
DOI: 10.1021/Jp1058963
Adsorbate Hydrogen: InChIKey UFHFLCQGNIYNRP-UHFFFAOYSA-N
Temperature: 77 K
Tabular data in the source: 0
pressure (bar)	uptake (wt%)
-2.84e-14	-1.78e-15
1.06195	2.84536
2.38938	3.64948
5.30973	4.17526
11.1504	4.63918
18.0531	4.94845
25.7522	5.10309
34.5133	5.28866
43.8053	5.41237
52.8319	5.50515
60	5.56701
