Adsorption isotherm of Hydrogen on CuBTC
DOI: 10.1021/Jp1058963
Adsorbate Hydrogen: InChIKey UFHFLCQGNIYNRP-UHFFFAOYSA-N
Temperature: 200 K
Tabular data in the source: 0
pressure (bar)	uptake (wt%)
-0.271573	0.0843406
7.46252	0.302134
14.6267	0.422277
23.0646	0.569385
34.7996	0.727739
48.558	0.870372
61.7924	0.943352
77.5054	1.02827
90.6938	1.07325
101.358	1.0783
