Adsorption isotherm of Hydrogen on Cu4Cl3(btt)8
DOI: 10.1021/Jp1058963
Adsorbate Hydrogen: InChIKey UFHFLCQGNIYNRP-UHFFFAOYSA-N
Temperature: 77 K
Tabular data in the source: 0
pressure (bar)	uptake (wt%)
-2.84e-14	-1.78e-15
0.530973	1.63918
2.65487	2.53608
6.90265	3.46392
13.0088	3.95876
19.646	4.29897
26.8142	4.51546
35.5752	4.6701
45.1327	4.82474
53.6283	4.94845
59.469	5.01031
