Adsorption isotherm of Hydrogen on CuBTC
DOI: 10.1021/Jp1058963
Adsorbate Hydrogen: InChIKey UFHFLCQGNIYNRP-UHFFFAOYSA-N
Temperature: 298 K
Tabular data in the source: 0
pressure (bar)	uptake (wt%)
2.51688	0.0176471
11.4417	0.114706
22.3867	0.202941
34.5612	0.291176
45.0675	0.370588
54.2285	0.414706
64.648	0.467647
73.7801	0.502941
83.3221	0.538235
93.2739	0.573529
101.148	0.6
