Adsorption isotherm of Hydrogen on Cu4Cl3(btt)8
DOI: 10.1021/Jp1058963
Adsorbate Hydrogen: InChIKey UFHFLCQGNIYNRP-UHFFFAOYSA-N
Temperature: 77 K
Tabular data in the source: 0
pressure (bar)	uptake (wt%)
0	4.44e-16
0.0688073	0.382979
0.220183	0.734043
0.357798	0.973404
0.495413	1.14894
0.633028	1.30851
0.743119	1.42021
0.848624	1.51596
0.963303	1.57979
1.04128	1.62766
