Adsorption isotherm of Hydrogen on CuBTC
DOI: 10.1021/Jp1058963
Adsorbate Hydrogen: InChIKey UFHFLCQGNIYNRP-UHFFFAOYSA-N
Temperature: 77 K
Tabular data in the source: 0
pressure (bar)	uptake (wt%)
0.318782	0.203945
2.08589	2.65731
2.94559	2.94748
4.62987	3.41084
6.776	3.69724
12.2668	3.97385
16.1524	4.05029
20.7748	4.00749
25.6632	3.99318
31.341	4.0351
36.744	4.01929
44.1525	3.82199
51.605	3.77091
