Adsorption isotherm of Hydrogen on PCN-12
DOI: 10.1021/Jp1058963
Adsorbate Hydrogen: InChIKey UFHFLCQGNIYNRP-UHFFFAOYSA-N
Temperature: 77 K
Tabular data in the source: 0
pressure (bar)	uptake (wt%)
0.0124331	0.249778
0.021906	0.606752
0.0457702	1.0349
0.0832745	1.48066
0.151019	1.85445
0.226938	2.17452
0.342525	2.45817
0.47075	2.68802
0.616077	2.864
0.747763	3.02236
0.901264	3.14462
1.09072	3.28409
