Adsorption isotherm of Hydrogen on Cu4Cl3(btt)8
DOI: 10.1021/Jp1058963
Adsorbate Hydrogen: InChIKey UFHFLCQGNIYNRP-UHFFFAOYSA-N
Temperature: 77 K
Tabular data in the source: 0
pressure (bar)	uptake (wt%)
-2.84e-14	-1.78e-15
0.265487	1.45361
1.85841	2.28866
3.71681	2.81443
6.37168	3.34021
12.7434	3.83505
21.5044	4.1134
35.8407	4.17526
43.5398	4.14433
49.646	4.08247
59.2035	3.95876
