Adsorption isotherm of Hydrogen on PCN-12
DOI: 10.1021/Jp1058963
Adsorbate Hydrogen: InChIKey UFHFLCQGNIYNRP-UHFFFAOYSA-N
Temperature: 77 K
Tabular data in the source: 0
pressure (bar)	uptake (wt%)
0.27931	0.07
0.941379	2.31
2.66897	3.78
6.79655	4.62
11.5966	5.11
18.9621	5.53
27.5793	5.81
35.9172	6.02
45.5276	6.16
53.3172	6.265
61.8724	6.335
