Adsorption isotherm of Hydrogen on CuBTC
DOI: 10.1021/Jp1058963
Adsorbate Hydrogen: InChIKey UFHFLCQGNIYNRP-UHFFFAOYSA-N
Temperature: 200 K
Tabular data in the source: 0
pressure (bar)	uptake (wt%)
-0.269195	0.0857912
9.64419	0.382959
20.8099	0.694054
30.9925	0.905431
42.3572	1.0879
58.2046	1.2548
71.0908	1.3654
81.0159	1.41971
93.0126	1.48771
101.662	1.51381
