Adsorption isotherm of Hydrogen on CuBTC
DOI: 10.1021/Jp1058963
Adsorbate Hydrogen: InChIKey UFHFLCQGNIYNRP-UHFFFAOYSA-N
Temperature: 200 K
Tabular data in the source: 0
pressure (bar)	uptake (wt%)
0.140449	0.0856742
7.1161	0.340824
16.7369	0.709504
24.9181	0.950023
36.8797	1.24661
50.0468	1.52856
63.1203	1.75339
78.6283	1.96325
92.0178	2.13085
102.037	2.24228
