Adsorption isotherm of Hydrogen on CuBTC
DOI: 10.1021/Jp1058963
Adsorbate Hydrogen: InChIKey UFHFLCQGNIYNRP-UHFFFAOYSA-N
Temperature: 87 K
Tabular data in the source: 0
pressure (bar)	uptake (wt%)
0.584483	1.08
3.11509	2.61
5.69612	3.45
10.5142	3.99
14.9832	4.23
20.219	4.44
25.7043	4.62
30.922	4.77
36.3802	4.86
43.6578	4.98
50.6677	5.07
57.6776	5.16
62.3418	5.19
