Adsorption isotherm of Hydrogen on CuBTC
DOI: 10.1021/Jp1058963
Adsorbate Hydrogen: InChIKey UFHFLCQGNIYNRP-UHFFFAOYSA-N
Temperature: 77 K
Tabular data in the source: 0
pressure (bar)	uptake (wt%)
0.0111453	0.161538
0.0331852	0.466667
0.0722507	0.717949
0.130348	1.05897
0.219305	1.38205
0.330986	1.74103
0.418439	1.95641
0.536752	2.15385
0.641481	2.33333
0.741265	2.47692
0.849687	2.60256
0.962553	2.72821
1.07047	2.81795
