Adsorption isotherm of Hydrogen on CuBTC
DOI: 10.1021/Jp1058963
Adsorbate Hydrogen: InChIKey UFHFLCQGNIYNRP-UHFFFAOYSA-N
Temperature: 77 K
Tabular data in the source: 0
pressure (bar)	uptake (wt%)
0.0205356	0.197436
0.0554074	0.466667
0.0971624	0.592308
0.152752	0.753846
0.248091	0.897436
0.334291	1.02308
0.429379	1.14872
0.515077	1.23846
0.59633	1.32821
0.704501	1.4359
0.83045	1.54359
0.947259	1.63333
1.05937	1.70513
