Adsorption isotherm of Hydrogen on Cu4Cl3(btt)8
DOI: 10.1021/Jp1058963
Adsorbate Hydrogen: InChIKey UFHFLCQGNIYNRP-UHFFFAOYSA-N
Temperature: 77 K
Tabular data in the source: 0
pressure (bar)	uptake (wt%)
-2.84e-14	-1.78e-15
1.32743	2.50515
5.30973	3.43299
9.82301	3.86598
16.1947	4.08247
22.0354	4.20619
28.6726	4.17526
36.1062	4.23711
43.8053	4.20619
53.3628	4.20619
61.5929	4.08247
