Adsorption isotherm of Hydrogen on CuBTC
DOI: 10.1021/Jp1058963
Adsorbate Hydrogen: InChIKey UFHFLCQGNIYNRP-UHFFFAOYSA-N
Temperature: 77 K
Tabular data in the source: 0
pressure (bar)	uptake (wt%)
1.00719	2.17085
1.59851	3.13568
3.95859	3.9799
9.06992	4.55276
15.0702	4.70352
21.2979	4.76382
27.7738	4.79397
33.7221	4.79397
41.7081	4.70352
48.6597	4.61307
55.3734	4.58291
61.2905	4.49246
