Adsorption isotherm of Hydrogen on CuBTC
DOI: 10.1021/Jp1058963
Adsorbate Hydrogen: InChIKey UFHFLCQGNIYNRP-UHFFFAOYSA-N
Temperature: 87 K
Tabular data in the source: 0
pressure (bar)	uptake (wt%)
0.584483	1.08
2.57069	2.52
5.38319	3.27
8.88103	3.72
14.1168	3.93
19.0849	4.11
24.7927	4.17
29.7155	4.2
36.4397	4.2
43.1638	4.2
49.6293	4.2
55.5685	4.17
60.9905	4.14
