Adsorption isotherm of Hydrogen on CuBTC
DOI: 10.1021/Jp1058963
Adsorbate Hydrogen: InChIKey UFHFLCQGNIYNRP-UHFFFAOYSA-N
Temperature: 77 K
Tabular data in the source: 0
pressure (bar)	uptake (wt%)
0.0111453	0.161538
0.0292422	0.502564
0.0507806	0.771795
0.113823	1.14872
0.236148	1.63333
0.329299	1.93846
0.425641	2.15385
0.534313	2.29744
0.639043	2.47692
0.742519	2.56667
0.841801	2.67436
0.954416	2.78205
1.05345	2.87179
