Adsorption isotherm of Hydrogen on CuBTC
DOI: 10.1021/Jp1058963
Adsorbate Hydrogen: InChIKey UFHFLCQGNIYNRP-UHFFFAOYSA-N
Temperature: 77 K
Tabular data in the source: 0
pressure (bar)	uptake (wt%)
0.0205356	0.197436
0.0485242	0.610256
0.116764	1.04103
0.155578	1.27436
0.220308	1.45385
0.330986	1.74103
0.431772	1.95641
0.535749	2.08205
0.639977	2.22564
0.73951	2.35128
0.84743	2.44103
0.941766	2.51282
1.04969	2.60256
