Adsorption isotherm of Hydrogen on PCN-12
DOI: 10.1021/Jp1058963
Adsorbate Hydrogen: InChIKey UFHFLCQGNIYNRP-UHFFFAOYSA-N
Temperature: 77 K
Tabular data in the source: 0
pressure (bar)	uptake (wt%)
-0.119481	0.42
1.45455	2.8
3.6	3.78
7.41169	4.305
11.6961	4.69
17.7286	4.865
26.6182	5.04
32.8519	5.04
41.1403	4.97
48.9091	4.9
55.639	4.83
61.3299	4.76
