Adsorption isotherm of Hydrogen on Cu4Cl3(btt)8
DOI: 10.1021/Jp1058963
Adsorbate Hydrogen: InChIKey UFHFLCQGNIYNRP-UHFFFAOYSA-N
Temperature: 77 K
Tabular data in the source: 0
pressure (bar)	uptake (wt%)
0	4.44e-16
0.0321101	0.478723
0.12844	0.957447
0.215596	1.2766
0.33945	1.57979
0.463303	1.77128
0.577982	1.93085
0.729358	2.10638
0.866972	2.21809
1.05046	2.39362
