Adsorption isotherm of Hydrogen on CuBTC
DOI: 10.1021/Jp1058963
Adsorbate Hydrogen: InChIKey UFHFLCQGNIYNRP-UHFFFAOYSA-N
Temperature: 87 K
Tabular data in the source: 0
pressure (bar)	uptake (wt%)
0.584483	1.08
1.56336	2.61
3.87672	3.42
8.43621	3.96
14.4659	4.23
19.1483	4.32
25.8996	4.41
29.7789	4.41
36.7707	4.44
43.2362	4.44
50.2099	4.41
55.6319	4.38
60.5366	4.35
