Adsorption isotherm of Hydrogen on PCN-12
DOI: 10.1021/Jp1058963
Adsorbate Hydrogen: InChIKey UFHFLCQGNIYNRP-UHFFFAOYSA-N
Temperature: 77 K
Tabular data in the source: 0
pressure (bar)	uptake (wt%)
0.420779	1.26
1.88052	2.52
5.01818	3.36
9.34935	3.885
16.2312	4.27
22.2403	4.375
27.9779	4.445
33.7156	4.515
42.2636	4.445
49.2649	4.41
54.7195	4.41
60.9299	4.34
