Adsorption isotherm of Hydrogen on CuBTC
DOI: 10.1021/Jp1058963
Adsorbate Hydrogen: InChIKey UFHFLCQGNIYNRP-UHFFFAOYSA-N
Temperature: 77 K
Tabular data in the source: 0
pressure (bar)	uptake (wt%)
0.331398	0.211055
1.00719	2.17085
1.84673	3.10553
4.96188	3.88945
9.75221	4.28141
14.9974	4.49246
21.2355	4.58291
27.701	4.58291
33.6389	4.55276
41.3871	4.52261
48.6077	4.46231
55.311	4.40201
60.9799	4.34171
