Adsorption isotherm of Hydrogen on PCN-12
DOI: 10.1021/Jp1058963
Adsorbate Hydrogen: InChIKey UFHFLCQGNIYNRP-UHFFFAOYSA-N
Temperature: 77 K
Tabular data in the source: 0
pressure (bar)	uptake (wt%)
0.27931	0.07
0.941379	2.31
3.45517	3.815
8.6069	4.62
15.7448	5.145
23.0897	5.495
30.6621	5.74
38.2034	5.88
47.0379	6.02
55.6034	6.125
61.8414	6.23
