Adsorption isotherm of Hydrogen on CuBTC
DOI: 10.1021/Jp1058963
Adsorbate Hydrogen: InChIKey UFHFLCQGNIYNRP-UHFFFAOYSA-N
Temperature: 77 K
Tabular data in the source: 0
pressure (bar)	uptake (wt%)
2.17813	3.31658
3.38936	3.82915
6.39014	4.28141
9.39092	4.73367
15.1534	4.94472
21.702	5.18593
30.3093	5.39698
39.1336	5.48744
48.4751	5.57789
56.0063	5.66834
61.9858	5.75879
