Adsorption isotherm of Hydrogen on CuBTC
DOI: 10.1021/Jp1058963
Adsorbate Hydrogen: InChIKey UFHFLCQGNIYNRP-UHFFFAOYSA-N
Temperature: 298 K
Tabular data in the source: 0
pressure (bar)	uptake (wt%)
1.81292	0.0529412
7.28062	0.220588
13.9489	0.379412
22.6953	0.547059
31.2102	0.644118
42.2999	0.776471
54.1225	0.882353
68.3462	0.970588
81.6635	1.03235
92.5217	1.09412
102.387	1.10294
