Adsorption isotherm of Hydrogen on CuBTC
DOI: 10.1021/Jp1058963
Adsorbate Hydrogen: InChIKey UFHFLCQGNIYNRP-UHFFFAOYSA-N
Temperature: 298 K
Tabular data in the source: 0
pressure (bar)	uptake (wt%)
2.51688	0.0176471
11.7358	0.0794118
24.73	0.167647
36.35	0.211765
46.7695	0.264706
59.2382	0.317647
74.5468	0.361765
90.2652	0.405882
100.159	0.423529
