Adsorption isotherm of Hydrogen on PCN-12
DOI: 10.1021/Jp1058963
Adsorbate Hydrogen: InChIKey UFHFLCQGNIYNRP-UHFFFAOYSA-N
Temperature: 77 K
Tabular data in the source: 0
pressure (bar)	uptake (wt%)
0.00796994	0.249858
0.0347945	0.570807
0.0849368	0.962769
0.133827	1.26547
0.204782	1.54991
0.289377	1.85198
0.395537	2.10008
0.514835	2.33009
0.660663	2.54177
0.810452	2.71767
0.95949	2.84001
1.08596	2.94489
