Adsorption isotherm of Hydrogen on Cu4Cl3(btt)8
DOI: 10.1021/Jp1058963
Adsorbate Hydrogen: InChIKey UFHFLCQGNIYNRP-UHFFFAOYSA-N
Temperature: 87 K
Tabular data in the source: 0
pressure (bar)	uptake (wt%)
0	0
0.0404127	0.218391
0.108124	0.425287
0.216588	0.701149
0.329728	0.91954
0.45209	1.08046
0.601698	1.25287
0.792163	1.44828
1.03717	1.64368
