Adsorption isotherm of Hydrogen on CuBTC
DOI: 10.1021/Jp1058963
Adsorbate Hydrogen: InChIKey UFHFLCQGNIYNRP-UHFFFAOYSA-N
Temperature: 87 K
Tabular data in the source: 0
pressure (bar)	uptake (wt%)
0.0290639	0.139175
0.0670563	0.278351
0.1224	0.386598
0.181954	0.479381
0.259619	0.587629
0.327849	0.664948
0.40029	0.726804
0.472984	0.804124
0.554354	0.865979
0.635977	0.943299
0.712629	0.989691
0.798463	1.05155
0.874862	1.08247
0.94705	1.12887
1.00584	1.17526
1.05967	1.19072
