Adsorption isotherm of Hydrogen on Cu4Cl3(btt)8
DOI: 10.1021/Jp1058963
Adsorbate Hydrogen: InChIKey UFHFLCQGNIYNRP-UHFFFAOYSA-N
Temperature: 87 K
Tabular data in the source: 0
pressure (bar)	uptake (wt%)
0	0
0.0127743	0.37931
0.0667189	0.643678
0.179441	1.04598
0.319749	1.31034
0.428501	1.45977
0.591719	1.64368
0.800392	1.82759
1.03642	1.97701
