Adsorption isotherm of Hydrogen on CuBTC
DOI: 10.1021/Jp1058963
Adsorbate Hydrogen: InChIKey UFHFLCQGNIYNRP-UHFFFAOYSA-N
Temperature: 87 K
Tabular data in the source: 0
pressure (bar)	uptake (wt%)
-5.55e-17	-3.55e-15
0.114731	0.494845
0.161695	0.649485
0.217045	0.773196
0.268454	0.927835
0.323803	1.05155
0.42016	1.23711
0.533288	1.36082
0.628637	1.48454
0.737572	1.62371
0.827721	1.70103
0.94504	1.80928
1.04357	1.85567
