Adsorption isotherm of Hydrogen on CuBTC
DOI: 10.1021/Jp1058963
Adsorbate Hydrogen: InChIKey UFHFLCQGNIYNRP-UHFFFAOYSA-N
Temperature: 298 K
Tabular data in the source: 0
pressure (bar)	uptake (wt%)
2.51688	0.0176471
9.83124	0.123529
20.8631	0.238235
34.0598	0.388235
45.0627	0.494118
53.081	0.564706
61.0993	0.635294
70.7859	0.714706
83.7801	0.802941
93.9055	0.891176
101.427	0.935294
