Adsorption isotherm of Nitrogen on SWCNH
DOI: 10.1016/j.cplett.2010.11.086
Article source: Figure 4a- SWCNH
Adsorbate Nitrogen: InChIKey IJGRMHOSHXDMSA-UHFFFAOYSA-N
Kind: experiment
Temperature: 77 K
Tabular data in the source: 0
pressure (bar)	uptake (mg/g)
0.000355	168.24
0.000365	163
0.000446	127.5
0.000507	224.09
0.000507	224.03
0.001337	272.81
0.002178	286.08
0.004448	300.26
0.008248	317.84
0.019505	340.07
0.02984	356.52
0.041624	371.83
0.053479	385.78
0.062376	396.44
0.071951	405.74
0.081151	415.05
0.090503	423.78
0.102207	430.47
0.15291	467.67
0.201941	497.84
0.252796	525.85
0.303732	551.82
0.354131	575.18
0.407803	594.46
0.458364	612.26
0.506939	626.55
0.559922	640.38
0.607514	654.1
0.659514	668.96
0.708171	683.93
0.761761	703.54
0.809658	726.34
0.862559	758.78
0.913718	809.36
0.962294	938.51
0.962436	940.15
1.00855	1267.17
