Adsorption isotherm of Nitrogen on Iodine-adsorbed SWCNH (0.18 coverage)
DOI: 10.1016/j.cplett.2010.11.086
Article source: Figure 4a- Iodine adsorbed SWCNH 0.18 Coverage
Adsorbate Nitrogen: InChIKey IJGRMHOSHXDMSA-UHFFFAOYSA-N
Kind: experiment
Temperature: 77 K
Tabular data in the source: 0
pressure (bar)	uptake (mg/g)
7.1e-05	21.88
8.1e-05	21.89
0.000152	25.3
0.004539	213.71
0.004539	213.73
0.007802	229.02
0.008562	237.76
0.010234	251.06
0.01069	252.5
0.020194	270.2
0.030073	283.81
0.040408	297.31
0.050906	309.56
0.061778	320.78
0.071657	329.86
0.081465	339.04
0.092256	347.89
0.100697	355.94
0.151704	390.31
0.202103	421.38
0.254174	448.6
0.305637	473.89
0.353766	494.42
0.404317	515.51
0.456844	533.43
0.507861	549.53
0.559709	565.18
0.606835	578.56
0.658227	592.28
0.710683	609.17
0.760252	628.79
0.810651	651.7
0.860898	685.16
0.912594	740.17
0.962223	846.68
1.00809	1312.2
