Adsorption isotherm of Nitrogen on Silicalite MFI
DOI: 10.1039/C000931h
Adsorbate Nitrogen: InChIKey IJGRMHOSHXDMSA-UHFFFAOYSA-N
Temperature: 77 K
Tabular data in the source: 0
pressure (bar)	uptake (cm3(STP)/g)
0.00769013	0.135575
0.0179436	0.138563
0.0487042	0.144532
0.0794647	0.146006
0.105098	0.146735
0.130732	0.147465
0.156366	0.148194
0.179436	0.148925
0.20507	0.149655
0.230704	0.150384
0.256338	0.150364
0.281972	0.150344
0.305042	0.151076
0.330676	0.151056
0.356309	0.151785
0.381943	0.151765
0.407577	0.152495
0.433211	0.152475
0.458845	0.152455
0.484478	0.153185
0.510112	0.153165
0.533182	0.153896
0.558816	0.154625
0.58445	0.155355
0.610084	0.156084
0.633154	0.156815
0.658788	0.157544
0.684422	0.158274
0.710056	0.159003
0.733126	0.159734
0.75876	0.159715
0.784393	0.160444
0.810027	0.161173
0.835661	0.161903
0.858731	0.163383
0.884365	0.164112
0.909999	0.165591
0.933069	0.167071
0.94845	0.169306
0.968957	0.17753
