Adsorption isotherm of Water on Silicalite MFI
DOI: 10.1039/C000931h
Adsorbate Water: InChIKey XLYOFNOQVPJJNP-UHFFFAOYSA-N
Temperature: 298 K
Tabular data in the source: 0
pressure (bar)	uptake (cm3(STP)/g)
153.846	0.000804074
285.714	0.00119462
395.604	0.000753532
521.978	0.00114523
681.319	0.00320251
818.681	0.00693686
895.604	0.0165375
917.582	0.0311671
923.077	0.0675422
934.066	0.0859371
956.044	0.0901137
1000	0.0930314
1038.46	0.0942777
1087.91	0.0955217
1109.89	0.0959352
1197.8	0.0980074
1302.2	0.0988218
1395.6	0.100475
1554.95	0.101696
1686.81	0.103759
1846.15	0.10498
1945.05	0.106214
