Adsorption isotherm of Water on Silicalite MFI
DOI: 10.1039/C000931h
Adsorbate Water: InChIKey XLYOFNOQVPJJNP-UHFFFAOYSA-N
Temperature: 298 K
Tabular data in the source: 0
pressure (bar)	uptake (cm3(STP)/g)
311.846	0.000409556
645.4	0.00532423
656.171	0.00573379
715.384	0.00737201
785.387	0.00982935
828.526	0.0126962
844.783	0.0155631
861.022	0.0180205
871.977	0.0225256
889.225	0.0475085
894.033	0.0348123
906.235	0.0671672
906.455	0.0720819
934.163	0.0905119
1090.33	0.0962457
1251.77	0.0995222
1639.07	0.104027
