Adsorption isotherm of Water on Silicalite MFI
DOI: 10.1039/C000931h
Adsorbate Water: InChIKey XLYOFNOQVPJJNP-UHFFFAOYSA-N
Temperature: 298 K
Tabular data in the source: 0
pressure (bar)	uptake (cm3(STP)/g)
322.636	0.00122867
564.7	0.00409556
720.76	0.00737201
801.552	0.0106485
844.783	0.0155631
888.638	0.0344027
894.62	0.0479181
900.877	0.0675768
912.327	0.0831399
993.486	0.0946075
1117.27	0.0974744
1294.76	0.0991126
1542.22	0.102389
1827.33	0.106075
