Adsorption isotherm of N-Hexane on Silicalite MFI
DOI: 10.1039/C000931h
Adsorbate N-Hexane: InChIKey VLKZOEOYAKHREP-UHFFFAOYSA-N
Temperature: 298 K
Tabular data in the source: 0
pressure (bar)	uptake (cm3(STP)/g)
0.00147841	0.157138
0.00361749	0.163253
0.00839929	0.165278
0.01371	0.16662
0.0184864	0.166604
0.0232664	0.167948
0.0280446	0.168612
0.0333535	0.169275
0.0386624	0.169937
0.0439695	0.169919
0.0487477	0.170583
0.0540566	0.171245
0.0593636	0.171227
0.0646725	0.17189
0.0699796	0.171872
0.0747578	0.172536
0.0800649	0.172518
0.0853738	0.17318
0.0912134	0.17384
0.0965205	0.173822
0.101828	0.173804
0.106606	0.174468
0.111915	0.175131
0.117222	0.175113
0.122531	0.175775
0.12784	0.176437
0.133147	0.176419
0.137925	0.177083
0.141113	0.178433
0.145889	0.178417
0.1512	0.179759
0.156511	0.181102
0.161291	0.182446
0.166603	0.184469
0.171383	0.185813
0.176694	0.187156
0.181474	0.1885
0.186784	0.189843
0.188913	0.191876
