Adsorption isotherm of N-Hexane on Silicalite MFI
DOI: 10.1039/C000931h
Adsorbate N-Hexane: InChIKey VLKZOEOYAKHREP-UHFFFAOYSA-N
Temperature: 298 K
Tabular data in the source: 0
pressure (bar)	uptake (cm3(STP)/g)
0.00258315	0.173461
0.00630353	0.175489
0.0116124	0.176151
0.0163906	0.176815
0.0217013	0.178158
0.0264777	0.178142
0.0317866	0.178804
0.0370955	0.179466
0.0424044	0.180128
0.0477133	0.180791
0.0530204	0.180773
0.0577986	0.181437
0.0631057	0.181419
0.0684146	0.182081
0.0737217	0.182063
0.0784999	0.182727
0.083807	0.182709
0.0891159	0.183371
0.0933597	0.182677
0.0986686	0.183339
0.103976	0.183321
0.109283	0.183303
0.114592	0.183965
0.119899	0.183947
0.125206	0.183929
0.130513	0.183911
0.13582	0.183893
0.1406	0.185238
0.145907	0.18522
0.151216	0.185882
0.155996	0.187226
0.161305	0.187888
0.166085	0.189233
0.171394	0.189895
0.176705	0.191238
0.181483	0.191902
0.186792	0.192564
0.189447	0.193235
