Adsorption isotherm of Water on Silicalite MFI
DOI: 10.1039/C000931h
Adsorbate Water: InChIKey XLYOFNOQVPJJNP-UHFFFAOYSA-N
Temperature: 298 K
Tabular data in the source: 0
pressure (bar)	uptake (molecules/unitcell)
0.000234375	0.0909091
0.000625	0.227273
0.00117187	0.30303
0.001875	0.363636
0.00242187	0.424242
0.003125	0.469697
0.00382812	0.530303
0.00453125	0.590909
0.00523437	0.636364
0.0059375	0.712121
0.00664062	0.772727
0.00726562	0.848485
0.00796875	0.909091
0.00859375	0.984848
0.00929687	1.06061
0.0100781	1.15152
0.0107812	1.22727
0.0114062	1.30303
0.0121094	1.39394
0.0125781	1.4697
0.0132031	1.54545
0.0138281	1.63636
0.0144531	1.72727
0.0150781	1.78788
0.0155469	1.89394
0.0160937	2
0.0167187	2.10606
0.0172656	2.21212
0.0178125	2.31818
0.0183594	2.42424
0.0189062	2.5303
0.0194531	2.65152
0.0202344	2.81818
0.0207031	2.93939
0.0211719	3.0303
0.0216406	3.15152
0.0221094	3.25758
0.0227344	3.42424
0.0232031	3.5303
0.0236719	3.65152
0.0240625	3.75758
0.0246875	4
0.0249219	4.09091
0.0252344	4.22727
0.0254687	4.39394
