Adsorption isotherm of Water on Silicalite MFI
DOI: 10.1039/C000931h
Adsorbate Water: InChIKey XLYOFNOQVPJJNP-UHFFFAOYSA-N
Temperature: 298 K
Tabular data in the source: 0
pressure (bar)	uptake (molecules/unitcell)
0.0009375	0.0454545
0.00171875	0.0606061
0.00242187	0.0909091
0.00320312	0.121212
0.00390625	0.151515
0.00453125	0.166667
0.0053125	0.19697
0.00601562	0.227273
0.00679687	0.242424
0.0075	0.272727
0.00828125	0.30303
0.00898437	0.333333
0.00976562	0.363636
0.0105469	0.393939
0.01125	0.439394
0.0120312	0.469697
0.0127344	0.515152
0.0135156	0.545455
0.0142187	0.606061
0.015	0.651515
0.0157031	0.69697
0.0164062	0.757576
0.0171094	0.818182
0.0178125	0.893939
0.0185156	0.969697
0.0191406	1.0303
0.0196875	1.12121
0.0203125	1.21212
0.0209375	1.31818
0.0214844	1.42424
0.0219531	1.5303
0.0224219	1.65152
0.0229687	1.75758
0.0233594	1.89394
0.0238281	2
0.0242969	2.12121
0.0246875	2.24242
0.0250781	2.37879
0.0254687	2.5
0.0258594	2.63636
