Adsorption isotherm of Water on Silicalite MFI
DOI: 10.1039/C000931h
Adsorbate Water: InChIKey XLYOFNOQVPJJNP-UHFFFAOYSA-N
Temperature: 298 K
Tabular data in the source: 0
pressure (bar)	uptake (cm3(STP)/g)
338.765	0.00122867
742.284	0.00778157
812.36	0.0118771
877.225	0.0196587
894.235	0.0393174
900.18	0.0520137
900.84	0.0667577
905.923	0.0602048
912.309	0.0827304
934.163	0.0905119
998.862	0.0946075
1031.14	0.0950171
1327.04	0.0995222
