Adsorption isotherm of Nitrogen on Silicalite MFI
DOI: 10.1039/C000931h
Adsorbate Nitrogen: InChIKey IJGRMHOSHXDMSA-UHFFFAOYSA-N
Temperature: 77 K
Tabular data in the source: 0
pressure (bar)	uptake (cm3(STP)/g)
0.00512675	0.137824
0.0281972	0.141551
0.0512675	0.14453
0.0743379	0.146759
0.130732	0.15121
0.148676	0.15644
0.158929	0.159428
0.17431	0.165409
0.19738	0.170634
0.22045	0.173613
0.246084	0.17584
0.269155	0.17807
0.292225	0.180299
0.317859	0.181777
0.325549	0.182521
0.340929	0.182509
0.351183	0.18325
0.366563	0.183238
0.392197	0.183967
0.415267	0.184699
0.433211	0.185434
0.440901	0.185428
0.458845	0.185414
0.466535	0.185408
0.489605	0.186139
0.515239	0.18612
0.517802	0.186867
0.538309	0.186851
0.543436	0.186847
0.563943	0.186831
0.56907	0.187576
0.587013	0.187562
0.594704	0.187556
0.612647	0.187543
0.635718	0.188274
0.661351	0.188254
0.681858	0.188987
0.686985	0.188234
0.707492	0.188968
0.712619	0.188964
0.735689	0.189695
0.761323	0.189675
0.786957	0.189655
0.810027	0.190387
0.835661	0.191116
0.858731	0.191098
0.884365	0.191827
0.925379	0.195541
0.94845	0.197771
0.968957	0.202998
