Adsorption isotherm of Carbon Dioxide on [Pr3(NDC)4.5(DMF)3(H2O)]
DOI: 10.1016/j.inoche.2014.04.016
Adsorbate Carbon Dioxide: InChIKey CURLTUGMZLYLDI-UHFFFAOYSA-N
Temperature: 196 K
Tabular data in the source: 0
pressure (bar)	uptake (cm3(STP)/g)
0.00471937	3.59848
0.00707906	1.88344
0.0141582	5.48116
0.0235969	7.19241
0.0353954	9.58862
0.0660712	11.9788
0.0967472	14.3689
0.160459	17.777
0.191135	19.31
0.224171	20.8422
0.254846	22.3752
0.283162	23.909
0.316198	25.2698
0.346874	26.4599
0.37991	27.8207
0.410586	29.3537
0.443621	30.2003
0.474297	31.5618
0.507333	33.0941
0.535649	34.1135
0.568685	35.3029
0.599361	36.6645
0.627676	37.6839
0.660712	38.5305
0.691388	39.3777
0.724424	40.3957
0.755101	41.4144
0.783417	42.6053
0.818811	43.4511
0.847128	44.2991
0.882523	45.3163
0.91084	45.9929
0.941516	46.8402
0.972192	47.5161
0.988709	47.6822
