Adsorption isotherm of Carbon Dioxide on [Pr2(NDC)2(NO3)2(DMA)4]
DOI: 10.1016/j.inoche.2014.04.016
Adsorbate Carbon Dioxide: InChIKey CURLTUGMZLYLDI-UHFFFAOYSA-N
Temperature: 196 K
Tabular data in the source: 0
pressure (bar)	uptake (cm3(STP)/g)
0.00224075	2.89809
0.00446145	6.30753
0.0113911	9.71773
0.0348755	11.2556
0.0630488	13.3055
0.107697	15.5286
0.12886	16.2138
0.161783	17.2418
0.187642	18.2686
0.222911	19.4674
0.253479	20.4951
0.284047	21.5227
0.314615	22.5503
0.347545	23.4078
0.373411	24.2642
0.4087	24.9517
0.439268	25.9793
0.469843	26.8365
0.500431	27.3527
0.533367	28.0398
0.566303	28.7269
0.594528	29.4132
0.627464	30.1003
0.658046	30.787
0.688627	31.4737
0.72157	31.9903
0.749797	32.6766
0.785093	33.1937
0.815688	33.5394
0.846269	34.2262
0.876851	34.9129
0.909813	34.9181
0.942749	35.6052
0.966281	35.9499
0.982749	36.2934
1.00157	36.6373
