Adsorption isotherm of Propene on MSC-5A
DOI: 10.1021/je00029a025
Article source: Table I
Adsorbate Propene: InChIKey QQONPFPTGQHPMA-UHFFFAOYSA-N
Kind: experiment
Temperature: 274 K
Tabular data in the source: 0
pressure (bar)	uptake (mg/g)
0.007599	78.14
0.018398	87.33
0.043463	94.76
0.083326	99.84
0.148654	104.42
0.218249	106.16
0.303442	107.64
0.345705	110.73
