Adsorption isotherm of Ethene on MSC-5A
DOI: 10.1021/je00029a025
Article source: Table I
Adsorbate Ethene: InChIKey VGGSQFUCUMXWEO-UHFFFAOYSA-N
Kind: experiment
Temperature: 303 K
Tabular data in the source: 0
pressure (bar)	uptake (mg/g)
0.006666	10.39
0.013332	14.7
0.028931	21.16
0.056395	28.46
0.11839	37.45
0.228648	46.71
