Adsorption isotherm of Propene, Ethene on MSC-5A
DOI: 10.1021/je00029a025
Article source: Table II
Adsorbate Propene: InChIKey QQONPFPTGQHPMA-UHFFFAOYSA-N
Adsorbate Ethene: InChIKey VGGSQFUCUMXWEO-UHFFFAOYSA-N
Kind: experiment
Temperature: 274 K
Tabular data in the source: 0
pressure (bar)	Propene fraction	Propene uptake (mmol/g)	Ethene fraction	Ethene uptake (mmol/g)	total uptake (mmol/g)
0.130123	0.886	2.41215	0.114	0.06185	2.474
0.135056	0.872	2.36448	0.128	0.09852	2.463
0.132389	0.819	2.27923	0.181	0.137769	2.417
0.130256	0.741	2.26386	0.259	0.114144	2.378
0.134389	0.631	2.24431	0.369	0.110685	2.355
0.133189	0.506	2.17986	0.494	0.13914	2.319
0.134122	0.451	2.19015	0.549	0.16485	2.355
0.133589	0.33	1.96425	0.67	0.257752	2.222
0.133189	0.255	2.00736	0.745	0.250638	2.258
0.132922	0.085	1.60664	0.915	0.52136	2.128
0.138122	0.024	0.575624	0.976	1.58838	2.164
