Adsorption isotherm of Ethene on MSC-5A
DOI: 10.1021/je00029a025
Article source: Table I
Adsorbate Ethene: InChIKey VGGSQFUCUMXWEO-UHFFFAOYSA-N
Kind: experiment
Temperature: 274 K
Tabular data in the source: 0
pressure (bar)	uptake (mg/g)
0.010399	25.28
0.028131	36.93
0.055062	39.57
0.092926	48.98
0.162653	60.89
0.250379	65.07
0.32104	68.37
