Adsorption isotherm of Propene, Ethene on MSC-5A
DOI: 10.1021/je00029a025
Article source: Table II
Adsorbate Propene: InChIKey QQONPFPTGQHPMA-UHFFFAOYSA-N
Adsorbate Ethene: InChIKey VGGSQFUCUMXWEO-UHFFFAOYSA-N
Kind: experiment
Temperature: 303 K
Tabular data in the source: 0
pressure (bar)	Propene fraction	Propene uptake (mmol/g)	Ethene fraction	Ethene uptake (mmol/g)	total uptake (mmol/g)
0.134656	0.912	2.07518	0.088	0.070818	2.146
0.136255	0.888	2.0496	0.112	0.0854	2.135
0.130389	0.758	1.98735	0.242	0.093645	2.081
0.133189	0.633	1.92496	0.367	0.076038	2.001
0.135322	0.632	1.9031	0.368	0.112896	2.016
0.134922	0.524	1.8728	0.476	0.130195	2.003
0.135589	0.29	1.6416	0.71	0.2584	1.9
0.134122	0.099	1.04041	0.901	0.62959	1.67
