Adsorption isotherm of Ethene on MSC-5A
DOI: 10.1021/je00029a025
Article source: Table I
Adsorbate Ethene: InChIKey VGGSQFUCUMXWEO-UHFFFAOYSA-N
Kind: experiment
Temperature: 323 K
Tabular data in the source: 0
pressure (bar)	uptake (mg/g)
0.007599	6.04
0.018132	10.21
0.040263	16.76
0.059728	21.09
0.086926	25.18
0.12519	30.12
0.234114	38.02
0.32544	42.91
