Adsorption isotherm of Propene on MSC-5A
DOI: 10.1021/je00029a025
Article source: Table I
Adsorbate Propene: InChIKey QQONPFPTGQHPMA-UHFFFAOYSA-N
Kind: experiment
Temperature: 323 K
Tabular data in the source: 0
pressure (bar)	uptake (mg/g)
0.009599	42.57
0.028931	57.92
0.051729	65.13
0.07746	70.6
0.110258	74.2
0.153854	77.58
0.219315	82.34
0.340372	86.42
