Adsorption isotherm of Propene on MSC-5A
DOI: 10.1021/je00029a025
Article source: Table I
Adsorbate Propene: InChIKey QQONPFPTGQHPMA-UHFFFAOYSA-N
Kind: experiment
Temperature: 303 K
Tabular data in the source: 0
pressure (bar)	uptake (mg/g)
0.008799	56.62
0.015065	63.78
0.022531	68.5
0.046796	77.24
0.07746	82.66
0.113724	86.06
0.150921	88.77
0.222248	91.92
