Adsorption isotherm of Propene, Ethene on MSC-5A
DOI: 10.1021/je00029a025
Article source: Table II
Adsorbate Propene: InChIKey QQONPFPTGQHPMA-UHFFFAOYSA-N
Adsorbate Ethene: InChIKey VGGSQFUCUMXWEO-UHFFFAOYSA-N
Kind: experiment
Temperature: 323 K
Tabular data in the source: 0
pressure (bar)	Propene fraction	Propene uptake (mmol/g)	Ethene fraction	Ethene uptake (mmol/g)	total uptake (mmol/g)
0.134256	0.876	1.76814	0.124	0.01786	1.786
0.135056	0.755	1.72353	0.245	0.051475	1.775
0.134922	0.655	1.71389	0.345	0.092106	1.806
0.133856	0.64	1.61489	0.36	0.043108	1.658
0.134522	0.533	1.70652	0.467	0.126477	1.833
0.140122	0.405	1.53971	0.595	0.167286	1.707
0.134389	0.406	1.47721	0.594	0.16779	1.645
0.138522	0.292	1.43149	0.708	0.191514	1.623
0.137589	0.117	0.920712	0.883	0.431288	1.352
0.134122	0.046	0.64232	0.954	0.65268	1.295
