Adsorption isotherm of Hydrogen on [Zn4(O)(mip)3(DMF)2]*3(DMF)*(H2O)
DOI: 10.1021/Ic801906e
Adsorbate Hydrogen: InChIKey UFHFLCQGNIYNRP-UHFFFAOYSA-N
Temperature: 87 K
Tabular data in the source: 0
pressure (bar)	uptake (cm3(STP)/g)
0.0236738	9.69131
0.0630016	26.4056
0.115439	43.1199
0.180985	60.8174
0.314262	86.3804
0.480312	111.943
0.580817	122.759
0.687876	133.574
0.808044	144.389
0.95006	155.204
