Adsorption isotherm of Nitrogen on [Zn4(O)(mip)3(DMF)2]*3(DMF)*(H2O)
DOI: 10.1021/Ic801906e
Adsorbate Nitrogen: InChIKey IJGRMHOSHXDMSA-UHFFFAOYSA-N
Temperature: 77 K
Tabular data in the source: 0
pressure (bar)	uptake (cm3(STP)/g)
0.00182509	21.4896
0.00182509	106.044
0.00182509	256.473
0.0389679	329.229
0.128548	343.977
0.253086	346.927
0.392918	348.893
0.578632	351.843
0.696615	352.826
0.829892	355.775
0.960985	360.691
