Adsorption isotherm of Argon on [Zn4(O)(mip)3(DMF)2]*3(DMF)*(H2O)
DOI: 10.1021/Ic801906e
Adsorbate Argon: InChIKey XKRFYHLGVUSROY-UHFFFAOYSA-N
Temperature: 87 K
Tabular data in the source: 0
pressure (bar)	uptake (cm3(STP)/g)
0.00182509	20.5064
0.00182509	99.1619
0.00182509	191.582
0.00182509	295.801
0.0105646	357.742
0.0411528	371.506
0.106699	380.355
0.224682	387.238
0.35796	393.137
0.526195	399.036
0.722834	404.935
0.9588	414.767
