Adsorption isotherm of Hydrogen on [Zn4(O)(mip)3(DMF)2]*3(DMF)*(H2O)
DOI: 10.1021/Ic801906e
Adsorbate Hydrogen: InChIKey UFHFLCQGNIYNRP-UHFFFAOYSA-N
Temperature: 77 K
Tabular data in the source: 0
pressure (bar)	uptake (cm3(STP)/g)
0.00837971	14.6073
0.0324133	43.1199
0.0717411	74.5821
0.126363	103.095
0.200649	130.624
0.34485	167.002
0.508716	194.532
0.600481	206.33
0.70317	215.179
0.823338	224.027
0.95443	234.843
