Adsorption isotherm of Methane on PBSAC
DOI: 10.1016/j.jmr.2014.01.002
Adsorbate Methane: InChIKey VNWKTOKETHGBQD-UHFFFAOYSA-N
Temperature: 299 K
Tabular data in the source: 0
pressure (bar)	uptake (mmol/g)
14.6909	4.92288
20.0109	4.47209
24.7741	4.81266
30.6002	5.09699
40.1361	5.49544
49.6551	6.40273
69.7709	7.70877
89.8905	8.90174
110.01	10.0947
129.594	11.4571
149.723	12.3674
164.541	13.4458
169.3	13.8994
174.596	14.1836
192.588	15.5456
