Adsorption isotherm of Methane on CuBTC
DOI: 10.1016/j.jmr.2014.01.002
Adsorbate Methane: InChIKey VNWKTOKETHGBQD-UHFFFAOYSA-N
Temperature: 299 K
Tabular data in the source: 0
pressure (bar)	uptake (mmol adsorbed)
0.00864678	0.577605
2.76805	4.90575
5.2259	9.08993
10.7339	17.0242
20.7112	23.508
40.5728	30.2663
60.7188	36.0134
69.6422	32.1016
79.6876	23.134
87.7259	20.0899
97.5886	18.9204
101.476	18.626
