Adsorption isotherm of Nitrogen on Pristine SWCNT
DOI: 10.1007/s10450-018-9996-4
Article source: Figure 4a
Adsorbate Nitrogen: InChIKey IJGRMHOSHXDMSA-UHFFFAOYSA-N
Kind: experiment
Temperature: 77 K
Tabular data in the source: 0
pressure (bar)	uptake (mg/g)
0	0
0.006688	39.2157
0.046817	54.902
0.086946	70.5882
0.14045	78.4314
0.187267	78.4314
0.240772	94.1176
0.300965	101.961
0.35447	109.804
0.414663	117.647
0.481545	133.333
0.555114	141.176
0.628683	156.863
0.702252	176.471
0.772478	192.157
0.842703	211.765
0.899552	254.902
0.956401	313.725
0.973121	388.235
0.983153	431.373
0.99653	533.333
1.00322	717.647
0.013376	70.5882
0.066881	86.2745
0.127074	101.961
0.1973	109.804
0.264181	117.647
0.341094	129.412
0.421351	145.098
0.494921	160.784
0.56849	168.627
0.648748	184.314
0.722317	207.843
0.789198	223.529
0.852735	250.98
0.896208	290.196
0.932993	325.49
0.946369	360.784
0.963089	415.686
0.973121	478.431
0.983153	541.176
0.986498	603.922
0.993186	658.824
0.99653	694.118
