Adsorption isotherm of Nitrogen on SWCNT Electrode
DOI: 10.1007/s10450-018-9996-4
Article source: Figure 4a
Adsorbate Nitrogen: InChIKey IJGRMHOSHXDMSA-UHFFFAOYSA-N
Kind: experiment
Temperature: 77 K
Tabular data in the source: 0
pressure (bar)	uptake (mg/g)
0	7.84314
0.013376	62.7451
0.040129	101.961
0.093634	117.647
0.153827	121.569
0.224052	137.255
0.300965	156.863
0.371191	164.706
0.438072	180.392
0.508297	196.078
0.581866	215.686
0.655436	243.137
0.725661	266.667
0.792542	290.196
0.846047	329.412
0.896208	380.392
0.929649	439.216
0.949713	505.882
0.993186	854.902
1.00322	1215.69
0.99653	533.333
1.00322	717.647
0.013376	117.647
0.100322	133.333
0.167203	149.02
0.237428	168.627
0.32103	180.392
0.394599	196.078
0.474856	219.608
0.548426	235.294
0.615307	258.824
0.69222	278.431
0.769134	305.882
0.849391	352.941
0.909584	439.216
0.936337	505.882
0.956401	584.314
0.969777	698.039
0.976465	831.373
0.986498	956.863
0.989842	1070.59
0.993186	1156.86
0.993186	658.824
0.99653	694.118
