Adsorption isotherm of Benzene on IRMOF-1
DOI: 10.1134/S1070427213090126
Adsorbate Benzene: InChIKey UHOVQNZJYSORNB-UHFFFAOYSA-N
Temperature: 295 K
Tabular data in the source: 0
pressure (bar)	uptake (cm3(STP)/g)
0.00101225	0.05075
0.00489958	0.160609
0.0228151	0.58737
0.0349841	0.891595
0.0500263	1.25498
0.0650686	1.63526
0.100731	2.43385
