Adsorption isotherm of Benzene on IRMOF-1
DOI: 10.1134/S1070427213090126
Adsorbate Benzene: InChIKey UHOVQNZJYSORNB-UHFFFAOYSA-N
Temperature: 295 K
Tabular data in the source: 0
pressure (bar)	uptake (cm3(STP)/g)
0.00944547	0.000358
0.0537799	0.310985
0.228257	0.349885
0.34982	0.346453
0.497124	0.347597
0.65158	0.349885
0.994814	0.364759
