Adsorption isotherm of Water on IRMOF-1
DOI: 10.1134/S1070427213090126
Adsorbate Water: InChIKey XLYOFNOQVPJJNP-UHFFFAOYSA-N
Temperature: 295 K
Tabular data in the source: 0
pressure (bar)	uptake (cm3(STP)/g)
0.0126532	0.000244
0.0929349	0.450948
0.245048	0.743906
0.316879	2.68193
0.363357	5.49884
0.456315	9.62278
0.572512	12.3045
0.756315	13.0932
1.0035	13.9495
