Adsorption isotherm of Acetone on Tire-derived Activated Carbon
DOI: 10.1061/(asce)0733-9372(2004)130:3(231)
Article source: Figure 4a
Adsorbate Acetone: InChIKey CSCPPACGZOOCGX-UHFFFAOYSA-N
Kind: experiment
Temperature: 323 K
Tabular data in the source: 0
pressure (bar)	uptake (mg/g)
0	0
0.00882	59.6883
0.054521	115.327
0.126683	157.163
0.198041	176.485
