Adsorption isotherm of Methyl ethyl ketone on Activated Carbon Fiber Cloth
DOI: 10.1061/(asce)0733-9372(2004)130:3(231)
Article source: Figure 3b
Adsorbate Methyl ethyl ketone: InChIKey ZWEHNKRNPOVVGH-UHFFFAOYSA-N
Kind: experiment
Temperature: 323 K
Tabular data in the source: 0
pressure (bar)	uptake (mg/g)
0	112.686
9.4e-05	169.032
0.002057	220.617
0.00469	278.892
0.02181	419.412
0.047521	493.153
0.075362	503.882
