Adsorption isotherm of Methyl ethyl ketone on Tire-derived Activated Carbon
DOI: 10.1061/(asce)0733-9372(2004)130:3(231)
Article source: Figure 4b
Adsorbate Methyl ethyl ketone: InChIKey ZWEHNKRNPOVVGH-UHFFFAOYSA-N
Kind: experiment
Temperature: 323 K
Tabular data in the source: 0
pressure (bar)	uptake (mg/g)
0	0
0.002044	71.1218
0.021804	115.543
0.048719	163.702
0.075974	183.402
