Adsorption isotherm of Acetone on Tire-derived Activated Carbon
DOI: 10.1061/(asce)0733-9372(2004)130:3(231)
Article source: Figure 4a
Adsorbate Acetone: InChIKey CSCPPACGZOOCGX-UHFFFAOYSA-N
Kind: experiment
Temperature: 293 K
Tabular data in the source: 0
pressure (bar)	uptake (mg/g)
0	41.0042
0.000245	17.5684
0.000734	54.6577
0.002935	80.9741
0.00538	98.499
0.007337	113.105
0.009782	124.772
0.056492	214.644
0.128636	260.08
0.198334	298.73
