Adsorption isotherm of Methyl ethyl ketone on Tire-derived Activated Carbon
DOI: 10.1061/(asce)0733-9372(2004)130:3(231)
Article source: Figure 4b
Adsorbate Methyl ethyl ketone: InChIKey ZWEHNKRNPOVVGH-UHFFFAOYSA-N
Kind: experiment
Temperature: 303 K
Tabular data in the source: 0
pressure (bar)	uptake (mg/g)
0.001896	122.322
0.021881	187.395
0.049159	219.134
0.075708	241.401
