Adsorption isotherm of Methyl ethyl ketone on Coal-derived Activated Carbon
DOI: 10.1061/(asce)0733-9372(2004)130:3(231)
Article source: Figure 5b
Adsorbate Methyl ethyl ketone: InChIKey ZWEHNKRNPOVVGH-UHFFFAOYSA-N
Kind: experiment
Temperature: 293 K
Tabular data in the source: 0
pressure (bar)	uptake (mg/g)
1e-06	-0.95366
0.000185	131.613
0.000256	161.179
0.000416	190.748
0.000851	212.696
0.004155	240.453
0.021902	286.77
0.048463	308.56
0.075298	323.681
