Adsorption isotherm of Methyl ethyl ketone on Coal-derived Activated Carbon
DOI: 10.1061/(asce)0733-9372(2004)130:3(231)
Article source: Figure 5b
Adsorbate Methyl ethyl ketone: InChIKey ZWEHNKRNPOVVGH-UHFFFAOYSA-N
Kind: experiment
Temperature: 303 K
Tabular data in the source: 0
pressure (bar)	uptake (mg/g)
0.004183	212.433
0.022163	260.278
0.048595	277.752
0.075613	290.471
