Adsorption isotherm of Methyl Isobutyl Ketone on Activated Carbon Fiber Cloth
DOI: 10.1061/(asce)0733-9372(2004)130:3(231)
Article source: Figure 7a
Adsorbate Methyl Isobutyl Ketone: InChIKey NTIZESTWPVYFNL-UHFFFAOYSA-N
Kind: experiment
Temperature: 293 K
Tabular data in the source: 0
pressure (bar)	uptake (mg/g)
0	-0.868496
6.9e-05	435.106
0.00024	477.647
0.000484	509.759
0.000678	520.164
0.001013	523.609
0.002585	552.133
0.00607	566.594
0.010582	574.019
0.015077	578.839
