Adsorption isotherm of Methyl ethyl ketone on Activated Carbon Fiber Cloth
DOI: 10.1061/(asce)0733-9372(2004)130:3(231)
Article source: Figure 3b
Adsorbate Methyl ethyl ketone: InChIKey ZWEHNKRNPOVVGH-UHFFFAOYSA-N
Kind: experiment
Temperature: 293 K
Tabular data in the source: 0
pressure (bar)	uptake (mg/g)
0	-0.954968
0.000144	325.652
0.000743	406.844
0.001886	474.682
0.004301	510.09
0.008698	537.919
0.022363	556.48
0.035581	569.297
0.049162	574.486
0.066881	579.801
0.075965	582.943
0.08532	583.228
