Adsorption isotherm of Methyl ethyl ketone on Tire-derived Activated Carbon
DOI: 10.1061/(asce)0733-9372(2004)130:3(231)
Article source: Figure 4b
Adsorbate Methyl ethyl ketone: InChIKey ZWEHNKRNPOVVGH-UHFFFAOYSA-N
Kind: experiment
Temperature: 293 K
Tabular data in the source: 0
pressure (bar)	uptake (mg/g)
0	-0.948513
0.000167	99.5884
0.000795	123.282
0.001963	152.651
0.022052	221.284
0.048634	260.316
0.075486	296.495
