Adsorption isotherm of Methyl ethyl ketone on Tire-derived Activated Carbon
DOI: 10.1061/(asce)0733-9372(2004)130:3(231)
Article source: Figure 4b
Adsorbate Methyl ethyl ketone: InChIKey ZWEHNKRNPOVVGH-UHFFFAOYSA-N
Kind: experiment
Temperature: 313 K
Tabular data in the source: 0
pressure (bar)	uptake (mg/g)
0.000226	54.0623
0.000453	61.6477
0.001812	89.138
0.022196	155.288
0.049148	190.058
0.07542	208.711
