Adsorption isotherm of Acetone on Activated Carbon Fiber Cloth
DOI: 10.1061/(asce)0733-9372(2004)130:3(231)
Article source: Figure 3a
Adsorbate Acetone: InChIKey CSCPPACGZOOCGX-UHFFFAOYSA-N
Kind: experiment
Temperature: 303 K
Tabular data in the source: 0
pressure (bar)	uptake (mg/g)
0.0003	53.26
0.003083	205.426
0.010822	296.708
0.05547	516.144
0.12735	550.718
0.196266	562.475
