Adsorption isotherm of Acetone on Tire-derived Activated Carbon
DOI: 10.1061/(asce)0733-9372(2004)130:3(231)
Article source: Figure 4a
Adsorbate Acetone: InChIKey CSCPPACGZOOCGX-UHFFFAOYSA-N
Kind: experiment
Temperature: 313 K
Tabular data in the source: 0
pressure (bar)	uptake (mg/g)
0	-0.97629
0	-0.00099
0.001661	36.1082
0.005537	57.5528
0.008859	69.2393
0.05537	145.96
0.128459	191.208
0.197118	212.087
