Adsorption isotherm of Methyl ethyl ketone on Coal-derived Activated Carbon
DOI: 10.1061/(asce)0733-9372(2004)130:3(231)
Article source: Figure 5b
Adsorbate Methyl ethyl ketone: InChIKey ZWEHNKRNPOVVGH-UHFFFAOYSA-N
Kind: experiment
Temperature: 313 K
Tabular data in the source: 0
pressure (bar)	uptake (mg/g)
0.000109	90.4771
0.000972	120.96
0.004078	161.938
0.022031	237.321
0.075906	274.898
