Adsorption isotherm of Methyl ethyl ketone on Activated Carbon Fiber Cloth
DOI: 10.1061/(asce)0733-9372(2004)130:3(231)
Article source: Figure 3b
Adsorbate Methyl ethyl ketone: InChIKey ZWEHNKRNPOVVGH-UHFFFAOYSA-N
Kind: experiment
Temperature: 303 K
Tabular data in the source: 0
pressure (bar)	uptake (mg/g)
0.00045	211.059
0.001512	374.38
0.004401	405.949
0.021781	525.649
0.04868	543.346
0.075293	551.487
