Adsorption isotherm of 2-Pentanone on Activated Carbon Fiber Cloth
DOI: 10.1061/(asce)0733-9372(2004)130:3(231)
Article source: Figure 7a
Adsorbate 2-Pentanone: InChIKey XNLICIUVMPYHGG-UHFFFAOYSA-N
Kind: experiment
Temperature: 293 K
Tabular data in the source: 0
pressure (bar)	uptake (mg/g)
1.9e-05	336.521
0.000438	456.511
0.005255	567.699
0.010572	580.614
0.024523	596.799
0.035067	600.023
