Adsorption isotherm of Methyl ethyl ketone on Coal-derived Activated Carbon
DOI: 10.1061/(asce)0733-9372(2004)130:3(231)
Article source: Figure 5b
Adsorbate Methyl ethyl ketone: InChIKey ZWEHNKRNPOVVGH-UHFFFAOYSA-N
Kind: experiment
Temperature: 323 K
Tabular data in the source: 0
pressure (bar)	uptake (mg/g)
0.000184	80.001
0.000813	105.719
0.004467	146.691
0.022676	207.741
0.048738	244.071
0.075184	257.546
