Adsorption isotherm of Acetone on Coal-derived Activated Carbon
DOI: 10.1061/(asce)0733-9372(2004)130:3(231)
Article source: Figure 5a
Adsorbate Acetone: InChIKey CSCPPACGZOOCGX-UHFFFAOYSA-N
Kind: experiment
Temperature: 293 K
Tabular data in the source: 0
pressure (bar)	uptake (mg/g)
0	0
0.000356	87.0229
0.000557	113.507
0.002843	174.021
0.005165	208.049
0.010083	248.668
0.056158	325.706
0.128343	358.931
0.197698	382.729
