Adsorption isotherm of Methyl ethyl ketone on Activated Carbon Fiber Cloth
DOI: 10.1061/(asce)0733-9372(2004)130:3(231)
Article source: Figure 7a
Adsorbate Methyl ethyl ketone: InChIKey ZWEHNKRNPOVVGH-UHFFFAOYSA-N
Kind: experiment
Temperature: 293 K
Tabular data in the source: 0
pressure (bar)	uptake (mg/g)
0.00014	324.347
0.000922	407.818
0.004774	506.043
0.008912	540.787
0.022543	560.661
0.036013	570.971
0.067368	581.116
0.076599	585.378
0.085499	586.166
