Adsorption isotherm of Acetone on Activated Carbon Fiber Cloth
DOI: 10.1061/(asce)0733-9372(2004)130:3(231)
Article source: Figure 3a
Adsorbate Acetone: InChIKey CSCPPACGZOOCGX-UHFFFAOYSA-N
Kind: experiment
Temperature: 293 K
Tabular data in the source: 0
pressure (bar)	uptake (mg/g)
0	0
0.000144	110.718
0.001312	180.178
0.002909	320.192
0.007739	427.612
0.01043	450.383
0.056178	560.7
0.12863	583.944
0.197888	595.276
