Adsorption isotherm of Acetone on Activated Carbon Fiber Cloth
DOI: 10.1061/(asce)0733-9372(2004)130:3(231)
Article source: Figure 3a
Adsorbate Acetone: InChIKey CSCPPACGZOOCGX-UHFFFAOYSA-N
Kind: experiment
Temperature: 313 K
Tabular data in the source: 0
pressure (bar)	uptake (mg/g)
0.000458	47.8252
0.00095	79.346
0.002549	115.212
0.008509	201.07
0.055397	465.11
0.126158	522.581
0.195894	536.576
