Adsorption isotherm of Acetone on Activated Carbon Fiber Cloth
DOI: 10.1061/(asce)0733-9372(2004)130:3(231)
Article source: Figure 3a
Adsorbate Acetone: InChIKey CSCPPACGZOOCGX-UHFFFAOYSA-N
Kind: experiment
Temperature: 323 K
Tabular data in the source: 0
pressure (bar)	uptake (mg/g)
0.000703	34.7817
0.001448	55.4328
0.003692	115.212
0.010867	147.812
0.053784	386.884
0.12703	485.699
0.195663	506.259
