Adsorption isotherm of Methyl ethyl ketone on Activated Carbon Fiber Cloth
DOI: 10.1061/(asce)0733-9372(2004)130:3(231)
Article source: Figure 3b
Adsorbate Methyl ethyl ketone: InChIKey ZWEHNKRNPOVVGH-UHFFFAOYSA-N
Kind: experiment
Temperature: 313 K
Tabular data in the source: 0
pressure (bar)	uptake (mg/g)
0.000755	152.806
0.002204	289.386
0.004425	327.612
0.022115	484.443
0.048505	518.188
0.075143	529.971
