Adsorption isotherm of Carbon Dioxide on Activated carbon: biomass-based
DOI: 10.1016/j.cej.2018.07.100
Article source: Figure 1b
Adsorbate Carbon Dioxide: InChIKey CURLTUGMZLYLDI-UHFFFAOYSA-N
Kind: experiment
Temperature: 303 K
Tabular data in the source: 0
pressure (bar)	uptake (mmol/g)
0.187	1.08
0.267	1.3
0.386	1.59
0.532	1.86
0.664	2.09
0.797	2.27
0.942	2.43
1.03	2.58
1.21	2.75
1.31	2.84
1.34	2.88
1.55	3.07
1.83	3.27
2.22	3.51
3	3.85
3.39	4
4.01	4.19
5.05	4.48
5.41	4.56
6.24	4.72
7.64	4.94
8.08	5.03
8.97	5.14
9.92	5.26
