Adsorption isotherm of Methane on Activated carbon: biomass-based
DOI: 10.1016/j.cej.2018.07.100
Article source: Figure 1a
Adsorbate Methane: InChIKey VNWKTOKETHGBQD-UHFFFAOYSA-N
Kind: experiment
Temperature: 303 K
Tabular data in the source: 0
pressure (bar)	uptake (mmol/g)
0.238	0.506
0.378	0.68
0.532	0.837
0.644	0.951
0.784	1.07
0.938	1.18
1.05	1.27
1.19	1.33
1.32	1.41
1.58	1.58
1.85	1.7
2.28	1.88
3.1	2.17
3.38	2.26
3.92	2.4
5.04	2.63
5.39	2.69
6.3	2.84
7.58	3.02
8.05	3.09
9.01	3.2
10.1	3.31
