Adsorption isotherm of Carbon Dioxide, Methane on Activated carbon: biomass-based
DOI: 10.1016/j.cej.2018.07.100
Article source: Table 4, Table 3
Adsorbate Carbon Dioxide: InChIKey CURLTUGMZLYLDI-UHFFFAOYSA-N
Adsorbate Methane: InChIKey VNWKTOKETHGBQD-UHFFFAOYSA-N
Kind: experiment
Temperature: 303 K
Tabular data in the source: 0
pressure (bar)	Carbon Dioxide fraction	Carbon Dioxide uptake (mmol/g)	Methane fraction	Methane uptake (mmol/g)	total uptake (mmol/g)
1.2	0.5	2	0.5	0.37	2.37
1.2	0.5	2.05	0.5	0.4	2.45
1.2	0.5	2.08	0.5	0.39	2.47
1.2	0.3	1.44	0.7	0.65	2.09
1.2	0.65	2.42	0.35	0.26	2.68
