Adsorption isotherm of Carbon Dioxide, Methane on Activated carbon: biomass-based
DOI: 10.1016/j.cej.2018.07.100
Article source: Table 2
Adsorbate Carbon Dioxide: InChIKey CURLTUGMZLYLDI-UHFFFAOYSA-N
Adsorbate Methane: InChIKey VNWKTOKETHGBQD-UHFFFAOYSA-N
Kind: experiment
Temperature: 303 K
Tabular data in the source: 0
pressure (bar)	Carbon Dioxide fraction	Carbon Dioxide uptake (mmol/g)	Methane fraction	Methane uptake (mmol/g)	total uptake (mmol/g)
3	0.5	3.09	0.5	0.68	3.77
5	0.5	3.91	0.5	0.96	4.87
10	0.5	5.24	0.5	1.47	6.71
