Adsorption isotherm of Ethanol, Water on Cornmeal
DOI: 10.1002/ceat.200500384
Article source: Table 1
Adsorbate Ethanol: InChIKey LFQSCWFLJHTTHZ-UHFFFAOYSA-N
Adsorbate Water: InChIKey XLYOFNOQVPJJNP-UHFFFAOYSA-N
Kind: experiment
Temperature: 360 K
Tabular data in the source: 0
pressure (bar)	Ethanol fraction	Ethanol uptake (g/g)	Water fraction	Water uptake (g/g)	total uptake (g/g)
1.01325	0.938	0.0356	0.062	0.036	
