Adsorption isotherm of Ethanol, Water on Cornmeal
DOI: 10.1002/ceat.200500384
Article source: Table 1
Adsorbate Ethanol: InChIKey LFQSCWFLJHTTHZ-UHFFFAOYSA-N
Adsorbate Water: InChIKey XLYOFNOQVPJJNP-UHFFFAOYSA-N
Kind: experiment
Temperature: 364 K
Tabular data in the source: 0
pressure (bar)	Ethanol fraction	Ethanol uptake (g/g)	Water fraction	Water uptake (g/g)	total uptake (g/g)
1.01325	0.638	0.0336	0.362	0.2027	
1.01325	0.721	0.0272	0.279	0.126	
1.01325	0.766	0.0277	0.234	0.1043	
1.01325	0.807	0.0261	0.193	0.085	
1.01325	0.85	0.0256	0.15	0.0679	
1.01325	0.878	0.0277	0.122	0.056	
1.01325	0.905	0.0273	0.095	0.045	
1.01325	0.938	0.0252	0.062	0.0292	
1.01325	0.952	0.0318	0.048	0.028	
1.01325	0.974	0.0301	0.026	0.0174	
