Adsorption isotherm of Ethanol, Water on Cornmeal
DOI: 10.1002/ceat.200500384
Article source: Table 1
Adsorbate Ethanol: InChIKey LFQSCWFLJHTTHZ-UHFFFAOYSA-N
Adsorbate Water: InChIKey XLYOFNOQVPJJNP-UHFFFAOYSA-N
Kind: experiment
Temperature: 373 K
Tabular data in the source: 0
pressure (bar)	Ethanol fraction	Ethanol uptake (g/g)	Water fraction	Water uptake (g/g)	total uptake (g/g)
1.01325	0.975	0.0156	0.025	0.0135	
1.01325	0.938	0.0159	0.062	0.0259	
1.01325	0.525	0.0103	0.475	0.1231	
1.01325	0.366	0.0084	0.634	0.1707	
