Adsorption isotherm of Ethanol, Water on Cornmeal
DOI: 10.1002/ceat.200500384
Article source: Table 1
Adsorbate Ethanol: InChIKey LFQSCWFLJHTTHZ-UHFFFAOYSA-N
Adsorbate Water: InChIKey XLYOFNOQVPJJNP-UHFFFAOYSA-N
Kind: experiment
Temperature: 355 K
Tabular data in the source: 0
pressure (bar)	Ethanol fraction	Ethanol uptake (g/g)	Water fraction	Water uptake (g/g)	total uptake (g/g)
1.01325	0.974	0.0747	0.026	0.0189	
1.01325	0.938	0.0701	0.062	0.0411	
