Adsorption isotherm of Nitrogen on Co(BDP)
DOI: 10.1021/Ja8024092
Adsorbate Nitrogen: InChIKey IJGRMHOSHXDMSA-UHFFFAOYSA-N
Temperature: 77 K
Tabular data in the source: 0
pressure (bar)	uptake (cm3(STP)/g)
0	58.8041
0.00182509	273.796
0.0127495	442.905
0.0302285	462.569
0.0455226	606.771
0.213758	608.081
0.309892	610.703
0.419136	612.014
0.607035	613.325
0.705355	613.325
0.899808	610.703
