Adsorption isotherm of Hydrogen on Co(BDP)
DOI: 10.1021/Ja8024092
Adsorbate Hydrogen: InChIKey UFHFLCQGNIYNRP-UHFFFAOYSA-N
Temperature: 87 K
Tabular data in the source: 0
pressure (bar)	uptake (wt%)
0.502783	0.0898898
3.25572	0.207873
9.54816	0.181654
19.249	0.181654
28.8187	0.247201
35.7666	0.352075
42.8456	1.21728
47.8272	2.43644
52.4154	3.11813
64.8692	2.90838
