Adsorption isotherm of Hydrogen on Co(BDP)
DOI: 10.1021/Ja8024092
Adsorbate Hydrogen: InChIKey UFHFLCQGNIYNRP-UHFFFAOYSA-N
Temperature: 50 K
Tabular data in the source: 0
pressure (bar)	uptake (wt%)
1.15824	0.561823
1.55152	1.00754
1.68261	2.25291
2.07589	3.20989
2.46917	3.82602
3.38682	4.73056
3.51791	5.03207
8.36833	5.4909
15.4473	5.53023
17.2826	5.37291
