Adsorption isotherm of Hydrogen on Co(BDP)
DOI: 10.1021/Ja8024092
Adsorbate Hydrogen: InChIKey UFHFLCQGNIYNRP-UHFFFAOYSA-N
Temperature: 77 K
Tabular data in the source: 0
pressure (bar)	uptake (wt%)
0.502783	0.0505621
2.07589	0.325856
16.8893	0.338965
19.3801	0.456949
21.6087	0.627369
23.9683	1.36149
26.0658	2.38401
28.4255	3.00014
36.0288	3.14434
42.3213	3.06569
