Adsorption isotherm of Nitrogen on Co(BDP)
DOI: 10.1021/Ja8024092
Adsorbate Nitrogen: InChIKey IJGRMHOSHXDMSA-UHFFFAOYSA-N
Temperature: 87 K
Tabular data in the source: 0
pressure (bar)	uptake (cm3(STP)/g)
0.00400996	2.43436
0.00400996	100.754
0.0105646	206.939
0.0367831	282.972
0.0979595	393.09
0.156951	445.527
0.323002	495.342
0.425691	538.602
0.607035	588.418
0.899808	604.149
