Adsorption isotherm of Hydrogen on Co(BDP)
DOI: 10.1021/Ja8024092
Adsorbate Hydrogen: InChIKey UFHFLCQGNIYNRP-UHFFFAOYSA-N
Temperature: 65 K
Tabular data in the source: 0
pressure (bar)	uptake (wt%)
0.109505	0.220982
0.89606	0.561823
4.69774	0.666696
8.76161	1.20418
9.41707	1.93829
10.0725	2.60686
11.3835	3.26233
12.5633	3.57695
16.6272	3.60317
25.5414	3.06569
