Adsorption isotherm of Copper(II) Ion on AC Walnut Shell Activated Carbon
DOI: 10.2166/wst.2017.471
Article source: Figure 7a
Adsorbate Copper(II) Ion: InChIKey JPVYNHNXODAKFH-UHFFFAOYSA-N
Kind: experiment
Temperature: 292 K
Tabular data in the source: 0
pressure (bar)	uptake (mg/g)
1.01325	6.237
1.01325	17.225
1.01325	21.789
1.01325	25.631
1.01325	27.89
1.01325	23.499
1.01325	32.861
1.01325	37.815
