Adsorption isotherm of Copper(II) Ion on OAC Walnut Shell Activated Carbon
DOI: 10.2166/wst.2017.471
Article source: Figure 7a
Adsorbate Copper(II) Ion: InChIKey JPVYNHNXODAKFH-UHFFFAOYSA-N
Kind: experiment
Temperature: 292 K
Tabular data in the source: 0
pressure (bar)	uptake (mg/g)
1.01325	8.847
1.01325	17.506
1.01325	25.651
1.01325	33.158
1.01325	39.888
1.01325	57.493
1.01325	67.739
