Adsorption isotherm of Copper(II) Ion on TEAC Walnut Shell Activated Carbon
DOI: 10.2166/wst.2017.471
Article source: Figure 7a
Adsorbate Copper(II) Ion: InChIKey JPVYNHNXODAKFH-UHFFFAOYSA-N
Kind: experiment
Temperature: 292 K
Tabular data in the source: 0
pressure (bar)	uptake (mg/g)
1.01325	6.764
1.01325	13.272
1.01325	17.919
1.01325	22.899
1.01325	27.519
1.01325	37.726
1.01325	39.928
