Adsorption isotherm of Copper(II) Ion on MAC Walnut Shell Activated Carbon
DOI: 10.2166/wst.2017.471
Article source: Figure 7a
Adsorbate Copper(II) Ion: InChIKey JPVYNHNXODAKFH-UHFFFAOYSA-N
Kind: experiment
Temperature: 292 K
Tabular data in the source: 0
pressure (bar)	uptake (mg/g)
1.01325	6.709
1.01325	13.133
1.01325	17.642
1.01325	22.039
1.01325	26.464
1.01325	35.655
1.01325	38.805
