Adsorption isotherm of Hydrogen on Pt/AC/CB/IRMOF-1
DOI: 10.1016/j.jallcom.2009.11.203
Adsorbate Hydrogen: InChIKey UFHFLCQGNIYNRP-UHFFFAOYSA-N
Temperature: 77 K
Tabular data in the source: 0
pressure (bar)	uptake (wt%)
69.1358	2.14984
