Adsorption isotherm of Hydrogen on IRMOF-8
DOI: 10.1016/j.jallcom.2009.11.203
Adsorbate Hydrogen: InChIKey UFHFLCQGNIYNRP-UHFFFAOYSA-N
Temperature: 77 K
Tabular data in the source: 0
pressure (bar)	uptake (wt%)
6.79245	0.0434177
17.1069	0.129866
34.717	0.174564
51.8239	0.247612
68.9308	0.320659
