Adsorption isotherm of Hydrogen on Pt/AC/CB/IRMOF-8
DOI: 10.1016/j.jallcom.2009.11.203
Adsorbate Hydrogen: InChIKey UFHFLCQGNIYNRP-UHFFFAOYSA-N
Temperature: 77 K
Tabular data in the source: 0
pressure (bar)	uptake (wt%)
17.1069	1.1668
51.8239	2.44932
69.1824	3.27523
