Adsorption isotherm of Nitrogen on Pt/AC/CB/IRMOF-8
DOI: 10.1016/j.jallcom.2009.11.203
Adsorbate Nitrogen: InChIKey IJGRMHOSHXDMSA-UHFFFAOYSA-N
Temperature: 77 K
Tabular data in the source: 0
pressure (bar)	uptake (cm3(STP)/g)
0.00431787	74.5205
0.00863573	76.7123
0.032384	83.2877
0.0453376	85.4795
0.0561323	85.4795
0.0734037	87.6712
0.0841984	87.6712
0.0993109	88.7671
0.116582	89.863
0.138172	90.9589
0.157602	92.0548
0.177033	92.0548
0.192145	93.1507
0.192145	96.4384
0.241801	94.2466
0.243959	96.4384
0.293615	99.726
0.295774	96.4384
0.32384	99.726
0.336794	97.5342
0.375654	101.918
0.388608	97.5342
0.427469	104.11
0.438263	99.726
0.490078	121.644
0.535415	103.014
0.537574	122.74
0.585071	104.11
0.58723	124.932
0.632567	126.027
0.634726	104.11
0.682223	106.301
0.684382	128.219
0.727561	109.589
0.731878	131.507
0.779375	112.877
0.779375	134.795
0.798805	113.973
0.803123	136.986
0.826871	140.274
0.82903	118.356
0.85062	121.644
0.85062	142.466
0.876527	126.027
0.878686	146.849
0.893798	149.041
0.900275	133.699
0.919706	154.521
0.924023	143.562
0.943454	162.192
0.949931	156.712
0.956407	165.479
0.958566	163.288
0.967202	172.055
0.969361	169.863
