Adsorption isotherm of Nitrogen on IRMOF-8
DOI: 10.1016/j.jallcom.2009.11.203
Adsorbate Nitrogen: InChIKey IJGRMHOSHXDMSA-UHFFFAOYSA-N
Temperature: 77 K
Tabular data in the source: 0
pressure (bar)	uptake (cm3(STP)/g)
0.00863573	206.027
0.0302251	218.082
0.0453376	220.274
0.0582912	223.562
0.0712448	225.753
0.0841984	226.849
0.097152	229.041
0.118741	231.233
0.136013	231.233
0.138172	240
0.159761	235.616
0.174874	235.616
0.196463	236.712
0.196463	244.384
0.243959	238.904
0.243959	246.575
0.291456	248.767
0.297933	241.096
0.319522	248.767
0.341111	242.192
0.386449	249.863
0.390767	244.384
0.438263	244.384
0.440422	250.959
0.487919	246.575
0.487919	254.247
0.537574	247.671
0.537574	255.342
0.582912	256.438
0.585071	248.767
0.632567	256.438
0.634726	249.863
0.680064	256.438
0.684382	249.863
0.729719	250.959
0.731878	257.534
0.759945	257.534
0.781534	253.151
0.783693	257.534
0.798805	253.151
0.807441	258.63
0.82903	254.247
0.833348	259.726
0.85062	254.247
0.859255	259.726
0.874368	258.63
0.898116	258.63
0.898116	264.11
0.915388	268.493
0.924023	261.918
0.939136	280.548
0.945613	272.877
0.95209	279.452
0.954249	292.603
0.962884	292.603
0.967202	303.562
