Adsorption isotherm of Hydrogen on IRMOF-1
DOI: 10.1016/j.jallcom.2009.11.203
Adsorbate Hydrogen: InChIKey UFHFLCQGNIYNRP-UHFFFAOYSA-N
Temperature: 77 K
Tabular data in the source: 0
pressure (bar)	uptake (wt%)
68.642	0.234528
