Adsorption isotherm of Nitrogen on IRMOF-8
DOI: 10.1016/j.jallcom.2009.11.203
Adsorbate Nitrogen: InChIKey IJGRMHOSHXDMSA-UHFFFAOYSA-N
Temperature: 77 K
Tabular data in the source: 0
pressure (bar)	uptake (cm3(STP)/g)
0.0064768	292.603
0.0280661	320
0.0453376	325.479
0.0604501	328.767
0.0798805	332.055
0.103629	335.342
0.1209	336.438
0.133854	340.822
0.159761	341.918
0.18135	344.11
0.196463	344.11
0.243959	348.493
0.291456	351.781
0.295774	348.493
0.32384	352.877
0.341111	350.685
0.38429	355.068
0.386449	352.877
0.436105	356.164
0.438263	353.973
0.48576	353.973
0.490078	367.123
0.537574	356.164
0.537574	369.315
0.585071	357.26
0.585071	370.411
0.632567	358.356
0.632567	371.507
0.682223	358.356
0.682223	371.507
0.729719	361.644
0.729719	372.603
0.759945	372.603
0.779375	363.836
0.798805	364.932
0.800964	373.699
0.8096	373.699
0.822554	367.123
0.831189	373.699
0.85062	369.315
0.857097	374.795
0.876527	371.507
0.883004	374.795
0.906752	373.699
0.908911	375.89
0.928341	376.986
0.932659	379.178
0.939136	379.178
0.949931	381.37
0.95209	381.37
0.962884	384.658
0.965043	391.233
