Adsorption isotherm of Hydrogen on Pt/AC/CB/IRMOF-8
DOI: 10.1016/j.jallcom.2009.11.203
Adsorbate Hydrogen: InChIKey UFHFLCQGNIYNRP-UHFFFAOYSA-N
Temperature: 77 K
Tabular data in the source: 0
pressure (bar)	uptake (wt%)
17.3585	0.840123
34.717	1.50979
51.3208	1.75323
69.1824	2.38035
