Adsorption isotherm of Nitrogen on TzDBd
DOI: 10.1021/acsanm.9b01781
Article source: Figure 2
Adsorbate Nitrogen: InChIKey IJGRMHOSHXDMSA-UHFFFAOYSA-N
Kind: experiment
Temperature: 77 K
Tabular data in the source: 0
pressure (bar)	uptake (cm3(STP)/g)
0.002592	20.2776
0.041968	34.546
0.102609	43.0297
0.152224	48.9647
0.203676	54.7621
0.255129	59.7967
0.304744	65.2483
0.354358	70.1988
0.405811	75.0462
0.457263	80.1848
0.508716	85.5731
0.558331	89.6311
0.607946	94.5883
0.659398	99.2207
0.710344	105.152
0.757797	109.837
0.789867	113.797
0.834644	119.212
0.86337	123.652
0.908817	132.542
0.936874	142.344
0.964438	159.657
0.990164	213.852
0.008695	27.5618
0.735024	107.597
0.808594	116.078
0.884838	127.208
0.989173	174.912
0.96242	139.929
0.937005	127.208
0.908915	118.728
0.8835	113.428
0.863436	108.127
0.835346	103.357
0.809931	99.6466
0.784516	96.4664
0.760439	92.7562
0.733687	89.576
0.710947	87.9859
0.657442	81.6254
0.606612	76.3251
0.554445	71.5548
0.505622	66.2544
0.454123	62.0141
0.402625	57.7739
0.352464	52.7385
0.303641	47.4382
0.25348	42.4028
0.201312	37.6325
0.150483	31.8021
0.098315	26.5018
0.050161	21.2014
0.024746	16.9611
0.01137	14.311
0.003344	10.0707
0	5.83039
0.000669	1.06007
