Adsorption isotherm of Nitrogen, Oxygen on Tosoh SA-500
DOI: 10.1016/0950-4214(96)00014-x
Article source: Table 4
Adsorbate Nitrogen: InChIKey IJGRMHOSHXDMSA-UHFFFAOYSA-N
Adsorbate Oxygen: InChIKey MYMOFIZGZYHOMD-UHFFFAOYSA-N
Kind: experiment
Temperature: 296 K
Tabular data in the source: 1
pressure (bar)	Nitrogen fraction	Nitrogen uptake (mmol/g)	Oxygen fraction	Oxygen uptake (mmol/g)	total uptake (mmol/g)
0.228	0.8029	0.1681	0.1971	0.0088	0.1769
0.422	0.7982	0.2762	0.2018	0.016	0.2922
0.447	0.7858	0.285	0.2142	0.0184	0.3034
1.01	0.7837	0.5029	0.2163	0.0395	0.5424
2.068	0.7911	0.8329	0.2089	0.0777	0.9106
5.089	0.8016	1.3096	0.1984	0.1395	1.3096
