Adsorption isotherm of Nitrogen on Tosoh SA-500
DOI: 10.1016/0950-4214(96)00014-x
Article source: Table 2
Adsorbate Nitrogen: InChIKey IJGRMHOSHXDMSA-UHFFFAOYSA-N
Kind: experiment
Temperature: 296 K
Tabular data in the source: 1
pressure (bar)	uptake (mmol/g)
0.086	0.0894
0.261	0.2272
0.542	0.3987
1.212	0.951
2.335	1.0345
3.882	1.3574
6.401	1.7085
9.67	2.0129
13.415	2.2529
17.41	2.4371
