Adsorption isotherm of Nitrogen, Oxygen on Tosoh SA-500
DOI: 10.1016/0950-4214(96)00014-x
Article source: Table 5
Adsorbate Nitrogen: InChIKey IJGRMHOSHXDMSA-UHFFFAOYSA-N
Adsorbate Oxygen: InChIKey MYMOFIZGZYHOMD-UHFFFAOYSA-N
Kind: experiment
Temperature: 296 K
Tabular data in the source: 1
pressure (bar)	Nitrogen fraction	Nitrogen uptake (mmol/g)	Oxygen fraction	Oxygen uptake (mmol/g)	total uptake (mmol/g)
0.247	0.7947	0.1533	0.2053	0.0085	0.1618
0.427	0.7947	0.2625	0.2053	0.0159	0.2784
1.03	0.7931	0.4689	0.2069	0.0369	0.5358
1.66	0.8016	0.6346	0.1984	0.0533	0.6879
5.52	0.8005	1.3097	0.1995	0.1338	1.4435
9.096	0.7777	1.8474	0.2223	0.1914	2.0388
