Adsorption isotherm of Nitrogen, Oxygen on Tosoh SA-500
DOI: 10.1016/0950-4214(96)00014-x
Article source: Table 4
Adsorbate Nitrogen: InChIKey IJGRMHOSHXDMSA-UHFFFAOYSA-N
Adsorbate Oxygen: InChIKey MYMOFIZGZYHOMD-UHFFFAOYSA-N
Kind: experiment
Temperature: 296 K
Tabular data in the source: 1
pressure (bar)	Nitrogen fraction	Nitrogen uptake (mmol/g)	Oxygen fraction	Oxygen uptake (mmol/g)	total uptake (mmol/g)
9.211	0.927	1.8648	0.073	0.0845	1.9493
9.15	0.8029	1.6596	0.1971	0.1862	1.8458
9.135	0.7938	1.6947	0.2062	0.2157	1.9104
9.115	0.7765	1.6415	0.2235	0.2273	1.8688
9.19	0.6201	1.4632	0.3799	0.3487	1.8119
9.163	0.4217	1.139	0.5783	0.576	1.715
9.094	0.4137	1.0921	0.5863	0.6015	1.6936
9.15	0.2389	0.7513	0.7611	0.7768	1.5281
9.128	0.18	0.6379	0.82	0.8804	1.5183
