Adsorption isotherm of Oxygen on Tosoh SA-500
DOI: 10.1016/0950-4214(96)00014-x
Article source: Table 3
Adsorbate Oxygen: InChIKey MYMOFIZGZYHOMD-UHFFFAOYSA-N
Kind: experiment
Temperature: 318 K
Tabular data in the source: 1
pressure (bar)	uptake (mmol/g)
0.221	0.0281
0.603	0.0767
1.071	0.1344
2.055	0.2484
3.398	0.3954
4.999	0.5553
7.497	0.7773
10.62	1.0157
14.16	1.2443
17.968	1.4499
