Adsorption isotherm of Oxygen on Tosoh SA-500
DOI: 10.1016/0950-4214(96)00014-x
Article source: Table 3
Adsorbate Oxygen: InChIKey MYMOFIZGZYHOMD-UHFFFAOYSA-N
Kind: experiment
Temperature: 296 K
Tabular data in the source: 1
pressure (bar)	uptake (mmol/g)
0.203	0.0407
0.476	0.0941
0.963	0.1806
1.945	0.3557
3.293	0.5603
5.34	0.8336
7.863	1.1154
10.801	1.3861
13.902	1.6213
17.661	1.8436
