Adsorption isotherm of Nitrogen on Tosoh SA-500
DOI: 10.1016/0950-4214(96)00014-x
Article source: Table 2
Adsorbate Nitrogen: InChIKey IJGRMHOSHXDMSA-UHFFFAOYSA-N
Kind: experiment
Temperature: 318 K
Tabular data in the source: 1
pressure (bar)	uptake (mmol/g)
0.12	0.0669
0.368	0.1816
0.73	0.3193
1.539	0.5584
2.78	0.8346
4.383	1.1013
6.936	1.4117
10.203	1.6951
13.936	1.9298
17.909	2.1158
