Adsorption isotherm of Carbon Dioxide on JLU-Liu2
DOI: 10.1039/C3dt52509k
Adsorbate Carbon Dioxide: InChIKey CURLTUGMZLYLDI-UHFFFAOYSA-N
Temperature: 273 K
Tabular data in the source: 0
pressure (bar)	uptake (mmol/g)
0.00730533	0.0489297
0.0146107	0.122324
0.0194809	0.183486
0.0292213	0.232416
0.0389617	0.281346
0.0487023	0.318043
0.0584427	0.342508
0.0657481	0.40367
0.0779236	0.440367
0.087664	0.501529
0.102275	0.538226
0.148542	0.75841
0.20455	0.966361
0.255687	1.17431
0.306824	1.3578
0.355527	1.51682
0.406664	1.70031
0.455367	1.85933
0.506504	2.04281
0.552771	2.1896
0.611212	2.36086
0.664785	2.49541
0.708618	2.66667
0.762189	2.82569
0.810892	2.97248
0.864465	3.1315
0.915602	3.26606
0.966739	3.41284
1.01057	3.5474
