Adsorption isotherm of Carbon Dioxide on JLU-Liu2-en
DOI: 10.1039/C3dt52509k
Adsorbate Carbon Dioxide: InChIKey CURLTUGMZLYLDI-UHFFFAOYSA-N
Temperature: 298 K
Tabular data in the source: 0
pressure (bar)	uptake (mmol/g)
0.0706182	0.207951
0.0949694	0.244648
0.10471	0.256881
0.150977	0.35474
0.20455	0.464832
0.253251	0.550459
0.306824	0.66055
0.357961	0.733945
0.406664	0.831804
0.457801	0.917431
0.506504	1.01529
0.560075	1.08869
0.608778	1.16208
0.657481	1.25994
0.708618	1.33333
0.759755	1.41896
0.810892	1.49235
0.862029	1.57798
0.915602	1.67584
0.966739	1.74924
1.00814	1.83486
