Adsorption isotherm of Carbon Dioxide on JLU-Liu2-en
DOI: 10.1039/C3dt52509k
Adsorbate Carbon Dioxide: InChIKey CURLTUGMZLYLDI-UHFFFAOYSA-N
Temperature: 273 K
Tabular data in the source: 0
pressure (bar)	uptake (mmol/g)
0.0194809	0.0856269
0.0340916	0.134557
0.0560075	0.207951
0.0706182	0.281346
0.0852289	0.330275
0.102275	0.379205
0.150977	0.513761
0.202114	0.66055
0.253251	0.795107
0.30439	0.929664
0.355527	1.05199
0.404228	1.18654
0.457801	1.30887
0.506504	1.43119
0.557641	1.55352
0.611212	1.68807
0.659915	1.78593
0.708618	1.90826
0.759755	2.01835
0.810892	2.12844
0.864465	2.25076
0.913168	2.34862
0.964305	2.47095
1.01057	2.56881
