Adsorption isotherm of Carbon Dioxide on JLU-Liu2
DOI: 10.1039/C3dt52509k
Adsorbate Carbon Dioxide: InChIKey CURLTUGMZLYLDI-UHFFFAOYSA-N
Temperature: 298 K
Tabular data in the source: 0
pressure (bar)	uptake (mmol/g)
0.0292213	0.0366972
0.0560075	0.0856269
0.0681832	0.110092
0.0803587	0.134557
0.0998395	0.159021
0.150977	0.244648
0.202114	0.293578
0.250817	0.366972
0.30439	0.452599
0.355527	0.513761
0.404228	0.587156
0.457801	0.636086
0.506504	0.70948
0.557641	0.770642
0.608778	0.831804
0.659915	0.892966
0.708618	0.966361
0.762189	1.02752
0.810892	1.08869
0.864465	1.13761
0.913168	1.22324
0.964305	1.27217
1.01057	1.34557
