Adsorption isotherm of Argon on MWCNT
DOI: 10.1021/Jp400480q
Adsorbate Argon: InChIKey XKRFYHLGVUSROY-UHFFFAOYSA-N
Temperature: 87 K
Tabular data in the source: 0
pressure (bar)	uptake (kmol/m3)
0.0440586	6.31711
0.0785764	7.26249
0.108505	8.28725
0.140716	9.0748
0.161425	9.62624
0.189011	9.94011
0.212012	10.4124
0.244186	10.6469
0.276376	11.1184
0.310857	11.5107
0.349938	11.9817
0.391326	12.6106
0.437319	13.397
0.474108	13.9472
0.506298	14.4188
0.543092	15.0479
0.570688	15.5198
0.60058	15.9915
0.63278	16.6211
0.633568	28.63
0.635072	16.5419
0.660391	17.33
0.665742	28.8646
0.690279	17.7227
0.695614	29.0202
0.708697	18.3533
0.734021	19.2204
0.734674	29.1752
0.757043	20.0087
0.766843	29.3307
0.780076	20.955
0.791623	21.9021
0.794413	29.4076
0.828884	29.6419
0.865647	29.797
0.900103	29.7944
0.943752	29.87
0.980515	30.0251
1.01039	30.1808
