Adsorption isotherm of Argon on MWCNT
DOI: 10.1021/Jp400480q
Adsorbate Argon: InChIKey XKRFYHLGVUSROY-UHFFFAOYSA-N
Temperature: 87 K
Tabular data in the source: 0
pressure (bar)	uptake (kmol/m3)
0.00170899	8.90766
0.0290786	11.036
0.0678691	13.795
0.0998545	15.4505
0.141025	16.8694
0.198243	18.2883
0.246296	19.6284
0.314945	21.5203
0.356115	22.9392
0.37669	23.8063
0.383464	25.3829
0.387992	26.25
0.394777	27.6689
0.438286	28.3784
0.507038	28.6937
0.97462	29.7973
