Adsorption isotherm of Argon on MWCNT
DOI: 10.1021/Jp400480q
Adsorbate Argon: InChIKey XKRFYHLGVUSROY-UHFFFAOYSA-N
Temperature: 87 K
Tabular data in the source: 0
pressure (bar)	uptake (kmol/m3)
0.00116279	10.4408
0.00813953	11.6009
0.0232558	12.297
0.0383721	12.761
0.0523256	13.6891
0.0662791	14.2691
0.0813953	15.3132
0.0976744	16.4733
0.109302	17.6334
0.117442	19.0255
0.126744	20.0696
0.139535	20.6497
0.146512	20.8817
0.148837	39.0951
0.152326	21.1137
0.163953	21.6937
0.169767	39.6752
0.180233	22.1578
0.189535	40.1392
0.193023	22.5058
0.204651	22.9698
0.209302	40.3712
0.219767	23.5499
0.232558	40.7193
0.236047	24.3619
0.248837	25.29
0.255814	40.8353
0.259302	25.8701
0.272093	27.3782
0.277907	41.0673
0.282558	28.6543
0.29186	29.6984
0.293023	41.1833
0.3	30.5104
0.306977	31.3225
0.312791	31.6705
0.312791	41.2993
0.313953	41.1833
0.324419	41.4153
0.35	41.4153
0.37093	41.6473
0.397674	41.8794
0.425581	42.1114
0.447674	42.2274
0.476744	42.5754
0.494186	42.5754
