Adsorption isotherm of Carbon Dioxide on ZIF-8
DOI: 10.1021/Jp400480q
Adsorbate Carbon Dioxide: InChIKey CURLTUGMZLYLDI-UHFFFAOYSA-N
Temperature: 303 K
Tabular data in the source: 0
pressure (bar)	uptake (mmol/g)
0.1	0.0540541
0.198032	0.108108
0.328337	0.18018
0.50843	0.252252
0.766078	0.378378
1.00686	0.504505
1.66937	0.846847
2.62058	1.38739
4.1704	2.16216
5.55657	2.86486
7.92702	3.98198
10.5619	4.91892
14.0725	5.94595
17.9966	6.7027
19.5344	7.02703
