Adsorption isotherm of Argon on MWCNT
DOI: 10.1021/Jp400480q
Adsorbate Argon: InChIKey XKRFYHLGVUSROY-UHFFFAOYSA-N
Temperature: 87 K
Tabular data in the source: 0
pressure (bar)	uptake (kmol/m3)
0.0292788	5.8465
0.0657266	6.71558
0.0884905	7.50564
0.104425	8.05869
0.131757	8.76975
0.159094	9.40181
0.193281	9.95485
0.238876	10.5079
0.300426	11.298
0.348297	11.93
0.387047	12.4831
0.441747	13.3521
0.473652	13.9052
0.523799	14.6163
0.562529	15.4853
0.596721	15.9594
0.626345	16.5124
0.63012	28.6005
0.633184	16.5914
0.639236	28.7585
0.662036	28.9955
0.667356	17.3815
0.689409	29.0745
0.706075	18.4086
0.728839	19.1986
0.753879	20.0677
0.760111	29.4695
0.776632	21.0158
0.785197	29.6275
0.787988	21.8059
0.798897	29.4695
0.810289	29.7065
0.823978	29.7065
0.84223	29.7065
0.922068	29.9436
0.983659	30.1016
