Adsorption isotherm of Argon on MWCNT
DOI: 10.1021/Jp400480q
Adsorbate Argon: InChIKey XKRFYHLGVUSROY-UHFFFAOYSA-N
Temperature: 87 K
Tabular data in the source: 0
pressure (bar)	uptake (kmol/m3)
0.0155227	6.87359
0.0405628	7.74266
0.0587688	8.45372
0.0815223	9.40181
0.0974466	10.1129
0.12021	10.9029
0.145261	11.614
0.16804	12.167
0.195388	12.6411
0.234133	13.2731
0.28428	13.9842
0.320743	14.6163
0.364041	15.4063
0.40961	16.3544
0.430118	16.7494
0.45746	17.3025
0.484797	17.9345
0.525818	18.6456
0.555432	19.3567
0.564553	19.4357
0.570805	28.5214
0.591885	20.1467
0.593595	28.9165
0.616935	20.8578
0.62325	28.9955
0.630594	21.3318
0.653368	21.9639
0.659749	29.0745
0.667016	22.5959
0.678377	23.307
0.682554	29.2325
0.682564	29.0745
0.719053	29.3115
0.762387	29.5485
0.853633	29.7856
0.979101	30.0226
