Adsorption isotherm of Argon on MWCNT
DOI: 10.1021/Jp400480q
Adsorbate Argon: InChIKey XKRFYHLGVUSROY-UHFFFAOYSA-N
Temperature: 87 K
Tabular data in the source: 0
pressure (bar)	uptake (kmol/m3)
0.0245561	8.29571
0.0404856	8.92777
0.0564151	9.55982
0.0677713	10.3499
0.0928012	11.377
0.117826	12.4831
0.138318	13.1151
0.163379	13.6682
0.190716	14.3002
0.220345	14.7743
0.249969	15.3273
0.286427	16.0384
0.316046	16.6704
0.341107	17.2235
0.368444	17.8555
0.398063	18.4876
0.423119	19.1196
0.457295	19.8307
0.486914	20.4628
0.511969	21.0948
0.511975	21.0158
0.516059	28.3634
0.532024	28.4424
0.534744	21.7269
0.557106	28.6795
0.557513	22.4379
0.575724	23.07
0.587095	23.623
0.589032	28.9165
0.591313	28.9165
0.641497	29.0745
0.70764	29.3905
0.823983	29.6275
0.908384	29.8646
1.00191	30.1806
