Adsorption isotherm of Hydrogen on Cu-TPBTM
DOI: 10.1021/Jp402304a
Adsorbate Hydrogen: InChIKey UFHFLCQGNIYNRP-UHFFFAOYSA-N
Temperature: 87 K
Tabular data in the source: 0
pressure (bar)	uptake (wt%)
0.0151359	0.0299633
0.110354	0.169795
0.201143	0.313997
0.278646	0.414501
0.411508	0.567442
0.595301	0.742232
0.699376	0.833997
0.838881	0.94761
1.00496	1.10929
