Adsorption isotherm of Hydrogen on Cu-TPBTM
DOI: 10.1021/Jp402304a
Adsorbate Hydrogen: InChIKey UFHFLCQGNIYNRP-UHFFFAOYSA-N
Temperature: 298 K
Tabular data in the source: 0
pressure (bar)	uptake (wt%)
0.184973	0.0124843
12.5854	0.209123
23.6573	0.397022
34.0648	0.554333
45.5796	0.720383
52.2227	0.825257
66.3946	1.00879
78.3522	1.1661
87.6526	1.2666
94.96	1.35837
100.717	1.42828
