Adsorption isotherm of Hydrogen on Cu-TPBTM
DOI: 10.1021/Jp402304a
Adsorbate Hydrogen: InChIKey UFHFLCQGNIYNRP-UHFFFAOYSA-N
Temperature: 77 K
Tabular data in the source: 0
pressure (bar)	uptake (wt%)
0.0107046	0.077718
0.0439119	0.313684
0.121396	0.582424
0.194452	0.824945
0.234301	0.962592
0.342778	1.21822
0.433545	1.42797
0.555305	1.67705
0.66821	1.88679
0.787757	2.08999
0.927227	2.28663
1.0025	2.37839
