Adsorption isotherm of Hydrogen on Cu-TPBTM
DOI: 10.1021/Jp402304a
Adsorbate Hydrogen: InChIKey UFHFLCQGNIYNRP-UHFFFAOYSA-N
Temperature: 87 K
Tabular data in the source: 0
pressure (bar)	uptake (wt%)
0.0107072	0.0387028
0.105925	0.327106
0.214429	0.598031
0.322933	0.807778
0.418151	0.982568
0.506726	1.1224
0.608587	1.25786
0.717091	1.40206
0.812309	1.51131
0.927456	1.63803
1.00717	1.73853
