Adsorption isotherm of Hydrogen on Cu-TPBTM
DOI: 10.1021/Jp402304a
Adsorbate Hydrogen: InChIKey UFHFLCQGNIYNRP-UHFFFAOYSA-N
Temperature: 87 K
Tabular data in the source: 0
pressure (bar)	uptake (wt%)
0.0040641	0.0212238
0.0616377	0.108619
0.165713	0.279039
0.241002	0.392652
0.362792	0.532484
0.462439	0.637358
0.593086	0.764081
0.703805	0.877694
0.790165	0.96072
0.898669	1.04811
1.00274	1.12677
