Adsorption isotherm of Hydrogen on Cu-TPBTM
DOI: 10.1021/Jp402304a
Adsorbate Hydrogen: InChIKey UFHFLCQGNIYNRP-UHFFFAOYSA-N
Temperature: 77 K
Tabular data in the source: 0
pressure (bar)	uptake (wt%)
0.0107046	0.0973819
0.0726916	0.372676
0.185597	0.700407
0.322854	1.03469
0.460111	1.31654
0.617292	1.58528
0.829819	1.89335
1.00028	2.14242
