Adsorption isotherm of Hydrogen on Cu-TPBTM
DOI: 10.1021/Jp402304a
Adsorbate Hydrogen: InChIKey UFHFLCQGNIYNRP-UHFFFAOYSA-N
Temperature: 77 K
Tabular data in the source: 0
pressure (bar)	uptake (wt%)
0.00184927	0.025281
0.0483396	0.20881
0.101471	0.379231
0.190024	0.575869
0.296288	0.779063
0.387055	0.962592
0.466752	1.10024
0.57523	1.25755
0.732411	1.49352
0.843102	1.63772
1.00471	1.8278
