Adsorption isotherm of Hydrogen on Cu-TPBTM
DOI: 10.1021/Jp402304a
Adsorbate Hydrogen: InChIKey UFHFLCQGNIYNRP-UHFFFAOYSA-N
Temperature: 298 K
Tabular data in the source: 0
pressure (bar)	uptake (wt%)
0.184973	0.0124843
12.5854	0.209123
23.6573	0.397022
34.0648	0.554333
45.5796	0.720383
52.2227	0.825257
59.5301	0.895173
69.0519	1.00879
82.3381	1.18358
93.1885	1.34526
100.053	1.42391
