Adsorption isotherm of Hydrogen on Cu-TPBTM
DOI: 10.1021/Jp402304a
Adsorbate Hydrogen: InChIKey UFHFLCQGNIYNRP-UHFFFAOYSA-N
Temperature: 87 K
Tabular data in the source: 0
pressure (bar)	uptake (wt%)
0.0151359	0.0387028
0.0948533	0.226602
0.205572	0.466938
0.382721	0.702904
0.497869	0.860215
0.61523	1.00879
0.763593	1.17484
0.841096	1.25786
1.00274	1.35837
