Adsorption isotherm of Hydrogen on Cu-TPBTM
DOI: 10.1021/Jp402304a
Adsorbate Hydrogen: InChIKey UFHFLCQGNIYNRP-UHFFFAOYSA-N
Temperature: 87 K
Tabular data in the source: 0
pressure (bar)	uptake (wt%)
0.000365	0.00811453
0.0328509	0.130467
0.0859958	0.318367
0.203357	0.6024
0.311861	0.825257
0.409294	0.978199
0.500083	1.13114
0.617445	1.28845
0.741449	1.44576
0.865454	1.58559
1.00717	1.72106
