Adsorption isotherm of Hydrogen on Cu-TPBTM
DOI: 10.1021/Jp402304a
Adsorbate Hydrogen: InChIKey UFHFLCQGNIYNRP-UHFFFAOYSA-N
Temperature: 77 K
Tabular data in the source: 0
pressure (bar)	uptake (wt%)
0.0107046	0.0646088
0.0284152	0.333348
0.0616225	0.543096
0.103685	0.883936
0.201093	1.23789
0.311785	1.52629
0.406979	1.76881
0.497746	1.95889
0.601795	2.18831
0.72577	2.35873
0.891806	2.56192
1.0025	2.68646
