Adsorption isotherm of Hydrogen on Cu-TPBTM
DOI: 10.1021/Jp402304a
Adsorbate Hydrogen: InChIKey UFHFLCQGNIYNRP-UHFFFAOYSA-N
Temperature: 298 K
Tabular data in the source: 0
pressure (bar)	uptake (wt%)
0.184973	0.0124843
12.5854	0.209123
23.6573	0.397022
34.0648	0.554333
64.8446	0.995678
75.695	1.1224
88.7598	1.29282
97.6172	1.39332
