Adsorption isotherm of Hydrogen on Cu-TPBTM
DOI: 10.1021/Jp402304a
Adsorbate Hydrogen: InChIKey UFHFLCQGNIYNRP-UHFFFAOYSA-N
Temperature: 87 K
Tabular data in the source: 0
pressure (bar)	uptake (wt%)
0.0107072	0.0212238
0.105925	0.200383
0.207786	0.401392
0.289718	0.532484
0.398222	0.702904
0.504512	0.833997
0.630731	0.986938
0.779094	1.14862
0.885383	1.25349
0.993887	1.36274
