Adsorption isotherm of Hydrogen on Cu-TPBTM
DOI: 10.1021/Jp402304a
Adsorbate Hydrogen: InChIKey UFHFLCQGNIYNRP-UHFFFAOYSA-N
Temperature: 298 K
Tabular data in the source: 0
pressure (bar)	uptake (wt%)
0.184973	0.0124843
13.9141	0.248451
27.2003	0.480047
38.4936	0.646098
54.437	0.912652
64.4017	1.03501
82.5595	1.25349
93.4099	1.40206
100.274	1.47198
