Adsorption isotherm of Hydrogen on Cu-TPBTM
DOI: 10.1021/Jp402304a
Adsorbate Hydrogen: InChIKey UFHFLCQGNIYNRP-UHFFFAOYSA-N
Temperature: 77 K
Tabular data in the source: 0
pressure (bar)	uptake (wt%)
0.00184927	0.025281
0.0461257	0.228474
0.159031	0.536542
0.305143	0.824945
0.409193	1.02814
0.542022	1.23789
0.683707	1.44108
0.84753	1.67049
1.00693	1.86058
