Adsorption isotherm of Hydrogen on Cu-TPBTM
DOI: 10.1021/Jp402304a
Adsorbate Hydrogen: InChIKey UFHFLCQGNIYNRP-UHFFFAOYSA-N
Temperature: 298 K
Tabular data in the source: 0
pressure (bar)	uptake (wt%)
0.184973	0.0124843
12.5854	0.209123
23.6573	0.397022
34.0648	0.554333
45.5796	0.720383
57.5371	0.899543
71.4877	1.0787
88.0955	1.28408
100.717	1.43702
