Adsorption isotherm of Hydrogen on Cu-TPBTM
DOI: 10.1021/Jp402304a
Adsorbate Hydrogen: InChIKey UFHFLCQGNIYNRP-UHFFFAOYSA-N
Temperature: 77 K
Tabular data in the source: 0
pressure (bar)	uptake (wt%)
0.00849074	0.0580541
0.0416981	0.261247
0.116968	0.523432
0.192238	0.772508
0.305143	1.06747
0.400338	1.28377
0.528739	1.5394
0.677065	1.81469
0.827605	2.05066
0.995856	2.31284
