Adsorption isotherm of Hydrogen on Cu-TPBTM
DOI: 10.1021/Jp402304a
Adsorbate Hydrogen: InChIKey UFHFLCQGNIYNRP-UHFFFAOYSA-N
Temperature: 298 K
Tabular data in the source: 0
pressure (bar)	uptake (wt%)
0.184973	0.0124843
13.9141	0.248451
27.2003	0.480047
59.0872	0.938871
70.3805	1.10055
84.1096	1.27097
99.1673	1.46761
