Adsorption isotherm of Hydrogen on Cu-TPBTM
DOI: 10.1021/Jp402304a
Adsorbate Hydrogen: InChIKey UFHFLCQGNIYNRP-UHFFFAOYSA-N
Temperature: 77 K
Tabular data in the source: 0
pressure (bar)	uptake (wt%)
0.00849074	0.0842726
0.0505534	0.470995
0.103685	0.805281
0.174528	1.08058
0.27415	1.36898
0.387055	1.63772
0.539808	1.93923
0.683707	2.18831
0.829819	2.40461
1.01135	2.61436
