Adsorption isotherm of Hydrogen on Cu-TPBTM
DOI: 10.1021/Jp402304a
Adsorbate Hydrogen: InChIKey UFHFLCQGNIYNRP-UHFFFAOYSA-N
Temperature: 87 K
Tabular data in the source: 0
pressure (bar)	uptake (wt%)
0.00849284	0.0387028
0.139141	0.26156
0.24543	0.43198
0.369435	0.598031
0.469082	0.716014
0.648446	0.921392
0.825595	1.1224
1.00717	1.29282
