Adsorption isotherm of Nitrogen on MIL-100(Fe)
DOI: 10.1016/j.micromeso.2011.12.001
Adsorbate Nitrogen: InChIKey IJGRMHOSHXDMSA-UHFFFAOYSA-N
Temperature: 77 K
Tabular data in the source: 0
pressure (bar)	uptake (cm3(STP)/g)
0.00754731	310.206
0.011062	334.076
0.0347028	385.161
0.054866	416.837
0.0649846	437.137
0.0783958	454.537
0.0917886	469.705
0.108456	479.743
0.121848	494.911
0.165227	526.362
0.248118	523.006
0.277937	519.21
0.311068	514.745
0.340887	510.949
0.377328	505.814
0.420393	499.34
0.460145	493.535
0.503209	487.06
0.546255	478.355
0.625761	466.746
0.665495	458.71
0.711852	449.335
0.751586	441.299
0.79465	434.825
0.834385	426.789
0.874138	420.984
0.917183	412.279
0.956936	406.474
0.9936	428.11
