Adsorption isotherm of Carbon Dioxide on MIL-100(Cr)
DOI: 10.1016/j.micromeso.2011.12.001
Adsorbate Carbon Dioxide: InChIKey CURLTUGMZLYLDI-UHFFFAOYSA-N
Temperature: 303 K
Tabular data in the source: 0
pressure (bar)	uptake (cm3(STP)/g)
0.666667	51.4667
1.83333	85.819
3.66667	123.067
6.66667	168.952
8	186.171
11	220.629
11.6667	229.238
13	243.6
16.6667	280.952
18.1667	292.467
20.5	309.743
22	321.257
23.5	332.771
26.3333	350.076
27.8333	364.448
29.3333	375.962
32	398.971
33.6667	404.781
35.1667	410.581
37	424.971
38.5	436.486
40.6667	450.895
41.1667	465.21
42.3333	485.276
43.3333	508.19
44.3333	531.105
44.6667	553.981
45.8333	559.762
47.1667	576.981
48.5	594.2
49.5	611.4
