Adsorption isotherm of Nitrogen on MIL-100(Cr)
DOI: 10.1016/j.micromeso.2011.12.001
Adsorbate Nitrogen: InChIKey IJGRMHOSHXDMSA-UHFFFAOYSA-N
Temperature: 77 K
Tabular data in the source: 0
pressure (bar)	uptake (cm3(STP)/g)
0.00717734	265.588
0.0140032	288.788
0.0208291	311.989
0.0309662	334.52
0.0411032	357.051
0.05457	381.143
0.0646331	394.75
0.0746592	403.896
0.0847037	415.272
0.0946743	417.725
0.108012	426.201
0.121404	441.37
0.177972	463.449
0.241014	466.342
0.280823	467.23
0.323924	465.218
0.350469	466.553
0.373666	464.097
0.416767	462.084
0.459868	460.071
0.499621	454.267
0.546033	451.584
0.589097	445.11
0.625539	439.975
0.671914	432.831
0.711667	427.026
0.75142	421.221
0.794484	414.747
0.834218	406.711
0.877282	400.237
0.917035	394.432
0.956806	390.858
0.989974	390.854
