Adsorption isotherm of Nitrogen on MIL-100(V)
DOI: 10.1016/j.micromeso.2011.12.001
Adsorbate Nitrogen: InChIKey IJGRMHOSHXDMSA-UHFFFAOYSA-N
Temperature: 77 K
Tabular data in the source: 0
pressure (bar)	uptake (cm3(STP)/g)
0.00747332	301.282
0.0143177	326.713
0.0178879	357.276
0.0346103	374.006
0.0413622	388.283
0.054755	403.452
0.0648921	425.983
0.081596	440.482
0.0883479	454.759
0.098374	463.904
0.108382	470.819
0.121793	488.218
0.161805	513.646
0.178416	516.991
0.214876	514.086
0.244714	512.522
0.267911	510.065
0.291126	509.839
0.307701	508.722
0.330898	506.265
0.357406	503.139
0.373962	499.791
0.400488	498.896
0.420374	497.109
0.460145	493.535
0.503209	487.06
0.542962	481.256
0.586045	477.012
0.625798	471.207
0.672191	466.294
0.711926	458.259
0.751697	454.685
0.788139	449.55
0.83124	447.537
0.874322	443.293
0.917405	439.05
0.953921	442.838
0.990492	453.32
