Adsorption isotherm of Methane on MIL-100(Cr)
DOI: 10.1016/j.micromeso.2011.12.001
Adsorbate Methane: InChIKey VNWKTOKETHGBQD-UHFFFAOYSA-N
Temperature: 303 K
Tabular data in the source: 0
pressure (bar)	uptake (cm3(STP)/g)
0.996678	7.10059
2.82392	19.5266
4.98339	34.6154
7.80731	47.929
10.9635	61.2426
12.1262	68.3432
14.2857	75.4438
17.1096	87.8698
19.9336	96.7456
22.5914	103.846
25.2492	115.385
27.4086	121.598
30.0664	130.473
32.2259	135.799
34.7176	141.124
37.2093	146.45
39.701	152.663
42.3588	161.538
45.1827	165.089
47.5083	168.639
