Adsorption isotherm of Methane on MIL-100(V)
DOI: 10.1016/j.micromeso.2011.12.001
Adsorbate Methane: InChIKey VNWKTOKETHGBQD-UHFFFAOYSA-N
Temperature: 303 K
Tabular data in the source: 0
pressure (bar)	uptake (cm3(STP)/g)
0.996678	6.21302
2.65781	21.3018
4.81728	33.7278
7.80731	48.8166
10.7973	60.355
13.1229	71.0059
17.2757	89.645
19.7674	96.7456
22.093	107.396
24.9169	114.497
27.2425	122.485
30.2326	131.361
32.7243	138.462
35.2159	146.45
37.2093	151.775
39.701	157.988
42.0266	163.314
44.8505	167.751
47.3422	173.077
49.6678	177.515
50.9967	179.29
