Adsorption isotherm of Carbon Dioxide on MIL-100(Fe)
DOI: 10.1016/j.micromeso.2011.12.001
Adsorbate Carbon Dioxide: InChIKey CURLTUGMZLYLDI-UHFFFAOYSA-N
Temperature: 303 K
Tabular data in the source: 0
pressure (bar)	uptake (cm3(STP)/g)
0.5	31.4571
1.66667	65.8095
3.83333	100.219
6.66667	137.524
10	169.143
13.3333	203.619
16.1667	229.495
18.3333	243.905
20.5	258.314
22.3333	272.705
24.5	278.543
25.8333	295.762
28.5	295.914
29.3333	301.676
30.8333	307.476
32.3333	316.133
33.8333	321.933
34.6667	327.695
37.6667	336.438
40.3333	342.305
42.5	351
44.6667	373.981
47	374.114
