Adsorption isotherm of Methane on MIL-100(Fe)
DOI: 10.1016/j.micromeso.2011.12.001
Adsorbate Methane: InChIKey VNWKTOKETHGBQD-UHFFFAOYSA-N
Temperature: 303 K
Tabular data in the source: 0
pressure (bar)	uptake (cm3(STP)/g)
2.49169	11.5385
3.32226	15.9763
4.48505	21.3018
4.98339	23.9645
6.14618	30.1775
7.47508	37.2781
8.80399	42.6036
10.4651	49.7041
11.794	55.0296
13.4551	62.1302
14.7841	67.4556
18.1063	79.8817
20.2658	86.9822
22.4252	94.9704
24.9169	100.296
27.907	109.172
29.9003	115.385
32.2259	119.822
35.0498	125.148
38.0399	132.249
39.5349	135.799
42.5249	142.899
43.1894	144.675
45.0166	150
47.5083	155.325
