Adsorption isotherm of Carbon Dioxide on MIL-100(V)
DOI: 10.1016/j.micromeso.2011.12.001
Adsorbate Carbon Dioxide: InChIKey CURLTUGMZLYLDI-UHFFFAOYSA-N
Temperature: 303 K
Tabular data in the source: 0
pressure (bar)	uptake (cm3(STP)/g)
0.666667	37.181
2.16667	62.981
4.5	100.257
7.33333	143.276
10.5	186.314
13.3333	217.905
15.8333	243.762
18	261.029
20.1667	278.295
22	292.686
23.6667	304.21
25	312.857
27.6667	330.152
31.5	353.229
35.3333	370.59
38	387.886
40.3333	405.162
42.3333	422.419
44.6667	451.124
46.6667	456.952
48.6667	482.781
50.5	497.171
