Adsorption isotherm of Carbon Dioxide on Apohost 1
DOI: 10.1021/Cm0614057
Adsorbate Carbon Dioxide: InChIKey CURLTUGMZLYLDI-UHFFFAOYSA-N
Temperature: 195 K
Tabular data in the source: 0
pressure (bar)	uptake (cm3(STP)/g)
0.00200498	0.149791
0.00309742	6.61702
0.00309742	9.41366
0.00637473	30.0389
0.027131	54.1599
0.054442	60.2775
0.106879	65.1716
0.163686	67.4439
0.217215	68.8422
0.26856	69.5414
0.325366	70.2405
0.378896	70.7649
0.429148	71.2893
0.488139	71.2893
