Adsorption isotherm of Carbon Dioxide on Apohost 1
DOI: 10.1021/Cm0614057
Adsorbate Carbon Dioxide: InChIKey CURLTUGMZLYLDI-UHFFFAOYSA-N
Temperature: 273 K
Tabular data in the source: 0
pressure (bar)	uptake (cm3(STP)/g)
0.00149677	2.97142
0.00287324	6.03024
0.00431526	8.4773
0.00595391	10.6185
0.00752702	12.9126
0.00870685	14.442
0.0101489	16.3538
0.011722	17.6538
0.0130329	19.5655
0.0159825	22.0891
0.0174245	23.1597
0.0233892	27.2126
0.0247657	28.1302
0.0275186	29.4302
