Adsorption isotherm of Carbon Dioxide on Apohost 1
DOI: 10.1021/Cm0614057
Adsorbate Carbon Dioxide: InChIKey CURLTUGMZLYLDI-UHFFFAOYSA-N
Temperature: 273 K
Tabular data in the source: 0
pressure (bar)	uptake (cm3(STP)/g)
0.000841	1.13612
0.00234887	3.73612
0.00379089	6.33612
0.005364	8.70671
0.00654383	10.4655
0.00811694	12.5302
0.00969005	14.442
0.0109354	16.1244
0.012443	17.6538
0.0174245	22.3185
0.0189321	23.2361
0.0204396	24.4597
0.0234548	26.7538
0.0254867	27.9773
0.0291573	30.4244
