Adsorption isotherm of Carbon Dioxide on PCN-23
DOI: 10.1021/acsami.5b04842
Article source: Figure 6a- PCN 23
Adsorbate Carbon Dioxide: InChIKey CURLTUGMZLYLDI-UHFFFAOYSA-N
Kind: experiment
Temperature: 273 K
Tabular data in the source: 0
pressure (bar)	uptake (mmol/g)
0.03104	0.76605
0.07893	1.35753
0.09811	1.44634
0.35474	2.61118
0.40056	2.74784
0.45017	2.87717
0.501	2.99915
0.55016	3.10195
0.60086	3.207
0.6506	3.30076
0.70052	3.38832
0.77613	3.50751
0.85076	3.61372
0.92598	3.71485
0.99058	3.79903
