Adsorption isotherm of Nitrogen on PCN-13
DOI: 10.1021/acsami.5b04842
Article source: Figure 3- PCN 13
Adsorbate Nitrogen: InChIKey IJGRMHOSHXDMSA-UHFFFAOYSA-N
Kind: experiment
Temperature: 77 K
Tabular data in the source: 0
pressure (bar)	uptake (cm3(STP)/g)
9.1e-05	99.31
0.000294	115.17
0.000861	120.59
0.020549	161.68
0.040652	169.25
0.056367	169.8
0.315303	180.5
0.347079	182.61
0.364699	180.48
0.39842	183.57
0.410478	181.79
0.448799	184.37
0.461475	182.34
0.499036	183.27
0.51157	180.22
0.549962	183.69
0.563691	181.34
0.600543	183.48
0.613574	182.4
0.652107	183.46
0.66457	181.8
0.701706	182.67
0.716064	182.16
0.752298	183.16
0.766301	182.2
0.802251	183.01
0.81751	182.5
0.853663	182.8
0.867737	182.85
0.918248	182.07
0.955951	182.56
0.968282	181.61
0.980958	181.92
0.99413	182.17
1.00848	181.46
