Adsorption isotherm of Carbon Dioxide on PCN-24
DOI: 10.1021/acsami.5b04842
Article source: Figure 6a- PCN 24
Adsorbate Carbon Dioxide: InChIKey CURLTUGMZLYLDI-UHFFFAOYSA-N
Kind: experiment
Temperature: 273 K
Tabular data in the source: 0
pressure (bar)	uptake (mmol/g)
0.01572	0.51201
0.0313	0.81629
0.05783	1.20187
0.07688	1.40059
0.10076	1.61739
0.1209	1.78506
0.14105	1.92621
0.1608	2.04873
0.18088	2.1735
0.20096	2.28417
0.22097	2.38467
0.24993	2.52018
0.30057	2.73192
0.35469	2.92448
0.40063	3.07694
0.45134	3.22377
0.50127	3.35704
0.55114	3.48129
0.60087	3.59763
0.65087	3.70325
0.6999	3.7908
0.77537	3.9258
0.85033	4.05007
0.92613	4.17547
0.99021	4.26474
