Adsorption isotherm of Nitrogen on PCN-14
DOI: 10.1021/acsami.5b04842
Article source: Figure 3- PCN 14
Adsorbate Nitrogen: InChIKey IJGRMHOSHXDMSA-UHFFFAOYSA-N
Kind: experiment
Temperature: 77 K
Tabular data in the source: 0
pressure (bar)	uptake (cm3(STP)/g)
0.000142	43.67
0.019667	214.48
0.0497	221.14
0.083421	224.96
0.098609	228.13
0.110039	226.42
0.123687	230.49
0.136231	229.16
0.14759	231.06
0.162779	230.44
0.172739	232.34
0.188971	229.18
0.198171	232.6
0.214758	231.66
0.223391	233.25
0.239907	231.1
0.248611	233.51
0.265542	232
0.273973	233.96
0.290975	233.21
0.298574	234.99
0.31738	233.54
0.347413	236.27
0.366219	234.44
0.398136	236.1
0.412342	235.22
0.448718	236.25
0.464251	237.14
0.499856	236.9
0.513718	236.27
0.551066	238.88
0.565069	236.29
0.600391	237.64
0.617535	236.69
0.650557	238.1
0.667073	237.47
0.702324	238.37
0.717097	237.93
0.752703	238.77
0.767121	238.78
0.802788	238.92
0.817916	239.24
0.853795	238.49
0.868913	239.19
0.905349	238.26
0.91922	238.14
0.956488	238.78
0.969103	239.49
0.981647	239.3
0.993978	239.88
1.00895	239.5
