Adsorption isotherm of Nitrogen on PCN-14(550)
DOI: 10.1021/acsami.5b04842
Article source: Figure 5a- 550
Adsorbate Nitrogen: InChIKey IJGRMHOSHXDMSA-UHFFFAOYSA-N
Kind: experiment
Temperature: 77 K
Tabular data in the source: 0
pressure (bar)	uptake (cm3(STP)/g)
7.1e-05	92.945
0.000132	62.867
0.000203	22.824
0.000345	42.868
0.000679	124.921
0.000952	154.298
0.001712	170.863
0.002938	174.524
0.004509	180.038
0.0069	185.303
0.017904	191.7
0.032049	196.288
0.04435	198.64
0.055141	200.065
0.083705	202.893
0.097718	206.081
0.109745	204.704
0.122654	207.259
0.136738	206.085
0.147327	208.414
0.161127	207.082
0.172881	209.411
0.187512	207.808
0.197898	210.182
0.212864	208.511
0.222763	210.75
0.238144	209.237
0.248327	211.272
0.264722	209.76
0.273466	211.885
0.289394	210.102
0.297865	212.363
0.315425	210.828
0.348365	213.43
0.365175	211.647
0.399069	213.82
0.411775	211.901
0.449224	214.481
0.462275	212.765
0.499522	214.871
0.513667	213.404
0.55063	215.351
0.564299	213.726
0.601131	215.628
0.614384	214.274
0.652037	215.927
0.665503	214.505
0.702192	216.385
0.716064	215.189
0.752835	216.662
0.767253	215.398
0.803669	216.939
0.816994	215.991
0.853694	217.215
0.867909	216.336
0.905278	217.402
0.918471	216.974
0.956123	217.746
0.969518	217.635
0.983319	218.156
0.992276	217.977
1.00587	219.402
