Adsorption isotherm of Carbon Dioxide on PCN-23
DOI: 10.1021/acsami.5b04842
Article source: Figure 6b- PCN 23
Adsorbate Carbon Dioxide: InChIKey CURLTUGMZLYLDI-UHFFFAOYSA-N
Kind: experiment
Temperature: 298 K
Tabular data in the source: 0
pressure (bar)	uptake (mmol/g)
0.03089	0.35378
0.05927	0.56018
0.07806	0.67823
0.10129	0.80723
0.12117	0.903
0.14112	0.99213
0.16106	1.07109
0.18101	1.15005
0.20147	1.23096
0.22128	1.30093
0.25178	1.39474
0.30113	1.54054
0.35305	1.68047
0.40111	1.78718
0.45123	1.89154
0.50071	1.99941
0.55121	2.08892
0.60139	2.16669
0.65184	2.25072
0.70125	2.32693
0.77665	2.43363
0.85166	2.52899
0.92642	2.61653
0.99063	2.69625
