Adsorption isotherm of Carbon Dioxide on PCN-24
DOI: 10.1021/acsami.5b04842
Article source: Figure 6b- PCN 24
Adsorbate Carbon Dioxide: InChIKey CURLTUGMZLYLDI-UHFFFAOYSA-N
Kind: experiment
Temperature: 298 K
Tabular data in the source: 0
pressure (bar)	uptake (mmol/g)
0.01963	0.27912
0.03076	0.39326
0.05921	0.63172
0.07819	0.7658
0.10129	0.91317
0.12104	1.02302
0.14112	1.12426
0.16139	1.22042
0.18153	1.31189
0.20154	1.39711
0.22116	1.4702
0.25082	1.57848
0.30101	1.74226
0.35396	1.90057
0.40112	2.02643
0.45156	2.14916
0.50162	2.26564
0.55096	2.37351
0.60179	2.47044
0.65101	2.56699
0.70138	2.65375
0.77608	2.77569
0.85135	2.89451
0.92553	2.99534
0.99006	3.08484
