Adsorption isotherm of Carbon Dioxide on PCN-43
DOI: 10.1021/acsami.5b04842
Article source: Figure 6a- PCN 43
Adsorbate Carbon Dioxide: InChIKey CURLTUGMZLYLDI-UHFFFAOYSA-N
Kind: experiment
Temperature: 273 K
Tabular data in the source: 0
pressure (bar)	uptake (mmol/g)
0.00863	0.31726
0.02055	0.51428
0.03123	0.72823
0.05995	1.10027
0.07977	1.29278
0.10127	1.46836
0.12167	1.62983
0.14046	1.75517
0.15874	1.86922
0.18094	1.99456
0.20153	2.09732
0.22142	2.19839
0.2514	2.32769
0.29883	2.51628
0.3496	2.6919
0.40088	2.85961
0.44991	3.00023
0.50087	3.12617
0.55119	3.2521
0.60112	3.36788
0.65125	3.47519
0.70092	3.57799
0.77575	3.71637
0.85103	3.84742
0.9256	3.96718
0.99097	4.07168
