Adsorption isotherm of Nitrogen on PCN-14(500)
DOI: 10.1021/acsami.5b04842
Article source: Figure 5a- 500
Adsorbate Nitrogen: InChIKey IJGRMHOSHXDMSA-UHFFFAOYSA-N
Kind: experiment
Temperature: 77 K
Tabular data in the source: 0
pressure (bar)	uptake (cm3(STP)/g)
7.1e-05	16.722
0.000203	72.019
0.000274	91.341
0.000405	34.756
0.000547	53.06
0.000892	132.853
0.001023	111.792
0.002391	175.586
0.011348	195.134
0.037652	204.899
0.052274	207.206
0.08104	210.146
0.099836	213.583
0.10933	211.867
0.124295	214.919
0.135775	213.181
0.148694	215.916
0.161472	214.313
0.173023	216.823
0.187097	215.198
0.198445	217.459
0.212995	215.969
0.223037	218.094
0.238762	216.65
0.248733	218.639
0.263151	216.811
0.273537	219.32
0.288026	217.039
0.298139	219.571
0.316114	218.33
0.348842	220.3
0.365854	218.72
0.398866	220.938
0.411167	219.471
0.449772	221.622
0.462893	220.064
0.500475	221.989
0.512846	220.68
0.54981	222.402
0.563955	221.205
0.600989	222.904
0.614455	221.482
0.651489	223.272
0.665158	221.962
0.701645	223.435
0.716206	222.285
0.752622	223.577
0.765672	222.719
0.803122	223.876
0.817065	223.064
0.854099	224.04
0.867697	223.454
0.90392	224.294
0.91922	223.64
0.956397	224.39
0.969042	224.166
0.981748	224.416
0.993157	224.394
1.00854	224.577
