Adsorption isotherm of Nitrogen on PCN-14(440)
DOI: 10.1021/acsami.5b04842
Article source: Figure 5a- 440
Adsorbate Nitrogen: InChIKey IJGRMHOSHXDMSA-UHFFFAOYSA-N
Kind: experiment
Temperature: 77 K
Tabular data in the source: 0
pressure (bar)	uptake (cm3(STP)/g)
0.000274	27.825
0.000284	29.171
0.000294	31.856
0.000355	44.514
0.00153	76.316
0.001662	76.261
0.021684	100.825
0.049497	104.128
0.082499	105.918
0.098964	107.479
0.10935	107.187
0.123698	108.318
0.135786	108.071
0.148289	109.158
0.160934	108.391
0.172688	109.726
0.187309	109.072
0.198242	110.339
0.212793	109.776
0.222834	110.84
0.238144	109.915
0.249006	111.408
0.264924	110.371
0.273395	111.773
0.289729	110.916
0.29827	112.183
0.316164	111.191
0.348761	112.958
0.365297	111.785
0.399322	113.643
0.411754	112.334
0.449944	114.282
0.46266	113.041
0.500373	115.034
0.513079	113.567
0.550793	115.696
0.563438	114.297
0.601425	116.11
0.614607	114.937
0.652391	117.021
0.665037	115.892
0.703094	117.57
0.715527	116.509
0.75324	118.299
0.766017	117.307
0.803872	118.871
0.816376	118.082
0.854565	119.533
0.867474	118.857
0.905531	120.15
0.917761	119.858
0.95589	120.925
0.96812	120.723
0.981991	121.245
0.993806	121.246
