Adsorption isotherm of Carbon Dioxide on PCN-13
DOI: 10.1021/acsami.5b04842
Article source: Figure 6a- PCN 13
Adsorbate Carbon Dioxide: InChIKey CURLTUGMZLYLDI-UHFFFAOYSA-N
Kind: experiment
Temperature: 273 K
Tabular data in the source: 0
pressure (bar)	uptake (mmol/g)
0.00297	0.12758
0.00464	0.26758
0.00851	0.44878
0.01586	0.65709
0.02043	0.7841
0.0306	1.00653
0.05829	1.46267
0.07824	1.72179
0.09968	1.94649
0.12143	2.15763
0.13939	2.30047
0.16095	2.46476
0.1809	2.60478
0.20175	2.73802
0.2208	2.84586
0.25188	3.00791
0.30137	3.24223
0.35343	3.45679
0.40149	3.63127
0.45143	3.79842
0.50162	3.95033
0.55058	4.0932
0.6009	4.21914
0.65109	4.34621
0.70057	4.46198
0.77579	4.61617
0.85062	4.76077
0.92558	4.89633
0.99095	5.00535
