Adsorption isotherm of Carbon Dioxide on PCN-14
DOI: 10.1021/acsami.5b04842
Article source: Figure 6b- PCN 14
Adsorbate Carbon Dioxide: InChIKey CURLTUGMZLYLDI-UHFFFAOYSA-N
Kind: experiment
Temperature: 298 K
Tabular data in the source: 0
pressure (bar)	uptake (mmol/g)
0.00818	0.1853
0.01004	0.24472
0.01622	0.31391
0.02144	0.39835
0.03128	0.52501
0.06018	0.82797
0.08013	0.99528
0.10213	1.15985
0.12176	1.29589
0.14132	1.41824
0.16166	1.5359
0.18115	1.63715
0.20103	1.73683
0.22149	1.8322
0.25212	1.96159
0.30096	2.14883
0.35314	2.32355
0.40107	2.47248
0.45164	2.61632
0.50138	2.74961
0.55175	2.87078
0.60123	2.98491
0.65135	3.09357
0.70082	3.19715
0.77578	3.33238
0.85124	3.45745
0.92568	3.57978
0.99105	3.68061
