Adsorption isotherm of Carbon Dioxide on PCN-64
DOI: 10.1021/acsami.5b04842
Article source: Figure 6b- PCN 64
Adsorbate Carbon Dioxide: InChIKey CURLTUGMZLYLDI-UHFFFAOYSA-N
Kind: experiment
Temperature: 298 K
Tabular data in the source: 0
pressure (bar)	uptake (mmol/g)
0.02265	0.1892
0.03127	0.24901
0.05971	0.40342
0.07915	0.50661
0.10057	0.60942
0.12155	0.70206
0.14111	0.77985
0.16196	0.86116
0.18113	0.92917
0.2012	1.00618
0.21935	1.06794
0.2512	1.168
0.30202	1.31888
0.35131	1.451
0.40066	1.57334
0.45084	1.69333
0.50083	1.80473
0.55088	1.90831
0.60062	2.01071
0.65119	2.10451
0.70073	2.19402
0.77664	2.32026
0.85037	2.43516
0.92533	2.54929
0.99069	2.64582
