Adsorption isotherm of Nitrogen on PCN-43
DOI: 10.1021/acsami.5b04842
Article source: Figure 3- PCN 43
Adsorbate Nitrogen: InChIKey IJGRMHOSHXDMSA-UHFFFAOYSA-N
Kind: experiment
Temperature: 77 K
Tabular data in the source: 0
pressure (bar)	uptake (cm3(STP)/g)
0.000304	147.23
0.00303	157.07
0.027763	171.31
0.050896	176.31
0.081344	179.02
0.098549	181.16
0.108377	180.97
0.123292	183.24
0.134853	183.11
0.147671	184.37
0.160843	183.61
0.173104	186.01
0.186408	185.05
0.19805	186.69
0.212124	186.56
0.223128	188.01
0.237202	186.74
0.248074	188.95
0.263334	188
0.273507	190.02
0.28827	188.36
0.298868	190.39
0.314543	188.16
0.348751	191.82
0.363726	190.23
0.398987	193.32
0.410832	191.6
0.450055	195.01
0.461616	192.6
0.500566	196.13
0.512553	193.9
0.551147	198
0.563549	195.21
0.6018	198.87
0.614202	196.52
0.65232	200.18
0.664712	198.14
0.703388	201.29
0.715365	199.83
0.753757	202.67
0.765602	200.95
0.803852	203.59
0.816325	202.7
0.854646	205.34
0.86719	204.45
0.90544	206.72
0.917771	206.39
0.957207	207.96
0.968566	207.38
0.982771	208.71
0.993157	208.32
