Adsorption isotherm of Nitrogen on PCN-54
DOI: 10.1021/acsami.5b04842
Article source: Figure 3- PCN 54
Adsorbate Nitrogen: InChIKey IJGRMHOSHXDMSA-UHFFFAOYSA-N
Kind: experiment
Temperature: 77 K
Tabular data in the source: 0
pressure (bar)	uptake (cm3(STP)/g)
8.1e-05	55.97
9.1e-05	55.04
9.1e-05	54.34
0.000101	53.92
0.000152	52
0.002057	168.48
0.007772	177.97
0.01606	186.33
0.028462	193.36
0.041351	198.29
0.053753	200.12
0.079469	206.25
0.099116	212.77
0.106847	208.78
0.124265	215.48
0.133678	211.42
0.148583	217.88
0.159171	214.45
0.173245	219.77
0.185303	217.48
0.198475	221.59
0.210938	219.12
0.223553	223.42
0.2363	220.63
0.249057	224.55
0.262432	222.2
0.274489	225.74
0.287449	224.34
0.300408	227.75
0.312871	225.22
0.350848	230.01
0.36248	228.17
0.4038	232.9
0.411461	230.43
0.455638	236.36
0.461353	233.32
0.504274	240.71
0.511651	236.97
0.556173	243.86
0.562232	239.74
0.606896	246.69
0.612885	242.82
0.659991	247.62
0.660061	247.61
0.712244	250.88
0.712943	251.03
0.758651	262.96
0.76088	262.49
0.807834	264.27
0.810975	272.82
0.838708	281.48
0.858628	277.36
0.911935	301.65
0.958291	424.32
0.962881	364.65
0.986095	447.3
0.990026	600.13
1.00425	630.33
