Adsorption isotherm of Nitrogen on PCN-14(600)
DOI: 10.1021/acsami.5b04842
Article source: Figure 5a- 600
Adsorbate Nitrogen: InChIKey IJGRMHOSHXDMSA-UHFFFAOYSA-N
Kind: experiment
Temperature: 77 K
Tabular data in the source: 0
pressure (bar)	uptake (cm3(STP)/g)
7.1e-05	20.451
0.000274	0.542
0.000405	41.896
0.000618	107.136
0.000821	129.893
0.000892	84.584
0.001165	153.01
0.003486	174.795
0.011136	187.044
0.021187	188.92
0.03902	194.888
0.050977	196.901
0.074008	199.366
0.101609	201.923
0.105033	203.867
0.129351	204.917
0.129422	204.932
0.152525	206.177
0.156415	205.206
0.175069	206.677
0.18279	206.542
0.20111	207.538
0.208618	206.681
0.225843	207.835
0.235753	207.068
0.25003	208.561
0.26151	206.641
0.275178	209.106
0.288158	207.639
0.301695	209.403
0.312426	208.184
0.350281	210.154
0.36251	208.438
0.40071	211.086
0.409931	209.324
0.450592	211.431
0.460705	209.692
0.501093	211.82
0.512228	209.901
0.551451	212.052
0.562313	210.358
0.602701	212.329
0.613432	210.59
0.652928	212.131
0.664479	210.731
0.703358	212.43
0.715243	210.76
0.753655	212.12
0.766088	210.946
0.80374	212.125
0.816386	211.313
0.855264	212.176
0.866673	211.545
0.906443	211.979
0.917245	211.302
0.955718	211.984
0.967948	211.601
0.982842	211.919
0.992752	211.581
1.00847	211.809
