Adsorption isotherm of Carbon Dioxide on PCN-14
DOI: 10.1021/acsami.5b04842
Article source: Figure 6a- PCN 14
Adsorbate Carbon Dioxide: InChIKey CURLTUGMZLYLDI-UHFFFAOYSA-N
Kind: experiment
Temperature: 273 K
Tabular data in the source: 0
pressure (bar)	uptake (mmol/g)
0.00988	0.46253
0.01792	0.67377
0.03009	1.00032
0.0599	1.50896
0.07966	1.77768
0.10123	2.02213
0.1206	2.21803
0.14177	2.39982
0.15941	2.54266
0.18097	2.70808
0.20118	2.84302
0.22055	2.96666
0.25137	3.14451
0.30099	3.39803
0.35009	3.6188
0.40034	3.81756
0.45092	3.99994
0.50028	4.16427
0.55104	4.31956
0.60065	4.46695
0.65078	4.60079
0.70058	4.72673
0.77625	4.90124
0.85057	5.05882
0.92636	5.21414
0.99039	5.33671
