Adsorption isotherm of Carbon Dioxide on PCN-13
DOI: 10.1021/acsami.5b04842
Article source: Figure 6b- PCN 13
Adsorbate Carbon Dioxide: InChIKey CURLTUGMZLYLDI-UHFFFAOYSA-N
Kind: experiment
Temperature: 298 K
Tabular data in the source: 0
pressure (bar)	uptake (mmol/g)
0.03154	0.40304
0.06127	0.69779
0.07871	0.84047
0.10104	1.00113
0.12137	1.1274
0.14202	1.24389
0.16191	1.35021
0.18179	1.44676
0.19987	1.52338
0.22207	1.61406
0.25186	1.73329
0.3023	1.90997
0.35261	2.06788
0.40138	2.20156
0.45131	2.33563
0.50124	2.45211
0.55097	2.56702
0.60154	2.6706
0.65172	2.7691
0.70101	2.86095
0.77628	2.98562
0.85181	3.11186
0.92586	3.21895
0.99052	3.31861
