Adsorption isotherm of Carbon Dioxide on PCN-64
DOI: 10.1021/acsami.5b04842
Article source: Figure 6a- PCN 64
Adsorbate Carbon Dioxide: InChIKey CURLTUGMZLYLDI-UHFFFAOYSA-N
Kind: experiment
Temperature: 273 K
Tabular data in the source: 0
pressure (bar)	uptake (mmol/g)
0.00354	0.09202
0.00985	0.22581
0.01456	0.34436
0.0208	0.40589
0.0291	0.53856
0.05916	0.88745
0.07841	1.08166
0.10068	1.27474
0.12166	1.44355
0.14045	1.57961
0.15912	1.70551
0.18087	1.84045
0.20114	1.9641
0.22025	2.07702
0.25146	2.24189
0.30146	2.47677
0.35269	2.69642
0.40114	2.89066
0.45037	3.06458
0.50114	3.23963
0.55133	3.40057
0.60049	3.54965
0.65087	3.69365
0.70125	3.82919
0.77621	4.00821
0.85079	4.1895
0.9253	4.34764
0.99041	4.48376
