Adsorption isotherm of Carbon Dioxide on PCN-54
DOI: 10.1021/acsami.5b04842
Article source: Figure 6a- PCN 54
Adsorbate Carbon Dioxide: InChIKey CURLTUGMZLYLDI-UHFFFAOYSA-N
Kind: experiment
Temperature: 273 K
Tabular data in the source: 0
pressure (bar)	uptake (mmol/g)
0.02003	0.41662
0.05955	0.85245
0.07989	1.02352
0.09958	1.17031
0.12043	1.31315
0.14077	1.43341
0.16104	1.54464
0.18041	1.64683
0.20119	1.74282
0.21947	1.82356
0.251	1.94553
0.30119	2.13412
0.35286	2.29563
0.4008	2.43963
0.45099	2.5746
0.50015	2.69263
0.55111	2.8118
0.60046	2.92137
0.65065	3.02134
0.70064	3.11849
0.77592	3.24954
0.85127	3.37268
0.92552	3.48961
0.99108	3.59299
