Adsorption isotherm of Nitrogen on PCN-14(450)
DOI: 10.1021/acsami.5b04842
Article source: Figure 5a- 450
Adsorbate Nitrogen: InChIKey IJGRMHOSHXDMSA-UHFFFAOYSA-N
Kind: experiment
Temperature: 77 K
Tabular data in the source: 0
pressure (bar)	uptake (cm3(STP)/g)
0.000385	166.554
0.000426	65.731
0.000446	130.24
0.000567	89.299
0.000578	88.627
0.001763	193.511
0.019809	214.098
0.049801	221.061
0.083482	224.772
0.099065	228.66
0.109927	226.605
0.123252	229.974
0.136373	227.942
0.147641	231.13
0.162606	229.03
0.172992	232.059
0.188019	229.915
0.198202	232.809
0.213573	230.596
0.223006	233.241
0.239603	230.826
0.248631	233.809
0.265228	231.53
0.273426	234.31
0.290306	232.369
0.298159	234.788
0.316884	233.028
0.347626	235.404
0.36628	234.051
0.398805	235.999
0.411309	234.78
0.448819	236.48
0.462549	235.533
0.499725	236.894
0.513657	235.879
0.550691	237.194
0.5636	236.36
0.600432	237.133
0.614779	236.57
0.651196	237.592
0.665959	237.006
0.701959	237.802
0.716449	237.035
0.752591	237.944
0.766797	237.268
0.802808	238.019
0.817429	237.501
0.853167	238.071
0.868467	237.621
0.904954	238.078
0.918683	237.989
0.955444	238.242
0.968839	238.063
0.981404	238.178
0.993431	238.044
1.00901	238.204
