Adsorption isotherm of Carbon Dioxide on PCN-44
DOI: 10.1021/acsami.5b04842
Article source: Figure 6b- PCN 44
Adsorbate Carbon Dioxide: InChIKey CURLTUGMZLYLDI-UHFFFAOYSA-N
Kind: experiment
Temperature: 298 K
Tabular data in the source: 0
pressure (bar)	uptake (mmol/g)
0.03025	0.30765
0.05997	0.47691
0.07664	0.58558
0.10141	0.69034
0.12078	0.77321
0.14066	0.85061
0.16112	0.9198
0.18132	0.99289
0.20159	1.06091
0.22121	1.11446
0.25158	1.19849
0.30067	1.32045
0.35324	1.43888
0.40136	1.53503
0.45135	1.63118
0.50096	1.71442
0.5503	1.80197
0.60113	1.87936
0.65092	1.95088
0.70104	2.02123
0.77587	2.11463
0.85069	2.19826
0.92564	2.28541
0.99081	2.35223
