Adsorption isotherm of Carbon Dioxide on PCN-54
DOI: 10.1021/acsami.5b04842
Article source: Figure 6b- PCN 54
Adsorbate Carbon Dioxide: InChIKey CURLTUGMZLYLDI-UHFFFAOYSA-N
Kind: experiment
Temperature: 298 K
Tabular data in the source: 0
pressure (bar)	uptake (mmol/g)
0.00354	0.00274
0.01132	0.06724
0.01879	0.12548
0.03011	0.20796
0.06094	0.38582
0.0812	0.4855
0.10192	0.58049
0.12168	0.66532
0.14111	0.73919
0.1617	0.81151
0.17945	0.8717
0.20139	0.94558
0.22185	1.00578
0.25171	1.09216
0.30157	1.21802
0.35156	1.34232
0.40162	1.4498
0.45116	1.55221
0.50108	1.64523
0.55204	1.73669
0.60106	1.82072
0.65105	1.89419
0.70111	1.97236
0.77612	2.07866
0.85107	2.18028
0.92635	2.27368
0.99107	2.36083
