Adsorption isotherm of Carbon Dioxide on PCN-44
DOI: 10.1021/acsami.5b04842
Article source: Figure 6a- PCN 44
Adsorbate Carbon Dioxide: InChIKey CURLTUGMZLYLDI-UHFFFAOYSA-N
Kind: experiment
Temperature: 273 K
Tabular data in the source: 0
pressure (bar)	uptake (mmol/g)
0.03033	0.68194
0.05834	1.05341
0.07681	1.2256
0.10133	1.43223
0.12134	1.57225
0.14162	1.69138
0.16137	1.82745
0.181	1.94037
0.20172	2.0674
0.30108	2.43669
0.35435	2.60723
0.40165	2.74954
0.45107	2.87999
0.50119	3.00536
0.55086	3.12227
0.60195	3.2324
0.65124	3.32842
0.7002	3.42557
0.77606	3.55831
0.85083	3.67638
0.92637	3.79218
0.99039	3.8837
