Adsorption isotherm of Carbon Dioxide on PCN-43
DOI: 10.1021/acsami.5b04842
Article source: Figure 6b- PCN 43
Adsorbate Carbon Dioxide: InChIKey CURLTUGMZLYLDI-UHFFFAOYSA-N
Kind: experiment
Temperature: 298 K
Tabular data in the source: 0
pressure (bar)	uptake (mmol/g)
0.00824	0.13018
0.01699	0.20601
0.02233	0.26113
0.03005	0.33189
0.06036	0.55432
0.0805	0.67667
0.1009	0.78808
0.12194	0.88815
0.1415	0.97727
0.16113	1.05623
0.18101	1.13558
0.20134	1.20946
0.21916	1.27161
0.25133	1.37402
0.30113	1.51708
0.35125	1.63825
0.40176	1.7602
0.45123	1.86652
0.50103	1.96853
0.5505	2.06272
0.60082	2.16122
0.65119	2.2386
0.70034	2.32029
0.776	2.43246
0.85134	2.53485
0.92617	2.63959
0.9905	2.72244
