Adsorption isotherm of Nitrogen on PCN-24
DOI: 10.1021/acsami.5b04842
Article source: Figure 3- PCN 24
Adsorbate Nitrogen: InChIKey IJGRMHOSHXDMSA-UHFFFAOYSA-N
Kind: experiment
Temperature: 77 K
Tabular data in the source: 0
pressure (bar)	uptake (cm3(STP)/g)
0.000101	171.58
0.000101	171.26
0.000233	155.99
0.001915	186.27
0.015786	202.86
0.027358	207.04
0.041219	210.39
0.053479	213.17
0.082114	216.07
0.098417	218.85
0.109634	217.89
0.122948	220.93
0.137093	218.45
0.147823	221.99
0.161684	220.79
0.17283	222.62
0.18739	221.22
0.198192	223.11
0.213664	221.59
0.223411	223.48
0.241387	223.03
0.268076	223.08
0.297895	225.67
0.316012	224.39
0.347991	226.4
0.367151	225.32
0.397457	227.33
0.412575	226
0.44811	227.75
0.462812	226.86
0.49939	228.36
0.512492	227.92
0.549627	228.79
0.564188	228.02
0.600553	229.78
0.61484	229.01
0.650719	230.64
0.665492	229.24
0.701159	230.49
0.715517	229.41
0.752298	230.72
0.76624	229.51
0.802747	231.21
0.817865	230.76
0.852417	231.57
0.868234	230.99
0.903697	231.99
0.919241	231.35
0.956234	231.84
0.968708	231.45
0.980481	232.08
0.9926	232.08
1.00751	232.01
