Adsorption isotherm of Nitrogen on PCN-44
DOI: 10.1021/acsami.5b04842
Article source: Figure 3- PCN 44
Adsorbate Nitrogen: InChIKey IJGRMHOSHXDMSA-UHFFFAOYSA-N
Kind: experiment
Temperature: 77 K
Tabular data in the source: 0
pressure (bar)	uptake (cm3(STP)/g)
0.000142	21.72
0.0038	170.44
0.01606	191.14
0.028189	193.8
0.039618	196.96
0.054178	198.66
0.082884	201.44
0.098275	203.97
0.110677	203.26
0.123292	206.93
0.135482	205.34
0.147813	209.14
0.161826	206.47
0.172759	210.9
0.187603	208.42
0.198192	212.41
0.213036	208.86
0.222439	211.57
0.239927	210.49
0.247588	215.43
0.263688	211.94
0.273648	213.01
0.289952	210.53
0.298311	212.81
0.315658	211.79
0.347707	213.55
0.365611	212.46
0.398359	214.47
0.410974	212.7
0.448454	215.02
0.462457	213.24
0.499036	215.44
0.512553	213.79
0.549415	216.06
0.563762	214.78
0.60034	216.16
0.614698	214.89
0.650436	217.02
0.665351	215.43
0.701159	217.26
0.717188	215.86
0.751598	217.55
0.766584	216.21
0.801694	217.46
0.817308	216.13
0.85416	217.63
0.868649	216.93
0.903211	218.43
0.918957	217.48
0.95588	218.47
0.969194	217.46
0.982153	217.39
0.993785	217.7
1.00919	218.45
