Adsorption isotherm of Nitrogen on PCN-23
DOI: 10.1021/acsami.5b04842
Article source: Figure 3- PCN 23
Adsorbate Nitrogen: InChIKey IJGRMHOSHXDMSA-UHFFFAOYSA-N
Kind: experiment
Temperature: 77 K
Tabular data in the source: 0
pressure (bar)	uptake (cm3(STP)/g)
0.006373	147.95
0.018563	154.22
0.030479	156.43
0.04204	159.84
0.054381	161.17
0.08183	163.56
0.097647	167.74
0.108722	164.76
0.122451	168.99
0.134985	166.58
0.147742	169.68
0.160833	167.01
0.173104	170.74
0.186965	168.08
0.197422	171.3
0.211911	169.46
0.222986	171.99
0.238387	169.07
0.247446	172.36
0.263465	170.07
0.272807	172.35
0.288614	170.63
0.297115	172.91
0.314746	170.37
0.347768	173.14
0.365256	170.66
0.398562	173.37
0.411035	171.72
0.449143	173.92
0.462387	172.01
0.497982	173.9
0.512968	172.18
0.549475	173.87
0.564249	172.6
0.600614	174.17
0.614131	172.7
0.650152	173.89
0.666526	172.81
0.701432	173.93
0.715223	172.72
0.752287	174.04
0.767344	172.57
0.80294	173.83
0.8175	173.19
0.852204	174.12
0.866481	173.23
0.904315	173.91
0.919433	173.2
0.955181	173.63
0.969255	173.88
0.981029	174
0.992033	173.93
1.00945	173.73
