Adsorption isotherm of Nitrogen on PCN-64
DOI: 10.1021/acsami.5b04842
Article source: Figure 3- PCN 64
Adsorbate Nitrogen: InChIKey IJGRMHOSHXDMSA-UHFFFAOYSA-N
Kind: experiment
Temperature: 77 K
Tabular data in the source: 0
pressure (bar)	uptake (cm3(STP)/g)
9e-06	45.67
3e-05	140.68
9.1e-05	90.33
0.000101	166.59
0.000152	12.79
0.000233	3.2
0.000284	3.93
0.001915	193.7
0.007012	218.47
0.025615	237.46
0.043864	245.94
0.051737	249.04
0.076125	255.49
0.100717	262.19
0.105804	261.62
0.124822	265.92
0.133455	265.92
0.149201	269.2
0.160073	269.07
0.173651	272.17
0.186468	272.1
0.198526	274.25
0.211901	273.99
0.222976	276.33
0.238164	276.13
0.24778	278.54
0.263242	277.58
0.272574	280.36
0.289435	280.16
0.296193	282.19
0.316539	282.18
0.346278	284.38
0.364111	284.76
0.396444	287.53
0.414277	286.44
0.444371	289.53
0.465892	288.26
0.49397	290.34
0.517102	289.31
0.545311	291.39
0.568302	290.62
0.595467	291.5
0.619227	291.3
0.646464	292.55
0.670356	291.34
0.69669	292.78
0.720796	292.64
0.746846	293.96
0.771853	293.19
0.797772	294.38
0.822293	294.37
0.848344	294.49
0.872033	294.42
0.897881	294.85
0.924347	294.52
0.953397	295.39
0.975202	295.45
0.978404	295.51
0.994079	296.01
1.01031	295.94
