Adsorption isotherm of Methane on Shale (Fl)
DOI: 10.1007/s10450-021-00352-6
Article source: Figure 3B
Adsorbate Methane: InChIKey VNWKTOKETHGBQD-UHFFFAOYSA-N
Kind: experiment
Isotherm type: absolute
Temperature: 358 K
Tabular data in the source: 0
pressure (bar)	uptake (mmol/g)
-0.10333	-6e-06
8.18854	0.023429
17.9156	0.038104
28.3601	0.049557
38.6452	0.058822
49.4087	0.066798
59.5344	0.072971
69.66	0.0785
79.2276	0.083386
89.5127	0.088658
99.4789	0.092641
109.126	0.097913
