Adsorption isotherm of Methane on Shale (Fl)
DOI: 10.1007/s10450-021-00352-6
Article source: Figure 3B
Adsorbate Methane: InChIKey VNWKTOKETHGBQD-UHFFFAOYSA-N
Kind: experiment
Isotherm type: excess
Temperature: 318 K
Tabular data in the source: 0
pressure (bar)	uptake (mmol/g)
8.66692	0.037339
19.0318	0.054976
28.8385	0.069522
38.6452	0.077499
49.1695	0.083285
59.3749	0.088428
69.3411	0.09151
79.4668	0.096009
89.8316	0.099348
99.5586	0.101786
108.887	0.102035
