Adsorption isotherm of Methane on Shale (Nc)
DOI: 10.1007/s10450-021-00352-6
Article source: Figure 3A
Adsorbate Methane: InChIKey VNWKTOKETHGBQD-UHFFFAOYSA-N
Kind: experiment
Isotherm type: excess
Temperature: 318 K
Tabular data in the source: 0
pressure (bar)	uptake (mmol/g)
8.39629	0.045192
18.1944	0.067395
29.1617	0.08436
38.3696	0.095298
48.8317	0.104488
59.8786	0.11114
69.0843	0.116683
78.7914	0.120797
88.9171	0.125387
97.7866	0.127122
108.748	0.129172
