Adsorption isotherm of Methane on Shale (Yy)
DOI: 10.1007/s10450-021-00352-6
Article source: Figure 3C
Adsorbate Methane: InChIKey VNWKTOKETHGBQD-UHFFFAOYSA-N
Kind: experiment
Isotherm type: excess
Temperature: 358 K
Tabular data in the source: 0
pressure (bar)	uptake (mmol/g)
0.632319	0.002507
10.4684	0.021055
19.7424	0.031626
29.719	0.040289
39.274	0.047566
50.0937	0.052587
59.7892	0.056742
69.555	0.060636
79.3208	0.064531
89.1569	0.066258
99.4848	0.067638
109.813	0.069885
