Adsorption isotherm of Methane on Shale (Yy)
DOI: 10.1007/s10450-021-00352-6
Article source: Figure 3C
Adsorbate Methane: InChIKey VNWKTOKETHGBQD-UHFFFAOYSA-N
Kind: experiment
Isotherm type: excess
Temperature: 318 K
Tabular data in the source: 0
pressure (bar)	uptake (mmol/g)
8.22014	0.0299
18.3372	0.045847
28.3138	0.055897
38.7119	0.063867
49.3911	0.070275
59.0867	0.07443
70.1874	0.078584
79.3208	0.081178
89.2974	0.082732
99.274	0.084285
109.251	0.084625
