Adsorption isotherm of Methane on Shale (Nc)
DOI: 10.1007/s10450-021-00352-6
Article source: Figure 3A
Adsorbate Methane: InChIKey VNWKTOKETHGBQD-UHFFFAOYSA-N
Kind: experiment
Isotherm type: absolute
Temperature: 358 K
Tabular data in the source: 0
pressure (bar)	uptake (mmol/g)
-0.155945	0.00014
8.80793	0.028531
19.1905	0.047719
29.7387	0.06278
39.6157	0.073241
48.9901	0.082116
60.0383	0.092258
69.829	0.095896
79.37	0.103026
88.8275	0.110631
98.702	0.114745
109.246	0.118382
