Adsorption isotherm of Methane on Shale (Nc)
DOI: 10.1007/s10450-021-00352-6
Article source: Figure 3A
Adsorbate Methane: InChIKey VNWKTOKETHGBQD-UHFFFAOYSA-N
Kind: experiment
Isotherm type: excess
Temperature: 358 K
Tabular data in the source: 0
pressure (bar)	uptake (mmol/g)
8.55674	0.028056
19.1063	0.046449
29.9048	0.059765
39.3629	0.06864
48.9878	0.076404
59.9514	0.084007
69.9086	0.085741
79.4487	0.090808
88.8214	0.095399
98.6113	0.097291
109.154	0.098707
