Adsorption isotherm of Methane on Shale (Nc)
DOI: 10.1007/s10450-021-00352-6
Article source: Figure 3A
Adsorbate Methane: InChIKey VNWKTOKETHGBQD-UHFFFAOYSA-N
Kind: experiment
Isotherm type: absolute
Temperature: 338 K
Tabular data in the source: 0
pressure (bar)	uptake (mmol/g)
-0.155945	0.00014
7.97387	0.035038
18.1907	0.058351
28.7396	0.074999
38.1159	0.088634
49.0808	0.099728
59.7944	0.109871
69.4201	0.11938
78.7939	0.126827
89.0041	0.133638
99.2132	0.137752
108.67	0.143453
