Adsorption isotherm of Methane on Shale (Yy)
DOI: 10.1007/s10450-021-00352-6
Article source: Figure 3C
Adsorbate Methane: InChIKey VNWKTOKETHGBQD-UHFFFAOYSA-N
Kind: experiment
Isotherm type: excess
Temperature: 338 K
Tabular data in the source: 0
pressure (bar)	uptake (mmol/g)
-0.070258	8e-05
8.7822	0.024871
18.4778	0.038216
29.0164	0.048267
39.1335	0.054676
50.2342	0.060563
59.5082	0.065759
69.7658	0.069046
79.8829	0.073201
89.719	0.075275
99.555	0.077349
109.672	0.078555
