Adsorption isotherm of Methane on Shale (Nc)
DOI: 10.1007/s10450-021-00352-6
Article source: Figure 3A
Adsorbate Methane: InChIKey VNWKTOKETHGBQD-UHFFFAOYSA-N
Kind: experiment
Isotherm type: absolute
Temperature: 318 K
Tabular data in the source: 0
pressure (bar)	uptake (mmol/g)
-0.239486	0.000457
8.48002	0.045351
18.1953	0.069775
29.1635	0.088803
38.5395	0.101803
48.8355	0.11385
59.8836	0.123675
69.2581	0.132708
78.7993	0.140314
89.0939	0.149029
97.8812	0.154255
108.761	0.1617
