Adsorption isotherm of Methane on Shale (Yy)
DOI: 10.1007/s10450-021-00352-6
Article source: Figure 3C
Adsorbate Methane: InChIKey VNWKTOKETHGBQD-UHFFFAOYSA-N
Kind: experiment
Isotherm type: absolute
Temperature: 318 K
Tabular data in the source: 0
pressure (bar)	uptake (mmol/g)
-0.210773	0.000253
7.93911	0.030074
18.1967	0.047234
28.1733	0.058845
38.5714	0.068029
49.6721	0.076864
59.0867	0.082927
70.7494	0.089508
79.1803	0.093837
89.4379	0.098685
99.1335	0.10284
109.532	0.105781
