Adsorption isotherm of Methane on Shale (Yy)
DOI: 10.1007/s10450-021-00352-6
Article source: Figure 3C
Adsorbate Methane: InChIKey VNWKTOKETHGBQD-UHFFFAOYSA-N
Kind: experiment
Isotherm type: absolute
Temperature: 338 K
Tabular data in the source: 0
pressure (bar)	uptake (mmol/g)
-0.210773	0.000253
8.92272	0.024871
18.3372	0.039604
28.8759	0.050174
39.274	0.05849
50.3747	0.066286
59.3677	0.072869
69.7658	0.077717
79.7424	0.084473
89.5785	0.088801
99.6955	0.092782
109.813	0.09607
