Adsorption isotherm of Methane on Shale (Nc)
DOI: 10.1007/s10450-021-00352-6
Article source: Figure 3A
Adsorbate Methane: InChIKey VNWKTOKETHGBQD-UHFFFAOYSA-N
Kind: experiment
Isotherm type: excess
Temperature: 338 K
Tabular data in the source: 0
pressure (bar)	uptake (mmol/g)
-0.239613	0.00014
7.89007	0.034721
18.1062	0.056288
28.8217	0.071191
38.2808	0.082763
48.9942	0.092271
59.8737	0.099081
69.4984	0.10621
78.7873	0.110484
88.9963	0.114121
99.4551	0.114903
108.743	0.11759
