Adsorption isotherm of Methane on Shale (Fl)
DOI: 10.1007/s10450-021-00352-6
Article source: Figure 3B
Adsorbate Methane: InChIKey VNWKTOKETHGBQD-UHFFFAOYSA-N
Kind: experiment
Isotherm type: absolute
Temperature: 338 K
Tabular data in the source: 0
pressure (bar)	uptake (mmol/g)
-0.10333	0.000251
8.10882	0.029354
18.1547	0.046476
28.5196	0.058703
38.9642	0.069899
48.9303	0.077876
59.4547	0.085594
69.7398	0.093957
78.9087	0.099487
88.3965	0.103858
98.2829	0.108872
109.605	0.113627
