Adsorption isotherm of Methane on Shale (Fl)
DOI: 10.1007/s10450-021-00352-6
Article source: Figure 3B
Adsorbate Methane: InChIKey VNWKTOKETHGBQD-UHFFFAOYSA-N
Kind: experiment
Isotherm type: excess
Temperature: 338 K
Tabular data in the source: 0
pressure (bar)	uptake (mmol/g)
-0.183059	-6e-06
7.94936	0.028839
18.1547	0.044672
28.3601	0.056127
38.8844	0.065391
49.0101	0.071822
59.2952	0.077608
69.7398	0.083524
78.9087	0.086735
88.1573	0.088659
98.2032	0.091097
109.764	0.092761
