Adsorption isotherm of Methane on Shale (Fl)
DOI: 10.1007/s10450-021-00352-6
Article source: Figure 3B
Adsorbate Methane: InChIKey VNWKTOKETHGBQD-UHFFFAOYSA-N
Kind: experiment
Isotherm type: excess
Temperature: 358 K
Tabular data in the source: 0
pressure (bar)	uptake (mmol/g)
8.18854	0.022914
17.9156	0.036944
28.3601	0.047497
38.5655	0.055602
49.329	0.061903
59.4547	0.066531
69.4208	0.070128
79.2276	0.07321
89.5924	0.076421
99.3992	0.07873
109.046	0.081684
