Adsorption isotherm of Hydrogen on Cu-TBA-1
DOI: 10.1021/Cm2004352
Adsorbate Hydrogen: InChIKey UFHFLCQGNIYNRP-UHFFFAOYSA-N
Temperature: 77 K
Tabular data in the source: 0
pressure (bar)	uptake (wt%)
0.00833333	0.148793
0.0166667	0.201905
0.0194444	0.244415
0.0277778	0.292211
0.0361111	0.36127
0.0472222	0.414367
0.0916667	0.562968
0.108333	0.594773
0.127778	0.631879
0.163889	0.711421
0.219444	0.780229
0.236111	0.812034
0.255556	0.84914
0.313889	0.912617
0.361111	0.938944
0.413889	0.981189
0.441667	0.991672
0.5	1.02857
0.519444	1.03378
0.547222	1.04427
0.619444	1.07578
0.647222	1.08626
0.702778	1.10723
0.730556	1.1124
0.741667	1.11234
0.752778	1.11228
0.802778	1.13327
0.830556	1.13313
0.847222	1.13835
0.922222	1.14859
0.952778	1.15374
0.988889	1.15886
