Adsorption isotherm of Nitrogen on Cu-TBA-2
DOI: 10.1021/Cm2004352
Adsorbate Nitrogen: InChIKey IJGRMHOSHXDMSA-UHFFFAOYSA-N
Temperature: 77 K
Tabular data in the source: 0
pressure (bar)	uptake (cm3(STP)/g)
0.00389445	41.6309
0.00581329	59.2275
0.0323251	65.6652
0.0676212	68.2403
0.106429	69.0987
0.147001	69.9571
0.192872	71.6738
0.215803	72.103
0.254619	73.8197
0.341054	75.5365
0.363978	75.1073
0.381618	75.5365
0.515684	78.5408
0.533324	78.97
0.619763	81.1159
0.637403	81.5451
0.722082	84.1202
0.739726	84.9785
0.819129	89.2704
0.836774	90.1288
0.861484	92.2747
0.907377	96.5665
0.96744	107.725
0.981572	110.3
