Adsorption isotherm of Hydrogen on Cu-TBA-2
DOI: 10.1021/Cm2004352
Adsorbate Hydrogen: InChIKey UFHFLCQGNIYNRP-UHFFFAOYSA-N
Temperature: 77 K
Tabular data in the source: 0
pressure (bar)	uptake (wt%)
0.00849542	0.124342
0.03996	0.384868
0.0657704	0.556579
0.097378	0.728289
0.143507	0.882237
0.204129	1.03618
0.247483	1.11316
0.296634	1.19013
0.360269	1.27303
0.397893	1.30855
0.452889	1.35592
0.545528	1.42697
0.620824	1.46842
0.69323	1.50395
0.762738	1.53947
0.84673	1.58092
0.887281	1.59868
0.994451	1.64605
