Adsorption isotherm of Carbon Dioxide on Cu-TBA-1
DOI: 10.1021/Cm2004352
Adsorbate Carbon Dioxide: InChIKey CURLTUGMZLYLDI-UHFFFAOYSA-N
Temperature: 298 K
Tabular data in the source: 0
pressure (bar)	uptake (mmol/g)
0.0255682	0.149481
0.0482955	0.221453
0.0710227	0.326644
0.0795455	0.365398
0.0909091	0.404152
0.130682	0.520415
0.164773	0.614533
0.201705	0.692042
0.269886	0.835986
0.303977	0.907958
0.340909	0.952249
0.426136	1.07958
0.508523	1.19031
0.553977	1.2346
0.602273	1.2955
0.647727	1.34533
0.701705	1.39516
0.730114	1.42284
0.801136	1.48374
0.849432	1.52249
0.903409	1.56125
0.957386	1.61107
0.982955	1.62768
