Adsorption isotherm of Hydrogen on Cu-TBA-2F
DOI: 10.1021/Cm2004352
Adsorbate Hydrogen: InChIKey UFHFLCQGNIYNRP-UHFFFAOYSA-N
Temperature: 77 K
Tabular data in the source: 0
pressure (bar)	uptake (wt%)
0.0305556	0.0370469
0.0666667	0.0953267
0.102778	0.153606
0.136111	0.195954
0.163889	0.238331
0.208333	0.301883
0.230556	0.323027
0.258333	0.354773
0.316667	0.412935
0.347222	0.444666
0.413889	0.497468
0.438889	0.507966
0.475	0.523721
0.497222	0.544865
0.555556	0.560502
0.647222	0.597224
0.686111	0.612964
0.713889	0.618132
0.719444	0.623418
0.744444	0.628601
0.794444	0.644282
0.844444	0.649332
0.927778	0.65952
0.958333	0.664673
