Adsorption isotherm of Hydrogen on Cu-TBA-2F
DOI: 10.1021/Cm2004352
Adsorbate Hydrogen: InChIKey UFHFLCQGNIYNRP-UHFFFAOYSA-N
Temperature: 77 K
Tabular data in the source: 0
pressure (bar)	uptake (wt%)
0.0085431	0.0947368
0.0286041	0.236842
0.0544241	0.402632
0.0976068	0.586184
0.126449	0.675
0.178423	0.799342
0.247788	0.923684
0.288282	0.976974
0.34324	1.04803
0.392449	1.08947
0.45615	1.13092
0.511165	1.16645
0.54591	1.19013
0.615399	1.2375
0.693593	1.27895
0.768917	1.30263
0.847121	1.33816
0.922454	1.35592
0.991972	1.38553
