Adsorption isotherm of Carbon Dioxide on Cu-TBA-2
DOI: 10.1021/Cm2004352
Adsorbate Carbon Dioxide: InChIKey CURLTUGMZLYLDI-UHFFFAOYSA-N
Temperature: 298 K
Tabular data in the source: 0
pressure (bar)	uptake (mmol/g)
0.0142045	0.0553633
0.0255682	0.116263
0.0454545	0.193772
0.0653409	0.27128
0.0823864	0.321107
0.107955	0.43737
0.122159	0.487197
0.144886	0.55917
0.170455	0.631142
0.184659	0.675433
0.204545	0.714187
0.224432	0.764014
0.247159	0.819377
0.303977	0.913495
0.34375	0.963322
0.389205	1.03529
0.428977	1.06298
0.46875	1.10727
0.514205	1.14048
0.556818	1.16817
0.596591	1.19031
0.636364	1.22353
0.678977	1.2346
0.71875	1.25675
0.752841	1.26228
0.789773	1.27336
0.84375	1.2955
0.894886	1.33426
0.923295	1.33426
0.974432	1.35087
