Adsorption isotherm of Carbon Dioxide on Cu-TBA-2F
DOI: 10.1021/Cm2004352
Adsorbate Carbon Dioxide: InChIKey CURLTUGMZLYLDI-UHFFFAOYSA-N
Temperature: 298 K
Tabular data in the source: 0
pressure (bar)	uptake (mmol/g)
0.03125	0.033218
0.0653409	0.0719723
0.0965909	0.10519
0.150568	0.160554
0.176136	0.193772
0.210227	0.243599
0.238636	0.265744
0.247159	0.276817
0.292614	0.33218
0.323864	0.365398
0.357955	0.404152
0.394886	0.442907
0.451705	0.481661
0.502841	0.514879
0.551136	0.542561
0.596591	0.570242
0.644886	0.592388
0.724432	0.620069
0.752841	0.631142
0.84375	0.653287
0.897727	0.66436
0.951705	0.669896
0.982955	0.669896
