Adsorption isotherm of Hydrogen on Cu-TBA-2
DOI: 10.1021/Cm2004352
Adsorbate Hydrogen: InChIKey UFHFLCQGNIYNRP-UHFFFAOYSA-N
Temperature: 77 K
Tabular data in the source: 0
pressure (bar)	uptake (wt%)
0.0138889	0.0902916
0.025	0.169967
0.0416667	0.260244
0.0555556	0.339904
0.0805556	0.446083
0.0972222	0.499151
0.130556	0.610602
0.169444	0.748601
0.205556	0.833459
0.25	0.94485
0.327778	1.08796
0.352778	1.13567
0.394444	1.19392
0.436111	1.24154
0.472222	1.28387
0.511111	1.32087
0.55	1.35256
0.6	1.38419
0.641667	1.41586
0.727778	1.46324
0.744444	1.46315
0.822222	1.49995
0.858333	1.51039
0.902778	1.52078
0.947222	1.53118
0.991667	1.53094
