Adsorption isotherm of Nitrogen on Cu-TBA-1
DOI: 10.1021/Cm2004352
Adsorbate Nitrogen: InChIKey IJGRMHOSHXDMSA-UHFFFAOYSA-N
Temperature: 77 K
Tabular data in the source: 0
pressure (bar)	uptake (cm3(STP)/g)
0.0024979	83.2618
0.0166716	90.5579
0.0625913	97.8541
0.10671	100.858
0.136707	102.575
0.154344	102.575
0.166697	103.433
0.184337	103.863
0.214335	105.579
0.230208	105.579
0.246092	106.867
0.304312	109.013
0.367827	111.588
0.3837	111.588
0.436637	114.592
0.521323	118.026
0.576	118.455
0.586601	120.601
0.604246	121.459
0.641305	124.034
0.658942	124.034
0.708359	127.897
0.724232	127.897
0.7913	133.476
0.808937	133.476
0.838961	138.197
0.856598	138.197
0.865443	141.202
0.879571	143.348
0.893703	145.923
0.914909	150.644
0.923769	155.365
0.929094	159.227
0.936186	163.519
0.941511	167.382
0.94684	171.674
0.962823	184.12
0.969912	187.983
0.977	191.845
0.982329	196.137
0.987654	200
0.994747	204.292
