Adsorption isotherm of Nitrogen on Zeolite 5A
DOI: 10.1021/ie020133o
Article source: Figure 4
Adsorbate Nitrogen: InChIKey IJGRMHOSHXDMSA-UHFFFAOYSA-N
Kind: experiment
Temperature: 296 K
Tabular data in the source: 0
pressure (bar)	uptake (mmol/g)
0.088457	0.0788
0.1682	0.123
0.309041	0.187
0.557288	0.295
0.787295	0.385
1.2463	0.531
1.71239	0.656
3.48558	1.01
5.36009	1.26
7.04209	1.43
