Adsorption isotherm of Carbon monoxide on Zeolite 5A
DOI: 10.1021/ie020133o
Article source: Figure 4
Adsorbate Carbon monoxide: InChIKey UGFAIRIUMAVXCW-UHFFFAOYSA-N
Kind: experiment
Temperature: 296 K
Tabular data in the source: 0
pressure (bar)	uptake (mmol/g)
0.017732	0.108
0.044178	0.19
0.070725	0.263
0.106391	0.335
0.15908	0.432
0.211769	0.522
0.318161	0.648
0.512705	0.846
0.716368	1
1.14497	1.25
1.56041	1.44
3.10054	1.85
4.69135	2.11
6.15043	2.27
