Adsorption isotherm of Nitrogen, Carbon monoxide on Zeolite 5A
DOI: 10.1021/ie020133o
Article source: Table 1
Adsorbate Nitrogen: InChIKey IJGRMHOSHXDMSA-UHFFFAOYSA-N
Adsorbate Carbon monoxide: InChIKey UGFAIRIUMAVXCW-UHFFFAOYSA-N
Kind: experiment
Temperature: 296 K
Tabular data in the source: 0
pressure (bar)	Nitrogen fraction	Nitrogen uptake (mmol/g)	Carbon monoxide fraction	Carbon monoxide uptake (mmol/g)	total uptake (mmol/g)
5.51208	0.799632	0.697	0.200368	0.907	
5.93764	0.182594	0.096	0.817406	2.076	
6.33281	0.9136	1.02	0.0864	0.51	
5.61341	0.5	0.322	0.5	1.6	
