Adsorption isotherm of Methane on Zeolite 5A
DOI: 10.1021/ie020133o
Article source: Figure 4
Adsorbate Methane: InChIKey VNWKTOKETHGBQD-UHFFFAOYSA-N
Kind: experiment
Temperature: 296 K
Tabular data in the source: 0
pressure (bar)	uptake (mmol/g)
0.035362	0.0292
0.06191	0.0642
0.194544	0.169
0.309041	0.248
0.521824	0.391
0.680904	0.508
0.733593	0.519
1.11458	0.747
1.16524	0.75
1.54014	0.963
1.60093	0.96
2.87763	1.44
3.16134	1.48
4.35698	1.79
4.79267	1.83
5.73499	2
6.29228	2.07
6.84957	2.14
