Adsorption isotherm of Nitrogen, Methane on Zeolite 5A
DOI: 10.1021/ie020133o
Article source: Table 1
Adsorbate Nitrogen: InChIKey IJGRMHOSHXDMSA-UHFFFAOYSA-N
Adsorbate Methane: InChIKey VNWKTOKETHGBQD-UHFFFAOYSA-N
Kind: experiment
Temperature: 296 K
Tabular data in the source: 0
pressure (bar)	Nitrogen fraction	Nitrogen uptake (mmol/g)	Methane fraction	Methane uptake (mmol/g)	total uptake (mmol/g)
5.85659	0.615917	0.71	0.384083	0.688	
5.53234	0.465201	0.551	0.534799	1.04	
4.76228	0.146809	0.147	0.853191	1.53	
