Adsorption isotherm of Carbon monoxide, Methane on Zeolite 5A
DOI: 10.1021/ie020133o
Article source: Table 1
Adsorbate Carbon monoxide: InChIKey UGFAIRIUMAVXCW-UHFFFAOYSA-N
Adsorbate Methane: InChIKey VNWKTOKETHGBQD-UHFFFAOYSA-N
Kind: experiment
Temperature: 296 K
Tabular data in the source: 0
pressure (bar)	Carbon monoxide fraction	Carbon monoxide uptake (mmol/g)	Methane fraction	Methane uptake (mmol/g)	total uptake (mmol/g)
4.27592	0.504739	1.28	0.495261	0.525	
6.0491	0.095477	0.408	0.904523	1.26	
3.88075	0.21671	0.685	0.78329	1.03	
7.16368	0.906648	1.93	0.093352	0.119	
5.95791	0.811224	1.6	0.188776	0.213	
