Adsorption isotherm of Hydrogen on C10F0.9(BF4)9.1
DOI: 10.1021/ja907232y
Adsorbate Hydrogen: InChIKey UFHFLCQGNIYNRP-UHFFFAOYSA-N
Temperature: 273 K
Tabular data in the source: 0
pressure (bar)	uptake (wt%)
0.503692	0.000348584
4.70709	0.00610022
10.5856	0.0111547
14.4478	0.0141176
18.6457	0.0172549
22.0039	0.019695
27.3776	0.023878
32.0788	0.0271895
34.7653	0.0291068
42.824	0.0345098
49.5389	0.0386928
53.5688	0.0416558
56.9263	0.0437473
60.619	0.0458388
64.9828	0.0481046
69.0112	0.0503704
72.704	0.0524619
76.396	0.0542048
80.4245	0.0564706
83.4462	0.0583878
86.9706	0.0601307
90.6637	0.0623965
94.0208	0.0643137
98.3849	0.0667538
101.91	0.068671
