Adsorption isotherm of Hydrogen on C22F0.2(BF4)0.8
DOI: 10.1021/ja907232y
Adsorbate Hydrogen: InChIKey UFHFLCQGNIYNRP-UHFFFAOYSA-N
Temperature: 273 K
Tabular data in the source: 0
pressure (bar)	uptake (wt%)
0.850221	0.00370299
1.913	0.00694444
2.76322	0.0111098
3.82599	0.0152762
5.10132	0.0208306
5.95154	0.0236088
7.22687	0.0273135
8.28965	0.0314798
9.56498	0.0351846
11.478	0.0402793
12.3282	0.042595
13.8161	0.0458383
15.0914	0.049543
16.5793	0.0527863
18.0672	0.0564919
19.5551	0.0597352
20.8304	0.0629775
22.5308	0.0662216
25.9317	0.0745596
28.6949	0.0796579
31.8833	0.0856828
33.5837	0.0889269
36.772	0.0935645
38.4725	0.0958838
40.3855	0.0986664
42.0859	0.100986
43.9989	0.103306
45.6994	0.106088
47.3998	0.108407
49.3128	0.110727
51.2258	0.113047
53.1388	0.114905
54.8392	0.117224
56.5397	0.119543
58.0276	0.120012
59.728	0.122794
61.641	0.124651
63.554	0.126509
65.467	0.128367
67.5925	0.130226
69.5055	0.132083
71.4185	0.133941
73.3315	0.135799
75.2445	0.137656
77.3701	0.139053
79.2831	0.14091
81.1961	0.142306
82.8965	0.144163
84.8095	0.145095
86.9351	0.146029
88.848	0.147424
90.9736	0.148358
93.0992	0.14883
95.0121	0.149762
97.1377	0.150234
99.2632	0.151168
101.176	0.1521
