Adsorption isotherm of Hydrogen on C22F0.2(BF4)0.8
DOI: 10.1021/ja907232y
Adsorbate Hydrogen: InChIKey UFHFLCQGNIYNRP-UHFFFAOYSA-N
Temperature: 313 K
Tabular data in the source: 0
pressure (bar)	uptake (wt%)
1.06278	0.00185417
2.12555	0.00417076
3.40088	0.00787553
5.10132	0.0111196
7.01432	0.0148271
8.50221	0.0180703
10.2026	0.0203896
10.8403	0.0227044
12.3282	0.0245603
13.8161	0.0264163
15.5165	0.029198
17.217	0.0319797
19.13	0.0347623
20.8304	0.037544
22.3183	0.0393999
23.1685	0.0407908
24.869	0.0435725
26.5694	0.0463541
28.2698	0.0486734
30.1828	0.051456
31.8833	0.0537753
33.7963	0.0560954
35.2842	0.0588762
36.9846	0.0598082
38.8976	0.0621284
40.598	0.0644476
42.511	0.0663054
44.424	0.0686255
46.337	0.0709457
48.25	0.0728034
50.163	0.0746611
52.076	0.0765189
53.989	0.078839
55.902	0.0806968
57.6024	0.0825536
59.5154	0.0834865
61.641	0.0853451
63.554	0.0867404
65.467	0.0885981
67.5925	0.0899943
69.5055	0.0913896
71.4185	0.0927849
73.5441	0.0941811
75.4571	0.0960388
77.3701	0.0969717
79.4956	0.0983679
81.4086	0.0997632
83.5342	0.101622
85.4472	0.102555
87.3602	0.10395
89.4857	0.104884
91.3987	0.106279
93.5243	0.107213
95.4373	0.108608
97.5628	0.109542
99.4758	0.110475
101.601	0.111871
102.026	0.111873
102.452	0.112799
