Adsorption isotherm of Hydrogen on C22F0.2(BF4)0.8
DOI: 10.1021/ja907232y
Adsorbate Hydrogen: InChIKey UFHFLCQGNIYNRP-UHFFFAOYSA-N
Temperature: 298 K
Tabular data in the source: 0
pressure (bar)	uptake (wt%)
1.70044	0.00370655
3.18833	0.00833706
5.10132	0.0125069
6.80176	0.0166759
8.28965	0.0199191
9.56498	0.0231615
11.6905	0.0273322
13.1784	0.0305755
14.6663	0.0333563
16.1542	0.0361371
17.8546	0.0393812
19.3425	0.042162
21.043	0.0449437
22.3183	0.048186
23.8062	0.050042
25.5066	0.0528237
27.2071	0.0556054
28.9075	0.0588495
30.6079	0.0616312
32.3084	0.0639505
34.0088	0.0667322
35.7093	0.0690514
36.5595	0.0704423
38.2599	0.0727615
40.1729	0.0750817
41.0231	0.0764725
42.7236	0.0787918
44.6366	0.081112
46.5496	0.0834321
48.0375	0.0857505
49.9505	0.0880707
51.8635	0.0903908
53.7764	0.092711
55.4769	0.0945678
57.3899	0.0959631
58.4527	0.0978173
60.3657	0.099675
62.2787	0.101995
64.1917	0.103853
66.1046	0.105711
68.0176	0.107568
69.9306	0.109426
71.8436	0.111284
73.9692	0.11268
75.8822	0.114538
77.5826	0.116395
79.7082	0.117328
81.6212	0.119186
83.5342	0.121044
85.2346	0.121513
87.1476	0.122909
89.2732	0.123842
91.1862	0.124775
93.3117	0.125247
95.4373	0.125718
97.3503	0.126651
99.4758	0.127122
102.452	0.127135
