Adsorption isotherm of Hydrogen on C10F0.9(BF4)9.1
DOI: 10.1021/ja907232y
Adsorbate Hydrogen: InChIKey UFHFLCQGNIYNRP-UHFFFAOYSA-N
Temperature: 298 K
Tabular data in the source: 0
pressure (bar)	uptake (wt%)
0.670249	-0.000174292
4.70197	0.00366013
7.72449	0.00592593
10.5783	0.00766885
14.9427	0.0102832
17.9645	0.0122004
21.8253	0.0144662
27.1979	0.0181264
31.227	0.0207407
35.2555	0.0230065
41.1303	0.0263181
47.3393	0.0291068
52.8777	0.0318954
57.5768	0.0341612
61.2688	0.0359041
67.4771	0.0383442
73.3501	0.0407843
79.0551	0.0430501
83.4177	0.044793
88.9547	0.0468845
94.6589	0.0488017
98.5175	0.0500218
102.208	0.0510675
