Adsorption isotherm of Hydrogen on MWCNT
DOI: 10.1016/j.ijhydene.2013.10.163
Adsorbate Hydrogen: InChIKey UFHFLCQGNIYNRP-UHFFFAOYSA-N
Temperature: 298 K
Tabular data in the source: 0
pressure (bar)	uptake (wt%)
0.941176	0.00199238
4.94118	0.011156
10.1176	0.0219152
16.7059	0.0326801
20.2353	0.0390578
28.2353	0.0510214
34.8235	0.0617862
40.2353	0.07016
46.8235	0.0781408
53.4118	0.0861215
60.2353	0.0948987
65.8824	0.100887
73.8824	0.108873
80	0.115261
89.6471	0.123652
95.7647	0.128847
100	0.133239
