Adsorption isotherm of Hydrogen on MWCNT
DOI: 10.1016/j.ijhydene.2013.10.163
Adsorbate Hydrogen: InChIKey UFHFLCQGNIYNRP-UHFFFAOYSA-N
Temperature: 298 K
Tabular data in the source: 0
pressure (bar)	uptake (wt%)
0.925926	0.00155125
4.62963	0.0139612
10.1852	0.0232687
16.4352	0.0345152
19.9074	0.0407202
26.8519	0.0504155
33.3333	0.0604986
40.2778	0.0709695
49.3056	0.080277
53.4722	0.0857064
60.1852	0.094626
68.287	0.100055
74.537	0.105485
80.3241	0.109363
90.7407	0.121773
99.0741	0.130693
