Adsorption isotherm of Hydrogen on Carbon Nanotube
DOI: 10.1016/j.ijhydene.2013.10.163
Adsorbate Hydrogen: InChIKey UFHFLCQGNIYNRP-UHFFFAOYSA-N
Temperature: 298 K
Tabular data in the source: 0
pressure (bar)	uptake (wt%)
0.671141	0.00176991
2.23714	0.0117994
4.69799	0.0235988
10.0671	0.0418879
15.8837	0.0584071
19.9105	0.0707965
25.2796	0.0814159
33.1096	0.0961652
39.821	0.109735
47.4273	0.122124
53.915	0.133333
59.9553	0.142183
66.6667	0.149853
73.3781	0.158112
80.0895	0.165782
88.8143	0.176401
95.0783	0.184071
100.224	0.189381
