Adsorption isotherm of Hydrogen on MWCNT
DOI: 10.1016/j.ijhydene.2013.10.163
Adsorbate Hydrogen: InChIKey UFHFLCQGNIYNRP-UHFFFAOYSA-N
Temperature: 298 K
Tabular data in the source: 0
pressure (bar)	uptake (wt%)
0.462963	0.00116343
5.09259	0.0108587
10.1852	0.0221053
20.3704	0.039169
40.0463	0.0690305
59.9537	0.094626
80.0926	0.11518
100.231	0.132244
