Adsorption isotherm of Hydrogen on Carbon Nanotube
DOI: 10.1016/j.ijhydene.2013.10.163
Adsorbate Hydrogen: InChIKey UFHFLCQGNIYNRP-UHFFFAOYSA-N
Temperature: 298 K
Tabular data in the source: 0
pressure (bar)	uptake (wt%)
0.223714	0.059587
5.14541	0.0713864
10.5145	0.0825959
15.2125	0.0908555
19.9105	0.099115
23.7136	0.105015
30.8725	0.115634
37.8076	0.123894
40.0447	0.129794
44.9664	0.136283
52.7964	0.145723
59.9553	0.154572
64.6532	0.159292
71.8121	0.166372
76.2864	0.171681
80.0895	0.175221
85.0112	0.179941
91.0515	0.184661
95.7494	0.188791
100	0.19292
