Adsorption isotherm of Hydrogen on MWCNT
DOI: 10.1016/j.ijhydene.2013.10.163
Adsorbate Hydrogen: InChIKey UFHFLCQGNIYNRP-UHFFFAOYSA-N
Temperature: 298 K
Tabular data in the source: 0
pressure (bar)	uptake (wt%)
0.235294	0.00079639
2.11765	0.0055766
4.94118	0.0127469
10.1176	0.0207221
16	0.0267114
20.2353	0.0318987
30.8235	0.0363158
40	0.0403295
49.6471	0.0443452
60.2353	0.0483646
70.3529	0.0523821
80.2353	0.0567964
91.2941	0.0572381
100	0.0576705
