Adsorption isotherm of Water on Cu(C10H6O6)(H2O)1.66H2O
DOI: 10.1038/Nchem.1003
Adsorbate Water: InChIKey XLYOFNOQVPJJNP-UHFFFAOYSA-N
Temperature: 318 K
Tabular data in the source: 0
pressure (bar)	uptake (mmol/g)
0.0024186	1.39535
0.00297674	1.63455
0.00316279	2.51163
0.00353488	3.0299
0.00390698	4.54485
0.00409302	5.26246
0.00427907	5.74086
0.00446512	6.1794
0.00465116	6.53821
0.0055814	6.93688
0.00651163	7.29568
0.00744186	7.53488
0.00818605	7.85382
0.00911628	8.13289
0.0100465	8.41196
0.0122791	8.89037
0.0143256	9.3289
0.016186	9.76744
0.0182326	10.1661
0.0202791	10.5249
0.0226977	11.0432
0.0251163	11.4419
0.0277209	11.8804
0.0303256	12.1993
0.0329302	12.4784
0.0353488	12.5183
