Adsorption isotherm of Water on Cu(C10H6O6)(H2O)1.66H2O
DOI: 10.1038/Nchem.1003
Adsorbate Water: InChIKey XLYOFNOQVPJJNP-UHFFFAOYSA-N
Temperature: 308 K
Tabular data in the source: 0
pressure (bar)	uptake (mmol/g)
0.00316279	0.478405
0.00446512	0.797342
0.00483721	1.15615
0.00576744	1.35548
0.00595349	1.71429
0.00669767	2.23256
0.00706977	2.6711
0.00781395	3.46844
0.008	3.98671
0.00911628	5.34219
0.0102326	6.21927
0.012093	6.77741
0.0141395	7.17608
0.016186	7.41528
0.0182326	7.65449
0.0202791	7.89369
0.0253023	8.49169
0.0301395	8.93023
0.0351628	9.4485
0.0403721	9.96678
0.0450233	10.4053
0.0502326	10.8837
0.0550698	11.3223
0.060093	11.7209
0.0653023	12.1196
0.0703256	12.5183
