Adsorption isotherm of Methanol on Cu(C10H6O6)(H2O)1.66H2O
DOI: 10.1038/Nchem.1003
Adsorbate Methanol: InChIKey OKKJLVBELUTLKV-UHFFFAOYSA-N
Temperature: 348 K
Tabular data in the source: 0
pressure (bar)	uptake (mmol/g)
9.51e-05	0.0247826
0.000206417	0.0742091
0.000395856	0.0868499
0.000538238	0.111716
0.000712152	0.136637
0.000855019	0.186119
0.000996916	0.186368
0.00107599	0.198815
0.00120212	0.199037
0.00148664	0.23646
0.00175564	0.286164
0.00201033	0.409688
0.00223494	0.607006
0.0025066	0.7921
0.00277972	1.05104
0.00302495	1.49455
0.00326169	2.30727
0.00352122	2.67696
0.00403642	3.2194
0.00429402	3.49063
0.00454846	3.60184
0.00478544	3.62688
0.00505371	3.63965
0.00557473	3.67749
