Adsorption isotherm of Water on Cu(C10H6O6)(H2O)1.66H2O
DOI: 10.1038/Nchem.1003
Adsorbate Water: InChIKey XLYOFNOQVPJJNP-UHFFFAOYSA-N
Temperature: 303 K
Tabular data in the source: 0
pressure (bar)	uptake (mmol/g)
0.00427907	0.438538
0.00502326	0.637874
0.00613953	0.877076
0.00632558	1.03654
0.00725581	1.31561
0.00781395	1.67442
0.00818605	1.91362
0.00911628	2.63123
0.0102326	3.66777
0.012093	5.30233
0.0143256	6.45847
0.016186	6.77741
0.0180465	7.01661
0.020093	7.21595
0.0253023	7.57475
0.0301395	8.01329
0.0351628	8.33223
0.040186	8.69103
0.0452093	9.04983
0.0502326	9.40864
0.0550698	9.76744
0.0602791	10.0864
0.0653023	10.4452
0.0703256	10.8439
0.0753488	11.1229
0.08	11.3621
