Adsorption isotherm of Water on Cu(C10H6O6)(H2O)1.66H2O
DOI: 10.1038/Nchem.1003
Adsorbate Water: InChIKey XLYOFNOQVPJJNP-UHFFFAOYSA-N
Temperature: 298 K
Tabular data in the source: 0
pressure (bar)	uptake (mmol/g)
0.00427907	0.239203
0.00595349	0.438538
0.00688372	0.717608
0.00818605	1.03654
0.00911628	1.55482
0.0102326	2.23256
0.0107907	2.99003
0.012093	3.66777
0.0132093	4.18605
0.0141395	4.54485
0.0150698	4.90365
0.0163721	5.10299
0.0171163	5.50166
0.0182326	5.66113
0.0191628	6.0598
0.019907	6.13953
0.0212093	6.299
0.0219535	6.4186
0.0228837	6.53821
0.024186	6.61794
0.0251163	6.77741
0.0258605	6.77741
0.028093	6.93688
0.0303256	7.05648
0.032	7.13621
0.0344186	7.25581
0.036093	7.37542
0.0383256	7.49502
0.040186	7.57475
0.0422326	7.69435
0.044093	7.77409
0.0461395	7.89369
0.048186	7.97342
0.0504186	8.09302
0.0522791	8.17276
0.0528372	8.17276
