Adsorption isotherm of Nitric oxide on Cu(C10H6O6)(H2O)1.66H2O
DOI: 10.1038/Nchem.1003
Adsorbate Nitric oxide: InChIKey MWUXSHHQAYIFBG-UHFFFAOYSA-N
Temperature: 298 K
Tabular data in the source: 0
pressure (bar)	uptake (mmol/g)
0.00634683	0.0244736
0.0126499	0.0611922
0.0230675	0.14688
0.0422612	0.177443
0.0507674	0.19783
0.0699611	0.228393
0.0977704	0.24873
0.12984	0.27722
0.181206	0.307701
0.264685	0.354427
0.440251	0.439693
0.731498	0.56344
