Adsorption isotherm of Water on Cu(C10H6O6)(H2O)1.66H2O
DOI: 10.1038/Nchem.1003
Adsorbate Water: InChIKey XLYOFNOQVPJJNP-UHFFFAOYSA-N
Temperature: 313 K
Tabular data in the source: 0
pressure (bar)	uptake (mmol/g)
0.00167442	0.438538
0.0024186	0.637874
0.00334884	1.35548
0.00390698	1.71429
0.00409302	2.07309
0.00427907	2.31229
0.00446512	2.7907
0.00483721	3.62791
0.00502326	4.22591
0.00576744	5.14286
0.00632558	5.78073
0.00669767	6.1794
0.00706977	6.53821
0.00762791	6.69767
0.008	6.93688
0.00911628	7.17608
0.0102326	7.41528
0.012093	7.77409
0.0141395	8.17276
0.016186	8.49169
0.0180465	8.8505
0.0202791	9.12957
0.0253023	9.76744
0.0303256	10.4053
0.0353488	10.9236
0.0403721	11.0831
0.0424186	11.2425
