Adsorption isotherm of Nitric oxide on Cu(C10H6O6)(H2O)1.66H2O
DOI: 10.1038/Nchem.1003
Adsorbate Nitric oxide: InChIKey MWUXSHHQAYIFBG-UHFFFAOYSA-N
Temperature: 298 K
Tabular data in the source: 0
pressure (bar)	uptake (mmol/g)
0.0214406	0.00198612
0.0428812	0.00397224
0.057851	0.016179
0.0856676	0.0344753
0.0963478	0.046693
0.130577	0.0710955
0.147677	0.0873784
0.184036	0.115857
0.278225	0.166637
0.404468	0.249989
0.556552	0.304703
0.811468	0.391807
