Adsorption isotherm of Water on Cu(C10H6O6)(H2O)1.66H2O
DOI: 10.1038/Nchem.1003
Adsorbate Water: InChIKey XLYOFNOQVPJJNP-UHFFFAOYSA-N
Temperature: 323 K
Tabular data in the source: 0
pressure (bar)	uptake (mmol/g)
0.00186047	0.916944
0.00223256	1.91362
0.00260465	3.74751
0.0027907	4.94352
0.00334884	5.701
0.00353488	6.49834
0.00390698	6.89701
0.00465116	7.25581
0.00539535	7.53488
0.0055814	7.69435
0.00688372	8.25249
0.00781395	8.49169
0.00818605	8.6113
0.00911628	8.9701
0.0102326	9.2093
0.012093	9.80731
0.0141395	10.3256
0.016186	10.8439
0.0182326	11.3621
0.020093	11.7608
0.0226977	12.1993
0.0251163	12.4784
0.0277209	12.6777
