Adsorption isotherm of Ethanol on Yb(BPT)(H2O)*(DMF)1.5(H2O)1.25
DOI: 10.1039/C1cc10897b
Adsorbate Ethanol: InChIKey LFQSCWFLJHTTHZ-UHFFFAOYSA-N
Temperature: 296 K
Tabular data in the source: 0
pressure (bar)	uptake (cm3(STP)/g)
0.00619484	0.468223
0.0324133	8.27127
0.0695562	12.4225
0.141657	15.6998
0.226867	17.0108
0.318632	17.8847
0.412581	19.8511
0.513086	20.5066
0.611405	21.8175
0.751237	23.5654
0.840817	25.7503
0.880144	27.2797
0.910733	28.8091
