Adsorption isotherm of Acetylene on Yb(BPT)(H2O)*(DMF)1.5(H2O)1.25
DOI: 10.1039/C1cc10897b
Adsorbate Acetylene: InChIKey HSFWRNGVRCDJHI-UHFFFAOYSA-N
Temperature: 296 K
Tabular data in the source: 0
pressure (bar)	uptake (cm3(STP)/g)
0.0158304	0.646088
0.0667817	2.2192
0.131629	4.31668
0.224267	6.67634
0.309958	9.10155
0.409545	11.1335
0.499867	13.231
0.592506	15.3284
0.689777	17.0982
0.782415	18.8024
0.870422	20.6377
0.958429	22.0797
1.02791	23.2595
1.05802	23.9805
