Adsorption isotherm of Methanol on Yb(BPT)(H2O)*(DMF)1.5(H2O)1.25
DOI: 10.1039/C1cc10897b
Adsorbate Methanol: InChIKey OKKJLVBELUTLKV-UHFFFAOYSA-N
Temperature: 296 K
Tabular data in the source: 0
pressure (bar)	uptake (cm3(STP)/g)
0.00837971	8.70825
0.0149343	15.6998
0.0324133	24.2209
0.0564469	31.6494
0.0739259	36.8931
0.128548	41.9183
0.205018	47.599
0.288044	52.8427
0.351405	56.994
0.427876	62.8931
0.506531	69.2293
0.587371	74.9099
0.676951	81.2461
0.746867	86.2713
0.821153	90.8595
0.897623	98.2881
