Adsorption isotherm of Carbon Dioxide on Yb(BPT)(H2O)*(DMF)1.5(H2O)1.25
DOI: 10.1039/C1cc10897b
Adsorbate Carbon Dioxide: InChIKey CURLTUGMZLYLDI-UHFFFAOYSA-N
Temperature: 296 K
Tabular data in the source: 0
pressure (bar)	uptake (cm3(STP)/g)
0.0366741	0.580541
0.0968892	1.62928
0.15942	2.67802
0.252059	4.18558
0.344698	5.75869
0.411861	6.74189
0.479024	7.65953
0.56703	9.10155
0.657353	10.478
0.749992	11.92
0.835683	13.2965
0.930637	14.8041
1.02791	16.115
1.06033	16.7705
