Adsorption isotherm of Methane on Yb(BPT)(H2O)*(DMF)1.5(H2O)1.25
DOI: 10.1039/C1cc10897b
Adsorbate Methane: InChIKey VNWKTOKETHGBQD-UHFFFAOYSA-N
Temperature: 296 K
Tabular data in the source: 0
pressure (bar)	uptake (cm3(STP)/g)
0.0181464	0.121718
0.0968892	0.383903
0.19416	0.908273
0.289114	1.43264
0.381753	2.02256
0.499867	2.61247
0.599454	3.26794
0.689777	3.53012
0.789363	4.12004
0.872738	4.64441
0.970009	5.03768
1.0557	5.49651
