Adsorption isotherm of Argon on C60H193N12O120.5Na4Cu6Mn4
DOI: 10.1002/chem.201103308
Adsorbate Argon: InChIKey XKRFYHLGVUSROY-UHFFFAOYSA-N
Temperature: 77 K
Tabular data in the source: 0
pressure (bar)	uptake (cm3(STP)/g)
0.00240181	0.913349
0.00626145	1.33489
0.0139887	1.68618
0.0168862	1.8267
0.0212337	1.96721
0.0260656	2.03747
0.0337951	2.24824
0.038627	2.3185
0.054087	2.66979
0.058919	2.74005
0.0656841	2.8103
0.070516	2.88056
0.0748635	3.02108
0.07728	3.02108
0.0816286	3.09133
0.0951577	3.30211
0.0995063	3.37237
0.111103	3.51288
0.115935	3.58314
0.120283	3.72365
0.126565	3.79391
0.131398	3.79391
0.135746	3.86417
0.140095	3.93443
0.144927	4.00468
0.159421	4.28571
0.16377	4.35597
0.177782	4.56674
0.18213	4.70726
0.192276	4.91803
0.197108	4.98829
0.206769	5.26932
0.2145	5.40984
0.218365	5.48009
0.223196	5.62061
0.236236	6.18267
0.243966	6.39344
0.247829	6.60422
0.25459	6.88525
0.258936	7.16628
0.263764	7.44731
0.272452	8.14988
