Adsorption isotherm of Nitrogen on C60H193N12O120.5Na4Cu6Mn4
DOI: 10.1002/chem.201103308
Adsorbate Nitrogen: InChIKey IJGRMHOSHXDMSA-UHFFFAOYSA-N
Temperature: 77 K
Tabular data in the source: 0
pressure (bar)	uptake (cm3(STP)/g)
0.00506227	1.05386
0.0152828	1.47541
0.0391706	1.75644
0.0664733	2.03747
0.0989062	2.17799
0.127924	2.3185
0.18085	2.38876
0.225243	2.38876
0.279868	2.59953
0.32085	2.52927
0.354999	2.52927
0.377195	2.52927
0.395973	2.59953
0.452317	2.59953
0.469392	2.59953
0.484758	2.59953
0.500121	2.66979
0.517195	2.66979
0.534265	2.74005
0.547925	2.74005
0.561584	2.74005
0.59061	2.74005
0.607676	2.88056
0.621332	2.95082
0.631572	3.02108
0.646939	3.02108
0.662298	3.16159
0.704975	3.30211
0.763011	3.58314
0.778366	3.79391
0.81249	4.21546
0.827841	4.49649
0.844895	4.84778
0.858531	5.26932
0.873853	6.04215
0.892575	7.09602
0.907878	8.22014
0.921449	9.76581
0.93163	10.8899
0.938375	12.3653
0.946816	14.0515
0.951851	15.5972
0.955154	17.5644
0.958464	19.3911
0.963355	23.466
0.964846	27.26
0.96495	25.4333
0.966446	29.1569
