Adsorption isotherm of Carbon Dioxide on SNU-30'
DOI: 10.1002/chem.201001549
Adsorbate Carbon Dioxide: InChIKey CURLTUGMZLYLDI-UHFFFAOYSA-N
Temperature: 298 K
Tabular data in the source: 0
pressure (bar)	uptake (cm3(STP)/g)
0.117809	1.32979
0.16689	2.65957
0.214004	4.43262
0.263082	6.20567
0.316087	7.97872
0.369095	9.30851
0.414246	11.0816
0.467261	11.5248
0.518299	13.7411
0.569347	14.6277
0.620389	16.4007
0.667503	18.1738
0.714624	19.0603
0.767632	20.3901
0.822604	21.7199
0.865801	22.1631
0.918806	23.9362
0.973778	25.266
