Adsorption isotherm of Methane on SNU-30'
DOI: 10.1002/chem.201001549
Adsorbate Methane: InChIKey VNWKTOKETHGBQD-UHFFFAOYSA-N
Temperature: 273 K
Tabular data in the source: 0
pressure (bar)	uptake (cm3(STP)/g)
0.219902	3.5461
0.310231	3.5461
0.380902	6.20567
0.424095	7.0922
0.463362	7.97872
0.526185	9.75177
0.569382	10.195
0.622384	12.4113
0.671475	12.4113
0.718596	13.2979
0.775528	15.0709
0.816765	15.0709
0.867814	15.9574
0.924756	16.4007
0.975805	17.2872
