Adsorption isotherm of Carbon Dioxide on SNU-31'
DOI: 10.1002/chem.201001549
Adsorbate Carbon Dioxide: InChIKey CURLTUGMZLYLDI-UHFFFAOYSA-N
Temperature: 195 K
Tabular data in the source: 0
pressure (bar)	uptake (cm3(STP)/g)
0.00164785	9.61282
0.00329972	19.4927
0.00475689	16.4219
0.0048432	22.1629
0.00486929	23.8985
0.00489338	25.5007
0.00793217	27.6368
0.0124663	29.239
0.0230679	34.4459
0.0336595	38.9853
0.0457525	43.3912
0.0487953	45.7944
0.0653701	48.3311
0.0744203	50.3338
0.0849677	51.9359
0.0955071	53.004
0.110571	55.0067
0.16175	59.4126
0.206897	62.4833
0.25354	65.1535
0.306195	67.6903
0.358852	70.3605
0.409992	72.0961
0.462639	74.0988
0.518288	75.8344
0.569418	76.9025
0.620554	78.3712
0.667181	79.9733
0.721315	80.9079
0.822079	83.5781
0.874708	84.3792
0.924336	85.5808
0.979972	86.3818
