Adsorption isotherm of Hydrogen on SNU-30'
DOI: 10.1002/chem.201001549
Adsorbate Hydrogen: InChIKey UFHFLCQGNIYNRP-UHFFFAOYSA-N
Temperature: 87 K
Tabular data in the source: 0
pressure (bar)	uptake (cm3(STP)/g)
0.0311183	9.02721
0.0486277	13.2783
0.0739313	17.5375
0.10896	24.4524
0.161523	31.9147
0.212144	38.3168
0.264727	42.6045
0.313406	47.9464
0.364048	51.1738
0.414683	55.4595
0.469218	59.2202
0.515962	62.4436
0.568563	64.0858
0.619204	67.3133
0.669849	70.0117
0.722446	72.1831
0.773105	72.7651
0.825695	75.9946
0.874408	76.0455
0.92506	77.6857
0.96987	78.7907
