Adsorption isotherm of Nitrogen on SNU-30'
DOI: 10.1002/chem.201001549
Adsorbate Nitrogen: InChIKey IJGRMHOSHXDMSA-UHFFFAOYSA-N
Temperature: 77 K
Tabular data in the source: 0
pressure (bar)	uptake (cm3(STP)/g)
0.0126295	155.556
0.0223242	162.963
0.028139	167.725
0.0456554	170.899
0.0631614	175.661
0.078743	176.72
0.0943246	177.778
0.111848	179.894
0.162479	184.656
0.209221	188.36
0.257918	191.005
0.312453	194.709
0.365044	197.884
0.413751	198.942
0.460506	200.529
0.515045	203.704
0.569597	204.762
0.622195	206.878
0.670898	208.466
0.719599	210.582
0.768302	212.169
0.820906	213.228
0.873517	213.228
