Adsorption isotherm of Methane on SNU-30'
DOI: 10.1002/chem.201001549
Adsorbate Methane: InChIKey VNWKTOKETHGBQD-UHFFFAOYSA-N
Temperature: 195 K
Tabular data in the source: 0
pressure (bar)	uptake (cm3(STP)/g)
0.0490185	9.30851
0.0646895	14.1844
0.076461	15.5142
0.0823346	17.7305
0.0941096	18.617
0.111748	23.0496
0.160773	31.4716
0.209819	37.234
0.260822	43.883
0.309862	50.5319
0.364803	55.8511
0.411892	60.727
0.464876	65.1596
0.509995	70.922
0.566928	72.695
0.615981	77.5709
0.667026	78.9007
0.714122	82.8901
0.769091	84.6631
0.820118	88.2092
0.87117	88.6525
0.92023	92.6418
0.971289	92.1986
