Adsorption isotherm of Carbon Dioxide on SNU-31'
DOI: 10.1002/chem.201001549
Adsorbate Carbon Dioxide: InChIKey CURLTUGMZLYLDI-UHFFFAOYSA-N
Temperature: 273 K
Tabular data in the source: 0
pressure (bar)	uptake (cm3(STP)/g)
0.0571991	4.80641
0.0872819	5.8745
0.108343	6.80908
0.151974	9.07877
0.207627	11.0814
0.261772	12.6836
0.3099	14.1522
0.364041	15.4873
0.413673	16.9559
0.463295	17.757
0.521943	18.9586
0.57007	20.2937
0.618185	20.8278
0.673825	21.8959
0.72044	22.6969
0.774572	23.498
0.821188	24.2991
0.870808	24.9666
0.923437	25.7677
0.976064	26.4352
