Adsorption isotherm of Oxygen on SNU-30'
DOI: 10.1002/chem.201001549
Adsorbate Oxygen: InChIKey MYMOFIZGZYHOMD-UHFFFAOYSA-N
Temperature: 77 K
Tabular data in the source: 0
pressure (bar)	uptake (cm3(STP)/g)
0.00438511	224.868
0.0199495	228.571
0.0374556	233.333
0.0393629	239.683
0.0607764	242.857
0.0666015	246.032
0.0899498	251.323
0.11136	255.026
0.134694	262.434
0.163906	265.079
0.187257	269.841
