Adsorption isotherm of Carbon Dioxide on SNU-30'
DOI: 10.1002/chem.201001549
Adsorbate Carbon Dioxide: InChIKey CURLTUGMZLYLDI-UHFFFAOYSA-N
Temperature: 195 K
Tabular data in the source: 0
pressure (bar)	uptake (cm3(STP)/g)
0.00189751	8.42199
0.00562638	33.6879
0.00573431	19.9468
0.011406	47.8723
0.0171646	64.7163
0.0172308	56.2943
0.0210397	71.3652
0.0267706	91.7553
0.0285393	116.578
0.0400462	151.596
0.0555919	172.429
0.0653579	179.078
0.0849423	185.727
0.106487	192.819
0.157486	199.911
0.206519	207.447
0.265408	210.106
0.312504	214.096
0.365495	217.642
0.410646	219.415
0.469545	220.745
0.512732	222.518
0.565737	224.291
0.616771	226.95
0.665849	228.723
0.718861	229.61
0.769906	230.94
0.820947	232.713
0.868068	233.599
0.92109	233.156
0.966251	233.599
