Adsorption isotherm of Hydrogen on SNU-31'
DOI: 10.1002/chem.201001549
Adsorbate Hydrogen: InChIKey UFHFLCQGNIYNRP-UHFFFAOYSA-N
Temperature: 77 K
Tabular data in the source: 0
pressure (bar)	uptake (cm3(STP)/g)
0.112784	2.26969
0.206002	2.93725
0.266141	3.33778
0.317263	3.87183
0.366877	4.13885
0.417994	4.40587
0.469118	5.07343
0.518734	5.47397
0.571357	5.8745
0.622476	6.27503
0.672093	6.67557
0.724711	6.80908
0.77433	7.34312
0.820963	9.34579
0.876595	9.87984
0.926211	10.2804
0.975827	10.6809
