Adsorption isotherm of Nitrogen on SNU-31'
DOI: 10.1002/chem.201001549
Adsorbate Nitrogen: InChIKey IJGRMHOSHXDMSA-UHFFFAOYSA-N
Temperature: 77 K
Tabular data in the source: 0
pressure (bar)	uptake (cm3(STP)/g)
0.111253	0.400534
0.166881	0.667557
0.214987	0.667557
0.264596	0.534045
0.311203	0.801068
0.363822	0.934579
0.419443	0.801068
0.470563	1.2016
0.517166	1.2016
0.572786	0.934579
0.622396	0.934579
0.675011	0.801068
0.721616	0.934579
0.772732	1.06809
0.822344	1.2016
0.879471	1.2016
