Adsorption isotherm of Methane on SNU-31'
DOI: 10.1002/chem.201001549
Adsorbate Methane: InChIKey VNWKTOKETHGBQD-UHFFFAOYSA-N
Temperature: 195 K
Tabular data in the source: 0
pressure (bar)	uptake (cm3(STP)/g)
0.260122	2.93725
0.311237	3.07076
0.371371	3.07076
0.413476	3.87183
0.469112	4.6729
0.520227	4.80641
0.572852	5.34045
0.625471	5.47397
0.670577	5.8745
0.7232	6.27503
0.77282	6.94259
0.825439	7.0761
0.875055	7.47664
0.924675	8.14419
0.978792	7.87717
