Adsorption isotherm of Hydrogen on SNU-30'
DOI: 10.1002/chem.201001549
Adsorbate Hydrogen: InChIKey UFHFLCQGNIYNRP-UHFFFAOYSA-N
Temperature: 77 K
Tabular data in the source: 0
pressure (bar)	uptake (cm3(STP)/g)
0.00383182	10.0529
0.0154751	17.4603
0.0310188	24.3386
0.0407341	28.5714
0.0562814	34.9206
0.0757291	40.7407
0.108806	48.1481
0.16328	61.3757
0.211929	71.4286
0.260581	80.9524
0.307302	87.8307
0.418277	102.116
0.466949	108.466
0.515636	112.698
0.566254	119.577
0.620786	123.81
0.669465	129.101
0.720093	134.392
0.770735	137.566
0.82137	141.799
0.872009	145.503
0.91875	149.206
0.975234	152.91
