Adsorption isotherm of Carbon Dioxide on SNU-31'
DOI: 10.1002/chem.201001549
Adsorbate Carbon Dioxide: InChIKey CURLTUGMZLYLDI-UHFFFAOYSA-N
Temperature: 298 K
Tabular data in the source: 0
pressure (bar)	uptake (cm3(STP)/g)
0.160905	3.20427
0.212039	4.53939
0.26467	5.47397
0.312789	6.27503
0.357895	6.67557
0.410524	7.47664
0.466155	8.01068
0.515775	8.67824
0.569904	9.21228
0.619526	10.0134
0.670647	10.5474
0.721765	10.8144
0.781907	11.3485
0.825507	11.6155
0.87512	11.749
0.921733	12.4166
0.974356	12.8171
