Adsorption isotherm of Methane on SNU-30'
DOI: 10.1002/chem.201001549
Adsorbate Methane: InChIKey VNWKTOKETHGBQD-UHFFFAOYSA-N
Temperature: 298 K
Tabular data in the source: 0
pressure (bar)	uptake (cm3(STP)/g)
0.267058	5.68e-14
0.365234	0.886525
0.414326	0.886525
0.467338	1.77305
0.520357	1.77305
0.569448	1.77305
0.618536	2.21631
0.671545	3.5461
0.716716	2.65957
0.773655	3.5461
0.816842	5.31915
0.873795	4.43262
0.92485	4.43262
0.977866	4.87589
