Adsorption isotherm of Carbon Dioxide on SNU-30'
DOI: 10.1002/chem.201001549
Adsorbate Carbon Dioxide: InChIKey CURLTUGMZLYLDI-UHFFFAOYSA-N
Temperature: 273 K
Tabular data in the source: 0
pressure (bar)	uptake (cm3(STP)/g)
0.0647835	2.21631
0.088323	5.31915
0.115786	8.86525
0.166817	11.9681
0.215891	14.1844
0.266915	18.1738
0.314022	20.8333
0.367017	23.9362
0.420011	27.039
0.467118	29.6986
0.526004	32.8014
0.571144	35.9043
0.618258	37.6773
0.669292	40.3369
0.72033	42.5532
0.773321	46.0993
0.820428	48.7589
0.871462	51.4184
0.922493	54.5213
0.971578	55.4078
