Adsorption isotherm of Oxygen on SNU-30'
DOI: 10.1002/chem.201001549
Adsorbate Oxygen: InChIKey MYMOFIZGZYHOMD-UHFFFAOYSA-N
Temperature: 87 K
Tabular data in the source: 0
pressure (bar)	uptake (cm3(STP)/g)
0.000965687	151.323
0.00276303	174.603
0.00457756	195.238
0.00461193	189.947
0.00648832	201.058
0.0181247	209.524
0.0297748	215.873
0.0297954	212.698
0.0414524	217.989
0.051178	220.635
0.0569962	224.868
0.0725846	224.868
0.0881456	229.101
0.111504	232.804
0.160184	238.095
0.208863	243.386
0.263399	247.09
0.308178	252.91
0.362714	256.614
0.4114	260.847
0.465946	262.963
0.518526	267.725
0.565274	270.37
