Adsorption isotherm of Carbon Dioxide on [Co2(ox)2(dchtpy)]n*9nH2O
DOI: 10.1039/B927200c
Adsorbate Carbon Dioxide: InChIKey CURLTUGMZLYLDI-UHFFFAOYSA-N
Temperature: 195 K
Tabular data in the source: 0
pressure (bar)	uptake (cm3(STP)/g)
0.00400996	37.9543
0.00619484	1.24843
0.0193041	66.7946
0.0411528	74.6602
0.0979595	89.5173
0.150397	97.8199
0.200649	124.912
0.246531	155.501
0.305523	175.164
0.401657	189.585
1.00031	205.753
