Adsorption isotherm of Nitrogen on [Co2(ox)2(dchtpy)]n*9nH2O
DOI: 10.1039/B927200c
Adsorbate Nitrogen: InChIKey IJGRMHOSHXDMSA-UHFFFAOYSA-N
Temperature: 77 K
Tabular data in the source: 0
pressure (bar)	uptake (cm3(STP)/g)
0.00400996	0.842701
0.00400996	38.4225
0.00400996	48.2545
0.0171192	53.4982
0.0280436	70.9772
0.0782957	79.2797
0.108884	82.3385
0.320817	89.5486
0.61796	95.0108
0.862665	98.2881
0.910733	99.3805
0.982834	102.876
