Adsorption isotherm of Hydrogen on [Co2(ox)2(dchtpy)]n*9nH2O
DOI: 10.1039/B927200c
Adsorbate Hydrogen: InChIKey UFHFLCQGNIYNRP-UHFFFAOYSA-N
Temperature: 77 K
Tabular data in the source: 0
pressure (bar)	uptake (cm3(STP)/g)
0.0105646	-0.0312485
0.0127495	11.7671
0.0171192	26.1872
0.0236738	38.8595
0.0345982	47.3805
0.0542621	54.1536
0.117623	65.515
0.213758	76.2209
0.366699	85.1788
0.569892	92.1704
1.01561	101.347
