Adsorption isotherm of Methanol on [Co2(ox)2(dchtpy)]n*9nH2O
DOI: 10.1039/B927200c
Adsorbate Methanol: InChIKey OKKJLVBELUTLKV-UHFFFAOYSA-N
Temperature: 298 K
Tabular data in the source: 0
pressure (bar)	uptake (wt%)
0.000292	0.0025281
0.000991	0.0602088
0.00308865	0.0805281
0.00658445	0.121822
0.0100802	0.170982
0.0153239	0.218831
0.0188197	0.229318
0.031055	0.241772
0.0873374	0.273234
0.142571	0.294209
