Adsorption isotherm of Methanol on [Co2(ox)2(dchtpy)]n*9nH2O
DOI: 10.1039/B927200c
Adsorbate Methanol: InChIKey OKKJLVBELUTLKV-UHFFFAOYSA-N
Temperature: 288 K
Tabular data in the source: 0
pressure (bar)	uptake (wt%)
0.00200498	0.0588978
0.0085596	0.161805
0.0118369	0.195889
0.0118369	0.208999
0.0162067	0.22473
0.0304083	0.24636
0.0555344	0.261436
0.0850302	0.272579
0.101417	0.279789
0.112341	0.281755
