Adsorption isotherm of Methanol on [Co2(ox)2(dchtpy)]n*9nH2O
DOI: 10.1039/B927200c
Adsorbate Methanol: InChIKey OKKJLVBELUTLKV-UHFFFAOYSA-N
Temperature: 298 K
Tabular data in the source: 0
pressure (bar)	uptake (wt%)
0.0129294	0.110679
0.0205764	0.207032
0.0282235	0.225385
0.0402403	0.239805
0.0533495	0.248326
0.0642739	0.254881
0.0839378	0.262091
0.110156	0.271923
0.153854	0.284377
0.173518	0.293553
0.187719	0.299452
