Adsorption isotherm of Methanol on [Co2(ox)2(dchtpy)]n*9nH2O
DOI: 10.1039/B927200c
Adsorbate Methanol: InChIKey OKKJLVBELUTLKV-UHFFFAOYSA-N
Temperature: 303 K
Tabular data in the source: 0
pressure (bar)	uptake (wt%)
0.0107445	0.0844609
0.0282235	0.20441
0.036963	0.225385
0.0511646	0.236528
0.0730134	0.244394
0.0839378	0.250293
0.139652	0.271268
0.195366	0.288965
0.227047	0.294864
0.241249	0.299452
