Adsorption isotherm of Methanol on [Co2(ox)2(dchtpy)]n*9nH2O
DOI: 10.1039/B927200c
Adsorbate Methanol: InChIKey OKKJLVBELUTLKV-UHFFFAOYSA-N
Temperature: 318 K
Tabular data in the source: 0
pressure (bar)	uptake (wt%)
0.00528229	0.00121718
0.0085596	0.0680743
0.0304083	0.107402
0.0358705	0.148696
0.0522571	0.211621
0.0686436	0.224074
0.132005	0.245705
0.164778	0.251604
0.329736	0.275856
0.459736	0.285032
0.495786	0.293553
