Adsorption isotherm of Propene on Zeolite 13X
DOI: 10.1016/j.seppur.2012.10.009
Adsorbate Propene: InChIKey QQONPFPTGQHPMA-UHFFFAOYSA-N
Temperature: 373 K
Tabular data in the source: 0
pressure (bar)	uptake (mmol/g)
0.0480919	1.0104
0.0652537	1.52525
0.0652537	1.66255
0.108158	1.90853
0.116739	2.14308
0.168224	2.36618
0.399907	2.62932
0.72598	2.77234
1.50684	2.94968
2.16756	3.04693
3.14578	3.13846
4.19265	3.22426
5.16228	3.23571
