Adsorption isotherm of N-propane on Zeolite 13X
DOI: 10.1016/j.seppur.2012.10.009
Adsorbate N-propane: InChIKey ATUOYWHBWRKTHZ-UHFFFAOYSA-N
Temperature: 323 K
Tabular data in the source: 0
pressure (bar)	uptake (mmol/g)
0.0309302	0.369699
0.0480919	0.936036
0.0738345	1.27927
0.0995771	1.87421
0.159643	2.26893
0.399907	2.60072
0.794627	2.7609
1.524	2.86959
2.12466	2.91535
3.10288	2.94968
4.09826	2.984
5.1108	3.00116
