Adsorption isotherm of N-propane on Zeolite 13X
DOI: 10.1016/j.seppur.2012.10.009
Adsorbate N-propane: InChIKey ATUOYWHBWRKTHZ-UHFFFAOYSA-N
Temperature: 423 K
Tabular data in the source: 0
pressure (bar)	uptake (mmol/g)
0.0395111	0.0021383
0.0824154	0.140876
0.168224	0.341096
0.271194	0.604242
0.408488	0.861668
0.691656	1.21062
1.53258	1.74264
2.11608	1.94286
3.0943	2.16024
3.60057	2.22316
4.99067	2.33186
