Adsorption isotherm of N-propane on Zeolite 13X
DOI: 10.1016/j.seppur.2012.10.009
Adsorbate N-propane: InChIKey ATUOYWHBWRKTHZ-UHFFFAOYSA-N
Temperature: 373 K
Tabular data in the source: 0
pressure (bar)	uptake (mmol/g)
0.0309302	0.106553
0.0738345	0.415463
0.116739	0.747257
0.159643	1.18774
0.408488	1.82272
0.708818	2.08587
1.524	2.38334
2.52796	2.57784
3.37746	2.67509
5.09364	2.74374
