Adsorption isotherm of Propene on Zeolite 13X
DOI: 10.1016/j.seppur.2012.10.009
Adsorbate Propene: InChIKey QQONPFPTGQHPMA-UHFFFAOYSA-N
Temperature: 323 K
Tabular data in the source: 0
pressure (bar)	uptake (mmol/g)
0.0480919	2.49203
0.0738345	2.71513
0.0824154	2.84099
0.219709	3.04121
0.520039	3.18422
0.889016	3.25859
1.53258	3.32151
2.5108	3.38444
3.3603	3.41876
4.31278	3.44165
5.08506	3.45881
