Adsorption isotherm of Propene on Zeolite 13X
DOI: 10.1016/j.seppur.2012.10.009
Adsorbate Propene: InChIKey QQONPFPTGQHPMA-UHFFFAOYSA-N
Temperature: 423 K
Tabular data in the source: 0
pressure (bar)	uptake (mmol/g)
0.0309302	0.255287
0.0480919	0.535595
0.0652537	0.690051
0.0824154	0.861668
0.176805	1.29071
0.33126	1.70831
0.468554	1.90853
1.31806	2.38906
3.42895	2.69797
4.96492	2.7323
