Adsorption isotherm of P-Xylene on ZIF-8
DOI: 10.1016/j.micromeso.2013.01.012
Adsorbate P-Xylene: InChIKey URLKBWYHVLBVBO-UHFFFAOYSA-N
Temperature: 398 K
Tabular data in the source: 0
pressure (bar)	uptake (mmol/g)
1.46e-05	0.0121718
0.000836	0.0187264
0.00288115	0.0973819
0.00419208	0.149819
0.00581763	0.20881
0.00786267	0.300575
