Adsorption isotherm of M-Xylene on ZIF-8
DOI: 10.1016/j.micromeso.2013.01.012
Adsorbate M-Xylene: InChIKey IVSZLXZYQVIEFR-UHFFFAOYSA-N
Temperature: 398 K
Tabular data in the source: 0
pressure (bar)	uptake (mmol/g)
1.46e-05	0.0121718
0.00106334	0.0580541
0.00267141	0.169483
0.00399981	0.261247
0.00602737	0.418558
0.00774032	0.549651
