Adsorption isotherm of P-Xylene on ZIF-8
DOI: 10.1016/j.micromeso.2013.01.012
Adsorbate P-Xylene: InChIKey URLKBWYHVLBVBO-UHFFFAOYSA-N
Temperature: 398 K
Tabular data in the source: 0
pressure (bar)	uptake (mmol/g)
4.96e-05	0.0121718
0.00130805	0.228474
0.00392989	0.792172
0.00552048	1.16579
0.00649931	1.3952
0.00782771	1.71637
