Adsorption isotherm of Nitrogen on Py-COFDCM boiling water
DOI: 10.1021/jacs.9b03463
Article source: figure S9(b)
Adsorbate Nitrogen: InChIKey IJGRMHOSHXDMSA-UHFFFAOYSA-N
Kind: experiment
Temperature: 77 K
Tabular data in the source: 0
pressure (bar)	uptake (cm3(STP)/g)
0.011642	228.353
0.011642	253.82
0.016303	270.798
0.022129	274.194
0.038433	290.323
0.057066	297.963
0.074535	303.056
0.093168	308.149
0.114132	313.243
0.142088	318.336
0.174694	322.581
0.221284	328.523
0.274854	335.314
0.328435	341.256
0.38084	346.35
0.434421	353.141
0.552049	364.177
0.655704	376.061
0.75936	389.643
0.864171	408.319
0.019799	280.136
0.039598	294.567
0.055901	301.358
0.067553	306.452
0.080361	310.696
0.105986	315.789
0.132766	321.732
0.146749	323.43
0.160722	325.127
0.174694	327.674
0.187512	330.221
0.201485	331.919
0.231771	335.314
0.260881	338.71
0.316782	345.501
0.361041	349.745
0.375014	350.594
0.418107	355.688
0.471688	365.874
0.525259	373.514
0.582325	378.608
0.638236	383.701
0.680154	387.097
0.694137	388.795
0.736065	393.039
0.791966	399.83
0.845537	406.621
0.896787	418.506
0.908429	421.902
0.956184	443.124
