Adsorption isotherm of Nitrogen on Py-COFDCM under Ar
DOI: 10.1021/jacs.9b03463
Article source: figure S12
Adsorbate Nitrogen: InChIKey IJGRMHOSHXDMSA-UHFFFAOYSA-N
Kind: experiment
Temperature: 77 K
Tabular data in the source: 0
pressure (bar)	uptake (cm3(STP)/g)
0.003708	261.518
0.009261	285.908
0.014824	300.813
0.021299	305.556
0.088913	338.753
0.112065	342.818
0.268592	365.176
0.322315	372.629
0.373251	379.404
0.427895	384.824
0.481618	391.599
0.534408	397.019
0.642775	410.569
0.746512	423.442
0.852093	440.379
0.952121	468.835
0.020376	308.943
0.029638	318.428
0.040753	325.203
0.053723	329.268
0.07039	336.043
0.081506	340.108
0.103737	344.173
0.137072	352.304
0.14912	353.659
0.161157	355.691
0.172273	357.724
0.185242	360.434
0.209317	362.466
0.23247	366.531
0.257477	369.919
0.268592	371.274
0.31583	376.694
0.363068	382.114
0.374183	383.469
0.420489	388.211
0.477909	399.051
0.522371	407.182
0.534408	408.537
0.580724	413.957
0.639067	421.409
0.687227	426.829
0.744658	434.959
0.790963	441.057
0.850238	449.865
0.906737	459.35
0.951199	469.512
