Adsorption isotherm of Nitrogen on Py-COFTHF
DOI: 10.1021/jacs.9b03463
Article source: figure 2 (a)
Adsorbate Nitrogen: InChIKey IJGRMHOSHXDMSA-UHFFFAOYSA-N
Kind: experiment
Temperature: 77 K
Tabular data in the source: 0
pressure (bar)	uptake (cm3(STP)/g)
0	18.5431
0	34.4371
0	55.6291
0	87.4172
0	113.907
0	145.695
0	172.185
0	193.377
0	230.464
0.003222	251.656
0.004843	272.848
0.012909	299.338
0.041949	320.53
0.058079	331.126
0.077443	331.126
0.095195	336.424
0.119391	347.02
0.143598	347.02
0.17587	352.318
0.222662	357.616
0.277519	362.914
0.329144	365.563
0.387234	373.51
0.435637	373.51
0.555028	384.106
0.658288	389.404
0.764781	400
0.869652	410.596
0.020974	312.583
0.038726	325.828
0.058079	333.775
0.070988	339.073
0.087129	341.722
0.112937	347.02
0.129078	349.669
0.154896	352.318
0.169415	354.967
0.183935	357.616
0.212975	360.265
0.229106	365.563
0.256535	365.563
0.313013	370.861
0.371093	373.51
0.414662	378.808
0.471131	384.106
0.527599	389.404
0.5873	394.702
0.629249	394.702
0.687328	400
0.743807	402.649
0.787366	405.298
0.801886	407.947
0.843835	413.245
0.900313	415.894
0.966458	434.437
