Adsorption isotherm of Nitrogen on Py-COFCHCl3
DOI: 10.1021/jacs.9b03463
Article source: figure S5(a)
Adsorbate Nitrogen: InChIKey IJGRMHOSHXDMSA-UHFFFAOYSA-N
Kind: experiment
Temperature: 77 K
Tabular data in the source: 0
pressure (bar)	uptake (cm3(STP)/g)
0	5.29801
0	11.2583
0	17.2185
0	25.1656
0	31.7881
0	41.7219
0	47.6821
0	56.9536
0	64.9007
0	71.5232
0	79.4702
0	87.4172
0	94.0397
0	103.311
0	113.907
0	125.828
0	137.748
0	144.371
0	153.642
0.002482	162.914
0.002482	172.185
0.002482	178.808
0.002482	185.43
0.002482	194.702
0.004965	202.649
0.011166	229.139
0.019839	237.748
0.038443	250.993
0.05581	256.291
0.074413	260.927
0.088051	264.901
0.11162	268.874
0.140143	272.848
0.153781	274.834
0.182314	278.808
0.214556	282.119
0.270365	288.079
0.323693	293.377
0.37702	298.013
0.429111	301.987
0.482439	307.285
0.535766	312.583
0.643667	321.854
0.749086	333.775
0.853268	348.344
0.950003	377.483
0.022322	247.682
0.037207	256.954
0.042171	258.94
0.053327	262.252
0.074413	267.55
0.084333	270.199
0.107901	274.834
0.132705	278.808
0.143861	280.795
0.167429	284.106
0.181068	285.43
0.192234	286.755
0.20339	288.079
0.228194	291.391
0.265401	294.702
0.313773	298.676
0.362146	303.311
0.373302	303.311
0.421674	307.947
0.479956	317.881
0.52461	327.815
0.584139	333.113
0.631265	337.748
0.69204	342.384
0.740402	345.695
0.79993	352.318
0.848303	356.291
0.905349	366.887
0.950003	377.483
