Adsorption isotherm of Nitrogen on Py-COFEtOH
DOI: 10.1021/jacs.9b03463
Article source: figure 2 (a)
Adsorbate Nitrogen: InChIKey IJGRMHOSHXDMSA-UHFFFAOYSA-N
Kind: experiment
Temperature: 77 K
Tabular data in the source: 0
pressure (bar)	uptake (cm3(STP)/g)
0	26.6667
0	46.0606
0	65.4546
0	84.8485
0	109.091
0	138.182
0	157.576
0	191.515
0.003222	220.606
0.012909	259.394
0.058079	288.485
0.093584	293.333
0.112937	298.182
0.140376	303.03
0.187157	303.03
0.267832	312.727
0.374325	322.424
0.429182	327.273
0.480807	329.697
0.535665	336.97
0.645379	341.818
0.74864	351.515
0.8519	361.212
0.020974	269.091
0.041949	283.636
0.054857	288.485
0.072609	293.333
0.083897	293.333
0.104871	298.182
0.129078	303.03
0.151663	303.03
0.164572	305.455
0.17587	307.879
0.187157	307.879
0.212975	310.303
0.225884	312.727
0.262989	315.152
0.311392	320
0.324301	320
0.371093	322.424
0.419496	327.273
0.479196	332.121
0.525988	334.545
0.5873	339.394
0.635703	344.242
0.682495	346.667
0.695404	346.667
0.743807	351.515
0.790588	356.364
0.850289	363.636
0.897081	370.909
0.908379	373.333
0.950327	387.879
