Adsorption isotherm of Nitrogen on Py-COFDCM
DOI: 10.1021/jacs.9b03463
Article source: figure 2 (a)
Adsorbate Nitrogen: InChIKey IJGRMHOSHXDMSA-UHFFFAOYSA-N
Kind: experiment
Temperature: 77 K
Tabular data in the source: 0
pressure (bar)	uptake (cm3(STP)/g)
0	22.8571
0	45.7143
0	62.8571
0	85.7143
0	108.571
0	131.429
0	148.571
0	182.857
0	200
0	225.714
0.003222	257.143
0.009677	285.714
0.050014	328.571
0.090352	337.143
0.112937	342.857
0.216207	360
0.32269	374.286
0.429182	385.714
0.482418	391.429
0.535665	400
0.638925	411.429
0.745418	422.857
0.850289	442.857
0.019363	308.571
0.032272	320
0.041949	325.714
0.054857	328.571
0.070988	337.143
0.083897	337.143
0.10326	342.857
0.137143	351.429
0.151663	354.286
0.164572	354.286
0.174249	357.143
0.185546	360
0.209753	362.857
0.232338	365.714
0.256535	368.571
0.271065	371.429
0.316235	377.143
0.363027	382.857
0.375936	382.857
0.421117	388.571
0.477585	397.143
0.522756	405.714
0.535665	408.571
0.580846	411.429
0.638925	422.857
0.685717	425.714
0.745418	434.286
0.790588	440
0.848678	448.571
0.906757	460
0.951938	468.571
