Adsorption isotherm of Nitrogen on Py-COF 6M AcOH
DOI: 10.1021/jacs.9b03463
Article source: figure S24 (c)
Adsorbate Nitrogen: InChIKey IJGRMHOSHXDMSA-UHFFFAOYSA-N
Kind: experiment
Temperature: 77 K
Tabular data in the source: 0
pressure (bar)	uptake (cm3(STP)/g)
0	22.7273
0.001175	39.899
0	59.596
0	77.7778
0	96.9697
0	115.152
0	132.323
0.001175	152.02
0.001175	170.707
0.001175	187.879
0.001175	205.051
0.001175	219.697
0.002361	234.343
0.004722	250.505
0.004722	263.636
0.008258	283.838
0.014155	296.97
0.029486	310.101
0.042465	317.172
0.05426	323.232
0.064878	327.273
0.075497	332.323
0.089642	336.364
0.106158	339.394
0.127396	342.424
0.146263	345.455
0.169861	347.475
0.188728	350.505
0.209966	353.535
0.228832	355.556
0.259503	359.596
0.276019	360.606
0.310227	363.636
0.330279	366.162
0.359765	369.192
0.390436	370.707
0.41521	373.737
0.431726	375.758
0.462387	377.778
0.493058	379.798
0.509574	381.818
0.530801	383.838
0.563833	384.848
0.585071	386.869
0.613381	389.394
0.644042	392.929
0.664094	394.444
0.695951	395.96
0.714817	398.99
0.762005	404.04
0.811542	409.091
0.86109	418.182
0.908267	427.273
0.014155	306.061
0.016516	309.091
0.016516	312.121
0.021228	315.152
0.023588	320.202
0.030671	323.232
0.037744	327.273
0.047187	331.313
0.05662	334.343
0.068415	337.374
0.08257	341.414
0.0979	344.949
0.117952	348.485
0.13919	352.02
0.160418	354.545
0.181655	356.566
0.200522	359.091
0.219399	361.616
0.247709	364.646
0.270122	366.162
0.299608	368.687
0.320846	370.707
0.351517	373.737
0.379817	375.253
0.399869	377.273
0.419931	378.788
0.450592	380.808
0.482449	383.838
0.50014	384.848
0.523729	386.364
0.553214	388.384
0.573266	389.899
0.603938	392.929
0.632248	394.949
0.653485	395.96
0.684146	398.99
0.707745	402.02
0.759644	407.071
0.813903	415.152
0.863441	426.263
0.91535	434.343
