Adsorption isotherm of Nitrogen on Py-COFMeOH
DOI: 10.1021/jacs.9b03463
Article source: figure 2 (a)
Adsorbate Nitrogen: InChIKey IJGRMHOSHXDMSA-UHFFFAOYSA-N
Kind: experiment
Temperature: 77 K
Tabular data in the source: 0
pressure (bar)	uptake (cm3(STP)/g)
0	22.3602
0	37.2671
0	57.1429
0	77.0186
0	101.863
0	126.708
0	146.584
0	166.46
0.003227	186.335
0.003227	206.211
0.011294	231.056
0.038723	255.901
0.058084	260.87
0.077446	265.839
0.090354	270.807
0.111329	270.807
0.140371	275.776
0.156506	278.261
0.183934	280.745
0.214589	285.714
0.267833	290.683
0.321078	295.652
0.374322	300.621
0.429179	305.59
0.482424	308.075
0.535667	310.559
0.645382	322.981
0.748644	332.919
0.851904	350.311
0.020974	248.447
0.038726	255.901
0.053246	265.839
0.074221	268.323
0.085508	270.807
0.108104	275.776
0.1323	280.745
0.145209	280.745
0.167804	285.714
0.180703	285.714
0.193612	285.714
0.20491	288.199
0.229106	290.683
0.26461	295.652
0.313013	298.137
0.361416	303.106
0.374325	303.106
0.422728	310.559
0.479196	318.012
0.522756	327.95
0.584068	335.404
0.63086	337.888
0.692171	342.857
0.740574	347.826
0.797043	352.795
0.847067	357.764
0.903535	370.186
0.947095	377.64
