Adsorption isotherm of Nitrogen on Py-Py COF
DOI: 10.1021/jacs.9b03463
Article source: figure S34(c)
Adsorbate Nitrogen: InChIKey IJGRMHOSHXDMSA-UHFFFAOYSA-N
Kind: experiment
Temperature: 77 K
Tabular data in the source: 0
pressure (bar)	uptake (cm3(STP)/g)
0	7.30519
0	11.2013
0	16.0714
0	21.9156
0	26.7857
0	32.6299
0	39.4481
0	49.1883
0	56.9805
0	64.7727
0	72.5649
0	80.3571
0	87.1753
0	96.9156
0	108.604
0	117.37
0	130.032
0	142.695
0	154.383
0.001216	177.76
0.002432	193.344
0.002432	199.188
0.002432	204.058
0.004853	207.955
0.016992	234.253
0.019414	237.175
0.042475	247.89
0.058252	254.708
0.075234	259.578
0.092226	263.474
0.109208	270.292
0.138339	275.162
0.169881	281.007
0.194159	286.851
0.213573	288.799
0.269393	293.669
0.322781	300.487
0.376179	308.279
0.429567	316.071
0.480534	321.916
0.533932	329.708
0.64314	343.344
0.749927	359.903
0.856713	377.435
0.959862	404.221
0.019414	248.864
0.037622	259.091
0.053388	263.474
0.065527	267.37
0.086157	273.214
0.099501	275.162
0.11164	277.11
0.135907	280.032
0.148046	282.955
0.160175	285.877
0.172313	287.825
0.185658	288.799
0.209935	292.208
0.22328	294.643
0.232987	297.565
0.25847	300.974
0.308221	305.357
0.320359	306.331
0.368894	313.149
0.417439	318.507
0.478112	328.734
0.525431	338.474
0.575181	344.318
0.58732	345.292
0.635855	352.11
0.683184	358.442
0.745073	367.208
0.793608	372.565
0.853075	382.305
0.900394	390.097
0.961068	403.734
