Adsorption isotherm of Nitrogen on Py-COFo‐DCB/n‐BuOH
DOI: 10.1021/jacs.9b03463
Article source: figure 2 (a)
Adsorbate Nitrogen: InChIKey IJGRMHOSHXDMSA-UHFFFAOYSA-N
Kind: experiment
Temperature: 77 K
Tabular data in the source: 0
pressure (bar)	uptake (cm3(STP)/g)
0.001611	33.8461
0.001611	55.3846
0.001611	83.0769
0	116.923
0.001611	147.692
0.003222	178.462
0	203.077
0.003222	221.538
0.003222	252.308
0.016131	301.538
0.035494	320
0.054857	320
0.080675	332.308
0.116169	338.462
0.154896	350.769
0.180703	356.923
0.219429	363.077
0.269443	369.231
0.32269	375.385
0.374325	381.538
0.480807	393.846
0.535665	396.923
0.645379	412.308
0.750261	424.615
0.853521	449.231
0.903535	480
0.948716	492.308
0.022585	310.769
0.038726	320
0.058079	332.308
0.070988	338.462
0.08874	338.462
0.10326	344.615
0.137143	350.769
0.16135	356.923
0.174249	356.923
0.185546	360
0.211364	363.077
0.23556	366.154
0.259767	369.231
0.319468	375.385
0.367871	381.538
0.416273	387.692
0.429182	387.692
0.472742	400
0.527599	418.462
0.576002	427.692
0.5873	424.615
0.635703	430.769
0.684106	436.923
0.697015	436.923
0.742185	446.154
0.788977	455.385
0.800275	455.385
0.848678	461.538
0.905146	480
0.948716	498.462
