Adsorption isotherm of Nitrogen on Py-COFDCM 12M NaOH
DOI: 10.1021/jacs.9b03463
Article source: figure S9(b)
Adsorbate Nitrogen: InChIKey IJGRMHOSHXDMSA-UHFFFAOYSA-N
Kind: experiment
Temperature: 77 K
Tabular data in the source: 0
pressure (bar)	uptake (cm3(STP)/g)
0.011642	241.935
0.018634	250.424
0.039598	265.705
0.057066	272.496
0.072204	277.589
0.088518	282.682
0.111802	287.776
0.139758	292.869
0.154896	295.416
0.181686	299.66
0.214292	304.754
0.269038	311.545
0.321443	319.185
0.375014	326.825
0.428595	331.919
0.482165	338.71
0.534581	345.501
0.641722	359.083
0.747708	375.212
0.852528	394.737
0.018634	255.518
0.041928	270.798
0.052405	275.042
0.073369	281.834
0.085022	285.229
0.109482	291.171
0.133931	295.416
0.144419	297.963
0.170044	301.358
0.181686	303.056
0.206146	307.301
0.230606	311.545
0.256221	314.941
0.267873	316.638
0.316782	321.732
0.364537	327.674
0.425099	335.314
0.471688	345.501
0.531085	354.839
0.577664	360.781
0.638236	367.572
0.68598	373.514
0.745377	380.306
0.793132	386.248
0.851363	397.284
0.896787	408.319
0.908429	411.715
0.951523	430.391
