Adsorption isotherm of Nitrogen on Py-COFDMAc
DOI: 10.1021/jacs.9b03463
Article source: figure 2 (a)
Adsorbate Nitrogen: InChIKey IJGRMHOSHXDMSA-UHFFFAOYSA-N
Kind: experiment
Temperature: 77 K
Tabular data in the source: 0
pressure (bar)	uptake (cm3(STP)/g)
0.001611	34.375
0.001611	59.375
0.001611	90.625
0.001611	115.625
0.001611	140.625
0.001611	168.75
0.001611	196.875
0.001611	228.125
0.006454	259.375
0.016131	290.625
0.02904	309.375
0.041949	315.625
0.058079	321.875
0.074221	334.375
0.093584	340.625
0.112937	346.875
0.141987	353.125
0.177481	356.25
0.22104	362.5
0.275898	368.75
0.329144	378.125
0.380779	384.375
0.435637	390.625
0.551806	409.375
0.655066	418.75
0.759937	437.5
0.859976	462.5
0.022585	303.125
0.038726	321.875
0.056468	328.125
0.067766	334.375
0.082286	340.625
0.108104	346.875
0.135532	353.125
0.14682	356.25
0.16135	359.375
0.17587	362.5
0.19039	365.625
0.203298	368.75
0.232338	368.75
0.261378	371.875
0.317846	381.25
0.372704	390.625
0.414662	390.625
0.471131	400
0.525988	409.375
0.584068	415.625
0.638925	421.875
0.680874	428.125
0.693782	431.25
0.735731	437.5
0.788977	446.875
0.842224	456.25
0.903535	484.375
0.945484	515.625
