Adsorption isotherm of Nitrogen on Py-COFDCM under air
DOI: 10.1021/jacs.9b03463
Article source: figure S12
Adsorbate Nitrogen: InChIKey IJGRMHOSHXDMSA-UHFFFAOYSA-N
Kind: experiment
Temperature: 77 K
Tabular data in the source: 0
pressure (bar)	uptake (cm3(STP)/g)
0.001854	166.667
0.001854	177.507
0	186.992
0	196.477
0.001854	234.417
0.003708	238.482
0.003708	242.547
0.003708	247.967
0.01297	275.068
0.018522	287.263
0.020376	289.973
0.042607	303.523
0.059275	311.653
0.075943	315.718
0.092621	321.138
0.116696	324.526
0.143557	329.946
0.175049	336.721
0.220433	341.463
0.275999	348.238
0.329722	353.659
0.382512	359.079
0.435312	365.176
0.553863	376.016
0.658521	387.534
0.76318	401.084
0.866916	420.054
0.958605	459.35
0.040753	318.428
0.05279	323.171
0.066682	327.913
0.075943	330.623
0.087991	333.333
0.101882	336.043
0.132442	341.463
0.146334	344.173
0.161157	345.528
0.175971	348.238
0.190795	350.271
0.205619	351.626
0.220433	353.659
0.235256	355.014
0.264894	358.401
0.311199	363.144
0.36862	368.564
0.413082	372.629
0.426973	374.661
0.470503	380.759
0.526079	388.889
0.585355	394.309
0.628884	398.374
0.686305	404.472
0.742803	410.569
0.79837	417.344
0.840977	424.797
0.853947	428.184
0.8947	437.669
0.909513	441.734
0.958605	460.027
