Adsorption isotherm of Nitrogen on Py-COF12M HCl
DOI: 10.1021/jacs.9b03463
Article source: figure S24 (c)
Adsorbate Nitrogen: InChIKey IJGRMHOSHXDMSA-UHFFFAOYSA-N
Kind: experiment
Temperature: 77 K
Tabular data in the source: 0
pressure (bar)	uptake (cm3(STP)/g)
0.009433	8.08081
0.023588	12.1212
0.035383	15.1515
0.044826	17.1717
0.05426	20.202
0.063693	22.2222
0.068415	24.2424
0.092003	26.2626
0.107344	27.7778
0.127396	30.303
0.148624	32.3232
0.1675	35.3535
0.188728	37.3737
0.20878	39.899
0.226482	42.4242
0.259503	44.4444
0.27838	47.4748
0.309051	49.4949
0.330279	51.5151
0.36095	53.5354
0.391621	55.5556
0.410488	58.5859
0.431726	60.101
0.462387	61.6162
0.493058	64.1414
0.511934	66.6667
0.533162	67.6768
0.561472	69.697
0.58271	71.7172
0.613381	73.7374
0.644042	75.7576
0.66528	77.7778
0.69359	78.7879
0.714817	80.8081
0.764365	82.8283
0.816264	84.8485
0.869338	87.8788
0.917701	90.9091
0.011794	85.8586
0.030671	89.899
0.040104	89.899
0.051899	91.9192
0.063693	91.9192
0.070776	91.9192
0.08257	92.9293
0.096725	92.9293
0.115602	93.9394
0.136829	93.9394
0.155706	94.9495
0.178119	95.4546
0.198171	95.4546
0.217038	95.9596
0.247709	95.9596
0.266586	95.9596
0.297247	95.4546
0.320846	95.9596
0.349156	95.9596
0.377466	95.9596
0.398694	95.9596
0.419931	95.9596
0.450592	95.9596
0.481263	95.9596
0.50014	95.9596
0.520192	94.9495
0.550863	94.9495
0.572091	94.4444
0.600401	93.9394
0.632248	92.9293
0.653485	92.9293
0.681796	92.4242
0.701848	91.4141
0.752561	90.9091
0.803284	90.9091
0.855183	90.404
0.916525	90.404
