Adsorption isotherm of Nitrogen on BFBAEB-COFTHF
DOI: 10.1021/jacs.9b03463
Article source: figure S31(a)
Adsorbate Nitrogen: InChIKey IJGRMHOSHXDMSA-UHFFFAOYSA-N
Kind: experiment
Temperature: 77 K
Tabular data in the source: 0
pressure (bar)	uptake (cm3(STP)/g)
0	37.3781
0	69.3391
0	100.758
0	127.844
0.003638	152.221
0.009697	183.099
0.016972	203.684
0.02909	224.269
0.038787	238.353
0.050906	252.438
0.060602	263.272
0.072721	273.023
0.087261	282.774
0.101811	293.608
0.119989	309.317
0.139383	327.736
0.155139	349.946
0.179376	372.698
0.206044	378.115
0.22786	382.449
0.259372	385.699
0.283609	387.866
0.312699	391.116
0.332093	393.283
0.358761	395.45
0.397539	397.616
0.41451	399.783
0.436326	403.034
0.465416	405.2
0.496928	406.284
0.518743	408.451
0.535715	408.451
0.562374	409.534
0.582984	410.618
0.615711	412.784
0.644792	413.868
0.661764	414.951
0.695697	416.035
0.717513	418.202
0.765997	421.452
0.816902	422.535
0.867808	425.785
0.918714	429.036
0.940529	430.119
0.015756	214.518
0.01454	219.935
0.015756	224.269
0.021815	230.769
0.024237	237.27
0.031512	244.854
0.038787	254.605
0.048484	264.355
0.059387	274.106
0.071505	284.399
0.087261	297.941
0.104233	312.026
0.121205	327.194
0.12847	336.945
0.145442	359.697
0.159982	377.031
0.176954	383.532
0.196348	387.866
0.219379	390.033
0.247253	393.824
0.269069	396.533
0.298159	398.7
0.319974	400.325
0.351486	401.95
0.380577	404.117
0.39997	406.284
0.421786	406.826
0.450876	409.534
0.479956	409.534
0.501782	411.701
0.523597	411.701
0.552677	413.868
0.572071	414.951
0.603583	416.035
0.632673	417.118
0.654489	418.202
0.682363	418.743
0.702973	419.285
0.753878	422.535
0.804784	423.619
0.85569	425.785
0.906595	427.952
0.925989	429.036
