Adsorption isotherm of Nitrogen on Py-COFMeCN
DOI: 10.1021/jacs.9b03463
Article source: figure S5(a)
Adsorbate Nitrogen: InChIKey IJGRMHOSHXDMSA-UHFFFAOYSA-N
Kind: experiment
Temperature: 77 K
Tabular data in the source: 0
pressure (bar)	uptake (cm3(STP)/g)
0	3.85233
0	8.98876
0	14.1252
0	19.2616
0	23.114
0	28.2504
0	33.3868
0	37.2392
0	42.3756
0	47.512
0	51.3644
0	57.1429
0	62.9213
0	66.7737
0	73.1942
0	78.3307
0	84.7512
0	88.6035
0	93.74
0	97.5923
0	104.013
0	109.149
0	113.002
0	118.78
0	124.559
0	129.695
0	137.4
0.001206	145.746
0.001206	154.093
0.001206	160.514
0.002401	166.934
0.003607	171.429
0.003607	176.565
0.004803	181.701
0.010822	202.889
0.015624	209.31
0.021633	213.162
0.038463	223.435
0.057694	229.856
0.073319	234.35
0.088943	237.56
0.110576	241.413
0.138228	246.549
0.153852	248.475
0.181493	251.685
0.213948	255.538
0.266839	260.674
0.320927	264.526
0.375014	269.663
0.427895	274.799
0.480787	279.294
0.533669	283.788
0.640648	293.419
0.746411	304.976
0.849782	321.669
0.942333	359.551
0.019231	221.509
0.021633	224.719
0.031249	229.856
0.04207	234.992
0.052882	238.844
0.069712	242.697
0.081729	245.265
0.103372	249.759
0.127406	252.969
0.152646	256.18
0.164663	257.464
0.176691	258.748
0.189913	260.674
0.201931	261.958
0.225965	264.526
0.263232	268.379
0.311311	272.231
0.371407	277.368
0.41828	281.22
0.475974	291.493
0.531267	301.766
0.579346	305.618
0.63704	310.754
0.683913	314.607
0.742814	319.101
0.788481	324.88
0.800508	326.164
0.846175	332.584
0.901468	344.783
0.942333	359.551
