Adsorption isotherm of Nitrogen on TAEPy-COF
DOI: 10.1021/jacs.9b03463
Article source: figure S36(c)
Adsorbate Nitrogen: InChIKey IJGRMHOSHXDMSA-UHFFFAOYSA-N
Kind: experiment
Temperature: 77 K
Tabular data in the source: 0
pressure (bar)	uptake (cm3(STP)/g)
0	4.31499
0	8.09061
0	12.4056
0	17.7994
0	22.6537
0	26.9687
0	30.205
0	36.6774
0	39.9137
0	43.6893
0	46.3862
0.001206	55.5556
0.001206	62.5674
0.001206	65.8037
0.001206	69.0399
0.001206	72.8155
0.002422	75.5124
0.003627	78.2093
0.003627	80.6365
0.010882	101.402
0.015716	111.111
0.018137	115.965
0.020559	119.741
0.035069	128.91
0.054412	133.225
0.071343	135.383
0.088264	138.619
0.110029	141.316
0.136627	142.395
0.153558	144.013
0.181372	145.901
0.214019	147.789
0.267214	149.137
0.321626	151.564
0.373626	152.643
0.426821	154.261
0.480027	155.879
0.533223	157.228
0.642046	160.194
0.748447	164.509
0.852437	171.521
0.955211	191.748
0.019343	137.54
0.038696	147.519
0.05199	150.485
0.071343	152.643
0.083431	153.722
0.105196	155.879
0.12696	158.037
0.151136	158.576
0.163235	159.655
0.175323	160.194
0.187411	160.734
0.210391	161.812
0.233362	162.082
0.256332	163.161
0.315587	164.779
0.362743	166.127
0.376037	166.667
0.421988	166.667
0.467929	167.206
0.480027	167.745
0.527184	169.633
0.575546	170.173
0.58885	170.442
0.635997	170.982
0.683153	172.6
0.743614	172.6
0.791976	174.218
0.850015	177.994
0.897172	183.118
0.955211	192.017
