Adsorption isotherm of Nitrogen on Py-COFDCM under Vacuum
DOI: 10.1021/jacs.9b03463
Article source: figure S12
Adsorbate Nitrogen: InChIKey IJGRMHOSHXDMSA-UHFFFAOYSA-N
Kind: experiment
Temperature: 77 K
Tabular data in the source: 0
pressure (bar)	uptake (cm3(STP)/g)
0	6.77507
0	13.5501
0	23.0352
0	32.5203
0	43.3604
0	55.5556
0	66.3957
0	74.5257
0	92.1409
0	98.916
0	112.466
0	119.241
0	136.856
0	154.472
0	174.797
0.001854	186.992
0.001854	195.122
0.001854	201.897
0.003708	211.382
0.003708	220.867
0.005553	228.997
0.012037	260.163
0.020376	272.358
0.039831	286.585
0.059275	293.36
0.075943	298.103
0.090767	302.168
0.112998	306.233
0.138927	313.008
0.155595	315.718
0.183388	319.783
0.21488	325.203
0.269525	331.978
0.322315	337.398
0.376037	344.173
0.42975	350.949
0.483472	356.369
0.535341	363.144
0.64463	376.694
0.75021	392.954
0.853947	415.312
0.952121	457.995
0.038899	299.458
0.055567	306.233
0.066682	310.298
0.089845	316.396
0.101882	318.428
0.127811	325.203
0.151896	329.268
0.165788	330.623
0.177825	331.978
0.190795	334.688
0.205619	336.043
0.231548	340.108
0.257477	341.463
0.308423	348.916
0.320461	349.594
0.36862	355.014
0.418634	360.434
0.477909	371.951
0.526079	380.759
0.585355	387.534
0.633514	394.309
0.681674	399.729
0.694644	401.084
0.742803	407.859
0.789109	414.634
0.802079	417.344
0.848384	428.184
0.905815	443.089
0.952121	457.995
