Adsorption isotherm of Nitrogen on BFBAEPy-COFTHF
DOI: 10.1021/jacs.9b03463
Article source: figure S31(c)
Adsorbate Nitrogen: InChIKey IJGRMHOSHXDMSA-UHFFFAOYSA-N
Kind: experiment
Temperature: 77 K
Tabular data in the source: 0
pressure (bar)	uptake (cm3(STP)/g)
0	30.1435
0	57.0574
0	83.2536
0.001236	104.067
0.004945	122.01
0.013588	141.388
0.018532	151.435
0.029658	162.201
0.042009	170.813
0.051899	177.273
0.061788	183.014
0.071667	188.038
0.086501	193.78
0.103797	199.163
0.123566	205.981
0.143334	212.44
0.163113	219.976
0.185354	224.641
0.207595	228.23
0.227363	231.1
0.257021	234.33
0.27679	236.842
0.30892	238.995
0.328688	241.866
0.358346	244.737
0.390476	247.249
0.412717	249.043
0.432485	251.196
0.459671	253.349
0.491801	256.22
0.51157	257.655
0.532574	259.809
0.562232	261.962
0.583237	263.397
0.612895	265.909
0.642552	269.139
0.664793	270.574
0.694451	272.727
0.716692	274.88
0.763646	279.187
0.813072	283.493
0.862499	289.234
0.914397	296.053
0.012362	170.813
0.014824	174.402
0.017296	178.708
0.022241	183.014
0.027185	188.038
0.037075	193.78
0.046954	198.804
0.056843	203.11
0.069195	208.134
0.084029	212.44
0.098853	217.464
0.118621	223.923
0.1384	230.383
0.156932	236.483
0.176701	240.431
0.196469	242.943
0.21871	244.737
0.247132	247.608
0.2669	249.043
0.300267	251.196
0.318799	253.349
0.348457	255.502
0.378115	257.655
0.400355	259.091
0.42136	260.526
0.449782	261.962
0.480676	264.474
0.500444	265.909
0.522685	267.703
0.551107	271.292
0.572111	273.086
0.601769	274.88
0.631427	276.316
0.653668	277.751
0.68209	279.545
0.70433	281.34
0.754993	285.287
0.805655	289.593
0.857554	294.976
0.905744	300
0.935402	301.435
