Adsorption isotherm of Nitrogen on Py-COFDCM 12M HCl
DOI: 10.1021/jacs.9b03463
Article source: figure S9(b)
Adsorbate Nitrogen: InChIKey IJGRMHOSHXDMSA-UHFFFAOYSA-N
Kind: experiment
Temperature: 77 K
Tabular data in the source: 0
pressure (bar)	uptake (cm3(STP)/g)
0.107151	289.474
0.132766	296.265
0.230606	311.545
0.377344	332.767
0.42976	340.407
0.482165	347.199
0.535746	353.141
0.645217	369.27
0.684815	377.759
0.057066	280.136
0.065223	284.38
0.082691	288.625
0.104821	292.869
0.128115	297.963
0.152565	301.358
0.177025	306.452
0.189843	308.149
0.20265	309.847
0.215457	311.545
0.225945	313.243
0.263212	320.034
0.309801	328.523
0.321443	328.523
0.370363	336.163
0.416942	342.954
0.475184	355.688
0.521763	364.177
0.535746	365.874
0.579994	370.968
0.628914	376.061
0.645217	376.061
0.733735	391.341
0.748873	392.19
0.795462	399.83
0.853694	410.866
0.899118	423.599
0.953853	448.217
