Adsorption isotherm of Carbon Dioxide on 3D [Cu(bpy)2(OTf)2]n
DOI: 10.1021/Ja201170c
Adsorbate Carbon Dioxide: InChIKey CURLTUGMZLYLDI-UHFFFAOYSA-N
Temperature: 273 K
Tabular data in the source: 0
pressure (bar)	uptake (mmol/g)
0.0325588	0.0171309
0.0488831	0.075912
0.105913	0.164476
0.15483	0.27805
0.205796	0.408387
0.232302	0.479845
0.256766	0.542908
0.283282	0.62692
0.309784	0.694193
0.332222	0.765602
0.35872	0.82869
0.387259	0.900172
0.407666	0.975741
0.456602	1.11024
0.507553	1.22384
0.560538	1.33746
0.607435	1.46775
0.660413	1.573
0.711375	1.69915
0.762326	1.81275
0.815295	1.90964
0.864193	2.00229
0.915114	2.08241
0.968065	2.15837
1.01287	2.22586
