Adsorption isotherm of Methanol on 2D [Cu(bpy)2(OTf)2]n
DOI: 10.1021/Ja201170c
Adsorbate Methanol: InChIKey OKKJLVBELUTLKV-UHFFFAOYSA-N
Temperature: 303 K
Tabular data in the source: 0
pressure (bar)	uptake (mmol/g)
0.000841563	0.140582
0.00113476	0.542244
0.00170932	1.0142
0.00450927	1.33553
0.00787121	1.77735
0.0137377	2.0786
0.0260145	2.28947
0.0522343	2.52043
0.0801261	2.72126
0.10606	2.76143
0.135069	3.00242
0.163244	3.33379
0.19254	3.80575
0.210758	6.41655
