Adsorption isotherm of Water on 2D [Cu(bpy)2(OTf)2]n
DOI: 10.1021/Ja201170c
Adsorbate Water: InChIKey XLYOFNOQVPJJNP-UHFFFAOYSA-N
Temperature: 303 K
Tabular data in the source: 0
pressure (bar)	uptake (mmol/g)
0.000215631	0.125019
0.000592622	0.250038
0.000861625	0.267898
0.00145349	0.321477
0.00231421	0.357197
0.00296055	0.589375
0.00436253	1.50023
0.00565639	2.2682
0.0076501	3.19691
0.00937404	3.9113
0.0119575	4.33994
0.0163154	4.64356
0.0191133	4.91146
0.0229326	5.03647
0.0232554	5.03647
0.0277742	5.23293
0.0317014	5.42939
0.0338542	5.78659
0.0363354	7.57257
