Adsorption isotherm of Argon on 3D [Cu(bpy)2(OTf)2]n
DOI: 10.1021/Ja201170c
Adsorbate Argon: InChIKey XKRFYHLGVUSROY-UHFFFAOYSA-N
Temperature: 87 K
Tabular data in the source: 0
pressure (bar)	uptake (mmol/g)
0.00568875	0.00568875
0.00853313	3.86566
0.0142219	5.13797
0.0312881	5.33411
0.068265	5.60415
0.0995532	5.70279
0.139374	5.87503
0.173507	5.97374
0.213328	6.04813
0.258838	6.07373
0.295815	6.09912
0.34417	6.10032
0.392524	6.12599
0.483544	6.15273
0.583097	6.17967
0.674117	6.20641
0.779359	6.2335
0.901667	6.23655
0.98131	6.263
