Adsorption isotherm of Carbon Dioxide on 2D [Cu(bpy)2(OTf)2]n
DOI: 10.1021/Ja201170c
Adsorbate Carbon Dioxide: InChIKey CURLTUGMZLYLDI-UHFFFAOYSA-N
Temperature: 273 K
Tabular data in the source: 0
pressure (bar)	uptake (mmol/g)
0.0346377	0.0673711
0.0570865	0.151334
0.0876637	0.227025
0.110112	0.310988
0.136637	0.403369
0.159089	0.491516
0.18767	0.609029
0.210156	0.734838
0.214217	0.726518
0.228616	0.906629
0.236744	0.898358
0.261294	1.05767
0.261305	1.07022
0.287845	1.17934
0.318422	1.25503
0.338825	1.32642
0.367365	1.3979
0.418297	1.49057
0.469237	1.59162
0.495708	1.62542
0.52015	1.66337
0.566984	1.72252
0.613837	1.80259
0.664735	1.85761
0.7258	1.90856
0.770593	1.95931
0.823521	2.01017
0.872374	2.0526
0.925295	2.09508
0.972111	2.13331
1.01487	2.18404
