Adsorption isotherm of Carbon Dioxide on 3D [Cu(bpy)2(OTf)2]n
DOI: 10.1021/Ja201170c
Adsorbate Carbon Dioxide: InChIKey CURLTUGMZLYLDI-UHFFFAOYSA-N
Temperature: 196 K
Tabular data in the source: 0
pressure (bar)	uptake (mmol/g)
0.00662029	0.562833
0.0132406	1.34585
0.0297913	2.17801
0.0562725	2.54555
0.0827536	2.6929
0.109235	2.84026
0.135716	2.91422
0.165507	2.98826
0.188678	3.06215
0.211849	3.13604
0.23502	3.18546
0.271432	3.21071
0.291293	3.26006
0.314464	3.28502
0.367426	3.35955
0.420388	3.40962
0.46673	3.484
0.519693	3.55853
0.622307	3.60966
0.668649	3.63512
0.724922	3.68525
0.781194	3.68646
0.824226	3.71185
0.873878	3.76184
0.930151	3.83644
0.983113	3.86204
1.02283	3.86289
