Adsorption isotherm of Nitrogen on 3D [Cu(bpy)2(OTf)2]n
DOI: 10.1021/Ja201170c
Adsorbate Nitrogen: InChIKey IJGRMHOSHXDMSA-UHFFFAOYSA-N
Temperature: 77 K
Tabular data in the source: 0
pressure (bar)	uptake (mmol/g)
0.002816	0.002816
0.005632	5.50473
0.008448	5.77391
0.01408	6.0921
0.022528	6.36142
0.050688	6.92482
0.101376	7.07289
0.152064	7.14756
0.205568	7.19784
0.250624	7.2479
0.298496	7.27357
0.349184	7.34824
0.39424	7.39831
0.444928	7.42405
0.489984	7.47411
0.537856	7.52425
0.588544	7.54999
0.639232	7.5268
0.73216	7.627
0.780032	7.65267
0.836352	7.65409
0.875776	7.75294
0.92928	7.75429
0.965888	8.02432
