Adsorption isotherm of Hydrogen on 3D [Cu(bpy)2(OTf)2]n
DOI: 10.1021/Ja201170c
Adsorbate Hydrogen: InChIKey UFHFLCQGNIYNRP-UHFFFAOYSA-N
Temperature: 77 K
Tabular data in the source: 0
pressure (bar)	uptake (mmol/g)
0.00383387	0.0556835
0.0115016	0.378512
0.0268371	0.645765
0.0421725	0.901887
0.0651757	1.11356
0.0805112	1.23613
0.107348	1.33655
0.126518	1.45915
0.153355	1.55956
0.176358	1.62655
0.203195	1.70471
0.230032	1.78287
0.253035	1.84986
0.279872	1.91688
0.310543	1.98395
0.333546	2.05094
0.360383	2.07344
0.383387	2.11818
0.40639	2.18517
0.433227	2.2188
0.483067	2.33056
0.513738	2.36424
0.559744	2.43144
0.609585	2.52094
0.663259	2.58821
0.709265	2.68881
0.766773	2.74499
0.820447	2.81226
0.870288	2.90176
0.91246	2.94667
0.973802	3.01402
1.01597	3.05893
