Adsorption isotherm of Ethanol on 2D [Cu(bpy)2(OTf)2]n
DOI: 10.1021/Ja201170c
Adsorbate Ethanol: InChIKey LFQSCWFLJHTTHZ-UHFFFAOYSA-N
Temperature: 303 K
Tabular data in the source: 0
pressure (bar)	uptake (mmol/g)
1.64e-05	0.670482
0.00082135	1.11049
0.0022821	1.29906
0.00453523	1.41081
0.00784721	1.51557
0.0102336	1.66224
0.0118245	1.76002
0.0184467	1.8997
0.0266565	1.99748
0.0316889	2.08129
0.0385742	2.15113
0.0473119	2.18605
0.0549899	2.19303
0.0643894	2.22097
0.0731274	2.26986
0.0786879	2.2978
0.0851751	2.32573
0.0915302	2.36764
0.096974	3.03812
