Adsorption isotherm of Argon on 2D [Cu(bpy)2(OTf)2]n
DOI: 10.1021/Ja201170c
Adsorbate Argon: InChIKey XKRFYHLGVUSROY-UHFFFAOYSA-N
Temperature: 87 K
Tabular data in the source: 0
pressure (bar)	uptake (mmol/g)
0.00577496	0.152398
0.0231393	0.419375
0.0434621	0.420163
0.063785	0.420951
0.0753664	0.573574
0.0985531	0.76469
0.130449	0.956144
0.150741	1.1091
0.172397	8.6806
0.195576	8.90976
0.221658	9.13903
0.247763	9.25417
0.273853	9.4454
0.291202	9.78846
0.320069	10.5885
0.349007	11.0461
0.366387	11.237
0.395388	11.3903
0.421501	11.4674
0.45051	11.5827
0.479535	11.6219
0.496939	11.6986
0.54919	11.7387
0.598537	11.7786
0.64207	11.8564
0.697232	11.8586
0.740781	11.8602
0.79304	11.8623
0.842395	11.8642
0.891743	11.9041
0.932365	12.0198
0.978793	12.1358
