Adsorption isotherm of Hydrogen on 2D [Cu(bpy)2(OTf)2]n
DOI: 10.1021/Ja201170c
Adsorbate Hydrogen: InChIKey UFHFLCQGNIYNRP-UHFFFAOYSA-N
Temperature: 77 K
Tabular data in the source: 0
pressure (bar)	uptake (mmol/g)
0.00766773	0.322829
0.0191693	0.634564
0.0268371	0.901745
0.0613419	1.30273
0.0996805	1.54794
0.130351	1.72629
0.161022	1.83787
0.199361	1.9384
0.230032	2.01659
0.260703	2.10591
0.291374	2.17297
0.322045	2.2289
0.352716	2.28484
0.383387	2.34077
0.414058	2.38557
0.440895	2.43034
0.475399	2.46405
0.50607	2.50885
0.532907	2.55362
0.563578	2.59842
0.601917	2.6099
0.62492	2.64351
0.659425	2.67722
0.682428	2.69969
0.716933	2.72227
0.747604	2.75594
0.785942	2.80081
0.847284	2.8459
0.900958	2.87979
0.931629	2.91346
0.9623	2.91375
0.985304	2.94735
1.01214	2.95873
