Adsorption isotherm of Carbon Dioxide on 2D [Cu(bpy)2(OTf)2]n
DOI: 10.1021/Ja201170c
Adsorbate Carbon Dioxide: InChIKey CURLTUGMZLYLDI-UHFFFAOYSA-N
Temperature: 196 K
Tabular data in the source: 0
pressure (bar)	uptake (mmol/g)
0.00649109	1.10348
0.00656454	0.799132
0.0131566	1.48413
0.0197487	2.16914
0.0263959	2.62588
0.059999	3.38787
0.110569	3.84607
0.137561	3.99915
0.164554	4.15222
0.184808	4.22898
0.211791	4.4201
0.231981	4.76316
0.262324	5.03048
0.289308	5.22159
0.312913	5.4126
0.329687	5.90772
0.35992	6.63156
0.390292	6.78474
0.420663	6.93793
0.467946	7.01559
0.494957	7.09258
0.521986	7.09348
0.548979	7.24655
0.57263	7.24734
0.60301	7.36248
0.623273	7.4012
0.670528	7.59299
0.72456	7.70892
0.775212	7.82474
0.829225	8.01675
0.876499	8.13246
0.92717	8.17219
0.981219	8.21204
1.00147	8.2888
1.01838	8.25132
