Adsorption isotherm of Nitrogen on 2D [Cu(bpy)2(OTf)2]n
DOI: 10.1021/Ja201170c
Adsorbate Nitrogen: InChIKey IJGRMHOSHXDMSA-UHFFFAOYSA-N
Temperature: 77 K
Tabular data in the source: 0
pressure (bar)	uptake (mmol/g)
0.00517842	2.77738
0.011091	1.9787
0.0193937	3.5388
0.0308362	3.80556
0.0566971	3.84461
0.0911652	3.96009
0.151439	4.38093
0.177004	5.86563
0.1854	6.96922
0.211167	7.46479
0.242777	7.50407
0.271504	7.58128
0.328974	7.65962
0.386452	7.69992
0.458294	7.77882
0.51578	7.78107
0.590504	7.82204
0.636485	7.86188
0.711217	7.86481
0.783066	7.90566
0.840552	7.90791
0.903787	7.91039
0.987141	7.91366
