Adsorption isotherm of 1-Propanol on 2D [Cu(bpy)2(OTf)2]n
DOI: 10.1021/Ja201170c
Adsorbate 1-Propanol: InChIKey BDERNNFJNOPAEC-UHFFFAOYSA-N
Temperature: 303 K
Tabular data in the source: 0
pressure (bar)	uptake (mmol/g)
0.000244728	0.754918
0.00039105	0.348012
0.00148461	1.24749
0.00310256	1.38669
0.00679556	1.42417
0.0111035	1.43488
0.0156418	1.42953
0.0195648	1.42417
0.0197186	1.42417
0.0250261	1.41346
0.0317179	1.38669
0.0381031	1.41346
0.0427956	1.42417
0.0502575	1.44559
0.0546426	1.47236
