Adsorption isotherm of Carbon Dioxide on IRMOF-8-INT
DOI: 10.1021/am506793b
Article source: Figure 8b
Adsorbate Carbon Dioxide: InChIKey CURLTUGMZLYLDI-UHFFFAOYSA-N
Kind: experiment
Temperature: 298 K
Tabular data in the source: 0
pressure (bar)	uptake (mmol/g)
0.034261	0.0351
0.289001	0.4737
0.643724	0.8246
1.10535	1.4211
1.89802	2.4035
3.71193	4
5.65197	5.386
7.04369	6.2281
