Adsorption isotherm of Carbon Dioxide on IRMOF-8
DOI: 10.1021/am506793b
Article source: Figure 8b
Adsorbate Carbon Dioxide: InChIKey CURLTUGMZLYLDI-UHFFFAOYSA-N
Kind: experiment
Temperature: 298 K
Tabular data in the source: 0
pressure (bar)	uptake (mmol/g)
0.048373	0.0432
0.200447	0.3889
0.344271	0.7778
0.491247	1.4259
0.711705	2.4198
1.1143	4.1049
1.54135	5.4444
1.74422	6.179
