Adsorption isotherm of Ethane on IRMOF-8-INT
DOI: 10.1021/am506793b
Article source: Figure 5a
Adsorbate Ethane: InChIKey OTMSDBZUPAUEDD-UHFFFAOYSA-N
Kind: experiment
Temperature: 298 K
Tabular data in the source: 0
pressure (bar)	uptake (mmol/g)
0.197197	1.1149
0.642244	3.0405
1.36333	4.9459
2.2856	5.777
3.55877	6.3851
4.50609	6.6689
5.62341	6.8108
6.71274	6.9122
8.13392	7.0541
9.42758	7.2568
