Adsorption isotherm of Ethene on IRMOF-8-INT
DOI: 10.1021/am506793b
Article source: Figure 5b
Adsorbate Ethene: InChIKey VGGSQFUCUMXWEO-UHFFFAOYSA-N
Kind: experiment
Temperature: 298 K
Tabular data in the source: 0
pressure (bar)	uptake (mmol/g)
0.245132	0.7808
0.675772	2.0753
1.23452	3.5753
2.22229	4.911
3.30446	5.6918
4.772	6.2671
5.86273	6.6781
7.09741	6.9658
8.22053	7.2945
