Adsorption isotherm of Methane on IRMOF-8
DOI: 10.1021/am506793b
Article source: Figure 3b
Adsorbate Methane: InChIKey VNWKTOKETHGBQD-UHFFFAOYSA-N
Kind: experiment
Temperature: 298 K
Tabular data in the source: 0
pressure (bar)	uptake (mmol/g)
2.42829	1.6705
4.84507	2.4545
7.27445	3.4091
10.4858	4.2955
15.1147	5.2159
20.0863	6.0682
26.1577	6.7159
30.7751	7.0227
35.4813	7.3636
38.4858	7.6364
47.152	7.875
