Adsorption isotherm of Methane on IRMOF-8-INT
DOI: 10.1021/am506793b
Article source: Figure 3c
Adsorbate Methane: InChIKey VNWKTOKETHGBQD-UHFFFAOYSA-N
Kind: experiment
Temperature: 298 K
Tabular data in the source: 0
pressure (bar)	uptake (mmol/g)
2.4322	0
4.83281	0
7.23769	0
10.4112	0
14.9761	0
21.1154	0
28.0156	0
32.923	0
37.9228	0
43.6918	0
49.3174	0
