Adsorption isotherm of Methane on IRMOF-1
DOI: 10.1021/am506793b
Article source: Figure 3a
Adsorbate Methane: InChIKey VNWKTOKETHGBQD-UHFFFAOYSA-N
Kind: experiment
Temperature: 298 K
Tabular data in the source: 0
pressure (bar)	uptake (mmol/g)
1.02707	0.6415
4.10582	1.6281
6.25893	2.5749
9.93345	4.0116
11.4314	4.5371
13.1583	5.7623
17.0844	6.5333
18.8886	7.4085
20.4644	8.2835
21.737	9.1934
25.0207	9.7189
27.663	10.4191
