Adsorption isotherm of Carbon Dioxide on SIFSIX-3-Ni
DOI: 10.1039/c5cc04487a
Article source: Figure 3b- evacuation temperature 85 C
Adsorbate Carbon Dioxide: InChIKey CURLTUGMZLYLDI-UHFFFAOYSA-N
Kind: experiment
Temperature: 298 K
Tabular data in the source: 0
pressure (bar)	uptake (mmol/g)
0.000139	0.15603
0.00022	0.10083
0.000223	0.10034
0.000756	0.19848
0.002794	0.75231
0.005085	1.55248
0.006455	1.5705
0.007993	1.59009
0.009309	1.60662
0.059715	2.19352
0.075575	2.2266
0.10108	2.26189
0.128296	2.28394
0.15419	2.30103
0.179929	2.31399
0.20567	2.32171
0.255518	2.33715
0.305364	2.35341
0.3577	2.36251
0.406927	2.37271
0.456462	2.38318
0.507789	2.3898
0.55997	2.39945
0.609273	2.40634
0.662076	2.41185
0.711303	2.42012
0.761928	2.42095
0.813798	2.42646
0.864114	2.43225
0.913885	2.43584
0.964745	2.43639
1.00969	2.44135
