Adsorption isotherm of Carbon Dioxide on SIFSIX-3-Ni
DOI: 10.1039/c5cc04487a
Article source: Figure 1a- 318 K
Adsorbate Carbon Dioxide: InChIKey CURLTUGMZLYLDI-UHFFFAOYSA-N
Kind: experiment
Temperature: 318 K
Tabular data in the source: 0
pressure (bar)	uptake (mmol/g)
0.003225	0.36767
0.00341	0.09024
0.003541	0.26332
0.003545	0.27124
0.003556	0.1395
0.003568	0.04344
0.003609	0.32759
0.003648	0.01836
0.003704	0.18003
0.003852	0.20846
0.004277	0.46507
0.00436	0.40775
0.00507	0.81908
0.005322	0.62494
0.005484	0.54724
0.005998	0.69503
0.006142	0.75347
0.006509	0.86543
0.006578	0.91805
0.007406	0.98903
0.008611	1.07926
0.008982	1.15719
0.008987	1.15698
0.00943	1.22682
0.013827	1.32691
0.017459	1.4794
0.019808	1.54187
0.023753	1.61218
0.027394	1.6789
0.029746	1.72234
0.033844	1.77541
0.037868	1.81952
0.042958	1.85288
0.051997	1.91535
0.062026	1.97021
0.072589	2.01297
0.08186	2.04656
0.093868	2.07432
0.112719	2.11619
0.162812	2.18358
0.212909	2.22118
0.264452	2.2514
0.315918	2.27356
0.365106	2.28944
0.416802	2.30623
0.466902	2.32234
0.517839	2.3333
0.566571	2.34292
0.619484	2.35097
0.669356	2.36103
0.720826	2.36662
0.774271	2.37512
0.82574	2.38272
0.873408	2.38987
0.924725	2.39725
0.975054	2.40508
1.01375	2.40642
