Adsorption isotherm of Carbon Dioxide on SIFSIX-3-Ni
DOI: 10.1039/c5cc04487a
Article source: Figure 3b- evacuation temperature 55 C
Adsorbate Carbon Dioxide: InChIKey CURLTUGMZLYLDI-UHFFFAOYSA-N
Kind: experiment
Temperature: 298 K
Tabular data in the source: 0
pressure (bar)	uptake (mmol/g)
0.000544	0.04603
0.00373	0.13203
0.006297	0.17861
0.008241	0.24761
0.010339	0.25717
0.050159	0.39058
0.076603	0.4482
0.099236	0.47797
0.125058	0.50196
0.151113	0.52291
0.175847	0.54552
0.202057	0.55958
0.252691	0.58054
0.301691	0.60674
0.353491	0.62164
0.405759	0.63516
0.457714	0.6484
0.50547	0.66357
0.557114	0.67875
0.608215	0.69089
0.660715	0.69834
0.71065	0.70635
0.762839	0.71546
0.813472	0.72154
0.862394	0.72954
0.912796	0.737
0.966074	0.74087
1.00986	0.74529
