Adsorption isotherm of Carbon Dioxide on SIFSIX-3-Ni
DOI: 10.1039/c5cc04487a
Article source: Figure 3b- evacuation temperature 105 C
Adsorbate Carbon Dioxide: InChIKey CURLTUGMZLYLDI-UHFFFAOYSA-N
Kind: experiment
Temperature: 298 K
Tabular data in the source: 0
pressure (bar)	uptake (mmol/g)
8.3e-05	0.17559
0.000161	0.21555
0.000245	0.3273
0.000319	0.26186
0.002826	0.91872
0.004392	1.2393
0.006265	1.68167
0.007982	1.70542
0.009385	1.72416
0.059348	2.31542
0.076232	2.34877
0.101753	2.37992
0.127895	2.40004
0.153725	2.41492
0.180256	2.42898
0.204919	2.43532
0.256423	2.4469
0.305439	2.46096
0.356711	2.46785
0.406736	2.47584
0.459876	2.48328
0.511691	2.491
0.560473	2.49789
0.610732	2.49927
0.662004	2.50727
0.711641	2.5103
0.762757	2.51636
0.813872	2.52022
0.865066	2.52849
0.915637	2.52766
0.964418	2.53345
1.0104	2.54007
