Adsorption isotherm of Carbon Dioxide on SIFSIX-3-Ni
DOI: 10.1039/c5cc04487a
Article source: Figure 1a- 273 K
Adsorbate Carbon Dioxide: InChIKey CURLTUGMZLYLDI-UHFFFAOYSA-N
Kind: experiment
Temperature: 273 K
Tabular data in the source: 0
pressure (bar)	uptake (mmol/g)
0	0.84849
7.6e-05	1.63315
0.000152	1.44617
0.000532	1.53372
0.000608	1.51853
0.001293	1.79729
0.002205	1.87746
0.002585	1.92046
0.004258	1.95046
0.004714	1.97935
0.006311	1.99503
0.007451	2.02056
0.008365	2.09513
0.008669	2.11595
0.009581	2.13722
0.011558	2.16253
0.015512	2.18134
0.018401	2.20216
0.021214	2.21627
0.02859	2.23284
0.035585	2.24919
0.041669	2.26374
0.05452	2.2812
0.064708	2.29553
0.074061	2.30516
0.085238	2.31322
0.094743	2.32419
0.113372	2.33538
0.162948	2.35575
0.214198	2.37433
0.26461	2.38999
0.315707	2.4023
0.366501	2.41371
0.41699	2.42557
0.467403	2.43563
0.518044	2.44794
0.568685	2.458
0.619174	2.46561
0.670196	2.47545
0.720227	2.48686
0.771858	2.49715
0.821814	2.50655
0.872607	2.51706
0.92302	2.52422
0.974573	2.5307
1.01305	2.53942
