Adsorption isotherm of Carbon Dioxide on SIFSIX-3-Ni
DOI: 10.1039/c5cc04487a
Article source: Figure 3b- evacuation temperature 25 C
Adsorbate Carbon Dioxide: InChIKey CURLTUGMZLYLDI-UHFFFAOYSA-N
Kind: experiment
Temperature: 298 K
Tabular data in the source: 0
pressure (bar)	uptake (mmol/g)
0.000156	0.00067
0.01027	0.00634
0.053913	0.00966
0.079975	0.00829
0.104635	0.01188
0.129608	0.01492
0.154659	0.01741
0.181809	0.01797
0.205692	0.01908
0.257194	0.01495
0.308151	0.02269
0.358794	0.02187
0.409596	0.02409
0.459774	0.02548
0.509253	0.02991
0.558186	0.02744
0.611164	0.02993
0.661187	0.03463
0.713155	0.03161
0.763256	0.03797
0.813589	0.03964
0.862213	0.05123
0.913792	0.05234
0.96397	0.05897
1.01034	0.06367
