Adsorption isotherm of Carbon Dioxide on SIFSIX-3-Ni
DOI: 10.1039/c5cc04487a
Article source: Figure 1a- 338 K
Adsorbate Carbon Dioxide: InChIKey CURLTUGMZLYLDI-UHFFFAOYSA-N
Kind: experiment
Temperature: 338 K
Tabular data in the source: 0
pressure (bar)	uptake (mmol/g)
0.004169	0.17692
0.004252	0.07458
0.004329	0.04591
0.004401	0.12049
0.004558	0.01993
0.004698	0.22933
0.0053	0.33302
0.00553	0.28129
0.006507	0.4712
0.00651	0.37123
0.006589	0.37803
0.007569	0.51599
0.00825	0.55854
0.008627	0.60445
0.009841	0.64185
0.010143	0.67612
0.012494	0.76458
0.017196	0.91283
0.019852	0.98562
0.02228	1.06579
0.026226	1.14888
0.029262	1.21383
0.034199	1.27922
0.037158	1.33901
0.041259	1.38918
0.051816	1.50429
0.060476	1.5764
0.070732	1.64941
0.081444	1.71234
0.092308	1.76004
0.110468	1.82968
0.159024	1.95262
0.211232	2.03189
0.263364	2.08653
0.314205	2.1275
0.365731	2.15683
0.416422	2.18055
0.466428	2.20115
0.517423	2.22107
0.568189	2.23539
0.618956	2.24904
0.6698	2.2609
0.720414	2.27298
0.771486	2.28305
0.821872	2.29289
0.872336	2.30139
0.923483	2.30877
0.973947	2.31705
1.01195	2.32555
