Adsorption isotherm of Carbon Dioxide on SIFSIX-3-Ni
DOI: 10.1039/c5cc04487a
Article source: Figure 1a- 308 K
Adsorbate Carbon Dioxide: InChIKey CURLTUGMZLYLDI-UHFFFAOYSA-N
Kind: experiment
Temperature: 308 K
Tabular data in the source: 0
pressure (bar)	uptake (mmol/g)
0.001507	0.43623
0.001652	0.65245
0.002194	0.31166
0.002264	0.31826
0.002333	0.78554
0.00241	0.60399
0.002414	0.6054
0.003016	0.83886
0.00468	1.08263
0.004758	0.92114
0.005065	0.92736
0.006959	1.13797
0.00703	1.1556
0.007262	1.18144
0.007717	1.23342
0.008319	1.39788
0.008469	1.47674
0.009607	1.53724
0.01234	1.63537
0.017583	1.74807
0.019861	1.80588
0.022749	1.85719
0.026623	1.90805
0.030575	1.94278
0.033235	1.98378
0.035894	2.00865
0.039618	2.03688
0.045775	2.06489
0.053072	2.09155
0.06356	2.12964
0.07329	2.15473
0.083248	2.17691
0.09427	2.19439
0.111524	2.22128
0.162073	2.26945
0.213382	2.29723
0.264541	2.32255
0.31509	2.34115
0.365489	2.35616
0.417331	2.36377
0.467426	2.3752
0.517976	2.38349
0.568527	2.39626
0.619533	2.3985
0.670312	2.40903
0.721013	2.41777
0.771639	2.42629
0.822494	2.43189
0.872892	2.43368
0.922607	2.44287
0.973841	2.45004
1.01231	2.45228
