Adsorption isotherm of Carbon Dioxide on SIFSIX-3-Ni
DOI: 10.1039/c5cc04487a
Article source: Figure 1a- 298 K
Adsorbate Carbon Dioxide: InChIKey CURLTUGMZLYLDI-UHFFFAOYSA-N
Kind: experiment
Temperature: 298 K
Tabular data in the source: 0
pressure (bar)	uptake (mmol/g)
4.5e-05	1.0129
5.2e-05	0.80056
0.0002	0.92442
0.000201	0.92732
0.000213	0.49682
0.000284	0.62549
0.000285	0.6236
0.000667	0.5947
0.001032	1.13754
0.001183	1.12624
0.002853	1.17933
0.003689	1.23264
0.00536	1.30991
0.005886	1.47858
0.006037	1.37587
0.006042	1.37398
0.006343	1.57954
0.006567	1.59752
0.00991	1.69092
0.01097	1.76633
0.010972	1.76641
0.01264	1.92656
0.014692	1.95904
0.015376	1.98838
0.016516	1.99734
0.018341	2.01638
0.020546	2.02444
0.02237	2.04102
0.024043	2.05132
0.025945	2.06162
0.028072	2.07416
0.030733	2.09006
0.034004	2.10261
0.03598	2.11716
0.039021	2.12858
0.041835	2.13889
0.045028	2.15143
0.048829	2.1671
0.054913	2.17427
0.064417	2.19397
0.073466	2.21054
0.083884	2.22621
0.09453	2.24076
0.113235	2.26561
0.162433	2.29827
0.214826	2.32286
0.264786	2.33492
0.315507	2.34988
0.366531	2.36373
0.416947	2.37623
0.467592	2.38649
0.51816	2.39586
0.569489	2.40119
0.618917	2.41212
0.670473	2.41813
0.721118	2.42592
0.772295	2.43641
0.822255	2.44869
0.873279	2.45559
0.923619	2.45958
0.97472	2.46715
1.01274	2.47429
