Adsorption isotherm of Carbon Dioxide on SIFSIX-3-Ni
DOI: 10.1039/c5cc04487a
Article source: Figure 1a- 328 K
Adsorbate Carbon Dioxide: InChIKey CURLTUGMZLYLDI-UHFFFAOYSA-N
Kind: experiment
Temperature: 328 K
Tabular data in the source: 0
pressure (bar)	uptake (mmol/g)
0.001828	0.08222
0.001828	0.08217
0.001903	0.05508
0.001979	0.09944
0.00198	0.09918
0.002129	0.01007
0.00213	0.07887
0.002133	0.13944
0.002133	0.13949
0.002286	0.15225
0.002592	0.19501
0.002593	0.24807
0.002593	0.2483
0.0029	0.32688
0.002901	0.39342
0.002902	0.51162
0.002906	0.51719
0.00298	0.46458
0.003053	0.37905
0.003126	0.29129
0.003212	0.56421
0.003745	0.60407
0.004658	0.64369
0.005117	0.69071
0.006638	0.72295
0.006791	0.76185
0.007097	0.78788
0.008011	0.85147
0.008163	0.82834
0.008393	0.88304
0.009155	0.91415
0.009458	0.91237
0.012656	1.03439
0.016616	1.19223
0.019737	1.26612
0.021716	1.34314
0.026054	1.42687
0.029326	1.47725
0.032903	1.54083
0.036782	1.59658
0.041195	1.64315
0.050096	1.72308
0.061126	1.79606
0.070406	1.85696
0.081816	1.90196
0.092692	1.94428
0.111328	1.99801
0.160537	2.09226
0.212408	2.15068
0.264125	2.18985
0.315462	2.21536
0.365811	2.2411
0.416844	2.26035
0.467572	2.27534
0.518681	2.291
0.569485	2.30442
0.620137	2.31516
0.670257	2.32321
0.721518	2.33417
0.772246	2.34132
0.822366	2.35094
0.873246	2.35876
0.923973	2.36637
0.974854	2.37643
1.01288	2.38202
