Adsorption isotherm of Nitrogen on NZIF-8
DOI: 10.1039/C002088e
Adsorbate Nitrogen: InChIKey IJGRMHOSHXDMSA-UHFFFAOYSA-N
Temperature: 298 K
Tabular data in the source: 0
pressure (bar)	uptake (wt%)
0.887394	0.288761
4.66863	1.44491
10.5718	3.3225
16.284	4.27438
21.2253	4.65351
25.5877	4.88761
29.9885	5.19304
