Adsorption isotherm of Nitrogen on NZIF-8
DOI: 10.1039/C002088e
Adsorbate Nitrogen: InChIKey IJGRMHOSHXDMSA-UHFFFAOYSA-N
Temperature: 77 K
Tabular data in the source: 0
pressure (bar)	uptake (cm3(STP)/g)
0.0509631	439.479
0.0936973	440.968
0.101241	442.458
0.137688	442.458
0.150259	443.948
0.18545	443.948
0.201788	443.948
0.234468	445.438
0.24955	445.438
0.283486	446.927
0.301084	448.417
0.332507	449.907
0.352613	448.417
0.38152	448.417
0.397859	448.417
0.429284	451.397
0.441852	451.397
0.4783	451.397
0.494638	451.397
0.528575	452.886
0.543657	452.886
0.576336	454.376
0.59142	455.866
0.627868	455.866
0.640434	454.376
0.6794	457.356
0.684423	454.376
0.733446	458.845
0.782466	461.825
0.822689	464.804
0.826459	464.804
0.876746	473.743
0.903207	516.946
0.923279	493.11
0.925924	576.536
0.966385	731.471
0.968941	758.287
