Adsorption isotherm of Methane on NZIF-8
DOI: 10.1039/C002088e
Adsorbate Methane: InChIKey VNWKTOKETHGBQD-UHFFFAOYSA-N
Temperature: 298 K
Tabular data in the source: 0
pressure (bar)	uptake (wt%)
0.887865	0.075349
4.82291	1.51678
10.4174	3.32176
16.2446	4.62989
21.1072	5.64888
25.4685	6.38095
29.9848	6.90033
