Adsorption isotherm of Carbon Dioxide on NZIF-8
DOI: 10.1039/C002088e
Adsorbate Carbon Dioxide: InChIKey CURLTUGMZLYLDI-UHFFFAOYSA-N
Temperature: 298 K
Tabular data in the source: 0
pressure (bar)	uptake (wt%)
0.883784	1.92492
3.9126	11.6141
4.45062	12.7548
7.25139	20.8067
9.86947	24.1627
12.5255	27.8033
16.5753	29.7432
19.1193	31.676
21.6669	31.9727
25.9881	33.4159
29.9633	34.1462
