Adsorption isotherm of Tetrahydrofuran on TBA
DOI: 10.1007/s10450-020-00259-8
Article source: Figure 7a
Adsorbate Tetrahydrofuran: InChIKey WYURNTSHIVDZCO-UHFFFAOYSA-N
Kind: experiment
Temperature: 298 K
Tabular data in the source: 0
pressure (bar)	uptake (mmol/g)
0.010929	0.301488
0.020384	0.400812
0.026364	0.709608
0.031902	0.810825
0.042446	0.96157
0.048514	1.11448
0.05629	1.21461
0.063004	1.21137
0.068542	1.31258
0.078526	1.4636
0.085183	1.56428
0.092958	1.66441
0.104062	1.81489
0.112368	1.96671
0.11832	2.32747
0.123596	2.89635
0.128312	3.46549
0.133028	4.03464
0.13813	4.91529
0.140666	5.3816
0.153158	6.05088
0.16065	7.65765
0.164574	8.64276
0.166086	9.94073
0.164974	10.9283
0.163331	11.8641
0.169261	13.2639
0.169828	14.2506
0.168985	15.7575
0.040913	0.702571
0.061972	1.05602
0.075845	1.2571
0.085096	1.72016
0.093961	1.87172
0.101592	2.23166
0.111518	2.4866
0.120239	2.89797
0.126692	3.36238
0.131495	3.77564
0.138566	4.13586
0.144198	5.0682
0.147766	5.68985
0.150898	7.09093
0.154996	7.76428
0.162372	9.57889
0.165766	10.5123
0.164131	12.4352
0.166296	14.564
0.167481	15.4465
