Adsorption isotherm of Argon on TDA
DOI: 10.1007/s10450-020-00259-8
Article source: Figure 5
Adsorbate Argon: InChIKey XKRFYHLGVUSROY-UHFFFAOYSA-N
Kind: experiment
Temperature: 87 K
Tabular data in the source: 0
pressure (bar)	uptake (cm3(STP)/g)
0.025857	5.36061
0.045806	6.1142
0.053303	6.49294
0.073188	6.86197
0.112896	7.21546
0.132718	7.19992
0.179858	7.54759
0.211942	6.7532
0.254127	7.10475
0.29377	7.07368
0.346057	8.57115
0.380745	8.54396
0.417975	8.89939
0.447708	8.87608
0.477313	8.08365
0.527122	9.58306
0.561874	9.94044
0.606537	10.29
0.648912	11.7953
0.681377	13.3083
0.708823	14.4406
0.768606	16.3168
0.778708	17.4628
0.823815	20.5043
0.856724	24.7093
0.94408	73.487
0.993953	120.371
0.021156	6.90276
0.050952	7.26402
0.073443	8.40023
0.088436	9.15771
0.115755	9.52091
0.155462	9.8744
0.199934	9.07031
0.242056	9.03729
0.279222	9.00816
0.309082	9.75398
0.333922	10.1191
0.36626	10.863
0.396056	11.2243
0.42833	11.5836
0.468165	12.7062
0.498025	13.452
0.540146	13.419
0.564987	13.7842
0.604631	13.7531
0.629599	14.8873
0.669497	16.3945
0.696752	16.3732
0.734235	18.2669
0.761681	19.3992
0.791668	20.9142
0.817081	24.7404
0.832646	28.959
0.841286	36.2599
0.874958	45.0796
0.872099	72.7742
0.913839	100.434
0.94065	112.72
0.969366	121.544
0.99211	124.219
