Adsorption isotherm of Argon on TEO
DOI: 10.1007/s10450-020-00259-8
Article source: Figure 5
Adsorbate Argon: InChIKey XKRFYHLGVUSROY-UHFFFAOYSA-N
Kind: experiment
Temperature: 87 K
Tabular data in the source: 0
pressure (bar)	uptake (cm3(STP)/g)
0.018361	4.98187
0.050508	4.57206
0.095043	4.15253
0.122426	4.9003
0.149744	5.2635
0.199426	5.99378
0.246503	5.95688
0.278586	5.1625
0.315562	3.97967
0.362385	2.40451
0.389576	1.99858
0.436971	3.8845
0.461812	4.24964
0.491544	4.22634
0.546118	4.56817
0.580806	4.54098
0.610603	4.90224
0.650247	4.87116
0.685125	5.99767
0.714922	6.35893
0.742304	7.10669
0.782075	7.84475
0.816763	7.81756
0.853929	7.78842
0.8937	8.52648
0.908693	9.28396
0.960789	9.62774
0.028145	4.20497
0.065374	4.5604
0.092756	5.30817
0.132336	4.89253
0.167215	6.01903
0.204445	6.37447
0.251522	6.33756
0.273821	6.32008
0.320644	4.74492
0.355269	4.33316
0.384938	3.92529
0.409716	3.90587
0.447009	4.64586
0.474264	4.6245
0.499041	4.60508
0.528774	4.58177
0.560794	3.40282
0.617909	4.12728
0.662762	5.63058
0.702406	5.59951
0.734744	6.34339
0.766954	6.31814
0.818796	5.12366
0.848465	4.71578
0.883281	5.45772
0.903103	5.44219
0.930485	6.18995
0.950751	8.86637
0.960916	10.3969
