Adsorption isotherm of Tetrahydrofuran on TDA
DOI: 10.1007/s10450-020-00259-8
Article source: Figure 7a
Adsorbate Tetrahydrofuran: InChIKey WYURNTSHIVDZCO-UHFFFAOYSA-N
Kind: experiment
Temperature: 298 K
Tabular data in the source: 0
pressure (bar)	uptake (mmol/g)
0.002565	0.253586
0.004745	0.356428
0.01037	0.301759
0.014846	0.299594
0.060817	0.121516
0.104346	0.308254
0.137214	0.552097
0.158245	0.95751
0.169	1.73153
0.173687	2.35264
0.176434	3.44222
0.179304	5.31096
0.17788	7.8571
0.177778	10.039
0.177553	11.4417
0.012085	1.236
0.022513	1.59459
0.043245	1.53261
0.070664	1.51935
0.097464	1.61028
0.119759	1.75534
0.144176	2.10717
0.164291	2.14939
0.174428	3.02761
0.175256	3.54668
0.17639	5.52016
0.178083	7.49337
0.177509	9.51962
