Adsorption isotherm of Methane on wet TEO
DOI: 10.1007/s10450-020-00259-8
Article source: Figure S2b
Adsorbate Methane: InChIKey VNWKTOKETHGBQD-UHFFFAOYSA-N
Kind: experiment
Temperature: 264 K
Tabular data in the source: 0
pressure (bar)	uptake (cm3(STP)/g)
1.99176	1.32904
2.18085	1.32859
3.67917	1.13455
5.77359	1.32004
7.48981	1.50643
9.61304	2.0728
12.4926	2.63737
14.4124	3.01375
16.1286	3.20014
18.2518	3.76652
19.7934	4.1438
21.1602	4.71197
23.676	5.46789
25.7992	6.03426
27.9225	6.60064
30.0169	6.78612
31.427	7.92562
33.8113	9.44376
34.9008	11.3459
35.4663	13.8208
36.1488	15.343
37.0349	17.0551
38.2847	18.576
39.1275	19.7168
39.9703	20.8577
41.8018	22.5676
44.2293	24.657
46.4678	26.747
48.3137	28.6473
50.4207	31.4994
51.0888	32.8312
52.3242	34.1616
54.2728	34.9188
55.6252	35.2966
57.9231	35.6721
60.6136	36.2371
63.0862	36.4217
66.6357	35.8418
69.0363	35.0742
70.3744	35.2615
72.9622	36.9696
76.4253	35.2471
77.8209	36.1961
79.2166	37.1452
81.0049	38.2838
2.22767	16.9475
4.69847	19.6083
7.60507	23.03
11.3689	27.7829
15.0751	31.7741
17.8052	37.8628
19.9374	46.0482
22.8314	46.8032
23.966	46.8005
31.5314	44.3063
36.084	44.486
38.5278	44.2897
44.2149	44.4666
48.5352	44.0754
52.317	44.0664
56.3024	44.2473
60.9432	43.0934
65.0312	42.1313
68.2907	40.2188
72.3643	39.0662
75.3466	38.4877
78.7502	38.4796
80.6411	38.4751
