Adsorption isotherm of Water on TEO
DOI: 10.1007/s10450-020-00259-8
Article source: Figure 6
Adsorbate Water: InChIKey XLYOFNOQVPJJNP-UHFFFAOYSA-N
Kind: experiment
Temperature: 298 K
Tabular data in the source: 0
pressure (bar)	uptake (cm3(STP)/g)
0.00082	0.128256
0.003034	0.125768
0.003104	0.113924
0.004971	0.147122
0.005524	0.1465
0.00698	0.109571
0.008504	0.084329
0.009541	0.094928
0.010579	0.105528
0.011824	0.104128
0.013208	0.114339
0.015074	0.147537
0.017145	0.215798
0.018533	0.167181
0.019571	0.166014
0.021361	0.293415
0.022677	0.280172
0.024402	0.348822
0.025853	0.382486
0.026746	0.475601
0.027572	0.545261
0.028124	0.568171
0.029085	0.672973
0.029496	0.7431
0.029769	0.789852
0.030107	0.907119
0.00115	0.363179
0.003569	0.395755
0.004329	0.418431
0.006749	0.451007
0.007988	0.543732
0.00965	0.530101
0.010619	0.529012
0.011934	0.527535
0.014423	0.548268
0.015671	0.523337
0.017394	0.615518
0.019122	0.648871
0.020784	0.63524
0.021893	0.610465
0.023901	0.584679
0.025353	0.606577
0.026599	0.605178
0.029156	0.649364
0.030045	0.801306
