Adsorption isotherm of Toluene on TEO
DOI: 10.1007/s10450-020-00259-8
Article source: Figure 7b
Adsorbate Toluene: InChIKey YXFVVABEGXRONW-UHFFFAOYSA-N
Kind: experiment
Temperature: 298 K
Tabular data in the source: 0
pressure (bar)	uptake (mmol/g)
0.002053	0.11162
0.003477	0.201242
0.003902	0.337221
0.006986	0.698069
0.011081	0.944366
0.018441	1.03998
0.022182	1.25251
0.024497	1.38678
0.026896	1.55506
0.027851	1.74738
0.028637	1.88304
0.030113	2.17716
0.03114	2.47168
0.032756	2.99295
0.033169	3.69712
0.001994	0.94122
0.002254	0.997803
0.004303	1.10959
0.006279	1.13053
0.00816	1.17428
0.011034	1.20577
0.014623	1.25935
0.017934	1.35862
0.021168	1.38979
0.024184	1.6257
0.026847	1.82784
0.028248	2.04248
0.029688	2.54118
0.031136	2.99441
0.033437	3.70824
