Adsorption isotherm of Water on TDA
DOI: 10.1007/s10450-020-00259-8
Article source: Figure 6
Adsorbate Water: InChIKey XLYOFNOQVPJJNP-UHFFFAOYSA-N
Kind: experiment
Temperature: 298 K
Tabular data in the source: 0
pressure (bar)	uptake (cm3(STP)/g)
0.000408	0.08166
0.000892	0.081115
0.001653	0.092026
0.001999	0.091637
0.003452	0.090004
0.004836	0.088449
0.006702	0.133413
0.008088	0.096561
0.009193	0.130614
0.010784	0.140591
0.012928	0.149947
0.014382	0.148314
0.016043	0.146448
0.017425	0.168425
0.019089	0.131262
0.020263	0.153471
0.0222	0.16306
0.023929	0.184648
0.025381	0.194781
0.026698	0.169772
0.027458	0.180683
0.028698	0.261643
0.02932	0.284474
0.030911	0.294451
0.031672	0.293596
0.001779	0.268355
0.00489	0.311919
0.006482	0.31013
0.007863	0.343872
0.009318	0.318708
0.012983	0.36165
0.01444	0.312955
0.015893	0.311322
0.017488	0.262472
0.019077	0.295981
0.020807	0.305802
0.022052	0.304403
0.02413	0.278539
0.027796	0.309716
0.029042	0.296551
0.029802	0.307461
