Adsorption isotherm of Toluene on TDA
DOI: 10.1007/s10450-020-00259-8
Article source: Figure 7b
Adsorbate Toluene: InChIKey YXFVVABEGXRONW-UHFFFAOYSA-N
Kind: experiment
Temperature: 298 K
Tabular data in the source: 0
pressure (bar)	uptake (mmol/g)
0.00098	0.078501
0.003051	0.065263
0.012676	0.079287
0.023651	0.09209
0.035159	0.138502
0.001783	0.111865
0.003757	0.144171
0.006101	0.119324
0.011502	0.103076
0.022839	0.104188
0.034885	0.161477
