Adsorption isotherm of Water on TBA
DOI: 10.1007/s10450-020-00259-8
Article source: Figure 6
Adsorbate Water: InChIKey XLYOFNOQVPJJNP-UHFFFAOYSA-N
Kind: experiment
Temperature: 298 K
Tabular data in the source: 0
pressure (bar)	uptake (cm3(STP)/g)
0.000889	0.128178
0.002202	0.150232
0.003101	0.160987
0.004072	0.136367
0.006077	0.157644
0.00794	0.237904
0.009739	0.235883
0.011397	0.281079
0.013334	0.290668
0.014991	0.34763
0.015816	0.429056
0.01678	0.498562
0.019063	0.507762
0.020232	0.612331
0.02175	0.669448
0.023058	0.773862
0.024842	0.983621
0.026078	1.13517
0.02682	1.40493
0.027217	1.66331
0.028309	1.88561
0.028913	2.16728
0.02943	2.69612
0.030166	4.05999
0.00218	0.467904
0.003077	0.513955
0.004525	0.582917
0.006115	0.616425
0.007495	0.673698
0.009218	0.76588
0.011363	0.775235
0.012188	0.844896
0.013572	0.855107
0.015784	0.887916
0.017716	0.968098
0.019371	1.04859
0.021093	1.1643
0.022538	1.28033
0.023295	1.35007
0.025139	1.70094
0.02658	1.87579
0.027668	2.15692
0.029233	3.5434
0.030027	4.06015
