Adsorption isotherm of Tetrahydrofuran on TEO
DOI: 10.1007/s10450-020-00259-8
Article source: Figure 7a
Adsorbate Tetrahydrofuran: InChIKey WYURNTSHIVDZCO-UHFFFAOYSA-N
Kind: experiment
Temperature: 298 K
Tabular data in the source: 0
pressure (bar)	uptake (mmol/g)
0.009222	0.354263
0.017143	0.194587
0.024359	0.294993
0.028777	0.396752
0.034874	0.4977
0.039823	0.65115
0.044801	0.752639
0.051428	0.905277
0.062975	1.26333
0.067953	1.36482
0.078497	1.51556
0.087923	1.66685
0.098554	1.66171
0.109186	1.65656
0.117433	1.91231
0.124061	2.06495
0.13228	2.37267
0.142294	2.47172
0.151719	2.623
0.160381	3.13829
0.166921	3.44682
0.173345	3.96319
0.179151	4.58376
0.179624	4.73938
0.18184	5.77727
0.181288	6.76455
0.18035	7.44032
0.008321	1.96509
0.012063	2.27497
0.021699	3.04953
0.036044	3.40622
0.047824	3.34858
0.053862	3.55345
0.06049	3.70609
0.066645	3.70311
0.074479	3.69932
0.081193	3.69608
0.087908	3.69283
0.094623	3.68958
0.103459	3.8931
0.110646	4.04547
0.126786	4.1935
0.139009	4.34344
0.146196	4.4958
0.152882	4.54452
0.159509	4.69716
0.163898	4.85088
0.17094	5.26306
0.174682	5.57294
0.177575	6.40271
