Adsorption isotherm of Argon on TBA
DOI: 10.1007/s10450-020-00259-8
Article source: Figure 5
Adsorbate Argon: InChIKey XKRFYHLGVUSROY-UHFFFAOYSA-N
Kind: experiment
Temperature: 87 K
Tabular data in the source: 0
pressure (bar)	uptake (cm3(STP)/g)
0.035578	4.19914
0.07033	4.55652
0.085196	4.54487
0.132082	3.35427
0.181573	2.93086
0.231065	2.50745
0.300441	2.45306
0.337544	2.03936
0.389576	1.99858
0.426806	2.35401
0.456602	2.71527
0.486271	2.30739
0.528393	2.27437
0.567973	1.85873
0.602407	0.29328
0.649484	0.256377
0.681822	1.00026
0.734172	2.8823
0.779025	4.3856
0.81886	5.50822
0.871146	7.0057
0.906025	8.1322
0.933471	9.26453
0.035387	3.04545
0.060292	3.79516
0.090024	3.77185
0.114802	3.75243
0.144407	2.95999
0.18151	2.54629
0.21874	2.90172
0.278205	2.85511
0.322741	2.43558
0.364862	2.40256
0.399551	2.37537
0.436907	3.49993
0.476805	5.00712
0.536271	4.96051
0.588367	5.30429
0.640209	4.1098
0.672292	3.31542
0.724324	3.27463
0.754248	4.40502
0.794019	5.14308
0.893319	6.21909
0.905898	7.36307
0.940967	9.64327
0.968413	10.7756
0.978515	11.9215
