Adsorption isotherm of Toluene on TBA
DOI: 10.1007/s10450-020-00259-8
Article source: Figure 7b
Adsorbate Toluene: InChIKey YXFVVABEGXRONW-UHFFFAOYSA-N
Kind: experiment
Temperature: 298 K
Tabular data in the source: 0
pressure (bar)	uptake (mmol/g)
0.001336	0.100906
0.014382	0.100472
0.025802	0.135599
0.030905	0.278712
0.03467	0.354853
0.001689	0.134677
0.002849	0.190446
0.003835	0.212282
0.005718	0.24467
0.007156	0.254733
0.011197	0.296533
0.018037	0.290349
0.034592	0.286741
