Adsorption isotherm of Nitrogen on Ox-BD-COF-SO3H
DOI: 10.1002/chem.202004727
Article source: Figure 4a
Adsorbate Nitrogen: InChIKey IJGRMHOSHXDMSA-UHFFFAOYSA-N
Kind: experiment
Temperature: 77 K
Tabular data in the source: 0
pressure (bar)	uptake (cm3(STP)/g)
0.002016	60.4877
0.017719	89.9583
0.029025	97.5132
0.036562	105.589
0.054359	114.381
0.067968	122.523
0.087709	130.477
0.112983	139.944
0.134966	147.597
0.149622	153.296
0.168466	161.03
0.181028	167.353
0.199871	173.323
0.218714	183.743
0.240698	198.479
0.246979	209.225
0.256401	227.835
0.259542	244.638
0.265195	257.534
0.284038	266.717
0.322353	272.969
0.360039	277.365
0.397726	281.924
0.435413	284.692
0.473099	288.926
0.510786	291.856
0.548473	294.787
0.586159	297.881
0.623846	300.649
0.661532	303.905
0.699219	306.836
0.736906	310.092
0.765171	312.046
0.812279	316.198
0.859387	322.988
0.906496	332.317
0.93162	340.377
0.950463	349.902
0.012208	80.5907
0.009495	70.4641
0.001356	45.9916
0.001356	35.0211
0.001356	19.8312
0.940003	375.949
0.028711	125.453
0.028711	135.385
0.024	117.312
0.047554	144.748
0.071737	156.52
0.091836	163.944
0.107748	171.043
0.124498	176.253
0.144911	186.755
0.172055	193.28
0.198301	207.027
0.19359	199.7
0.217458	216.112
0.231277	227.705
0.245095	246.983
0.234417	235.846
0.249073	260.758
0.243839	252.454
0.253261	277.854
0.256401	268.573
0.934502	366.409
0.913779	355.86
0.866681	341.21
0.861029	336.521
0.808279	330.075
0.751761	324.215
0.704663	318.354
0.682056	318.354
0.651913	317.182
0.633074	317.182
0.601047	313.666
0.256289	284.951
0.269477	291.983
0.297735	293.741
0.318459	295.499
0.350485	299.602
0.37686	300.188
0.397583	300.774
0.423958	301.946
0.446565	304.876
0.48236	306.634
0.504967	308.978
0.52569	308.978
0.550181	310.15
0.57844	313.666
0.22803	220.488
0.233682	239.827
0.054709	151.336
