Adsorption isotherm of Nitrogen on MB-COF 12M HCl
DOI: 10.1002/chem.202004727
Article source: Figure S25b
Adsorbate Nitrogen: InChIKey IJGRMHOSHXDMSA-UHFFFAOYSA-N
Kind: experiment
Temperature: 77 K
Tabular data in the source: 0
pressure (bar)	uptake (cm3(STP)/g)
0.002807	21.0666
0.005826	48.278
0.02467	69.6717
0.048644	82.9748
0.076306	94.4632
0.103014	100.866
0.129723	106.756
0.156431	110.598
0.183139	116.617
0.209847	120.971
0.236556	125.452
0.263264	130.062
0.289972	132.282
0.316681	134.587
0.343389	137.49
0.370097	139.795
0.396806	141.075
0.423514	142.441
0.450222	146.197
0.47693	147.819
0.503639	149.015
0.530347	150.978
0.557055	153.795
0.583764	155.93
0.610472	157.21
0.63718	159.259
0.663889	161.308
0.690597	163.101
0.715079	164.637
0.76627	167.711
0.799656	171.552
0.859749	176.418
0.91412	184.921
0.939874	189.992
0.965629	200.529
0.988839	216.5
1.00442	230.714
0.069176	90.2551
0.038635	76.1981
0.014203	60.7354
4.9e-05	31.2156
0.004121	7.31865
0.999124	234.691
0.982157	225.905
0.969432	219.072
0.956707	213.215
0.934085	201.501
0.911463	198.572
0.859148	191.739
0.799765	185.882
0.757348	183.93
0.706447	182.953
0.675342	177.096
0.659789	179.049
0.624441	177.096
0.601819	177.096
0.566472	178.072
0.524055	175.144
0.541021	175.144
0.507088	177.096
0.480224	175.144
0.461843	174.168
0.413771	170.263
0.402459	168.311
0.384079	172.215
0.351559	170.263
0.323281	167.334
0.297831	164.406
0.269553	164.406
0.251172	163.43
0.220067	160.501
0.197444	158.549
0.180478	153.668
0.166339	152.692
0.143716	151.716
0.125336	146.835
0.104127	144.882
0.089988	141.954
0.077263	140.001
0.063124	136.097
0.057468	132.192
0.047571	127.311
0.037674	123.406
0.029191	119.502
0.020707	115.597
0.013638	107.787
