Adsorption isotherm of Nitrogen on Ox-BD-COF
DOI: 10.1002/chem.202004727
Article source: Figure 1d
Adsorbate Nitrogen: InChIKey IJGRMHOSHXDMSA-UHFFFAOYSA-N
Kind: experiment
Temperature: 77 K
Tabular data in the source: 0
pressure (bar)	uptake ()
4.6e-05	98.1671
0.044555	161.325
0.068292	173.994
0.09203	186.111
0.115768	194.924
0.139506	204.288
0.163244	216.405
0.186981	228.523
0.210719	241.742
0.23149	261.938
0.254041	309.38
0.243359	275.891
0.259975	337.14
0.270064	315.549
0.281933	349.147
0.30567	356.859
0.329408	360.163
0.353146	362.917
0.376884	365.121
0.400621	365.671
0.424359	368.425
0.448097	371.73
0.471835	372.281
0.495573	372.832
0.51931	375.035
0.543048	377.238
0.566786	378.34
0.590524	381.094
0.614262	381.644
0.637999	383.297
0.661737	386.602
0.685475	388.254
0.709213	390.457
0.727016	393.762
0.756688	394.864
0.780426	400.372
0.804164	400.372
0.824934	402.942
0.851639	406.981
0.875377	413.04
0.899115	420.751
0.922853	422.954
0.946591	435.072
1.01044	613.217
1.00201	588.174
1.00201	575.652
1.00201	558.957
1.00201	546.435
0.976711	467.13
0.990765	492.174
0.996386	513.043
0.999197	521.391
0.968279	448.348
0.037944	156.174
0.029512	141.565
0.018269	124.87
1.0078	625.13
0.986653	598.56
0.9834	576.821
0.980146	556.29
0.976893	538.174
0.962254	518.85
0.960628	497.111
0.959001	481.411
0.939483	464.502
0.934603	446.386
0.919964	436.725
0.871168	418.609
0.812612	411.362
0.767068	407.739
0.710139	401.7
0.688994	399.285
0.649957	396.87
0.640197	395.662
0.60604	393.246
0.573509	392.039
0.557243	390.831
0.521459	389.623
0.505194	389.623
0.492181	389.623
0.462903	388.415
0.423866	379.961
0.405974	379.961
0.383202	378.754
0.350671	376.338
0.319767	375.13
0.296995	373.923
0.274223	370.3
0.251452	363.053
0.28073	358.222
0.243319	323.198
0.235186	308.705
0.235186	286.966
0.225427	274.889
0.215668	265.227
0.201029	251.942
0.18151	239.865
0.165245	233.826
0.145726	227.787
0.118075	214.502
0.103436	208.464
0.069278	193.971
0.053013	181.894
0.041627	174.647
0.023735	158.947
0.017228	154.116
0.08717	201.217
0.131087	220.541
0.007469	142.039
0.453144	386
0.480795	389.623
