Adsorption isotherm of Nitrogen on BD-COF 100C H2O
DOI: 10.1002/chem.202004727
Article source: Figure 3b
Adsorbate Nitrogen: InChIKey IJGRMHOSHXDMSA-UHFFFAOYSA-N
Kind: experiment
Temperature: 77 K
Tabular data in the source: 0
pressure (bar)	uptake (cm3(STP)/g)
0.010699	174.266
0.027522	214.13
0.054861	269.607
0.080096	297.259
0.105331	317.998
0.130567	338.737
0.156103	358.859
0.181038	371.574
0.206273	391.449
0.229405	411.151
0.265155	452.801
0.305111	623.034
0.328244	637.724
0.353479	645.501
0.378715	645.501
0.449794	664.166
0.47545	665.376
0.500686	666.24
0.527183	675.572
0.551156	681.794
0.576392	681.794
0.601627	685.25
0.626862	690.435
0.652098	696.484
0.677333	702.533
0.702569	702.533
0.727383	717.05
0.757245	714.631
0.782481	720.68
0.807716	723.272
0.834213	733.641
0.858187	730.185
0.89604	751.788
0.921275	750.924
0.94651	761.293
0.971746	779.44
0.994878	794.821
0.40137	656.542
0.417165	656.542
0.43138	664.33
1.00788	831.776
0.249743	442.368
0.039676	251.558
0.008087	146.417
0.003348	107.477
0.003348	95.7944
0.004928	41.2773
0.271855	496.885
0.270276	531.931
0.271855	563.084
0.282911	590.343
0.295547	602.025
