Adsorption isotherm of Nitrogen on 50 wt% SPEEK@Ox-DBD-COF-SO3H
DOI: 10.1002/chem.202004727
Article source: Figure S8a
Adsorbate Nitrogen: InChIKey IJGRMHOSHXDMSA-UHFFFAOYSA-N
Kind: experiment
Temperature: 77 K
Tabular data in the source: 0
pressure (bar)	uptake ()
0.93891	30.4396
0.927817	27.3374
0.913396	25.3632
0.912287	22.261
0.861259	21.133
0.865696	19.4408
0.802467	16.9027
0.815778	15.4926
0.758095	15.7746
0.770297	12.6724
0.717051	11.5443
0.702631	12.9544
0.697084	10.4162
0.687101	12.3904
0.663805	11.2623
0.65715	11.5443
0.637182	11.8263
0.647166	10.4162
0.605013	11.5443
0.621652	10.9803
0.589483	9.57016
0.573953	10.1342
0.552876	10.1342
0.535128	9.00612
0.520707	9.00612
0.495193	10.1342
0.478554	8.16006
0.465242	8.44208
0.459696	8.44208
0.433073	8.7241
0.423089	7.87804
0.400903	7.87804
0.378717	7.87804
0.363187	7.87804
0.350985	7.87804
0.337674	7.59602
0.317706	7.314
0.302176	7.314
0.284428	7.314
0.270007	7.314
0.25004	6.74996
0.232291	6.74996
0.215652	7.03198
0.196794	7.03198
0.174608	6.18593
0.15575	5.62189
0.138556	6.04492
0.119143	5.48088
0.099176	5.62189
0.089192	5.05785
0.078099	5.05785
0.062569	4.21179
0.044821	5.62189
0.033728	4.21179
0.019307	3.36573
