Adsorption isotherm of Nitrogen on DBD-COF
DOI: 10.1002/chem.202004727
Article source: Figure S7
Adsorbate Nitrogen: InChIKey IJGRMHOSHXDMSA-UHFFFAOYSA-N
Kind: experiment
Temperature: 77 K
Tabular data in the source: 0
pressure (bar)	uptake (cm3(STP)/g)
0.005641	134.666
0.010429	163.1
0.021226	180.89
0.033457	198.198
0.048844	214.57
0.059497	230.139
0.076463	248.969
0.073701	232.407
0.096487	262.707
0.117201	278.346
0.138856	293.718
0.16183	307.935
0.18319	323.865
0.200057	338.09
0.217319	354.177
0.238033	393.409
0.241189	423.352
0.250773	491.842
0.269597	505.035
0.295342	513.413
0.320199	518.096
0.345055	524.002
0.369912	529.5
0.394769	533.776
0.419626	538.459
0.444483	544.364
0.46934	549.251
0.494197	552.713
0.519053	556.989
0.54391	562.08
0.567879	565.425
0.593624	570.632
0.618481	574.501
0.643338	578.167
0.668195	581.832
0.693051	584.397
0.717612	590.384
0.76417	598.611
0.817336	608.507
0.864978	617.263
0.915152	635.997
0.925937	653.218
0.946704	671.021
0.966477	703.153
0.972691	723.312
0.984084	785.714
0.983739	754.236
0.987487	831.246
0.988079	810.616
0.995477	861.768
1.00031	914.559
0.999102	889.563
1.00406	994.788
1.00347	975.589
1.00376	958.542
1.00228	940.123
1.00739	1052.61
1.00583	1033.88
1.00583	1018.49
0.254339	476.789
0.245784	452.821
1.0051	1076.27
0.9947	1068.39
0.987274	1030.72
0.985789	998.305
0.979848	970.273
0.979848	948.372
0.964995	906.323
0.962025	871.281
0.959054	842.373
0.957569	817.844
0.942717	786.307
0.939746	756.522
0.938261	734.621
0.920438	711.844
0.872911	671.547
0.86697	649.646
0.819442	630.374
0.758547	616.357
0.71102	605.845
0.688741	604.093
0.654581	597.085
0.633787	596.209
0.608538	592.705
0.583289	589.201
0.55804	588.325
0.520909	584.82
0.49566	576.936
0.483778	576.936
0.448133	571.68
0.418428	569.052
0.394664	565.548
0.379812	564.672
0.350107	561.168
0.324858	554.16
0.30258	550.655
0.269904	545.399
0.256537	541.895
0.234259	506.854
0.232773	476.193
0.232773	450.788
0.229803	433.268
0.216436	404.359
0.204554	393.846
0.183761	374.574
0.167423	358.805
0.142174	340.409
0.121381	328.144
0.103558	313.252
0.085735	299.236
0.072368	288.723
0.059001	277.335
0.051575	267.699
0.038207	256.31
0.029296	244.046
0.033752	235.286
0.020385	223.897
0.015929	216.013
0.014444	209.881
