Adsorption isotherm of Nitrogen on BD-COF As-synthesized
DOI: 10.1002/chem.202004727
Article source: Figure 3b
Adsorbate Nitrogen: InChIKey IJGRMHOSHXDMSA-UHFFFAOYSA-N
Kind: experiment
Temperature: 77 K
Tabular data in the source: 0
pressure (bar)	uptake ()
0.015984	238.633
0.86415	873.36
0.80571	836.741
0.756747	836.741
0.021915	190.277
0.035934	270.182
0.056964	289.414
0.077993	309.458
0.099023	325.71
0.120052	345.212
0.141082	361.464
0.162111	382.592
0.18314	402.094
0.20417	423.221
0.225199	447.599
0.246229	492.292
0.263987	575.809
0.28268	649.394
0.305111	676.752
0.326141	686.503
0.34717	697.879
0.367148	699.505
0.389229	697.879
0.410259	704.38
0.431288	714.131
0.452318	717.382
0.473347	730.383
0.494377	722.257
0.515406	727.133
0.534333	738.103
0.557465	736.884
0.578495	740.135
0.599524	754.761
0.620554	759.637
0.641583	754.761
0.662613	764.512
0.683642	767.763
0.704671	767.763
0.747782	794.985
0.763554	786.182
0.809819	800.267
0.847672	834.396
0.868701	836.021
0.890782	866.087
0.910293	852.092
0.93179	875.838
0.952819	912.405
0.972272	959.536
0.988044	1034.7
1.00002	1173.52
1.00329	1299.2
1.00788	1230.39
1.00156	1108.33
0.996824	1096.12
0.011246	174.55
0.001769	95.209
0.001769	21.9713
1.01262	1373.82
1.00472	1361.61
0.987347	1349.4
0.971552	1306.68
0.966814	1263.96
0.958917	1196.83
0.954178	1141.9
0.94944	1093.07
0.944702	1038.14
0.939963	1001.53
0.927328	964.907
0.909954	946.597
0.89258	922.185
0.865729	897.772
0.86257	891.669
0.824663	861.154
0.813607	824.535
0.772542	830.638
0.759906	824.535
0.714102	806.225
0.687251	794.019
0.663559	794.019
0.635129	787.916
0.611437	781.813
0.583007	781.813
0.556157	757.4
0.526147	763.503
0.505614	763.503
0.485081	757.4
0.455072	751.297
0.423483	751.297
0.407688	751.297
0.377679	732.987
0.350828	732.987
0.328716	732.987
0.303444	726.884
0.282911	720.781
0.265537	714.678
0.251322	702.472
0.248163	653.647
0.245005	592.615
0.241846	549.893
0.233948	501.068
0.218154	476.655
0.203939	476.655
0.192883	452.243
0.177088	421.727
0.159714	403.418
0.153396	403.418
0.137602	397.315
0.124966	385.108
0.015984	256.942
0.110751	379.005
0.094957	366.799
0.08548	360.696
0.071265	354.593
0.061788	336.283
0.050732	317.974
0.044414	299.664
