Adsorption isotherm of Nitrogen on DBD-COF 9M NaOH
DOI: 10.1002/chem.202004727
Article source: Figure S25a
Adsorbate Nitrogen: InChIKey IJGRMHOSHXDMSA-UHFFFAOYSA-N
Kind: experiment
Temperature: 77 K
Tabular data in the source: 0
pressure (bar)	uptake (cm3(STP)/g)
1.0024	989.054
0.988781	947.672
0.976866	921.808
0.968356	911.463
0.953037	895.945
0.941122	890.772
0.929207	890.772
0.895165	864.908
0.878145	854.562
0.864528	849.39
0.827082	828.699
0.803252	818.353
0.382835	730.416
0.364112	730.416
0.331772	720.07
0.309645	714.898
0.28922	714.898
0.265391	699.379
0.261986	699.379
0.25688	647.652
0.251774	621.788
0.250072	595.924
0.241561	575.233
0.238157	544.196
0.233051	533.851
0.222838	523.505
0.212626	507.987
0.205817	497.641
0.193903	482.123
0.18369	471.777
0.176882	461.432
0.170073	456.259
0.163265	445.914
0.15135	430.395
0.144542	420.05
0.137733	414.877
0.129223	404.531
0.115606	394.186
0.108798	383.84
0.103692	378.667
0.095181	378.667
0.084969	368.322
0.07816	363.149
0.061139	352.804
0.049225	337.285
0.035608	326.94
0.030502	321.767
0.015183	280.385
0.006672	254.521
0.000136	197.621
0.000136	187.275
0.001838	156.238
0.00354	130.375
0.005242	104.511
0.005242	83.8196
0.005242	57.9557
0.005242	37.2646
0.005242	26.9191
0.005242	11.4008
0.408366	735.589
0.428792	740.761
0.452621	745.934
0.488365	751.107
0.512194	766.625
0.527513	766.625
0.556449	761.453
0.578576	771.798
0.604107	776.971
0.633043	787.316
0.65517	787.316
0.689212	792.489
0.713041	792.489
0.753892	792.489
0.767508	797.662
0.912186	875.253
