Adsorption isotherm of Nitrogen on BD-COF
DOI: 10.1002/chem.202004727
Article source: Figure 1d
Adsorbate Nitrogen: InChIKey IJGRMHOSHXDMSA-UHFFFAOYSA-N
Kind: experiment
Temperature: 77 K
Tabular data in the source: 0
pressure (bar)	uptake (cm3(STP)/g)
0.004285	166.676
0.012904	198.412
0.01785	224.337
0.033675	255.328
0.049896	283.382
0.07126	310.041
0.095845	337.581
0.121702	359.98
0.148407	381.33
0.172145	402.103
0.195883	423.781
0.218773	447.74
0.237424	475.647
0.246326	496.21
0.256711	535.684
0.26314	605.636
0.267096	631.486
0.264129	574.791
0.264129	553.493
0.258195	508.328
0.278965	662.331
0.296769	685.244
0.326441	699.345
0.326441	661.45
0.356113	707.717
0.385785	716.53
0.415458	723.139
0.44513	728.868
0.474802	734.155
0.504474	739.883
0.534147	747.815
0.563819	752.221
0.593491	759.712
0.623163	765.441
0.652835	771.609
0.682508	778.219
0.71218	784.829
0.759656	795.404
0.790811	802.454
0.813066	805.392
0.85715	821.968
0.884279	836.604
0.912632	847.987
0.942634	872.956
0.956481	896.824
0.974143	926.935
0.98739	956.127
0.992583	1009
0.989121	981.647
0.997881	1062.22
0.997033	1037.46
1.00429	1319.47
1.00297	1287.82
1.00297	1266.01
1.00297	1244.41
1.00495	1220.33
1	1200.13
1.00297	1177
1	1156.07
1	1134.03
1	1112
1	1089.97
0.015476	243.725
0.026327	280.612
0.042774	310.129
0.063842	335.111
0.09203	359.613
0.121373	386.687
0.150386	411.877
0.180058	439.662
0.201817	464.573
0.217925	492.643
0.230303	523.383
0.238413	561.021
0.240391	594.436
0.246919	654.253
0.240391	619.589
0.264129	696.793
0.299736	712.858
0.337123	723.727
0.370949	731.707
0.406556	740.153
0.442163	745.477
0.477769	753.494
0.513376	764.449
0.548983	769.773
0.584589	777.852
0.620196	784.033
0.655803	794.253
0.691409	799.149
0.727016	808.146
0.762623	822.16
0.795262	834.914
0.827478	851.239
0.863508	871.487
0.876366	892.54
0.894452	921.175
0.924125	968.323
0.910984	947.865
0.928787	1003.07
0.941928	1038.2
0.939667	1069.04
0.95846	1142.98
0.954645	1101.46
0.963405	1185
0.972109	1216.3
0.955492	1079.18
0.977612	1267.1
0.97923	1233.55
0.982333	1293.57
0.9739	1316.52
0.982333	1333.22
0.996386	1343.65
1.01325	1366.61
0.937362	1022.26
0.926119	988.87
