Adsorption isotherm of Nitrogen on DBD-COF 100C H2O
DOI: 10.1002/chem.202004727
Article source: Figure S25a
Adsorbate Nitrogen: InChIKey IJGRMHOSHXDMSA-UHFFFAOYSA-N
Kind: experiment
Temperature: 77 K
Tabular data in the source: 0
pressure (bar)	uptake (cm3(STP)/g)
0.088402	152.564
0.114876	166.095
0.14167	177.202
0.168463	189.709
0.195257	200.204
0.22205	213.06
0.247887	239.926
0.259264	276.206
0.273405	312.212
0.298285	313.438
0.32444	315.657
0.351553	318.745
0.378346	322.559
0.40514	328.541
0.431933	335.013
0.45777	335.448
0.485521	340.54
0.512872	340.575
0.539108	344.038
0.565901	345.997
0.592695	349.653
0.619489	353.869
0.646282	355.321
0.674671	361.895
0.699869	363.192
0.726663	369.751
0.753456	368.912
0.78025	379.931
0.807044	377.308
0.833837	388.852
0.860631	387.278
0.887424	403.545
0.914218	403.545
0.941011	420.6
0.970038	440.803
0.992366	464.285
0.000136	20.8909
0.000136	49.6928
0.006672	78.4946
0.021991	100.096
0.050927	116.897
0.06965	143.299
0.016885	119.297
0.035608	143.299
0.057735	157.7
0.084969	176.901
0.107096	186.502
0.120713	191.302
0.15135	203.303
0.168371	208.103
0.192201	222.504
0.214328	234.505
0.221136	236.905
0.25688	308.909
0.306241	332.911
0.324964	335.311
0.347091	335.311
0.381133	330.511
0.404962	337.711
0.415175	337.711
0.440706	344.912
0.483259	347.312
0.50028	352.112
0.515598	354.512
0.553045	364.113
0.57347	364.113
0.599001	368.913
0.636447	371.313
0.667085	371.313
0.689212	385.714
0.704531	380.914
0.758998	392.915
0.815167	397.715
0.861124	402.515
0.912186	424.117
0.932612	436.118
0.958143	450.518
0.970058	464.919
0.993887	486.521
