Adsorption isotherm of Nitrogen on Ox-DBD-COF-SO3H-MIX
DOI: 10.1002/chem.202004727
Article source: Figure S8a
Adsorbate Nitrogen: InChIKey IJGRMHOSHXDMSA-UHFFFAOYSA-N
Kind: experiment
Temperature: 77 K
Tabular data in the source: 0
pressure (bar)	uptake (cm3(STP)/g)
0.565762	106.109
0.590289	107.148
0.614816	108.534
0.639342	109.747
0.663869	111.219
0.688396	112.864
0.712923	114.423
0.761976	118.84
0.811029	125.682
0.855995	136.074
0.903005	156.292
0.910012	164.852
0.929867	193.32
0.924489	181.32
0.912287	174.551
0.532909	104.047
0.508505	102.919
0.490756	101.79
0.460805	100.944
0.435291	100.098
0.413106	98.6883
0.38981	96.7141
0.360969	95.5861
0.334346	93.3299
0.31216	92.7659
0.277772	90.5097
0.246712	88.5356
0.223417	76.9728
0.213433	67.6661
0.187919	63.9999
0.164624	60.3336
0.150203	57.2314
0.128018	53.2832
0.10916	51.591
0.088083	48.2068
0.072553	45.9507
0.065897	43.9765
0.050367	39.4642
0.035946	37.4901
0.0304	35.5159
0.025963	32.1317
0.01487	25.3632
0.917833	180.192
0.908959	172.577
0.871243	153.118
0.859041	145.503
0.810232	137.043
0.760314	128.3
0.709286	125.48
0.681554	121.532
0.659368	121.25
0.628308	119.558
0.603904	118.43
0.573953	117.584
0.553986	116.738
0.524035	116.173
0.501849	113.353
0.476335	113.917
0.45304	112.789
0.419761	111.097
0.400903	109.405
0.382045	109.405
0.349876	108.841
0.318816	107.431
0.303286	106.867
0.270007	105.739
0.253368	104.893
0.220089	95.5861
0.210105	86.2794
0.180154	79.511
0.164624	77.2548
0.136892	73.8706
0.116925	70.4863
0.099176	67.9482
0.083646	65.41
0.072553	62.8718
0.06146	60.6157
0.051476	58.9235
0.040384	56.6674
0.031509	54.4112
0.027072	52.1551
0.022635	49.3349
0.019307	47.0787
