Adsorption isotherm of Nitrogen on Ox-BD-COF-SO3H-MIX
DOI: 10.1002/chem.202004727
Article source: Figure 4a
Adsorbate Nitrogen: InChIKey IJGRMHOSHXDMSA-UHFFFAOYSA-N
Kind: experiment
Temperature: 77 K
Tabular data in the source: 0
pressure (bar)	uptake ()
0.003901	22.876
0.008297	29.7145
0.026513	35.1853
0.040331	41.633
0.059892	46.0432
0.085017	49.6717
0.074249	45.3453
0.108795	52.6723
0.131826	56.7428
0.159044	59.9992
0.177887	64.0698
0.204358	68.5125
0.19359	64.8839
0.226252	72.5039
0.265823	96.1455
0.278385	101.763
0.303509	102.984
0.328006	103.766
0.355643	105.133
0.378883	106.647
0.404007	106.647
0.431016	108.259
0.45614	108.846
0.47938	110.311
0.504505	110.555
0.530257	110.995
0.554754	112.265
0.579878	112.509
0.605003	114.219
0.630127	114.463
0.657136	114.707
0.680376	116.417
0.7055	116.661
0.93162	136.037
0.763902	120.179
0.817542	123.028
0.865948	125.876
0.257597	85.9939
0.91043	134.016
0.85679	129.132
0.808384	125.469
0.753436	123.435
0.703721	121.4
0.682789	120.993
0.650082	119.772
0.631766	119.772
0.601675	117.33
0.572893	119.365
0.546727	117.737
0.52187	117.737
0.495705	116.516
0.481313	115.295
0.452531	113.261
0.421133	113.261
0.4002	112.447
0.381884	111.633
0.351794	111.633
0.312545	110.819
0.291613	107.563
0.268064	109.191
0.256289	104.307
0.237973	87.2148
0.223582	79.4825
0.193492	75.8198
0.176484	72.5641
0.159476	69.7153
0.143777	68.0875
0.11892	64.4248
0.104529	61.576
0.090137	59.1342
0.067897	57.9133
0.050889	54.6576
0.039114	52.2158
0.032573	50.181
0.028648	47.3323
0.020799	41.6348
