Adsorption isotherm of Nitrogen on MB-COF 100C H2O
DOI: 10.1002/chem.202004727
Article source: Figure S25b
Adsorbate Nitrogen: InChIKey IJGRMHOSHXDMSA-UHFFFAOYSA-N
Kind: experiment
Temperature: 77 K
Tabular data in the source: 0
pressure (bar)	uptake ()
0.015576	8.83688
0.042426	10.3207
0.067721	12.5785
0.094112	14.1039
0.12082	15.3799
0.147528	16.3872
0.174236	17.4617
0.200945	18.6706
0.227971	19.7738
0.254361	21.0882
0.280752	22.0648
0.307778	22.7671
0.333373	23.2204
0.361194	24.0666
0.387903	24.3117
0.415167	25.1344
0.439094	25.2754
0.465802	25.919
0.493782	26.6238
0.523034	26.9692
0.548153	27.8744
0.575815	28.627
0.603159	28.9724
0.628277	29.4862
0.657211	30.2618
0.681694	30.8931
0.70872	31.9196
0.763599	33.1872
0.816348	35.2583
0.869606	37.6759
0.919398	41.0445
0.97008	50.524
0.991065	58.4777
0.934481	43.9396
0.954841	47.6256
0.016239	13.3457
0.028455	14.8201
0.048815	15.9259
0.054923	16.6631
0.06714	17.0317
0.089536	18.5061
0.105824	19.2433
0.116004	19.2433
0.130256	20.3491
0.154688	21.4549
0.187264	22.1921
0.197444	22.1921
0.211696	23.6665
0.252417	25.5096
0.274813	25.8782
0.299245	26.2468
0.313497	27.7212
0.350145	26.984
0.378649	27.3526
0.394938	27.7212
0.415298	28.0898
0.445838	28.4584
0.48045	29.1956
0.50081	29.1956
0.523206	29.5642
0.545602	30.67
0.572071	31.4072
0.606683	31.4072
0.627043	32.513
0.651475	32.1444
0.682015	33.9874
0.706447	33.9874
0.75124	36.5676
0.800104	37.3048
0.859148	40.9908
0.903941	44.3082
0.922265	45.7826
0.948733	49.8372
0.971129	54.629
0.989453	62.3697
1.00371	66.7929
