Adsorption isotherm of Nitrogen on 50 wt% SPEEK@Ox-BD-COF-SO3H
DOI: 10.1002/chem.202004727
Article source: Figure 4a
Adsorbate Nitrogen: InChIKey IJGRMHOSHXDMSA-UHFFFAOYSA-N
Kind: experiment
Temperature: 77 K
Tabular data in the source: 0
pressure (bar)	uptake (cm3(STP)/g)
0.94052	22.9144
0.914354	20.8796
0.871181	14.7751
0.85679	16.403
0.81885	11.1124
0.808384	12.3333
0.775677	11.5194
0.724654	9.48456
0.711571	8.67063
0.68933	9.07759
0.660548	9.07759
0.634382	8.26366
0.6056	7.8567
0.576818	7.8567
0.553269	7.44973
0.52187	6.22884
0.507479	6.6358
0.481313	6.22884
0.444682	6.22884
0.422441	5.41491
0.394967	5.41491
0.379268	5.41491
0.353102	6.22884
0.321703	5.41491
0.292921	5.41491
0.274605	5.41491
0.244515	5.82187
0.220966	5.41491
0.197416	4.60098
0.171251	4.60098
0.160785	4.60098
0.134619	4.19402
0.11892	4.19402
0.100604	4.19402
0.083596	3.78705
0.062664	3.38008
0.043039	3.38008
0.033881	2.56616
0.015565	2.56616
0.753436	9.89152
