Adsorption isotherm of Nitrogen on Ox-DBD-COF-SO3H
DOI: 10.1002/chem.202004727
Article source: Figure S8a
Adsorbate Nitrogen: InChIKey IJGRMHOSHXDMSA-UHFFFAOYSA-N
Kind: experiment
Temperature: 77 K
Tabular data in the source: 0
pressure (bar)	uptake (cm3(STP)/g)
0.008572	28.5981
0.00244	15.0012
0.004484	41.2424
0.000397	51.2885
0.007779	63.4131
0.118149	116.638
0.139756	123.393
0.161071	131.484
0.18151	138.586
0.201949	146.813
0.219176	156.501
0.238739	175.523
0.248959	186.807
0.273485	192.578
0.3021	196.289
0.330714	198.962
0.359329	201.931
0.387943	204.529
0.416558	206.979
0.445172	209.428
0.473787	211.507
0.502401	213.66
0.531016	215.886
0.55963	218.336
0.588245	220.266
0.616859	222.419
0.658125	225.235
0.68674	228.047
0.708454	230.641
0.759932	234.593
0.810048	240.66
0.856764	247.937
0.904667	259.063
0.931035	270.027
0.937751	327.557
0.94797	281.7
0.647514	223.684
0.10466	111.988
0.093159	106.14
0.074757	103.216
0.060956	97.3684
0.042554	86.8421
0.031053	79.8246
0.021852	72.2222
0.008597	96.8771
0.017999	100.913
0.025882	108.287
0.039313	115.351
0.051927	122.755
0.064191	128.99
0.082041	133.794
0.097029	139.971
0.118149	146.196
0.13961	151.003
0.160779	157.985
0.181101	165.052
0.175378	157.985
0.197569	171.644
0.206037	179.03
0.21684	186.268
0.22341	196.568
0.234651	202.673
0.248375	210.987
0.251002	208.909
0.270565	215.515
0.295968	218.435
0.320904	219.44
0.345022	221.033
0.369548	221.899
0.394075	223.614
0.418193	224.601
0.44342	225.017
0.467655	225.046
0.939643	313.158
0.918366	298.392
0.910379	288.239
0.867249	272.401
0.862457	264.279
0.811341	253.314
0.76342	246.816
0.705914	240.318
0.681953	238.288
0.648408	236.257
0.634032	235.039
0.602084	233.415
0.571734	231.384
0.552566	230.572
0.522215	228.541
0.499852	226.511
0.485476	226.511
0.063767	124.578
