Adsorption isotherm of Nitrogen on Ox-BD-COF-SO3H-WAS
DOI: 10.1002/chem.202004727
Article source: Figure 4a
Adsorbate Nitrogen: InChIKey IJGRMHOSHXDMSA-UHFFFAOYSA-N
Kind: experiment
Temperature: 77 K
Tabular data in the source: 0
pressure (bar)	uptake ()
0.006204	37.3671
0.015207	48.4715
0.029234	60.9762
0.046433	68.652
0.071108	76.8512
0.09728	84.6395
0.127987	91.8036
0.157997	98.425
0.19045	106.892
0.217817	115.824
0.234417	121.057
0.253261	137.014
0.276815	173.078
0.317642	177.108
0.355329	179.795
0.390996	182.952
0.425991	184.924
0.466818	188.302
0.506075	189.93
0.544435	192.443
0.576738	194.164
0.617565	197.746
0.656996	198.506
0.692938	201.165
0.721203	203.119
0.765171	206.538
0.807882	210.446
0.934761	234.088
0.862913	214.041
0.915663	225.762
0.203539	110.9
0.17528	102.11
0.145138	96.2494
0.113111	88.045
0.08862	79.2546
0.049057	69.8781
0.064129	72.2222
0.024566	54.6413
0.906505	228.025
0.859407	219.071
0.808384	214.391
0.757361	210.118
0.702413	207.676
0.682789	206.455
0.652698	205.235
0.633074	205.642
0.599059	203.2
0.57551	203.2
0.551961	201.165
0.52187	201.572
0.506171	201.572
0.478697	197.909
0.45384	198.723
0.43029	197.095
0.401508	195.874
0.376651	194.246
0.350485	191.805
0.317778	191.805
0.296846	190.991
0.264139	189.363
0.254981	169.015
0.235357	140.934
0.222274	136.458
0.201341	127.911
0.175176	124.249
0.158168	118.144
0.137236	113.261
0.11892	108.784
0.101912	105.121
0.087521	101.459
0.067897	96.9819
0.052197	91.2844
0.040423	86.8078
0.02734	80.2964
0.015565	74.1919
0.009024	69.7153
