Adsorption isotherm of Nitrogen on MB-COF
DOI: 10.1002/chem.202004727
Article source: Figure S10a
Adsorbate Nitrogen: InChIKey IJGRMHOSHXDMSA-UHFFFAOYSA-N
Kind: experiment
Temperature: 77 K
Tabular data in the source: 0
pressure (bar)	uptake (cm3(STP)/g)
0.000506	15.76
0.253791	69.568
0.360688	75.5866
0.386726	77.2898
0.408105	78.0577
0.428377	78.9816
0.464912	80.3034
0.4903	81.5829
0.511679	82.5192
0.533058	83.4554
0.559783	84.9768
0.581162	85.7179
0.60986	87.1736
0.6453	88.8777
0.665343	89.8084
0.690731	91.2183
0.71211	92.2325
0.761566	94.7185
0.819007	98.396
0.861765	102.726
0.907846	110.187
0.929779	116.153
0.953963	124.226
0.972022	139.968
0.982743	152.794
0.993325	168.855
0.273644	71.5084
0.311916	72.4022
0.331052	73.743
0.226877	62.7085
0.205836	60.3807
0.184795	57.7943
0.163754	54.6907
0.146036	52.6216
0.12278	50.0352
0.102847	46.6729
0.090666	44.8624
0.072947	41.7587
0.064088	39.9483
0.057443	38.3964
0.046369	37.3619
0.035295	34.7755
0.018684	29.8614
0.009825	22.6195
0.274874	89.9223
0.301895	91.3648
0.325946	91.8641
0.349998	92.2871
0.379152	93.1439
0.402718	93.6149
0.426496	94.2454
0.45155	94.5471
0.475602	96.1569
0.499653	97.1971
0.522369	97.686
0.550429	98.435
0.573145	99.0436
0.601205	100.477
0.627395	101.127
0.650037	101.74
0.816456	110.751
0.865774	116.598
0.912438	126.279
0.933406	133.797
0.949347	141.107
0.959576	147.633
0.974109	158.769
0.981757	165.463
0.991377	178.906
1.00092	184.616
0.68202	103.315
0.705276	103.315
0.758431	107.194
0.253454	88.3137
0.226877	82.1064
0.199191	79.2613
0.177043	77.1922
0.160432	75.1231
0.140499	73.054
0.119458	71.2435
0.098417	67.6226
0.085129	65.0362
0.070732	62.4498
0.060766	61.1566
0.050799	59.3462
0.039725	56.5011
0.03308	54.1734
0.022006	52.8802
0.019792	50.8111
0.019792	49.0006
