Adsorption isotherm of Nitrogen on Ox-BD-COF-SO3H
DOI: 10.1002/chem.202004727
Article source: Figure 1d
Adsorbate Nitrogen: InChIKey IJGRMHOSHXDMSA-UHFFFAOYSA-N
Kind: experiment
Temperature: 77 K
Tabular data in the source: 0
pressure (bar)	uptake (cm3(STP)/g)
0.002417	39.2055
0.001145	18.1178
0.004794	65.2661
0.015476	85.5355
0.033957	101.21
0.056424	113.406
0.080161	124.973
0.104888	136.356
0.129615	144.434
0.151375	154.716
0.174689	161.011
0.200631	173.223
0.222588	184.092
0.246326	207.47
0.240391	192.17
0.258788	228.449
0.264129	249.453
0.275998	265.977
0.300329	267.96
0.324067	272.807
0.34919	274.79
0.370949	278.645
0.395676	279.563
0.416644	282.501
0.442163	284.704
0.4659	287.458
0.490232	289.11
0.513376	288.743
0.537114	293.517
0.560852	294.618
0.584589	297.372
0.610107	297.042
0.632065	300.677
0.655803	300.677
0.67776	302.77
0.703278	303.982
0.721082	307.838
0.762623	310.041
0.810098	313.896
0.857574	321.607
0.90505	332.073
0.927516	336.007
0.952525	347.495
0.972307	368.793
0.967361	357.409
0.989403	391.401
0.996044	429.992
0.993077	411.02
1.00178	451.559
1.00593	491.253
1.00297	474.179
1.0089	510.898
1.00617	532.135
0.989906	511.604
0.989906	495.903
0.988279	477.787
0.980146	466.918
0.980146	448.802
0.968761	430.686
0.963881	416.193
0.963881	407.739
0.959001	389.623
0.952495	373.923
0.941109	363.053
0.814238	328.029
0.762189	325.614
0.708512	318.367
0.69062	317.159
0.658089	317.159
0.635318	315.952
0.602787	312.328
0.573509	312.328
0.545857	312.328
0.521459	309.913
0.500314	307.498
0.46453	307.498
0.480795	307.498
0.451517	302.667
0.425493	305.082
0.399468	305.082
0.383202	300.251
0.352298	300.251
0.329526	297.836
0.300248	295.42
0.274223	294.213
0.261211	285.758
0.251452	261.604
0.240066	243.488
0.231933	230.203
0.215668	215.71
0.204282	206.048
0.188016	198.802
0.168498	193.971
0.148979	189.14
0.126207	177.063
0.111568	169.816
0.09205	161.362
0.072531	156.531
0.061145	149.285
0.051386	143.246
0.036747	136
0.030241	132.377
0.026988	125.13
0.023735	119.092
0.022108	115.469
0.929723	364.261
0.913458	353.391
0.864661	343.729
0.856529	335.275
