Adsorption isotherm of Nitrogen on MB-COF As-synthesized
DOI: 10.1002/chem.202004727
Article source: Figure S25b
Adsorbate Nitrogen: InChIKey IJGRMHOSHXDMSA-UHFFFAOYSA-N
Kind: experiment
Temperature: 77 K
Tabular data in the source: 0
pressure (bar)	uptake (cm3(STP)/g)
0.260482	69.559
0.281626	71.1468
0.306541	72.9911
0.32682	73.1194
0.351974	75.5389
0.370839	76.7761
0.394085	75.9421
0.416837	77.6999
0.437186	78.6731
0.459681	79.9516
0.485277	81.2507
0.505864	81.395
0.528121	81.9724
0.552286	84.6117
0.572635	84.2818
0.593408	86.5913
0.615241	86.7562
0.640042	87.746
0.662299	89.3956
0.685827	89.8905
0.70766	91.98
0.761077	94.4819
0.8093	97.7537
0.85816	101.933
0.907478	109.686
0.928746	114.998
0.949333	122.244
0.96955	138.747
0.985342	149.689
0.997742	167.422
0.226194	62.689
0.206556	59.6325
0.185937	58.1042
0.167281	56.0666
0.14568	56.0666
0.123097	53.5195
0.102478	49.9536
0.080876	45.3689
0.066148	42.8218
0.050438	39.2559
0.03571	37.7276
0.020982	31.6147
0.0092	29.0676
0.005272	22.9546
0.002326	15.8228
0.99991	188.005
0.989109	180.364
0.983218	170.175
0.973399	159.478
0.961617	150.818
0.951798	146.233
0.931179	135.535
0.913505	129.932
0.863429	117.706
0.807463	111.593
0.757387	107.517
0.705348	104.97
0.679819	103.952
0.650363	102.423
0.62778	101.404
0.599305	100.895
0.569849	101.914
0.552175	98.8574
0.521737	98.348
0.496209	97.8386
0.478535	95.8009
0.448097	97.3291
0.421586	97.3291
0.39704	94.7821
0.377402	93.2538
0.345	92.7444
0.322417	92.7444
0.296888	92.235
0.26645	92.235
0.25074	89.1785
0.22423	83.5749
0.198701	80.5185
0.181027	78.9902
0.158444	76.4431
0.135861	74.9149
0.118188	70.3302
0.099532	69.8208
0.091677	66.7643
0.072039	63.1984
0.059275	61.1607
0.042583	57.5948
0.029819	55.5571
0.018036	51.9912
