Adsorption isotherm of Nitrogen on Ox-DBD-COF-SO3H-WAS
DOI: 10.1002/chem.202004727
Article source: Figure S8a
Adsorbate Nitrogen: InChIKey IJGRMHOSHXDMSA-UHFFFAOYSA-N
Kind: experiment
Temperature: 77 K
Tabular data in the source: 0
pressure (bar)	uptake ()
0.002874	35.1454
0.00737	46.1615
0.014933	57.5024
0.028218	67.3753
0.040481	72.8963
0.052745	77.3565
0.067733	82.6393
0.08681	87.2582
0.105477	92.3044
0.248959	136.265
0.257134	162.727
0.273077	173.557
0.465611	187.258
0.493111	189.068
0.516709	189.553
0.539192	190.787
0.565762	192.107
0.590289	193.58
0.614816	194.489
0.641386	196.091
0.66455	197.246
0.689418	198.776
0.714966	200.739
0.763436	203.737
0.811029	207.61
0.860083	213.152
0.905659	221.963
0.933663	230.56
0.306569	178.996
0.327335	178.996
0.359283	181.027
0.396022	184.275
0.411996	185.088
0.429567	185.9
0.258648	145.289
0.225103	123.765
0.204337	116.455
0.186766	112.394
0.162805	106.303
0.143636	100.211
0.119676	96.5562
0.911177	226.725
0.864587	217.418
0.809123	212.06
0.755877	208.112
0.699303	205.292
0.685991	203.599
0.644947	203.035
0.634964	201.625
0.600576	200.779
0.573953	199.651
0.551767	198.241
0.51627	197.113
0.496302	196.831
0.477444	194.857
0.451931	193.165
0.42198	192.601
0.403122	191.755
0.379827	190.909
0.346548	188.652
0.316597	186.678
0.295521	186.114
0.275553	184.14
0.256695	168.629
0.241165	146.632
0.228963	137.889
0.203449	129.71
0.185701	123.788
0.159078	117.866
0.143548	113.635
0.118034	107.995
0.100285	102.919
0.085864	99.5343
0.072553	96.7141
0.058132	94.176
0.050367	91.0737
0.042602	86.5614
0.024853	81.7671
0.024853	77.5368
0.020416	75.2807
0.013761	72.4605
