Adsorption isotherm of Nitrogen on Ox-DBD-COF
DOI: 10.1002/chem.202004727
Article source: Figure S7
Adsorbate Nitrogen: InChIKey IJGRMHOSHXDMSA-UHFFFAOYSA-N
Kind: experiment
Temperature: 77 K
Tabular data in the source: 0
pressure (bar)	uptake ()
0.005345	80.298
0.040559	102.656
0.061273	113.652
0.081987	121.227
0.102701	129.291
0.123415	135.888
0.144129	141.997
0.164843	148.595
0.183486	155.436
0.206271	166.921
0.222842	179.057
0.239414	194.533
0.241485	202.474
0.329865	244.421
0.354983	249.309
0.392698	250.001
0.413412	252.933
0.434126	255.865
0.45484	257.82
0.496268	259.775
0.516982	260.997
0.537696	262.952
0.55841	264.418
0.579124	266.617
0.611641	271.555
0.641266	273.459
0.66106	273.54
0.68447	276.74
0.703409	278.682
0.721604	280.32
0.763323	286.257
0.806979	292.274
0.858061	300.287
0.909168	313.655
0.958191	335.036
0.972691	351.733
0.978905	365.58
0.299609	243.17
0.27139	238.79
0.253567	230.905
0.978362	402.607
0.981333	385.962
0.962025	358.805
0.938261	341.285
0.914497	330.773
0.86994	318.508
0.861029	315.004
0.814986	307.996
0.763003	301.864
0.709535	294.855
0.687256	293.979
0.659036	290.475
0.632302	290.475
0.604083	288.723
0.569922	284.343
0.55507	283.467
0.52388	282.591
0.506057	280.839
0.482293	278.211
0.454074	275.583
0.422884	273.831
0.39912	272.955
0.379812	272.955
0.351592	269.451
0.324858	266.823
0.295153	265.947
0.27139	260.69
0.250596	255.434
0.241685	233.533
0.229803	219.517
0.223862	210.757
0.204554	199.368
0.185246	184.476
0.162967	180.972
0.145144	170.46
0.119895	166.079
0.109499	159.071
0.093161	154.691
0.072368	146.807
0.051575	141.551
0.042663	134.542
0.033752	127.534
0.029296	122.278
0.020385	111.766
0.015929	105.633
