Adsorption isotherm of Nitrogen on BD-COF 12M HCl
DOI: 10.1002/chem.202004727
Article source: Figure 3b
Adsorbate Nitrogen: InChIKey IJGRMHOSHXDMSA-UHFFFAOYSA-N
Kind: experiment
Temperature: 77 K
Tabular data in the source: 0
pressure (bar)	uptake (cm3(STP)/g)
0.023316	264.589
0.04687	290.331
0.070728	319.345
0.09692	345.22
0.123206	367.386
0.148892	384.817
0.171724	395.885
0.187346	429.792
0.208376	445.453
0.234079	484.657
0.252538	542.554
0.277773	675.322
0.305111	681.082
0.330347	692.146
0.374929	704.24
0.399744	701.542
0.424979	703.816
0.441803	724.428
0.472296	717.608
0.504891	716.547
0.530127	722.609
0.556624	721.7
0.580598	727.156
0.607095	731.521
0.631489	736.323
0.656304	732.158
0.68196	740.251
0.706774	736.25
0.757245	750.497
0.807716	754.438
0.856084	756.62
0.912863	782.628
0.938099	793.844
0.963334	812.031
0.983312	848.898
1.00119	860.834
0.458231	723.705
0.352407	703.215
0.25922	588.471
0.260799	629.451
0.262379	658.137
0.219733	465.531
0.014405	244.24
0.008087	203.26
0.008087	178.672
0.008087	149.986
0.006507	125.398
0.004928	92.6145
0.004928	43.4387
0.004928	29.0957
0.004928	4.50779
0.246584	510.609
