Adsorption isotherm of Nitrogen on MB-COF 9M NaOH
DOI: 10.1002/chem.202004727
Article source: Figure S25b
Adsorbate Nitrogen: InChIKey IJGRMHOSHXDMSA-UHFFFAOYSA-N
Kind: experiment
Temperature: 77 K
Tabular data in the source: 0
pressure (bar)	uptake (cm3(STP)/g)
0.060726	51.4103
0.082983	55.3985
0.10524	58.3897
0.127497	62.2782
0.149754	64.9703
0.172011	67.6623
0.194268	70.2547
0.216525	72.847
0.238781	74.9408
0.261038	76.6358
0.282306	78.2644
0.305552	79.9261
0.327809	81.8205
0.350066	83.5155
0.372323	84.9114
0.39458	86.6064
0.416837	87.9026
0.438104	88.8997
0.459681	90.6445
0.484597	92.1124
0.505864	93.7852
0.528121	95.6796
0.550873	97.2085
0.572635	97.6738
0.594892	98.8702
0.61616	100.2
0.639406	101.363
0.661663	101.861
0.68392	104.288
0.768496	107.844
0.815236	109.838
0.915392	122.999
0.937649	127.586
0.958916	132.438
0.974929	142.118
0.991955	153.509
0.714931	106.32
0.864804	115.187
0.046157	45.5138
0.032018	42.3468
0.026363	38.5465
0.017879	32.2125
0.002326	23.345
1.00482	174.286
0.994018	164.609
0.971435	156.252
0.955725	146.135
0.933142	140.857
0.906632	135.579
0.855574	130.301
0.805499	127.661
0.757387	122.823
0.704366	122.823
0.673928	121.503
0.651345	121.064
0.628762	119.304
0.595378	118.424
0.569849	118.424
0.506027	117.105
0.481481	114.906
0.453006	114.906
0.422568	114.466
0.39704	114.466
0.377402	113.586
0.340091	110.507
0.31849	109.187
0.290015	109.187
0.270378	108.308
0.247795	107.428
0.215393	106.108
0.196737	104.789
0.180046	104.349
0.156481	101.71
0.143716	100.83
0.117206	97.7512
0.097568	95.112
0.086768	95.112
0.013127	74.4388
0.016073	80.1569
0.028837	82.7961
0.041601	87.1946
0.053384	89.3939
0.071058	92.033
0.522719	116.225
0.550212	120.184
