Adsorption isotherm of Nitrogen on Ox-DBD-COF-SO3H
DOI: 10.1002/chem.202004727
Article source: Figure S7
Adsorbate Nitrogen: InChIKey IJGRMHOSHXDMSA-UHFFFAOYSA-N
Kind: experiment
Temperature: 77 K
Tabular data in the source: 0
pressure (bar)	uptake (cm3(STP)/g)
0.005012	27.8843
0.000512	48.7358
0.009192	64.8514
0.025541	83.0469
0.066336	99.7783
0.08613	106.81
0.105923	113.489
0.129111	121.685
0.147351	126.929
0.169578	135.714
0.191081	145.255
0.209822	154.04
0.294651	196.569
0.313466	196.976
0.332923	199.594
0.355412	204.307
0.376126	206.017
0.396841	207.239
0.417555	209.194
0.438269	210.904
0.458983	212.126
0.479697	213.348
0.500411	214.081
0.521125	215.792
0.541839	217.746
0.562553	217.502
0.583267	219.457
0.603981	222.633
0.624695	224.1
0.645409	224.344
0.666123	226.299
0.69098	228.742
0.711694	229.964
0.771765	236.378
0.815264	241.449
0.858246	247.221
0.993405	352.873
0.911527	258.938
0.930835	272.079
0.948658	282.591
0.964995	297.483
0.973907	309.748
0.993215	332.525
0.99767	376.326
1.00213	387.714
1.00213	399.979
1.00213	412.243
1.00213	426.26
1.00064	440.276
1.00064	458.673
0.24317	177.468
0.250596	190.608
0.27139	193.236
1.00361	467.433
0.993215	449.036
0.982818	431.516
0.979848	413.119
0.969451	393.846
0.962025	374.574
0.957569	359.681
0.957569	344.789
0.942717	329.02
0.938261	316.756
0.923409	302.74
0.915982	290.475
0.872911	275.583
0.861029	263.318
0.813501	256.31
0.763003	250.178
0.712505	242.294
0.696167	240.542
0.660522	237.914
0.635273	237.914
0.608538	237.038
0.578834	234.41
0.556555	231.781
0.52388	232.657
0.494175	229.153
0.483778	228.277
0.457044	228.277
0.424369	226.525
0.400605	224.773
0.384268	223.021
0.351592	222.145
0.321888	222.145
0.301094	218.641
0.27139	216.013
0.253567	215.137
0.220892	194.112
0.21198	185.352
0.203069	177.468
0.186731	171.336
0.164453	162.575
0.145144	152.063
0.125836	146.807
0.106528	142.427
0.091676	135.418
0.079794	129.286
0.066427	127.534
0.057516	124.906
0.048604	120.526
0.042663	117.898
0.015929	97.7492
0.048604	95.9972
0.036722	90.741
0.017414	70.5924
0.009988	54.8239
0.00635	33.7992
0.000409	17.1547
0.032266	111.766
0.02484	109.138
