Adsorption isotherm of Nitrogen on DBD-COF As-synthesized
DOI: 10.1002/chem.202004727
Article source: Figure S25a
Adsorbate Nitrogen: InChIKey IJGRMHOSHXDMSA-UHFFFAOYSA-N
Kind: experiment
Temperature: 77 K
Tabular data in the source: 0
pressure (bar)	uptake ()
0.002678	102.497
0.021099	143.816
0.041194	193.744
0.063522	214.403
0.08585	233.685
0.108178	254.345
0.130506	268.118
0.152834	284.645
0.175162	299.796
0.19749	320.455
0.219818	342.492
0.242146	379.679
0.255542	462.317
0.27787	492.617
0.300198	496.749
0.322526	498.127
0.344854	512.244
0.367182	511.9
0.38951	510.522
0.411838	514.654
0.431933	522.574
0.46096	524.295
0.487753	525.673
0.510081	527.05
0.532409	535.314
0.563669	535.314
0.583764	543.233
0.61279	544.955
0.648515	549.087
0.666377	556.432
0.690938	555.284
0.715499	564.237
0.748247	574.796
0.766853	572.501
0.811509	577.666
0.862863	588.569
0.889657	636.201
0.910497	633.331
0.933569	649.4
1.0075	1014.26
1.00069	951.262
1.00069	893.516
0.992185	825.27
0.983674	757.024
0.97176	704.527
0.958143	678.279
0.003268	48.318
1.00921	1082.5
0.995589	1077.25
0.985377	1051.01
0.983674	1003.76
0.976866	972.261
0.973462	930.263
0.970058	909.265
0.964951	867.267
0.956441	825.27
0.954739	804.271
0.942824	772.773
0.924101	736.025
0.937718	725.526
0.915591	699.278
0.878145	683.529
0.864528	657.28
0.813465	625.782
0.7607	620.533
0.711339	610.033
0.685808	599.534
0.663681	599.534
0.631341	594.284
0.602405	589.034
0.575172	589.034
0.54964	589.034
0.522407	583.785
0.507088	583.785
0.483259	578.535
0.447515	578.535
0.425387	583.785
0.404962	578.535
0.377729	562.786
0.352197	562.786
0.316453	552.287
0.299432	562.786
0.275603	552.287
0.250072	547.037
0.239859	526.038
0.238157	505.04
0.236455	478.791
0.231349	442.044
0.226242	426.295
0.205817	405.296
0.188796	389.547
0.164967	368.548
0.149648	342.3
0.129223	342.3
0.108798	321.301
0.100287	310.802
0.084969	300.302
0.071352	295.053
0.062841	279.304
0.056033	274.054
0.04582	263.555
0.03731	263.555
0.021991	253.055
0.015183	221.557
