Adsorption isotherm of Nitrogen on BD-COF 9M NaOH
DOI: 10.1002/chem.202004727
Article source: Figure 3b
Adsorbate Nitrogen: InChIKey IJGRMHOSHXDMSA-UHFFFAOYSA-N
Kind: experiment
Temperature: 77 K
Tabular data in the source: 0
pressure (bar)	uptake (cm3(STP)/g)
0.160008	311.501
0.186505	330.531
0.210058	347.625
0.233611	364.003
0.307214	505.131
0.329295	506.986
0.353479	512.168
0.383972	514.471
0.408347	514.052
0.431288	525.219
0.484818	527.383
0.509097	535.412
0.534333	541.596
0.558306	539.805
0.583542	543.644
0.605833	545.755
0.633872	541.852
0.658407	549.785
0.686646	556.256
0.710279	552.515
0.759348	558.998
0.809819	565.907
0.868101	572.487
0.911533	585.528
0.933646	591.293
0.95102	594.176
0.968394	608.591
0.981029	620.123
0.992085	643.187
1.0063	651.836
0.458231	519.22
0.271855	507.688
0.267117	484.624
0.263958	470.21
0.260799	447.146
0.260799	424.082
0.256061	389.487
0.148658	302.998
0.129705	288.583
0.110751	285.701
0.091798	265.52
0.076003	262.637
0.064947	248.222
0.047573	230.924
0.031779	216.51
0.023881	199.212
0.020722	181.914
0.014405	153.085
0.009666	132.904
0.003348	104.075
0.001769	83.8939
0.001769	52.1814
0.00139	26.2349
