Adsorption isotherm of Nitrogen on DBD-COF 12M HCl
DOI: 10.1002/chem.202004727
Article source: Figure S25a
Adsorbate Nitrogen: InChIKey IJGRMHOSHXDMSA-UHFFFAOYSA-N
Kind: experiment
Temperature: 77 K
Tabular data in the source: 0
pressure (bar)	uptake ()
0.000485	64.4785
0.0144	167.201
0.037845	195.719
0.065755	222.327
0.092548	241.922
0.117747	262.609
0.146135	281.709
0.172929	303.287
0.199722	315.043
0.226197	355.332
0.244937	416.481
0.271172	462.207
0.297966	473.042
0.324759	472.469
0.351553	479.208
0.378793	482.649
0.40514	479.924
0.431933	489.531
0.463193	494.262
0.494452	493.784
0.521245	498.922
0.548039	506.09
0.574833	503.223
0.602073	511.897
0.627973	514.478
0.655213	514.693
0.682453	520.155
0.7088	517.56
0.734254	536.844
0.762388	528.672
0.794093	543.726
0.819101	538.565
0.848574	547.167
0.873283	556.63
0.900821	568.1
0.927615	577.18
0.954408	595.819
0.981202	627.457
0.996831	642.655
0.010076	125.267
0.000136	102.315
0.003268	26.9001
