Adsorption isotherm of Carbon Dioxide on M'MOF-20a
DOI: 10.1021/Ic2021275
Adsorbate Carbon Dioxide: InChIKey CURLTUGMZLYLDI-UHFFFAOYSA-N
Temperature: 295 K
Tabular data in the source: 0
pressure (bar)	uptake (cm3(STP)/g)
0.0389401	0.710737
0.0898532	1.57966
0.122796	2.13265
0.185637	2.84515
0.251466	3.55787
0.314318	4.34902
0.347238	4.74471
0.383113	4.90466
0.416044	5.37899
0.445976	5.77446
0.481873	6.09171
0.517769	6.40897
0.562618	6.64823
0.589551	6.96482
0.62547	7.43938
0.715167	7.91791
0.780996	8.63063
0.82882	8.79146
0.891639	9.34665
0.951471	9.90162
1.01428	10.3782
1.04719	10.6952
