Adsorption isotherm of Carbon Dioxide on M'MOF-20a
DOI: 10.1021/Ic2021275
Adsorbate Carbon Dioxide: InChIKey CURLTUGMZLYLDI-UHFFFAOYSA-N
Temperature: 273 K
Tabular data in the source: 0
pressure (bar)	uptake (cm3(STP)/g)
0.0358514	1.31801
0.0657276	2.51589
0.0985913	3.59466
0.131455	4.31506
0.158344	5.27371
0.191207	6.11356
0.224071	6.71452
0.253947	7.31513
0.286811	7.91608
0.316687	8.5167
0.346563	9.11731
0.379427	9.71826
0.445155	10.6813
0.504907	11.6436
0.597523	12.4901
0.660263	13.3333
0.725991	14.0574
0.788731	14.7812
0.851471	15.266
0.911223	15.87
1.00683	16.9558
1.04268	17.1987
