Adsorption isotherm of Acetylene on M'MOF-20a
DOI: 10.1021/Ic2021275
Adsorbate Acetylene: InChIKey HSFWRNGVRCDJHI-UHFFFAOYSA-N
Temperature: 295 K
Tabular data in the source: 0
pressure (bar)	uptake (cm3(STP)/g)
0.00903008	0.472576
0.0151061	1.18089
0.0211709	1.81055
0.0332222	2.5193
0.063356	4.33051
0.0964551	5.98464
0.123512	7.16641
0.159531	8.34884
0.19253	9.2951
0.222529	10.1625
0.252518	10.9512
0.282495	11.6613
0.318447	12.3718
0.348402	12.9246
0.384355	13.6351
0.414287	14.0306
0.444242	14.5833
0.477173	15.0577
0.504129	15.5316
0.537049	15.9272
0.572946	16.2445
0.602901	16.7973
0.629834	17.1139
0.665753	17.5884
0.725584	18.1434
0.791413	18.8561
0.821334	19.1729
0.884153	19.7281
0.943985	20.2831
1.00679	20.7596
1.0397	21.0767
