Adsorption isotherm of Methane on M'MOF-20a
DOI: 10.1021/Ic2021275
Adsorbate Methane: InChIKey VNWKTOKETHGBQD-UHFFFAOYSA-N
Temperature: 273 K
Tabular data in the source: 0
pressure (bar)	uptake (cm3(STP)/g)
0.0717028	0.366392
0.101579	0.489192
0.131455	0.731446
0.173282	0.855585
0.194195	1.09683
0.227059	1.21997
0.256935	1.46222
0.289799	1.70481
0.322663	1.82795
0.349551	2.06987
0.37644	2.19233
0.412291	2.3158
0.445155	2.55839
0.475031	2.80064
0.50192	2.80365
0.534783	3.04624
0.570635	3.16971
0.600511	3.41197
0.636362	3.65489
0.663251	3.6579
0.690139	3.89982
0.723003	4.02295
0.752879	4.26521
0.785743	4.26889
0.815619	4.6306
0.842508	4.87252
0.878359	4.99598
0.905248	5.11845
0.935124	5.3607
0.973963	5.36505
1.00683	5.36873
1.03073	5.61032
