Adsorption isotherm of Acetylene on M'MOF-20a
DOI: 10.1021/Ic2021275
Adsorbate Acetylene: InChIKey HSFWRNGVRCDJHI-UHFFFAOYSA-N
Temperature: 273 K
Tabular data in the source: 0
pressure (bar)	uptake (cm3(STP)/g)
0.00896285	0.00896285
0.0179257	4.66071
0.0268885	5.37844
0.038839	6.33541
0.0657276	9.20531
0.0985913	11.837
0.12548	13.3929
0.158344	15.0689
0.191207	16.3866
0.221084	17.465
0.253947	18.5438
0.289799	19.5034
0.322663	20.4628
0.346563	21.0627
0.382415	21.7834
0.412291	22.3841
0.442167	23.1041
0.469056	23.585
0.507895	24.0671
0.537771	24.5483
0.561672	25.0288
0.600511	25.6304
0.630387	25.9921
0.663251	26.4736
0.696115	26.8356
0.725991	27.3168
0.755867	27.4396
0.785743	27.8013
0.818607	28.2828
0.836533	28.4043
0.884334	29.0069
0.911223	29.3683
0.938111	29.4907
0.970975	29.8528
1.00683	29.9762
1.03073	30.5762
