Adsorption isotherm of Oxygen on M'MOF-20a
DOI: 10.1021/Ic2021275
Adsorbate Oxygen: InChIKey MYMOFIZGZYHOMD-UHFFFAOYSA-N
Temperature: 77 K
Tabular data in the source: 0
pressure (bar)	uptake (cm3(STP)/g)
0	0
0.00220198	31.9983
0.00440396	35.0735
0.00770693	37.2248
0.0132119	37.3743
0.0176158	38.1401
0.0286257	38.7469
0.0352317	39.0494
0.0396356	39.3537
0.0440396	39.5041
0.0528475	40.1126
0.0644079	40.2574
0.0770693	40.7091
0.0847762	40.7031
0.0979881	40.8466
0.112301	41.4508
0.121109	41.9055
0.129917	42.0524
0.138725	42.0456
0.150285	42.0365
0.161845	42.3352
0.170653	42.636
0.183865	43.0872
0.191022	43.2355
