Adsorption isotherm of Methane on M'MOF-20a
DOI: 10.1021/Ic2021275
Adsorbate Methane: InChIKey VNWKTOKETHGBQD-UHFFFAOYSA-N
Temperature: 295 K
Tabular data in the source: 0
pressure (bar)	uptake (cm3(STP)/g)
0.0298877	0.0808557
0.0926618	0.32144
0.125515	0.245211
0.188278	0.407142
0.212201	0.56621
0.254051	0.726599
0.280951	0.807235
0.313837	0.966963
0.343725	1.04782
0.370603	0.971149
0.412441	1.05289
0.433366	1.13308
0.472227	1.29325
0.502115	1.37411
0.532025	1.61227
0.564878	1.53604
0.603729	1.61755
0.630617	1.61954
0.660516	1.77904
0.696379	1.86034
0.726267	1.9412
0.747203	2.10004
0.765129	2.10137
0.81894	2.34129
0.914578	2.5843
0.944466	2.66515
0.971388	2.90309
1.04014	3.14412
