Adsorption isotherm of Nitrogen on M'MOF-20a
DOI: 10.1021/Ic2021275
Adsorbate Nitrogen: InChIKey IJGRMHOSHXDMSA-UHFFFAOYSA-N
Temperature: 77 K
Tabular data in the source: 0
pressure (bar)	uptake (cm3(STP)/g)
5.55e-17	10
0.0141515	11.844
0.0537758	13.3765
0.169818	13.8204
0.198122	13.9699
0.251897	13.9618
0.27454	13.9583
0.300013	13.9544
0.399073	14.0933
0.475492	14.2355
0.631159	14.2119
0.707577	14.2003
0.789656	14.0339
0.866074	14.0223
0.936832	14.1654
