Adsorption isotherm of Nitrogen on Al-BDCsyn/Al-BDCevac
DOI: 10.1021/Jp411536d
Adsorbate Nitrogen: InChIKey IJGRMHOSHXDMSA-UHFFFAOYSA-N
Temperature: 77 K
Tabular data in the source: 0
pressure (bar)	uptake (cm3(STP)/g)
-0.000424244	123.787
0.00212123	1.97301
0.00975766	238.349
0.0199395	245.637
0.0301214	249.289
0.0403032	251.123
0.0479397	252.954
0.10394	258.495
0.147212	262.199
0.195577	267.729
0.246486	267.809
0.292304	271.516
0.343214	273.414
0.391578	275.308
0.437396	279.015
0.488305	280.913
0.53667	282.807
0.585033	284.7
0.633397	286.594
0.681761	290.306
0.730124	294.017
0.778489	297.729
0.826853	306.896
0.877762	321.52
0.893035	328.817
0.903216	336.106
0.926126	350.687
0.931216	363.422
0.949035	390.723
0.964307	445.292
