Adsorption isotherm of Nitrogen on Al-BDC (micro)
DOI: 10.1021/Jp411536d
Adsorbate Nitrogen: InChIKey IJGRMHOSHXDMSA-UHFFFAOYSA-N
Temperature: 77 K
Tabular data in the source: 0
pressure (bar)	uptake (cm3(STP)/g)
-0.000424244	-0.000436681
0.00212123	120.155
0.00466669	176.522
0.00721216	316.526
0.0123031	323.807
0.022485	331.096
0.0301214	334.744
0.0377577	338.392
0.0504851	342.048
0.142122	354.919
0.203213	360.468
0.243941	364.168
0.274486	367.852
0.292304	369.698
0.343214	371.596
0.391578	375.308
0.439941	379.019
0.488305	382.731
0.534124	384.621
0.585033	390.155
0.630852	393.863
0.681761	397.578
0.727579	403.104
0.775943	410.453
0.824308	417.801
0.872671	437.876
0.893035	446.999
0.903216	456.106
0.921035	476.133
0.931216	496.149
0.949035	557.995
