Adsorption isotherm of Nitrogen on Al-BDCmeso
DOI: 10.1021/Jp411536d
Adsorbate Nitrogen: InChIKey IJGRMHOSHXDMSA-UHFFFAOYSA-N
Temperature: 77 K
Tabular data in the source: 0
pressure (bar)	uptake (cm3(STP)/g)
-0.000424244	12.8781
0.00212123	36.5185
0.00466669	80.1588
0.00721216	91.0719
0.0123031	101.989
0.0250304	109.281
0.0275759	116.558
0.0377577	122.029
0.0504851	129.321
0.116667	154.879
0.170122	167.69
0.208304	176.84
0.243941	182.35
0.292304	187.88
0.338123	195.224
0.389033	204.395
0.43485	209.921
0.48576	215.455
0.534124	219.166
0.585033	226.518
0.630852	232.044
0.67667	237.57
0.725034	244.919
0.773398	252.267
0.824308	266.892
0.872671	283.331
0.89558	296.094
0.905762	303.382
0.921035	319.77
0.928671	336.145
0.954126	385.276
0.956671	472.553
0.964307	516.201
