Adsorption isotherm of Nitrogen on AlCl3(2.5%)/MIL-100(Fe)
DOI: 10.1016/j.cej.2014.06.099
Adsorbate Nitrogen: InChIKey IJGRMHOSHXDMSA-UHFFFAOYSA-N
Temperature: 77 K
Tabular data in the source: 0
pressure (bar)	uptake (cm3(STP)/g)
0.0427401	342.177
0.0515243	362.777
0.0868136	414.249
0.107445	434.824
0.130999	463.64
0.14873	471.849
0.169433	477.991
0.190167	477.947
0.207919	482.033
0.228642	484.051
0.246414	484.013
0.264177	486.037
0.28491	485.993
0.302662	490.079
0.323385	492.097
0.338195	492.066
0.358929	492.022
0.376701	491.984
0.400387	493.996
0.418148	496.02
0.438882	495.976
0.459626	493.87
0.474426	495.9
0.49516	495.856
0.512922	497.88
0.533645	499.898
0.557351	497.786
0.575114	499.81
0.595847	499.766
0.613609	501.791
0.634342	501.747
0.652114	501.709
0.672838	503.727
0.69061	503.689
0.711354	501.583
0.732078	503.601
0.749849	503.563
0.770583	503.519
0.788366	501.42
0.812052	503.431
0.823889	505.468
0.847585	505.418
0.865357	505.38
0.88609	505.336
0.906825	505.292
0.921634	505.261
0.942369	505.217
0.963092	507.234
