Adsorption isotherm of Nitrogen on AlCl3(5.0%)/MIL-100(Fe)
DOI: 10.1016/j.cej.2014.06.099
Adsorbate Nitrogen: InChIKey IJGRMHOSHXDMSA-UHFFFAOYSA-N
Temperature: 77 K
Tabular data in the source: 0
pressure (bar)	uptake (cm3(STP)/g)
0.00466181	255.66
0.0104535	282.452
0.0133442	296.879
0.0162655	305.12
0.0191867	313.361
0.0250598	323.658
0.0250802	319.534
0.033905	331.887
0.0368161	342.19
0.0485826	358.66
0.0662018	389.55
0.0868339	410.125
0.107466	430.7
0.122143	457.473
0.151722	465.657
0.169485	467.682
0.190208	469.699
0.204998	473.792
0.22276	475.816
0.243493	475.772
0.264207	479.852
0.281979	479.814
0.302702	481.832
0.320474	481.794
0.338236	483.818
0.361921	485.83
0.376731	485.798
0.397465	485.754
0.4182	485.71
0.435961	487.735
0.459657	487.684
0.474456	489.715
0.498153	489.664
0.515925	489.627
0.533697	489.589
0.557382	491.601
0.575153	491.563
0.589963	491.531
0.61366	491.481
0.634383	493.499
0.652155	493.461
0.672889	493.417
0.693613	495.435
0.711385	495.397
0.729167	493.298
0.74989	495.316
0.767662	495.278
0.788396	495.234
0.80913	495.19
0.826902	495.152
0.844674	495.115
0.868359	497.126
0.889093	497.082
0.906865	497.044
