Adsorption isotherm of Nitrogen on MIL-100(Fe)
DOI: 10.1016/j.cej.2014.06.099
Adsorbate Nitrogen: InChIKey IJGRMHOSHXDMSA-UHFFFAOYSA-N
Temperature: 77 K
Tabular data in the source: 0
pressure (bar)	uptake (cm3(STP)/g)
0.00739986	301.015
0.0103211	309.256
0.0105044	272.143
0.0162146	315.43
0.0191256	325.733
0.0249682	342.215
0.0338135	350.444
0.048491	377.217
0.0690519	412.225
0.0867322	430.744
0.107385	447.195
0.122062	473.968
0.145667	492.474
0.172304	496.542
0.19598	500.615
0.210779	502.645
0.225579	504.676
0.246303	506.694
0.267026	508.712
0.28774	512.791
0.305512	512.754
0.320311	514.784
0.344007	514.734
0.361779	514.696
0.376579	516.727
0.400264	518.738
0.418036	518.7
0.438771	518.656
0.456543	518.619
0.474304	520.643
0.495027	522.661
0.515761	522.617
0.536496	522.573
0.554257	524.597
0.574991	524.553
0.595724	524.509
0.613496	524.471
0.631259	526.495
0.649031	526.458
0.669764	526.414
0.690488	528.431
0.711222	528.387
0.728994	528.35
0.746766	528.312
0.767489	530.33
0.788223	530.286
0.805995	530.248
0.829691	530.198
0.850414	532.216
0.865224	532.184
0.885958	532.14
0.90371	536.226
0.921482	536.189
0.942205	538.207
0.96294	538.163
