Adsorption isotherm of Nitrogen on AlCl3(1.2%)/MIL-100(Fe)
DOI: 10.1016/j.cej.2014.06.099
Adsorbate Nitrogen: InChIKey IJGRMHOSHXDMSA-UHFFFAOYSA-N
Temperature: 77 K
Tabular data in the source: 0
pressure (bar)	uptake (cm3(STP)/g)
0.0309532	329.831
0.0485419	366.907
0.0661408	401.921
0.0956385	426.601
0.104433	445.139
0.125044	469.838
0.148669	484.221
0.172345	488.294
0.190096	492.38
0.204896	494.411
0.22562	496.428
0.246353	496.384
0.264115	498.409
0.281877	500.433
0.3026	502.451
0.323334	502.407
0.341107	502.369
0.36183	504.387
0.379602	504.349
0.397374	504.311
0.418098	506.329
0.438821	508.347
0.459555	508.303
0.477337	506.203
0.495089	510.289
0.515823	510.245
0.536557	510.201
0.554318	512.226
0.575052	512.182
0.592824	512.144
0.613548	514.162
0.634302	509.994
0.652064	512.018
0.672787	514.036
0.690559	513.998
0.711283	516.016
0.726093	515.985
0.746837	513.879
0.770533	513.829
0.788294	515.853
0.809018	517.871
0.82679	517.833
0.850496	515.721
0.868268	515.683
0.88603	517.707
0.906763	517.663
0.924526	519.687
0.945259	519.643
0.96301	523.729
