Adsorption isotherm of Nitrogen on MIL-101
DOI: 10.1039/c4ta04878d
Article source: Figure 1 4- MIL101
Adsorbate Nitrogen: InChIKey IJGRMHOSHXDMSA-UHFFFAOYSA-N
Kind: experiment
Temperature: 77 K
Tabular data in the source: 0
pressure (bar)	uptake (cm3(STP)/g)
0.000111	0.22
0.003171	117.3
0.003171	117.42
0.003405	140.02
0.003526	138.75
0.003557	241.55
0.003992	160.35
0.004124	217.85
0.004134	222.38
0.004144	260.57
0.004347	189.91
0.004357	187.97
0.00458	171.87
0.004924	180.46
0.005765	270.03
0.006465	289.16
0.006475	308.08
0.007052	317.65
0.007164	307.28
0.007295	326.89
0.007528	355.04
0.00764	339.5
0.007873	348.52
0.00916	369.07
0.013912	381.9
0.031076	460.72
0.061666	537.69
0.084596	579.88
0.099663	610.65
0.119361	649.03
0.135583	707.42
0.141612	727.42
0.159445	741.02
0.181797	762.33
0.201951	775.51
0.204727	781.04
0.254316	885.75
0.266698	883.91
0.303408	891.97
0.30815	892.08
0.354931	898.29
0.364071	897.32
0.405401	902.77
0.405523	902.77
0.456581	905.19
0.506129	907.48
0.506595	907.49
0.558919	908.93
0.6072	911.12
0.65768	911.58
0.660923	911.36
0.709316	911.49
0.758519	912.38
0.761295	912.38
0.808766	914.03
0.810154	913.97
0.834351	915.02
0.834584	914.7
0.860746	915.69
0.861445	915.69
0.885753	916.46
0.886097	916.45
0.908794	917.88
0.912148	917.45
0.938898	918.87
0.95893	923.99
0.96356	919.97
0.984281	937.59
0.986946	929.22
0.993552	950.64
0.994708	942.35
0.995974	936.07
1.00339	948.14
1.00629	966.95
