Adsorption isotherm of Nitrogen on MIL-101-NH2
DOI: 10.1039/c4ta04878d
Article source: Figure 1 4- MIL101 NH2
Adsorbate Nitrogen: InChIKey IJGRMHOSHXDMSA-UHFFFAOYSA-N
Kind: experiment
Temperature: 77 K
Tabular data in the source: 0
pressure (bar)	uptake (cm3(STP)/g)
0.000983	148.77
0.013628	241.04
0.029384	273.64
0.062051	309.94
0.085437	332
0.100261	347.33
0.116716	369.39
0.136059	396.23
0.145432	403.08
0.159101	411.12
0.180409	420.25
0.199276	427.75
0.207615	439.82
0.254518	480.9
0.261469	479.82
0.3028	487.1
0.354323	491.89
0.357566	491.67
0.404449	494.5
0.455628	496.14
0.456206	496.16
0.506331	497.12
0.506453	497.12
0.557966	498.65
0.607869	499.3
0.658582	499.96
0.709174	499.21
0.758833	497.91
0.764396	498.13
0.809779	498.13
0.82969	498.35
0.833043	498.89
0.860482	498.14
0.860604	498.14
0.886077	499.33
0.88631	499.39
0.910385	501.16
0.910506	501.18
0.936669	502.82
0.936902	502.81
0.955657	501.73
0.964796	501.41
0.98112	502.17
0.992701	507.28
1.00675	515.39
1.00704	515.47
