Adsorption isotherm of Nitrogen on MIL-101-DETA
DOI: 10.1039/c4ta04878d
Article source: Figure 1 4- MIL101 DETA
Adsorbate Nitrogen: InChIKey IJGRMHOSHXDMSA-UHFFFAOYSA-N
Kind: experiment
Temperature: 77 K
Tabular data in the source: 0
pressure (bar)	uptake (cm3(STP)/g)
0.000922	5.83
0.001044	13.37
0.001733	55.77
0.001844	45.66
0.002077	35.98
0.002077	35.89
0.002422	71.53
0.004154	89.03
0.006242	98.49
0.008086	106.54
0.011217	114.48
0.012828	125.24
0.018958	135.03
0.03134	147.32
0.061079	166.47
0.086775	175.62
0.100545	182.04
0.120678	186.08
0.138724	190.76
0.146131	191.96
0.160479	197.73
0.179112	203.29
0.196581	208.56
0.202488	209.39
0.25468	214.43
0.265208	215.3
0.298767	217.5
0.305941	217.07
0.353847	219.75
0.355357	219.82
0.405107	222.35
0.406617	221.48
0.454868	223.14
0.456955	223.58
0.50475	224.37
0.50625	226.33
0.555899	224.62
0.557166	224.65
0.606927	224.65
0.608669	224.65
0.657153	225.12
0.658309	225.13
0.708302	226.35
0.709457	226.37
0.757019	226.82
0.765581	228.45
0.808857	228.15
0.810711	228.22
0.830845	227.84
0.833976	228.93
0.85955	226.66
0.861394	228.19
0.885702	227.33
0.887202	228.75
0.911732	228.98
0.911854	228.99
0.934419	229.54
0.935686	230.3
0.961493	231.73
0.962425	231.84
0.988223	234.79
0.988456	234.81
1.00523	244.04
1.00581	246.87
