Adsorption isotherm of Nitrogen on MIL-101-ED
DOI: 10.1039/c4ta04878d
Article source: Figure 1 4- MIL101 ED
Adsorbate Nitrogen: InChIKey IJGRMHOSHXDMSA-UHFFFAOYSA-N
Kind: experiment
Temperature: 77 K
Tabular data in the source: 0
pressure (bar)	uptake (cm3(STP)/g)
0.006971	98.71
0.007123	126.66
0.007123	91.45
0.007265	60.85
0.007265	60.75
0.007265	60.59
0.007275	60.91
0.007407	74.92
0.007417	71.45
0.007711	12.55
0.007843	144.46
0.007853	151.88
0.007863	18.03
0.008005	45.29
0.008288	78.85
0.008299	78.32
0.00844	33.65
0.008572	53.8
0.008734	80.65
0.028817	187.43
0.059032	215.37
0.084161	235.27
0.101649	243.42
0.120638	250.71
0.143101	263.1
0.16058	270.6
0.178758	283.11
0.200765	291.26
0.255765	298.87
0.265725	301.26
0.300348	306.59
0.304289	307.02
0.350139	311.92
0.353381	312.02
0.399241	315.61
0.405148	315.29
0.45425	320.93
0.456682	323.33
0.50624	318.69
0.50775	318.66
0.557419	319.86
0.557541	319.85
0.608376	319.56
0.609298	319.42
0.658633	338.77
0.659332	320.29
0.708657	321.48
0.709234	321.95
0.758337	322.46
0.764477	337.25
0.806395	323.01
0.808705	323.39
0.826538	323.22
0.836499	338.23
0.857807	326.27
0.861627	334.2
0.88479	327.35
0.886756	337.36
0.908409	340.98
0.908764	341.27
0.934703	340.18
0.935858	333.77
0.956812	340.94
0.959831	332.57
0.982518	345.94
0.984028	338.01
0.999774	348.01
1.00278	351.04
