Adsorption isotherm of Nitrogen on PI-COF-m20
DOI: 10.1038/s41598-017-00738-z
Article source: Figure 3b
Adsorbate Nitrogen: InChIKey IJGRMHOSHXDMSA-UHFFFAOYSA-N
Kind: experiment
Temperature: 77 K
Tabular data in the source: 0
pressure (bar)	uptake (cm3(STP)/g)
0.002112	76.797
0.157198	147.913
0.213197	151.336
0.262198	154.746
0.311198	158.156
0.3602	163.779
0.416199	166.096
0.465198	168.399
0.514198	171.809
0.563198	175.219
0.615696	176.422
0.668197	180.945
0.717196	183.249
0.766196	186.659
0.815196	190.069
0.871196	193.492
0.912978	196.705
0.920352	199.515
0.966057	205.193
0.971957	208.933
1.0044	222.976
1.01325	223.925
0.856955	191.941
0.805354	187.184
0.750807	184.287
0.697735	183.257
0.652032	179.444
0.603382	176.558
0.545885	172.723
0.500184	170.775
0.454481	167.894
0.401408	164.999
0.349809	162.107
0.298208	157.351
0.248084	154.462
0.193536	151.565
0.146358	146.817
0.106551	143.015
0.049043	127.061
0.012169	107.415
0.000337	68.2388
