Adsorption isotherm of Nitrogen on PI-COF-m60
DOI: 10.1038/s41598-017-00738-z
Article source: Figure 3b
Adsorbate Nitrogen: InChIKey IJGRMHOSHXDMSA-UHFFFAOYSA-N
Kind: experiment
Temperature: 77 K
Tabular data in the source: 0
pressure (bar)	uptake (cm3(STP)/g)
0.003079	17.0494
0.055579	20.4659
0.104579	23.507
0.148909	23.5886
0.202576	27.376
0.251574	28.2039
0.307568	25.356
0.356569	29.8726
0.412563	27.7624
0.472059	27.8719
0.524554	25.7553
0.566551	25.8326
0.615548	25.9227
0.675046	28.2454
0.78354	28.4451
0.874538	32.3012
0.968842	39.2565
0.931983	34.5274
1.01161	54.2513
0.836157	29.6898
0.772766	28.6409
0.731488	27.6327
0.88333	28.8444
0.663676	27.5079
0.604707	25.5349
0.559009	26.3831
0.513308	25.3667
0.482351	25.3098
0.420433	23.3313
0.357044	24.1469
0.293654	23.098
0.256799	23.0302
0.203729	22.9325
0.158029	22.8485
0.096112	20.87
0.048938	19.8509
0.722643	27.6164
0.825838	29.6708
0.934929	31.7361
0.964421	40.1807
1.01751	55.1945
0.010607	17.9159
