Adsorption isotherm of Nitrogen on PI-COF-m
DOI: 10.1038/s41598-017-00738-z
Article source: Figure 3b
Adsorbate Nitrogen: InChIKey IJGRMHOSHXDMSA-UHFFFAOYSA-N
Kind: experiment
Temperature: 77 K
Tabular data in the source: 0
pressure (bar)	uptake (cm3(STP)/g)
0.048793	238.087
0.101314	262.898
0.15384	292.136
0.216849	305.715
0.258853	312.248
0.311353	316.402
0.360354	319.812
0.461861	334.016
0.514359	335.588
0.563359	338.998
0.619359	342.421
0.668358	344.724
0.717355	344.815
0.762859	352.276
0.815357	353.848
1.01138	393.678
0.871858	355.734
0.90995	365.127
0.967693	369.895
0.413606	326.147
0.451694	331.655
0.400092	325.345
0.343576	319.803
0.299348	316.614
0.247745	309.527
0.194911	300.107
0.145759	287.587
0.011777	208.098
0.008054	170.024
0.498377	332.518
0.548748	335.718
0.604033	339.704
0.653176	342.902
0.706001	343.776
0.749003	349.293
0.804289	353.279
0.858347	358.817
0.914862	363.582
1.00579	387.833
