Adsorption isotherm of Nitrogen on PI-COF-m10
DOI: 10.1038/s41598-017-00738-z
Article source: Figure 3b
Adsorbate Nitrogen: InChIKey IJGRMHOSHXDMSA-UHFFFAOYSA-N
Kind: experiment
Temperature: 77 K
Tabular data in the source: 0
pressure (bar)	uptake (cm3(STP)/g)
0.000303	136.926
0.000363	75.6936
0.006737	178.253
0.055762	206.377
0.108286	234.139
0.15729	241.976
0.209796	250.925
0.262297	255.448
0.311298	259.965
0.360299	264.481
0.412802	270.48
0.465299	271.314
0.5143	275.831
0.563299	278.134
0.6193	282.664
0.668301	287.18
0.717299	288.377
0.766302	294.001
0.818801	296.31
0.871301	299.727
0.920301	303.137
1.01482	325.443
0.969103	304.95
0.960256	303.069
1.00008	324.584
0.908656	299.245
0.85411	297.28
0.802511	294.389
0.752386	291.5
0.703736	288.613
0.653611	285.724
0.59759	283.757
0.545989	279.001
0.498814	277.049
0.447211	270.428
0.398562	268.474
0.344012	263.713
0.298308	258.967
0.245234	255.141
0.195108	250.387
0.144979	243.769
0.094848	234.354
0.046172	206.297
0.013719	184.795
0.010733	145.635
0.000354	85.0195
