Adsorption isotherm of Nitrogen on PI-COF-m40
DOI: 10.1038/s41598-017-00738-z
Article source: Figure 3b
Adsorbate Nitrogen: InChIKey IJGRMHOSHXDMSA-UHFFFAOYSA-N
Kind: experiment
Temperature: 77 K
Tabular data in the source: 0
pressure (bar)	uptake (cm3(STP)/g)
0.004273	44.8891
0.045138	79.7365
0.097647	92.6944
0.150147	95.8896
0.202644	96.4288
0.253393	99.0305
0.306243	101.931
0.35664	102.024
0.405639	104.77
0.456386	105.306
0.505384	106.503
0.556131	106.596
0.610379	108.356
0.659376	107.893
0.706625	110.045
0.755622	110.726
0.813371	113.156
0.86062	115.788
0.90963	128.715
0.962139	141.833
1.00417	173.817
0.871622	116.455
0.91881	130.526
0.768428	114.401
0.716829	111.509
0.66818	110.487
0.61953	107.601
0.566459	107.503
0.519286	107.416
0.466214	106.386
0.416091	105.362
0.365968	104.337
0.312895	101.443
0.264247	101.353
0.211175	99.3912
0.161051	97.4345
0.109452	94.5428
0.054899	86.0521
0.02392	63.6209
0.00327	52.3959
