Adsorption isotherm of Nitrogen on PI-COF-s
DOI: 10.1038/s41598-017-00738-z
Article source: Figure 3b
Adsorbate Nitrogen: InChIKey IJGRMHOSHXDMSA-UHFFFAOYSA-N
Kind: experiment
Temperature: 77 K
Tabular data in the source: 0
pressure (bar)	uptake (cm3(STP)/g)
0.006771	212.927
0.209854	310.682
0.258858	317.412
0.311359	321.935
0.360361	327.559
0.412865	335.401
0.465366	339.924
0.514368	344.441
0.563367	346.745
0.615868	351.268
0.668367	353.577
0.717366	355.881
0.769867	360.404
0.818868	364.92
0.867869	369.437
1.00789	402.893
0.967704	380.771
0.916099	372.13
0.85344	365.8
0.799386	364.147
0.752697	357.846
0.702328	356.199
0.653183	349.894
0.604042	348.25
0.547528	345.038
0.498388	343.394
0.452929	337.872
0.395184	331.551
0.339895	324.457
0.298124	321.273
0.245291	313.407
0.198603	307.106
0.056036	243.139
0.092909	261.852
0.158055	299.262
