Adsorption isotherm of Hydrogen on Carbon
DOI: 10.1021/Ja203184k
Adsorbate Hydrogen: InChIKey UFHFLCQGNIYNRP-UHFFFAOYSA-N
Temperature: 77 K
Tabular data in the source: 0
pressure (bar)	uptake (cm3(STP)/g)
0.00280166	15.2158
0.0154777	40.1454
0.0464636	75.2158
0.10421	118.314
0.135196	135.638
0.187309	159.3
0.260548	185.498
0.318295	202.399
0.412661	225.638
0.508435	244.23
0.615478	262.821
0.714069	277.188
0.816886	290.286
0.861957	296.624
0.915478	301.272
0.994351	310.145
