Adsorption isotherm of Nitrogen on Carbon
DOI: 10.1021/Ja203184k
Adsorbate Nitrogen: InChIKey IJGRMHOSHXDMSA-UHFFFAOYSA-N
Temperature: 77 K
Tabular data in the source: 0
pressure (bar)	uptake (cm3(STP)/g)
0.0323278	524.186
0.0394785	567.949
0.0780923	673.493
0.123857	763.592
0.15961	825.374
0.201085	892.305
0.369842	1118.84
0.417036	1157.45
0.517146	1208.94
0.605815	1250.13
0.705925	1288.74
0.804605	1342.8
0.874682	1394.29
0.930458	1450.92
0.95477	1507.55
0.984803	1605.37
0.990524	1690.32
