Adsorption isotherm of Hydrogen on Carbon
DOI: 10.1021/Ja203184k
Adsorbate Hydrogen: InChIKey UFHFLCQGNIYNRP-UHFFFAOYSA-N
Temperature: 77 K
Tabular data in the source: 0
pressure (bar)	uptake (wt%)
0.0591397	0.722581
0.091534	0.862018
0.116886	0.971877
0.163365	1.13244
0.209844	1.2592
0.270407	1.38174
0.315478	1.47892
0.370407	1.56765
0.416886	1.63948
0.516886	1.77047
0.619703	1.893
0.719703	1.99019
0.815478	2.06624
0.916886	2.15498
0.995759	2.22681
