Adsorption isotherm of Hydrogen on Carbon
DOI: 10.1021/Ja203184k
Adsorbate Hydrogen: InChIKey UFHFLCQGNIYNRP-UHFFFAOYSA-N
Temperature: 77 K
Tabular data in the source: 0
pressure (bar)	uptake (wt%)
0.00843546	0.143708
0.0211115	0.363426
0.0309707	0.528215
0.0492805	0.676102
0.0802664	0.912722
0.133788	1.21695
0.187309	1.40709
0.238013	1.593
0.318295	1.78314
0.408435	2.00286
0.512661	2.20145
0.618295	2.33667
0.719703	2.47188
0.816886	2.59019
0.916886	2.68737
0.997168	2.75498
