Adsorption isotherm of Hydrogen on Carbon
DOI: 10.1021/Ja203184k
Adsorbate Hydrogen: InChIKey UFHFLCQGNIYNRP-UHFFFAOYSA-N
Temperature: 77 K
Tabular data in the source: 0
pressure (bar)	uptake (cm3(STP)/g)
0.0309707	56.2018
0.0591397	80.7088
0.0901256	97.6102
0.139421	117.469
0.212661	141.976
0.315478	165.216
0.415478	182.962
0.516886	198.174
0.619703	211.272
0.72252	223.103
0.815478	232.399
0.915478	242.54
0.995759	249.3
