Adsorption isotherm of Nitrogen on Carbon
DOI: 10.1021/Ja203184k
Adsorbate Nitrogen: InChIKey IJGRMHOSHXDMSA-UHFFFAOYSA-N
Temperature: 77 K
Tabular data in the source: 0
pressure (bar)	uptake (cm3(STP)/g)
0.0294675	392.899
0.0595005	467.553
0.102405	531.909
0.143879	573.097
0.198224	614.285
0.274022	647.751
0.364121	673.493
0.511426	699.236
0.610106	724.978
0.707355	742.998
0.807465	766.167
0.877542	799.632
0.927597	827.949
0.971932	889.731
0.990524	954.087
0.993384	997.85
