Adsorption isotherm of Carbon Dioxide on Cu-TDPAT
DOI: 10.1021/Jp3046356
Adsorbate Carbon Dioxide: InChIKey CURLTUGMZLYLDI-UHFFFAOYSA-N
Temperature: 298 K
Tabular data in the source: 0
pressure (bar)	uptake (mmol/g)
0.102267	0.981132
0.152645	1.20755
0.207316	1.50943
0.316739	1.96226
0.430221	2.18868
0.62691	2.79245
0.892315	3.32075
1.26974	4.07547
1.89388	4.90566
2.12987	5.28302
2.95961	6.18868
3.92387	6.9434
4.51729	7.4717
5.84847	8.37736
7.75188	9.35849
10.0353	10.3396
12.9939	11.1698
16.0494	12
22.2941	13.2075
33.2346	14.4906
45.1056	15.3962
70.4888	16.6792
