Adsorption isotherm of Methane on Cu-TDPAT
DOI: 10.1021/Jp3046356
Adsorbate Methane: InChIKey VNWKTOKETHGBQD-UHFFFAOYSA-N
Temperature: 298 K
Tabular data in the source: 0
pressure (bar)	uptake (mmol/g)
0.0645208	0.0672063
0.214828	0.237484
0.290193	0.314385
0.409204	0.436108
0.529518	0.501774
0.746679	0.696049
1.2503	1.06018
2.00558	1.73212
2.48612	1.9019
2.95222	2.45959
3.82023	2.82994
4.53645	3.25604
6.12792	3.92563
6.97082	4.62354
8.64106	5.31971
12.1848	5.9793
15.7674	7.04232
19.5452	8.10269
26.4022	9.10733
37.2306	10.7265
48.177	11.5056
59.72	12.6334
80.6715	13.8717
