Adsorption isotherm of Carbon monoxide on Cu-TDPAT
DOI: 10.1021/Jp3046356
Adsorbate Carbon monoxide: InChIKey UGFAIRIUMAVXCW-UHFFFAOYSA-N
Temperature: 298 K
Tabular data in the source: 0
pressure (bar)	uptake (mmol/g)
0.0211169	0.0519685
0.0297769	0.0704239
0.0419885	0.0932266
0.0567192	0.115057
0.0766179	0.159605
0.1229	0.216284
0.166016	0.273242
0.205794	0.3452
0.330109	0.490179
0.46549	0.619267
0.685206	0.819796
0.925588	1.11093
1.36247	1.43668
2.00558	1.9019
2.59525	2.34724
3.50571	3.03553
5.16044	3.92563
7.27679	4.7329
10.7115	6.56537
18.7236	8.69133
28.7713	11.778
50.291	13.8717
95.7944	17.5247
