Adsorption isotherm of Carbon Dioxide on Cu-TDPAT
DOI: 10.1021/Jp3046356
Adsorbate Carbon Dioxide: InChIKey CURLTUGMZLYLDI-UHFFFAOYSA-N
Temperature: 328 K
Tabular data in the source: 0
pressure (bar)	uptake (mmol/g)
0.00587801	0.0612068
0.00613126	0.0656538
0.00725788	0.0791553
0.00823664	0.0954333
0.0101702	0.112399
0.0110652	0.132381
0.0142512	0.155917
0.0168698	0.179394
0.0199696	0.211287
0.024657	0.254736
0.0317563	0.314385
0.0408997	0.379036
0.0526757	0.456981
0.0623548	0.501774
0.0803082	0.590982
0.0991608	0.664255
0.122437	0.729363
0.144935	0.859034
0.220964	1.06018
0.309629	1.21982
0.415957	1.5775
0.53572	1.77309
0.661474	2.08832
0.816748	2.40276
1.00847	2.76455
1.41313	3.18081
