Adsorption isotherm of Carbon Dioxide on Zeolite 13X
DOI: 10.1021/Jp3046356
Adsorbate Carbon Dioxide: InChIKey CURLTUGMZLYLDI-UHFFFAOYSA-N
Temperature: 298 K
Tabular data in the source: 0
pressure (bar)	uptake (mmol/g)
0.097663	0.712329
0.14601	1.0411
0.208206	1.31507
0.283175	1.75342
0.433497	2.13699
0.618153	2.63014
0.902567	3.12329
1.83527	3.89041
2.61703	4.27397
3.82113	4.60274
5.4488	4.76712
7.76982	5.09589
11.0795	5.20548
16.5646	5.47945
25.3577	5.69863
33.6822	5.91781
51.562	6.24658
70.1278	6.52055
