Adsorption isotherm of Carbon Dioxide on Cu-TDPAT
DOI: 10.1021/Jp3046356
Adsorbate Carbon Dioxide: InChIKey CURLTUGMZLYLDI-UHFFFAOYSA-N
Temperature: 298 K
Tabular data in the source: 0
pressure (bar)	uptake (mmol/g)
0.00180472	0.0755388
0.00213634	0.09769
0.00232434	0.107265
0.00275144	0.138718
0.00354364	0.167244
0.00456394	0.201636
0.00587801	0.248851
0.00823664	0.314385
0.0115417	0.406572
0.0183544	0.501774
0.0257194	0.604959
0.0392112	0.764274
0.0597806	0.92144
0.0950649	1.08526
0.133212	1.33938
0.203092	1.653
0.284585	1.94688
0.336878	2.29301
0.415957	2.57732
0.558796	3.41189
0.851928	4.62354
1.19378	5.57433
2.445	6.72065
3.01893	7.04232
9.42669	12.0565
17.0126	14.1997
27.0539	16.7244
34.8434	17.1199
50.9284	19.6979
