Adsorption isotherm of Carbon Dioxide, Methane on Mg-MOF-74
DOI: 10.1021/jp3046356
Article source: Figure 4
Adsorbate Carbon Dioxide: InChIKey CURLTUGMZLYLDI-UHFFFAOYSA-N
Adsorbate Methane: InChIKey VNWKTOKETHGBQD-UHFFFAOYSA-N
Kind: experiment
Temperature: 298 K
Tabular data in the source: 0
pressure (bar)	Carbon Dioxide fraction	Carbon Dioxide uptake (mmol/g)	Methane fraction	Methane uptake (mmol/g)	total uptake (mmol/g)
0.100577	0.5	5.16			5.16
0.205968	0.5	5.9094			5.9094
0.416965	0.5	6.6965			6.6965
0.87438	0.5	7.4081			7.4081
1.83316	0.5	8.3081			8.3081
3.75232	0.5	9.6601			9.6601
7.67715	0.5	11.2381			11.2381
15.5239	0.5	13.0045			13.0045
33.2966	0.5	14.4693			14.4693
69.0081	0.5	15.2563			15.2563
