Adsorption isotherm of Carbon Dioxide on Cu-TDPAT
DOI: 10.1021/jp3046356
Article source: Figure 2
Adsorbate Carbon Dioxide: InChIKey CURLTUGMZLYLDI-UHFFFAOYSA-N
Kind: experiment
Isotherm type: absolute
Temperature: 323 K
Tabular data in the source: 0
pressure (bar)	uptake (mmol/g)
0.003173	0.062651
0.00345	0.069037
0.003814	0.080207
0.004662	0.094844
0.00533	0.111168
0.006408	0.129155
0.007325	0.148734
0.00926	0.180593
0.011319	0.20254
0.014548	0.254759
0.018387	0.298607
0.024033	0.36902
0.029874	0.460087
0.038397	0.498104
0.047731	0.578695
0.059334	0.660572
0.073739	0.734345
0.094776	0.845668
0.117815	0.940113
0.146454	1.07312
0.191426	1.22495
0.237958	1.39827
0.300746	1.56819
0.380102	1.77435
0.496821	2.04334
0.558599	2.27154
0.628058	2.39503
0.705992	2.61589
0.79378	2.8825
0.907403	2.98607
1.03753	3.23281
