Adsorption isotherm of Carbon monoxide on Cu-TDPAT
DOI: 10.1021/Jp3046356
Adsorbate Carbon monoxide: InChIKey UGFAIRIUMAVXCW-UHFFFAOYSA-N
Temperature: 298 K
Tabular data in the source: 0
pressure (bar)	uptake (mmol/g)
0.0297769	0.0570624
0.0324482	0.0656538
0.0402235	0.077325
0.0543338	0.0910731
0.0645208	0.109802
0.0799816	0.132381
0.0949752	0.155917
0.1229	0.201636
0.159035	0.243101
0.197141	0.293093
0.244377	0.361723
0.316228	0.436108
0.391998	0.52579
0.507252	0.648908
0.628792	0.764274
0.779455	0.859034
0.886668	1.01176
4.3457	3.49259
10.7115	6.41368
13.8609	7.91548
17.9362	9.76895
26.4022	10.9802
32.7288	12.0565
48.177	14.1997
