Adsorption isotherm of Hydrogen, Methane on LTA-5A
DOI: 10.1021/jp3046356
Article source: Figure 4
Adsorbate Hydrogen: InChIKey UFHFLCQGNIYNRP-UHFFFAOYSA-N
Adsorbate Methane: InChIKey VNWKTOKETHGBQD-UHFFFAOYSA-N
Kind: experiment
Temperature: 298 K
Tabular data in the source: 0
pressure (bar)	Hydrogen fraction	Hydrogen uptake (mmol/g)	Methane fraction	Methane uptake (mmol/g)	total uptake (mmol/g)
-0.12			0.5	0.0889	0.0889
0.359			0.5	0.2489	0.2489
0.598			0.5	0.4267	0.4267
1.915			0.5	0.6756	0.6756
3.709			0.5	1.0489	1.0489
7.658			0.5	1.3867	1.3867
16.154			0.5	1.6178	1.6178
33.624			0.5	1.76	1.76
69.88			0.5	1.8311	1.8311
