Adsorption isotherm of Carbon Dioxide, Hydrogen on MIL-101
DOI: 10.1021/jp3046356
Article source: Figure 4
Adsorbate Carbon Dioxide: InChIKey CURLTUGMZLYLDI-UHFFFAOYSA-N
Adsorbate Hydrogen: InChIKey UFHFLCQGNIYNRP-UHFFFAOYSA-N
Kind: experiment
Temperature: 298 K
Tabular data in the source: 0
pressure (bar)	Carbon Dioxide fraction	Carbon Dioxide uptake (mmol/g)	Hydrogen fraction	Hydrogen uptake (mmol/g)	total uptake (mmol/g)
0.098833	0.2	0.1373			0.1373
0.205494	0.2	0.2167			0.2167
0.42228	0.2	0.4608			0.4608
0.878213	0.2	0.7324			0.7324
1.826	0.2	1.1686			1.1686
3.75319	0.2	1.7695			1.7695
7.89587	0.2	2.8368			2.8368
16.0361	0.2	4.7826			4.7826
33.3503	0.2	8.1553			8.1553
69.3426	0.2	13.257			13.257
