Adsorption isotherm of Carbon Dioxide on Mg-MOF-74
DOI: 10.1021/Jp3046356
Adsorbate Carbon Dioxide: InChIKey CURLTUGMZLYLDI-UHFFFAOYSA-N
Temperature: 298 K
Tabular data in the source: 0
pressure (bar)	uptake (mmol/g)
0.102394	3.56164
0.129722	4.05479
0.208206	4.82192
0.31128	5.36986
0.433497	5.80822
0.663618	6.19178
0.902567	6.57534
1.38169	7.0137
1.83527	7.12329
2.38074	7.56164
3.82113	8.10959
5.7128	8.71233
7.95582	9.31507
12.1792	10.1918
16.1771	10.9589
23.6206	11.8356
34.4882	12.6027
46.9062	13.3699
70.1278	14.0822
