Adsorption isotherm of Carbon Dioxide on Cu-TDPAT
DOI: 10.1021/jp3046356
Article source: Figure 2
Adsorbate Carbon Dioxide: InChIKey CURLTUGMZLYLDI-UHFFFAOYSA-N
Kind: experiment
Isotherm type: absolute
Temperature: 308 K
Tabular data in the source: 0
pressure (bar)	uptake (mmol/g)
0.001222	0.061556
0.001571	0.078112
0.00192	0.092368
0.003018	0.102681
0.003751	0.131453
0.004509	0.162454
0.005893	0.21735
0.007084	0.231196
0.00926	0.290804
0.010238	0.334888
0.013381	0.375587
0.01663	0.413866
0.019333	0.485087
0.024848	0.568578
0.031412	0.654772
0.038397	0.734345
0.049351	0.802066
0.062388	0.883812
0.081527	1.03593
0.098017	1.14148
0.121843	1.26897
0.144012	1.47428
0.204644	1.55443
0.25439	1.80593
0.295733	2.09817
0.386545	2.374
0.480507	2.73388
0.568068	3.09329
0.638557	3.34888
0.705992	3.49993
0.807235	3.78913
0.892483	4.13866
1.00346	4.52033
