Adsorption isotherm of Methane on Mg-MOF-74
DOI: 10.1021/Jp3046356
Adsorbate Methane: InChIKey VNWKTOKETHGBQD-UHFFFAOYSA-N
Temperature: 298 K
Tabular data in the source: 0
pressure (bar)	uptake (mmol/g)
0.719178	0.600344
1.91781	1.12977
4.07534	2.04741
5.03425	2.54163
6.71233	3.03548
8.15068	3.52945
10.3082	4.02307
12.226	4.44613
14.1438	4.93986
16.3014	5.3628
19.8973	5.82034
22.774	6.13691
27.089	6.55876
30.9247	6.94552
33.8014	7.29742
38.5959	7.47168
44.1096	7.71625
50.3425	7.99579
55.3767	8.20526
60.6507	8.44995
65.2055	8.62433
70	8.83392
