Adsorption isotherm of Carbon Dioxide, Methane on Na-X
DOI: 10.1021/jp3046356
Article source: Figure 4
Adsorbate Carbon Dioxide: InChIKey CURLTUGMZLYLDI-UHFFFAOYSA-N
Adsorbate Methane: InChIKey VNWKTOKETHGBQD-UHFFFAOYSA-N
Kind: experiment
Temperature: 298 K
Tabular data in the source: 0
pressure (bar)	Carbon Dioxide fraction	Carbon Dioxide uptake (mmol/g)	Methane fraction	Methane uptake (mmol/g)	total uptake (mmol/g)
0.099816	0.5	1.5819			1.5819
0.211739	0.5	2.4441			2.4441
0.423545	0.5	3.3443			3.3443
0.877809	0.5	4.1313			4.1313
1.79804	0.5	4.73			4.73
3.72821	0.5	5.178			5.178
7.81988	0.5	5.5883			5.5883
16.0251	0.5	5.9987			5.9987
32.8246	0.5	6.6727			6.6727
69.6627	0.5	7.2336			7.2336
