Adsorption isotherm of Methane on Cu-TDPAT
DOI: 10.1021/Jp3046356
Adsorbate Methane: InChIKey VNWKTOKETHGBQD-UHFFFAOYSA-N
Temperature: 298 K
Tabular data in the source: 0
pressure (bar)	uptake (mmol/g)
1.91781	0.847088
3.83562	1.65884
5.5137	2.18803
6.71233	2.54078
7.91096	2.9642
10.7877	3.66947
13.1849	4.19829
14.6233	4.58626
16.5411	5.00932
19.8973	5.50232
23.4932	6.06588
25.8904	6.45336
28.2877	6.73484
30.9247	7.1222
33.8014	7.54477
37.3973	7.79031
40.0342	8.00099
43.8699	8.24641
46.9863	8.42151
51.0616	8.70214
54.6575	8.94767
58.4932	9.19309
62.5685	9.43838
65.4452	9.64894
67.363	9.78932
70.2397	9.96454
