Adsorption isotherm of Carbon Dioxide on Cu-TDPAT
DOI: 10.1021/Jp3046356
Adsorbate Carbon Dioxide: InChIKey CURLTUGMZLYLDI-UHFFFAOYSA-N
Temperature: 308 K
Tabular data in the source: 0
pressure (bar)	uptake (mmol/g)
0.00213634	0.0519685
0.00286999	0.0641372
0.00339735	0.0889693
0.00496558	0.115057
0.00613126	0.152314
0.00896148	0.206405
0.0110652	0.266929
0.0155053	0.329432
0.021727	0.406572
0.0317563	0.52579
0.048415	0.679966
0.0769928	0.819796
0.0837684	0.839185
0.144935	1.1372
0.203092	1.33938
0.24041	1.5775
0.366524	1.94688
0.661474	2.63827
1.14448	3.57519
1.60372	4.51671
2.15443	5.31971
2.445	5.84113
