Adsorption isotherm of Hydrogen, Methane on Mg-MOF-74
DOI: 10.1021/jp3046356
Article source: Figure 4
Adsorbate Hydrogen: InChIKey UFHFLCQGNIYNRP-UHFFFAOYSA-N
Adsorbate Methane: InChIKey VNWKTOKETHGBQD-UHFFFAOYSA-N
Kind: experiment
Temperature: 298 K
Tabular data in the source: 0
pressure (bar)	Hydrogen fraction	Hydrogen uptake (mmol/g)	Methane fraction	Methane uptake (mmol/g)	total uptake (mmol/g)
0.598			0.5	0.5689	0.5689
1.675			0.5	1.0844	1.0844
3.59			0.5	1.9911	1.9911
7.778			0.5	3.5022	3.5022
16.274			0.5	5.4222	5.4222
33.624			0.5	7.2711	7.2711
70			0.5	8.8533	8.8533
