Adsorption isotherm of Carbon Dioxide, Methane on Cu-TDPAT
DOI: 10.1021/jp3046356
Article source: Figure 4
Adsorbate Carbon Dioxide: InChIKey CURLTUGMZLYLDI-UHFFFAOYSA-N
Adsorbate Methane: InChIKey VNWKTOKETHGBQD-UHFFFAOYSA-N
Kind: experiment
Temperature: 298 K
Tabular data in the source: 0
pressure (bar)	Carbon Dioxide fraction	Carbon Dioxide uptake (mmol/g)	Methane fraction	Methane uptake (mmol/g)	total uptake (mmol/g)
0.101065	0.5	1.0169			1.0169
0.204644	0.5	1.5404			1.5404
0.424131	0.5	2.1767			2.1767
0.878618	0.5	3.3027			3.3027
1.79804	0.5	4.843			4.843
3.72049	0.5	6.9483			6.9483
7.60501	0.5	9.3549			9.3549
15.5418	0.5	11.9499			11.9499
32.5237	0.5	14.5447			14.5447
68.8811	0.5	16.7252			16.7252
