Adsorption isotherm of Carbon Dioxide on Cu-TDPAT
DOI: 10.1021/Jp3046356
Adsorbate Carbon Dioxide: InChIKey CURLTUGMZLYLDI-UHFFFAOYSA-N
Temperature: 273 K
Tabular data in the source: 0
pressure (bar)	uptake (mmol/g)
0.001088	0.273242
0.00140126	0.321821
0.00196354	0.388
0.00299357	0.478854
0.00456394	0.550956
0.0078966	0.664255
0.0130985	0.78235
0.0191448	0.90015
0.0268269	1.08526
0.0345509	1.19163
0.0464162	1.40349
0.0678422	1.6921
0.0911402	2.04007
0.127711	2.45959
0.171566	2.96538
0.24041	3.57519
0.322967	4.3104
0.452562	5.31971
0.719686	7.04232
1.2452	8.89691
1.74485	10.4785
2.445	12.0565
3.42609	13.8717
5.22335	15.5916
9.03741	17.5247
14.9906	19.6979
24.8657	21.1286
55.4102	22.1401
80.9879	22.6637
100	22.1401
