Adsorption isotherm of Methane on Zeolite 13X
DOI: 10.1021/Jp3046356
Adsorbate Methane: InChIKey VNWKTOKETHGBQD-UHFFFAOYSA-N
Temperature: 298 K
Tabular data in the source: 0
pressure (bar)	uptake (mmol/g)
1.67808	0.529188
3.59589	0.987584
5.5137	1.23397
8.15068	1.692
10.0685	1.90304
13.4247	2.25471
16.5411	2.57116
19.4178	2.78172
22.774	2.99204
26.8493	3.23733
30.4452	3.48286
34.0411	3.65773
39.7945	3.86684
44.3493	3.97055
49.863	4.14444
54.1781	4.28361
58.7329	4.42265
63.5274	4.56157
66.6438	4.66601
70	4.73498
