Adsorption isotherm of Hydrogen on Cu-TDPAT
DOI: 10.1021/jp3046356
Article source: Figure 2
Adsorbate Hydrogen: InChIKey UFHFLCQGNIYNRP-UHFFFAOYSA-N
Kind: experiment
Isotherm type: absolute
Temperature: 298 K
Tabular data in the source: 0
pressure (bar)	uptake (mmol/g)
0.916643	0
4.98311	0
10.4616	0
19.9388	0
32.3445	0
41.1908	0
51.6297	0
59.6898	0
