Adsorption isotherm of Hydrogen, Methane on MIL-101
DOI: 10.1021/jp3046356
Article source: Figure 4
Adsorbate Hydrogen: InChIKey UFHFLCQGNIYNRP-UHFFFAOYSA-N
Adsorbate Methane: InChIKey VNWKTOKETHGBQD-UHFFFAOYSA-N
Kind: experiment
Temperature: 298 K
Tabular data in the source: 0
pressure (bar)	Hydrogen fraction	Hydrogen uptake (mmol/g)	Methane fraction	Methane uptake (mmol/g)	total uptake (mmol/g)
0.12			0.5	0.0533	0.0533
1.915			0.5	0.3378	0.3378
3.47			0.5	0.6933	0.6933
7.778			0.5	1.3689	1.3689
16.274			0.5	2.5422	2.5422
33.744			0.5	4.64	4.64
69.88			0.5	8.1244	8.1244
