Adsorption isotherm of Carbon Dioxide on MIL-101
DOI: 10.1021/Jp3046356
Adsorbate Carbon Dioxide: InChIKey CURLTUGMZLYLDI-UHFFFAOYSA-N
Temperature: 298 K
Tabular data in the source: 0
pressure (bar)	uptake (mmol/g)
0.0111964	0.152902
0.0208459	0.147711
0.0309599	0.298254
0.0422445	0.295658
0.0529578	0.293771
0.0722603	0.521944
0.0880623	0.520293
0.101423	0.596036
0.205534	0.897829
0.323	1.0479
0.416516	1.35347
0.507599	1.35182
0.654562	1.73431
0.82056	1.88627
1.02866	2.11515
1.71052	3.03398
2.02651	3.41718
3.00973	4.41387
3.99234	5.33459
5.0048	6.48655
5.92934	7.33129
7.22597	8.40656
8.09049	9.17485
9.05847	10.0201
10.1421	10.8653
12.0157	12.5562
15.4946	14.7079
19.9807	17.1673
23.0123	19.0123
26.5039	20.3957
30.5253	21.6253
34.1775	23.2397
39.3632	24.777
