Adsorption isotherm of Carbon Dioxide on Cu-TDPAT
DOI: 10.1021/Jp3046356
Adsorbate Carbon Dioxide: InChIKey CURLTUGMZLYLDI-UHFFFAOYSA-N
Temperature: 288 K
Tabular data in the source: 0
pressure (bar)	uptake (mmol/g)
0.00188248	0.159605
0.00232434	0.237484
0.00286999	0.286321
0.00354364	0.329432
0.00496558	0.406572
0.00639529	0.446422
0.00823664	0.513641
0.0115417	0.604959
0.0155053	0.664255
0.0199696	0.746614
0.024657	0.819796
0.0345509	0.92144
0.048415	1.06018
0.0597806	1.1641
0.0803082	1.2782
0.0911402	1.43668
0.144935	1.73212
0.21184	2.04007
0.284585	2.57732
0.452562	3.57519
0.53572	4.41235
0.661474	5.07673
0.9269	6.12071
1.19378	7.04232
1.35478	7.73259
9.03741	14.1997
21.9109	18.3637
50.9284	23.7482
