Adsorption isotherm of Carbon Dioxide on Cu-TDPAT
DOI: 10.1021/Jp3046356
Adsorbate Carbon Dioxide: InChIKey CURLTUGMZLYLDI-UHFFFAOYSA-N
Temperature: 288 K
Tabular data in the source: 0
pressure (bar)	uptake (mmol/g)
0.00118375	0.109802
0.00159027	0.141999
0.00213634	0.18798
0.00286999	0.248851
0.00419479	0.307121
0.00639529	0.406572
0.00975012	0.501774
0.016173	0.633914
0.024657	0.746614
0.0392112	0.943234
0.0623548	1.1641
0.0911402	1.40349
0.151177	1.77309
0.220964	2.29301
0.351389	2.96538
0.53572	3.83492
0.816748	4.95942
1.35478	6.56537
2.15443	8.49051
4.05564	10.9802
7.31929	14.1997
13.2093	16.338
20.1386	18.3637
34.8434	20.1637
39.543	20.1637
84.4773	22.1401
