Adsorption isotherm of Carbon Dioxide on Cu-TDPAT
DOI: 10.1021/Jp3046356
Adsorbate Carbon Dioxide: InChIKey CURLTUGMZLYLDI-UHFFFAOYSA-N
Temperature: 328 K
Tabular data in the source: 0
pressure (bar)	uptake (mmol/g)
0.00456394	0.0507668
0.00587801	0.0612068
0.00757042	0.0791553
0.0101702	0.104786
0.0125574	0.129323
0.0168698	0.183637
0.0257194	0.231997
0.0331246	0.307121
0.048415	0.416187
0.0738125	0.563987
0.112534	0.746614
0.144935	0.839185
0.194705	0.98838
0.296843	1.2782
0.433873	1.5775
0.661474	1.94688
0.966825	2.51776
1.474	3.10732
1.8984	3.65975
2.445	4.2108
