Adsorption isotherm of Carbon Dioxide, Methane on MIL-101
DOI: 10.1021/jp3046356
Article source: Figure 4
Adsorbate Carbon Dioxide: InChIKey CURLTUGMZLYLDI-UHFFFAOYSA-N
Adsorbate Methane: InChIKey VNWKTOKETHGBQD-UHFFFAOYSA-N
Kind: experiment
Temperature: 298 K
Tabular data in the source: 0
pressure (bar)	Carbon Dioxide fraction	Carbon Dioxide uptake (mmol/g)	Methane fraction	Methane uptake (mmol/g)	total uptake (mmol/g)
0.101135	0.5	0.3766			0.3766
0.2073	0.5	0.561			0.561
0.424815	0.5	0.8584			0.8584
0.850159	0.5	1.3443			1.3443
1.82516	0.5	2.0181			2.0181
3.73594	0.5	3.2571			3.2571
7.91407	0.5	5.4376			5.4376
15.9661	0.5	9.1625			9.1625
32.5087	0.5	14.7707			14.7707
67.7018	0.5	21.4711			21.4711
