Adsorption isotherm of Carbon Dioxide, Hydrogen on Cu-TDPAT
DOI: 10.1021/jp3046356
Article source: Figure 4
Adsorbate Carbon Dioxide: InChIKey CURLTUGMZLYLDI-UHFFFAOYSA-N
Adsorbate Hydrogen: InChIKey UFHFLCQGNIYNRP-UHFFFAOYSA-N
Kind: experiment
Temperature: 298 K
Tabular data in the source: 0
pressure (bar)	Carbon Dioxide fraction	Carbon Dioxide uptake (mmol/g)	Hydrogen fraction	Hydrogen uptake (mmol/g)	total uptake (mmol/g)
0.098833	0.2	0.6313			0.6313
0.203095	0.2	0.9303			0.9303
0.42228	0.2	1.3116			1.3116
0.85763	0.2	1.9949			1.9949
1.826	0.2	2.9524			2.9524
3.70851	0.2	4.4591			4.4591
7.80369	0.2	6.4046			6.4046
16.0361	0.2	8.9267			8.9267
33.7443	0.2	11.723			11.723
69.3426	0.2	14.4097			14.4097
