Adsorption isotherm of Carbon Dioxide, Hydrogen on LTA-5A
DOI: 10.1021/jp3046356
Article source: Figure 4
Adsorbate Carbon Dioxide: InChIKey CURLTUGMZLYLDI-UHFFFAOYSA-N
Adsorbate Hydrogen: InChIKey UFHFLCQGNIYNRP-UHFFFAOYSA-N
Kind: experiment
Temperature: 298 K
Tabular data in the source: 0
pressure (bar)	Carbon Dioxide fraction	Carbon Dioxide uptake (mmol/g)	Hydrogen fraction	Hydrogen uptake (mmol/g)	total uptake (mmol/g)
0.097656	0.2	1.4546			1.4546
0.207922	0.2	1.8359			1.8359
0.42228	0.2	2.1898			2.1898
0.878213	0.2	2.4065			2.4065
1.84799	0.2	2.6505			2.6505
3.75319	0.2	2.9221			2.9221
7.80369	0.2	3.1388			3.1388
16.2293	0.2	3.3829			3.3829
32.5687	0.2	3.5173			3.5173
69.3426	0.2	3.5967			3.5967
