Adsorption isotherm of Nitrogen on Cu-TDPAT
DOI: 10.1021/jp3046356
Article source: Figure 2
Adsorbate Nitrogen: InChIKey IJGRMHOSHXDMSA-UHFFFAOYSA-N
Kind: experiment
Isotherm type: absolute
Temperature: 298 K
Tabular data in the source: 0
pressure (bar)	uptake (mmol/g)
0.158088	0.057201
0.201326	0.076461
0.244343	0.096953
0.301301	0.124022
0.389942	0.162892
0.521315	0.208387
0.538394	0.233615
0.642836	0.255106
0.708109	0.288529
0.780189	0.326332
0.931537	0.369105
1.00972	0.410185
