Adsorption isotherm of Carbon monoxide on Cu-TDPAT
DOI: 10.1021/jp3046356
Article source: Figure 2
Adsorbate Carbon monoxide: InChIKey UGFAIRIUMAVXCW-UHFFFAOYSA-N
Kind: experiment
Isotherm type: absolute
Temperature: 298 K
Tabular data in the source: 0
pressure (bar)	uptake (mmol/g)
0.025978	0.055149
0.032554	0.064047
0.040794	0.075699
0.050315	0.091861
0.063052	0.110499
0.080316	0.13292
0.099038	0.164157
0.126125	0.204531
0.145848	0.243865
0.198107	0.295951
0.240436	0.355992
0.311172	0.435823
0.365595	0.519637
0.458247	0.636151
0.547142	0.70081
0.602698	0.765244
0.663896	0.813861
0.75544	0.920513
0.859409	0.990923
0.993574	1.11709
4.17253	3.4748
9.65162	6.48933
13.5425	8.30195
20.5921	9.64295
23.4261	10.7164
30.3249	11.9108
37.3938	12.8932
43.2414	14.0793
49.9919	14.8433
