Adsorption isotherm of Methane on Zeolite 5A
DOI: 10.1021/Jp3046356
Adsorbate Methane: InChIKey VNWKTOKETHGBQD-UHFFFAOYSA-N
Temperature: 298 K
Tabular data in the source: 0
pressure (bar)	uptake (mmol/g)
0	0.141343
0.719178	0.282322
0.958904	0.494216
2.15753	0.776296
4.07534	1.09335
8.15068	1.40931
10.0685	1.47902
13.1849	1.54811
16.3014	1.68788
19.6575	1.68619
24.2123	1.68389
28.7671	1.75226
33.8014	1.78506
39.5548	1.78215
50.1027	1.81216
56.5753	1.8089
60.6507	1.84218
66.4041	1.80394
70	1.80212
