Adsorption isotherm of Carbon Dioxide on MIL-101
DOI: 10.1021/Jp3046356
Adsorbate Carbon Dioxide: InChIKey CURLTUGMZLYLDI-UHFFFAOYSA-N
Temperature: 298 K
Tabular data in the source: 0
pressure (bar)	uptake (mmol/g)
0.115251	0.164384
0.176431	0.219178
0.203338	0.219178
0.326362	0.383562
0.423362	0.438356
0.632951	0.60274
0.881466	0.712329
1.34939	0.986301
1.83527	1.15068
2.74382	1.47945
3.82113	1.75342
4.84097	2.13699
5.98959	2.41096
7.76982	2.73973
9.84353	3.39726
12.1792	4
16.5646	4.76712
19.5479	5.53425
22.5289	6.24658
25.9645	6.79452
28.5417	7.28767
34.4882	8.10959
41.6735	9.42466
49.179	10.5753
55.3541	11.6164
62.3046	12.3836
71.8059	13.2603
