Adsorption isotherm of Carbon Dioxide on Mg-MOF-74
DOI: 10.1021/Jp3046356
Adsorbate Carbon Dioxide: InChIKey CURLTUGMZLYLDI-UHFFFAOYSA-N
Temperature: 298 K
Tabular data in the source: 0
pressure (bar)	uptake (mmol/g)
0.101768	5.13208
0.148321	5.58491
0.206231	5.96226
0.315081	6.41509
0.428007	6.56604
0.669393	7.16981
0.888118	7.32075
1.29415	7.92453
1.79943	8.30189
2.44305	8.90566
3.01945	9.20755
3.82087	9.50943
5.06529	10.3396
6.40801	10.8679
8.10666	11.3962
10.2546	12
13.2813	12.6038
16.4135	12.9811
20.7625	13.5849
28.1884	14.1887
39.1877	14.717
57.1189	15.0943
70.6009	15.3208
