Adsorption isotherm of Carbon Dioxide, Hydrogen on Mg-MOF-74
DOI: 10.1021/jp3046356
Article source: Figure 4
Adsorbate Carbon Dioxide: InChIKey CURLTUGMZLYLDI-UHFFFAOYSA-N
Adsorbate Hydrogen: InChIKey UFHFLCQGNIYNRP-UHFFFAOYSA-N
Kind: experiment
Temperature: 298 K
Tabular data in the source: 0
pressure (bar)	Carbon Dioxide fraction	Carbon Dioxide uptake (mmol/g)	Hydrogen fraction	Hydrogen uptake (mmol/g)	total uptake (mmol/g)
0.098833	0.2	3.6501			3.6501
0.205494	0.2	4.7999			4.7999
0.427366	0.2	5.8124			5.8124
0.867961	0.2	6.5506			6.5506
1.80468	0.2	7.2612			7.2612
3.70851	0.2	8.0543			8.0543
7.71259	0.2	9.2863			9.2863
15.6639	0.2	10.8753			10.8753
33.3503	0.2	12.6287			12.6287
69.3426	0.2	14.1078			14.1078
