Adsorption isotherm of Carbon Dioxide on MIL-101
DOI: 10.1021/Jp3046356
Adsorbate Carbon Dioxide: InChIKey CURLTUGMZLYLDI-UHFFFAOYSA-N
Temperature: 298 K
Tabular data in the source: 0
pressure (bar)	uptake (mmol/g)
0.104791	0.301887
0.145757	0.377358
0.212508	0.528302
0.295557	0.679245
0.356905	0.679245
0.43091	0.830189
0.674174	1.13208
0.915881	1.20755
1.08003	1.35849
1.36669	1.66038
1.85601	2.03774
2.34864	2.33962
2.90251	2.71698
3.84953	3.16981
4.86868	3.92453
6.3034	4.83019
7.60636	5.43396
9.84435	6.64151
12.4451	7.77358
16.1024	9.20755
18.9631	10.4906
22.3357	11.6226
27.5664	13.1321
32.4489	14.7925
38.2067	16.2264
46.0553	17.7358
58.1648	19.6981
70.0874	21.5094
