Adsorption isotherm of Carbon Dioxide on Cu-TDPAT
DOI: 10.1021/jp3046356
Article source: Figure 2
Adsorbate Carbon Dioxide: InChIKey CURLTUGMZLYLDI-UHFFFAOYSA-N
Kind: experiment
Isotherm type: absolute
Temperature: 298 K
Tabular data in the source: 0
pressure (bar)	uptake (mmol/g)
0.000935	0.074085
0.000983	0.085316
0.001124	0.1
0.001285	0.130299
0.00147	0.143579
0.001857	0.168287
0.00227	0.193803
0.002869	0.223182
0.00345	0.261589
0.00436	0.317629
0.006094	0.382279
0.007084	0.424962
0.008806	0.464162
0.010067	0.493731
0.011901	0.553732
0.016912	0.643324
0.021023	0.727897
0.030381	0.845668
0.035909	0.915567
0.047731	1.02681
0.060325	1.1516
0.073739	1.24678
0.091664	1.39827
0.117815	1.55443
0.151426	1.75877
0.191426	2.00761
0.233991	2.29166
0.310957	2.6625
0.373852	3.06613
0.464729	3.72289
0.549288	4.06631
0.61759	4.4023
0.71796	4.68274
0.834642	5.15988
0.922784	5.58637
1.07275	5.94224
2.39552	7.21506
7.72858	12.2495
13.6521	14.4851
24.1157	16.8287
34.8498	18.2197
47.0977	20.254
