Adsorption isotherm of Carbon Dioxide on Zeolite 5A
DOI: 10.1021/Jp3046356
Adsorbate Carbon Dioxide: InChIKey CURLTUGMZLYLDI-UHFFFAOYSA-N
Temperature: 298 K
Tabular data in the source: 0
pressure (bar)	uptake (mmol/g)
0.1	1.47945
0.136007	1.64384
0.208206	1.86301
0.289954	1.9726
0.433497	2.13699
0.663618	2.30137
0.902567	2.41096
1.31784	2.52055
1.79236	2.63014
2.67967	2.84932
3.7318	2.90411
5.32141	3.0137
7.95582	3.12329
11.3446	3.28767
16.1771	3.34247
24.7651	3.39726
33.6822	3.50685
49.179	3.56164
71.8059	3.61644
