Adsorption isotherm of Carbon Dioxide on Zeolite 13X
DOI: 10.1021/Jp3046356
Adsorbate Carbon Dioxide: InChIKey CURLTUGMZLYLDI-UHFFFAOYSA-N
Temperature: 298 K
Tabular data in the source: 0
pressure (bar)	uptake (mmol/g)
0.102213	1.43396
0.135575	1.81132
0.212054	2.33962
0.281268	2.71698
0.439897	3.32075
0.626242	3.69811
0.891601	4
1.21094	4.30189
1.85041	4.60377
2.51315	4.90566
3.84132	4.98113
5.46903	5.28302
7.97289	5.50943
10.8295	5.73585
15.7859	6.03774
24.6979	6.33962
34.3471	6.56604
53.7316	6.9434
69.6161	7.24528
