Adsorption isotherm of Hydrogen on Cu-TDPAT
DOI: 10.1021/Jp3046356
Adsorbate Hydrogen: InChIKey UFHFLCQGNIYNRP-UHFFFAOYSA-N
Temperature: 298 K
Tabular data in the source: 0
pressure (bar)	uptake (mmol/g)
0.925588	0.0932266
1.14736	0.112399
1.42228	0.138718
1.76307	0.1712
2.09361	0.206405
2.59525	0.254736
3.21709	0.314385
3.98792	0.388
5.87026	0.577326
7.27679	0.712512
9.02036	0.859034
12.7198	1.21982
15.7674	1.50545
19.5452	1.9019
23.2097	2.18828
28.7713	2.70067
35.6648	3.49259
48.177	4.3104
62.3419	5.07673
