Adsorption isotherm of Hydrogen, Methane on NaX
DOI: 10.1021/jp3046356
Article source: Figure 4
Adsorbate Hydrogen: InChIKey UFHFLCQGNIYNRP-UHFFFAOYSA-N
Adsorbate Methane: InChIKey VNWKTOKETHGBQD-UHFFFAOYSA-N
Kind: experiment
Temperature: 298 K
Tabular data in the source: 0
pressure (bar)	Hydrogen fraction	Hydrogen uptake (mmol/g)	Methane fraction	Methane uptake (mmol/g)	total uptake (mmol/g)
2.154			0.5	0.4978	0
3.709			0.5	0.8533	0
7.897			0.5	1.6356	0
33.624			0.5	3.68	0
69.761			0.5	4.7467	0
