Adsorption isotherm of Carbon Dioxide on Cu-TDPAT
DOI: 10.1021/jp3046356
Article source: Figure 2
Adsorbate Carbon Dioxide: InChIKey CURLTUGMZLYLDI-UHFFFAOYSA-N
Kind: experiment
Isotherm type: absolute
Temperature: 273 K
Tabular data in the source: 0
pressure (bar)	uptake (mmol/g)
0.000904	0.295978
0.001143	0.356221
0.001307	0.403051
0.001519	0.436365
0.001953	0.498104
0.002347	0.558637
0.003018	0.594224
0.003508	0.660572
0.004217	0.715171
0.005155	0.747412
0.005796	0.788043
0.006852	0.816357
0.007702	0.860736
0.00926	0.899539
0.011508	0.94844
0.014305	1.01779
0.017783	1.11168
0.022475	1.22495
0.029376	1.36176
0.039048	1.48734
0.048529	1.63893
0.061348	1.82196
0.076261	2.07975
0.096383	2.35315
0.12388	2.7581
0.146454	3.26145
0.188235	3.78913
0.241936	4.4413
0.316228	5.25182
0.399669	6.26513
0.480507	7.21506
0.549288	7.67467
0.61759	8.02066
0.694384	8.53159
0.820729	9.23677
0.922784	9.78003
1.09094	10.2681
6.32266	16.5345
19.3999	20.0761
34.8498	22.9166
