Adsorption isotherm of Carbon Dioxide on Cu-TDPAT
DOI: 10.1021/Jp3046356
Adsorbate Carbon Dioxide: InChIKey CURLTUGMZLYLDI-UHFFFAOYSA-N
Temperature: 308 K
Tabular data in the source: 0
pressure (bar)	uptake (mmol/g)
0.00242449	0.0626542
0.00299357	0.077325
0.00369632	0.0954333
0.00540257	0.104786
0.00667083	0.129323
0.0078966	0.167244
0.00975012	0.216284
0.0115417	0.243101
0.0136625	0.307121
0.0175962	0.3452
0.021727	0.379036
0.0257194	0.436108
0.0317563	0.501774
0.0408997	0.563987
0.0650414	0.696049
0.0873756	0.800854
0.127711	1.03569
0.164481	1.1372
0.194705	1.30843
0.284585	1.5775
0.351389	1.81503
0.53572	2.29301
0.607971	2.76455
0.966825	3.49259
1.35478	4.41235
