Adsorption isotherm of Carbon Dioxide on Cu-TDPAT
DOI: 10.1021/Jp3046356
Adsorbate Carbon Dioxide: InChIKey CURLTUGMZLYLDI-UHFFFAOYSA-N
Temperature: 298 K
Tabular data in the source: 0
pressure (bar)	uptake (mmol/g)
0.1	0.60274
0.139263	0.821918
0.208206	0.876712
0.296895	1.0411
0.433497	1.36986
0.648103	1.69863
0.902567	1.9726
1.31784	2.52055
1.83527	2.9589
2.61703	3.67123
3.82113	4.43836
5.4488	5.42466
7.95582	6.46575
9.84353	7.12329
12.7691	8
16.5646	8.93151
20.4946	9.69863
25.3577	10.5205
28.5417	11.0137
34.4882	11.6712
40.6996	12.4384
54.0605	13.4247
70.1278	14.411
