Adsorption isotherm of Carbon Dioxide, Hydrogen on NaX
DOI: 10.1021/jp3046356
Article source: Figure 4
Adsorbate Carbon Dioxide: InChIKey CURLTUGMZLYLDI-UHFFFAOYSA-N
Adsorbate Hydrogen: InChIKey UFHFLCQGNIYNRP-UHFFFAOYSA-N
Kind: experiment
Temperature: 298 K
Tabular data in the source: 0
pressure (bar)	Carbon Dioxide fraction	Carbon Dioxide uptake (mmol/g)	Hydrogen fraction	Hydrogen uptake (mmol/g)	total uptake (mmol/g)
0.098833	0.2	0.7136			0
0.203095	0.2	1.342			0
0.42228	0.2	2.1898			0
0.878213	0.2	3.0926			0
1.826	0.2	3.9953			0
3.79752	0.2	4.6236			0
7.71259	0.2	5.0599			0
16.0361	0.2	5.4961			0
32.9534	0.2	5.9324			0
69.3426	0.2	6.4783			0
