Adsorption isotherm of Carbon Dioxide on Mg-MOF-74
DOI: 10.1021/Jp3046356
Adsorbate Carbon Dioxide: InChIKey CURLTUGMZLYLDI-UHFFFAOYSA-N
Temperature: 298 K
Tabular data in the source: 0
pressure (bar)	uptake (mmol/g)
0.0105813	2.53799
0.0197006	3.60972
0.0300975	4.37541
0.0410677	4.83436
0.0500484	5.21732
0.0592939	5.44667
0.0702474	5.67603
0.0809059	5.75177
0.0856091	5.82822
0.101423	6.05757
0.205534	6.74398
0.288485	7.04884
0.393633	7.43086
0.522145	7.65927
0.601369	7.65809
0.712461	8.04129
0.82056	8.27088
0.893141	8.3471
1	8.5
2.02651	9.80179
3.09598	10.7983
3.99234	11.4884
4.86538	12.0252
5.76416	12.4084
7.22597	12.6373
8.09049	13.0979
12.36	14.0175
16.8651	14.4764
20.5532	14.7824
29.6749	15.4717
39.3632	15.6232
52.2144	15.9285
58.4615	16.0814
69.2612	16.0031
75.3876	16.0793
84.4073	16.0783
102.866	16.2305
