Adsorption isotherm of Methane on MIL-101
DOI: 10.1021/Jp3046356
Adsorbate Methane: InChIKey VNWKTOKETHGBQD-UHFFFAOYSA-N
Temperature: 298 K
Tabular data in the source: 0
pressure (bar)	uptake (mmol/g)
1.91781	0.42306
3.83562	0.775449
8.39041	1.40919
10.5479	1.7968
13.4247	2.18404
16.5411	2.57116
20.3767	3.06392
23.9726	3.48613
26.8493	3.8027
29.4863	4.11939
32.1233	4.43608
34.2808	4.68234
37.637	5.034
41.4726	5.35009
44.589	5.66654
48.6644	6.01784
52.2603	6.36938
56.0959	6.7208
59.2123	7.03725
61.8493	7.28327
64.9658	7.56438
67.6027	7.84573
70.2397	8.09175
