Adsorption isotherm of Carbon Dioxide on Cu-TDPAT
DOI: 10.1021/Jp3046356
Adsorbate Carbon Dioxide: InChIKey CURLTUGMZLYLDI-UHFFFAOYSA-N
Temperature: 273 K
Tabular data in the source: 0
pressure (bar)	uptake (mmol/g)
0.00188248	0.293093
0.00232434	0.370278
0.00286999	0.436108
0.00354364	0.501774
0.00456394	0.550956
0.00587801	0.604959
0.0078966	0.679966
0.0101702	0.764274
0.0115417	0.819796
0.0148648	0.839185
0.0191448	0.965543
0.0279827	1.06018
0.0345509	1.1641
0.044499	1.21982
0.0623548	1.33938
0.0769928	1.54105
0.0950649	1.81503
0.117381	1.99293
0.151177	2.29301
0.178956	2.57732
0.230482	3.03553
0.351389	4.11351
0.433873	5.07673
0.558796	5.9793
0.661474	6.56537
0.816748	7.55393
0.9269	8.49051
1.05191	8.89691
1.35478	9.76895
7.63456	15.9606
23.8391	19.6979
36.3446	22.1401
