Adsorption isotherm of Nitrogen on Cu-TDPAT
DOI: 10.1021/Jp3046356
Adsorbate Nitrogen: InChIKey IJGRMHOSHXDMSA-UHFFFAOYSA-N
Temperature: 298 K
Tabular data in the source: 0
pressure (bar)	uptake (mmol/g)
0.1229	0.0519685
0.159035	0.0687955
0.205794	0.0869141
0.266301	0.115057
0.391998	0.155917
0.529518	0.216284
0.746679	0.307121
0.925588	0.370278
1.00863	0.406572
