Adsorption isotherm of Methane on Cu-TDPAT
DOI: 10.1021/Jp3046356
Adsorbate Methane: InChIKey VNWKTOKETHGBQD-UHFFFAOYSA-N
Temperature: 298 K
Tabular data in the source: 0
pressure (bar)	uptake (mmol/g)
0.0645208	0.0612068
0.0834911	0.0791553
0.103496	0.0932266
0.1229	0.112399
0.152348	0.138718
0.188851	0.167244
0.266301	0.231997
0.316228	0.293093
0.46549	0.406572
0.656393	0.563987
0.886668	0.78235
1.30518	1.11093
1.61791	1.43668
2.28144	1.85796
3.21709	2.40276
4.3457	3.25604
6.12792	4.01847
7.92965	5.1968
11.1818	6.41368
13.8609	7.55393
17.9362	8.29434
30.0338	9.76895
46.1509	11.5056
70.9169	12.9324
