Adsorption isotherm of Carbon Dioxide on MIL-101
DOI: 10.1021/Jp3046356
Adsorbate Carbon Dioxide: InChIKey CURLTUGMZLYLDI-UHFFFAOYSA-N
Temperature: 298 K
Tabular data in the source: 0
pressure (bar)	uptake (mmol/g)
0.0105813	1.07645
0.0197006	1.45588
0.0300975	1.68311
0.0377303	1.83506
0.0529578	1.83223
0.0682905	2.06088
0.0832243	2.29
0.101423	2.28834
0.199808	2.43653
0.296752	2.51015
0.404913	2.6614
0.507599	2.73643
0.601369	2.81194
0.712461	2.88745
0.893141	2.88556
1.05813	2.96107
2.02651	3.18641
2.92589	3.33719
3.99234	3.48844
5.44748	3.40892
6.27402	3.40774
7.64603	3.48301
10.4328	3.63426
19.9807	3.70576
28.0446	3.70293
41.6514	3.85347
55.2497	3.77419
77.5479	3.84828
91.8734	3.84686
100	3.84615
