Adsorption isotherm of Methane on Cu-TDPAT
DOI: 10.1021/jp3046356
Article source: Figure 2
Adsorbate Methane: InChIKey VNWKTOKETHGBQD-UHFFFAOYSA-N
Kind: experiment
Isotherm type: absolute
Temperature: 298 K
Tabular data in the source: 0
pressure (bar)	uptake (mmol/g)
0.062044	0.066371
0.204597	0.2355
0.277971	0.314811
0.429635	0.463586
0.529785	0.528993
0.731307	0.694832
1.16735	1.0692
2.01976	1.73444
2.29773	1.9446
3.32966	2.48783
3.97557	2.94036
4.74788	3.32575
5.66892	3.86216
6.99037	4.56478
7.82708	4.8549
8.62184	5.53936
10.8044	6.15659
15.16	7.21357
20.2628	8.2319
24.5923	9.22954
27.5296	9.73016
30.8177	10.2579
32.87	10.6255
36.2076	11.2016
40.5322	11.6035
44.6581	11.9143
48.4061	12.2335
55.0681	12.6724
61.6453	13.1268
67.9047	13.2437
81.0961	14.3357
