Adsorption isotherm of Carbon Dioxide on Zeolite 13X
DOI: 10.1021/Jp3046356
Adsorbate Carbon Dioxide: InChIKey CURLTUGMZLYLDI-UHFFFAOYSA-N
Temperature: 298 K
Tabular data in the source: 0
pressure (bar)	uptake (mmol/g)
0.0202652	0.763332
0.076461	2.13686
0.0905858	2.28929
0.101423	2.36527
0.205534	3.43629
0.314002	3.81737
0.416516	4.19962
0.49346	4.19821
0.584616	4.35064
0.692614	4.57999
0.972143	4.88485
2.02651	5.18641
3.00973	5.4908
4.86538	5.64063
5.76416	5.79306
7.02467	5.94526
8.32233	6.25153
10.4328	6.24965
19.4241	6.78292
29.6749	7.24092
41.6514	7.46885
49.3458	7.54436
60.1368	7.77348
73.2875	7.77183
86.826	7.92426
100	8
