Adsorption isotherm of Hydrogen on Cu-TDPAT
DOI: 10.1021/Jp3046356
Adsorbate Hydrogen: InChIKey UFHFLCQGNIYNRP-UHFFFAOYSA-N
Temperature: 298 K
Tabular data in the source: 0
pressure (bar)	uptake (mmol/g)
0.925588	0.109802
4.73558	0.501774
10.261	1.06018
20.4033	1.9019
32.7288	2.89687
42.3516	3.83492
50.291	4.51671
62.3419	5.1968
