Adsorption isotherm of Carbon Dioxide on Cu-TDPAT
DOI: 10.1021/jp3046356
Article source: Figure 2
Adsorbate Carbon Dioxide: InChIKey CURLTUGMZLYLDI-UHFFFAOYSA-N
Kind: experiment
Isotherm type: absolute
Temperature: 288 K
Tabular data in the source: 0
pressure (bar)	uptake (mmol/g)
0.000904	0.156819
0.001243	0.233249
0.001445	0.28572
0.001953	0.326144
0.002123	0.359385
0.002918	0.403051
0.003392	0.44023
0.003879	0.472422
0.004585	0.511458
0.005512	0.563586
0.006625	0.621012
0.00866	0.684305
0.010765	0.767468
0.015042	0.838243
0.020328	0.931859
0.028893	1.09222
0.037757	1.2142
0.046935	1.36176
0.060325	1.46134
0.077535	1.62454
0.096383	1.82196
0.121843	2.07975
0.156603	2.33249
0.194626	2.78253
0.241936	3.12069
0.300746	3.6578
0.386545	4.4413
0.480507	5.11458
0.568068	5.58637
0.638557	5.99487
0.705992	6.72342
0.767715	7.08876
0.862979	7.83592
0.986734	8.16357
6.99037	14.3579
19.7288	18.381
46.3127	23.74
