Adsorption isotherm of Nitrogen on Cu-TDPAT
DOI: 10.1021/Jp3046356
Adsorbate Nitrogen: InChIKey IJGRMHOSHXDMSA-UHFFFAOYSA-N
Temperature: 298 K
Tabular data in the source: 0
pressure (bar)	uptake (mmol/g)
0.166016	0.059793
0.205794	0.077325
0.244377	0.09769
0.316228	0.129323
0.409204	0.16338
0.507252	0.201636
0.577024	0.231997
0.746679	0.279705
0.849385	0.329432
1.00863	0.406572
