Adsorption isotherm of Carbon Dioxide on Cu-TDPAT
DOI: 10.1021/Jp3046356
Adsorbate Carbon Dioxide: InChIKey CURLTUGMZLYLDI-UHFFFAOYSA-N
Temperature: 298 K
Tabular data in the source: 0
pressure (bar)	uptake (mmol/g)
0.00113488	0.0531974
0.00134341	0.0612068
0.00159027	0.0755388
0.00204814	0.0954333
0.00275144	0.123416
0.00385549	0.1712
0.00517953	0.226637
0.00725788	0.300025
0.0110652	0.388
0.0155053	0.478854
0.0268269	0.633914
0.0464162	0.800854
0.0769928	1.01176
0.127711	1.30843
0.203092	1.6921
0.322967	2.29301
0.492389	2.96538
0.78302	3.74631
1.09722	4.84484
1.74485	5.9793
2.445	7.04232
3.28461	8.29434
4.60261	10
7.31929	12.3416
14.3718	14.8796
27.0539	17.9395
48.8247	19.6979
84.4773	20.6405
104.309	21.6287
