Adsorption isotherm of Carbon Dioxide on {[Cu(azpy)(glut)](H2O)2}
DOI: 10.1021/Cg2004672
Adsorbate Carbon Dioxide: InChIKey CURLTUGMZLYLDI-UHFFFAOYSA-N
Temperature: 195 K
Tabular data in the source: 0
pressure (bar)	uptake (ml/g)
0.00182509	1.30155
0.00619484	5.49651
0.00837971	7.3318
0.0236738	9.56037
0.0324133	11.7234
0.0564469	14.2142
0.102329	17.4915
0.159136	19.5234
0.25527	22.3419
0.351405	24.3738
0.460649	26.4713
0.554598	28.0444
0.659472	29.8142
0.759976	31.3217
0.808044	32.0427
0.856111	32.8948
