Adsorption isotherm of Water on {[Cu(azpy)(glut)](H2O)2}
DOI: 10.1021/Cg2004672
Adsorbate Water: InChIKey XLYOFNOQVPJJNP-UHFFFAOYSA-N
Temperature: 298 K
Tabular data in the source: 0
pressure (bar)	uptake (ml/g)
0.0848503	5.38406
0.121993	7.56894
0.17006	10.3
0.211573	15.216
0.248716	26.1404
0.270565	38.7034
0.285859	63.2832
0.290228	96.6026
0.303338	131.014
0.333926	146.308
0.386363	150.132
0.462833	155.594
0.593926	162.149
0.757791	170.342
0.851741	179.082
0.893254	208.031
