Adsorption isotherm of Methanol on {[Cu(azpy)(glut)](H2O)2}
DOI: 10.1021/Cg2004672
Adsorbate Methanol: InChIKey OKKJLVBELUTLKV-UHFFFAOYSA-N
Temperature: 293 K
Tabular data in the source: 0
pressure (bar)	uptake (ml/g)
0.0367831	3.90152
0.0586318	12.8595
0.0717411	23.7839
0.0870352	32.7419
0.104514	38.641
0.150397	45.1956
0.229052	52.8427
0.301153	58.5234
0.499976	68.5738
0.60922	72.9435
0.705355	76.8763
0.816783	84.3049
0.862665	87.1452
