Adsorption isotherm of Ethanol on {[Cu(azpy)(glut)](H2O)2}
DOI: 10.1021/Cg2004672
Adsorbate Ethanol: InChIKey LFQSCWFLJHTTHZ-UHFFFAOYSA-N
Temperature: 298 K
Tabular data in the source: 0
pressure (bar)	uptake (ml/g)
0.0564469	3.24606
0.0826654	7.17884
0.108884	11.3301
0.132918	14.8259
0.196279	21.3805
0.362329	28.8091
0.493422	32.3049
0.622329	35.5822
0.797119	41.2629
