Adsorption isotherm of Nitrogen on {[Cu(azpy)(glut)](H2O)2}
DOI: 10.1021/Cg2004672
Adsorbate Nitrogen: InChIKey IJGRMHOSHXDMSA-UHFFFAOYSA-N
Temperature: 77 K
Tabular data in the source: 0
pressure (bar)	uptake (ml/g)
0.00182509	0.25281
0.0236738	0.842726
0.0695562	0.711634
0.111069	1.30155
0.156951	1.236
0.194094	2.48138
0.272749	3.0713
0.342665	3.66121
0.419136	4.31668
0.493422	5.03768
0.561153	5.75869
0.652918	6.93852
0.705355	7.52844
0.786195	8.77382
0.860481	10.2158
0.899808	11.3957
