Adsorption isotherm of Carbon Dioxide on NH2-Uio-66(Zr)
DOI: 10.1002/chem.201301728
Adsorbate Carbon Dioxide: InChIKey CURLTUGMZLYLDI-UHFFFAOYSA-N
Temperature: 273 K
Tabular data in the source: 0
pressure (bar)	uptake (cm3(STP)/g)
0.00658518	1.56434
0.05521	9.57314
0.112416	17.3817
0.193934	26.1914
0.281173	34.1001
0.379853	41.5082
0.485683	47.9153
0.55576	51.7195
0.604385	54.1221
0.677322	57.4257
0.75884	61.0297
0.843219	64.2332
0.927597	67.4367
1.00196	70.1397
