Adsorption isotherm of Carbon Dioxide on NH2-Uio-66(Zr)
DOI: 10.1002/chem.201301728
Adsorbate Carbon Dioxide: InChIKey CURLTUGMZLYLDI-UHFFFAOYSA-N
Temperature: 273 K
Tabular data in the source: 0
pressure (bar)	uptake (cm3(STP)/g)
0.00801532	0.66335
0.0208866	3.66665
0.0409086	7.47083
0.0723718	12.176
0.106695	16.681
0.145309	21.1859
0.185353	25.4906
0.235408	29.6953
0.292614	34.3003
0.348389	38.4048
0.419897	43.0099
0.484253	46.5137
0.55719	49.9175
0.637278	53.8218
0.717366	57.2255
0.790304	60.1287
0.880403	63.3322
1.00482	67.6369
