Adsorption isotherm of Carbon Dioxide on NH2-Uio-66(Zr)
DOI: 10.1002/chem.201301728
Adsorbate Carbon Dioxide: InChIKey CURLTUGMZLYLDI-UHFFFAOYSA-N
Temperature: 273 K
Tabular data in the source: 0
pressure (bar)	uptake (cm3(STP)/g)
0.00944547	1.96478
0.0409086	7.47083
0.065221	11.3751
0.119566	18.2827
0.173912	24.0891
0.239698	30.4961
0.308345	36.1023
0.387003	41.4081
0.485683	46.9142
0.571492	51.2189
0.65158	54.923
0.721657	57.9263
0.784583	60.3289
0.870392	63.5324
0.996244	67.6369
