Adsorption isotherm of Carbon Dioxide on UiO-66(Zr)
DOI: 10.1002/chem.201301728
Adsorbate Carbon Dioxide: InChIKey CURLTUGMZLYLDI-UHFFFAOYSA-N
Temperature: 273 K
Tabular data in the source: 0
pressure (bar)	uptake (cm3(STP)/g)
0.00801532	0.56324
0.0537799	4.06709
0.125287	8.77226
0.212526	14.879
0.294044	20.2849
0.368411	24.7899
0.461371	29.495
0.560051	34.8009
0.637278	38.5049
0.718796	41.8086
0.803175	45.3124
0.891844	48.4158
1.00053	52.6204
