Adsorption isotherm of Carbon Dioxide on f Zn4O(TPB)4/3(BDC)
DOI: 10.1039/c4ce01400f
Article source: Figure 6 inset
Adsorbate Carbon Dioxide: InChIKey CURLTUGMZLYLDI-UHFFFAOYSA-N
Kind: experiment
Temperature: 273 K
Tabular data in the source: 0
pressure (bar)	uptake (cm3(STP)/g)
0.000242	0.167286
0.000725	0.501859
0.00145	0.669145
0.003383	1.50558
0.004591	2.17472
0.005074	2.34201
0.007249	3.17844
0.009907	4.68401
0.012323	5.52045
0.012806	6.18959
0.013289	6.0223
0.015464	6.85874
0.016672	7.52788
0.017638	7.86245
0.018605	8.36431
0.01933	8.86617
0.020055	9.20074
0.020538	9.36803
0.022471	10.2045
0.02537	11.2082
0.027545	12.2119
0.030686	13.5502
0.032619	14.3866
0.035035	15.5576
0.035518	15.5576
0.037693	16.5613
0.040109	17.5651
0.040834	17.7323
0.043009	18.9033
0.043975	19.2379
0.044942	19.7398
0.045667	19.9071
0.046391	20.2416
0.046875	20.4089
0.047841	20.5762
0.048324	20.9108
0.049049	21.0781
0.050257	21.7472
0.050982	22.0818
0.052915	22.9182
0.05509	23.9219
0.056056	24.0892
0.057989	25.0929
0.059922	25.9294
0.06113	26.2639
0.062097	26.5985
0.065238	27.9368
0.065963	28.1041
0.068137	28.9405
0.070795	30.1115
0.071278	30.2788
0.076111	32.119
0.08046	33.9591
0.080943	34.1264
0.083359	35.1301
0.085293	35.9665
0.086259	36.3011
0.088192	36.9703
0.090608	37.974
0.091333	38.3086
0.093266	39.145
0.095441	39.8141
0.096407	40.4833
