Adsorption isotherm of Ethene on BPL Carbon
DOI: 10.1007/s10450-018-9947-0
Article source: Figure 1
Adsorbate Ethene: InChIKey VGGSQFUCUMXWEO-UHFFFAOYSA-N
Kind: experiment
Temperature: 260 K
Tabular data in the source: 0
pressure (bar)	uptake (mmol/g)
0.104199	1.78384
0.281851	2.73418
0.469751	3.23272
0.895089	3.93379
1.15132	4.17527
2.03786	4.79065
