Adsorption isotherm of Ethene on BPL Carbon
DOI: 10.1007/s10450-018-9947-0
Article source: Figure 1
Adsorbate Ethene: InChIKey VGGSQFUCUMXWEO-UHFFFAOYSA-N
Kind: experiment
Temperature: 212 K
Tabular data in the source: 0
pressure (bar)	uptake (mmol/g)
0.015374	1.86173
0.039288	3.02239
0.066619	3.73126
0.191317	4.74391
0.351886	5.32814
0.729395	5.99805
1.06078	6.35638
1.52029	6.6446
