Adsorption isotherm of Ethene on BPL Carbon
DOI: 10.1007/s10450-018-9947-0
Article source: Figure 1
Adsorbate Ethene: InChIKey VGGSQFUCUMXWEO-UHFFFAOYSA-N
Kind: experiment
Temperature: 301 K
Tabular data in the source: 0
pressure (bar)	uptake (mmol/g)
0.172527	0.95813
0.415089	1.58131
0.819929	2.22785
1.16498	2.57059
1.56982	2.89776
