Adsorption isotherm of Tritium on Carbon Nanotube
DOI: 10.1063/1.1423665
Adsorbate Tritium: InChIKey UFHFLCQGNIYNRP-JMRXTUGHSA-N
Temperature: 20 K
Tabular data in the source: 0
pressure (bar)	uptake (mmol/g)
6.73446e-24	0.022733
3.37212e-23	0.101182
1.63081e-22	0.498014
8.75796e-22	1.4397
4.23451e-21	2.05587
2.19585e-20	2.28292
1.13895e-19	2.3826
5.90613e-19	2.46107
