Adsorption isotherm of Deuterium on Carbon Nanotube
DOI: 10.1063/1.1423665
Adsorbate Deuterium: InChIKey UFHFLCQGNIYNRP-VVKOMZTBSA-N
Temperature: 20 K
Tabular data in the source: 0
pressure (bar)	uptake (mmol/g)
6.63e-08	0.0186916
1.58e-07	0.0186916
3.74e-07	0.046729
8.43e-07	0.0560748
2.92e-06	0.0747664
6.94e-06	0.0841121
1.65e-05	0.121495
2.84e-05	0.196262
4.62e-05	0.299065
6.4e-05	0.411215
9.37e-05	0.579439
0.000110371	0.691589
0.000123195	0.82243
0.00016195	1.05607
0.00020164	1.27103
0.000251025	1.47664
0.00029628	1.73832
0.000349695	2
0.000391113	2.28037
