Adsorption isotherm of Hydrogen on Carbon Nanotube
DOI: 10.1063/1.1423665
Adsorbate Hydrogen: InChIKey UFHFLCQGNIYNRP-UHFFFAOYSA-N
Temperature: 20 K
Tabular data in the source: 0
pressure (bar)	uptake (mmol/g)
1.33322e-07	0
1.2783e-06	0.00938967
1.12477e-05	0.122066
4.63632e-05	0.460094
0.000136317	0.938967
0.0012693	2.34742
0.0131682	2.59155
0.729765	2.78873
