Adsorption isotherm of Deuterium on Carbon Nanotube
DOI: 10.1063/1.1423665
Adsorbate Deuterium: InChIKey UFHFLCQGNIYNRP-VVKOMZTBSA-N
Temperature: 20 K
Tabular data in the source: 0
pressure (bar)	uptake (mmol/g)
1.44845e-17	0.0375587
7.08929e-17	0.169014
3.44194e-16	0.694836
1.65388e-15	1.70892
7.35873e-15	2.39437
8.28902e-14	2.70423
5.43855e-12	2.83568
