Adsorption isotherm of Hydrogen on Carbon Nanotube
DOI: 10.1063/1.1423665
Adsorbate Hydrogen: InChIKey UFHFLCQGNIYNRP-UHFFFAOYSA-N
Temperature: 20 K
Tabular data in the source: 0
pressure (bar)	uptake (mmol/g)
1.34494e-24	0.000887797
6.97434e-24	-0.00555546
3.49304e-23	0.0233652
1.63081e-22	0.207919
8.16588e-22	0.774576
4.23451e-21	1.60304
2.12033e-20	2.00696
1.13895e-19	2.17034
5.703e-19	2.29124
2.85564e-18	2.34139
