Adsorption isotherm of Hydrogen on Carbon Nanotube
DOI: 10.1063/1.1423665
Adsorbate Hydrogen: InChIKey UFHFLCQGNIYNRP-UHFFFAOYSA-N
Temperature: 20 K
Tabular data in the source: 0
pressure (bar)	uptake (mmol/g)
3.79667e-16	0
8.4082e-15	0.0187793
4.11911e-14	0.112676
2.00421e-13	0.525822
4.57565e-13	1.0892
1.04793e-12	1.50235
5.07403e-12	2.15023
2.47767e-11	2.39437
1.2108e-10	2.60094
6.46045e-10	2.61033
