Adsorption isotherm of Tritium on Carbon Nanotube
DOI: 10.1063/1.1423665
Adsorbate Tritium: InChIKey UFHFLCQGNIYNRP-JMRXTUGHSA-N
Temperature: 20 K
Tabular data in the source: 0
pressure (bar)	uptake (mmol/g)
1.3327e-11	0.0187793
1.38641e-10	0.131455
1.19755e-09	1.12676
1.21343e-08	2.49765
1.25295e-07	2.96714
1.19873e-06	3.07981
1.15049e-05	3.04225
