Adsorption isotherm of Tritium on Carbon Nanotube
DOI: 10.1063/1.1423665
Adsorbate Tritium: InChIKey UFHFLCQGNIYNRP-JMRXTUGHSA-N
Temperature: 20 K
Tabular data in the source: 0
pressure (bar)	uptake (mmol/g)
5.08866e-19	0.00938967
2.71021e-18	0.112676
6.23883e-18	0.28169
1.21396e-17	0.478873
3.01858e-17	0.957746
6.33145e-17	1.57746
3.32662e-16	2.31925
1.49143e-15	2.6385
3.57687e-14	2.85446
2.25503e-13	2.89202
1.0179e-12	2.89202
