Adsorption isotherm of Tritium on Carbon Nanotube
DOI: 10.1063/1.1423665
Adsorbate Tritium: InChIKey UFHFLCQGNIYNRP-JMRXTUGHSA-N
Temperature: 20 K
Tabular data in the source: 0
pressure (bar)	uptake (mmol/g)
1.44e-11	0.0280374
2.91e-11	0.0560748
9.56e-11	0.0934579
1.83e-10	0.186916
2.98e-10	0.28972
4.36e-10	0.373832
5.73e-10	0.495327
7.94e-10	0.700935
9.88e-10	0.869159
1.37e-09	1.08411
1.53e-09	1.33645
1.71e-09	1.50467
1.91e-09	1.73832
2.38e-09	2.01869
2.66e-09	2.2243
