Adsorption isotherm of Nitrogen on CuBTC
DOI: 10.1016/j.micromeso.2011.02.003
Adsorbate Nitrogen: InChIKey IJGRMHOSHXDMSA-UHFFFAOYSA-N
Temperature: 77 K
Tabular data in the source: 0
pressure (bar)	uptake (cm3(STP)/g)
0.00987317	171.124
0.021721	173.319
0.037518	175.509
0.0493659	178.808
0.0730615	180.99
0.0987317	182.064
0.124402	183.139
0.154021	185.314
0.173768	185.291
0.197463	186.369
0.221159	186.342
0.24288	187.421
0.26855	187.392
0.292246	188.469
0.313967	188.444
0.339637	189.519
0.359383	189.497
0.387028	189.466
0.410724	189.439
0.464039	190.482
0.481811	190.462
0.509456	191.535
0.556847	192.585
0.580542	192.558
0.631883	193.604
0.655579	193.577
0.681249	194.652
0.750361	194.573
0.776031	196.752
0.823422	198.906
0.847118	197.775
0.876738	199.95
0.896484	203.24
0.92018	208.733
0.932027	215.345
0.935977	225.277
0.94585	278.263
0.965596	300.322
