Adsorption isotherm of Nitrogen on CuBTC
DOI: 10.1016/j.micromeso.2011.02.003
Adsorbate Nitrogen: InChIKey IJGRMHOSHXDMSA-UHFFFAOYSA-N
Temperature: 77 K
Tabular data in the source: 0
pressure (bar)	uptake (cm3(STP)/g)
0.00826674	55.9403
0.016197	60.7556
0.0340003	65.5611
0.0498163	68.4393
0.0735372	72.2743
0.09922	74.178
0.126877	76.0798
0.148598	76.0582
0.174287	78.9266
0.196008	78.9051
0.217742	80.8127
0.241443	81.7538
0.269095	82.691
0.288853	84.6007
0.316498	84.5732
0.342181	86.477
0.363902	86.4554
0.38761	88.3611
0.415261	89.2983
0.440931	89.2728
0.462658	90.2159
0.48636	91.157
0.519935	92.0883
0.541662	93.0313
0.575243	94.9272
0.602894	95.8644
0.634488	95.833
0.662152	98.6995
0.691784	100.599
0.723384	101.533
0.747099	104.403
0.778718	108.23
0.808376	113.988
0.836071	121.678
0.867741	133.222
0.895481	147.664
0.921462	194.905
0.961399	262.389
