Adsorption isotherm of Nitrogen on CuBTC
DOI: 10.1016/j.micromeso.2011.02.003
Adsorbate Nitrogen: InChIKey IJGRMHOSHXDMSA-UHFFFAOYSA-N
Temperature: 77 K
Tabular data in the source: 0
pressure (bar)	uptake (cm3(STP)/g)
0.0105715	106.099
0.0165335	111.881
0.0461909	117.639
0.07188	120.507
0.101525	124.336
0.123252	125.28
0.152884	127.179
0.172637	128.124
0.196345	130.03
0.222015	130.005
0.245723	131.91
0.269418	131.887
0.291152	133.795
0.314847	133.771
0.340517	133.745
0.366194	134.685
0.387921	135.628
0.409648	136.571
0.435318	136.545
0.462969	137.482
0.486665	137.459
0.512335	137.433
0.536037	138.375
0.559732	138.351
0.587383	139.288
0.605161	140.235
0.628857	140.212
0.656508	141.149
0.680203	141.125
0.705879	142.064
0.7276	142.043
0.753277	142.982
0.776979	143.923
0.800674	143.9
0.82635	144.839
0.846109	146.748
0.871786	147.687
0.891557	151.526
0.917259	156.324
0.93312	165.955
0.941063	172.699
0.951006	183.3
0.959088	211.266
