Adsorption isotherm of Nitrogen on CuBTC
DOI: 10.1016/j.micromeso.2011.02.003
Adsorbate Nitrogen: InChIKey IJGRMHOSHXDMSA-UHFFFAOYSA-N
Temperature: 77 K
Tabular data in the source: 0
pressure (bar)	uptake (cm3(STP)/g)
0.00987317	3.30108
0.043442	4.36703
0.0750361	5.43523
0.100706	5.40606
0.120453	5.38361
0.146123	5.35444
0.171793	5.32527
0.195489	5.29834
0.219184	6.37551
0.244855	5.24224
0.266576	5.21755
0.290271	6.29472
0.339637	6.23862
0.365307	5.10534
0.390978	7.28437
0.412699	7.25969
0.43442	6.1309
0.458115	6.10397
0.487735	7.17441
0.533151	6.0187
0.560796	7.09138
0.578568	7.07118
0.608187	7.03752
0.627934	8.11918
0.653604	6.98591
0.681249	8.05859
0.70297	8.03391
0.72864	8.00473
0.752336	6.8737
0.776031	7.95087
0.801701	9.0258
0.825397	7.89477
0.849093	8.97194
0.874763	8.94277
0.898459	10.0199
0.912281	13.3165
0.934002	15.5001
0.949799	22.1067
0.957698	28.7223
