Adsorption isotherm of Nitrogen on CuBTC
DOI: 10.1016/j.micromeso.2011.02.003
Adsorbate Nitrogen: InChIKey IJGRMHOSHXDMSA-UHFFFAOYSA-N
Temperature: 77 K
Tabular data in the source: 0
pressure (bar)	uptake (cm3(STP)/g)
0.0118478	94.9392
0.0236956	98.2381
0.043442	101.528
0.0750361	103.7
0.0987317	104.777
0.122427	104.75
0.146123	106.932
0.171793	108.007
0.19154	106.88
0.21721	107.955
0.240905	109.032
0.270525	108.999
0.290271	110.08
0.317916	112.257
0.341612	112.23
0.363333	112.205
0.509456	116.456
0.582517	117.477
0.608187	118.552
0.752336	123.908
0.776031	128.298
0.801701	130.477
0.825397	135.97
0.849093	142.568
0.872788	151.374
0.892535	156.872
0.902408	162.381
0.926103	183.332
0.937951	202.089
0.953748	218.632
