Adsorption isotherm of Nitrogen on CuBTC
DOI: 10.1016/j.micromeso.2011.02.003
Adsorbate Nitrogen: InChIKey IJGRMHOSHXDMSA-UHFFFAOYSA-N
Temperature: 77 K
Tabular data in the source: 0
pressure (bar)	uptake (cm3(STP)/g)
0.00987317	69.5471
0.0197463	71.7441
0.0296195	75.0452
0.0394927	73.9299
0.0513405	76.1246
0.0710868	76.1022
0.102681	78.2745
0.124402	79.3539
0.148098	80.4311
0.173768	80.4019
0.197463	82.5832
0.221159	81.4521
0.24288	82.5315
0.270525	82.5001
0.292246	83.5795
0.315941	83.5526
0.341612	83.5234
0.369257	84.5961
0.389003	84.5737
0.412699	84.5468
0.440343	85.6194
0.46009	85.597
0.48576	86.6719
0.509456	86.645
0.535126	86.6158
0.556847	87.6952
0.582517	88.7702
0.608187	88.741
0.631883	89.8182
0.655579	90.8953
0.681249	90.8662
0.70297	91.9456
0.72864	94.1246
0.752336	94.0977
0.778006	96.2767
0.799727	98.4602
0.823422	101.746
0.851067	105.026
0.872788	110.522
0.884636	114.925
0.896484	119.328
0.902408	123.738
0.914256	129.245
0.924129	135.858
0.932027	143.578
0.9419	152.4
0.949799	161.223
0.957698	168.943
