Adsorption isotherm of Nitrogen on CuBTC
DOI: 10.1016/j.micromeso.2011.02.003
Adsorbate Nitrogen: InChIKey IJGRMHOSHXDMSA-UHFFFAOYSA-N
Temperature: 77 K
Tabular data in the source: 0
pressure (bar)	uptake (cm3(STP)/g)
0.00987317	98.2538
0.021721	101.553
0.0454166	102.63
0.0730615	104.807
0.0987317	108.09
0.120453	109.169
0.146123	110.244
0.171793	110.215
0.195489	109.084
0.219184	111.265
0.244855	111.236
0.266576	112.315
0.292246	113.39
0.319891	113.359
0.339637	113.336
0.365307	113.307
0.389003	114.384
0.414673	115.459
0.483785	116.485
0.51143	117.558
0.533151	117.533
0.558821	118.608
0.584492	118.579
0.608187	119.656
0.631883	120.733
0.655579	120.706
0.6773	121.785
0.700995	121.759
0.72864	123.935
0.752336	123.908
0.776031	124.986
0.797752	126.065
0.825397	131.554
0.847118	133.738
0.872788	140.333
0.886611	145.838
0.898459	149.137
0.910306	155.748
0.92018	163.465
0.928078	175.601
0.937951	198.776
0.94585	205.392
0.955723	214.214
