Adsorption isotherm of Nitrogen on ZIF-8 (crystal = 88 micrometers)
DOI: 10.1021/acs.jpcc.5b09520
Article source: Figure 4
Adsorbate Nitrogen: InChIKey IJGRMHOSHXDMSA-UHFFFAOYSA-N
Kind: experiment
Temperature: 77 K
Tabular data in the source: 0
pressure (bar)	uptake (cm3(STP)/g)
0.000124	45.2899
0.000168	71.558
0.000202	88.7681
0.000214	104.167
0.000257	121.377
0.000273	138.587
0.000308	156.703
0.000358	173.913
0.00043	191.123
0.000531	208.333
0.000636	224.638
0.000887	242.754
0.001237	258.152
0.001946	276.268
0.004143	296.196
0.004675	300.725
0.004818	303.442
0.004966	312.5
0.005275	331.522
0.005437	338.768
0.005953	345.109
0.006136	353.261
0.006324	385.87
0.006518	421.196
0.006924	423.913
0.01057	423.913
0.016632	423.913
0.030437	424.819
0.055703	424.819
0.073112	423.007
0.087645	424.819
0.10829	422.101
0.133799	425.725
0.165316	422.101
0.198178	426.63
0.216983	422.101
0.252372	425.725
0.284797	423.007
0.331248	423.007
0.362679	428.442
0.397093	423.913
0.476028	423.913
0.521198	427.536
0.606205	423.913
0.663727	427.536
0.749001	423.913
0.820074	428.442
0.89789	424.819
1.01325	426.63
1.04434	428.442
