Adsorption isotherm of Nitrogen on ZnO@ZIF-8
DOI: 10.1021/acs.jpcc.5b09520
Article source: Figure 4
Adsorbate Nitrogen: InChIKey IJGRMHOSHXDMSA-UHFFFAOYSA-N
Kind: experiment
Temperature: 77 K
Tabular data in the source: 0
pressure (bar)	uptake (cm3(STP)/g)
3e-05	15.3986
7.9e-05	30.7971
0.000121	48.913
0.000163	65.2174
0.000196	81.5217
0.000235	98.7319
0.000273	115.036
0.000308	132.246
0.000369	147.645
0.00043	164.855
0.000531	181.159
0.000676	196.558
0.000887	211.957
0.001096	219.203
0.001777	238.225
0.003062	253.623
0.004966	262.681
0.005776	269.022
0.006136	272.645
0.007814	285.326
0.009088	291.667
0.009367	294.384
0.010895	302.536
0.011229	297.101
0.013461	317.029
0.016632	308.877
0.019344	334.239
0.02118	322.464
0.02539	335.145
0.027799	346.92
0.033325	346.92
0.04936	355.978
0.054044	357.79
0.075354	361.413
0.082504	363.225
0.098905	364.13
0.105067	365.942
0.150989	367.754
0.204258	372.283
0.260115	371.377
0.311821	375.906
0.351883	373.188
0.409275	376.812
0.461859	375
0.476028	379.529
0.537187	377.717
0.624802	382.246
0.663727	379.529
0.749001	385.87
0.795664	384.964
0.820074	391.304
0.89789	440.217
0.925436	417.572
0.98309	446.558
1.01325	469.203
