Adsorption isotherm of Argon on ZIF-8 (crystal = 2.1 micrometers)
DOI: 10.1021/acs.jpcc.5b09520
Article source: Figure 5b
Adsorbate Argon: InChIKey XKRFYHLGVUSROY-UHFFFAOYSA-N
Kind: experiment
Temperature: 87 K
Tabular data in the source: 0
pressure (bar)	uptake (cm3(STP)/g)
0	-2.74682
0	16.9518
0	25.4277
0	64.9819
0	113.091
0	186.47
0	330.56
0.000843	350.259
0.001097	305.054
0.001431	245.723
0.012055	358.421
0.026114	360.854
0.042989	363.208
0.059863	365.563
0.068276	370.978
0.082351	370.585
0.099226	372.94
0.118915	375.216
0.130175	374.902
0.152663	379.925
0.175168	382.122
0.189226	384.555
0.200487	384.241
0.217361	386.596
0.237051	388.871
0.253925	391.226
0.268	390.833
0.276191	435.803
0.281502	492.152
0.281646	466.724
0.284874	393.188
0.292699	503.139
0.298949	392.795
0.301096	511.38
0.31234	513.891
0.315824	395.15
0.326415	513.499
0.327068	397.661
0.334861	513.263
0.335465	405.902
0.34383	419.793
0.346105	515.775
0.349302	447.889
0.357619	470.256
0.362995	515.304
0.363106	495.527
0.374239	517.815
0.388299	520.248
0.407988	522.524
0.416417	525.114
0.427677	524.8
0.444567	524.329
0.458626	526.762
0.475516	526.291
0.498005	531.314
0.514895	530.843
0.534585	533.119
0.551474	532.648
0.562719	535.159
0.571164	534.924
0.582424	534.61
0.596483	537.043
0.616189	536.493
0.624618	539.083
0.647137	538.456
0.664012	540.81
0.680902	540.339
0.692146	542.85
0.711835	545.126
0.725911	544.734
0.759675	546.617
0.770935	546.304
0.810329	548.03
0.860984	549.443
0.866598	552.111
0.905977	556.663
0.956647	555.25
1.00162	565.296
