Adsorption isotherm of Argon on ZIF-8 (crystal = 0.33 micrometers)
DOI: 10.1021/acs.jpcc.5b09520
Article source: Figure 5b
Adsorbate Argon: InChIKey XKRFYHLGVUSROY-UHFFFAOYSA-N
Kind: experiment
Temperature: 87 K
Tabular data in the source: 0
pressure (bar)	uptake (cm3(STP)/g)
0	0
0	25.4717
0	48.1132
0	116.038
0	178.302
0	237.736
0	277.358
0	316.981
0	336.792
0	350.943
0.007046	356.604
0.02417	365.094
0.032774	367.925
0.052875	373.585
0.073058	376.415
0.087369	382.075
0.10747	387.736
0.122027	384.906
0.147836	393.396
0.168101	393.396
0.182494	396.226
0.193911	401.887
0.208385	401.887
0.220048	399.057
0.237254	404.717
0.248752	407.547
0.260331	407.547
0.268935	410.377
0.291848	418.868
0.308645	438.679
0.312113	418.868
0.316265	475.472
0.321154	506.604
0.323475	526.415
0.329401	421.698
0.332079	529.245
0.343577	532.075
0.343795	424.528
0.354992	537.736
0.35827	424.528
0.366573	537.736
0.372663	427.358
0.378071	540.566
0.386591	546.226
0.389869	433.019
0.395359	543.396
0.406775	549.057
0.407157	435.849
0.418355	549.057
0.426958	551.887
0.430153	441.509
0.438456	554.717
0.449954	557.547
0.450255	447.17
0.461534	557.547
0.467543	450
0.473032	560.377
0.487234	469.811
0.487425	563.208
0.495346	489.623
0.503211	517.925
0.510503	566.038
0.51124	540.566
0.522411	554.717
0.539371	568.868
0.562449	571.698
0.573947	574.528
0.588341	577.358
0.597025	577.358
0.622917	583.019
0.674863	588.679
0.680571	591.509
0.726727	597.17
0.775778	602.83
0.824747	611.321
0.873798	616.981
0.919791	628.302
0.962724	645.283
0.993094	696.226
