Adsorption isotherm of Argon on ZIF-8 (crystal = 0.47 micrometers)
DOI: 10.1021/acs.jpcc.5b09520
Article source: Figure 5b
Adsorbate Argon: InChIKey XKRFYHLGVUSROY-UHFFFAOYSA-N
Kind: experiment
Temperature: 87 K
Tabular data in the source: 0
pressure (bar)	uptake (cm3(STP)/g)
0	-0.002857
0	194.972
0.002895	342.937
0.01158	356.664
0.020265	362.011
0.055005	366.64
0.06948	369.034
0.08685	374.142
0.10422	376.457
0.12159	375.978
0.141855	381.006
0.16791	380.287
0.18528	382.602
0.193965	390.742
0.20265	393.296
0.21423	392.977
0.22581	392.658
0.23739	392.338
0.246075	392.099
0.257655	394.573
0.26634	391.54
0.28371	396.648
0.303975	396.089
0.30687	488.188
0.309765	504.868
0.31845	507.422
0.33003	509.896
0.332925	395.291
0.34161	512.37
0.3474	394.892
0.350295	514.924
0.361875	514.605
0.36477	397.207
0.37056	517.159
0.37635	516.999
0.38214	396.728
0.390825	516.6
0.39951	396.249
0.408195	518.915
0.41688	398.563
0.42267	518.516
0.43425	403.671
0.442935	406.225
0.44583	520.67
0.45162	414.366
0.45741	430.966
0.460305	481.165
0.4632	520.192
0.47478	519.872
0.477675	500.239
0.483465	516.84
0.495045	519.314
0.50373	519.074
0.518205	518.675
0.52689	518.436
0.53847	520.91
0.547155	520.67
0.570315	517.239
0.576105	519.872
0.587685	519.553
0.59637	516.52
0.61953	518.675
0.6369	520.99
0.651375	520.591
0.686115	525.219
0.697695	522.107
0.73533	529.449
0.74691	526.337
0.78744	533.599
0.79902	533.28
0.836655	537.829
0.842445	534.876
0.888765	539.186
0.89166	539.106
0.93219	543.575
0.987195	547.646
1.02483	568.955
