Adsorption isotherm of Argon on ZIF-8 (crystal = 0.060 micrometers)
DOI: 10.1021/acs.jpcc.5b09520
Article source: Figure 7
Adsorbate Argon: InChIKey XKRFYHLGVUSROY-UHFFFAOYSA-N
Kind: experiment
Temperature: 79 K
Tabular data in the source: 0
pressure (bar)	uptake (cm3(STP)/g)
0.007934	405.156
0.014413	410.969
0.020907	414.833
0.029575	418.687
0.03388	424.51
0.044722	428.354
0.048929	447.814
0.050962	467.284
0.051202	434.166
0.05267	531.562
0.052797	514.029
0.052924	496.496
0.054731	547.136
0.054773	541.292
0.059051	551.011
0.062058	436.061
0.06337	554.886
0.070739	437.967
0.072038	558.74
0.077219	443.78
0.078532	562.605
0.085026	566.469
0.085901	445.686
0.091548	566.437
0.092395	449.55
0.098041	570.302
0.098874	455.363
0.103123	468.978
0.10318	461.186
0.104549	572.218
0.105029	505.982
0.105184	484.553
0.10702	531.297
0.111226	550.757
0.115405	574.113
0.126261	576.008
0.132755	579.873
0.141422	583.727
0.145784	581.758
0.154466	583.663
0.169656	587.485
0.176178	587.454
