Adsorption isotherm of Argon on ZIF-8 (crystal = 1.2 micrometers)
DOI: 10.1021/acs.jpcc.5b09520
Article source: Figure 5b
Adsorbate Argon: InChIKey XKRFYHLGVUSROY-UHFFFAOYSA-N
Kind: experiment
Temperature: 87 K
Tabular data in the source: 0
pressure (bar)	uptake (cm3(STP)/g)
0	35.5424
0	284.932
0.002739	0.074047
0.016431	353.869
0.035601	362.606
0.043816	365.568
0.065724	371.64
0.084894	374.898
0.095848	377.934
0.115018	381.192
0.12871	381.562
0.150619	387.634
0.172526	390.966
0.186219	394.076
0.199911	394.447
0.208127	397.408
0.219081	400.444
0.227296	400.666
0.235512	400.889
0.243728	403.85
0.271113	407.331
0.287544	413.254
0.290282	437.986
0.29576	512.107
0.301236	528.693
0.303975	413.699
0.31219	534.469
0.320406	531.951
0.328621	534.913
0.339576	537.949
0.35053	538.245
0.356006	426.064
0.361484	541.281
0.369699	544.243
0.377915	544.465
0.380654	432.21
0.391607	547.575
0.394346	449.019
0.402561	498.556
0.413515	550.907
0.42447	553.943
0.432685	543.206
0.440901	554.387
0.451855	557.423
0.46007	557.645
0.468286	557.867
0.487455	563.865
0.501148	564.235
0.525795	567.642
0.547703	570.974
0.569611	574.306
0.586042	577.49
0.605211	578.008
0.651766	587.486
0.659981	584.969
0.70106	591.559
0.709275	597.26
0.744876	598.223
0.796907	605.109
0.840724	614.513
0.887279	618.512
0.933833	627.99
0.969434	659.089
