Adsorption isotherm of Argon on ZIF-8 (crystal = 0.060 micrometers)
DOI: 10.1021/acs.jpcc.5b09520
Article source: Figure 7
Adsorbate Argon: InChIKey XKRFYHLGVUSROY-UHFFFAOYSA-N
Kind: experiment
Temperature: 84 K
Tabular data in the source: 0
pressure (bar)	uptake (cm3(STP)/g)
0.044835	412.769
0.053517	414.674
0.062199	416.58
0.068707	418.497
0.077388	420.402
0.08391	420.371
0.092578	424.224
0.099086	426.141
0.105608	426.109
0.114304	426.067
0.122986	427.972
0.131653	431.826
0.138161	433.743
0.144683	433.711
0.155483	443.399
0.157713	435.596
0.161553	505.707
0.161765	476.485
0.165717	531.011
0.166395	437.501
0.167821	540.741
0.170729	439.428
0.174314	544.606
0.17862	550.429
0.181585	441.323
0.185947	439.354
0.18949	550.376
0.19381	554.251
0.194629	441.26
0.200332	554.219
0.203325	441.218
0.206825	558.084
0.211992	445.071
0.215521	558.041
0.216354	443.102
0.222862	445.019
0.224203	559.947
0.229384	444.987
0.230711	561.863
0.237233	561.832
0.240226	448.83
0.245915	563.737
0.246748	448.798
0.251096	448.777
0.252409	567.602
0.257618	448.745
0.258931	567.57
0.264126	450.662
0.267627	567.528
0.272807	452.567
0.279329	452.536
0.280656	569.412
0.287164	571.329
0.290185	454.431
0.293686	571.297
0.296665	460.244
0.300208	571.265
0.303088	473.849
0.305135	491.371
0.308876	575.119
0.309271	520.572
0.313407	549.772
0.315412	573.139
0.32192	575.056
0.328428	576.972
0.337124	576.93
0.341486	574.96
0.350168	576.866
0.358849	578.772
0.365371	578.74
0.371879	580.656
0.380575	580.614
0.387097	580.582
0.397967	580.529
0.406649	582.435
0.415331	584.341
0.421839	586.257
0.430549	584.267
0.437043	588.131
0.445753	586.141
