Adsorption isotherm of Argon on ZIF-8 (crystal = 88 micrometers)
DOI: 10.1021/acs.jpcc.5b09520
Article source: Figure 7
Adsorbate Argon: InChIKey XKRFYHLGVUSROY-UHFFFAOYSA-N
Kind: experiment
Temperature: 84 K
Tabular data in the source: 0
pressure (bar)	uptake (cm3(STP)/g)
0.07436	401.961
0.080874	400
0.087475	401.961
0.098446	403.922
0.10719	403.922
0.11379	405.882
0.122576	407.843
0.129133	407.843
0.131405	411.765
0.134062	533.333
0.135905	517.647
0.136633	450.98
0.137876	407.843
0.139634	488.235
0.142977	541.176
0.144391	405.882
0.150991	407.843
0.151763	543.137
0.154677	476.471
0.155363	407.843
0.156006	437.255
0.156177	545.098
0.160591	547.059
0.164149	409.804
0.16642	513.725
0.169377	549.02
0.175978	550.98
0.182278	539.216
0.182535	550.98
0.193507	552.941
0.199979	549.02
0.204436	552.941
0.213179	552.941
0.217551	552.941
0.224151	554.902
0.228522	554.902
0.23508	554.902
0.243823	554.902
0.25038	554.902
0.256981	556.863
0.263538	556.863
0.272281	556.863
0.276653	556.863
0.285396	556.863
0.294139	556.863
0.302882	556.863
0.30944	556.863
0.318183	556.863
0.324697	554.902
0.333483	556.863
0.340041	556.863
0.346598	556.863
0.357527	556.863
0.364127	558.824
0.375056	558.824
0.385942	556.863
