Adsorption isotherm of Argon on ZIF-8 (crystal = 88 micrometers)
DOI: 10.1021/acs.jpcc.5b09520
Article source: Figure 5b
Adsorbate Argon: InChIKey XKRFYHLGVUSROY-UHFFFAOYSA-N
Kind: experiment
Temperature: 87 K
Tabular data in the source: 0
pressure (bar)	uptake (cm3(STP)/g)
0	0
0.002815	245.944
0.016888	356.345
0.033775	355.871
0.047848	358.318
0.061921	360.764
0.081623	363.052
0.09851	365.42
0.118213	370.549
0.126656	370.313
0.154802	372.364
0.177319	374.574
0.191392	377.02
0.20828	379.388
0.225166	378.914
0.242054	381.282
0.247683	403.851
0.253312	451.989
0.256127	383.728
0.264571	508.491
0.267386	386.253
0.275829	386.016
0.284273	385.78
0.295532	416.714
0.298345	464.931
0.30116	388.147
0.30679	515.83
0.315233	518.434
0.318048	495.628
0.326491	518.119
0.334936	520.723
0.346194	523.248
0.360267	522.854
0.368711	525.458
0.379969	525.142
0.388412	527.746
0.402485	527.352
0.408115	527.194
0.416558	529.798
0.430631	532.244
0.439075	532.008
0.450333	534.533
0.458777	539.978
0.47285	533.902
0.484109	536.427
0.500995	535.953
0.515068	538.4
0.537586	540.609
0.560102	542.819
0.585434	544.949
0.60232	544.476
0.616393	546.922
0.622023	543.924
0.647354	546.054
0.661427	551.342
0.678314	548.027
0.692387	547.633
0.709275	555.682
0.726163	549.527
0.759938	557.102
0.774011	553.867
0.807785	561.443
0.819043	558.286
0.861263	562.784
0.869706	559.706
0.906295	564.362
0.917555	566.888
0.956958	568.624
1.00762	575.726
