Adsorption isotherm of Argon on ZIF-8 (crystal = 0.060 micrometers)
DOI: 10.1021/acs.jpcc.5b09520
Article source: Figure 5b
Adsorbate Argon: InChIKey XKRFYHLGVUSROY-UHFFFAOYSA-N
Kind: experiment
Temperature: 87 K
Tabular data in the source: 0
pressure (bar)	uptake (cm3(STP)/g)
0	0
0	8.57143
0	20
0	34.2857
0	51.4286
0	77.1429
0	128.571
0	208.571
0	271.429
0	322.857
0	371.429
0	388.571
0.004455	402.857
0.015472	417.143
0.04061	428.571
0.054587	434.286
0.068612	437.143
0.079773	442.857
0.091032	442.857
0.1135	445.714
0.124614	454.286
0.147034	460
0.158292	460
0.172316	462.857
0.183527	465.714
0.191923	468.571
0.200366	468.571
0.214343	474.286
0.228416	474.286
0.236811	477.143
0.245206	480
0.256416	482.857
0.27607	485.714
0.298394	497.143
0.306259	531.429
0.306982	488.571
0.311309	565.714
0.316504	591.429
0.321989	600
0.323822	491.429
0.332169	497.143
0.333102	608.571
0.340613	497.143
0.341449	614.286
0.349845	617.143
0.354686	497.143
0.361054	620
0.363081	500
0.36945	622.857
0.377846	625.714
0.37992	502.857
0.389056	628.571
0.391178	502.857
0.397451	631.429
0.405204	505.714
0.405847	634.286
0.417105	634.286
0.421994	511.429
0.425501	637.143
0.433945	637.143
0.438882	511.429
0.445154	640
0.450092	514.286
0.45355	642.857
0.461946	645.714
0.464117	517.143
0.475375	517.143
0.47597	648.571
0.486585	520
0.497796	522.857
0.503377	525.714
0.50402	654.286
0.520216	528.571
0.529303	657.143
0.542636	534.286
0.551723	662.857
0.562096	548.571
0.575687	577.143
0.576958	668.571
0.588939	625.714
0.596612	671.429
0.644266	682.857
0.669597	682.857
0.692017	688.571
0.71172	688.571
0.762093	705.714
0.804167	714.286
0.809699	720
0.848717	742.857
0.848862	734.286
0.893462	760
0.898318	805.714
0.923553	811.429
0.93724	1334.29
0.967621	1368.57
