Adsorption isotherm of Argon on ZIF-8 (crystal = 0.73 micrometers)
DOI: 10.1021/acs.jpcc.5b09520
Article source: Figure 5b
Adsorbate Argon: InChIKey XKRFYHLGVUSROY-UHFFFAOYSA-N
Kind: experiment
Temperature: 87 K
Tabular data in the source: 0
pressure (bar)	uptake (cm3(STP)/g)
0	0.574267
0	17.3366
0	48.1453
0	70.4175
0	120.782
0	249.216
0.00022	360.888
0.00033	341.332
0.000582	296.632
0.001164	193.264
0.008618	369.036
0.019831	377.107
0.04795	381.918
0.05921	381.608
0.070454	384.091
0.084514	386.497
0.098573	388.903
0.118262	391.153
0.160456	395.577
0.199788	408.459
0.208233	408.226
0.219493	407.916
0.230754	407.605
0.239198	407.372
0.250442	409.856
0.275731	417.538
0.287038	408.847
0.292495	439.423
0.295467	411.408
0.297921	475.586
0.303299	520.13
0.303377	506.162
0.306743	408.304
0.311681	531.072
0.318002	407.993
0.32011	533.633
0.328539	536.194
0.332062	410.399
0.337016	530.374
0.348245	535.651
0.348937	412.727
0.359505	535.341
0.362996	415.133
0.367934	537.902
0.374256	414.822
0.381993	540.307
0.388331	414.434
0.390454	537.281
0.401699	539.764
0.40519	419.556
0.412959	539.454
0.416372	433.214
0.418589	539.298
0.421922	447.028
0.427443	466.429
0.429849	538.988
0.441377	491.184
0.443908	541.394
0.449743	504.92
0.45237	538.367
0.463614	540.851
0.463708	524.088
0.472043	543.411
0.486181	531.849
0.505807	545.274
0.525528	541.937
0.550816	549.62
0.581797	545.972
0.612747	547.912
0.629621	550.241
0.666201	552.025
0.674645	551.793
0.711226	553.578
0.725301	553.19
0.759049	557.846
0.773124	557.458
0.809703	559.243
0.818149	559.01
0.863173	560.562
0.910997	564.83
0.956022	566.382
1.00098	579.109
