Adsorption isotherm of Argon on ZIF-8 (crystal = 88 micrometers)
DOI: 10.1021/acs.jpcc.5b09520
Article source: Figure 7
Adsorbate Argon: InChIKey XKRFYHLGVUSROY-UHFFFAOYSA-N
Kind: experiment
Temperature: 79 K
Tabular data in the source: 0
pressure (bar)	uptake (cm3(STP)/g)
0.008486	388.235
0.019501	392.157
0.028287	394.118
0.037073	396.078
0.045859	398.039
0.046459	525.49
0.049673	472.549
0.051088	537.255
0.055502	539.216
0.063045	484.314
0.063559	407.843
0.064331	543.137
0.066559	545.098
0.070417	521.569
0.075088	535.294
0.075388	549.02
0.081817	543.137
0.081903	547.059
0.086275	547.059
0.092875	549.02
0.101618	549.02
0.112547	549.02
0.116918	549.02
0.127847	549.02
0.134405	549.02
0.140919	547.059
0.149662	547.059
0.16282	549.02
0.167192	549.02
