Adsorption isotherm of Argon on ZIF-8 (crystal = 88 micrometers)
DOI: 10.1021/acs.jpcc.5b09520
Article source: Figure 7
Adsorbate Argon: InChIKey XKRFYHLGVUSROY-UHFFFAOYSA-N
Kind: experiment
Temperature: 90 K
Tabular data in the source: 0
pressure (bar)	uptake (cm3(STP)/g)
0.297396	405.882
0.308325	405.882
0.323626	405.882
0.338969	407.843
0.352084	407.843
0.365156	405.882
0.380542	409.804
0.393614	407.843
0.411143	409.804
0.419886	409.804
0.43133	433.333
0.433044	411.765
0.441616	503.922
0.44213	527.451
0.45053	411.765
0.451088	537.255
0.463645	411.765
0.466431	539.216
0.47676	411.765
0.477403	541.176
0.489875	411.765
0.490518	541.176
0.502989	411.765
0.508047	543.137
0.512333	439.216
0.519019	545.098
0.519619	472.549
0.520476	411.765
0.532133	545.098
0.535605	503.922
0.545248	545.098
0.557977	527.451
0.560634	549.02
0.575935	549.02
0.580092	539.216
0.58905	549.02
0.599936	547.059
0.602079	545.098
0.613093	549.02
0.615236	547.059
0.628394	549.02
0.643694	549.02
0.654623	549.02
0.667824	552.941
0.680939	552.941
0.696196	550.98
0.709354	552.941
0.724654	552.941
0.735626	554.902
0.750927	554.902
0.763999	552.941
0.779342	554.902
0.7946	552.941
0.803386	554.902
0.809943	554.902
0.823058	554.902
0.836173	554.902
0.849287	554.902
