Adsorption isotherm of Nitrogen on ZIF-8 (crystal = 0.73 micrometers)
DOI: 10.1021/acs.jpcc.5b09520
Article source: Figure 4
Adsorbate Nitrogen: InChIKey IJGRMHOSHXDMSA-UHFFFAOYSA-N
Kind: experiment
Temperature: 77 K
Tabular data in the source: 0
pressure (bar)	uptake (cm3(STP)/g)
6.2e-05	19.0217
0.00011	36.2319
0.000136	53.442
0.000174	70.6522
0.000202	87.8623
0.000221	103.261
0.000249	120.471
0.000273	137.681
0.000308	153.986
0.000358	171.196
0.00043	190.217
0.000515	205.616
0.000617	221.014
0.000763	237.319
0.00113	254.529
0.001673	272.645
0.002405	285.326
0.002633	286.232
0.002883	288.949
0.003156	291.667
0.003456	293.478
0.004019	295.29
0.004536	298.007
0.004818	302.536
0.005118	307.971
0.005437	312.5
0.005604	322.464
0.006136	329.71
0.006518	334.239
0.006718	336.957
0.006924	340.58
0.007355	350.543
0.007814	362.319
0.008053	405.797
0.008301	389.493
0.008555	415.761
0.008818	417.572
0.009654	365.942
0.010256	379.529
0.011229	415.761
0.012294	419.384
0.01821	420.29
0.032334	422.101
0.036488	421.196
0.059172	423.007
0.073112	424.819
0.10829	424.819
0.170388	425.725
0.216983	424.819
0.351883	424.819
0.490632	426.63
0.643971	427.536
0.771981	430.254
0.871164	432.971
0.953828	441.123
0.98309	457.428
1.01325	447.464
