Adsorption isotherm of Argon on ZIF-8 (crystal = 0.060 micrometers)
DOI: 10.1021/acs.jpcc.5b09520
Article source: Figure 7
Adsorbate Argon: InChIKey XKRFYHLGVUSROY-UHFFFAOYSA-N
Kind: experiment
Temperature: 90 K
Tabular data in the source: 0
pressure (bar)	uptake (cm3(STP)/g)
0.316443	430.926
0.329472	432.811
0.342516	432.747
0.355546	434.632
0.370778	432.61
0.383808	434.494
0.396838	436.379
0.412056	436.305
0.42726	438.179
0.440304	438.115
0.453333	440
0.464203	439.947
0.479421	439.873
0.494625	441.747
0.505481	443.642
0.509645	468.947
0.518087	503.97
0.520699	443.568
0.52444	527.316
0.533743	443.504
0.535225	538.952
0.546053	544.743
0.548947	445.379
0.559082	546.628
0.561976	447.263
0.574286	548.502
0.57502	447.2
0.585128	552.345
0.58805	449.084
0.600332	554.219
0.601094	449.021
0.613362	556.104
0.616298	450.895
0.627168	450.842
0.628579	556.03
0.639421	559.873
0.642386	450.768
0.654639	559.799
0.655416	452.652
0.667683	559.735
0.66846	452.589
0.681489	454.473
0.682873	563.557
0.696707	454.399
0.698091	563.483
0.708961	563.43
0.709737	456.284
0.721976	567.263
0.722795	454.272
0.735811	458.105
0.739368	567.178
0.748064	567.136
0.751029	458.031
0.761094	569.021
0.764073	457.967
0.778486	568.936
0.779277	459.841
0.789342	570.831
0.79448	461.715
0.802372	572.716
0.805364	459.714
0.817575	574.59
0.818394	461.599
0.832779	576.464
0.833598	463.473
0.845823	576.4
0.848816	463.399
0.858867	576.337
0.859658	467.242
0.871897	578.221
0.872702	467.178
0.884941	578.158
0.885731	469.063
0.897971	580.042
0.900935	470.937
0.911015	579.979
0.911777	474.78
0.922576	484.468
0.924059	579.915
0.931145	501.959
0.941408	585.675
0.941818	529.179
0.952278	585.622
0.95249	556.4
0.965308	587.507
0.974074	577.724
0.98054	585.484
0.99141	585.431
1.00877	589.243
1.0218	591.128
1.03701	593.002
1.04788	592.949
1.06091	594.833
1.0761	598.655
1.08914	598.592
1.10433	602.414
