Adsorption isotherm of Nitrogen on ZIF-8 (crystal = 0.060 micrometers)
DOI: 10.1021/acs.jpcc.5b09520
Article source: Figure 4
Adsorbate Nitrogen: InChIKey IJGRMHOSHXDMSA-UHFFFAOYSA-N
Kind: experiment
Temperature: 77 K
Tabular data in the source: 0
pressure (bar)	uptake (cm3(STP)/g)
7e-06	1.81159
6.8e-05	19.9275
0.000117	37.1377
0.000154	53.442
0.00019	71.558
0.000228	88.7681
0.000249	105.072
0.00029	123.188
0.000318	140.399
0.000358	156.703
0.000417	173.007
0.000485	190.217
0.000599	206.522
0.000763	224.638
0.000971	242.754
0.001096	248.188
0.0012	251.812
0.001275	256.341
0.001396	259.964
0.001528	263.587
0.001623	266.304
0.001725	269.022
0.001946	271.739
0.002131	273.551
0.002333	277.174
0.002714	280.797
0.003062	283.514
0.003456	286.232
0.003784	288.949
0.004143	292.572
0.004536	293.478
0.004966	297.101
0.005604	302.536
0.005953	314.312
0.006324	321.558
0.006518	326.993
0.006924	329.71
0.007137	330.616
0.007355	336.051
0.007814	367.754
0.008053	355.072
0.008301	382.246
0.008555	390.399
0.009088	394.022
0.009951	397.645
0.010895	353.261
0.011573	400.362
0.012671	403.08
0.01306	391.304
0.01519	406.703
0.016632	407.609
0.018769	409.42
0.026169	413.043
0.031371	415.761
0.038761	416.667
0.060988	420.29
0.090333	422.101
0.098905	422.101
0.118565	424.819
0.137903	423.913
0.160395	426.63
0.186556	423.913
0.204258	426.63
0.2305	423.913
0.268095	427.536
0.284797	424.819
0.30254	428.442
0.321387	424.819
0.385273	425.725
0.409275	425.725
0.421832	429.348
0.461859	430.254
0.476028	425.725
0.537187	427.536
0.553668	431.159
0.624802	429.348
0.643971	432.065
0.705077	431.159
0.726707	434.783
0.771981	432.971
0.795664	436.594
0.845233	442.935
0.871164	469.203
0.89789	462.862
0.925436	494.565
