Adsorption isotherm of Carbon Dioxide on [Cu2(ndc)2(dabco)]n
DOI: 10.1021/Cg300297p
Adsorbate Carbon Dioxide: InChIKey CURLTUGMZLYLDI-UHFFFAOYSA-N
Temperature: 273 K
Tabular data in the source: 0
pressure (bar)	uptake (cm3(STP)/g)
0.0469799	7.05392
0.104027	14.5258
0.157718	21.9963
0.201342	26.9799
0.248322	34.0338
0.305369	40.6781
0.352349	46.9044
0.402685	53.5459
0.449664	58.9447
0.496644	64.3434
0.550336	69.745
0.600671	75.9727
0.651007	80.959
0.697987	85.944
0.751678	90.5179
0.805369	96.3333
0.848993	101.317
0.899329	105.889
0.95302	110.463
0.979866	113.785
