Adsorption isotherm of Carbon Dioxide on [Cu2(ndc)2(dabco)]n
DOI: 10.1021/Cg300297p
Adsorbate Carbon Dioxide: InChIKey CURLTUGMZLYLDI-UHFFFAOYSA-N
Temperature: 273 K
Tabular data in the source: 0
pressure (bar)	uptake (cm3(STP)/g)
0.101311	10.7167
0.145244	16.4916
0.199255	21.4348
0.249898	26.3794
0.293797	30.9129
0.347819	36.2699
0.39844	40.3869
0.44906	44.5038
0.496291	47.7946
0.550278	51.9102
0.59752	55.6148
0.648117	58.9042
0.702082	62.1922
0.745934	65.0706
0.796531	68.3601
0.850495	71.6481
0.897702	74.1113
0.948288	76.9869
0.978649	79.0433
