Adsorption isotherm of Nitrogen on [Cu2(ndc)2(dabco)]n
DOI: 10.1021/Cg300297p
Adsorbate Nitrogen: InChIKey IJGRMHOSHXDMSA-UHFFFAOYSA-N
Temperature: 77 K
Tabular data in the source: 0
pressure (bar)	uptake (cm3(STP)/g)
0.00327111	0.00327111
0.0228978	285.919
0.0490667	294.434
0.101404	301.191
0.124302	302.863
0.1472	304.535
0.196267	306.161
0.245333	306.074
0.291129	307.706
0.340196	312.757
0.389262	314.382
0.438329	317.721
0.487396	321.059
0.533191	324.403
0.578987	329.459
0.634596	334.498
0.680391	337.842
0.739271	341.163
0.76544	344.541
0.82432	349.575
0.876658	359.756
0.919182	380.229
0.948622	434.972
