Adsorption isotherm of Carbon Dioxide on [Cu2(ndc)2(dabco)]n
DOI: 10.1021/Cg300297p
Adsorbate Carbon Dioxide: InChIKey CURLTUGMZLYLDI-UHFFFAOYSA-N
Temperature: 273 K
Tabular data in the source: 0
pressure (bar)	uptake (cm3(STP)/g)
0.241611	33.6172
0.302013	39.0215
0.352349	45.2492
0.402685	51.0632
0.45302	56.0495
0.553691	67.2636
0.600671	72.2486
0.651007	76.8211
0.701342	80.9799
0.751678	85.9662
0.798658	90.1236
0.852349	94.6975
0.899329	98.4411
0.95302	103.429
0.983221	105.924
