Adsorption isotherm of Carbon Dioxide on [Cu2(ndc)2(dabco)]n
DOI: 10.1021/Cg300297p
Adsorbate Carbon Dioxide: InChIKey CURLTUGMZLYLDI-UHFFFAOYSA-N
Temperature: 273 K
Tabular data in the source: 0
pressure (bar)	uptake (cm3(STP)/g)
0.0503356	5.40014
0.104027	11.6293
0.130872	15.7783
0.174497	21.1757
0.234899	26.9938
0.255034	29.4848
0.281879	32.8063
0.325503	38.2037
0.375839	42.3624
0.42953	47.3502
0.47651	52.3351
0.526846	56.9077
0.577181	61.0664
0.624161	65.6376
0.674497	70.2101
0.728188	74.7841
0.775168	78.9414
0.832215	83.5168
0.879195	86.8466
0.926174	91.4177
0.97651	95.1627
