Adsorption isotherm of Nitrogen on [Cu2(ndc)2(dabco)]n
DOI: 10.1021/Cg300297p
Adsorbate Nitrogen: InChIKey IJGRMHOSHXDMSA-UHFFFAOYSA-N
Temperature: 77 K
Tabular data in the source: 0
pressure (bar)	uptake (cm3(STP)/g)
0.00327111	212.323
0.0196267	224.28
0.0457956	241.358
0.101404	251.534
0.143929	258.308
0.192996	265.071
0.242062	266.697
0.291129	271.747
0.343467	275.08
0.389262	274.999
0.4416	278.331
0.480853	279.974
0.533191	281.594
0.585529	284.927
0.628053	288.277
0.680391	288.184
0.732729	294.941
0.785067	296.562
0.827591	303.336
0.876658	310.099
0.922453	322.004
