Adsorption isotherm of Nitrogen on [Cu2(ndc)2(dabco)]n
DOI: 10.1021/Cg300297p
Adsorbate Nitrogen: InChIKey IJGRMHOSHXDMSA-UHFFFAOYSA-N
Temperature: 77 K
Tabular data in the source: 0
pressure (bar)	uptake (cm3(STP)/g)
0.00654222	261.975
0.0163556	272.231
0.0490667	284.16
0.0948622	290.929
0.143929	295.979
0.192996	295.893
0.242062	299.231
0.291129	300.857
0.336924	304.201
0.392533	305.815
0.461227	310.831
0.533191	314.129
0.5888	314.031
0.631324	320.805
0.664036	319.035
0.696747	322.402
0.732729	327.476
0.762169	327.424
0.791609	332.509
0.827591	330.733
0.876658	335.784
0.896284	344.311
0.925724	349.396
0.945351	363.06
