Adsorption isotherm of Nitrogen on [Cu2(ndc)2(dabco)]n
DOI: 10.1021/Cg300297p
Adsorbate Nitrogen: InChIKey IJGRMHOSHXDMSA-UHFFFAOYSA-N
Temperature: 77 K
Tabular data in the source: 0
pressure (bar)	uptake (cm3(STP)/g)
0.00654222	227.728
0.00981333	244.846
0.0425244	258.487
0.101404	263.52
0.1472	270.289
0.192996	275.345
0.238791	276.976
0.291129	276.884
0.336924	283.653
0.389262	285.273
0.438329	288.611
0.487396	290.237
0.533191	291.868
0.585529	296.913
0.634596	298.539
0.693476	301.86
0.736	305.21
0.781796	308.554
0.827591	311.898
0.876658	320.373
0.928996	342.541
