Adsorption isotherm of Hydrogen on IRMOF-1
DOI: 10.1021/Jp305524f
Adsorbate Hydrogen: InChIKey UFHFLCQGNIYNRP-UHFFFAOYSA-N
Temperature: 200 K
Tabular data in the source: 0
pressure (bar)	uptake (mmol/g)
3.52941	-7.11e-15
4.82972	0.204082
6.87307	-7.11e-15
8.91641	-7.11e-15
11.7028	-7.11e-15
13.5604	-7.11e-15
15.418	-7.11e-15
16.904	-7.11e-15
18.7616	-7.11e-15
20.6192	-7.11e-15
22.291	0.408163
23.7771	-7.11e-15
25.6347	-7.11e-15
27.3065	0.408163
28.7926	-7.11e-15
30.6502	-7.11e-15
32.5077	-7.11e-15
34.3653	-7.11e-15
36.2229	-7.11e-15
38.0805	0.204082
39.9381	0.204082
41.7957	0.204082
43.6533	0.204082
45.5108	0.204082
47.3684	0.204082
49.226	0.204082
51.0836	0.204082
52.9412	0.204082
54.7988	0.204082
56.6563	0.204082
58.5139	0.204082
60.3715	0.204082
62.2291	0.204082
64.0867	0.204082
