Adsorption isotherm of Hydrogen on IRMOF-1
DOI: 10.1021/Jp305524f
Adsorbate Hydrogen: InChIKey UFHFLCQGNIYNRP-UHFFFAOYSA-N
Temperature: 60 K
Tabular data in the source: 0
pressure (bar)	uptake (mmol/g)
0.553846	11.6397
1.10769	17.2347
1.29231	21.2638
2.03077	24.6193
2.4	27.9761
3.13846	30.6599
3.87692	33.3437
5.72308	36.6951
7.56923	39.1509
9.23077	40.7118
11.0769	41.6005
12.7385	42.7137
14.5846	43.1545
15.6923	43.1504
17.3538	43.592
19.2	43.5851
21.0462	43.8021
22.5231	44.0204
24.3692	43.7897
26.2154	43.7828
27.8769	43.7766
29.7231	43.5458
31.5692	43.315
33.2308	42.8611
35.0769	43.0781
36.7385	42.6241
38.5846	42.3933
40.0615	41.9401
41.9077	41.9332
43.7538	41.7024
46.3385	41.0211
48.1846	40.7904
50.0308	40.5596
51.6923	40.1056
53.5385	39.8749
55.2	39.4209
57.0462	39.1901
58.8923	38.7355
60	38.5075
