Adsorption isotherm of Hydrogen on IRMOF-1
DOI: 10.1021/Jp305524f
Adsorbate Hydrogen: InChIKey UFHFLCQGNIYNRP-UHFFFAOYSA-N
Temperature: 132 K
Tabular data in the source: 0
pressure (bar)	uptake (mmol/g)
2.44565	0.912548
5.43478	1.93916
7.6087	2.62357
9.78261	3.30798
11.9565	3.76426
14.1304	4.3346
16.5761	4.90494
19.0217	5.36122
21.4674	5.93156
23.6413	6.27376
26.087	6.73004
28.8043	7.07224
31.25	7.41445
33.6957	7.75665
35.8696	8.09886
38.587	8.327
41.0326	8.55513
43.75	8.89734
46.1957	9.12548
48.913	9.35361
51.6304	9.58175
54.0761	9.80989
56.7935	9.92395
59.2391	10.038
60.8696	10.1521
63.587	10.3802
66.0326	10.4943
68.75	10.6084
74.4565	10.9506
77.1739	10.9506
79.8913	11.0646
82.6087	11.1787
85.0543	11.2928
86.6848	11.4068
89.4022	11.4068
92.1196	11.5209
94.837	11.5209
97.5543	11.635
99.4565	11.635
