Adsorption isotherm of Hydrogen on IRMOF-1
DOI: 10.1021/Jp305524f
Adsorbate Hydrogen: InChIKey UFHFLCQGNIYNRP-UHFFFAOYSA-N
Temperature: 138 K
Tabular data in the source: 0
pressure (bar)	uptake (mmol/g)
2.71739	1.02592
4.07609	1.53887
5.97826	2.30848
8.15217	3.07775
10.3261	3.71833
11.9565	4.35961
14.1304	4.74285
16.5761	5.38308
18.75	6.02367
20.9239	6.27822
22.8261	6.91916
24.7283	7.17406
27.1739	7.55695
29.6196	8.0685
32.0652	8.45139
32.6087	8.57936
35.0543	9.09092
37.2283	9.2168
39.6739	9.59968
42.3913	9.85354
44.5652	10.3654
49.4565	10.7452
52.1739	10.999
54.6196	11.1246
57.337	11.3784
61.9565	11.7585
64.6739	11.8837
67.1196	12.1379
69.837	12.2631
72.0109	12.389
74.7283	12.5141
77.4457	12.6393
79.8913	12.8935
82.6087	13.0187
87.5	13.1411
90.2174	13.2663
92.9348	13.2628
95.6522	13.3879
98.0978	13.5135
99.7283	13.5114
