Adsorption isotherm of Hydrogen on IRMOF-1
DOI: 10.1021/Jp305524f
Adsorbate Hydrogen: InChIKey UFHFLCQGNIYNRP-UHFFFAOYSA-N
Temperature: 103 K
Tabular data in the source: 0
pressure (bar)	uptake (mmol/g)
1.60256	2.8125
2.88462	4.6875
4.80769	6.09375
6.41026	7.5
8.01282	8.90625
10.2564	10.3125
12.1795	11.5625
14.4231	12.6562
16.9872	13.5938
20.8333	15
23.3974	15.7812
26.2821	16.5625
29.1667	17.1875
33.3333	17.9688
36.5385	18.2812
39.4231	18.75
47.1154	19.5312
50.3205	19.8438
54.4872	20
57.3718	20.3125
66.6667	20.625
69.8718	20.625
73.0769	20.7812
78.5256	20.7812
81.7308	20.7812
84.9359	20.7812
88.141	20.7812
90.7051	20.7812
93.9103	20.7812
97.1154	20.7812
100.321	20.7812
