Adsorption isotherm of Hydrogen on IRMOF-1
DOI: 10.1021/Jp305524f
Adsorbate Hydrogen: InChIKey UFHFLCQGNIYNRP-UHFFFAOYSA-N
Temperature: 100 K
Tabular data in the source: 0
pressure (bar)	uptake (mmol/g)
1.11455	1.22449
2.78638	3.26531
4.4582	4.89796
6.13003	6.53061
7.6161	7.7551
9.10217	8.97959
10.031	9.59184
11.517	10.6122
13.1889	11.6327
13.5604	11.8367
15.2322	12.6531
16.904	13.4694
18.2043	14.0816
19.8762	14.6939
21.7337	15.3061
23.4056	15.9184
25.0774	16.3265
26.7492	16.9388
27.8638	17.1429
29.5356	17.3469
31.3932	17.7551
33.065	17.9592
35.1084	18.3673
36.9659	18.5714
38.8235	18.5714
40.6811	18.7755
41.4241	18.7755
43.2817	18.9796
45.1393	18.9796
46.9969	19.1837
47.7399	19.1837
49.5975	19.1837
51.4551	19.1837
53.87	19.1837
55.7276	18.9796
57.5851	18.9796
59.4427	18.9796
61.3003	18.7755
63.1579	18.7755
64.8297	18.5714
