Adsorption isotherm of Hydrogen on IRMOF-1
DOI: 10.1021/Jp305524f
Adsorbate Hydrogen: InChIKey UFHFLCQGNIYNRP-UHFFFAOYSA-N
Temperature: 40 K
Tabular data in the source: 0
pressure (bar)	uptake (mmol/g)
0.184615	0.184615
0.553846	35.3401
0.923077	37.033
1.29231	40.0416
2.03077	41.5477
2.95385	43.2423
4.43077	44.3748
6.09231	44.9439
7.93846	44.9497
9.78462	44.7675
11.4462	44.2088
13.2923	43.4627
14.9538	42.716
