Adsorption isotherm of Hydrogen on IRMOF-1
DOI: 10.1021/Jp305524f
Adsorbate Hydrogen: InChIKey UFHFLCQGNIYNRP-UHFFFAOYSA-N
Temperature: 60 K
Tabular data in the source: 0
pressure (bar)	uptake (mmol/g)
0.184615	6.20359
0.369231	8.64777
0.553846	11.092
0.923077	14.2886
1.10769	17.1087
1.47692	19.9294
1.84615	21.9983
2.4	24.0677
3.32308	26.5142
4.43077	28.2094
5.16923	29.7154
6.46154	30.8473
7.2	31.4135
8.67692	32.546
10.3385	33.491
12	34.0602
13.6615	34.6293
15.5077	35.011
17.3538	35.2047
19.0154	35.3979
20.8615	35.4037
22.7077	35.4095
24.5538	35.4153
26.4	35.2331
28.2462	35.2389
30.0923	35.0567
31.9385	34.8745
33.6	34.5038
35.4462	34.3216
37.2923	34.1394
38.9538	33.7687
40.8	33.3985
42.6462	33.2163
44.3077	32.8456
46.1538	32.4754
47.8154	32.1047
49.6615	31.9225
51.3231	31.3638
53.1692	31.1816
55.0154	30.8115
56.6769	30.4407
58.5231	30.0706
59.8154	29.6987
