Adsorption isotherm of Hydrogen on IRMOF-1
DOI: 10.1021/Jp305524f
Adsorbate Hydrogen: InChIKey UFHFLCQGNIYNRP-UHFFFAOYSA-N
Temperature: 125 K
Tabular data in the source: 0
pressure (bar)	uptake (mmol/g)
3.33333	0.209436
5.74074	1.20946
7.40741	2.00862
9.07407	3.0062
10.7407	3.80536
12.4074	4.80293
14.0741	5.6021
15.7407	6.40126
17.4074	7.00201
19.2593	7.80178
20.5556	8.40131
22.4074	8.80426
24.0741	9.40501
25.7407	10.0058
27.5926	10.2103
29.2593	10.6126
31.1111	10.8172
32.7778	11.2195
34.4444	11.6218
36.2963	11.8264
37.7778	12.0297
39.6296	12.4326
41.4815	12.6372
43.3333	12.6433
44.6296	13.0444
46.4815	13.0505
48.3333	13.0567
50	13.459
50.7407	13.263
52.5926	13.4676
54.4444	13.4737
56.6667	13.6795
58.5185	13.6856
60.5556	13.6923
62.5926	13.8975
64.4444	13.9036
