Adsorption isotherm of Hydrogen on IRMOF-1
DOI: 10.1021/Jp305524f
Adsorbate Hydrogen: InChIKey UFHFLCQGNIYNRP-UHFFFAOYSA-N
Temperature: 295 K
Tabular data in the source: 0
pressure (bar)	uptake (mmol/g)
2.99931	0.223864
5.99758	0.334094
8.72235	0.330997
11.4482	0.441536
14.174	0.552075
20.1705	0.772534
22.8953	0.769437
25.3486	0.880286
28.0734	0.877189
31.6166	0.986799
34.3414	0.983703
36.7937	0.980916
39.5195	1.09146
42.2452	1.20199
47.1509	1.31006
49.8756	1.30696
52.6014	1.4175
55.8712	1.41378
58.597	1.52432
62.6841	1.51968
65.4099	1.63022
68.1357	1.74075
70.8605	1.73766
80.3992	1.95409
83.124	1.951
85.8488	1.9479
88.5746	2.05844
91.2993	2.05534
93.7516	2.05255
96.4774	2.16309
99.2022	2.16
