Adsorption isotherm of Hydrogen on IRMOF-1
DOI: 10.1021/Jp305524f
Adsorbate Hydrogen: InChIKey UFHFLCQGNIYNRP-UHFFFAOYSA-N
Temperature: 50 K
Tabular data in the source: 0
pressure (bar)	uptake (mmol/g)
0.192926	0.192926
0.578778	25.5814
0.771704	23.7209
1.15756	29.0698
1.54341	31.6279
2.12219	34.186
2.89389	36.5116
4.05145	38.6047
5.40193	40
6.94534	41.1628
8.68167	41.8605
10.6109	42.3256
12.3473	42.5581
14.2765	42.7907
16.2058	42.5581
17.7492	42.3256
19.6785	42.3256
21.6077	42.093
23.3441	41.6279
25.2733	41.3953
27.2026	40.9302
28.9389	40.4651
29.7106	40
