Adsorption isotherm of Hydrogen on IRMOF-1
DOI: 10.1021/Jp305524f
Adsorbate Hydrogen: InChIKey UFHFLCQGNIYNRP-UHFFFAOYSA-N
Temperature: 77 K
Tabular data in the source: 0
pressure (bar)	uptake (mmol/g)
0.37037	2.84091
1.11111	5.87121
1.48148	7.95455
2.22222	9.4697
2.40741	10.9848
3.33333	13.0682
3.88889	14.5833
4.44444	15.5303
5.37037	16.8561
6.48148	18.3712
7.77778	20.0758
9.07407	21.4015
10.5556	22.7273
12.037	23.8636
13.8889	24.8106
15.5556	25.5682
17.2222	26.3258
19.0741	26.8939
20.7407	27.2727
22.5926	27.8409
24.0741	28.2197
25.9259	28.4091
27.7778	28.5985
29.4444	28.7879
31.2963	28.9773
33.1481	29.1667
35	29.1667
36.8519	29.1667
38.7037	29.1667
40.5556	29.1667
42.4074	29.1667
44.2593	29.1667
46.1111	29.1667
47.963	28.9773
49.8148	28.7879
51.6667	28.7879
53.5185	28.5985
55.5556	28.4091
57.4074	28.4091
58.7037	28.2197
60.5556	28.0303
61.8519	27.8409
63.7037	27.8409
65	27.6515
