Adsorption isotherm of Hydrogen on IRMOF-1
DOI: 10.1021/Jp305524f
Adsorbate Hydrogen: InChIKey UFHFLCQGNIYNRP-UHFFFAOYSA-N
Temperature: 300 K
Tabular data in the source: 0
pressure (bar)	uptake (mmol/g)
7.42964	0.187266
10.216	0.187266
13.559	0.374532
16.1589	0.561798
18.5738	0.561798
21.9167	0.749064
25.0753	0.561798
27.4895	0.749064
30.2752	0.93633
33.4324	1.1236
35.6622	0.93633
38.6336	1.1236
41.2349	0.93633
43.8348	1.1236
47.3642	1.1236
49.4069	1.31086
52.379	1.31086
55.1654	1.31086
57.581	1.1236
62.968	1.1236
65.1957	1.49813
