Adsorption isotherm of Hydrogen on IRMOF-1
DOI: 10.1021/Jp305524f
Adsorbate Hydrogen: InChIKey UFHFLCQGNIYNRP-UHFFFAOYSA-N
Temperature: 40 K
Tabular data in the source: 0
pressure (bar)	uptake (mmol/g)
0.184615	35.5963
0.369231	40.0732
0.553846	43.8785
0.738462	49.251
1.29231	51.7116
2.03077	54.3954
3.32308	56.1816
4.61538	56.4007
5.90769	56.3959
7.56923	56.1658
9.04615	55.7125
11.0769	55.0333
12.3692	54.5807
13.8462	53.6797
15.3231	53.2264
