Adsorption isotherm of Hydrogen on IRMOF-1
DOI: 10.1021/Jp305524f
Adsorbate Hydrogen: InChIKey UFHFLCQGNIYNRP-UHFFFAOYSA-N
Temperature: 30 K
Tabular data in the source: 0
pressure (bar)	uptake (mmol/g)
0	38.5338
0.185185	45.1128
0.37037	47.7444
0.740741	50.7519
1.48148	51.3158
2.96296	50.9398
4.25926	50.3759
5.18519	49.6241
6.11111	49.0602
