Adsorption isotherm of Hydrogen on IRMOF-1
DOI: 10.1021/Jp305524f
Adsorbate Hydrogen: InChIKey UFHFLCQGNIYNRP-UHFFFAOYSA-N
Temperature: 300 K
Tabular data in the source: 0
pressure (bar)	uptake (mmol/g)
3.7037	0.0124452
6.66667	0.0224014
12.5926	0.0423138
17.7778	0.462963
21.2963	0.474786
26.1111	0.692578
30.9259	0.910369
33.7037	1.12132
37.2222	1.13314
42.5926	1.3528
45.7407	1.36338
49.0741	1.37458
51.6667	1.5849
53.8889	1.59237
57.4074	1.60419
60.7407	1.81701
62.4074	1.82261
65	2.03293
