Adsorption isotherm of Hydrogen on IRMOF-1
DOI: 10.1021/Jp305524f
Adsorbate Hydrogen: InChIKey UFHFLCQGNIYNRP-UHFFFAOYSA-N
Temperature: 50 K
Tabular data in the source: 0
pressure (bar)	uptake (mmol/g)
0.185185	0.185185
0.555556	22.6209
0.740741	25.5977
0.925926	28.1777
1.48148	31.3541
1.85185	33.7363
2.96296	36.1209
4.25926	37.9109
5.55556	38.9073
7.22222	39.7064
9.07407	40.1094
10.9259	40.5123
12.5926	40.7162
14.4444	40.7224
16.2963	40.7285
18.1481	40.7346
20	40.7407
21.8519	40.7469
23.5185	40.7524
25.3704	40.7585
27.2222	40.7646
29.0741	40.5723
30	40.5754
