Adsorption isotherm of Hydrogen on IRMOF-1
DOI: 10.1021/Jp305524f
Adsorbate Hydrogen: InChIKey UFHFLCQGNIYNRP-UHFFFAOYSA-N
Temperature: 125 K
Tabular data in the source: 0
pressure (bar)	uptake (mmol/g)
3.52941	0.408163
4.27245	0.816327
6.13003	1.22449
7.98762	1.63265
9.65944	2.2449
11.517	2.65306
13.1889	3.26531
15.0464	3.67347
16.7183	4.28571
18.5759	4.69388
20.2477	5.10204
22.1053	5.5102
23.7771	6.12245
25.6347	6.32653
27.3065	6.73469
29.1641	7.14286
30.8359	7.55102
32.6935	7.7551
34.5511	8.16327
36.2229	8.36735
38.0805	8.77551
39.9381	8.97959
41.6099	9.18367
43.4675	9.38776
45.3251	9.59184
47.1827	9.79592
48.8545	10
50.7121	10.2041
52.5697	10.2041
54.4272	10.4082
56.2848	10.6122
58.1424	10.6122
60	10.6122
61.6718	10.8163
63.5294	10.8163
