Adsorption isotherm of Hydrogen on IRMOF-1
DOI: 10.1021/Jp305524f
Adsorbate Hydrogen: InChIKey UFHFLCQGNIYNRP-UHFFFAOYSA-N
Temperature: 125 K
Tabular data in the source: 0
pressure (bar)	uptake (mmol/g)
0.925926	1.05485
2.40741	1.89873
4.44444	3.37553
6.11111	4.64135
8.14815	5.27426
9.81481	5.90717
11.2963	6.54008
12.963	7.173
14.8148	7.80591
16.2963	8.22785
17.963	8.64979
19.8148	9.07173
21.2963	9.49367
23.1481	9.91561
24.8148	10.1266
26.2963	10.3376
28.1481	10.7595
29.8148	11.1814
31.4815	11.1814
33.1481	11.8143
35	12.0253
36.8519	12.2363
38.3333	12.4473
40.1852	12.6582
41.8519	12.8692
43.7037	13.0802
45.5556	13.0802
47.2222	13.2911
49.0741	13.5021
50.5556	13.7131
52.4074	13.7131
54.2593	13.9241
55.9259	13.9241
57.5926	14.135
59.4444	14.346
60.9259	14.557
62.5926	14.557
64.4444	14.557
