Adsorption isotherm of Hydrogen on IRMOF-1
DOI: 10.1021/Jp305524f
Adsorbate Hydrogen: InChIKey UFHFLCQGNIYNRP-UHFFFAOYSA-N
Temperature: 60 K
Tabular data in the source: 0
pressure (bar)	uptake (mmol/g)
0.156749	7.54717
0.691089	12.8302
1.04569	16.7925
1.21916	19.8113
1.57933	22.2642
1.93881	24.9057
3.03536	27.9245
4.13469	30.1887
5.42073	31.8868
6.89277	33.2075
8.55083	34.1509
9.65643	34.717
11.5005	35.283
12.976	35.6604
14.8215	35.8491
17.2208	36.0377
19.0669	36.0377
20.9131	36.0377
22.7599	35.8491
24.6061	35.8491
26.4529	35.6604
28.1152	35.4717
29.962	35.283
31.8089	35.0943
33.4718	34.717
35.3187	34.5283
37.1655	34.3396
38.8284	33.9623
40.676	33.5849
42.5228	33.3962
44.1858	33.0189
46.0326	32.8302
47.8802	32.4528
49.5424	32.2642
51.9445	31.6981
53.7913	31.5094
55.4543	31.1321
57.3011	30.9434
59.1487	30.566
59.8878	30.3774
