Adsorption isotherm of Hydrogen on IRMOF-1
DOI: 10.1021/Jp305524f
Adsorbate Hydrogen: InChIKey UFHFLCQGNIYNRP-UHFFFAOYSA-N
Temperature: 300 K
Tabular data in the source: 0
pressure (bar)	uptake (g/l)
0.952381	1.21827
2.22222	3.24873
3.80952	5.07614
6.03175	6.49746
8.57143	8.32487
11.1111	9.54315
14.2857	10.9645
15.2381	11.5736
18.7302	12.7919
21.5873	13.8071
24.4444	15.0254
27.619	16.2437
31.4286	17.4619
35.2381	18.6802
42.8571	21.1168
45.7143	22.132
50.1587	23.3503
54.2857	24.5685
56.8254	25.3807
61.5873	26.802
66.0317	28.0203
67.619	28.4264
72.6984	29.6447
78.4127	31.066
79.0476	31.269
85.3968	32.8934
90.4762	34.1117
95.5556	35.1269
100	36.3452
