Adsorption isotherm of Hydrogen on IRMOF-1
DOI: 10.1021/Jp305524f
Adsorbate Hydrogen: InChIKey UFHFLCQGNIYNRP-UHFFFAOYSA-N
Temperature: 300 K
Tabular data in the source: 0
pressure (bar)	uptake (mmol/g)
22.1451	0.212766
27.4448	0.212766
30.4732	0.425532
32.3659	0.638298
35.0158	0.638298
36.7192	0.638298
38.612	0.851064
40.5047	0.851064
42.3975	1.2766
44.1009	1.06383
45.9937	1.2766
47.8864	1.2766
49.7792	1.48936
52.0505	1.48936
55.0789	1.91489
58.1073	1.91489
60	2.12766
61.8927	2.12766
63.2177	2.12766
64.7319	2.34043
