Adsorption isotherm of Hydrogen on IRMOF-1
DOI: 10.1021/Jp305524f
Adsorbate Hydrogen: InChIKey UFHFLCQGNIYNRP-UHFFFAOYSA-N
Temperature: 60 K
Tabular data in the source: 0
pressure (bar)	uptake (mmol/g)
0.378549	11.7021
0.567823	16.5957
1.13565	20.4255
1.70347	23.4043
2.46057	26.5957
3.59621	29.3617
4.92114	31.0638
6.43533	32.3404
7.00315	32.9787
8.70662	34.0426
10.4101	34.2553
12.1136	34.6809
14.0063	35.1064
15.8991	35.3191
17.7918	35.3191
19.6845	35.5319
21.5773	35.5319
23.47	35.5319
25.3628	35.5319
27.2555	35.5319
29.1483	35.5319
31.041	35.5319
32.9338	35.5319
34.2587	35.3191
36.1514	35.3191
38.0442	35.3191
39.9369	35.1064
41.8297	35.3191
43.5331	35.1064
45.4259	35.1064
47.3186	35.1064
49.2114	35.1064
50.9148	35.1064
52.8076	34.8936
54.7003	34.8936
