Adsorption isotherm of Hydrogen on IRMOF-1
DOI: 10.1021/Jp305524f
Adsorbate Hydrogen: InChIKey UFHFLCQGNIYNRP-UHFFFAOYSA-N
Temperature: 132 K
Tabular data in the source: 0
pressure (bar)	uptake (mmol/g)
1.0961	0.680573
2.19014	1.13387
5.47018	2.26651
7.65618	2.94585
9.84219	3.62518
12.3007	4.3042
14.4867	4.98354
15.8511	5.20926
18.3075	5.66101
20.765	6.2264
23.2204	6.56452
24.3134	6.90419
26.7698	7.35594
29.4977	7.69375
31.9531	8.03187
37.9548	8.82051
40.4091	9.04499
43.137	9.3828
45.8638	9.60697
53.4994	10.2801
56.2262	10.5043
58.6795	10.6151
61.9513	10.8387
64.6771	10.9492
69.0388	11.1715
71.7646	11.2821
74.7629	11.3923
77.4887	11.5029
80.2145	11.6134
82.6678	11.7242
87.8459	11.832
90.5717	11.9425
93.2965	11.9394
96.0223	12.05
98.4745	12.0472
100.652	11.8174
