Adsorption isotherm of Hydrogen on IRMOF-1
DOI: 10.1021/Jp305524f
Adsorbate Hydrogen: InChIKey UFHFLCQGNIYNRP-UHFFFAOYSA-N
Temperature: 77 K
Tabular data in the source: 0
pressure (bar)	uptake (mmol/g)
0.564972	3.54397
1.41243	5.67096
2.25989	6.73495
3.10734	7.91706
3.9548	8.98105
5.36723	10.2819
6.77966	11.2285
8.47458	12.2935
10.1695	13.0041
12.1469	13.8332
16.3842	14.9012
18.9266	15.3767
21.1864	15.8518
24.0113	16.0914
26.5537	16.3306
29.3785	16.5701
32.4859	16.81
35.3107	16.9315
37.8531	17.0526
40.678	17.0559
42.9379	17.0586
45.7627	17.0619
48.5876	17.0653
51.4124	17.0686
54.2373	17.0719
55.9322	16.9558
58.7571	16.9592
61.5819	16.8444
64.4068	16.8477
65.2542	16.7306
68.0791	16.6158
70.6215	16.6188
71.7514	16.5021
74.5763	16.5054
77.1186	16.3903
79.9435	16.2755
82.7684	16.1608
85.3107	16.0456
88.1356	15.9309
90.9605	15.8161
93.7853	15.7013
96.3277	15.5862
99.1525	15.4714
100	15.3543
