Adsorption isotherm of Hydrogen on IRMOF-1
DOI: 10.1021/Jp305524f
Adsorbate Hydrogen: InChIKey UFHFLCQGNIYNRP-UHFFFAOYSA-N
Temperature: 300 K
Tabular data in the source: 0
pressure (bar)	uptake (mmol/g)
2.59193	0.179176
5.55493	0.169928
11.1092	0.527125
15.1826	0.701677
19.2567	0.688962
22.7746	0.865248
26.2924	1.04153
29.2547	1.21955
33.1437	1.20742
37.0333	1.00801
41.6616	1.3681
45.3647	1.54381
46.8462	1.53918
49.8091	1.52993
53.327	1.70622
58.3271	1.69061
60.5486	1.87095
63.3264	1.86228
65.1783	1.8565
