Adsorption isotherm of Hydrogen on IRMOF-1
DOI: 10.1021/Jp305524f
Adsorbate Hydrogen: InChIKey UFHFLCQGNIYNRP-UHFFFAOYSA-N
Temperature: 300 K
Tabular data in the source: 0
pressure (bar)	uptake (wt%)
0.634921	0.630252
2.53968	1.63866
6.98413	2.89916
15.2381	4.03361
15.873	3.95798
21.2698	4.33613
26.3492	4.36134
30.7937	4.53782
37.1429	4.46218
40.3175	4.56303
47.619	4.41176
50.1587	4.51261
58.0952	4.33613
60	4.41176
69.2063	4.23529
70.1587	4.28571
80.6349	4.13445
87.9365	3.98319
99.6825	3.7563
