Adsorption isotherm of Hydrogen on IRMOF-1
DOI: 10.1021/Jp305524f
Adsorbate Hydrogen: InChIKey UFHFLCQGNIYNRP-UHFFFAOYSA-N
Temperature: 77 K
Tabular data in the source: 0
pressure (bar)	uptake (mmol/g)
1.69492	9.96047
2.82486	13.6364
4.23729	16.4822
5.9322	18.6166
7.34463	20.3953
9.32203	22.1739
10.7345	23.2411
12.1469	24.4269
13.2768	24.9012
16.3842	26.4427
18.0791	27.0356
20.6215	27.747
22.8814	28.3399
25.4237	28.8142
27.6836	29.17
29.9435	29.4071
32.2034	29.7628
33.6158	29.7628
35.8757	30
38.4181	30
40.9605	30
43.7853	30.1186
46.8927	30.1186
49.7175	29.8814
53.1073	29.8814
57.6271	29.6443
61.0169	29.5257
64.9718	29.2885
68.6441	28.9328
72.5989	28.6957
76.8362	28.3399
80.226	28.1028
84.4633	27.747
88.7006	27.3913
91.2429	27.2727
95.1977	26.7984
99.7175	26.4427
