Adsorption isotherm of Hydrogen on IRMOF-1
DOI: 10.1021/Jp305524f
Adsorbate Hydrogen: InChIKey UFHFLCQGNIYNRP-UHFFFAOYSA-N
Temperature: 40 K
Tabular data in the source: 0
pressure (bar)	uptake (mmol/g)
0	27.8409
0.185185	35.9848
0.37037	30.1136
0.555556	41.8561
1.11111	43.3712
1.85185	44.697
2.59259	46.0227
3.51852	46.7803
4.25926	47.1591
5.55556	47.5379
7.59259	47.1591
8.7037	46.9697
9.81481	46.5909
10.9259	46.0227
12.037	45.4545
13.5185	44.5076
15	43.75
