Adsorption isotherm of Hydrogen on IRMOF-1
DOI: 10.1021/Jp305524f
Adsorbate Hydrogen: InChIKey UFHFLCQGNIYNRP-UHFFFAOYSA-N
Temperature: 100 K
Tabular data in the source: 0
pressure (bar)	uptake (mmol/g)
1.2963	1.50376
3.14815	3.57143
4.25926	4.51128
5.74074	5.6391
7.22222	6.76692
8.88889	7.70677
10.5556	8.45865
12.037	9.3985
13.8889	10.1504
15.5556	10.9023
17.2222	11.4662
19.0741	12.0301
20.7407	12.594
22.5926	13.1579
24.2593	13.5338
26.1111	13.9098
27.7778	14.4737
29.6296	14.6617
31.2963	15.0376
33.1481	15.4135
34.8148	15.7895
36.6667	15.9774
38.5185	16.1654
40.1852	16.5414
42.037	16.7293
43.8889	16.9173
45.7407	17.1053
47.4074	17.2932
49.2593	17.4812
51.1111	17.6692
52.963	17.6692
54.8148	17.8571
56.4815	18.0451
58.3333	18.0451
60.1852	18.2331
62.037	18.2331
63.8889	18.4211
65	18.4211
