Adsorption isotherm of Hydrogen on IRMOF-1
DOI: 10.1021/Jp305524f
Adsorbate Hydrogen: InChIKey UFHFLCQGNIYNRP-UHFFFAOYSA-N
Temperature: 50 K
Tabular data in the source: 0
pressure (bar)	uptake (mmol/g)
0.146347	10.4864
0.298242	19.4747
0.312807	15.5421
0.644341	26.028
0.654051	23.4062
1.00362	29.0231
1.18048	31.2697
1.53976	34.2649
2.45807	36.3219
3.56017	38.7529
5.40372	40.9944
7.06764	41.7382
9.4723	42.4798
11.3228	42.8486
12.9895	42.8434
14.842	42.6503
16.6946	42.4573
17.8064	42.2665
19.6597	41.8862
21.3278	41.5065
22.8113	40.94
24.6646	40.5597
26.3334	39.9927
28.188	39.2379
29.8575	38.4836
