Adsorption isotherm of Hydrogen on IRMOF-1
DOI: 10.1021/Jp305524f
Adsorbate Hydrogen: InChIKey UFHFLCQGNIYNRP-UHFFFAOYSA-N
Temperature: 300 K
Tabular data in the source: 0
pressure (bar)	uptake (mmol/g)
4.16404	-0.212766
7.3817	-0.212766
9.653	-0.425532
11.3565	-0.212766
13.2492	-0.212766
15.142	-0.212766
16.4669	-0.212766
18.3596	-0.212766
20.2524	0
22.1451	0
24.0379	0
25.9306	0
27.8233	0.212766
29.7161	0.212766
31.6088	0.212766
33.3123	0.425532
35.205	0.425532
37.0978	0.425532
38.9905	0.638298
40.8833	0.638298
42.3975	0.638298
44.2902	0.851064
46.183	0.851064
48.0757	0.851064
49.5899	0.851064
51.4826	1.06383
53.3754	1.06383
55.2681	1.2766
55.836	1.48936
57.7287	1.2766
59.6215	1.48936
61.3249	1.48936
63.2177	1.48936
