Adsorption isotherm of Hydrogen on IRMOF-1
DOI: 10.1021/Jp305524f
Adsorbate Hydrogen: InChIKey UFHFLCQGNIYNRP-UHFFFAOYSA-N
Temperature: 30 K
Tabular data in the source: 0
pressure (bar)	uptake (mmol/g)
0	0
0.185185	41.9831
0.37037	45.5696
0.555556	48.5232
0.925926	51.6878
1.48148	52.9536
2.22222	54.8523
3.7037	56.1181
5.55556	56.3291
6.11111	56.1181
