Adsorption isotherm of Hydrogen on IRMOF-1
DOI: 10.1021/Jp305524f
Adsorbate Hydrogen: InChIKey UFHFLCQGNIYNRP-UHFFFAOYSA-N
Temperature: 77 K
Tabular data in the source: 0
pressure (bar)	uptake (mmol/g)
1.12994	7.91472
1.9774	10.9866
3.10734	13.4682
4.80226	17.3679
6.21469	19.1412
7.62712	20.9145
8.47458	21.7423
10.7345	23.1623
12.1469	24.1088
13.5593	25.0554
16.6667	26.4764
18.6441	27.0693
20.339	27.6618
26.2712	28.8499
29.661	29.2083
33.6158	29.5673
37.0056	29.9256
41.2429	29.9306
47.7401	29.9383
50.565	29.9416
52.8249	29.8262
57.9096	29.596
61.8644	29.4825
64.6893	29.2496
68.6441	29.0181
72.5989	28.6684
76.8362	28.3191
80.226	28.0869
84.7458	27.7379
88.9831	27.5067
91.5254	27.1553
95.4802	26.8057
100	26.3386
