Adsorption isotherm of Hydrogen on IRMOF-1
DOI: 10.1021/Jp305524f
Adsorbate Hydrogen: InChIKey UFHFLCQGNIYNRP-UHFFFAOYSA-N
Temperature: 40 K
Tabular data in the source: 0
pressure (bar)	uptake (mmol/g)
0.385852	0.385852
0.771704	39.5349
1.15756	43.2558
1.92926	45.3488
3.08682	46.9767
5.209	48.3721
6.94534	48.8372
8.8746	49.0698
10.8039	48.8372
12.7331	48.6047
14.4695	48.1395
