Adsorption isotherm of Hydrogen on IRMOF-1
DOI: 10.1021/Jp305524f
Adsorbate Hydrogen: InChIKey UFHFLCQGNIYNRP-UHFFFAOYSA-N
Temperature: 77 K
Tabular data in the source: 0
pressure (bar)	uptake (mmol/g)
1.41243	6.26151
1.69492	8.50594
2.54237	10.8691
4.51977	13.9423
5.9322	15.5976
7.34463	16.7803
8.75706	17.845
10.1695	18.7915
11.8644	19.7384
13.8418	20.5675
17.2316	21.8707
19.4915	22.464
22.0339	23.0575
24.5763	23.533
27.4011	23.7725
29.9435	24.1299
32.7684	24.3694
35.3107	24.4905
37.8531	24.4935
40.678	24.615
43.5028	24.6183
46.0452	24.5032
52.2599	24.3924
55.0847	24.2777
59.322	24.0464
62.1469	23.9317
70.339	23.3508
73.1638	23.236
75.7062	23.0028
81.6384	22.5374
84.4633	22.4226
87.0056	22.1894
89.8305	21.9565
93.2203	21.7243
95.7627	21.4911
98.5876	21.2582
100	21.0236
