Adsorption isotherm of Hydrogen on IRMOF-1
DOI: 10.1021/Jp305524f
Adsorbate Hydrogen: InChIKey UFHFLCQGNIYNRP-UHFFFAOYSA-N
Temperature: 40 K
Tabular data in the source: 0
pressure (bar)	uptake (mmol/g)
0.185759	32.6923
0.371517	35.5769
0.743034	38.0769
0.928793	40.9615
1.67183	44.8077
3.52941	46.5385
5.57276	47.1154
7.24458	47.3077
9.10217	47.1154
11.3313	46.7308
13.1889	46.1538
15.2322	45.1923
