Adsorption isotherm of Hydrogen on IRMOF-1
DOI: 10.1021/Jp305524f
Adsorbate Hydrogen: InChIKey UFHFLCQGNIYNRP-UHFFFAOYSA-N
Temperature: 135 K
Tabular data in the source: 0
pressure (bar)	uptake (mmol/g)
2.23642	0.916447
5.43131	2.29087
7.66773	3.20732
9.58466	3.81893
12.1406	4.58369
15.3355	5.5016
18.5304	6.4195
22.0447	7.33789
25.8786	7.95242
28.754	8.5655
31.3099	9.17808
34.8243	9.79212
38.3387	10.254
41.2141	10.7149
44.0895	11.0236
46.9649	11.3323
49.8403	11.7932
54.3131	12.1044
57.508	12.5658
60.0639	13.0262
62.3003	12.8774
65.4952	13.1866
68.3706	13.4953
71.5655	13.5002
74.1214	13.9606
76.9968	13.965
80.1917	14.122
83.0671	14.2786
86.262	14.4356
89.7764	14.441
95.2077	14.7536
97.7636	14.9096
99.6805	15.0647
