Adsorption isotherm of Hydrogen on IRMOF-1
DOI: 10.1021/Jp305524f
Adsorbate Hydrogen: InChIKey UFHFLCQGNIYNRP-UHFFFAOYSA-N
Temperature: 60 K
Tabular data in the source: 0
pressure (bar)	uptake (mmol/g)
0.37037	5.68182
0.555556	9.09091
0.740741	12.1212
0.925926	15.3409
1.11111	17.2348
1.2963	18.3712
1.66667	21.4015
2.03704	23.1061
2.59259	25.1894
3.14815	27.2727
3.88889	28.9773
5	30.6818
6.11111	32.197
7.40741	33.5227
9.25926	34.8485
11.1111	35.7955
12.5926	36.1742
14.4444	36.553
17.2222	37.1212
19.0741	37.1212
20.9259	37.1212
22.5926	37.1212
24.4444	36.9318
26.2963	36.7424
27.963	36.553
29.8148	36.3636
31.6667	35.9848
33.3333	35.7955
35	35.4167
36.8519	35.0379
38.5185	34.6591
40.1852	34.2803
41.8519	33.7121
43.7037	33.3333
45.9259	32.7652
47.7778	32.3864
49.4444	32.0076
51.2963	31.4394
52.963	31.0606
54.8148	30.4924
56.6667	30.1136
58.5185	29.5455
59.8148	29.1667
