Adsorption isotherm of Hydrogen on IRMOF-1
DOI: 10.1021/Jp305524f
Adsorbate Hydrogen: InChIKey UFHFLCQGNIYNRP-UHFFFAOYSA-N
Temperature: 200 K
Tabular data in the source: 0
pressure (bar)	uptake (mmol/g)
2.77778	0.197414
5.18519	0.771023
7.40741	0.96669
8.7037	0.970766
10.5556	1.16527
11.2963	1.35628
13.1481	1.55078
15	1.74528
16.8519	1.93979
18.7037	2.13429
20.5556	2.32879
22.4074	2.33461
23.8889	2.52795
25.7407	2.72246
28.3333	2.91929
30.1852	2.92511
32.037	3.11961
33.8889	3.12544
36.1111	3.3211
37.963	3.51561
39.8148	3.52143
41.6667	3.71593
42.4074	3.71826
44.2593	3.72409
46.1111	3.91859
47.963	3.92441
50.5556	4.12124
52.4074	4.12707
54.2593	4.32157
57.037	4.33031
58.8889	4.52481
60.7407	4.53063
62.037	4.72339
63.7037	4.72863
64.8148	4.73212
