Adsorption isotherm of Hydrogen on IRMOF-1
DOI: 10.1021/Jp305524f
Adsorbate Hydrogen: InChIKey UFHFLCQGNIYNRP-UHFFFAOYSA-N
Temperature: 60 K
Tabular data in the source: 0
pressure (bar)	uptake (mmol/g)
0.371517	0.371517
0.557276	14.898
1.11455	18.5714
1.48607	21.8367
2.04334	24.6939
2.60062	27.1429
3.52941	29.3878
4.4582	31.2245
5.57276	32.8571
6.87307	34.2857
8.35913	35.5102
10.031	36.3265
11.8885	36.9388
13.5604	37.3469
15.418	37.551
17.2755	37.551
19.1331	37.551
20.9907	37.1429
22.6625	36.9388
24.5201	36.7347
26.192	36.3265
27.4923	35.9184
29.3498	35.5102
31.0217	35.102
32.8793	34.4898
34.5511	33.8776
36.4087	33.4694
38.0805	32.8571
39.9381	32.2449
41.6099	31.6327
43.2817	31.0204
45.1393	30.4082
46.8111	29.7959
48.483	29.1837
49.969	28.5714
51.8266	27.9592
53.4985	27.3469
55.1703	26.7347
57.0279	26.3265
59.6285	25.102
62.0433	24.4898
64.644	23.8776
