Adsorption isotherm of Hydrogen on IRMOF-1
DOI: 10.1021/Jp305524f
Adsorbate Hydrogen: InChIKey UFHFLCQGNIYNRP-UHFFFAOYSA-N
Temperature: 77 K
Tabular data in the source: 0
pressure (bar)	uptake (mmol/g)
0.555556	3.58665
1.11111	6.22991
1.85185	9.06243
2.77778	11.7068
3.7037	14.1626
4.62963	16.0523
6.11111	17.7551
7.22222	19.0793
8.51852	20.4041
10.7407	22.2979
12.2222	23.246
13.1481	23.8149
14.6296	24.5743
16.2963	25.3343
18.7037	26.4739
20.3704	26.8565
22.2222	27.2397
24.8148	27.8139
26.6667	28.1971
28.7037	28.3922
30.3704	28.5861
32.2222	28.7806
34.0741	28.9751
36.8519	28.9838
38.5185	29.1777
40.3704	29.1836
42.2222	29.1894
44.0741	29.1952
45.9259	29.201
47.7778	29.0182
49.4444	29.0234
51.2963	29.0292
53.1481	28.8464
54.8148	28.8516
56.6667	28.6688
58.5185	28.4859
60.3704	28.4917
62.7778	28.3106
64.6296	28.1278
