Adsorption isotherm of Hydrogen on IRMOF-1
DOI: 10.1021/Jp305524f
Adsorbate Hydrogen: InChIKey UFHFLCQGNIYNRP-UHFFFAOYSA-N
Temperature: 30 K
Tabular data in the source: 0
pressure (bar)	uptake (mmol/g)
0.0187268	44.9438
0.0312113	41.5729
0.0596484	33.8949
0.0929405	24.9061
0.196285	47.0031
0.375923	48.5007
0.554868	50.1855
1.10696	51.1201
2.40258	51.3034
3.51578	50.7381
4.81418	50.1722
5.74289	49.4203
6.11465	49.0446
