Adsorption isotherm of Hydrogen on IRMOF-1
DOI: 10.1021/Jp305524f
Adsorbate Hydrogen: InChIKey UFHFLCQGNIYNRP-UHFFFAOYSA-N
Temperature: 50 K
Tabular data in the source: 0
pressure (bar)	uptake (mmol/g)
0.185759	18.3673
0.371517	21.8367
0.743034	25.7143
0.928793	28.9796
1.11455	31.4286
1.67183	33.8776
2.2291	36.3265
3.34365	39.1837
5.01548	41.0204
6.50155	42.2449
8.17337	42.8571
10.031	43.2653
11.8885	43.2653
12.8173	43.0612
14.6749	42.8571
16.3467	42.2449
18.0186	41.8367
19.8762	41.2245
21.548	40.6122
23.0341	39.7959
24.7059	38.9796
26.3777	38.1633
28.0495	37.3469
29.7214	36.5306
