Adsorption isotherm of Hydrogen on IRMOF-1
DOI: 10.1021/Jp305524f
Adsorbate Hydrogen: InChIKey UFHFLCQGNIYNRP-UHFFFAOYSA-N
Temperature: 200 K
Tabular data in the source: 0
pressure (bar)	uptake (mmol/g)
2.03007	0.188679
3.13776	0.188679
4.98322	0.377358
7.0126	0.754717
8.85806	0.943396
10.7035	1.13208
12.1804	1.13208
14.0259	1.32075
15.8713	1.50943
16.9783	1.69811
18.8245	1.69811
20.67	1.88679
22.1462	2.07547
23.8077	2.07547
25.6532	2.26415
28.4217	2.45283
30.2672	2.64151
32.1133	2.64151
33.9588	2.83019
36.1735	3.01887
38.0196	3.01887
39.8651	3.20755
41.7112	3.20755
43.5567	3.39623
45.4028	3.39623
46.8791	3.58491
48.7252	3.58491
50.3861	3.77358
52.2322	3.77358
55.7392	3.96226
57.5854	3.96226
59.2462	4.15094
60.9078	4.15094
62.7539	4.15094
64.5994	4.33962
