Adsorption isotherm of Hydrogen on IRMOF-1
DOI: 10.1021/Jp305524f
Adsorbate Hydrogen: InChIKey UFHFLCQGNIYNRP-UHFFFAOYSA-N
Temperature: 50 K
Tabular data in the source: 0
pressure (bar)	uptake (mmol/g)
0.102409	22.2642
0.124006	16.4151
0.298868	19.0566
0.646502	24.9057
0.819274	28.1132
1.17736	31.1321
1.53753	33.5849
1.71379	35.8491
2.6299	37.7358
4.10194	39.0566
5.57608	39.8113
7.23623	40.1887
9.08168	40.3774
10.9278	40.3774
12.7747	40.1887
15.3607	39.8113
17.2082	39.434
18.8712	39.0566
20.7187	38.6792
22.3817	38.3019
24.2292	37.9245
25.8928	37.3585
26.818	36.7925
28.4802	36.6038
29.9585	36.2264
