Adsorption isotherm of Hydrogen on IRMOF-1
DOI: 10.1021/Jp305524f
Adsorbate Hydrogen: InChIKey UFHFLCQGNIYNRP-UHFFFAOYSA-N
Temperature: 50 K
Tabular data in the source: 0
pressure (bar)	uptake (mmol/g)
0.127663	16.5948
0.480178	24.3534
0.49418	20.6897
0.850813	27.3707
1.22227	30.1724
1.59291	33.1897
1.77905	34.4828
2.34735	35.7759
2.91484	37.2845
3.86531	38.5776
5.00522	40.3017
6.72084	41.3793
8.43812	42.0259
10.3473	42.4569
12.2581	42.4569
13.9779	42.4569
15.8895	42.2414
17.6109	41.8103
19.5234	41.3793
21.2456	40.7328
23.1581	40.3017
24.8811	39.4397
26.7944	38.7931
28.5166	38.1466
29.6656	37.5
