Adsorption isotherm of Hydrogen on IRMOF-1
DOI: 10.1021/Jp305524f
Adsorbate Hydrogen: InChIKey UFHFLCQGNIYNRP-UHFFFAOYSA-N
Temperature: 300 K
Tabular data in the source: 0
pressure (bar)	uptake (g/l)
0.634921	2.03046
0.952381	4.46701
2.22222	10.3553
5.39683	16.4467
6.98413	18.0711
11.1111	21.7259
16.5079	25.3807
26.6667	30.0508
33.3333	32.2843
37.1429	33.2995
45.0794	35.3299
47.9365	35.9391
56.5079	37.7665
58.4127	38.1726
67.9365	40
69.8413	40.4061
80.3175	42.0305
92.381	43.6548
100	44.467
