Adsorption isotherm of Hydrogen on IRMOF-1
DOI: 10.1021/Jp305524f
Adsorbate Hydrogen: InChIKey UFHFLCQGNIYNRP-UHFFFAOYSA-N
Temperature: 77 K
Tabular data in the source: 0
pressure (bar)	uptake (mmol/g)
0.6074	4.50593
0.624149	6.28458
0.915567	7.2332
1.49505	8.7747
2.64621	11.0277
3.22012	11.9763
3.51488	13.2806
4.37127	14.2292
5.23213	15.6522
6.37436	16.9565
6.94603	17.668
8.65211	18.8538
10.0746	19.9209
11.4948	20.751
13.48	21.581
18.8663	23.5968
21.1317	24.1897
29.0525	25.3755
31.8785	25.4941
39.5089	25.8498
42.3338	25.8498
50.5237	25.6126
53.3474	25.4941
55.8875	25.2569
61.2514	24.9012
64.0752	24.7826
66.6153	24.5455
72.2606	24.0711
75.0832	23.834
77.6233	23.5968
80.4459	23.3597
83.5511	23.1225
86.0901	22.7668
88.9127	22.5296
91.4528	22.2925
94.8404	22.0553
97.3806	21.8182
99.6371	21.4625
