Adsorption isotherm of Hydrogen on IRMOF-1
DOI: 10.1021/Jp305524f
Adsorbate Hydrogen: InChIKey UFHFLCQGNIYNRP-UHFFFAOYSA-N
Temperature: 138 K
Tabular data in the source: 0
pressure (bar)	uptake (mmol/g)
3.17636	0.917877
6.34995	2.1401
8.88938	3.05701
11.1117	3.82126
13.6525	4.58599
15.8763	5.19807
18.7369	5.81112
20.962	6.27103
23.5015	7.18794
26.3663	7.34447
29.2283	7.80535
31.7705	8.41791
34.3155	8.72613
37.1776	9.18701
40.3581	9.64837
43.2215	9.95708
45.7665	10.2653
48.6299	10.574
51.1749	10.8822
54.0383	11.1909
57.2216	11.3479
61.9944	11.8117
65.1777	11.9687
68.0412	12.2775
71.2244	12.4345
73.7708	12.5905
74.7262	12.592
77.9081	12.9012
80.7743	12.9055
83.9576	13.0625
87.4593	13.22
90.6426	13.3771
93.8259	13.5341
97.0106	13.5389
98.9214	13.5418
