Adsorption isotherm of Hydrogen on IRMOF-1
DOI: 10.1021/Jp305524f
Adsorbate Hydrogen: InChIKey UFHFLCQGNIYNRP-UHFFFAOYSA-N
Temperature: 60 K
Tabular data in the source: 0
pressure (bar)	uptake (mmol/g)
0.740741	11.8891
0.925926	15.0973
1.2963	19.2494
1.85185	21.3266
2.40741	23.9698
2.96296	26.2357
3.88889	28.3141
4.62963	30.0146
5.37037	30.7716
6.48148	32.0959
7.22222	33.0416
8.7037	34.1783
9.44444	34.7467
11.1111	35.5066
12.7778	36.2666
14.6296	36.6498
16.2963	36.8437
17.2222	37.224
19.0741	37.4185
20.9259	37.4243
22.5926	37.4295
24.4444	37.2467
26.2963	37.0638
27.963	37.0691
29.6296	36.8856
31.4815	36.5141
33.3333	35.9539
35	35.9591
36.8519	35.5876
38.5185	35.2155
40.3704	35.0326
42.037	34.6605
43.8889	34.289
45.5556	34.1055
47.037	33.5441
48.8889	33.1726
50.5556	32.8005
52.4074	32.2403
54.0741	31.8682
55.7407	31.496
57.5926	31.1245
59.2593	30.7524
