Adsorption isotherm of Hydrogen on IRMOF-1
DOI: 10.1021/Jp305524f
Adsorbate Hydrogen: InChIKey UFHFLCQGNIYNRP-UHFFFAOYSA-N
Temperature: 77 K
Tabular data in the source: 0
pressure (bar)	uptake (mmol/g)
0.868004	5.5672
1.1508	6.70324
1.4336	7.83928
2.54931	10.6789
3.10458	11.8147
3.65986	12.9504
4.48658	13.9722
5.04185	15.1079
6.96674	17.0375
8.06593	18.059
9.4376	19.0802
11.0807	19.9874
12.7238	20.8946
14.6384	21.6879
16.5509	22.2539
18.7369	22.9333
21.1933	23.385
23.6497	23.8368
27.1961	24.2873
29.6504	24.5118
32.1048	24.7362
34.8306	24.8468
37.5564	24.9573
40.2811	24.9542
43.0059	24.9511
45.7296	24.8344
48.4544	24.8313
51.4506	24.7143
54.9918	24.5966
57.987	24.3659
59.3483	24.2507
62.0721	24.134
64.2488	23.7906
66.9735	23.7875
68.8768	23.3308
71.3301	23.4417
73.7813	23.3252
76.504	23.0949
78.9543	22.8648
81.677	22.6345
84.1272	22.4044
86.8499	22.174
89.3012	22.0576
91.7493	21.6003
94.2016	21.5975
96.9243	21.3671
99.3745	21.1371
