Adsorption isotherm of Hydrogen on IRMOF-1
DOI: 10.1021/Jp305524f
Adsorbate Hydrogen: InChIKey UFHFLCQGNIYNRP-UHFFFAOYSA-N
Temperature: 30 K
Tabular data in the source: 0
pressure (bar)	uptake (mmol/g)
0	40.5224
0.184615	46.7904
0.369231	55.2971
0.738462	59.3256
1.47692	60.4423
2.21538	60.4395
3.13846	60.2122
4.24615	59.3125
5.35385	58.6367
6.27692	58.1855
