Adsorption isotherm of Hydrogen on IRMOF-1
DOI: 10.1021/Jp305524f
Adsorbate Hydrogen: InChIKey UFHFLCQGNIYNRP-UHFFFAOYSA-N
Temperature: 125 K
Tabular data in the source: 0
pressure (bar)	uptake (mmol/g)
2.59259	1.70627
3.88889	2.46506
5.18519	3.41253
6.48148	4.17133
8.14815	4.55392
9.62963	5.50198
11.2963	5.88458
12.963	6.64454
14.6296	7.21582
16.1111	7.78651
17.7778	8.16911
19.6296	8.55229
21.2963	9.12357
22.963	9.50617
24.8148	9.70068
26.4815	10.0833
28.1481	10.4659
30	10.6604
31.4815	11.2311
33.3333	11.2369
35.1852	11.4314
37.037	11.8146
37.5926	12.005
39.4444	12.0108
41.2963	12.2053
43.1481	12.3998
44.0741	12.7801
45.9259	12.7859
47.5926	12.9799
49.4444	13.1744
50.7407	13.1784
52.5926	13.3729
54.4444	13.3788
56.6667	13.5744
58.5185	13.7689
62.5926	13.9704
64.4444	13.9762
