Adsorption isotherm of Hydrogen on IRMOF-1
DOI: 10.1021/Jp305524f
Adsorbate Hydrogen: InChIKey UFHFLCQGNIYNRP-UHFFFAOYSA-N
Temperature: 30 K
Tabular data in the source: 0
pressure (bar)	uptake (mmol/g)
0.202032	45.283
0.208999	43.3962
0.218752	40.7547
0.231988	37.1698
0.9391	45.6604
1.67896	45.283
2.60273	45.0943
3.5265	44.9057
4.26705	44.3396
5.37684	43.7736
6.11739	43.2075
