Adsorption isotherm of Hydrogen on IRMOF-1
DOI: 10.1021/Jp305524f
Adsorbate Hydrogen: InChIKey UFHFLCQGNIYNRP-UHFFFAOYSA-N
Temperature: 125 K
Tabular data in the source: 0
pressure (bar)	uptake (mmol/g)
2.70096	0
4.05145	0.465116
5.98071	0.930233
7.71704	1.62791
9.6463	2.32558
11.3826	3.02326
13.3119	3.48837
15.0482	4.18605
16.9775	4.65116
18.7138	5.34884
20.6431	5.81395
22.3794	6.51163
24.3087	6.74419
26.045	7.2093
27.9743	7.67442
29.7106	8.13953
31.6399	8.60465
33.5691	8.83721
35.3055	9.30233
37.2347	9.53488
39.164	9.76744
40.9003	10.2326
42.8296	10.4651
44.7588	10.6977
46.6881	10.9302
48.4244	10.9302
50.3537	11.1628
52.283	11.3953
54.2122	11.6279
56.1415	11.6279
58.0707	11.8605
60	11.8605
61.7363	12.093
63.6656	12.093
64.6302	12.093
