Adsorption isotherm of Hydrogen on IRMOF-1
DOI: 10.1021/Jp305524f
Adsorbate Hydrogen: InChIKey UFHFLCQGNIYNRP-UHFFFAOYSA-N
Temperature: 77 K
Tabular data in the source: 0
pressure (bar)	uptake (mmol/g)
1.69492	7.79528
2.25989	9.09449
3.10734	10.3937
4.51977	11.811
6.21469	13.2283
7.62712	14.1732
9.32203	15.1181
11.0169	16.063
12.9944	16.8898
15.2542	17.5984
17.5141	18.3071
20.0565	18.7795
22.5989	19.3701
25.1412	19.6063
27.6836	19.9606
30.5085	20.1969
33.3333	20.4331
35.8757	20.5512
38.7006	20.6693
41.5254	20.6693
46.6102	20.6693
49.435	20.6693
52.2599	20.5512
54.8023	20.4331
57.6271	20.315
60.1695	20.315
62.9944	20.1969
65.8192	20.0787
68.9266	19.8425
71.7514	19.7244
74.2938	19.4882
77.1186	19.3701
80.226	19.1339
83.0508	19.0157
85.5932	18.7795
88.4181	18.6614
94.9153	18.189
97.7401	18.0709
99.7175	17.8346
