Adsorption isotherm of Hydrogen on IRMOF-1
DOI: 10.1021/Jp305524f
Adsorbate Hydrogen: InChIKey UFHFLCQGNIYNRP-UHFFFAOYSA-N
Temperature: 100 K
Tabular data in the source: 0
pressure (bar)	uptake (mmol/g)
1.70986	2.58621
2.85059	4.09483
3.80189	5.17241
4.94262	6.68103
6.46716	7.75862
7.80063	8.83621
9.32435	10.1293
10.8497	10.9914
12.5653	12.069
14.2818	12.931
15.9982	13.7931
17.7155	14.4397
19.4328	15.0862
21.1501	15.7328
22.8682	16.1638
24.7765	16.8103
26.4938	17.4569
28.403	17.8879
30.3122	18.319
32.0311	18.5345
33.9403	18.9655
34.7038	19.181
36.6138	19.3966
38.5238	19.6121
40.2427	19.8276
41.0062	20.0431
42.917	20.0431
44.827	20.2586
46.737	20.4741
47.1192	20.4741
49.0292	20.6897
50.9392	20.9052
52.85	20.9052
54.7609	20.9052
56.4798	21.1207
58.3906	21.1207
60.3014	21.1207
61.8293	21.3362
63.7401	21.3362
64.6964	21.1207
