Adsorption isotherm of Hydrogen on IRMOF-1
DOI: 10.1021/Jp305524f
Adsorbate Hydrogen: InChIKey UFHFLCQGNIYNRP-UHFFFAOYSA-N
Temperature: 77 K
Tabular data in the source: 0
pressure (bar)	uptake (mmol/g)
0.815217	4.77965
1.3587	7.75083
1.63043	9.8176
1.90217	10.8512
2.44565	12.5308
2.98913	14.0814
3.53261	15.2444
4.07609	16.02
4.8913	17.3126
6.25	19.5099
7.6087	21.0615
9.23913	22.6134
11.9565	24.5542
16.0326	26.4967
19.0217	27.6629
22.0109	28.3126
24.4565	28.8323
26.9022	29.2229
29.6196	29.6139
31.7935	30.0042
34.5109	30.0077
37.5	30.2698
40.2174	30.4025
42.9348	30.406
44.837	30.1502
47.2826	30.2825
50	30.4151
52.7174	30.2895
55.163	30.1635
57.337	30.0372
60.0543	30.0407
62.7717	29.915
65.2174	29.789
67.663	29.9213
69.837	29.4075
72.5543	29.2819
75	29.1559
77.7174	29.0303
84.2391	28.3929
87.7717	28.1392
92.3913	27.8869
95.1087	27.6321
97.5543	27.5061
99.7283	27.2506
