Adsorption isotherm of Hydrogen on IRMOF-1
DOI: 10.1021/Jp305524f
Adsorbate Hydrogen: InChIKey UFHFLCQGNIYNRP-UHFFFAOYSA-N
Temperature: 111 K
Tabular data in the source: 0
pressure (bar)	uptake (mmol/g)
1.59744	1.20536
5.43131	3.34821
7.34824	4.41964
9.26518	5.49107
12.4601	6.69643
15.3355	7.63393
22.3642	9.50893
25.2396	10.1786
28.115	10.7143
30.9904	11.25
34.1853	11.7857
37.0607	12.1875
39.9361	12.4554
42.8115	12.8571
49.8403	13.3929
53.0351	13.6607
55.9105	13.6607
58.147	13.9286
60.3834	14.1964
63.5783	14.1964
66.7732	14.3304
69.3291	14.5982
71.885	14.5982
75.0799	14.5982
79.2332	14.5982
82.1086	14.8661
84.345	14.5982
86.901	14.8661
90.0958	14.8661
93.2907	14.8661
96.4856	14.8661
99.6805	14.8661
