Adsorption isotherm of Hydrogen on IRMOF-1
DOI: 10.1021/Jp305524f
Adsorbate Hydrogen: InChIKey UFHFLCQGNIYNRP-UHFFFAOYSA-N
Temperature: 300 K
Tabular data in the source: 0
pressure (bar)	uptake (mmol/g)
4.43077	0.431228
6.46154	0.871412
8.49231	1.08772
10.5231	1.30402
12.1846	1.29782
14.0308	1.29093
15.8769	1.50792
16.9846	1.72767
18.8308	1.72078
20.6769	1.93777
22.1538	2.15614
23.4462	1.92744
25.2923	2.14443
27.1385	2.13754
28.2462	2.80505
29.9077	2.35109
31.7538	2.56808
33.6	2.56119
35.2615	2.77887
37.1077	2.77199
38.9538	2.7651
40.8	2.98209
42.6462	2.9752
44.4923	2.96831
46.3385	3.1853
48.1846	3.17842
50.0308	3.39541
51.8769	3.38852
53.7231	3.38163
55.3846	3.59931
57.2308	3.59242
59.0769	3.58553
60.9231	3.80253
62.7692	3.79564
64.6154	3.78875
