Adsorption isotherm of Hydrogen on IRMOF-1
DOI: 10.1021/Jp305524f
Adsorbate Hydrogen: InChIKey UFHFLCQGNIYNRP-UHFFFAOYSA-N
Temperature: 77 K
Tabular data in the source: 0
pressure (bar)	uptake (mmol/g)
0.378549	2.76596
0.757098	4.89362
1.89274	9.78723
2.83912	12.766
3.97476	15.1064
5.48896	17.4468
6.81388	19.1489
7.57098	20
8.8959	21.2766
10.4101	22.5532
12.1136	23.617
13.6278	24.2553
15.3312	25.1064
17.224	25.7447
18.9274	26.1702
20.8202	26.8085
22.5237	27.0213
24.4164	27.4468
26.3091	27.6596
28.0126	27.8723
29.9054	28.0851
31.7981	28.2979
33.6909	28.2979
35.5836	28.5106
37.4763	28.5106
39.3691	28.5106
41.2618	28.7234
42.776	28.5106
44.4795	28.5106
46.3722	28.5106
48.265	28.5106
50.1577	28.5106
52.0505	28.5106
53.7539	28.2979
55.6467	28.2979
57.5394	28.2979
59.8107	28.0851
62.4606	27.8723
64.3533	27.8723
