Adsorption isotherm of Hydrogen on IRMOF-1
DOI: 10.1021/Jp305524f
Adsorbate Hydrogen: InChIKey UFHFLCQGNIYNRP-UHFFFAOYSA-N
Temperature: 200 K
Tabular data in the source: 0
pressure (bar)	uptake (mmol/g)
11.6667	0.21097
13.5185	0.421941
15.3704	0.421941
17.037	0.632911
18.8889	0.632911
20.7407	0.843882
22.4074	0.843882
24.2593	1.05485
26.1111	1.05485
28.1481	1.26582
30	1.26582
31.8519	1.47679
33.7037	1.47679
35.1852	1.26582
36.8519	1.68776
38.7037	1.89873
40.5556	1.89873
42.2222	2.1097
44.0741	2.1097
45.9259	2.1097
47.7778	2.32068
49.6296	2.32068
51.2963	2.53165
53.1481	2.53165
55	2.53165
56.8519	2.74262
58.7037	2.74262
60.5556	2.95359
62.4074	2.95359
64.2593	2.95359
