Adsorption isotherm of Hydrogen on IRMOF-1
DOI: 10.1021/Jp305524f
Adsorbate Hydrogen: InChIKey UFHFLCQGNIYNRP-UHFFFAOYSA-N
Temperature: 50 K
Tabular data in the source: 0
pressure (bar)	uptake (mmol/g)
0.185185	12.782
0.37037	16.7293
0.925926	26.8797
1.48148	29.6992
2.03704	32.1429
2.59259	34.3985
3.33333	36.2782
4.44444	38.1579
5.55556	39.2857
7.03704	40.4135
8.7037	40.9774
9.81481	41.3534
11.6667	41.5414
13.1481	41.7293
14.8148	41.7293
16.6667	41.7293
17.963	41.5414
19.8148	41.3534
21.6667	40.9774
23.3333	40.6015
25.1852	40.2256
26.8519	39.8496
27.2222	39.4737
29.0741	39.2857
29.8148	39.0977
