Adsorption isotherm of Hydrogen on IRMOF-1
DOI: 10.1021/Jp305524f
Adsorbate Hydrogen: InChIKey UFHFLCQGNIYNRP-UHFFFAOYSA-N
Temperature: 77 K
Tabular data in the source: 0
pressure (bar)	uptake (mmol/g)
0.327148	4.74308
0.906635	6.28458
1.21145	8.65613
1.80545	11.7391
2.95773	14.1107
3.53386	15.2964
4.10889	16.3636
4.68279	17.3123
6.39892	19.5652
8.68002	21.8182
11.2436	24.0711
13.2311	25.1383
16.0671	26.3241
18.0501	26.917
20.6014	27.8656
26.2611	28.9328
29.9379	29.4071
37.5695	29.8814
43.2203	30
48.3051	30
53.1062	29.8814
58.1887	29.6443
61.0125	29.5257
64.4001	29.2885
69.7617	28.6957
73.4329	28.5771
75.9742	28.4585
79.3607	28.1028
83.3121	27.747
87.2636	27.3913
91.4986	27.1542
95.1665	26.6798
100.248	26.3241
