Adsorption isotherm of Hydrogen on IRMOF-1
DOI: 10.1021/Jp305524f
Adsorbate Hydrogen: InChIKey UFHFLCQGNIYNRP-UHFFFAOYSA-N
Temperature: 60 K
Tabular data in the source: 0
pressure (bar)	uptake (mmol/g)
0.743034	14.2308
1.11455	18.0769
1.48607	20.5769
2.04334	21.9231
2.2291	23.4615
2.60062	25
2.97214	26.7308
3.90093	28.0769
4.82972	30
5.94427	31.3462
6.68731	32.3077
8.91641	33.2692
9.47368	34.0385
11.3313	34.8077
12.8173	35.1923
14.6749	35.5769
17.0898	35.9615
18.9474	36.1538
20.805	36.1538
22.6625	36.3462
24.5201	36.3462
26.192	36.1538
27.678	36.1538
29.5356	35.9615
31.3932	35.7692
33.065	35.7692
34.5511	35.3846
36.4087	35.1923
38.2663	35
40.1238	35
41.7957	34.4231
43.6533	34.2308
45.3251	33.8462
47.1827	33.6538
49.0402	33.2692
50.7121	33.0769
52.3839	32.6923
54.2415	32.5
57.2136	31.9231
59.0712	31.7308
60.1858	31.3462
