Adsorption isotherm of Hydrogen on IRMOF-1
DOI: 10.1021/Jp305524f
Adsorbate Hydrogen: InChIKey UFHFLCQGNIYNRP-UHFFFAOYSA-N
Temperature: 295 K
Tabular data in the source: 0
pressure (bar)	uptake (mmol/g)
4.07609	0.252108
9.51087	0.373791
12.2283	0.370295
17.3913	0.621004
20.6522	0.745484
24.4565	0.869266
27.7174	0.86507
29.3478	0.862972
32.337	1.11648
36.6848	1.23956
40.7609	1.36299
43.75	1.35915
45.1087	1.3574
47.0109	1.48363
50.8152	1.60741
53.8043	1.73224
56.5217	1.72874
60.3261	1.85252
63.0435	1.84902
66.0326	1.84518
71.1957	2.09589
73.913	2.09239
78.8043	2.21477
81.5217	2.33995
84.2391	2.33646
86.9565	2.46164
89.6739	2.45814
92.3913	2.45464
94.2935	2.58087
97.0109	2.57738
99.7283	2.57388
