Adsorption isotherm of Hydrogen on IRMOF-1
DOI: 10.1021/Jp305524f
Adsorbate Hydrogen: InChIKey UFHFLCQGNIYNRP-UHFFFAOYSA-N
Temperature: 50 K
Tabular data in the source: 0
pressure (bar)	uptake (mmol/g)
0.185185	21.17
0.555556	23.389
0.740741	25.6073
1.11111	29.036
1.66667	31.6588
2.59259	34.6861
3.7037	37.3108
5	38.9281
6.48148	40.3444
8.51852	41.3593
10.1852	41.7681
11.8519	42.3785
13.1481	42.3829
15	42.5907
16.8519	42.5969
17.7778	42.3984
19.6296	42.2031
21.4815	42.0077
22.7778	41.8104
24.4444	41.4128
26.2963	40.8142
28.1481	40.4172
29.8148	39.8179
