Adsorption isotherm of Hydrogen on IRMOF-1
DOI: 10.1021/Jp305524f
Adsorbate Hydrogen: InChIKey UFHFLCQGNIYNRP-UHFFFAOYSA-N
Temperature: 300 K
Tabular data in the source: 0
pressure (bar)	uptake (g/l)
0.634921	1.42132
1.26984	3.85787
1.90476	6.49746
2.85714	9.54315
6.03175	14.8223
8.57143	17.4619
12.0635	20.5076
17.7778	23.5533
19.0476	24.1624
23.1746	25.7868
27.3016	27.6142
30.4762	28.4264
34.2857	29.4416
39.6825	31.066
42.5397	31.6751
46.3492	32.6904
52.381	33.9086
54.6032	34.3147
60.6349	35.533
65.3968	36.3452
66.9841	36.5482
78.4127	38.5787
79.6825	38.5787
86.3492	39.5939
92.381	40.4061
96.1905	40.8122
99.6825	41.2183
