Adsorption isotherm of Hydrogen on IRMOF-1
DOI: 10.1021/Jp305524f
Adsorbate Hydrogen: InChIKey UFHFLCQGNIYNRP-UHFFFAOYSA-N
Temperature: 100 K
Tabular data in the source: 0
pressure (bar)	uptake (mmol/g)
0.738462	1.13013
2.21538	3.57837
3.87692	5.46327
5.53846	7.34818
6.46154	8.10295
7.38462	8.66975
8.86154	9.8022
9.96923	10.5575
11.4462	11.502
12.9231	12.4465
13.2923	12.4477
14.9538	13.2047
16.6154	14.1498
18.0923	14.7183
19.7538	15.2874
21.6	15.8571
23.0769	16.4257
24.9231	16.8074
26.5846	17.3765
28.2462	17.7577
30.0923	17.9514
31.7538	18.3326
33.6	18.7143
34.7077	18.9057
36.5538	19.0995
38.2154	19.4806
40.0615	19.6744
40.9846	19.8652
42.8308	20.059
44.6769	20.0648
46.5231	20.2585
47.0769	20.2603
48.9231	20.454
50.7692	20.6478
52.4308	20.8409
54.2769	20.8467
55.9385	21.0399
57.7846	21.0457
58.3385	21.0474
60.1846	21.2412
61.8462	21.2464
63.6923	21.2522
64.8	21.2556
