Adsorption isotherm of Hydrogen on IRMOF-1
DOI: 10.1021/Jp305524f
Adsorbate Hydrogen: InChIKey UFHFLCQGNIYNRP-UHFFFAOYSA-N
Temperature: 77 K
Tabular data in the source: 0
pressure (bar)	uptake (mmol/g)
1.12994	4.38735
1.41243	6.04743
1.9774	7.58893
2.82486	9.72332
3.67232	11.3834
4.51977	12.4506
6.21469	14.3478
8.47458	16.3636
11.0169	17.668
12.7119	18.3794
14.9718	19.2095
17.2316	19.8024
19.774	20.3953
22.3164	20.751
25.1412	21.2253
28.5311	21.581
32.7684	21.6996
35.3107	21.8182
37.5706	21.8182
40.113	21.8182
42.3729	21.581
44.6328	21.8182
47.4576	21.6996
50.2825	21.581
52.5424	21.3439
54.5198	20.9881
57.0621	21.2253
59.887	21.1067
62.4294	20.8696
64.9718	20.6324
67.2316	20.3953
69.4915	20.3953
72.0339	20.1581
74.8588	19.9209
77.6836	19.8024
80.226	19.5652
82.4859	19.3281
85.3107	19.0909
87.8531	18.8538
90.678	18.6166
93.2203	18.3794
96.0452	18.1423
98.5876	18.0237
99.7175	17.7866
