Adsorption isotherm of Hydrogen on IRMOF-1
DOI: 10.1021/Jp305524f
Adsorbate Hydrogen: InChIKey UFHFLCQGNIYNRP-UHFFFAOYSA-N
Temperature: 125 K
Tabular data in the source: 0
pressure (bar)	uptake (mmol/g)
2.40189	1.49063
4.0651	2.42177
5.54383	3.16622
7.02325	3.7234
7.76192	4.28289
9.42652	4.83949
10.9046	5.77121
12.5698	6.14054
14.4196	6.69657
15.3442	7.06821
17.0088	7.62482
18.6734	8.18142
20.338	8.73802
22.0033	9.10736
23.8538	9.47611
25.8895	9.84429
27.5541	10.4009
29.4046	10.7696
31.0705	10.9517
32.7358	11.321
34.5863	11.6898
36.4368	12.0586
37.9183	12.0539
39.5836	12.4233
41.4341	12.792
43.2853	12.9735
44.9513	13.1556
46.6166	13.5249
48.4678	13.7064
50.1358	13.3267
51.7997	14.0705
53.6509	14.252
55.3169	14.4341
56.7984	14.4295
58.4644	14.6115
59.5748	14.7953
61.2429	14.4156
62.3519	14.9739
64.2038	14.9682
64.9439	15.1531
