Adsorption isotherm of Hydrogen on IRMOF-1
DOI: 10.1021/Jp305524f
Adsorbate Hydrogen: InChIKey UFHFLCQGNIYNRP-UHFFFAOYSA-N
Temperature: 50 K
Tabular data in the source: 0
pressure (bar)	uptake (mmol/g)
0	19.3617
0.189274	15.1064
0.378549	23.1915
0.757098	27.8723
1.32492	30.8511
1.5142	33.617
2.46057	35.9574
3.59621	37.4468
5.11041	38.7234
6.81388	39.5745
8.51735	40.2128
10.4101	40.6383
12.3028	40.6383
14.1956	40.8511
16.0883	40.8511
17.9811	40.8511
19.8738	40.8511
21.7666	40.8511
23.47	40.8511
25.3628	40.8511
27.2555	40.6383
29.1483	40.6383
29.9054	40.6383
