Adsorption isotherm of Hydrogen on IRMOF-1
DOI: 10.1021/Jp305524f
Adsorbate Hydrogen: InChIKey UFHFLCQGNIYNRP-UHFFFAOYSA-N
Temperature: 300 K
Tabular data in the source: 0
pressure (bar)	uptake (mmol/g)
5.37037	-0.180654
9.62963	-0.166569
13.5185	-0.153709
17.7778	0.0587889
19.8148	0.0655252
21.1111	0.0698119
23.3333	0.0771605
25	0.082672
27.5926	0.0912453
29.2593	-0.101656
32.5926	-0.090633
34.6296	-0.0838967
36.4815	-0.0777729
38.3333	-0.071649
40.1852	-0.0655252
42.037	-0.0594013
43.8889	-0.0532775
45.7407	-0.0471536
47.5926	-0.0410298
49.4444	-0.0349059
51.2963	-0.0287821
53.1481	-0.0226582
55	-0.0165344
56.8519	-0.0104105
58.7037	-0.00428669
60.5556	0.00183715
62.4074	0.007961
64.2593	0.0140849
