Adsorption isotherm of Hydrogen on IRMOF-1
DOI: 10.1021/Jp305524f
Adsorbate Hydrogen: InChIKey UFHFLCQGNIYNRP-UHFFFAOYSA-N
Temperature: 300 K
Tabular data in the source: 0
pressure (bar)	uptake (mmol/g)
22.1053	0
25.4489	0
28.6068	0
31.7647	0.192308
33.808	0.384615
35.1084	0.192308
37.709	0.384615
39.5666	0.384615
41.4241	0.384615
42.9102	0.576923
44.7678	0.576923
46.6254	0.576923
48.2972	0.769231
49.7833	0.769231
51.6409	0.961538
53.4985	0.961538
54.9845	0.961538
57.9567	0.961538
59.6285	1.15385
62.9721	1.34615
65.2012	1.34615
