Adsorption isotherm of Hydrogen on IRMOF-1
DOI: 10.1021/Jp305524f
Adsorbate Hydrogen: InChIKey UFHFLCQGNIYNRP-UHFFFAOYSA-N
Temperature: 77 K
Tabular data in the source: 0
pressure (bar)	uptake (mmol/g)
0.564972	4.26877
1.12994	7.11462
1.69492	8.65613
1.9774	10.1976
3.67232	12.9249
4.51977	14.4664
5.9322	15.5336
7.34463	16.8379
8.75706	17.9051
11.0169	19.3281
13.5593	20.5138
17.2316	21.8182
20.0565	22.4111
22.0339	22.7668
24.5763	23.3597
27.4011	23.5968
31.9209	24.0711
35.3107	24.1897
37.8531	24.3083
43.2203	24.3083
46.0452	24.1897
48.3051	24.1897
51.1299	24.1897
54.5198	23.9526
59.0395	23.9526
62.7119	23.4783
66.1017	23.3597
70.339	23.1225
74.2938	22.7668
80.226	22.4111
82.7684	22.0553
87.2881	21.8182
92.0904	21.8182
99.1525	20.9881
