Adsorption isotherm of Hydrogen on IRMOF-1
DOI: 10.1021/Jp305524f
Adsorbate Hydrogen: InChIKey UFHFLCQGNIYNRP-UHFFFAOYSA-N
Temperature: 40 K
Tabular data in the source: 0
pressure (bar)	uptake (mmol/g)
0.37037	0.37037
0.740741	39.9218
1.11111	42.1408
1.48148	43.755
2.22222	45.3704
3.51852	46.786
5.55556	47.5993
6.2963	48.2066
7.59259	48.4126
9.25926	48.4182
10.9259	48.2222
12.7778	47.8252
14.0741	47.4263
15.1852	46.8252
