Adsorption isotherm of Hydrogen on IRMOF-1
DOI: 10.1021/Jp305524f
Adsorbate Hydrogen: InChIKey UFHFLCQGNIYNRP-UHFFFAOYSA-N
Temperature: 40 K
Tabular data in the source: 0
pressure (bar)	uptake (mmol/g)
0.250384	34.4828
0.429936	37.5
0.609488	40.5172
0.792335	42.6724
1.35899	44.3966
2.30782	46.1207
3.45102	46.9828
4.78695	47.4138
6.88886	47.4138
7.27103	47.4138
9.18351	46.9828
10.7146	46.3362
12.4377	45.4741
13.3956	44.8276
14.5462	43.75
