Adsorption isotherm of Hydrogen on IRMOF-1
DOI: 10.1021/Jp305524f
Adsorbate Hydrogen: InChIKey UFHFLCQGNIYNRP-UHFFFAOYSA-N
Temperature: 118 K
Tabular data in the source: 0
pressure (bar)	uptake (mmol/g)
1.90217	1.54167
3.80435	2.95466
5.16304	3.85365
8.15217	5.39392
9.78261	6.29256
11.1413	6.93419
13.3152	7.70345
15.2174	8.47307
17.3913	9.371
19.5652	10.0116
22.2826	10.6515
24.4565	11.4207
26.9022	11.9323
29.3478	12.4439
33.9674	13.3386
36.413	13.8502
39.1304	14.2327
41.5761	14.6156
44.0217	14.9985
46.4674	15.2527
49.1848	15.3779
51.6304	15.7608
54.3478	16.0146
57.8804	16.1388
60.5978	16.3926
63.0435	16.6468
65.7609	16.772
68.2065	16.8975
70.1087	16.8951
72.8261	17.0203
75.5435	17.1454
77.9891	17.271
82.6087	17.3937
85.8696	17.5182
88.587	17.5147
91.3043	17.5112
95.3804	17.5059
98.0978	17.6311
