Adsorption isotherm of Hydrogen on IRMOF-1
DOI: 10.1021/Jp305524f
Adsorbate Hydrogen: InChIKey UFHFLCQGNIYNRP-UHFFFAOYSA-N
Temperature: 125 K
Tabular data in the source: 0
pressure (bar)	uptake (mmol/g)
1.66667	0.408826
2.96296	1.62286
6.11111	3.24634
7.96296	4.05902
9.44444	4.87045
11.1111	5.48088
13.3333	6.2948
15.3704	7.1081
17.037	7.51693
18.8889	7.92637
20.5556	8.53681
22.4074	8.94626
24.0741	9.35509
25.7407	9.96553
27.5926	10.1734
29.2593	10.5822
31.1111	10.9916
32.7778	11.1989
34.6296	11.4067
36.2963	11.8155
37.963	12.0227
39.6296	12.4316
41.4815	12.6394
43.3333	12.8472
44.8148	13.0538
46.4815	13.261
48.3333	13.4689
50	13.4745
51.6667	13.8833
53.5185	14.0911
55.3704	14.0973
56.8519	14.3039
58.7037	14.5118
60.1852	14.5168
61.8519	14.5224
63.5185	14.7296
65.1852	14.9368
