Adsorption isotherm of Hydrogen on IRMOF-1
DOI: 10.1021/Jp305524f
Adsorbate Hydrogen: InChIKey UFHFLCQGNIYNRP-UHFFFAOYSA-N
Temperature: 77 K
Tabular data in the source: 0
pressure (bar)	uptake (mmol/g)
0.61075	4.86166
0.908868	6.52174
1.20252	7.70751
1.50175	9.48617
2.64956	11.3834
2.65626	12.0949
3.51377	13.1621
4.37016	14.1107
5.50903	15.0593
6.93709	16.7194
7.50765	17.3123
8.64541	18.1423
10.9187	19.5652
13.1897	20.751
15.175	21.581
17.4415	22.2925
19.707	22.8854
21.6889	23.3597
25.3657	23.834
27.3453	24.0711
29.891	24.4269
32.152	24.5455
35.2605	24.664
37.5204	24.664
40.6288	24.7826
43.1712	24.7826
48.8187	24.5455
51.3611	24.5455
54.7487	24.3083
59.2651	23.9526
61.8075	23.9526
63.7826	23.7154
66.6064	23.5968
70.2753	23.2411
71.9691	23.1225
75.6381	22.7668
77.8969	22.6482
81.5658	22.2925
82.6947	22.1739
86.3636	21.8182
90.5976	21.4625
95.114	21.1067
99.6282	20.5138
