Adsorption isotherm of Hydrogen on IRMOF-1
DOI: 10.1021/Jp305524f
Adsorbate Hydrogen: InChIKey UFHFLCQGNIYNRP-UHFFFAOYSA-N
Temperature: 300 K
Tabular data in the source: 0
pressure (bar)	uptake (mmol/g)
2.40741	0
5.92593	-0.421941
8.33333	-0.421941
10.1852	-0.421941
11.6667	-0.632911
13.5185	-0.632911
15.3704	-0.632911
17.2222	-0.632911
19.0741	-0.843882
20.9259	-0.843882
22.7778	-0.843882
24.6296	-0.843882
26.4815	-1.05485
28.3333	-1.05485
30.1852	-1.05485
32.037	-1.05485
33.8889	-1.05485
35.7407	-1.05485
37.5926	-1.05485
39.4444	-1.05485
41.2963	-1.05485
43.1481	-1.05485
44.8148	-1.26582
46.4815	-1.26582
48.3333	-1.26582
50.1852	-1.26582
52.037	-1.26582
53.8889	-1.26582
55.7407	-1.26582
57.5926	-1.26582
59.4444	-1.26582
60.1852	-1.26582
62.037	-1.26582
63.8889	-1.26582
65	-1.26582
