Adsorption isotherm of Hydrogen on IRMOF-1
DOI: 10.1021/Jp305524f
Adsorbate Hydrogen: InChIKey UFHFLCQGNIYNRP-UHFFFAOYSA-N
Temperature: 60 K
Tabular data in the source: 0
pressure (bar)	uptake (mmol/g)
0.378549	8.29787
0.567823	10
0.946372	16.1702
1.32492	21.2766
2.46057	25.1064
3.78549	28.2979
4.92114	30.2128
6.24606	31.4894
6.81388	32.3404
8.32808	33.1915
9.27445	34.0426
10.9779	34.4681
12.6814	35.1064
14.5741	35.5319
16.4669	35.9574
18.1703	36.1702
20.0631	36.1702
21.9558	36.1702
23.8486	36.1702
25.7413	36.1702
27.6341	36.1702
29.5268	35.9574
31.4196	35.7447
33.123	35.5319
34.8265	35.3191
36.7192	35.1064
38.612	34.8936
40.1262	34.6809
41.8297	34.4681
43.7224	34.2553
45.6151	33.8298
47.3186	33.617
49.0221	33.1915
50.9148	32.9787
52.6183	32.766
54.511	32.3404
