Adsorption isotherm of Hydrogen on IRMOF-1
DOI: 10.1021/Jp305524f
Adsorbate Hydrogen: InChIKey UFHFLCQGNIYNRP-UHFFFAOYSA-N
Temperature: 300 K
Tabular data in the source: 0
pressure (bar)	uptake (wt%)
0.31746	0.302521
0.952381	0.831933
2.22222	1.96639
6.66667	3.17647
15.873	4.10924
20.9524	4.33613
26.3492	4.48739
30.4762	4.58824
33.6508	4.58824
36.8254	4.63866
44.7619	4.61345
47.9365	4.63866
58.4127	4.56303
69.2063	4.43697
80.6349	4.31092
92.381	4.15966
99.3651	4.03361
