Adsorption isotherm of Hydrogen on IRMOF-1
DOI: 10.1021/Jp305524f
Adsorbate Hydrogen: InChIKey UFHFLCQGNIYNRP-UHFFFAOYSA-N
Temperature: 77 K
Tabular data in the source: 0
pressure (bar)	uptake (mmol/g)
0.847458	4.25197
1.41243	5.7874
2.25989	6.85039
3.10734	8.38583
3.9548	9.56693
4.51977	10.0394
5.64972	11.1024
7.06215	12.1654
8.75706	13.1102
10.7345	13.937
12.7119	14.7638
14.9718	15.4724
17.5141	16.063
19.774	16.4173
22.5989	16.8898
27.6836	17.4803
29.9435	17.4803
32.4859	17.7165
35.5932	17.8346
38.4181	17.9528
40.678	17.9528
43.5028	17.9528
46.0452	17.7165
48.3051	17.9528
50.565	17.9528
53.3898	17.8346
55.9322	17.7165
58.1921	17.5984
60.7345	17.3622
63.2768	17.5984
65.8192	17.4803
68.6441	17.2441
70.6215	17.2441
73.1638	17.126
75.7062	17.0079
78.5311	16.8898
81.0734	16.6535
83.3333	16.7717
86.1582	16.5354
88.9831	16.4173
91.5254	16.2992
95.1977	16.1811
98.0226	16.063
99.7175	15.8268
