Adsorption isotherm of Hydrogen on IRMOF-1
DOI: 10.1021/Jp305524f
Adsorbate Hydrogen: InChIKey UFHFLCQGNIYNRP-UHFFFAOYSA-N
Temperature: 30 K
Tabular data in the source: 0
pressure (bar)	uptake (mmol/g)
0.185185	0.185185
0.555556	50.3788
0.925926	51.1364
1.85185	51.5152
3.14815	51.1364
4.44444	50.5682
4.81481	50.1894
5.55556	49.4318
6.11111	49.053
