Adsorption isotherm of Hydrogen on IRMOF-1
DOI: 10.1021/Jp305524f
Adsorbate Hydrogen: InChIKey UFHFLCQGNIYNRP-UHFFFAOYSA-N
Temperature: 100 K
Tabular data in the source: 0
pressure (bar)	uptake (mmol/g)
1.85185	1.39501
3.14815	3.58184
4.44444	5.37184
4.81481	6.36513
5.55556	7.16123
6.85185	8.5544
7.22222	9.15087
8.51852	10.544
10	11.7394
11.4815	12.9348
13.1481	13.9324
14.8148	14.7315
16.4815	15.5307
18.1481	16.3299
20	16.7328
21.6667	17.3336
23.5185	17.7365
25.1852	18.1388
27.037	18.5418
28.8889	18.7463
30.5556	18.9502
32.4074	19.1548
34.2593	19.3593
36.1111	19.5639
37.963	19.57
39.8148	19.7745
41.2963	19.7794
42.963	19.9833
44.8148	19.9895
46.6667	19.9956
47.5926	19.9987
49.4444	20.0048
51.2963	20.0109
53.1481	20.2154
54.8148	20.0225
56.6667	20.2271
58.3333	20.431
62.2222	20.047
64.0741	20.0532
64.8148	20.254
