Adsorption isotherm of Hydrogen on IRMOF-1
DOI: 10.1021/Jp305524f
Adsorbate Hydrogen: InChIKey UFHFLCQGNIYNRP-UHFFFAOYSA-N
Temperature: 50 K
Tabular data in the source: 0
pressure (bar)	uptake (mmol/g)
0.184615	0.184615
0.553846	26.8636
0.923077	31.3398
1.10769	33.8018
1.29231	35.5922
1.66154	38.5013
2.03077	40.7387
2.4	42.9761
2.95385	44.7651
3.87692	46.3288
5.53846	48.1137
7.01538	49.4514
8.67692	49.893
10.3385	50.3346
12.1846	50.3277
13.8462	50.3215
15.6923	50.3146
17.3538	50.0845
19.0154	49.6305
20.8615	49.3998
22.3385	48.7226
24.1846	48.4918
25.8462	48.0379
28.0615	47.358
29.9077	46.9033
