Adsorption isotherm of Hydrogen on IRMOF-1
DOI: 10.1021/Jp305524f
Adsorbate Hydrogen: InChIKey UFHFLCQGNIYNRP-UHFFFAOYSA-N
Temperature: 295 K
Tabular data in the source: 0
pressure (bar)	uptake (mmol/g)
5.44872	0.15625
8.01282	0.3125
11.2179	0.3125
14.4231	0.46875
20.5128	0.625
23.7179	0.625
26.9231	0.78125
29.8077	0.78125
37.1795	1.09375
40.3846	1.09375
43.5897	1.25
48.0769	1.25
51.2821	1.40625
56.0897	1.5625
59.2949	1.5625
63.7821	1.5625
66.9872	1.71875
70.1923	1.71875
79.1667	1.875
82.3718	2.03125
85.5769	2.03125
88.7821	2.03125
94.5513	2.1875
97.7564	2.1875
100	2.1875
