Adsorption isotherm of Hydrogen on IRMOF-1
DOI: 10.1021/Jp305524f
Adsorbate Hydrogen: InChIKey UFHFLCQGNIYNRP-UHFFFAOYSA-N
Temperature: 100 K
Tabular data in the source: 0
pressure (bar)	uptake (mmol/g)
1.11111	2.07897
2.40741	4.15851
3.51852	5.1054
4.81481	6.43024
5.37037	7.1867
6.85185	8.32343
9.44444	10.2184
10.9259	11.1664
12.5926	11.7377
13.3333	12.4948
15	13.2547
16.8519	13.8266
17.5926	14.2063
19.2593	14.7775
21.1111	15.3494
23.3333	16.1111
25.1852	16.4943
26.8519	16.8769
28.3333	17.2589
30.1852	17.4534
31.8519	17.836
33.7037	18.2192
34.2593	18.2209
35.7407	18.4143
37.5926	18.7975
39.2593	18.9914
40.7407	19.1847
42.4074	19.3786
44.2593	19.5731
46.1111	19.579
47.5926	19.7723
49.2593	19.9662
51.1111	19.972
52.963	20.1666
53.7037	20.1689
55.5556	20.3634
57.4074	20.3692
59.0741	20.3744
60.5556	20.5678
62.2222	20.573
64.0741	20.5788
65	20.5818
