Adsorption isotherm of Hydrogen on IRMOF-1
DOI: 10.1021/Jp305524f
Adsorbate Hydrogen: InChIKey UFHFLCQGNIYNRP-UHFFFAOYSA-N
Temperature: 300 K
Tabular data in the source: 0
pressure (bar)	uptake (mmol/g)
5.18519	0.189394
7.59259	0
11.4815	0.189394
15.3704	0.189394
16.1111	0.378788
19.0741	0.378788
21.1111	0.378788
22.7778	0.568182
25.1852	0.568182
26.8519	0.568182
28.1481	0.568182
31.2963	0.94697
33.7037	0.757576
35.7407	0.757576
38.3333	0.94697
40.3704	0.94697
43.1481	0.757576
45.5556	0.94697
47.7778	0.94697
49.8148	1.13636
51.6667	1.13636
53.7037	1.32576
55.9259	1.32576
58.3333	1.13636
60.5556	1.32576
63.1481	1.32576
64.8148	1.32576
