Adsorption isotherm of Hydrogen on IRMOF-1
DOI: 10.1021/Jp305524f
Adsorbate Hydrogen: InChIKey UFHFLCQGNIYNRP-UHFFFAOYSA-N
Temperature: 125 K
Tabular data in the source: 0
pressure (bar)	uptake (mmol/g)
1.29022	0.566038
2.76366	1.50943
5.15878	2.83019
7.00284	3.39623
8.47698	4.15094
10.1364	4.71698
11.7959	5.28302
13.4553	5.84906
15.8525	6.60377
17.6973	6.98113
19.3567	7.54717
21.0169	7.92453
22.8617	8.30189
24.5218	8.67925
26.1819	9.0566
28.0274	9.24528
29.6875	9.62264
31.533	9.81132
33.3778	10.1887
35.0386	10.3774
36.8841	10.566
38.7295	10.7547
40.3897	11.1321
42.2351	11.3208
44.0806	11.5094
45.926	11.6981
47.5869	11.8868
49.4323	12.0755
51.2785	12.0755
53.1239	12.2642
54.9694	12.4528
56.8149	12.6415
58.661	12.6415
60.3219	12.8302
62.1673	13.0189
64.0135	13.0189
64.9365	13.0189
