Adsorption isotherm of Hydrogen on IRMOF-1
DOI: 10.1021/Jp305524f
Adsorbate Hydrogen: InChIKey UFHFLCQGNIYNRP-UHFFFAOYSA-N
Temperature: 295 K
Tabular data in the source: 0
pressure (bar)	uptake (mmol/g)
4.80769	0.152174
8.65385	0.304348
12.1795	0.456522
16.6667	0.456522
19.8718	0.76087
22.7564	0.76087
25.9615	0.76087
29.1667	1.06522
32.0513	0.913043
35.2564	1.21739
38.141	1.36957
41.3462	1.36957
44.2308	1.52174
47.4359	1.36957
50.3205	1.67391
53.5256	1.82609
56.7308	1.97826
59.9359	1.82609
62.8205	1.82609
65.7051	2.13043
68.9103	2.28261
72.1154	2.28261
75	2.13043
77.8846	2.43478
80.7692	2.58696
83.6538	2.58696
86.859	2.73913
90.0641	2.73913
92.9487	2.58696
94.2308	2.8913
97.4359	3.04348
100	3.04348
