Adsorption isotherm of Hydrogen on IRMOF-1
DOI: 10.1021/Jp305524f
Adsorbate Hydrogen: InChIKey UFHFLCQGNIYNRP-UHFFFAOYSA-N
Temperature: 77 K
Tabular data in the source: 0
pressure (bar)	uptake (mmol/g)
0	1.5625
0.641026	5.625
0.961538	7.8125
1.28205	10.1562
2.24359	12.6562
2.88462	14.375
3.52564	15.625
4.48718	17.0312
5.76923	18.5938
6.73077	19.8438
8.33333	21.25
9.9359	22.5
11.859	23.75
14.1026	24.8438
16.9872	25.9375
19.8718	26.5625
22.7564	27.3438
25.9615	27.6562
28.8462	28.125
32.0513	28.2812
35.2564	28.4375
38.141	28.5938
41.3462	28.5938
44.5513	28.5938
47.7564	28.4375
50.641	28.4375
53.8462	28.2812
57.0513	28.125
59.9359	27.9688
63.141	27.8125
65.7051	27.6562
68.5897	27.1875
71.7949	27.1875
75	26.875
77.8846	26.5625
80.7692	26.4062
83.9744	26.25
87.1795	26.0938
90.0641	25.7812
92.9487	25.3125
95.8333	25.3125
99.0385	25
