Adsorption isotherm of Hydrogen on IRMOF-1
DOI: 10.1021/Jp305524f
Adsorbate Hydrogen: InChIKey UFHFLCQGNIYNRP-UHFFFAOYSA-N
Temperature: 295 K
Tabular data in the source: 0
pressure (bar)	uptake (mmol/g)
5.43478	0.13617
8.69565	0.269533
12.2283	0.403247
17.1196	0.538715
19.837	0.800527
23.0978	0.93389
25.8152	0.808248
28.2609	1.06971
30.7065	0.943717
33.1522	1.20518
35.8696	1.33784
38.587	1.4705
41.0326	1.47366
43.75	1.60632
46.1957	1.48033
48.6413	1.74179
50.8152	1.87375
53.5326	1.87726
56.25	2.00992
58.9674	1.88428
60.8696	1.88673
63.587	2.14854
66.0326	2.28085
68.75	2.41351
71.4674	2.41702
78.8043	2.6848
81.5217	2.68831
84.2391	2.82097
86.9565	2.82448
89.6739	2.95714
93.75	3.09156
96.4674	3.09507
99.1848	3.09858
