Adsorption isotherm of Hydrogen on IRMOF-1
DOI: 10.1021/Jp305524f
Adsorbate Hydrogen: InChIKey UFHFLCQGNIYNRP-UHFFFAOYSA-N
Temperature: 102 K
Tabular data in the source: 0
pressure (bar)	uptake (mmol/g)
1.59744	2.43721
3.19489	4.41791
4.47284	5.63724
5.7508	7.00875
7.34824	8.38075
9.90415	10.3629
11.8211	11.5832
14.0575	12.804
16.2939	13.8726
18.5304	14.7891
20.7668	15.7055
23.3227	16.6224
26.1981	17.2355
29.0735	18.0008
31.9489	18.6138
34.8243	19.2269
38.0192	19.6883
40.8946	20.1492
43.4505	20.4574
46.6454	20.7666
49.5208	21.0754
52.7157	21.3846
54.9521	21.5401
58.147	21.6972
61.0224	21.8537
64.2173	22.0108
65.8147	22.0132
69.0096	22.1702
72.2045	22.3273
75.3994	22.3321
78.9137	22.4897
82.1086	22.4945
85.3035	22.4994
88.4984	22.5042
91.0543	22.5081
94.2492	22.513
97.4441	22.5178
99.361	22.3686
