Adsorption isotherm of Hydrogen on IRMOF-1
DOI: 10.1021/Jp305524f
Adsorbate Hydrogen: InChIKey UFHFLCQGNIYNRP-UHFFFAOYSA-N
Temperature: 60 K
Tabular data in the source: 0
pressure (bar)	uptake (mmol/g)
0.503705	14.4195
0.514836	11.4232
0.867569	16.4794
0.869656	15.9176
0.878005	13.6704
1.22935	19.1011
1.23422	17.7903
1.41023	20.412
1.59112	21.7228
2.14144	23.5955
2.69315	25.0936
2.87334	26.5918
3.42575	27.9026
5.27359	30.5243
6.38258	32.0225
7.12283	32.7715
8.60472	33.8951
10.088	34.6442
11.9428	35.3933
12.6845	35.7678
14.5406	36.1423
16.2118	36.3296
18.068	36.7041
19.7391	36.8914
21.5974	36.7041
23.4543	36.8914
25.3119	36.8914
27.1708	36.5169
28.8427	36.5169
30.7009	36.3296
32.5592	36.1423
34.0467	35.7678
35.905	35.5805
37.5782	35.206
39.4372	34.8315
41.1097	34.6442
42.9687	34.2697
44.6419	33.8951
46.3151	33.5206
48.1734	33.3333
49.8466	32.9588
51.5205	32.397
53.3788	32.2097
55.2378	31.8352
56.911	31.4607
58.77	31.0861
60.0717	30.7116
