Adsorption isotherm of Hydrogen on IRMOF-1
DOI: 10.1021/Jp305524f
Adsorbate Hydrogen: InChIKey UFHFLCQGNIYNRP-UHFFFAOYSA-N
Temperature: 103 K
Tabular data in the source: 0
pressure (bar)	uptake (mmol/g)
2.23642	2.27679
4.15335	3.61607
5.11182	4.41964
7.02875	5.49107
8.6262	6.69643
11.1821	7.90179
13.4185	8.83929
15.655	9.77679
18.2109	10.5804
22.0447	11.6518
24.9201	12.3214
27.476	12.8571
30.3514	13.3929
37.6997	14.4643
40.5751	14.8661
48.5623	15.5357
51.7572	15.6696
59.4249	16.0714
62.6198	16.2054
65.8147	16.3393
70.2875	16.3393
73.4824	16.4732
76.6773	16.4732
81.1502	16.4732
84.345	16.4732
87.5399	16.4732
92.3323	16.4732
95.5272	16.3393
98.722	16.3393
