Adsorption isotherm of Hydrogen on IRMOF-1
DOI: 10.1021/Jp305524f
Adsorbate Hydrogen: InChIKey UFHFLCQGNIYNRP-UHFFFAOYSA-N
Temperature: 125 K
Tabular data in the source: 0
pressure (bar)	uptake (mmol/g)
4.16404	0.851064
5.67823	1.48936
7.3817	2.34043
9.08517	3.19149
10.7886	4.25532
12.4921	5.10638
14.1956	5.95745
16.0883	6.59574
17.7918	7.44681
19.4953	8.08511
21.1987	8.7234
23.0915	9.14894
24.795	9.78723
26.6877	10.2128
28.5804	10.6383
30.2839	11.0638
31.9874	11.2766
33.8801	11.7021
35.5836	11.9149
37.4763	11.9149
39.1798	12.3404
40.8833	12.5532
42.776	12.766
44.6688	12.9787
46.5615	13.1915
48.4543	13.1915
50.1577	13.4043
52.0505	13.4043
53.9432	13.617
55.6467	13.617
57.5394	13.617
59.4322	13.8298
61.1356	14.0426
62.6498	13.8298
64.5426	13.8298
