Adsorption isotherm of Hydrogen on IRMOF-1
DOI: 10.1021/Jp305524f
Adsorbate Hydrogen: InChIKey UFHFLCQGNIYNRP-UHFFFAOYSA-N
Temperature: 77 K
Tabular data in the source: 0
pressure (bar)	uptake (mmol/g)
0.925926	4.96338
1.85185	9.72835
2.03704	11.5147
2.59259	13.3022
3.7037	15.8853
4.62963	17.674
5.37037	19.4622
6.66667	20.8554
7.96296	22.2486
9.44444	23.4439
11.1111	24.4415
12.7778	25.2407
14.4444	25.8414
16.2963	26.2444
17.963	26.6467
18.8889	26.8482
20.7407	27.0527
22.5926	27.2573
24.8148	27.463
26.6667	27.6675
30	27.6786
31.8519	27.8831
33.7037	27.8892
36.8519	27.8996
38.7037	27.9058
40.5556	27.9119
42.4074	28.1164
44.0741	27.9235
45.9259	27.9296
47.7778	27.9358
49.6296	27.9419
51.4815	27.7496
53.3333	27.7557
54.6296	27.76
56.4815	27.7661
58.3333	27.7723
62.7778	27.787
64.6296	27.7931
