Adsorption isotherm of Hydrogen on IRMOF-1
DOI: 10.1021/Jp305524f
Adsorbate Hydrogen: InChIKey UFHFLCQGNIYNRP-UHFFFAOYSA-N
Temperature: 200 K
Tabular data in the source: 0
pressure (bar)	uptake (mmol/g)
2.23642	0.155577
5.11182	0.616475
8.6262	0.92617
11.8211	1.23538
15.655	1.54556
18.8498	1.85477
21.7252	2.16349
29.7125	2.93652
32.5879	3.09307
35.7827	3.2501
44.0895	3.87144
47.2843	4.02848
50.1597	4.3372
58.4665	4.80636
61.6613	4.9634
64.8562	5.12043
67.7316	5.27698
72.524	5.7408
75.7188	5.74566
78.5942	5.90221
81.7891	6.05924
86.901	6.2192
90.0958	6.37623
93.2907	6.53327
96.4856	6.53813
99.361	6.69468
