Adsorption isotherm of Hydrogen on IRMOF-1
DOI: 10.1021/Jp305524f
Adsorbate Hydrogen: InChIKey UFHFLCQGNIYNRP-UHFFFAOYSA-N
Temperature: 200 K
Tabular data in the source: 0
pressure (bar)	uptake (mmol/g)
2.03077	0.440184
4.06154	1.10425
6.64615	1.76625
8.49231	1.98324
10.3385	2.20023
12.1846	2.41722
13.8462	2.85878
15.6923	2.85189
17.5385	3.29277
19.2	3.51045
21.0462	3.72744
22.8923	3.94443
24.7385	4.16142
26.4	4.3791
28.2462	4.37222
30.0923	4.58921
31.9385	4.8062
33.7846	5.02319
35.6308	5.24018
37.2923	5.23398
39.1385	5.45098
40.9846	5.44409
42.8308	5.66108
44.6769	5.87807
46.5231	6.09506
46.8923	6.31757
48.7385	6.0868
50.5846	6.30379
52.4308	6.2969
54.0923	6.51458
55.9385	6.50769
57.7846	6.72468
59.6308	6.7178
61.2923	6.93548
63.1385	6.92859
64.9846	6.9217
