Adsorption isotherm of Hydrogen on IRMOF-1
DOI: 10.1021/Jp305524f
Adsorbate Hydrogen: InChIKey UFHFLCQGNIYNRP-UHFFFAOYSA-N
Temperature: 132 K
Tabular data in the source: 0
pressure (bar)	uptake (mmol/g)
2.88462	1.25
4.80769	2.5
5.76923	2.5
8.01282	3.4375
10.8974	4.375
12.5	5
15.3846	5.78125
16.0256	5.9375
18.9103	6.71875
21.7949	7.34375
24.6795	7.96875
27.5641	8.59375
30.4487	9.21875
33.6538	9.6875
38.141	10.3125
41.3462	10.7812
44.2308	11.0938
47.4359	11.4062
53.5256	12.0312
56.7308	12.3438
59.6154	12.5
61.859	12.8125
65.0641	12.9688
69.2308	13.2812
72.4359	13.4375
74.6795	13.5938
77.8846	13.75
81.0897	13.75
87.8205	14.0625
91.0256	14.2188
94.2308	14.2188
97.4359	14.375
99.359	14.375
