Adsorption isotherm of Hydrogen on IRMOF-1
DOI: 10.1021/Jp305524f
Adsorbate Hydrogen: InChIKey UFHFLCQGNIYNRP-UHFFFAOYSA-N
Temperature: 125 K
Tabular data in the source: 0
pressure (bar)	uptake (mmol/g)
2.47913	1.2931
5.14935	2.58621
7.43823	3.66379
9.91819	4.74138
11.6355	5.38793
12.9706	6.03448
15.4522	6.68103
16.9792	7.11207
18.8884	7.5431
20.4137	8.40517
22.1335	8.40517
23.8516	8.83621
25.5689	9.48276
27.0967	9.69828
28.8156	9.91379
30.7248	10.3448
31.4883	10.5603
33.3983	10.7759
35.1164	11.2069
37.0264	11.4224
38.7453	11.6379
40.4643	11.8534
42.3743	12.069
44.0915	12.7155
45.8121	12.5
47.7221	12.7155
49.6321	12.931
51.1599	13.1466
53.07	13.3621
54.9808	13.3621
56.8908	13.5776
58.8008	13.7931
60.5205	13.7931
62.2386	14.2241
64.1503	14.0086
