Adsorption isotherm of Hydrogen on IRMOF-1
DOI: 10.1021/Jp305524f
Adsorbate Hydrogen: InChIKey UFHFLCQGNIYNRP-UHFFFAOYSA-N
Temperature: 30 K
Tabular data in the source: 0
pressure (bar)	uptake (mmol/g)
0.185185	0.185185
0.37037	45.1625
0.555556	47.9857
0.925926	51.4144
1.85185	53.0304
2.77778	54.2432
3.88889	55.0534
5	55.0571
6.2963	54.6583
