Adsorption isotherm of Hydrogen on IRMOF-1
DOI: 10.1021/Jp305524f
Adsorbate Hydrogen: InChIKey UFHFLCQGNIYNRP-UHFFFAOYSA-N
Temperature: 135 K
Tabular data in the source: 0
pressure (bar)	uptake (mmol/g)
2.17391	1.03602
5.70652	2.33209
7.88043	3.10981
10.0543	3.88752
11.9565	4.40659
14.1304	5.1843
16.5761	5.83322
18.75	6.48178
20.9239	7.00119
24.7283	7.78101
28.2609	8.56048
31.25	9.2101
37.2283	10.1219
41.0326	10.5142
44.837	11.0358
49.7283	11.817
53.5326	12.0802
57.8804	12.6024
62.7717	12.9962
65.4891	13.1289
69.0217	13.3917
72.0109	13.6539
76.087	13.7883
80.163	14.0519
84.5109	14.3158
87.2283	14.5776
89.9457	14.5811
92.663	14.7138
95.3804	14.8464
98.0978	14.8499
99.7283	14.9812
