Adsorption isotherm of Hydrogen on IRMOF-1
DOI: 10.1021/Jp305524f
Adsorbate Hydrogen: InChIKey UFHFLCQGNIYNRP-UHFFFAOYSA-N
Temperature: 200 K
Tabular data in the source: 0
pressure (bar)	uptake (mmol/g)
4.64327	0.187266
6.68522	0.561798
8.72787	0.749064
10.5848	0.93633
11.3271	1.1236
13.184	1.31086
15.0409	1.49813
16.1547	1.68539
18.0123	1.68539
19.8692	1.87266
21.7261	2.05993
23.0257	2.24719
24.8826	2.43446
26.7395	2.62172
27.6683	2.62172
29.5252	2.80899
31.3821	2.99625
33.2396	2.99625
34.9108	3.18352
36.2111	3.18352
38.068	3.37079
39.9256	3.37079
41.7824	3.55805
42.3397	3.55805
44.0109	3.74532
45.8684	3.74532
47.7253	3.93258
49.768	4.11985
51.6256	4.11985
53.4831	4.11985
55.1543	4.30712
57.0119	4.30712
58.8694	4.30712
60.5406	4.49438
62.2124	4.49438
64.07	4.49438
64.9981	4.68165
