Adsorption isotherm of Hydrogen on IRMOF-1
DOI: 10.1021/Jp305524f
Adsorbate Hydrogen: InChIKey UFHFLCQGNIYNRP-UHFFFAOYSA-N
Temperature: 200 K
Tabular data in the source: 0
pressure (bar)	uptake (mmol/g)
3.24758	0.215517
5.15676	0.646552
8.40353	1.07759
10.3144	1.07759
11.6511	1.2931
13.5619	1.2931
15.4719	1.50862
16.6176	1.72414
18.5284	1.72414
20.2474	1.93966
22.1574	2.15517
24.0682	2.15517
25.9782	2.37069
28.0793	2.58621
29.9901	2.58621
31.9009	2.58621
33.6199	2.80172
35.912	3.01724
37.8229	3.01724
39.7329	3.23276
41.6437	3.23276
42.7894	3.44828
44.7002	3.44828
46.611	3.44828
48.521	3.66379
50.2408	3.66379
52.1508	3.87931
54.0616	3.87931
55.9716	4.09483
56.7359	4.09483
58.6468	4.09483
62.4676	4.31034
64.3784	4.31034
