Adsorption isotherm of Hydrogen on IRMOF-1
DOI: 10.1021/Jp305524f
Adsorbate Hydrogen: InChIKey UFHFLCQGNIYNRP-UHFFFAOYSA-N
Temperature: 77 K
Tabular data in the source: 0
pressure (bar)	uptake (mmol/g)
0.555556	4.63896
0.925926	6.25311
1.48148	8.67433
2.03704	10.6923
2.77778	12.7109
3.51852	14.528
4.07407	15.9411
5.37037	17.9616
6.66667	19.3772
7.77778	20.9939
9.25926	22.2085
10	22.8159
11.4815	23.8289
13.5185	25.0454
15.1852	25.8575
16.8519	26.4679
18.7037	27.079
20.3704	27.6894
22.2222	28.0989
24.0741	28.5083
25.7407	28.7155
27.5926	28.9234
29.4444	29.1312
31.2963	29.339
32.963	29.5462
34.8148	29.7541
36.6667	29.7603
38.5185	29.7665
40.1852	29.9737
42.037	29.98
43.8889	29.9862
45.7407	29.9924
47.2222	29.7958
49.0741	29.802
50.9259	29.8082
52.7778	29.8144
54.6296	29.6191
56.4815	29.6253
58.3333	29.4299
60.1852	29.2345
62.037	29.2407
63.8889	29.0453
65	29.0491
