Adsorption isotherm of Hydrogen on IRMOF-1
DOI: 10.1021/Jp305524f
Adsorbate Hydrogen: InChIKey UFHFLCQGNIYNRP-UHFFFAOYSA-N
Temperature: 40 K
Tabular data in the source: 0
pressure (bar)	uptake (mmol/g)
0.0571263	34.5283
0.222235	39.8113
0.766328	42.4528
2.23907	43.5849
4.08453	43.7736
4.82229	43.9623
6.48592	43.3962
8.14955	42.8302
9.81248	42.4528
11.4768	41.6981
13.3251	41.1321
15.1747	40.1887
