Adsorption isotherm of Hydrogen on IRMOF-1
DOI: 10.1021/Jp305524f
Adsorbate Hydrogen: InChIKey UFHFLCQGNIYNRP-UHFFFAOYSA-N
Temperature: 40 K
Tabular data in the source: 0
pressure (bar)	uptake (mmol/g)
0.189274	30.6383
0.378549	34.8936
0.946372	41.4894
1.32492	43.1915
2.27129	44.8936
2.83912	45.9574
3.59621	46.383
5.29968	47.0213
7.19243	47.4468
8.8959	47.0213
10.7886	46.5957
12.4921	46.1702
14.1956	45.5319
14.7634	44.8936
