Adsorption isotherm of Hydrogen on IRMOF-1
DOI: 10.1021/Jp305524f
Adsorbate Hydrogen: InChIKey UFHFLCQGNIYNRP-UHFFFAOYSA-N
Temperature: 100 K
Tabular data in the source: 0
pressure (bar)	uptake (mmol/g)
1.35048	1.16279
2.70096	2.55814
4.05145	4.18605
5.59486	5.81395
6.94534	7.2093
8.48875	8.60465
10.0322	9.76744
11.7685	10.9302
13.119	12.093
14.8553	12.7907
16.7846	13.7209
18.5209	14.4186
20.2572	15.1163
22.1865	15.814
23.9228	16.2791
25.8521	16.7442
27.7814	17.2093
29.5177	17.6744
31.4469	17.907
33.3762	18.3721
35.1125	18.6047
37.0418	18.8372
38.9711	19.0698
40.9003	19.0698
42.8296	19.3023
44.5659	19.5349
46.4952	19.5349
48.4244	19.7674
50.3537	19.7674
52.283	19.7674
54.0193	20
55.9486	20
57.8778	20
59.8071	20
61.5434	20.2326
62.1222	20
63.8585	19.7674
64.8232	19.7674
