Adsorption isotherm of Hydrogen on IRMOF-1
DOI: 10.1021/Jp305524f
Adsorbate Hydrogen: InChIKey UFHFLCQGNIYNRP-UHFFFAOYSA-N
Temperature: 40 K
Tabular data in the source: 0
pressure (bar)	uptake (mmol/g)
0.185185	0.185185
0.37037	32.5409
0.740741	36.1136
1.2963	39.29
1.66667	42.6642
2.40741	44.254
3.51852	45.4481
4.81481	46.2461
6.48148	46.8468
8.33333	47.0514
10.3704	47.0581
12.037	47.0636
13.5185	47.0685
15	47.0734
