Adsorption isotherm of Hydrogen on IRMOF-1
DOI: 10.1021/Jp305524f
Adsorbate Hydrogen: InChIKey UFHFLCQGNIYNRP-UHFFFAOYSA-N
Temperature: 300 K
Tabular data in the source: 0
pressure (bar)	uptake (mmol/g)
3.43867	0.215517
4.96733	0.215517
7.64249	0.215517
11.6544	0.431034
13.5652	0.431034
15.2842	0.646552
17.195	0.646552
19.1058	0.646552
21.0158	0.862069
22.9266	0.862069
24.8375	0.862069
26.7483	0.862069
28.6591	0.862069
30.378	1.07759
32.2889	1.07759
34.1997	1.07759
36.1105	1.07759
38.0214	1.07759
39.9314	1.2931
41.8422	1.2931
43.753	1.2931
45.6638	1.2931
47.3836	1.2931
49.1025	1.50862
51.3963	1.2931
53.6885	1.50862
55.0253	1.72414
56.9361	1.72414
58.8469	1.72414
60.5667	1.72414
62.4783	1.50862
64.3883	1.72414
