Adsorption isotherm of Hydrogen on IRMOF-1
DOI: 10.1021/Jp305524f
Adsorbate Hydrogen: InChIKey UFHFLCQGNIYNRP-UHFFFAOYSA-N
Temperature: 125 K
Tabular data in the source: 0
pressure (bar)	uptake (mmol/g)
2.03077	1.32215
3.50769	1.89069
4.98462	2.64719
8.30769	4.16136
9.96923	4.73048
11.6308	5.2996
13.2923	6.05668
15.3231	6.81492
16.9846	7.19607
18.6462	7.76518
21.0462	8.33661
22.8923	8.71833
24.5538	9.28745
26.4	9.66917
28.2462	10.0509
29.9077	10.432
31.5692	10.6252
33.4154	11.0069
35.0769	11.3881
36.9231	11.5818
38.0308	11.7733
39.8769	11.967
41.5385	12.3482
43.3846	12.5419
44.4923	12.5454
46.3385	12.7392
48	13.1203
49.8462	13.3141
51.5077	13.5072
53.3538	13.701
55.2	13.7068
56.4923	14.0868
58.3385	14.0925
60	14.2857
61.4769	14.4783
63.1385	14.4835
64.6154	14.4881
