Adsorption isotherm of Hydrogen on IRMOF-1
DOI: 10.1021/Jp305524f
Adsorbate Hydrogen: InChIKey UFHFLCQGNIYNRP-UHFFFAOYSA-N
Temperature: 100 K
Tabular data in the source: 0
pressure (bar)	uptake (mmol/g)
0.923077	2.01148
2.03077	4.47003
3.50769	6.47945
4.43077	7.81929
5.53846	8.71068
6.83077	10.0491
7.56923	10.718
9.04615	12.0558
10.1538	12.7233
11.8154	13.8365
13.2923	14.7265
13.6615	14.949
15.3231	15.8383
17.1692	16.5031
18.4615	17.1699
20.3077	17.8347
21.9692	18.5001
23.6308	18.9417
25.4769	19.3825
27.1385	20.048
28.6154	20.2664
30.4615	20.7072
32.1231	21.1488
33.9692	21.3658
35.0769	21.5855
36.9231	21.8025
38.5846	22.2441
40.4308	22.4611
41.3538	22.4576
43.2	22.6746
45.0462	22.8916
46.7077	23.1093
47.6308	23.1059
49.4769	23.3228
51.3231	23.5398
53.7231	23.7548
55.5692	23.7479
57.4154	23.9649
59.8154	24.1798
62.4	24.1701
64.2462	24.1633
64.8	24.1612
