Adsorption isotherm of Hydrogen on IRMOF-1
DOI: 10.1021/Jp305524f
Adsorbate Hydrogen: InChIKey UFHFLCQGNIYNRP-UHFFFAOYSA-N
Temperature: 125 K
Tabular data in the source: 0
pressure (bar)	uptake (mmol/g)
2.46057	0.638298
4.35331	1.91489
6.05678	2.97872
7.19243	3.61702
8.8959	4.25532
10.2208	4.89362
11.735	5.53191
13.4385	6.38298
15.142	7.23404
17.0347	7.65957
18.7382	8.29787
20.6309	8.7234
22.3344	9.3617
24.2271	9.78723
26.1199	10
27.8233	10.6383
29.7161	10.8511
31.4196	10.8511
33.123	11.4894
34.8265	11.9149
35.7729	12.1277
37.6656	11.9149
39.3691	12.5532
41.2618	12.766
43.1546	12.9787
44.858	13.1915
46.7508	13.4043
48.6435	13.617
50.1577	13.4043
51.8612	13.8298
53.5647	14.0426
55.4574	14.2553
56.9716	14.2553
58.8644	14.4681
60.3785	14.4681
61.8927	14.2553
63.5962	14.6809
64.7319	14.6809
