Adsorption isotherm of Hydrogen on IRMOF-1
DOI: 10.1021/Jp305524f
Adsorbate Hydrogen: InChIKey UFHFLCQGNIYNRP-UHFFFAOYSA-N
Temperature: 50 K
Tabular data in the source: 0
pressure (bar)	uptake (mmol/g)
0.102967	22.2846
0.46057	26.03
1.00254	30.1498
1.36432	32.7715
1.91394	34.8315
2.83299	37.4532
3.75622	38.9513
4.8652	40.4494
6.90437	41.573
8.57411	42.1348
9.50221	42.3221
11.3591	42.5094
12.8445	42.6966
14.7028	42.5094
16.561	42.3221
17.862	42.1348
19.721	41.7603
21.3942	41.3858
22.8824	40.824
24.7414	40.4494
26.416	39.7004
27.3462	39.3258
29.2058	38.764
29.9503	38.3895
