Adsorption isotherm of Hydrogen on IRMOF-1
DOI: 10.1021/Jp305524f
Adsorbate Hydrogen: InChIKey UFHFLCQGNIYNRP-UHFFFAOYSA-N
Temperature: 77 K
Tabular data in the source: 0
pressure (bar)	uptake (mmol/g)
0.0234474	2.49012
0.611867	4.98024
1.20252	7.70751
2.08682	11.6206
2.95549	13.8735
3.53275	15.1779
4.10554	16.0079
6.3978	19.4466
7.82475	20.9881
8.68002	21.8182
10.1047	23.1225
11.8097	24.1897
13.2299	25.0198
15.7846	26.3241
20.0353	27.747
26.5459	29.17
29.3752	29.6443
35.0294	30.1186
37.574	30.3557
43.2248	30.4743
48.5909	30.3557
53.6757	30.3557
59.0407	30.1186
61.0169	30
64.9695	29.7628
69.7695	29.5257
72.3097	29.2885
77.3922	29.0514
81.0623	28.8142
84.7312	28.4585
88.6838	28.2213
92.9178	27.8656
99.6941	27.5099
