Adsorption isotherm of Hydrogen on IRMOF-1
DOI: 10.1021/Jp305524f
Adsorbate Hydrogen: InChIKey UFHFLCQGNIYNRP-UHFFFAOYSA-N
Temperature: 60 K
Tabular data in the source: 0
pressure (bar)	uptake (mmol/g)
0.37037	7.89474
0.555556	10.9023
1.2963	14.4737
1.48148	17.2932
2.22222	19.3609
2.77778	21.2406
3.33333	22.9323
3.88889	24.812
4.62963	26.5038
5.55556	28.0075
6.66667	29.5113
7.96296	30.8271
9.44444	32.1429
11.1111	32.8947
12.7778	33.8346
14.4444	34.3985
16.2963	34.9624
17.963	35.3383
19.8148	35.5263
21.6667	35.7143
23.5185	35.7143
25.1852	35.9023
27.2222	35.9023
29.0741	35.7143
30.9259	35.7143
32.7778	35.5263
34.2593	35.3383
36.1111	35.3383
37.7778	35.1504
39.6296	34.9624
41.4815	34.5865
43.1481	34.3985
45	34.0226
46.6667	34.0226
48.5185	33.6466
50.3704	33.4586
52.037	33.0827
53.8889	32.8947
55.5556	32.7068
57.4074	32.3308
59.2593	32.1429
59.8148	31.7669
