Adsorption isotherm of Hydrogen on IRMOF-1
DOI: 10.1021/Jp305524f
Adsorbate Hydrogen: InChIKey UFHFLCQGNIYNRP-UHFFFAOYSA-N
Temperature: 60 K
Tabular data in the source: 0
pressure (bar)	uptake (mmol/g)
0.333615	9.92405
0.344712	6.92776
0.690811	13.481
0.86282	17.0385
1.2214	20.2209
1.76656	23.0282
2.12861	25.2743
2.85965	27.8937
3.77935	29.5762
4.88284	31.6327
5.98911	32.9401
7.28057	34.2469
8.7586	35.1787
10.4218	36.1098
12.2716	36.6658
13.9362	37.2224
15.7867	37.5912
17.4527	37.7732
19.3039	37.9547
21.1557	37.949
23.0076	37.9432
24.8595	37.9374
26.7121	37.7443
28.5646	37.5513
30.232	37.3588
32.0853	36.9785
33.9378	36.7855
35.6059	36.4057
37.4585	36.2127
39.1265	35.8329
40.9798	35.4526
42.8331	35.0723
44.5011	34.6926
46.3544	34.3123
48.2077	33.9319
49.8757	33.5522
51.729	33.1719
53.5823	32.7916
55.2503	32.4118
57.1036	32.0315
58.7717	31.6518
59.8835	31.461
