Adsorption isotherm of Hydrogen on IRMOF-1
DOI: 10.1021/Jp305524f
Adsorbate Hydrogen: InChIKey UFHFLCQGNIYNRP-UHFFFAOYSA-N
Temperature: 125 K
Tabular data in the source: 0
pressure (bar)	uptake (mmol/g)
2.04334	0.384615
2.97214	0.961538
4.64396	1.92308
6.50155	2.88462
8.17337	3.84615
9.8452	4.61538
11.1455	5.57692
12.8173	5.96154
14.4892	6.53846
15.2322	7.11538
16.7183	7.5
18.5759	8.07692
20.2477	8.46154
21.9195	9.03846
23.7771	9.42308
25.4489	10
26.935	10.1923
28.7926	10.5769
30.4644	10.9615
31.9505	11.1538
33.808	11.5385
35.4799	11.9231
37.3375	12.1154
39.0093	12.3077
40.8669	12.5
42.5387	12.8846
44.2105	12.6923
45.8824	13.2692
47.7399	13.4615
49.5975	13.6538
51.0836	13.6538
52.9412	13.8462
54.7988	14.0385
56.2848	13.8462
58.1424	14.2308
59.8142	14.2308
61.4861	14.2308
62.7864	14.6154
64.644	14.6154
65.2012	14.8077
