Adsorption isotherm of Hydrogen on IRMOF-1
DOI: 10.1021/Jp305524f
Adsorbate Hydrogen: InChIKey UFHFLCQGNIYNRP-UHFFFAOYSA-N
Temperature: 300 K
Tabular data in the source: 0
pressure (bar)	uptake (mmol/g)
8.86154	0.215732
11.8154	0.412955
15.8769	0.61365
20.6769	0.816657
22.5231	0.634471
24.3692	0.828224
26.2154	0.834008
28.0615	0.839792
29.9077	0.845575
31.5692	1.03875
33.4154	1.04453
35.2615	0.862348
36.9231	1.24349
38.7692	1.24928
40.6154	1.25506
42.4615	1.07287
44.3077	1.4546
46.1538	1.46038
48	1.46617
49.6615	1.47137
51.5077	1.66512
52.9846	1.66975
54.2769	1.6738
57.0462	1.68248
58.3385	1.87449
60	1.8797
62.4	2.07519
64.4308	1.89358
