Adsorption isotherm of Hydrogen on IRMOF-1
DOI: 10.1021/Jp305524f
Adsorbate Hydrogen: InChIKey UFHFLCQGNIYNRP-UHFFFAOYSA-N
Temperature: 103 K
Tabular data in the source: 0
pressure (bar)	uptake (mmol/g)
1.63043	2.44275
2.98913	4.1138
4.34783	5.52749
5.43478	6.68418
6.79348	7.84052
8.15217	8.86819
10.0543	10.1525
11.6848	11.1798
13.587	12.0781
15.4891	13.1051
17.3913	14.0034
19.837	14.9009
22.0109	15.6702
24.4565	16.3104
26.6304	16.8224
30.7065	17.8465
33.1522	18.2294
35.8696	18.7406
38.3152	19.1235
41.8478	19.6337
44.2935	19.7592
47.0109	20.013
49.4565	20.2672
53.2609	20.5197
55.9783	20.6449
58.4239	20.8991
61.1413	21.0243
63.8587	21.0208
65.2174	21.1477
67.9348	21.1442
70.6522	21.1407
73.3696	21.2659
76.087	21.2624
78.8043	21.2589
81.5217	21.2554
84.2391	21.2519
86.9565	21.2484
89.6739	21.2449
92.3913	21.2414
95.1087	21.1092
97.8261	21.1057
100.272	20.9739
