Adsorption isotherm of Hydrogen on IRMOF-1
DOI: 10.1021/Jp305524f
Adsorbate Hydrogen: InChIKey UFHFLCQGNIYNRP-UHFFFAOYSA-N
Temperature: 77 K
Tabular data in the source: 0
pressure (bar)	uptake (mmol/g)
0.553846	3.9491
1.10769	7.3343
1.66154	9.02776
2.21538	10.1573
2.4	11.4737
3.13846	12.9798
4.06154	14.8623
4.98462	16.9329
6.27692	18.4407
7.38462	19.572
8.67692	20.8918
10.7077	22.402
12.1846	23.5344
14.2154	24.2927
15.8769	25.0497
17.5385	25.6189
19.0154	26.1874
20.8615	26.5691
22.5231	26.9503
24.7385	27.3331
26.5846	27.7149
28.4308	28.0966
29.7231	28.1006
31.5692	28.2944
33.4154	28.3002
35.2615	28.4939
37.1077	28.4997
38.9538	28.5055
40.8	28.5113
42.4615	28.5165
44.3077	28.5223
46.1538	28.5281
48	28.5338
49.6615	28.3511
51.5077	28.3569
53.3538	28.3626
55.3846	28.181
57.2308	28.1868
62.5846	27.8276
63.5077	27.8305
64.4308	27.6455
