Adsorption isotherm of Hydrogen on IRMOF-1
DOI: 10.1021/Jp305524f
Adsorbate Hydrogen: InChIKey UFHFLCQGNIYNRP-UHFFFAOYSA-N
Temperature: 77 K
Tabular data in the source: 0
pressure (bar)	uptake (mmol/g)
3.67232	11.1067
4.51977	12.2888
5.08475	13.1162
6.21469	14.1806
8.47458	16.073
10.1695	17.0199
11.8644	17.8487
13.5593	18.5593
16.1017	19.3891
18.3616	19.9823
20.6215	20.3393
23.4463	20.8151
24.0113	21.052
26.2712	21.0547
29.096	21.2942
32.4859	21.5344
35.3107	21.6559
38.1356	21.6592
40.9605	21.6626
43.7853	21.6659
47.1751	21.6699
52.2599	21.4397
57.6271	21.0917
62.9944	20.8618
65.8192	20.8651
69.209	20.6329
72.0339	20.5182
75.7062	20.2863
78.5311	20.1715
80.791	19.9379
82.2034	19.9396
85.0282	19.7067
87.5706	19.5916
90.3955	19.4768
93.2203	19.244
95.7627	19.1289
100	18.7795
