Adsorption isotherm of Hydrogen on IRMOF-1
DOI: 10.1021/Jp305524f
Adsorbate Hydrogen: InChIKey UFHFLCQGNIYNRP-UHFFFAOYSA-N
Temperature: 60 K
Tabular data in the source: 0
pressure (bar)	uptake (mmol/g)
0.385852	10.6977
0.578778	13.7209
0.771704	16.0465
1.15756	18.3721
1.73633	22.7907
2.70096	26.2791
4.05145	29.5349
5.209	30.9302
6.55949	32.5581
7.13826	33.2558
8.8746	34.186
10.2251	35.1163
11.9614	35.5814
13.8907	36.2791
15.627	36.7442
17.5563	36.9767
19.4855	36.9767
21.4148	36.9767
23.3441	36.9767
25.2733	36.9767
27.2026	36.7442
29.1318	36.5116
30.8682	36.2791
32.7974	36.0465
34.5338	35.814
36.2701	35.5814
38.1994	35.3488
40.1286	34.8837
41.865	34.8837
43.7942	34.4186
45.5305	33.9535
47.2669	33.9535
49.1961	33.7209
51.1254	33.2558
51.7042	32.7907
53.4405	33.0233
54.791	32.5581
