Adsorption isotherm of Hydrogen on IRMOF-1
DOI: 10.1021/Jp305524f
Adsorbate Hydrogen: InChIKey UFHFLCQGNIYNRP-UHFFFAOYSA-N
Temperature: 103 K
Tabular data in the source: 0
pressure (bar)	uptake (mmol/g)
0.828783	1.24906
1.93108	2.61144
3.30688	4.08715
4.40504	4.99499
5.77671	6.01616
7.14735	6.9237
8.7915	7.94456
10.1611	8.73845
12.0757	9.53173
13.7178	10.3253
15.6334	11.2322
17.8194	11.9116
20.5544	13.0448
22.4639	13.2699
24.9213	13.8353
27.3777	14.2871
30.1066	14.7385
33.109	15.3033
35.5644	15.6414
38.2912	15.8656
40.7466	16.2037
47.0218	17.1057
49.1996	16.8759
51.654	17.1004
54.6522	17.2106
57.378	17.3212
61.1948	17.5441
63.9195	17.541
66.6443	17.5379
69.3691	17.5348
71.8224	17.6457
75.6371	17.6413
78.3618	17.6382
81.0866	17.6351
83.8114	17.632
86.5361	17.6289
89.2609	17.6258
91.7122	17.5094
94.4369	17.5063
97.1607	17.3896
99.8854	17.3865
