Adsorption isotherm of Hydrogen on IRMOF-1
DOI: 10.1021/Jp305524f
Adsorbate Hydrogen: InChIKey UFHFLCQGNIYNRP-UHFFFAOYSA-N
Temperature: 117 K
Tabular data in the source: 0
pressure (bar)	uptake (mmol/g)
1.91693	1.37248
3.51438	2.89665
5.43131	3.81261
7.34824	5.03292
9.58466	6.25372
14.0575	8.23878
16.2939	9.3074
23.0032	11.448
25.8786	12.0611
29.7125	13.1322
32.5879	13.7452
34.5048	14.0525
37.3802	14.5134
40.5751	14.9748
46.6454	15.8971
49.8403	16.2063
52.7157	16.515
58.4665	17.1324
61.6613	17.2895
64.5367	17.5982
70.9265	17.9123
74.1214	18.0693
77.3163	18.2264
80.1917	18.3829
83.0671	18.3873
86.262	18.5443
89.4569	18.7013
92.6518	18.7062
93.6102	18.8598
96.8051	18.8647
100	18.8696
