Adsorption isotherm of Hydrogen on IRMOF-1
DOI: 10.1021/Jp305524f
Adsorbate Hydrogen: InChIKey UFHFLCQGNIYNRP-UHFFFAOYSA-N
Temperature: 200 K
Tabular data in the source: 0
pressure (bar)	uptake (mmol/g)
3.33333	0.414427
5.55556	0.421894
8.51852	0.633463
10.7407	1.04416
12.037	1.04851
13.8889	1.25635
15.7407	1.46418
17.4074	1.46978
19.2593	1.67762
21.1111	1.88545
22.7778	2.09267
24.6296	2.09889
26.4815	2.30673
28.3333	2.51456
30.1852	2.52078
32.037	2.72862
33.7037	2.93583
36.1111	2.94392
37.963	3.15176
39.8148	3.35959
41.6667	3.36582
43.1481	3.57241
45	3.57863
46.8519	3.78646
48.7037	3.79269
50.5556	4.00052
52.2222	4.00612
54.0741	4.21396
55.9259	4.22018
57.4074	4.42677
59.2593	4.43299
61.1111	4.64083
62.037	4.64394
63.8889	4.65016
64.8148	4.65328
