Adsorption isotherm of Hydrogen on IRMOF-1
DOI: 10.1021/Jp305524f
Adsorbate Hydrogen: InChIKey UFHFLCQGNIYNRP-UHFFFAOYSA-N
Temperature: 40 K
Tabular data in the source: 0
pressure (bar)	uptake (mmol/g)
0.555556	39.247
0.925926	41.3237
1.11111	42.8337
1.48148	44.533
2.40741	46.0453
3.88889	47.182
5.55556	47.5646
7.03704	47.3806
8.51852	47.0079
10.7407	46.2602
12.2222	45.6988
13.7037	44.9488
15	44.0094
