Adsorption isotherm of Hydrogen on IRMOF-1
DOI: 10.1021/Jp305524f
Adsorbate Hydrogen: InChIKey UFHFLCQGNIYNRP-UHFFFAOYSA-N
Temperature: 77 K
Tabular data in the source: 0
pressure (bar)	uptake (mmol/g)
1.08696	4.90494
1.3587	6.04563
2.71739	9.46768
3.26087	10.6084
3.80435	11.749
4.61957	12.7757
5.70652	13.9163
7.6087	15.7414
8.96739	16.7681
10.5978	17.6806
12.2283	18.4791
14.1304	19.2776
16.5761	20.4183
19.0217	20.7605
21.4674	21.2167
23.913	21.673
26.3587	22.0152
27.4457	22.1293
30.163	22.3574
32.6087	22.4715
35.3261	22.6996
37.7717	22.8137
40.4891	22.8137
43.2065	22.8137
45.9239	22.8137
48.3696	23.0418
50.8152	22.8137
53.5326	22.6996
56.25	22.5856
58.9674	22.4715
60.8696	22.3574
63.587	22.2433
66.3043	22.1293
68.75	22.0152
71.1957	21.9011
73.913	21.7871
76.3587	21.5589
79.0761	21.4449
81.7935	21.3308
84.2391	21.1027
86.9565	20.9886
89.4022	20.8745
92.1196	20.6464
94.837	20.4183
97.2826	20.3042
99.7283	20.076
