Adsorption isotherm of Hydrogen on IRMOF-1
DOI: 10.1021/Jp305524f
Adsorbate Hydrogen: InChIKey UFHFLCQGNIYNRP-UHFFFAOYSA-N
Temperature: 103 K
Tabular data in the source: 0
pressure (bar)	uptake (mmol/g)
1.90217	2.28137
3.26087	3.65019
5.16304	4.79087
6.52174	5.70342
8.15217	6.73004
10.8696	8.09886
12.7717	8.89734
14.6739	9.69582
16.8478	10.3802
19.0217	11.0646
21.1957	11.0646
21.7391	11.749
23.913	12.3194
27.4457	13.0038
29.8913	13.4601
35.5978	14.2586
38.587	14.6008
41.0326	14.8289
48.3696	15.5133
51.087	15.6274
53.5326	15.8555
59.2391	16.0837
61.9565	16.1977
64.6739	16.1977
70.1087	16.4259
72.8261	16.4259
75.5435	16.4259
81.25	16.5399
83.9674	16.5399
86.6848	16.5399
89.4022	16.5399
92.3913	16.4259
97.2826	16.4259
100	16.4259
