Adsorption isotherm of Hydrogen on IRMOF-1
DOI: 10.1021/Jp305524f
Adsorbate Hydrogen: InChIKey UFHFLCQGNIYNRP-UHFFFAOYSA-N
Temperature: 40 K
Tabular data in the source: 0
pressure (bar)	uptake (mmol/g)
0.185759	0.185759
0.371517	38.7755
0.557276	42.2449
1.48607	45.7143
2.41486	47.1429
3.34365	48.1633
5.01548	48.9796
6.87307	49.3878
8.54489	48.9796
10.4025	48.3673
12.0743	47.551
13.5604	46.5306
15.0464	45.3061
