Adsorption isotherm of Hydrogen on IRMOF-1
DOI: 10.1021/Jp305524f
Adsorbate Hydrogen: InChIKey UFHFLCQGNIYNRP-UHFFFAOYSA-N
Temperature: 300 K
Tabular data in the source: 0
pressure (bar)	uptake (mmol/g)
5	0.204403
7.77778	0.213138
10.3704	0.40997
11.8519	0.03727
13.7037	0.0430934
15.5556	0.0489168
16.6667	0.429769
18.3333	0.62369
20.1852	0.629513
22.5926	0.637084
24.4444	0.642907
26.2963	0.83741
28.1481	0.654554
29.8148	0.848474
31.6667	0.854298
33.5185	0.860121
35.1852	1.05404
37.037	1.05986
38.8889	1.06569
40.7407	1.07151
42.5926	1.07734
44.4444	1.08316
46.2963	1.27766
48.1481	1.28348
50	1.28931
51.8519	1.29513
53.7037	1.30096
55.3704	1.3062
56.1111	1.30853
57.7778	1.50245
59.6296	1.50827
61.6667	1.51468
63.5185	1.5205
64.8148	1.52457
