Adsorption isotherm of Hydrogen on IRMOF-1
DOI: 10.1021/Jp305524f
Adsorbate Hydrogen: InChIKey UFHFLCQGNIYNRP-UHFFFAOYSA-N
Temperature: 77 K
Tabular data in the source: 0
pressure (bar)	uptake (mmol/g)
0.537795	5.24345
1.27039	8.05243
2.00508	10.2996
2.92622	12.3596
3.6609	14.6067
4.58413	16.1049
5.87679	18.1648
7.35799	19.4757
8.65342	20.7865
10.6912	22.2846
12.3596	23.221
14.0286	23.97
15.6969	24.9064
17.3667	25.4682
19.0364	26.03
20.7069	26.4045
22.5631	26.779
24.7908	27.1536
26.647	27.5281
29.8035	27.9026
31.6603	28.0899
33.5179	28.0899
36.8609	28.2772
38.7185	28.2772
40.5761	28.2772
42.4336	28.2772
44.1055	28.2772
45.9631	28.2772
47.8206	28.2772
49.6782	28.2772
51.5365	28.0899
53.3941	28.0899
55.6239	27.9026
57.4815	27.9026
59.897	27.7154
62.6841	27.5281
64.5424	27.3408
