Adsorption isotherm of Hydrogen on IRMOF-1
DOI: 10.1021/Jp305524f
Adsorbate Hydrogen: InChIKey UFHFLCQGNIYNRP-UHFFFAOYSA-N
Temperature: 200 K
Tabular data in the source: 0
pressure (bar)	uptake (mmol/g)
5.01548	-0.192308
8.54489	0.192308
12.0743	0.384615
13.9319	0.576923
16.904	0.769231
18.7616	0.961538
20.6192	1.15385
22.1053	1.53846
23.5913	1.53846
25.2632	1.73077
27.1207	1.92308
28.4211	2.11538
30.2786	2.30769
32.1362	2.5
33.808	2.69231
36.2229	2.88462
38.0805	3.07692
39.9381	3.07692
41.7957	3.26923
43.4675	3.46154
45.3251	3.65385
47.1827	3.84615
49.0402	3.84615
50.5263	4.03846
52.3839	4.23077
54.2415	4.23077
56.0991	4.42308
57.7709	4.61538
59.6285	4.80769
61.3003	4.80769
62.4149	4.80769
64.0867	5
64.8297	5
