Adsorption isotherm of Hydrogen on IRMOF-1
DOI: 10.1021/Jp305524f
Adsorbate Hydrogen: InChIKey UFHFLCQGNIYNRP-UHFFFAOYSA-N
Temperature: 40 K
Tabular data in the source: 0
pressure (bar)	uptake (mmol/g)
0.0584409	34.2697
0.224023	39.7004
0.232372	37.4532
0.587192	41.9476
1.32327	43.8202
2.24441	45.8801
3.53985	47.191
5.02522	47.3783
5.95401	47.3783
7.62514	47.5655
8.74248	46.8165
10.6015	46.4419
11.7181	45.8801
13.3934	44.9438
15.068	44.1948
