Adsorption isotherm of Hydrogen on IRMOF-1
DOI: 10.1021/Jp305524f
Adsorbate Hydrogen: InChIKey UFHFLCQGNIYNRP-UHFFFAOYSA-N
Temperature: 60 K
Tabular data in the source: 0
pressure (bar)	uptake (mmol/g)
0.740741	12.4473
0.925926	16.4557
1.48148	21.097
2.22222	24.2616
3.7037	27.4262
5	29.9578
6.2963	31.2236
7.22222	32.0675
8.88889	32.9114
10	33.7553
11.6667	34.5992
12.963	35.0211
14.8148	35.443
17.037	36.0759
18.8889	36.2869
20.7407	36.4979
22.5926	36.4979
24.4444	36.4979
26.2963	36.4979
27.7778	36.4979
29.6296	36.2869
31.4815	36.0759
33.1481	35.865
35	35.865
36.6667	35.443
38.5185	35.2321
40.3704	35.0211
42.037	34.5992
43.8889	34.1772
45.7407	33.9662
47.4074	33.5443
49.2593	33.3333
50.9259	32.9114
52.7778	32.4895
54.6296	32.0675
56.2963	31.8565
58.1481	31.4346
59.8148	31.0127
