Adsorption isotherm of Hydrogen on IRMOF-1
DOI: 10.1021/Jp305524f
Adsorbate Hydrogen: InChIKey UFHFLCQGNIYNRP-UHFFFAOYSA-N
Temperature: 125 K
Tabular data in the source: 0
pressure (bar)	uptake (mmol/g)
1.66667	0.93985
3.7037	1.69173
5.74074	2.63158
7.40741	3.38346
9.25926	3.94737
10.9259	4.32331
12.7778	4.88722
14.4444	5.45113
16.2963	5.82707
18.1481	6.39098
19.8148	6.76692
21.6667	7.14286
23.3333	7.5188
25.1852	7.70677
27.037	8.08271
28.7037	8.27068
30.5556	8.64662
32.4074	8.83459
34.0741	9.21053
35.9259	9.3985
37.7778	9.58647
39.4444	9.77444
41.2963	9.96241
43.1481	10.1504
45	10.3383
46.6667	10.5263
48.5185	10.7143
50.3704	10.9023
52.2222	11.0902
53.8889	11.2782
55.7407	11.2782
57.5926	11.4662
59.4444	11.6541
61.2963	11.6541
63.1481	11.8421
65	11.8421
