Adsorption isotherm of Hydrogen on IRMOF-1
DOI: 10.1021/Jp305524f
Adsorbate Hydrogen: InChIKey UFHFLCQGNIYNRP-UHFFFAOYSA-N
Temperature: 125 K
Tabular data in the source: 0
pressure (bar)	uptake (mmol/g)
1.29231	1.33846
2.95385	2.67555
4.98462	4.23513
7.38462	5.79334
9.6	6.6806
11.2615	7.56992
13.6615	8.45649
16.9846	9.78737
19.0154	10.2276
21.7846	11.1127
24.9231	11.5488
27.5077	12.2108
30.0923	12.8728
32.1231	13.313
34.8923	13.7504
37.4769	13.9646
40.6154	14.4007
43.7538	14.8367
47.0769	15.2721
50.0308	15.7088
52.0615	15.7013
55.2	16.1373
58.7077	16.3481
61.1077	16.563
63.5077	16.5541
64.9846	16.5486
