Adsorption isotherm of Hydrogen on IRMOF-1
DOI: 10.1021/Jp305524f
Adsorbate Hydrogen: InChIKey UFHFLCQGNIYNRP-UHFFFAOYSA-N
Temperature: 100 K
Tabular data in the source: 0
pressure (bar)	uptake (mmol/g)
1.48148	4.00844
2.40741	5.6962
3.7037	7.38397
5	8.86076
6.48148	10.1266
7.96296	11.3924
9.44444	12.2363
11.1111	13.0802
12.963	13.9241
14.6296	14.7679
16.2963	15.4008
18.1481	16.0338
19.8148	16.4557
21.6667	17.0886
23.5185	17.5105
25.1852	17.9325
27.037	18.1435
28.7037	18.5654
30.5556	18.7764
32.4074	19.1983
34.0741	19.4093
35.9259	19.6203
37.7778	19.8312
39.6296	20.0422
41.4815	20.2532
43.1481	20.4641
45	20.4641
46.8519	20.6751
48.7037	20.6751
50.5556	20.8861
52.4074	20.8861
54.2593	21.097
56.1111	21.097
57.963	21.097
59.6296	21.308
60.9259	21.308
62.7778	21.308
64.6296	21.308
