Adsorption isotherm of Hydrogen on IRMOF-1
DOI: 10.1021/Jp305524f
Adsorbate Hydrogen: InChIKey UFHFLCQGNIYNRP-UHFFFAOYSA-N
Temperature: 100 K
Tabular data in the source: 0
pressure (bar)	uptake (mmol/g)
1.5142	1.48936
2.83912	3.61702
3.97476	5.10638
5.11041	6.80851
6.24606	8.29787
7.00315	9.14894
8.32808	10.6383
9.84227	11.9149
11.3565	13.1915
13.0599	14.0426
14.7634	15.1064
16.4669	15.7447
18.3596	16.383
20.0631	17.0213
21.9558	17.4468
23.6593	18.0851
25.5521	18.2979
27.4448	18.7234
29.1483	18.9362
31.041	19.1489
32.9338	19.3617
34.8265	19.5745
36.7192	19.5745
38.4227	19.7872
40.3155	19.7872
41.0726	19.7872
42.9653	20
44.858	20
46.7508	20
48.4543	20
50.347	20.2128
52.2397	20.2128
53.9432	20.2128
55.836	20.2128
57.7287	20.2128
59.4322	20.2128
61.3249	20.2128
63.0284	20.2128
64.7319	20.2128
