Adsorption isotherm of Hydrogen on IRMOF-1
DOI: 10.1021/Jp305524f
Adsorbate Hydrogen: InChIKey UFHFLCQGNIYNRP-UHFFFAOYSA-N
Temperature: 200 K
Tabular data in the source: 0
pressure (bar)	uptake (mmol/g)
3.33333	0.189394
4.62963	0.378788
6.66667	0.568182
8.51852	0.568182
9.62963	0.757576
10.7407	0.94697
12.037	0.94697
13.8889	0.94697
15.7407	1.13636
16.8519	1.32576
18.7037	1.32576
20.5556	1.51515
22.4074	1.70455
24.0741	1.70455
25.9259	1.89394
28.3333	2.08333
30.1852	2.27273
32.037	2.27273
33.8889	2.46212
36.1111	2.65152
37.963	2.65152
39.8148	2.84091
41.6667	3.0303
43.5185	3.0303
45.1852	3.2197
47.037	3.2197
48.8889	3.40909
50.3704	3.40909
52.2222	3.40909
52.963	3.59848
54.8148	3.59848
57.037	3.78788
58.8889	3.78788
60.5556	3.97727
62.7778	3.97727
64.6296	4.16667
