Adsorption isotherm of Hydrogen on IRMOF-1
DOI: 10.1021/Jp305524f
Adsorbate Hydrogen: InChIKey UFHFLCQGNIYNRP-UHFFFAOYSA-N
Temperature: 100 K
Tabular data in the source: 0
pressure (bar)	uptake (mmol/g)
0.9182	1.32075
2.93782	4.33962
4.40987	5.66038
5.51338	6.79245
6.98543	8.11321
7.53858	8.30189
9.01132	9.43396
10.1162	10.1887
11.5897	11.1321
13.617	12.0755
15.2757	12.8302
16.9345	13.5849
18.2254	13.9623
20.0694	14.5283
21.7289	15.0943
23.389	15.4717
25.0485	16.0377
26.8932	16.4151
28.5534	16.7925
30.3981	17.1698
32.059	17.3585
33.9037	17.7358
35.0107	17.9245
36.8562	18.1132
38.7017	18.3019
40.3625	18.4906
40.9156	18.6792
42.7611	18.8679
44.6066	19.0566
46.2674	19.2453
47.0059	19.2453
48.8513	19.434
50.6975	19.434
52.5429	19.6226
54.2045	19.6226
56.0499	19.8113
57.8961	19.8113
62.1415	20
63.8024	20.1887
64.7255	20.1887
