Adsorption isotherm of Hydrogen on IRMOF-1
DOI: 10.1021/Jp305524f
Adsorbate Hydrogen: InChIKey UFHFLCQGNIYNRP-UHFFFAOYSA-N
Temperature: 30 K
Tabular data in the source: 0
pressure (bar)	uptake (mmol/g)
0.192926	0.192926
0.771704	50.2326
1.35048	53.9535
2.50804	55.5814
3.66559	56.2791
5.01608	56.2791
