Adsorption isotherm of Hydrogen on IRMOF-1
DOI: 10.1021/Jp305524f
Adsorbate Hydrogen: InChIKey UFHFLCQGNIYNRP-UHFFFAOYSA-N
Temperature: 100 K
Tabular data in the source: 0
pressure (bar)	uptake (mmol/g)
1.32492	1.48936
2.83912	4.04255
3.97476	5.31915
5.29968	6.80851
6.62461	8.29787
7.3817	8.93617
8.8959	10.2128
9.84227	10.8511
11.3565	11.9149
13.2492	12.9787
14.9527	13.8298
16.6562	14.6809
17.9811	15.1064
19.8738	15.7447
21.5773	16.383
23.0915	16.8085
24.9842	17.234
26.6877	17.6596
28.3912	18.0851
30.2839	18.2979
31.9874	18.7234
33.8801	18.9362
34.8265	19.1489
36.7192	19.3617
38.612	19.5745
40.3155	19.7872
41.2618	19.7872
43.1546	20
45.0473	20.2128
46.7508	20.4255
47.3186	20.4255
49.2114	20.4255
51.1041	20.6383
53.3754	20.8511
55.2681	20.8511
57.1609	20.8511
58.4858	21.0638
60.3785	21.0638
61.8927	21.0638
63.7855	21.0638
64.7319	21.0638
