Adsorption isotherm of Hydrogen on IRMOF-1
DOI: 10.1021/Jp305524f
Adsorbate Hydrogen: InChIKey UFHFLCQGNIYNRP-UHFFFAOYSA-N
Temperature: 102 K
Tabular data in the source: 0
pressure (bar)	uptake (mmol/g)
1.3587	2.32648
2.71739	4.0072
4.61957	6.07608
5.97826	7.24019
7.06522	8.40396
9.78261	10.3447
11.413	11.3801
13.3152	12.4157
14.9457	13.3219
16.8478	14.2284
19.0217	15.0061
20.3804	15.5245
22.5543	16.3022
24.7283	16.9508
27.1739	17.5997
29.3478	18.1191
31.7935	18.5097
34.2391	19.0295
36.6848	19.5492
39.4022	19.9402
43.4783	20.4621
46.1957	20.7239
48.6413	20.9853
51.3587	21.2471
54.8913	21.51
57.337	21.6423
60.0543	21.775
62.5	21.9073
66.8478	22.0421
69.5652	22.1747
72.2826	22.3074
75	22.3109
78.8043	22.445
81.5217	22.4485
84.2391	22.452
86.9565	22.4555
90.7609	22.4604
93.4783	22.4639
96.1957	22.4674
98.913	22.4709
