Adsorption isotherm of Hydrogen on IRMOF-1
DOI: 10.1021/Jp305524f
Adsorbate Hydrogen: InChIKey UFHFLCQGNIYNRP-UHFFFAOYSA-N
Temperature: 77 K
Tabular data in the source: 0
pressure (bar)	uptake (mmol/g)
0.638978	0.638978
1.27796	4.82143
1.59744	6.16071
2.8754	9.24107
3.51438	10.5804
4.47284	11.7857
5.11182	13.125
7.66773	15.8036
9.26518	17.0089
10.8626	18.0804
12.7796	19.1518
14.6965	20.0893
17.5719	21.0268
20.4473	21.6964
24.6006	22.5
28.115	22.9018
33.8658	23.3036
38.9776	23.5714
45.3674	23.4375
52.0767	23.1696
54.6326	23.0357
57.1885	22.9018
60.7029	22.9018
63.8978	22.6339
66.7732	22.3661
69.6486	21.9643
72.2045	21.9643
75.3994	21.6964
78.5942	21.5625
81.4696	21.2946
84.345	21.0268
87.5399	20.7589
90.4153	20.4911
93.6102	20.2232
96.8051	20.0893
100	19.6875
