Adsorption isotherm of Hydrogen on IRMOF-1
DOI: 10.1021/Jp305524f
Adsorbate Hydrogen: InChIKey UFHFLCQGNIYNRP-UHFFFAOYSA-N
Temperature: 77 K
Tabular data in the source: 0
pressure (bar)	uptake (mmol/g)
0.723832	3.96226
1.26653	6.98113
1.81271	9.0566
2.54351	11.1321
3.27361	13.3962
4.0065	14.9057
4.92401	16.4151
5.84221	17.7358
6.94502	19.0566
7.86392	20.1887
9.15205	21.3208
10.8087	22.6415
12.2821	23.5849
14.3094	24.5283
15.9682	25.283
17.6276	25.8491
19.1032	26.2264
20.9479	26.6038
22.6081	26.9811
24.8221	27.3585
26.6668	27.7358
29.8046	27.9245
31.65	28.1132
33.4955	28.3019
35.3417	28.3019
36.8186	28.3019
38.664	28.4906
40.5102	28.4906
42.3563	28.4906
44.2025	28.4906
46.0487	28.4906
47.7109	28.3019
49.7417	28.3019
51.5878	28.3019
53.434	28.3019
55.4654	28.1132
57.3116	28.1132
61.743	27.9245
63.5899	27.7358
64.6976	27.7358
