Adsorption isotherm of Hydrogen on IRMOF-1
DOI: 10.1021/Jp305524f
Adsorbate Hydrogen: InChIKey UFHFLCQGNIYNRP-UHFFFAOYSA-N
Temperature: 77 K
Tabular data in the source: 0
pressure (bar)	uptake (mmol/g)
0.189274	3.40426
0.757098	6.17021
1.5142	10.2128
2.08202	12.5532
3.02839	14.6809
3.78549	16.5957
4.73186	18.5106
5.86751	20.2128
7.19243	21.7021
8.51735	22.9787
10.2208	24.0426
11.9243	25.1064
13.6278	25.7447
15.5205	26.1702
17.4132	26.5957
19.1167	27.0213
21.0095	27.234
22.9022	27.4468
24.6057	27.6596
26.4984	27.6596
28.3912	27.8723
29.3375	27.8723
31.2303	27.8723
33.123	27.8723
35.0158	27.8723
36.3407	27.8723
38.2334	27.8723
40.1262	27.8723
42.0189	27.8723
42.9653	27.8723
44.858	27.8723
46.7508	27.8723
48.6435	27.8723
50.5363	27.8723
52.429	27.8723
54.3218	27.8723
55.2681	27.8723
57.1609	27.6596
59.4322	27.6596
61.3249	27.6596
63.2177	27.6596
64.5426	27.6596
