Adsorption isotherm of Hydrogen on IRMOF-1
DOI: 10.1021/Jp305524f
Adsorbate Hydrogen: InChIKey UFHFLCQGNIYNRP-UHFFFAOYSA-N
Temperature: 300 K
Tabular data in the source: 0
pressure (bar)	uptake (mmol/g)
5.907	0.188679
9.23007	0.188679
11.6294	0.377358
14.2133	0.566038
16.7979	0.566038
19.7511	0.754717
22.3357	0.754717
24.9196	0.943396
27.8727	1.13208
30.0888	0.943396
31.935	0.943396
33.7804	1.13208
35.4427	0.943396
37.2881	1.13208
39.1343	1.13208
40.9797	1.32075
42.4574	1.13208
44.3028	1.32075
46.149	1.32075
47.6252	1.50943
49.1035	1.13208
50.7637	1.50943
52.6098	1.50943
54.456	1.50943
55.7469	1.88679
58.1469	1.88679
60.7322	1.69811
63.1322	1.69811
64.6091	1.69811
