Adsorption isotherm of Hydrogen on IRMOF-1
DOI: 10.1021/Jp305524f
Adsorbate Hydrogen: InChIKey UFHFLCQGNIYNRP-UHFFFAOYSA-N
Temperature: 77 K
Tabular data in the source: 0
pressure (bar)	uptake (mmol/g)
0.385852	3.48837
0.96463	5.81395
1.73633	9.06977
2.31511	11.3953
3.08682	13.0233
3.85852	15.1163
4.82315	16.9767
5.78778	18.6047
7.33119	20.2326
8.68167	21.8605
10.2251	23.2558
11.9614	24.186
13.6977	25.1163
15.627	26.0465
17.3633	26.7442
19.2926	27.2093
21.0289	27.6744
22.9582	27.907
24.3087	28.1395
26.2379	28.3721
28.1672	28.6047
29.5177	28.6047
31.4469	28.6047
33.3762	28.8372
35.3055	28.8372
36.463	28.8372
38.3923	28.8372
40.3215	28.6047
42.2508	28.6047
43.9871	28.6047
45.9164	28.3721
47.8457	28.3721
49.3891	28.1395
51.3183	28.1395
53.2476	27.907
55.1768	27.907
57.1061	27.6744
62.3151	27.2093
64.2444	26.9767
