Adsorption isotherm of Hydrogen on IRMOF-1
DOI: 10.1021/Jp305524f
Adsorbate Hydrogen: InChIKey UFHFLCQGNIYNRP-UHFFFAOYSA-N
Temperature: 50 K
Tabular data in the source: 0
pressure (bar)	uptake (mmol/g)
0.567823	19.5745
0.757098	25.1064
0.946372	28.2979
1.32492	30.8511
1.89274	34.0426
2.83912	36.8085
4.16404	38.0851
5.48896	39.5745
7.19243	40.4255
9.08517	41.0638
10.7886	41.4894
12.6814	41.4894
14.5741	41.4894
16.4669	41.4894
18.3596	41.2766
20.0631	41.0638
21.9558	40.6383
22.9022	40.4255
24.795	40
26.4984	39.5745
27.8233	39.1489
29.7161	38.7234
