Adsorption isotherm of Hydrogen on IRMOF-1
DOI: 10.1021/Jp305524f
Adsorbate Hydrogen: InChIKey UFHFLCQGNIYNRP-UHFFFAOYSA-N
Temperature: 50 K
Tabular data in the source: 0
pressure (bar)	uptake (mmol/g)
0.185185	17.7215
0.555556	23.8397
1.11111	27.8481
1.66667	31.4346
2.59259	33.9662
3.33333	35.443
4.44444	37.1308
5.74074	38.8186
7.22222	39.8734
8.88889	40.7173
10.5556	41.5612
12.4074	41.9831
14.2593	42.4051
15.5556	42.1941
17.4074	41.9831
19.0741	41.9831
20.9259	41.7722
22.963	41.3502
24.8148	40.9283
26.4815	40.5063
28.1481	39.8734
29.8148	39.4515
