Adsorption isotherm of Hydrogen on IRMOF-1
DOI: 10.1021/Jp305524f
Adsorbate Hydrogen: InChIKey UFHFLCQGNIYNRP-UHFFFAOYSA-N
Temperature: 125 K
Tabular data in the source: 0
pressure (bar)	uptake (mmol/g)
2.22354	1.49813
3.336	2.05993
4.81998	2.62172
5.37517	3.18352
6.85915	3.74532
7.6001	4.30712
9.08408	4.86891
10.9389	5.61798
12.4229	6.17978
14.2784	6.74157
15.7623	7.30337
17.4321	7.86517
19.1025	8.2397
20.773	8.61423
22.6284	9.17603
24.2989	9.55056
25.9707	9.55056
27.454	10.2996
29.3109	10.4869
30.9813	10.8614
32.4667	11.0487
34.3229	11.4232
36.1798	11.6105
37.6658	11.6105
39.3363	11.985
41.1925	12.3596
43.0501	12.3596
43.9775	12.7341
45.6493	12.7341
47.5062	12.9213
49.1773	13.1086
50.8491	13.1086
52.706	13.2959
54.5629	13.4831
56.2347	13.4831
57.9059	13.6704
59.5763	14.0449
61.2481	14.0449
62.7342	14.0449
64.5918	14.0449
