Adsorption isotherm of Hydrogen on IRMOF-1
DOI: 10.1021/Jp305524f
Adsorbate Hydrogen: InChIKey UFHFLCQGNIYNRP-UHFFFAOYSA-N
Temperature: 300 K
Tabular data in the source: 0
pressure (bar)	uptake (g/l)
0.634921	3.24873
2.53968	8.32487
6.66667	15.6345
14.9206	23.5533
21.5873	26.599
26.6667	28.2234
30.7937	30.2538
37.1429	31.269
40.6349	32.8934
47.9365	33.9086
50.4762	35.1269
58.4127	35.9391
60.6349	36.9543
69.5238	38.5787
70.4762	38.7817
73.9683	39.1878
80.6349	40.4061
89.2063	41.2183
93.9683	41.8274
100	42.4365
