Adsorption isotherm of Hydrogen on IRMOF-1
DOI: 10.1021/Jp305524f
Adsorbate Hydrogen: InChIKey UFHFLCQGNIYNRP-UHFFFAOYSA-N
Temperature: 295 K
Tabular data in the source: 0
pressure (bar)	uptake (mmol/g)
5.11182	0.159953
9.26518	0.318447
17.8914	0.635922
20.7668	0.640297
23.9617	0.645159
26.8371	0.801709
28.754	0.804626
32.2684	0.962148
35.7827	1.11967
40.2556	1.12648
43.77	1.43617
48.2428	1.44298
52.7157	1.60196
56.869	1.60828
63.8978	1.92332
68.3706	1.93013
72.8435	2.08911
76.6773	2.24712
78.5942	2.25003
81.1502	2.25392
85.9425	2.41339
89.4569	2.57091
94.5687	2.57869
97.1246	2.58258
99.6805	2.73864
