Adsorption isotherm of Hydrogen on IRMOF-1
DOI: 10.1021/Jp305524f
Adsorbate Hydrogen: InChIKey UFHFLCQGNIYNRP-UHFFFAOYSA-N
Temperature: 200 K
Tabular data in the source: 0
pressure (bar)	uptake (mmol/g)
3.50769	0.198959
6.46154	0.584153
8.67692	0.779063
10.5231	0.972817
12	1.16541
13.8462	1.1712
15.6923	1.36495
17.3538	1.55813
19.2	1.75188
20.8615	1.94505
22.7077	1.95084
24.5538	2.14459
26.4	2.33835
28.2462	2.5321
30.0923	2.53788
31.9385	2.73164
33.7846	2.92539
35.4462	2.9306
37.2923	3.12435
38.9538	3.31752
40.8	3.32331
42.6462	3.51706
44.4923	3.52285
46.3385	3.7166
48.1846	3.91035
50.0308	3.91614
51.6923	4.10931
53.5385	4.1151
55.3846	4.30885
57.2308	4.31463
59.0769	4.50839
61.8462	4.70503
63.5077	4.71024
64.6154	4.71371
