Adsorption isotherm of Hydrogen on IRMOF-1
DOI: 10.1021/Jp305524f
Adsorbate Hydrogen: InChIKey UFHFLCQGNIYNRP-UHFFFAOYSA-N
Temperature: 117 K
Tabular data in the source: 0
pressure (bar)	uptake (mmol/g)
2.17391	1.81093
3.53261	2.84589
5.16304	3.75206
6.79348	4.78737
9.23913	6.4695
11.413	7.37636
15.2174	8.67279
16.8478	9.4498
22.8261	11.3948
25.2717	12.0437
27.7174	12.5635
30.9783	13.3426
34.5109	13.9929
36.9565	14.5127
39.6739	14.9036
46.4674	15.8165
48.913	16.2071
51.6304	16.4689
58.4239	16.9943
61.1413	17.2561
63.587	17.5175
66.3043	17.6502
69.0217	18.0412
71.7391	17.9155
74.4565	18.0482
76.9022	18.1805
79.6196	18.3132
81.25	18.4444
83.1522	18.3177
85.3261	18.5788
88.0435	18.5823
90.7609	18.715
93.4783	18.7185
95.9239	18.8508
98.6413	18.8543
100	18.8561
