Adsorption isotherm of Hydrogen on IRMOF-1
DOI: 10.1021/Jp305524f
Adsorbate Hydrogen: InChIKey UFHFLCQGNIYNRP-UHFFFAOYSA-N
Temperature: 200 K
Tabular data in the source: 0
pressure (bar)	uptake (mmol/g)
1.85049	0.368756
3.51648	0.550822
5.18316	0.545621
7.77371	1.09933
10.5508	1.27793
12.0323	1.27331
13.8835	1.4548
15.7347	1.63628
17.4007	1.81835
19.2525	1.81257
21.1037	1.99406
22.029	2.17844
23.8801	2.35992
25.732	2.35414
27.5832	2.53563
29.2492	2.7177
31.1004	2.89919
32.9522	2.89341
34.8034	3.0749
36.0997	3.07085
37.9509	3.25234
39.8021	3.43383
41.654	3.42805
43.32	3.61011
45.1711	3.7916
47.023	3.78582
48.8742	3.96731
50.5409	3.96211
52.2069	4.14417
54.0587	4.13839
56.2796	4.50599
58.1322	4.31295
60.5389	4.4927
62.2049	4.67477
64.0568	4.66899
64.7975	4.66667
