Adsorption isotherm of Hydrogen on IRMOF-1
DOI: 10.1021/Jp305524f
Adsorbate Hydrogen: InChIKey UFHFLCQGNIYNRP-UHFFFAOYSA-N
Temperature: 50 K
Tabular data in the source: 0
pressure (bar)	uptake (mmol/g)
0.184615	15.0382
0.369231	18.4222
0.738462	25.1903
1.29231	28.1995
1.47692	30.0798
2.03077	31.9612
2.58462	33.8427
3.50769	35.3493
4.61538	36.8566
5.90769	38.1764
7.56923	38.9335
9.41538	39.5032
11.0769	39.8843
12.9231	40.0781
14.7692	40.0839
16.6154	39.9017
18.4615	39.7195
20.1231	39.3488
21.9692	38.9786
23.6308	38.6079
25.4769	38.2377
27.3231	37.4916
28.9846	36.9329
29.9077	36.5599
