Adsorption isotherm of Hydrogen on IRMOF-1
DOI: 10.1021/Jp305524f
Adsorbate Hydrogen: InChIKey UFHFLCQGNIYNRP-UHFFFAOYSA-N
Temperature: 77 K
Tabular data in the source: 0
pressure (bar)	uptake (mmol/g)
0.555556	7.59494
1.11111	10.3376
2.03704	13.0802
2.96296	14.9789
3.88889	16.6667
4.81481	18.1435
6.11111	19.6203
7.03704	20.6751
8.51852	21.9409
10.1852	22.9958
11.8519	23.8397
13.5185	24.6835
15.3704	25.3165
17.037	25.9494
18.7037	26.5823
20.3704	27.0042
22.2222	27.4262
24.8148	27.8481
26.6667	28.0591
29.8148	28.481
31.6667	28.481
33.5185	28.692
35.3704	28.903
36.8519	28.903
38.7037	28.903
40.5556	28.903
42.4074	28.903
43.5185	28.903
45.3704	28.903
47.2222	28.903
49.8148	28.692
51.6667	28.692
53.5185	28.692
55	28.692
55.5556	28.481
57.4074	28.27
60.5556	28.27
62.4074	27.8481
64.0741	28.0591
