Adsorption isotherm of Hydrogen on IRMOF-1
DOI: 10.1021/Jp305524f
Adsorbate Hydrogen: InChIKey UFHFLCQGNIYNRP-UHFFFAOYSA-N
Temperature: 77 K
Tabular data in the source: 0
pressure (bar)	uptake (mmol/g)
0.564972	4.25197
0.847458	6.02362
1.12994	7.55906
1.41243	8.97638
1.9774	10.3937
2.54237	11.9291
3.10734	13.1102
3.67232	14.2913
4.23729	15.3543
4.80226	17.4803
6.21469	18.7795
7.06215	19.8425
8.19209	21.0236
9.32203	22.0866
11.8644	24.0945
13.2768	24.9213
16.1017	26.3386
18.3616	27.0472
20.6215	27.6378
22.8814	28.2283
25.7062	28.8189
27.6836	29.0551
29.661	29.2913
32.7684	29.6457
35.5932	29.8819
38.9831	29.8819
41.5254	30
44.0678	30
47.4576	29.8819
49.7175	29.8819
52.5424	29.8819
55.3672	29.7638
57.6271	29.4094
60.452	29.4094
62.9944	29.2913
65.8192	29.2913
67.7966	28.8189
70.6215	28.8189
73.1638	28.5827
75.9887	28.3465
78.5311	28.2283
81.0734	27.9921
83.8983	27.7559
86.4407	27.5197
89.2655	27.2835
91.8079	27.0472
94.6328	26.811
97.1751	26.5748
100	26.3386
