Adsorption isotherm of Hydrogen on IRMOF-1
DOI: 10.1021/Jp305524f
Adsorbate Hydrogen: InChIKey UFHFLCQGNIYNRP-UHFFFAOYSA-N
Temperature: 77 K
Tabular data in the source: 0
pressure (bar)	uptake (mmol/g)
0.319489	0.319489
0.638978	6.39228
0.958466	5.0232
1.27796	9.43673
2.55591	12.6343
5.11182	17.66
7.34824	20.5547
9.26518	22.688
12.7796	25.1281
18.8498	27.42
22.3642	28.4906
25.5591	28.7998
28.115	29.4123
31.3099	29.7216
39.9361	30.3434
43.131	30.3482
46.0064	30.5048
48.2428	30.356
51.4377	30.3609
54.6326	30.2136
57.508	29.9136
60.3834	30.0701
63.2588	29.9224
66.4537	29.9272
69.3291	29.4751
72.2045	29.3273
75.3994	29.18
81.7891	28.7332
84.984	28.4337
87.8594	28.2859
90.7348	28.2902
93.2907	27.8376
96.4856	27.5381
99.361	27.3903
