Adsorption isotherm of Hydrogen on IRMOF-1
DOI: 10.1021/Jp305524f
Adsorbate Hydrogen: InChIKey UFHFLCQGNIYNRP-UHFFFAOYSA-N
Temperature: 77 K
Tabular data in the source: 0
pressure (bar)	uptake (mmol/g)
0.369231	3.13295
0.738462	5.1465
1.47692	8.50195
2.03077	10.7387
2.95385	13.8696
4.06154	16.7759
4.98462	19.0113
6.27692	20.7975
7.38462	22.3605
8.67692	23.9228
10.8923	25.9295
12.3692	27.0434
14.4	28.3791
16.0615	29.2684
17.7231	30.1577
19.3846	30.5993
21.0462	31.2648
22.8923	31.7056
24.9231	32.1458
26.7692	32.5867
28.8	32.803
30.4615	33.2445
32.3077	33.4615
33.9692	33.4553
36.9231	33.6682
38.7692	33.8852
40.6154	33.8783
43.5692	34.0912
45.4154	34.0843
47.2615	34.0774
49.1077	34.0705
49.8462	34.0677
51.6923	34.0608
53.5385	33.8301
55.7538	33.8218
57.6	33.8149
61.8462	33.5752
63.6923	33.5683
