Adsorption isotherm of Hydrogen on IRMOF-1
DOI: 10.1021/Jp305524f
Adsorbate Hydrogen: InChIKey UFHFLCQGNIYNRP-UHFFFAOYSA-N
Temperature: 300 K
Tabular data in the source: 0
pressure (bar)	uptake (wt%)
0.634921	0.634921
1.90476	1.91597
3.80952	3
6.03175	3.47899
7.93651	4.08403
11.1111	4.56303
13.9683	4.89076
15.5556	4.9916
21.9048	5.34454
24.7619	5.42017
31.4286	5.59664
35.2381	5.62185
42.8571	5.69748
45.7143	5.64706
54.6032	5.64706
56.5079	5.59664
66.3492	5.57143
67.619	5.4958
77.4603	5.39496
78.7302	5.39496
90.4762	5.19328
100.635	5.01681
