Adsorption isotherm of Hydrogen on IRMOF-1
DOI: 10.1021/Jp305524f
Adsorbate Hydrogen: InChIKey UFHFLCQGNIYNRP-UHFFFAOYSA-N
Temperature: 132 K
Tabular data in the source: 0
pressure (bar)	uptake (mmol/g)
0.958466	0.401786
3.51438	1.20536
6.38978	2.00893
8.94569	2.8125
12.4601	3.61607
15.016	4.28571
17.8914	4.82143
20.7668	5.49107
24.2812	5.89286
26.8371	6.42857
30.0319	6.96429
32.9073	7.36607
36.4217	7.76786
39.6166	8.16964
42.492	8.4375
45.6869	8.70536
48.5623	8.97321
51.7572	9.24107
54.6326	9.50893
57.8275	9.64286
61.0224	9.91071
63.8978	10.0446
66.7732	10.1786
69.9681	10.4464
73.4824	10.5804
76.6773	10.7143
79.8722	10.8482
83.0671	10.8482
85.9425	10.9821
89.1374	11.1161
92.3323	11.1161
95.5272	11.25
98.722	11.25
99.6805	11.25
