Adsorption isotherm of Hydrogen on IRMOF-1
DOI: 10.1021/Jp305524f
Adsorbate Hydrogen: InChIKey UFHFLCQGNIYNRP-UHFFFAOYSA-N
Temperature: 111 K
Tabular data in the source: 0
pressure (bar)	uptake (mmol/g)
2.17391	1.48289
3.80435	2.73764
5.97826	4.22053
7.88043	5.01901
10.8696	6.38783
13.0435	7.07224
14.9457	7.87072
17.1196	8.55513
22.2826	9.80989
24.7283	10.2662
26.9022	10.4943
27.9891	10.9506
30.4348	11.4068
33.6957	11.8631
36.1413	12.2053
38.8587	12.5475
41.5761	12.7757
49.7283	13.5741
52.4457	13.6882
54.8913	13.9163
57.8804	14.0304
60.3261	14.2586
62.7717	14.2586
65.4891	14.3726
67.9348	14.4867
70.3804	14.8289
72.8261	14.7148
75.5435	14.7148
78.2609	14.8289
80.7065	14.943
83.1522	14.943
85.8696	14.943
88.587	14.943
91.3043	14.943
93.4783	15.057
95.9239	15.057
98.6413	15.057
