Adsorption isotherm of Hydrogen on IRMOF-1
DOI: 10.1021/Jp305524f
Adsorbate Hydrogen: InChIKey UFHFLCQGNIYNRP-UHFFFAOYSA-N
Temperature: 300 K
Tabular data in the source: 0
pressure (bar)	uptake (mmol/g)
5.18519	0.37594
7.40741	0.37594
9.62963	0.56391
12.037	0.75188
15	0.75188
16.6667	0.75188
18.5185	0.93985
20.3704	0.93985
22.4074	0.93985
24.2593	1.12782
26.1111	1.12782
27.4074	0.75188
28.8889	1.31579
30.7407	1.31579
32.5926	1.50376
34.4444	1.50376
35.7407	1.50376
37.5926	1.50376
39.4444	1.69173
41.2963	1.69173
43.1481	1.69173
45	1.8797
46.8519	1.8797
48.7037	1.8797
50.5556	2.06767
55.7407	2.25564
57.5926	2.06767
59.4444	2.25564
61.2963	2.25564
63.1481	2.25564
65	2.25564
