Adsorption isotherm of Hydrogen on IRMOF-1
DOI: 10.1021/Jp305524f
Adsorbate Hydrogen: InChIKey UFHFLCQGNIYNRP-UHFFFAOYSA-N
Temperature: 300 K
Tabular data in the source: 0
pressure (bar)	uptake (g/l)
0.634921	2.2335
1.90476	10.3553
3.49206	14.2132
5.71429	16.8528
6.66667	18.4772
9.52381	21.7259
13.3333	24.5685
15.873	26.599
21.5873	29.2386
26.3492	31.4721
32.0635	33.2995
36.8254	34.9239
47.619	37.3604
51.1111	38.1726
58.0952	39.5939
64.4444	40.8122
69.2063	41.4213
73.3333	42.0305
78.0952	42.8426
80.3175	43.2487
85.3968	43.6548
92.0635	44.6701
96.1905	45.0761
100	45.2792
