Adsorption isotherm of Hydrogen on IRMOF-1
DOI: 10.1021/Jp305524f
Adsorbate Hydrogen: InChIKey UFHFLCQGNIYNRP-UHFFFAOYSA-N
Temperature: 30 K
Tabular data in the source: 0
pressure (bar)	uptake (mmol/g)
0.184615	0.184615
0.369231	45.1139
0.553846	46.8062
0.923077	48.3112
1.84615	49.2539
3.32308	49.6345
4.24615	49.2614
5.35385	48.701
6.27692	47.952
