Adsorption isotherm of Hydrogen on IRMOF-1
DOI: 10.1021/Jp305524f
Adsorbate Hydrogen: InChIKey UFHFLCQGNIYNRP-UHFFFAOYSA-N
Temperature: 77 K
Tabular data in the source: 0
pressure (bar)	uptake (mmol/g)
0.847458	4.26877
1.41243	6.64032
2.54237	9.48617
4.51977	12.4506
5.9322	14.3478
7.62712	16.2451
9.32203	17.1937
11.0169	18.1423
11.5819	18.6166
13.5593	19.5652
15.2542	20.3953
17.5141	21.1067
19.774	21.6996
22.8814	22.4111
24.8588	22.6482
27.9661	23.2411
32.2034	23.3597
35.0282	23.5968
41.8079	23.5968
44.6328	23.5968
51.6949	23.3597
54.5198	23.2411
57.0621	23.1225
61.5819	22.7668
64.4068	22.5296
66.9492	22.4111
71.7514	21.9368
74.5763	21.8182
77.1186	21.4625
81.9209	21.1067
84.7458	20.8696
87.2881	20.6324
90.113	20.3953
92.6554	20.1581
95.4802	19.9209
98.0226	19.6838
99.7175	19.3281
