Adsorption isotherm of Hydrogen on IRMOF-1
DOI: 10.1021/Jp305524f
Adsorbate Hydrogen: InChIKey UFHFLCQGNIYNRP-UHFFFAOYSA-N
Temperature: 300 K
Tabular data in the source: 0
pressure (bar)	uptake (mmol/g)
41.672	0.232558
44.7588	0.232558
48.6174	0.465116
50.5466	0.465116
52.4759	0.465116
54.4051	0.465116
56.3344	0.465116
58.2637	0.465116
60.1929	0.465116
62.3151	0.465116
64.2444	0.697674
