Adsorption isotherm of Hydrogen on IRMOF-1
DOI: 10.1021/Jp305524f
Adsorbate Hydrogen: InChIKey UFHFLCQGNIYNRP-UHFFFAOYSA-N
Temperature: 200 K
Tabular data in the source: 0
pressure (bar)	uptake (mmol/g)
25.1852	0.281697
27.7778	0.0918577
30.1852	0.298231
32.5926	0.306192
35.1852	0.711591
36.8519	0.51869
39.6296	0.924701
42.2222	0.933275
45.3704	1.34051
48.1481	1.3497
50.5556	1.55607
52.963	1.56403
56.4815	1.97249
59.8148	2.18193
61.4815	2.18744
63.3333	2.19356
65.1852	2.3981
