Adsorption isotherm of Hydrogen on IRMOF-1
DOI: 10.1021/Jp305524f
Adsorbate Hydrogen: InChIKey UFHFLCQGNIYNRP-UHFFFAOYSA-N
Temperature: 77 K
Tabular data in the source: 0
pressure (bar)	uptake (mmol/g)
2.25989	10.9869
2.82486	11.9325
3.38983	13.7048
4.51977	15.1234
4.80226	16.0687
5.08475	16.3052
6.21469	17.4877
7.62712	18.6704
9.03955	19.8532
10.452	20.9179
12.1469	21.8647
14.4068	22.9304
16.3842	23.7595
19.774	24.8265
22.3164	25.4201
25.4237	25.8962
27.9661	26.2535
31.0734	26.4934
33.8983	26.733
36.7232	26.8544
39.548	26.8577
42.3729	26.8611
45.1977	26.8644
48.0226	26.6315
50.8475	26.6349
53.9548	26.4023
56.7797	26.2875
59.6045	26.0547
62.4294	25.9399
65.2542	25.8251
67.7966	25.4738
71.1864	25.2416
73.7288	25.0083
77.1186	24.5399
79.661	24.4248
83.3333	24.0748
86.1582	23.8419
89.2655	23.3731
91.8079	23.258
94.6328	23.0252
97.4576	22.7923
100	22.5591
