Adsorption isotherm of Hydrogen on IRMOF-1
DOI: 10.1021/Jp305524f
Adsorbate Hydrogen: InChIKey UFHFLCQGNIYNRP-UHFFFAOYSA-N
Temperature: 77 K
Tabular data in the source: 0
pressure (bar)	uptake (mmol/g)
0.310159	0.913515
0.599549	4.10961
1.21433	6.54533
1.51203	8.82839
2.12681	11.2641
2.43281	12.6341
3.05451	14.309
3.99468	15.9843
4.93624	17.5075
6.19626	19.0312
7.1392	20.4022
8.7163	22.0785
10.2989	23.1461
12.1987	24.3664
14.0998	25.4345
16.3207	26.3509
18.5417	27.2673
21.0811	28.1843
23.9446	28.493
26.4868	29.1055
29.6687	29.4147
32.5335	29.5712
35.3983	29.7278
38.5802	30.037
41.7649	30.0418
44.9509	29.8945
47.8157	30.051
51.0018	29.9037
54.1865	29.9085
57.0554	29.6086
59.923	29.4608
63.1105	29.1613
65.9767	29.1656
68.8456	28.8656
71.7146	28.5657
74.9007	28.4183
79.6818	27.9691
82.8692	27.6696
85.7382	27.3696
88.9243	27.2223
91.1563	26.9213
94.3424	26.774
97.2113	26.474
