Adsorption isotherm of Hydrogen on IRMOF-1
DOI: 10.1021/Jp305524f
Adsorbate Hydrogen: InChIKey UFHFLCQGNIYNRP-UHFFFAOYSA-N
Temperature: 30 K
Tabular data in the source: 0
pressure (bar)	uptake (mmol/g)
0.185185	44.8419
0.37037	47.4219
0.925926	51.392
1.48148	52.3859
2.96296	53.5812
4.62963	53.9836
5.92593	54.1863
