Adsorption isotherm of Hydrogen on IRMOF-1
DOI: 10.1021/Jp305524f
Adsorbate Hydrogen: InChIKey UFHFLCQGNIYNRP-UHFFFAOYSA-N
Temperature: 77 K
Tabular data in the source: 0
pressure (bar)	uptake (mmol/g)
0.93647	4.9569
1.50066	7.32759
1.68598	8.83621
2.44372	10.5603
3.57868	13.5776
4.52669	15.5172
5.66577	17.4569
6.80568	19.181
7.56671	20.0431
8.89853	21.5517
10.232	22.6293
11.7557	23.9224
13.6624	25
15.3789	25.8621
17.2872	26.5086
19.0045	27.1552
20.9137	27.5862
22.6318	28.0172
24.541	28.4483
26.451	28.6638
28.1691	29.0948
30.0799	29.0948
31.9899	29.3103
33.9007	29.3103
35.4286	29.5259
37.3394	29.5259
39.2502	29.5259
41.161	29.5259
43.0719	29.5259
44.7924	29.3103
46.7033	29.3103
48.6149	29.0948
49.1882	29.0948
51.099	29.0948
53.0107	28.8793
55.1134	28.6638
57.0242	28.6638
58.9359	28.4483
62.1859	28.0172
64.0967	28.0172
