Adsorption isotherm of Hydrogen on IRMOF-1
DOI: 10.1021/Jp305524f
Adsorbate Hydrogen: InChIKey UFHFLCQGNIYNRP-UHFFFAOYSA-N
Temperature: 50 K
Tabular data in the source: 0
pressure (bar)	uptake (mmol/g)
0.185185	0.185185
0.555556	23.1061
0.740741	25.7576
0.925926	28.0303
1.11111	29.1667
1.2963	30.8712
1.48148	32.3864
1.85185	34.2803
2.40741	35.9848
3.14815	37.3106
3.88889	38.8258
5.37037	40.1515
7.22222	41.2879
8.88889	41.8561
9.81481	42.2348
11.6667	42.2348
13.1481	42.2348
15	42.0455
16.8519	41.8561
18.3333	41.4773
20	40.9091
21.8519	40.3409
23.1481	39.9621
25	39.3939
26.6667	38.6364
27.5926	38.2576
29.2593	37.5
30.1852	37.1212
