Adsorption isotherm of Hydrogen on IRMOF-1
DOI: 10.1021/Jp305524f
Adsorbate Hydrogen: InChIKey UFHFLCQGNIYNRP-UHFFFAOYSA-N
Temperature: 50 K
Tabular data in the source: 0
pressure (bar)	uptake (mmol/g)
0.371517	17.3077
0.557276	20.7692
0.743034	25.5769
1.30031	30
1.85759	33.2692
2.41486	35.1923
3.52941	37.5
5.01548	39.2308
6.50155	40.1923
7.24458	40.7692
8.91641	41.1538
9.8452	41.5385
11.7028	41.5385
13.0031	41.9231
14.6749	41.5385
16.5325	41.5385
18.0186	41.5385
19.8762	41.1538
21.548	40.7692
23.2198	40.3846
25.0774	40
26.7492	39.6154
28.4211	39.2308
30.0929	38.6538
