Adsorption isotherm of Hydrogen on IRMOF-1
DOI: 10.1021/Jp305524f
Adsorbate Hydrogen: InChIKey UFHFLCQGNIYNRP-UHFFFAOYSA-N
Temperature: 40 K
Tabular data in the source: 0
pressure (bar)	uptake (mmol/g)
0.185185	0.185185
0.555556	35.443
1.11111	39.6624
1.85185	41.9831
2.77778	44.5148
3.88889	46.4135
6.11111	48.1013
7.59259	48.5232
9.44444	48.7342
11.2963	48.7342
12.963	48.3122
14.8148	47.4684
