Adsorption isotherm of Hydrogen on IRMOF-1
DOI: 10.1021/Jp305524f
Adsorbate Hydrogen: InChIKey UFHFLCQGNIYNRP-UHFFFAOYSA-N
Temperature: 200 K
Tabular data in the source: 0
pressure (bar)	uptake (mmol/g)
3.50175	0.157503
5.4084	0.616926
8.27322	0.773459
13.3645	1.23773
16.5464	1.54692
19.4113	1.70345
22.5932	2.01264
27.6845	2.47691
30.8678	2.63393
33.7312	2.94263
36.9145	3.09965
41.3702	3.41078
44.5535	3.5678
47.417	3.8765
50.6002	4.03352
55.6929	4.34562
58.8776	4.35047
62.0609	4.50748
64.9243	4.81619
70.0184	4.97611
73.2017	5.13313
76.385	5.29015
79.2498	5.44668
84.3439	5.60661
87.5272	5.76363
90.7118	5.76847
93.8951	5.92549
96.7599	6.08203
99.3077	6.0859
