Adsorption isotherm of Hydrogen on IRMOF-1
DOI: 10.1021/Jp305524f
Adsorbate Hydrogen: InChIKey UFHFLCQGNIYNRP-UHFFFAOYSA-N
Temperature: 60 K
Tabular data in the source: 0
pressure (bar)	uptake (mmol/g)
0.185185	8.26675
0.37037	11.6948
0.555556	14.9212
0.925926	17.745
1.2963	19.5608
1.85185	22.7885
2.77778	26.0174
3.88889	29.0453
5.37037	30.8648
6.66667	32.0789
7.22222	32.8872
8.7037	34.1018
9.62963	34.5082
11.2963	35.3202
12.963	35.9307
14.8148	36.3401
16.4815	36.5473
18.3333	36.9568
20	37.164
22.5926	37.3743
24.4444	37.3805
26.2963	37.3867
27.5926	37.1895
29.4444	37.1957
31.2963	37.0003
33.1481	36.8049
33.8889	36.6058
35.7407	36.4104
37.5926	36.215
39.2593	35.8174
40	35.8199
41.8519	35.6245
43.5185	35.2269
45.3704	34.8299
46.1111	34.6307
47.963	34.4354
49.6296	34.0377
51.4815	33.6407
53.3333	33.4453
55	33.0477
56.8519	32.6507
58.5185	32.4547
60	32.0565
