Adsorption isotherm of Hydrogen on IRMOF-1
DOI: 10.1021/Jp305524f
Adsorbate Hydrogen: InChIKey UFHFLCQGNIYNRP-UHFFFAOYSA-N
Temperature: 77 K
Tabular data in the source: 0
pressure (bar)	uptake (mmol/g)
0.564972	4.38735
1.12994	6.40316
2.25989	10.1976
3.67232	12.9249
5.36723	15.0593
8.19209	17.668
10.7345	19.3281
16.6667	21.9368
21.4689	23.1225
25.4237	23.7154
29.3785	24.1897
33.6158	24.4269
36.4407	24.664
39.8305	24.5455
45.1977	24.664
50.2825	24.5455
55.3672	24.3083
59.322	24.0711
64.4068	23.834
69.209	23.4783
72.5989	23.2411
77.6836	22.8854
80.226	22.6482
83.0508	22.5296
87.5706	21.9368
91.8079	21.8182
93.5028	21.4625
99.7175	20.9881
