Adsorption isotherm of Hydrogen on IRMOF-1
DOI: 10.1021/Jp305524f
Adsorbate Hydrogen: InChIKey UFHFLCQGNIYNRP-UHFFFAOYSA-N
Temperature: 200 K
Tabular data in the source: 0
pressure (bar)	uptake (mmol/g)
3.14815	0.18797
4.25926	0.37594
6.48148	0.75188
8.51852	0.93985
10.3704	1.12782
11.8519	1.31579
13.7037	1.50376
15.5556	1.69173
16.6667	1.69173
18.5185	1.8797
20.3704	2.06767
21.8519	2.25564
23.7037	2.25564
25.5556	2.44361
28.1481	2.63158
30	2.81955
31.8519	2.81955
33.7037	3.00752
35.3704	3.19549
35.9259	3.19549
37.7778	3.19549
39.6296	3.38346
41.4815	3.38346
42.7778	3.57143
44.6296	3.57143
46.4815	3.7594
48.3333	3.7594
50	3.94737
53.5185	4.13534
55.3704	4.13534
56.8519	4.13534
58.7037	4.32331
62.037	4.32331
63.8889	4.51128
64.8148	4.51128
