Adsorption isotherm of Hydrogen on IRMOF-1
DOI: 10.1021/Jp305524f
Adsorbate Hydrogen: InChIKey UFHFLCQGNIYNRP-UHFFFAOYSA-N
Temperature: 30 K
Tabular data in the source: 0
pressure (bar)	uptake (mmol/g)
0.185759	45
0.371517	48.2692
0.557276	51.1538
1.67183	51.9231
3.52941	52.1154
5.20124	51.5385
6.13003	50.7692
