Adsorption isotherm of Hydrogen on IRMOF-1
DOI: 10.1021/Jp305524f
Adsorbate Hydrogen: InChIKey UFHFLCQGNIYNRP-UHFFFAOYSA-N
Temperature: 60 K
Tabular data in the source: 0
pressure (bar)	uptake (mmol/g)
0.555556	14.486
1.11111	18.0592
1.48148	21.0366
2.03704	24.6099
2.77778	27.1917
3.88889	29.7748
5	30.9689
6.2963	32.1637
7.22222	32.762
8.7037	33.9574
10.3704	34.1613
12.5926	34.7639
14.4444	34.9684
16.2963	35.1729
17.963	35.1784
19.8148	35.383
21.6667	35.3891
23.5185	35.3952
25.3704	35.4014
27.2222	35.4075
29.0741	35.4136
30.9259	35.4197
32.7778	35.4259
34.4444	35.4314
36.2963	35.4375
38.1481	35.2452
39.8148	34.8539
41.6667	35.2568
43.5185	35.263
45.3704	35.2691
47.2222	35.2752
48.8889	35.2807
50.5556	35.0878
52.4074	35.0939
54.2593	35.1001
56.1111	35.1062
57.963	35.1123
59.8148	34.92
