Adsorption isotherm of Hydrogen on IRMOF-1
DOI: 10.1021/Jp305524f
Adsorbate Hydrogen: InChIKey UFHFLCQGNIYNRP-UHFFFAOYSA-N
Temperature: 40 K
Tabular data in the source: 0
pressure (bar)	uptake (mmol/g)
0.0645035	32.5841
0.0728265	30.3369
0.0901661	25.6551
0.242755	34.4562
0.409215	39.5118
0.422394	35.9537
0.770573	41.9452
1.503	44.1901
1.86852	45.4998
2.97479	46.8072
4.26971	47.1777
5.74982	47.5476
7.23132	47.543
7.78688	47.5412
9.08528	46.9754
10.383	46.5968
11.1244	46.4072
12.4235	45.6541
13.7226	44.901
15.0217	44.1479
