Adsorption isotherm of Hydrogen on IRMOF-1
DOI: 10.1021/Jp305524f
Adsorbate Hydrogen: InChIKey UFHFLCQGNIYNRP-UHFFFAOYSA-N
Temperature: 300 K
Tabular data in the source: 0
pressure (bar)	uptake (wt%)
0.31746	0.378151
0.634921	0.781513
2.22222	1.81513
2.53968	2.09244
4.44444	2.77311
6.66667	3.17647
9.20635	3.57983
11.746	3.85714
15.873	4.18487
20.6349	4.38655
25.7143	4.56303
36.5079	4.68908
47.3016	4.66387
50.7937	4.71429
58.0952	4.61345
64.127	4.58824
69.2063	4.48739
77.7778	4.38655
80	4.36134
91.4286	4.21008
99.6825	4.05882
