Adsorption isotherm of Hydrogen on IRMOF-1
DOI: 10.1021/Jp305524f
Adsorbate Hydrogen: InChIKey UFHFLCQGNIYNRP-UHFFFAOYSA-N
Temperature: 77 K
Tabular data in the source: 0
pressure (bar)	uptake (mmol/g)
0.357197	3.55694
1.08477	7.11272
1.81234	10.6685
3.09686	13.848
3.83206	15.3438
4.38415	16.2785
5.30385	17.961
6.40942	19.4557
7.14601	20.5769
8.43747	21.8838
9.72892	23.1906
11.2063	24.3096
12.6843	25.2413
14.3475	26.1724
16.0114	26.9163
17.4908	27.4735
19.1554	28.0301
21.0052	28.5861
22.8557	28.9549
24.521	29.3242
26.3715	29.693
28.2227	29.8745
29.8887	30.0565
31.7399	30.238
33.591	30.4195
35.4429	30.4137
37.2948	30.4079
39.146	30.5894
40.9978	30.5837
42.8497	30.5779
44.7016	30.5721
46.369	30.3796
48.2208	30.3738
50.0727	30.3681
51.9253	30.175
53.7772	30.1692
55.4445	29.9768
57.2964	29.971
59.149	29.7779
61.0008	29.7722
62.8534	29.5791
64.706	29.3861
