Adsorption isotherm of Hydrogen on IRMOF-1
DOI: 10.1021/Jp305524f
Adsorbate Hydrogen: InChIKey UFHFLCQGNIYNRP-UHFFFAOYSA-N
Temperature: 200 K
Tabular data in the source: 0
pressure (bar)	uptake (mmol/g)
2.98913	0.382183
5.16304	0.636739
7.88043	0.761919
10.3261	1.01612
13.0435	1.39866
15.7609	1.52384
18.2065	1.77804
20.9239	2.0319
23.6413	2.15708
27.4457	2.53821
30.163	2.66339
32.6087	2.9176
35.3261	3.04278
38.0435	3.29664
41.3043	3.42112
44.0217	3.67497
46.4674	3.8005
49.1848	3.92568
53.2609	4.17779
55.7065	4.30332
58.4239	4.4285
62.5	4.68061
65.2174	4.67711
70.1087	4.92817
72.8261	5.05335
75.5435	5.17853
77.9891	5.30406
80.7065	5.42924
84.5109	5.55302
87.2283	5.6782
89.9457	5.6747
92.663	5.79988
94.5652	5.92611
97.2826	5.92261
99.7283	5.91947
