Adsorption isotherm of Hydrogen on IRMOF-1
DOI: 10.1021/Jp305524f
Adsorbate Hydrogen: InChIKey UFHFLCQGNIYNRP-UHFFFAOYSA-N
Temperature: 30 K
Tabular data in the source: 0
pressure (bar)	uptake (mmol/g)
3.55e-15	35.0187
0.185759	47.0037
0.371517	48.1273
0.743034	50.1873
1.85759	51.1236
3.52941	50.7491
5.01548	50
6.13003	48.8764
