Adsorption isotherm of Hydrogen on IRMOF-1
DOI: 10.1021/Jp305524f
Adsorbate Hydrogen: InChIKey UFHFLCQGNIYNRP-UHFFFAOYSA-N
Temperature: 100 K
Tabular data in the source: 0
pressure (bar)	uptake (mmol/g)
1.30031	1.15385
2.60062	3.26923
4.08669	5.57692
5.387	6.92308
6.68731	8.26923
7.24458	8.84615
8.73065	10
9.8452	10.7692
11.3313	11.9231
13.1889	12.8846
14.8607	13.6538
16.5325	14.4231
18.0186	15
19.6904	15.5769
21.548	16.1538
23.0341	16.7308
24.8916	17.1154
26.5635	17.5
28.4211	17.8846
30.2786	18.2692
31.9505	18.6538
33.808	18.8462
34.7368	18.8462
36.5944	19.2308
38.2663	19.4231
40.1238	19.6154
41.2384	19.8077
43.096	20
44.9536	20.1923
46.8111	20.1923
47.5542	20.3846
49.4118	20.3846
51.2693	20.5769
53.4985	20.7692
55.356	20.7692
57.2136	20.7692
58.6997	20.9615
60.5573	20.9615
62.0433	20.7692
63.9009	21.1538
65.2012	21.1538
