Adsorption isotherm of Hydrogen on IRMOF-1
DOI: 10.1021/Jp305524f
Adsorbate Hydrogen: InChIKey UFHFLCQGNIYNRP-UHFFFAOYSA-N
Temperature: 125 K
Tabular data in the source: 0
pressure (bar)	uptake (mmol/g)
1.2963	0.378788
2.96296	1.32576
5	2.27273
6.85185	3.2197
8.33333	3.78788
10	4.35606
11.8519	5.11364
13.7037	5.68182
15.7407	6.43939
17.4074	7.00758
19.2593	7.38636
20.9259	7.95455
22.7778	8.33333
24.4444	8.71212
26.2963	9.09091
28.1481	9.4697
29.8148	9.84848
31.4815	10.2273
33.3333	10.4167
35	10.7955
36.8519	10.9848
38.1481	11.1742
40	11.553
41.6667	11.7424
43.5185	11.9318
44.4444	12.1212
46.2963	12.3106
48.1481	12.5
50.5556	12.6894
52.4074	12.8788
54.2593	13.0682
56.6667	13.2576
58.5185	13.447
60.3704	13.447
62.5926	13.6364
64.4444	13.8258
