Adsorption isotherm of Hydrogen on IRMOF-1
DOI: 10.1021/Jp305524f
Adsorbate Hydrogen: InChIKey UFHFLCQGNIYNRP-UHFFFAOYSA-N
Temperature: 30 K
Tabular data in the source: 0
pressure (bar)	uptake (mmol/g)
0.185759	0.185759
0.371517	48.5714
0.557276	51.8367
1.11455	53.4694
2.04334	55.3061
3.52941	55.7143
5.387	55.102
6.13003	54.4898
