Adsorption isotherm of Hydrogen on IRMOF-1
DOI: 10.1021/Jp305524f
Adsorbate Hydrogen: InChIKey UFHFLCQGNIYNRP-UHFFFAOYSA-N
Temperature: 40 K
Tabular data in the source: 0
pressure (bar)	uptake (mmol/g)
0	27.6596
0.189274	32.766
0.378549	35.7447
0.946372	40.6383
1.5142	42.9787
2.46057	44.6809
3.97476	45.9574
5.67823	46.5957
7.3817	47.0213
9.27445	47.0213
10.2208	47.0213
12.1136	47.0213
14.0063	47.0213
14.5741	47.234
