Adsorption isotherm of Hydrogen on IRMOF-1
DOI: 10.1021/Jp305524f
Adsorbate Hydrogen: InChIKey UFHFLCQGNIYNRP-UHFFFAOYSA-N
Temperature: 200 K
Tabular data in the source: 0
pressure (bar)	uptake (mmol/g)
7.57098	0
9.84227	0.425532
11.735	0.425532
13.6278	0.638298
15.5205	0.851064
16.4669	0.638298
18.1703	1.06383
20.0631	1.2766
21.9558	1.48936
22.5237	1.70213
24.4164	1.70213
26.3091	1.91489
28.2019	2.12766
30.0946	2.34043
31.9874	2.55319
33.6909	2.76596
35.9621	2.97872
37.8549	3.19149
39.7476	3.40426
41.6404	3.40426
42.9653	3.61702
44.858	3.82979
46.7508	3.82979
48.6435	4.04255
50.1577	4.25532
52.0505	4.25532
53.9432	4.46809
55.836	4.46809
57.5394	4.68085
59.2429	4.89362
60.9464	4.89362
62.6498	4.89362
64.5426	5.10638
