Adsorption isotherm of Hydrogen on IRMOF-1
DOI: 10.1021/Jp305524f
Adsorbate Hydrogen: InChIKey UFHFLCQGNIYNRP-UHFFFAOYSA-N
Temperature: 77 K
Tabular data in the source: 0
pressure (bar)	uptake (mmol/g)
0.555556	2.81955
1.2963	5.07519
1.85185	6.76692
2.59259	8.45865
3.51852	10.1504
4.25926	11.8421
5.37037	13.3459
6.48148	14.8496
7.77778	16.1654
9.07407	17.4812
10.5556	18.609
12.037	19.7368
13.5185	20.6767
15.1852	21.6165
16.8519	22.3684
18.7037	22.9323
20.3704	23.4962
22.2222	24.0602
23.8889	24.6241
25.7407	25
27.4074	25.3759
29.2593	25.5639
30.9259	25.9398
32.7778	26.1278
34.6296	26.3158
36.4815	26.5038
38.1481	26.6917
40	26.6917
41.8519	26.8797
43.7037	26.8797
45.3704	27.0677
47.2222	27.0677
49.0741	27.0677
50.9259	27.0677
52.7778	27.0677
54.6296	27.0677
56.4815	27.0677
58.3333	27.0677
60.3704	27.0677
62.4074	26.8797
64.2593	26.8797
