Adsorption isotherm of Hydrogen on IRMOF-1
DOI: 10.1021/Jp305524f
Adsorbate Hydrogen: InChIKey UFHFLCQGNIYNRP-UHFFFAOYSA-N
Temperature: 100 K
Tabular data in the source: 0
pressure (bar)	uptake (mmol/g)
1.10419	1.86921
2.39287	3.92512
3.68363	5.41921
5.52718	7.66065
7.37351	9.15302
8.85084	10.272
10.3282	11.391
11.8062	12.3227
13.0997	13.0677
14.7637	13.8116
16.4269	14.7427
18.0908	15.4866
19.7547	16.2305
21.6045	16.7865
23.2691	17.3431
24.9337	17.8997
26.7842	18.2685
28.4488	18.8251
30.2993	19.1938
31.9646	19.5632
33.8151	19.9319
35.6662	20.1134
37.3315	20.4827
39.1827	20.6642
41.0339	20.8457
42.6999	21.0278
44.5504	21.3965
46.4016	21.578
48.2534	21.5722
50.1046	21.7537
51.7706	21.9358
53.6218	22.1173
55.4737	22.1115
57.3248	22.293
59.1767	22.2872
61.0279	22.4687
62.8798	22.4629
64.7316	22.4571
