Adsorption isotherm of Hydrogen on IRMOF-1
DOI: 10.1021/Jp305524f
Adsorbate Hydrogen: InChIKey UFHFLCQGNIYNRP-UHFFFAOYSA-N
Temperature: 50 K
Tabular data in the source: 0
pressure (bar)	uptake (mmol/g)
0.37037	23.3974
0.740741	26.4174
1.11111	30.0035
1.48148	32.2688
2.03704	34.7234
2.59259	36.9893
3.51852	38.6903
5.18519	40.5823
7.22222	41.7208
9.81481	42.4837
11.6667	42.6782
13.1481	42.6829
15	42.5
16.6667	42.1279
17.4074	41.9415
19.0741	41.7581
20.9259	41.1979
22.5926	41.0144
24.2593	40.265
25.9259	39.5155
27.4074	38.9541
29.0741	38.582
30	38.0189
