Adsorption isotherm of Hydrogen on IRMOF-1
DOI: 10.1021/Jp305524f
Adsorbate Hydrogen: InChIKey UFHFLCQGNIYNRP-UHFFFAOYSA-N
Temperature: 77 K
Tabular data in the source: 0
pressure (bar)	uptake (mmol/g)
0.847458	5.67029
1.41243	8.74183
1.9774	10.8685
2.54237	12.0502
3.10734	14.0588
3.67232	15.2406
5.08475	17.6044
6.21469	19.3774
7.9096	21.033
8.47458	21.7423
10.1695	23.2797
11.8644	24.3447
13.2768	25.0551
16.3842	26.476
17.7966	27.0683
19.209	27.5424
20.339	27.898
24.8588	28.7301
27.1186	29.2053
29.9435	29.5629
36.7232	30.1615
39.2655	30.1645
41.5254	30.2853
48.3051	30.2933
51.1299	30.2966
53.3898	30.2993
58.7571	30.0694
61.2994	29.9543
64.1243	29.8395
69.774	29.4919
72.3164	29.3768
75.1412	29.1439
81.0734	28.7965
83.8983	28.5637
86.4407	28.4486
89.2655	28.2157
92.3729	27.865
94.9153	27.7499
97.7401	27.6351
99.7175	27.4012
