Adsorption isotherm of Hydrogen on IRMOF-1
DOI: 10.1021/Jp305524f
Adsorbate Hydrogen: InChIKey UFHFLCQGNIYNRP-UHFFFAOYSA-N
Temperature: 77 K
Tabular data in the source: 0
pressure (bar)	uptake (mmol/g)
0.564972	4.48819
1.12994	6.14173
2.25989	8.97638
3.10734	10.6299
3.9548	12.0472
5.36723	13.4646
6.49718	14.5276
8.47458	16.1811
10.1695	17.126
12.1469	17.9528
13.8418	18.6614
16.1017	19.3701
19.4915	20.1969
21.7514	20.5512
25.4237	21.0236
28.2486	21.2598
31.6384	21.378
34.4633	21.4961
37.5706	21.6142
40.3955	21.6142
50	21.4961
52.5424	21.378
56.2147	21.2598
59.0395	21.1417
62.7119	20.9055
65.5367	20.7874
68.9266	20.5512
71.7514	20.4331
75.4237	20.1969
78.2486	20.0787
81.9209	19.8425
84.7458	19.7244
87.2881	19.4882
90.113	19.3701
91.5254	19.252
94.3503	19.1339
96.8927	18.8976
99.7175	18.7795
