Adsorption isotherm of Hydrogen on IRMOF-1
DOI: 10.1021/Jp305524f
Adsorbate Hydrogen: InChIKey UFHFLCQGNIYNRP-UHFFFAOYSA-N
Temperature: 30 K
Tabular data in the source: 0
pressure (bar)	uptake (mmol/g)
0.031298	41.8103
0.0436525	38.5776
0.0576543	34.9138
0.210026	45.0431
0.389578	48.0603
0.571601	50.431
1.33264	51.2931
1.90589	51.2931
3.24429	51.0776
4.20135	50.6466
4.77625	50.2155
