Adsorption isotherm of Hydrogen on IRMOF-1
DOI: 10.1021/Jp305524f
Adsorbate Hydrogen: InChIKey UFHFLCQGNIYNRP-UHFFFAOYSA-N
Temperature: 77 K
Tabular data in the source: 0
pressure (bar)	uptake (mmol/g)
1.08696	6.17507
1.3587	7.46149
2.17391	10.9347
2.71739	12.2208
3.26087	13.5068
3.80435	14.6642
4.34783	15.9503
4.8913	17.2364
5.97826	18.9077
7.06522	20.0644
7.88043	21.3502
9.23913	22.3778
10.8696	23.7912
12.5	24.6898
14.1304	25.5884
16.3043	26.3577
18.2065	27.256
20.6522	27.8962
22.8261	28.2795
25.2717	28.5337
27.7174	29.1739
30.163	29.4281
32.8804	29.5533
35.3261	29.6788
38.0435	29.804
40.7609	29.9292
43.2065	30.0547
45.9239	29.7938
48.6413	29.7904
51.3587	29.6582
53.8043	29.7837
55.9783	29.3949
58.6957	29.2627
61.413	29.1305
63.8587	28.7414
65.7609	28.9963
67.9348	28.4788
70.3804	28.4756
73.0978	28.2148
75.8152	27.9539
79.8913	27.5626
82.6087	27.3018
85.0543	27.17
87.7717	26.9091
90.7609	26.6479
93.2065	26.3874
95.9239	26.1266
98.6413	25.8657
