Adsorption isotherm of Hydrogen on IRMOF-1
DOI: 10.1021/Jp305524f
Adsorbate Hydrogen: InChIKey UFHFLCQGNIYNRP-UHFFFAOYSA-N
Temperature: 40 K
Tabular data in the source: 0
pressure (bar)	uptake (mmol/g)
0.185185	0.185185
0.37037	36.2782
0.555556	41.3534
0.925926	43.2331
1.48148	44.9248
2.59259	46.2406
3.7037	47.1805
5.37037	47.3684
6.11111	47.3684
7.77778	47.1805
8.88889	46.9925
10	46.9925
11.1111	46.4286
12.5926	45.8647
15	44.7368
