Adsorption isotherm of Hydrogen on IRMOF-1
DOI: 10.1021/Jp305524f
Adsorbate Hydrogen: InChIKey UFHFLCQGNIYNRP-UHFFFAOYSA-N
Temperature: 200 K
Tabular data in the source: 0
pressure (bar)	uptake (mmol/g)
3.80435	0.263216
8.42391	0.914939
11.1413	1.0476
15.4891	1.56982
18.2065	1.83163
20.6522	2.09309
24.7283	2.35666
27.4457	2.61847
29.6196	2.75043
32.337	3.01224
34.7826	3.14455
37.5	3.40637
44.0217	3.93139
46.7391	4.06405
49.4565	4.19672
51.9022	4.32902
58.1522	4.72455
60.8696	4.85721
63.3152	4.98952
66.0326	5.25133
72.5543	5.51806
75.2717	5.65072
77.9891	5.78338
80.4348	5.91569
86.9565	6.18242
89.6739	6.31508
92.3913	6.44774
94.837	6.4509
97.5543	6.58356
99.7283	6.71552
