Adsorption isotherm of Hydrogen on IRMOF-1
DOI: 10.1021/Jp305524f
Adsorbate Hydrogen: InChIKey UFHFLCQGNIYNRP-UHFFFAOYSA-N
Temperature: 100 K
Tabular data in the source: 0
pressure (bar)	uptake (mmol/g)
1.11111	1.81825
2.40741	4.04035
3.7037	5.45599
4.81481	6.6694
5.55556	7.67996
7.22222	8.89524
8.7037	10.1099
9.81481	10.9201
11.4815	11.9337
13.1481	12.9474
14.8148	13.7595
16.4815	14.5715
17.7778	15.1807
19.6296	15.7918
21.2963	16.4022
22.963	17.0126
24.8148	17.4221
26.4815	17.8309
28.3333	18.442
30	18.8508
31.8519	19.0586
33.5185	19.4675
35.3704	19.6753
37.2222	20.0848
39.0741	20.2926
40.7407	20.4998
42.5926	20.7076
44.4444	20.9155
46.2963	21.1233
47.963	21.3305
49.8148	21.3367
51.6667	21.5446
53.5185	21.5508
55.3704	21.7586
57.2222	21.7649
59.0741	21.9727
60.9259	21.9789
62.7778	21.9851
64.6296	21.9914
