Adsorption isotherm of Hydrogen on IRMOF-1
DOI: 10.1021/Jp305524f
Adsorbate Hydrogen: InChIKey UFHFLCQGNIYNRP-UHFFFAOYSA-N
Temperature: 100 K
Tabular data in the source: 0
pressure (bar)	uptake (mmol/g)
0.925926	1.32576
2.22222	3.0303
3.7037	4.54545
4.44444	5.49242
5.37037	6.43939
6.11111	7.19697
7.40741	8.14394
8.88889	9.2803
10	10.2273
11.4815	11.1742
13.1481	12.1212
13.5185	12.3106
15.1852	13.0682
16.8519	13.8258
18.1481	14.3939
19.8148	15.1515
21.6667	15.7197
22.7778	16.0985
24.6296	16.4773
26.2963	17.0455
28.3333	17.6136
30.1852	17.9924
31.8519	18.3712
33.7037	18.5606
34.8148	18.75
36.6667	19.1288
38.3333	19.3182
40.1852	19.5076
42.037	19.697
43.8889	19.8864
45.5556	20.0758
47.4074	20.2652
49.2593	20.4545
51.1111	20.4545
52.963	20.6439
54.8148	20.6439
56.6667	20.8333
58.5185	20.8333
60.3704	20.8333
60.9259	20.8333
62.7778	21.0227
64.6296	21.0227
65.1852	21.0227
