Adsorption isotherm of Hydrogen on IRMOF-1
DOI: 10.1021/Jp305524f
Adsorbate Hydrogen: InChIKey UFHFLCQGNIYNRP-UHFFFAOYSA-N
Temperature: 100 K
Tabular data in the source: 0
pressure (bar)	uptake (mmol/g)
1.10829	1.68539
2.40095	3.74532
4.06582	5.61798
5.36126	6.92884
6.65739	8.05243
7.21258	8.61423
8.69447	9.73783
9.25036	10.1124
10.9187	11.0487
12.4013	11.985
13.3287	12.3596
14.9977	13.1086
16.6668	13.8577
18.1508	14.4195
20.0063	14.9813
21.676	15.5431
23.3457	16.1049
25.2019	16.4794
26.8724	16.8539
28.5428	17.2285
30.399	17.603
32.0701	17.7903
33.9263	18.1648
35.5975	18.3521
37.4543	18.5393
39.1255	18.7266
40.7966	18.9139
42.6535	19.1011
44.5104	19.2884
46.1815	19.4757
47.6676	19.4757
49.5245	19.6629
51.3821	19.6629
53.0532	19.8502
54.725	19.8502
56.5819	20.0375
58.811	20.0375
60.4828	20.0375
61.4109	20.2247
63.2685	20.2247
65.1261	20.2247
