Adsorption isotherm of Hydrogen on IRMOF-1
DOI: 10.1021/Jp305524f
Adsorbate Hydrogen: InChIKey UFHFLCQGNIYNRP-UHFFFAOYSA-N
Temperature: 77 K
Tabular data in the source: 0
pressure (bar)	uptake (mmol/g)
0.557276	2.5
0.928793	5.19231
2.2291	10.3846
3.15789	13.0769
4.27245	15.7692
5.75851	17.8846
6.87307	19.2308
7.80186	20.3846
9.10217	21.5385
10.774	22.6923
12.4458	23.6538
14.3034	24.6154
15.9752	25.3846
18.0186	25.9615
19.3189	26.3462
21.1765	26.7308
22.8483	27.1154
24.8916	27.5
26.7492	27.6923
28.6068	27.8846
29.9071	28.0769
31.7647	28.2692
33.6223	28.4615
35.4799	28.4615
36.9659	28.4615
38.8235	28.6538
40.6811	28.6538
43.6533	28.6538
45.5108	28.6538
47.3684	28.6538
49.969	28.4615
51.8266	28.4615
53.6842	28.4615
55.1703	28.2692
57.0279	28.2692
62.0433	28.0769
63.9009	27.8846
65.2012	27.6923
