Adsorption isotherm of Hydrogen on IRMOF-1
DOI: 10.1021/Jp305524f
Adsorbate Hydrogen: InChIKey UFHFLCQGNIYNRP-UHFFFAOYSA-N
Temperature: 300 K
Tabular data in the source: 0
pressure (bar)	uptake (wt%)
0.31746	0.252101
0.952381	0.756303
2.53968	1.81513
4.12698	2.31933
5.71429	2.69748
8.25397	3.10084
11.746	3.5042
17.4603	3.93277
18.7302	3.90756
26.6667	4.15966
30.4762	4.13445
39.3651	4.21008
42.2222	4.21008
52.0635	4.13445
54.6032	4.08403
64.7619	3.98319
66.6667	3.93277
78.0952	3.80672
79.3651	3.80672
92.0635	3.60504
99.6825	3.47899
