Adsorption isotherm of Hydrogen on IRMOF-1
DOI: 10.1021/Jp305524f
Adsorbate Hydrogen: InChIKey UFHFLCQGNIYNRP-UHFFFAOYSA-N
Temperature: 60 K
Tabular data in the source: 0
pressure (bar)	uptake (mmol/g)
0.52383	12.931
1.0839	16.3793
1.2651	18.9655
1.63573	21.9828
2.39018	24.569
3.14463	27.1552
3.90072	29.3103
5.04146	30.819
6.37245	32.5431
6.94322	33.1897
8.46694	34.4828
9.22963	34.9138
10.9461	35.7759
12.4723	36.4224
14.3815	36.8534
16.1004	37.069
16.8639	37.2845
18.7747	37.2845
20.4936	37.5
22.2142	37.2845
24.125	37.2845
26.0367	37.069
27.7572	36.8534
29.6689	36.6379
31.3903	36.2069
33.3028	35.7759
35.0233	35.5603
36.9358	35.1293
38.6572	34.6983
39.8045	34.4828
41.717	34.0517
43.4384	33.6207
45.3509	33.1897
47.0723	32.7586
48.9847	32.3276
50.707	31.681
52.6194	31.25
54.3408	30.819
