Adsorption isotherm of Hydrogen on IRMOF-1
DOI: 10.1021/Jp305524f
Adsorbate Hydrogen: InChIKey UFHFLCQGNIYNRP-UHFFFAOYSA-N
Temperature: 77 K
Tabular data in the source: 0
pressure (bar)	uptake (mmol/g)
0.557276	3.87755
0.928793	6.12245
1.48607	8.57143
2.04334	10.8163
2.97214	13.4694
3.71517	15.3061
4.64396	17.1429
5.75851	18.9796
6.87307	20.4082
8.17337	21.8367
9.47368	23.2653
10.9598	24.4898
12.6316	25.3061
14.3034	26.3265
15.9752	26.9388
17.8328	27.551
19.5046	27.9592
21.3622	28.3673
23.2198	28.5714
24.8916	28.7755
26.7492	28.7755
28.6068	28.7755
30.4644	28.7755
32.322	28.7755
34.1796	28.7755
36.0372	28.7755
37.709	28.3673
39.5666	28.1633
41.4241	27.9592
42.9102	27.7551
43.6533	27.7551
45.5108	27.551
47.1827	27.1429
49.0402	26.9388
50.8978	26.5306
52.5697	26.3265
54.4272	25.9184
56.2848	25.7143
58.3282	25.3061
60.9288	24.898
62.9721	24.2857
65.0155	23.8776
