Adsorption isotherm of Hydrogen on IRMOF-1
DOI: 10.1021/Jp305524f
Adsorbate Hydrogen: InChIKey UFHFLCQGNIYNRP-UHFFFAOYSA-N
Temperature: 118 K
Tabular data in the source: 0
pressure (bar)	uptake (mmol/g)
2.84959	1.83042
5.69917	3.66085
7.5989	4.88113
11.4039	6.71301
13.6235	7.7816
16.1629	8.69851
18.7023	9.61542
22.5128	10.8386
25.3735	11.4517
28.2328	12.2169
31.0934	12.8299
33.9555	13.2908
36.8162	13.9039
39.9967	14.3652
42.8587	14.8261
45.7222	15.1348
48.9041	15.444
51.7675	15.7527
54.9494	16.0619
57.8142	16.2184
60.9961	16.5276
63.8609	16.6841
67.0442	16.8412
70.2261	17.1503
73.4108	17.1552
76.5941	17.3122
79.7774	17.4692
82.3251	17.4731
85.5084	17.6301
88.693	17.635
91.8763	17.792
95.061	17.7968
98.2457	17.8017
99.5195	17.8036
