Adsorption isotherm of Hydrogen on IRMOF-1
DOI: 10.1021/Jp305524f
Adsorbate Hydrogen: InChIKey UFHFLCQGNIYNRP-UHFFFAOYSA-N
Temperature: 103 K
Tabular data in the source: 0
pressure (bar)	uptake (mmol/g)
1.57018	2.43717
2.83297	3.65648
4.09438	5.02797
5.67425	6.39994
6.93566	7.77142
9.14692	9.75305
10.4166	10.2115
12.3164	11.4318
14.5359	12.5004
16.7555	13.569
19.9291	14.7912
22.4685	15.7081
25.0093	16.4728
27.8686	17.2381
30.7293	17.8511
33.5913	18.312
36.7705	18.9255
39.6339	19.2342
42.4959	19.6951
45.6778	20.0043
48.5413	20.313
51.7246	20.47
53.3155	20.6246
56.4988	20.7816
59.3636	20.9382
62.5469	21.0952
64.4563	21.2503
67.641	21.2551
70.8243	21.4121
74.0089	21.417
77.1936	21.4218
80.3783	21.4267
83.5616	21.5837
86.4292	21.4359
89.6138	21.4407
92.7985	21.4456
95.9832	21.4504
99.1678	21.4553
