Adsorption isotherm of Hydrogen on IRMOF-1
DOI: 10.1021/Jp305524f
Adsorbate Hydrogen: InChIKey UFHFLCQGNIYNRP-UHFFFAOYSA-N
Temperature: 30 K
Tabular data in the source: 0
pressure (bar)	uptake (mmol/g)
0.185185	41.6987
0.37037	49.0578
0.740741	49.8137
1.85185	51.1379
3.7037	51.1437
5.18519	50.205
6.11111	49.4532
