Adsorption isotherm of Hydrogen on [Zn22(btc)12-(H2O)22(NO3)8) xguest-a
DOI: 10.1039/c4ce02154a
Article source: Figure 3
Adsorbate Hydrogen: InChIKey UFHFLCQGNIYNRP-UHFFFAOYSA-N
Kind: experiment
Temperature: 77 K
Tabular data in the source: 0
pressure (bar)	uptake (cm3(STP)/g)
0	0
0.027215	0.382426
0.069085	0.578902
0.098394	1.1504
0.121423	1.15469
0.136077	0.968735
0.18632	1.16677
0.21563	1.17223
0.267967	1.55933
0.343333	1.95073
0.429166	2.53275
0.473129	2.35225
0.540121	2.55341
0.607113	2.94324
0.674104	3.14439
0.739003	3.34516
0.805995	3.73499
0.875079	4.12521
0.973474	4.33222
1.01953	4.90683
