Adsorption isotherm of Hydrogen on [Zn22(btc)12-(H2O)22(NO3)8) xguest-c
DOI: 10.1039/c4ce02154a
Article source: Figure 3
Adsorbate Hydrogen: InChIKey UFHFLCQGNIYNRP-UHFFFAOYSA-N
Kind: experiment
Temperature: 77 K
Tabular data in the source: 0
pressure (bar)	uptake (cm3(STP)/g)
0	-0.188679
0.002098	15.6604
0.004196	7.54717
0.006293	21.5094
0.014685	28.6792
0.023076	34.5283
0.02937	37.9245
0.037761	41.1321
0.041957	43.7736
0.056641	47.9245
0.06713	50.7547
0.083913	53.0189
0.092304	55.0943
0.109086	56.4151
0.121674	57.7358
0.134261	58.8679
0.159435	60.7547
0.186707	62.2642
0.213978	63.5849
0.24125	64.3396
0.266424	65.0943
0.335652	66.9811
0.404881	68.1132
0.467815	68.8679
0.537044	69.6226
0.604174	70
0.671304	70.566
0.738434	71.1321
0.803468	71.3208
0.870598	71.5094
0.93563	72.0755
1.01954	72.6415
