Adsorption isotherm of Carbon Dioxide on [Zn22(btc)12-(H2O)22(NO3)8) xguest-c
DOI: 10.1039/c4ce02154a
Article source: Figure 4
Adsorbate Carbon Dioxide: InChIKey CURLTUGMZLYLDI-UHFFFAOYSA-N
Kind: experiment
Temperature: 273 K
Tabular data in the source: 0
pressure (bar)	uptake (cm3(STP)/g)
0.004523	3.81503
0.009047	5.89595
0.011309	7.80347
0.018094	9.53757
0.024879	11.0983
0.029402	12.3121
0.031664	13.8728
0.038449	16.1272
0.045234	18.0347
0.049758	19.5954
0.058805	21.3295
0.061066	22.7168
0.070113	23.9306
0.083684	26.7052
0.097254	28.4393
0.108563	30.3468
0.137965	32.948
0.160582	35.3757
0.189984	37.2832
0.214864	38.8439
0.242004	40.4046
0.271406	41.6185
0.323425	43.8728
0.375446	45.4335
0.427465	46.9942
0.484008	48.2081
0.536027	49.5954
0.601617	51.1561
0.669468	52.3699
0.735058	53.5838
0.80291	54.9711
0.8685	56.185
0.936351	57.2254
1.01777	58.4393
