Adsorption isotherm of Nitrogen on [Zn22(btc)12-(H2O)22(NO3)8) xguest-c
DOI: 10.1039/c4ce02154a
Article source: Figure 2
Adsorbate Nitrogen: InChIKey IJGRMHOSHXDMSA-UHFFFAOYSA-N
Kind: experiment
Temperature: 77 K
Tabular data in the source: 0
pressure (bar)	uptake (cm3(STP)/g)
0.000149	5.62811
0.000717	27.1355
0.000908	34.3717
0.001274	48.241
0.001466	55.4771
0.001646	62.3112
0.002464	13.2659
0.00265	20.301
0.003202	41.2054
0.00394	69.145
0.010361	72.1588
0.035776	74.164
0.056986	76.9741
0.071733	75.1622
0.086533	75.3604
0.10351	77.9703
0.109787	75.557
0.128814	75.7544
0.152079	76.353
0.1627	78.361
0.173225	76.751
0.196474	76.7465
0.211322	78.7538
0.215496	76.7429
0.270468	77.5365
0.270512	79.1445
0.31909	77.9293
0.325463	79.1341
0.371966	79.3262
0.376156	77.9184
0.424799	79.1152
0.426886	78.1098
0.475498	78.1005
0.477659	79.9091
0.53046	78.4921
0.534724	79.8983
0.585412	78.4816
0.585449	79.8886
0.631915	78.6738
0.642514	79.8778
0.691089	78.4615
0.697456	79.4653
0.741845	79.6579
0.743932	78.6525
0.792538	78.4422
0.79257	79.6482
0.84749	78.4318
0.849641	79.8384
0.866523	78.8302
0.902448	78.6223
0.902495	80.4314
0.92995	79.6221
0.955306	79.4163
0.955344	80.8233
0.982804	80.2151
1.00818	80.8133
1.01457	82.4201
1.02088	81.4139
1.03996	83.4203
