Adsorption isotherm of Methane on [Zn22(btc)12-(H2O)22(NO3)8) xguest-c
DOI: 10.1039/c4ce02154a
Article source: Figure 4
Adsorbate Methane: InChIKey VNWKTOKETHGBQD-UHFFFAOYSA-N
Kind: experiment
Temperature: 298 K
Tabular data in the source: 0
pressure (bar)	uptake (cm3(STP)/g)
0	0.17341
0.01354	0.867052
0.04062	0.867052
0.058674	0.867052
0.083497	1.04046
0.10832	1.38728
0.135401	1.7341
0.162481	2.08092
0.205358	2.60116
0.243722	3.12139
0.279828	3.2948
0.322706	3.64162
0.358812	4.16185
0.40169	4.33526
0.467133	5.0289
0.534834	5.54913
0.604791	6.24277
0.667978	6.5896
0.733422	7.10983
0.801122	7.28324
0.866566	7.80347
0.934266	8.15029
1.01551	8.84393
