Adsorption isotherm of Nitrogen on [Zn22(btc)12-(H2O)22(NO3)8) xguest-a
DOI: 10.1039/c4ce02154a
Article source: Figure 2
Adsorbate Nitrogen: InChIKey IJGRMHOSHXDMSA-UHFFFAOYSA-N
Kind: experiment
Temperature: 77 K
Tabular data in the source: 0
pressure (bar)	uptake (cm3(STP)/g)
0	0.201005
0.019022	1.00503
0.038044	1.00503
0.071861	1.00503
0.084542	1.20603
0.099337	1.20603
0.10145	3.61809
0.126813	1.60804
0.150062	3.8191
0.156402	1.60804
0.162743	3.8191
0.173311	1.80905
0.19656	1.80905
0.209241	4.0201
0.219809	2.21106
0.264193	4.0201
0.274761	2.21106
0.314918	2.41206
0.321259	4.0201
0.371984	2.61307
0.378325	4.0201
0.422709	4.0201
0.42905	2.61307
0.473434	2.61307
0.477661	3.8191
0.5305	2.81407
0.534727	4.0201
0.574884	4.0201
0.585452	3.01508
0.63195	3.8191
0.644631	2.81407
0.684789	2.81407
0.739741	3.01508
0.743968	3.8191
0.796806	3.41709
0.853872	3.61809
0.891916	3.01508
0.904597	3.8191
0.923619	3.21608
0.951095	3.01508
0.957436	4.42211
0.980685	3.61809
1.00605	3.8191
1.01027	5.02513
1.02296	4.62312
1.03986	5.42714
