Adsorption isotherm of Carbon Dioxide on [Zn22(btc)12-(H2O)22(NO3)8) xguest-c
DOI: 10.1039/c4ce02154a
Article source: Figure 4
Adsorbate Carbon Dioxide: InChIKey CURLTUGMZLYLDI-UHFFFAOYSA-N
Kind: experiment
Temperature: 298 K
Tabular data in the source: 0
pressure (bar)	uptake (cm3(STP)/g)
0.009027	0.693642
0.011283	2.25434
0.018053	3.64162
0.02708	5.20231
0.036107	7.10983
0.051904	9.71098
0.065444	12.8324
0.081241	14.5665
0.092524	16.1272
0.10832	17.8613
0.135401	20.6358
0.162481	23.0636
0.187304	24.9711
0.214384	26.7052
0.241465	28.4393
0.268545	30
0.320448	32.6012
0.374609	34.6821
0.426512	36.5896
0.480674	38.4971
0.534834	39.8844
0.600278	41.6185
0.667978	43.1792
0.733422	44.5665
0.798866	45.4335
0.866566	46.6474
0.934266	48.0347
1.01551	49.0751
