Adsorption isotherm of Hydrogen on [Zn22(btc)12-(H2O)22(NO3)8) xguest-b
DOI: 10.1039/c4ce02154a
Article source: Figure 3
Adsorbate Hydrogen: InChIKey UFHFLCQGNIYNRP-UHFFFAOYSA-N
Kind: experiment
Temperature: 77 K
Tabular data in the source: 0
pressure (bar)	uptake (cm3(STP)/g)
0.004198	0.375564
0.008447	2.44467
0.014784	4.32521
0.029534	7.5214
0.038003	10.7187
0.054819	12.9737
0.103155	19.1744
0.134664	22.7438
0.201762	26.3066
0.275169	30.8091
0.3318	34.3739
0.413513	36.6168
0.4806	39.8032
0.532993	41.6752
0.602162	44.4849
0.673392	46.1653
0.732065	48.0361
0.801195	49.5286
0.874512	51.0204
0.941548	52.5133
1.01485	53.6287
