Adsorption isotherm of Nitrogen on [Zn22(btc)12-(H2O)22(NO3)8) xguest-b
DOI: 10.1039/c4ce02154a
Article source: Figure 2
Adsorbate Nitrogen: InChIKey IJGRMHOSHXDMSA-UHFFFAOYSA-N
Kind: experiment
Temperature: 77 K
Tabular data in the source: 0
pressure (bar)	uptake (cm3(STP)/g)
0.021539	15.2723
0.036397	17.6815
0.051325	22.7038
0.072322	17.4737
0.085025	18.2753
0.091482	22.6962
0.104036	17.8697
0.118852	18.6709
0.135866	22.6877
0.139987	18.6668
0.161128	18.8638
0.190722	19.0592
0.190824	22.8783
0.213971	19.0548
0.245776	22.8678
0.264707	19.4471
0.300727	22.8574
0.317556	19.8391
0.349333	22.6471
0.370395	19.829
0.402166	22.4361
0.427464	20.0192
0.457119	22.4256
0.499325	20.0055
0.507837	22.215
0.550055	20.1969
0.5628	22.6065
0.585991	20.3911
0.615633	22.3955
0.63883	20.381
0.668472	22.3854
0.708575	20.3677
0.723423	22.375
0.761414	20.3577
0.772035	22.3657
0.793123	20.5527
0.829106	22.5559
0.867112	21.1416
0.879831	22.5462
0.926301	21.5324
0.934798	23.1388
0.955912	22.3307
0.979177	22.9293
0.987668	24.3348
1.00458	24.3315
1.02362	25.1319
1.03848	27.7422
