Adsorption isotherm of Nitrogen on [(CH3)2NH2]@[Eu2L3(HCOO)]
DOI: 10.1039/C4dt01434k
Adsorbate Nitrogen: InChIKey IJGRMHOSHXDMSA-UHFFFAOYSA-N
Temperature: 77 K
Tabular data in the source: 0
pressure (bar)	uptake (cm3(STP)/g)
0.0962781	-0.424256
0.136462	-0.199236
0.176691	0.309402
0.198098	0.278149
0.211476	0.258616
0.232929	0.510982
0.251706	0.767255
0.265085	0.747722
0.291889	0.992275
0.305268	0.972742
0.326674	0.941489
0.345404	0.914143
0.364181	1.17042
0.39629	1.12354
0.420371	1.08838
0.431122	1.35637
0.463229	1.30949
0.471305	1.58139
0.500737	1.53842
0.516791	1.51498
0.530218	1.77906
0.548948	1.75172
0.56505	2.0119
0.586408	1.69702
0.597157	1.96502
0.631989	2.19785
0.666774	2.14706
0.701653	2.66352
0.725782	2.91197
0.731133	2.90416
0.763242	2.85728
0.771268	2.84556
0.798026	2.8065
0.816804	3.06277
0.838257	3.31514
0.851682	3.57922
0.883743	3.24872
0.91867	4.04879
0.961624	4.83714
