Adsorption isotherm of Nitrogen on [(CH3)2NH2]@[Eu2L3(HCOO)]-pyr
DOI: 10.1039/C4dt01434k
Adsorbate Nitrogen: InChIKey IJGRMHOSHXDMSA-UHFFFAOYSA-N
Temperature: 77 K
Tabular data in the source: 0
pressure (bar)	uptake (cm3(STP)/g)
0.000616741	3.68704
0.00132837	7.94132
0.00140427	24.3951
0.00203999	12.1956
0.00270418	16.1663
0.00336836	20.1369
0.00469673	28.0782
0.00588277	35.1687
0.00879569	36.5829
0.0108072	32.6083
0.0438171	37.9502
0.0680883	39.0495
0.0976164	39.5738
0.127096	39.8144
0.159253	40.0512
0.183429	40.5833
0.210281	41.1114
0.237085	41.356
0.263937	41.8841
0.293418	42.1248
0.320269	42.653
0.347074	42.8975
0.373925	43.4257
0.400777	43.9539
0.424954	44.4859
0.451806	45.0141
0.481381	45.822
0.513632	46.626
0.535133	47.162
0.564708	47.9698
0.591607	48.7816
0.618507	49.5934
0.648129	50.6849
0.672353	51.5006
0.699252	52.3124
0.728875	53.4039
0.75845	54.2118
0.782722	55.3111
0.812343	56.4026
0.833892	57.2222
0.866237	58.5934
0.89328	60.2561
0.917741	62.4899
0.947742	65.8503
