Adsorption isotherm of Carbon Dioxide on 1-pyr
DOI: 10.1039/C4dt01434k
Adsorbate Carbon Dioxide: InChIKey CURLTUGMZLYLDI-UHFFFAOYSA-N
Temperature: 298 K
Tabular data in the source: 0
pressure (bar)	uptake (cm3(STP)/g)
1.94607	1.17929
2.50209	1.51623
3.05811	1.85317
3.89407	2.41554
5.28219	3.20092
5.97624	3.59362
7.0805	4.03964
8.33252	4.82624
10.1251	5.49407
11.3751	6.2237
13.1676	6.89153
14.2739	7.39453
15.9225	7.83571
17.3029	8.39325
18.6833	8.95078
20.192	9.27926
21.7084	9.83558
23.221	10.278
24.7336	10.7204
26.2423	11.0489
27.6207	11.5494
29.3977	11.7616
30.7761	12.2621
32.4209	12.5894
33.9276	12.8609
35.3022	13.2475
36.807	13.4621
39.1439	14.1251
39.6961	14.3481
41.197	14.4487
43.8042	15.0523
45.1652	15.0402
47.2183	15.3639
48.725	15.6354
50.0918	15.7942
51.4644	16.1239
52.8331	16.3396
54.4662	16.3251
56.5329	17.0475
57.4779	16.8112
59.8109	17.3602
60.4914	17.3542
62.6864	17.8475
63.2307	17.8427
65.2918	18.3942
