Adsorption isotherm of Hydrogen on [(CH3)2NH2]@[Eu2L3(HCOO)]
DOI: 10.1039/C4dt01434k
Adsorbate Hydrogen: InChIKey UFHFLCQGNIYNRP-UHFFFAOYSA-N
Temperature: 77 K
Tabular data in the source: 0
pressure (bar)	uptake (cm3(STP)/g)
0.068427	0.193524
0.104515	-0.037489
0.155677	0.0531938
0.203697	0.0359691
0.2693	0.230506
0.331127	0.0992951
0.401745	0.0739647
0.46703	0.159581
0.551455	0.0202643
0.622391	0.103855
0.687042	-0.02837
0.757344	-0.162621
0.825454	-0.0780176
0.951933	-0.341454
1.08469	-0.389075
1.1299	-0.405286
