Adsorption isotherm of Hydrogen on [(CH3)2NH2]@[Eu2L3(HCOO)]-pyr
DOI: 10.1039/C4dt01434k
Adsorbate Hydrogen: InChIKey UFHFLCQGNIYNRP-UHFFFAOYSA-N
Temperature: 77 K
Tabular data in the source: 0
pressure (bar)	uptake (cm3(STP)/g)
0.0284584	7.84026
0.0593721	13.608
0.0864842	18.0687
0.129251	21.1063
0.181099	23.3774
0.225397	24.997
0.275028	26.5057
0.349765	27.8963
0.415393	29.0722
0.483213	30.0292
0.553224	30.7673
0.622919	31.3965
0.695437	32.0247
0.759165	32.547
0.827909	32.8495
0.891321	33.2628
0.966031	33.6722
1.03227	34.0846
1.09504	34.2801
1.23473	34.6661
