Adsorption isotherm of Hydrogen on [(CH3)2NH2]@[Eu2L3(HCOO)]
DOI: 10.1039/C4dt01434k
Adsorbate Hydrogen: InChIKey UFHFLCQGNIYNRP-UHFFFAOYSA-N
Temperature: 77 K
Tabular data in the source: 0
pressure (bar)	uptake (cm3(STP)/g)
0.248286	0.783215
0.295672	0.548149
0.337726	0.424031
0.389206	0.623634
0.431259	0.499515
0.476454	0.483304
0.521333	0.358172
0.569671	0.449868
0.614233	0.215815
0.659112	0.0906828
0.704624	0.183392
0.746045	-0.158568
0.797524	0.0410352
0.834561	0.136784
0.881949	-0.0982819
0.932477	-0.22544
0.974848	-0.240639
1.02319	-0.148943
