Adsorption isotherm of Nitrogen on 1-pyr
DOI: 10.1039/C4dt01434k
Adsorbate Nitrogen: InChIKey IJGRMHOSHXDMSA-UHFFFAOYSA-N
Temperature: 298 K
Tabular data in the source: 0
pressure (bar)	uptake (cm3(STP)/g)
0.224358	-0.00109842
0.367555	0.0395431
0.45095	0.11094
0.529926	0.013181
0.56837	-0.00659051
0.677443	0.108743
0.739382	0.0768893
0.850493	0.0768893
1.01937	0.161467
