Adsorption isotherm of Nitrogen on 1-pyr
DOI: 10.1039/C4dt01434k
Adsorbate Nitrogen: InChIKey IJGRMHOSHXDMSA-UHFFFAOYSA-N
Temperature: 298 K
Tabular data in the source: 0
pressure (bar)	uptake (cm3(STP)/g)
0.0385423	0.094464
0.0769381	0.0175747
0.106742	-0.112039
0.141012	-0.0153779
0.166691	0.0285589
0.200815	-0.0461336
0.252172	0.0417399
0.309791	-0.0450351
0.337605	-0.00219684
0.425271	0.0670035
0.512839	0.0219684
0.600554	0.148286
0.626135	0.0779877
0.705258	0.151582
0.788554	0.108743
0.876172	0.120826
0.903986	0.163664
0.989516	0.233963
