Adsorption isotherm of Hydrogen on 1-pyr
DOI: 10.1039/C4dt01434k
Adsorbate Hydrogen: InChIKey UFHFLCQGNIYNRP-UHFFFAOYSA-N
Temperature: 298 K
Tabular data in the source: 0
pressure (bar)	uptake (cm3(STP)/g)
0.0426674	-0.0790861
0.0640256	-0.0900703
0.185865	-0.0384446
0.267074	-0.0230668
0.297025	0.0186731
0.35474	0.0461336
0.397457	0.0241652
0.480851	0.0955624
0.576914	-0.0109842
0.647542	0.124121
0.728703	0.0823814
0.814233	0.15268
0.880443	0.118629
0.980875	0.124121
