Adsorption isotherm of Hydrogen on [(CH3)2NH2]@[Eu2L3(HCOO)]
DOI: 10.1039/C4dt01434k
Adsorbate Hydrogen: InChIKey UFHFLCQGNIYNRP-UHFFFAOYSA-N
Temperature: 77 K
Tabular data in the source: 0
pressure (bar)	uptake (cm3(STP)/g)
0.349791	28.8776
0.397204	29.6239
0.444301	30.2612
0.493589	30.6797
0.546017	31.206
0.584006	31.6285
0.633293	32.047
0.681948	32.2476
0.730918	32.5571
0.773606	32.6509
0.820385	33.1793
0.869039	33.3799
0.912044	33.5825
0.954732	33.6762
1.0037	33.9858
1.05486	34.0765
1.07777	34.1773
1.12079	34.3799
1.16379	34.5826
