Adsorption isotherm of Nitrogen on [(CH3)2NH2]@[Eu2L3(HCOO)]-pyr
DOI: 10.1039/C4dt01434k
Adsorbate Nitrogen: InChIKey IJGRMHOSHXDMSA-UHFFFAOYSA-N
Temperature: 77 K
Tabular data in the source: 0
pressure (bar)	uptake (cm3(STP)/g)
0.103394	42.1185
0.143577	42.3436
0.183855	43.1358
0.20268	43.6757
0.216059	43.6562
0.234836	43.9125
0.256289	44.1648
0.269715	44.4289
0.293892	44.961
0.30727	44.9414
0.334075	45.186
0.339473	45.4618
0.355528	45.4384
0.371725	46.2658
0.387874	46.8096
0.412002	47.058
0.438902	47.8698
0.447024	48.4253
0.474208	50.9389
0.485053	51.7741
0.509229	52.3062
0.528149	53.4133
0.541622	53.961
0.5604	54.2173
0.573826	54.4814
0.598049	55.297
0.611523	55.8448
0.624949	56.1088
0.643726	56.3651
0.67593	56.8855
0.692126	57.7129
0.710952	58.2528
0.743202	59.0568
0.75123	59.045
0.778129	59.8568
0.788831	59.8412
0.813103	60.9405
0.829252	61.4843
0.845354	61.7445
0.86155	62.5719
0.874976	62.836
0.888497	63.6673
0.896762	65.0737
0.937562	68.9858
0.975872	74.0362
