Adsorption isotherm of Carbon Dioxide on 1-pyr
DOI: 10.1039/C4dt01434k
Adsorbate Carbon Dioxide: InChIKey CURLTUGMZLYLDI-UHFFFAOYSA-N
Temperature: 298 K
Tabular data in the source: 0
pressure (bar)	uptake (cm3(STP)/g)
7.32884	6.22693
8.73899	6.95848
9.16238	7.18366
11.8302	8.36226
12.2535	8.58743
14.6318	9.48264
15.3353	9.81986
17.7042	10.5437
18.4077	10.8809
20.7703	11.4906
23.4193	12.3264
26.4729	13.0448
29.3927	13.8214
32.4369	14.3684
33.959	14.6419
36.8725	15.3043
38.6654	15.5185
41.5602	15.8381
44.3274	16.3302
46.1171	16.4873
49.0118	16.8069
51.6295	17.0716
53.5657	17.3989
55.7725	17.667
57.5591	17.7669
59.2057	17.8109
60.7184	17.913
62.7789	18.0108
65.5208	18.0459
