Adsorption isotherm of Hydrogen on 1-pyr
DOI: 10.1039/C4dt01434k
Adsorbate Hydrogen: InChIKey UFHFLCQGNIYNRP-UHFFFAOYSA-N
Temperature: 298 K
Tabular data in the source: 0
pressure (bar)	uptake (cm3(STP)/g)
0.0299502	0.0417399
0.0811609	-0.0417399
0.108926	-0.0560193
0.123975	0.0505272
0.196544	-0.0439367
0.252124	-0.0153779
0.448765	0.0549209
0.495802	0.0878735
0.549197	0.060413
0.596185	0.0362478
0.662444	0.0593146
0.715839	0.0318541
0.762925	0.121924
0.827048	0.14609
0.895394	0.11094
0.948838	0.140598
1.0001	0.114236
