Adsorption isotherm of Nitrogen on [(CH3)2NH2]@[Eu2L3(HCOO)]
DOI: 10.1039/C4dt01434k
Adsorbate Nitrogen: InChIKey IJGRMHOSHXDMSA-UHFFFAOYSA-N
Temperature: 77 K
Tabular data in the source: 0
pressure (bar)	uptake (cm3(STP)/g)
0.0107503	0.267992
0.03746	-0.0546923
0.0642171	-0.0937582
0.077643	0.170327
0.120549	0.675059
0.142002	0.927425
0.313342	1.24464
0.449852	1.32902
0.615887	1.93767
0.64274	2.46584
0.744512	2.88463
0.859662	3.28388
0.937305	3.45421
