Adsorption isotherm of Nitrogen on ND-COF-2
DOI: 10.1039/d1nr07593d
Article source: Figure 2
Adsorbate Nitrogen: InChIKey IJGRMHOSHXDMSA-UHFFFAOYSA-N
Kind: experiment
Temperature: 77 K
Tabular data in the source: 0
pressure (bar)	uptake (cm3(STP)/g)
0.010158	176.534
0.005847	164.988
0.006188	153.933
0.006188	141.683
0.006188	129.413
0.006188	117.208
0.006188	104.935
0.006188	92.7252
0.006859	75.7441
0.003276	67.8434
0.006188	50.5214
0.006717	35.3351
0.006404	23.2397
0.161028	245.787
0.194378	249.62
0.202318	234.35
0.294428	256.182
0.302369	241.161
0.394479	260.027
0.402419	245.861
0.494529	263.277
0.50247	249.896
0.595056	265.159
0.604964	254.496
0.752813	259.945
0.814893	262.941
0.852559	263.508
0.087279	221.075
0.072251	218.105
0.059535	215.559
0.046819	213.013
0.037571	210.042
0.101152	223.197
0.030634	205.799
0.023698	202.405
0.019074	198.586
0.015606	193.069
0.010982	188.826
0.010982	182.885
0.101152	237.624
0.093059	236.775
0.082655	233.805
0.073407	231.683
0.067627	229.137
0.058379	227.016
0.030634	214.71
0.049131	224.045
0.040461	220.226
0.02023	207.921
0.00867	197.737
0.006358	194.342
0.006358	190.099
0.689565	267.327
0.809791	269.024
0.890712	270.297
0.926549	272.419
0.946201	272.843
0.968165	274.116
0.987818	279.208
1.00516	288.967
1.00631	282.178
0.99591	276.662
0.985506	273.692
0.963541	271.146
0.936953	269.024
0.91152	266.054
0.709217	257.143
