Adsorption isotherm of Nitrogen on ND-COF-2
DOI: 10.1039/d1nr07593d
Article source: Figure 3e
Adsorbate Nitrogen: InChIKey IJGRMHOSHXDMSA-UHFFFAOYSA-N
Kind: experiment
Isotherm type: absolute
Temperature: 298 K
Tabular data in the source: 0
pressure (bar)	uptake (mmol/g)
0.029299	0.014265
0.050955	0.017832
0.064968	0.017832
0.086624	0.017832
0.110828	0.017832
0.13121	0.017832
0.173248	0.028531
0.191083	0.028531
0.211465	0.028531
0.234395	0.035663
0.248408	0.035663
0.272611	0.035663
0.292994	0.03923
0.309554	0.03923
0.336306	0.03923
0.355414	0.035663
0.369427	0.035663
0.396178	0.042796
0.416561	0.042796
0.436943	0.042796
0.453503	0.042796
0.498089	0.046362
0.517197	0.046362
0.53758	0.046362
0.579618	0.046362
0.6	0.046362
0.619108	0.046362
0.640764	0.046362
0.653503	0.046362
0.672611	0.046362
0.699363	0.046362
0.719745	0.049929
0.742675	0.049929
0.759236	0.053495
0.780892	0.053495
0.801274	0.057061
0.814013	0.060628
0.834395	0.060628
0.857325	0.060628
0.899363	0.060628
0.922293	0.064194
0.945223	0.06776
0.961783	0.071327
0.978344	0.071327
1.00255	0.071327
