Adsorption isotherm of Carbon Dioxide on ND-COF-2
DOI: 10.1039/d1nr07593d
Article source: Figure 3e
Adsorbate Carbon Dioxide: InChIKey CURLTUGMZLYLDI-UHFFFAOYSA-N
Kind: experiment
Isotherm type: absolute
Temperature: 298 K
Tabular data in the source: 0
pressure (bar)	uptake (mmol/g)
0.131347	0.334772
0.290068	0.594627
0.305616	0.624186
0.367341	0.703767
0.391706	0.731279
0.416883	0.76061
0.514506	0.897489
0.539521	0.917497
0.562958	0.952253
0.613081	1.01689
0.635357	1.03187
0.659026	1.07114
0.92217	1.35568
0.109554	0.303138
0.090446	0.260342
0.06879	0.217546
0.047134	0.164051
0.028025	0.117689
0.010191	0.053495
0.151592	0.385164
0.171975	0.417261
0.192357	0.449358
0.211465	0.481455
0.231847	0.513552
0.253503	0.545649
0.271338	0.570613
0.351592	0.684736
0.332484	0.663338
0.941401	1.37304
0.96051	1.39087
0.980892	1.41584
1.0051	1.43723
0.677707	1.09486
0.698089	1.10913
0.719745	1.13766
0.738854	1.16262
0.759236	1.18046
0.780892	1.20542
0.798726	1.22682
0.817834	1.24108
0.842038	1.26605
0.859873	1.28745
0.881529	1.30885
0.901911	1.33381
0.575796	0.973609
0.596178	0.995007
0.492994	0.877318
0.475159	0.852354
0.457325	0.823823
0.435669	0.798859
