Adsorption isotherm of Methane on ND-COF-2
DOI: 10.1039/d1nr07593d
Article source: Figure 3d
Adsorbate Methane: InChIKey VNWKTOKETHGBQD-UHFFFAOYSA-N
Kind: experiment
Isotherm type: absolute
Temperature: 273 K
Tabular data in the source: 0
pressure (bar)	uptake (mmol/g)
0.003548	0.041799
0.030213	0.10319
0.048152	0.126382
0.067384	0.16117
0.086939	0.194594
0.106171	0.228245
0.12718	0.248993
0.146573	0.27372
0.165482	0.314647
0.18536	0.341932
0.203137	0.358985
0.224146	0.387122
0.24354	0.408438
0.262933	0.426344
0.282326	0.457039
0.300681	0.476407
0.322729	0.504504
0.340506	0.521841
0.3599	0.542304
0.379293	0.561915
0.398686	0.580674
0.418079	0.596021
0.438927	0.624329
0.456866	0.63439
0.476259	0.653149
0.495653	0.675318
0.515046	0.689813
0.534439	0.700045
0.553832	0.727329
0.573226	0.740119
0.592273	0.75705
0.610396	0.773941
0.631406	0.791278
0.650799	0.80492
0.670192	0.818563
0.689586	0.832205
0.708979	0.845848
0.726756	0.863753
0.747281	0.884899
0.766674	0.898541
0.787037	0.909455
0.805945	0.921733
0.825823	0.93674
0.844732	0.952429
0.864125	0.966071
0.884557	0.97338
0.904528	0.987672
0.923921	1.00018
0.943315	1.01496
0.961438	1.03087
0.980485	1.0411
0.999878	1.05475
