Adsorption isotherm of Nitrogen on ND-COF-1
DOI: 10.1039/d1nr07593d
Article source: Figure 2
Adsorbate Nitrogen: InChIKey IJGRMHOSHXDMSA-UHFFFAOYSA-N
Kind: experiment
Temperature: 77 K
Tabular data in the source: 0
pressure (bar)	uptake (cm3(STP)/g)
0.316517	220.768
0.397655	224.376
0.497706	228.845
0.597756	232.378
0.763554	240.752
0.863343	243.607
0.96508	250.211
0.195945	212.588
0.706905	237.624
0.809791	241.018
0.985506	252.051
0.998222	255.87
1.00863	261.81
1.00863	265.629
0.986662	257.992
0.965853	255.87
0.943889	253.748
0.924237	253.324
0.89418	252.051
0.812103	251.202
0.709217	249.081
0.610956	247.808
0.509226	245.686
0.401716	241.867
0.302299	237.624
0.204037	231.259
0.10462	216.407
0.091903	214.71
0.084967	213.013
0.078031	210.891
0.065315	208.345
0.056067	204.951
0.041039	201.556
0.017918	186.704
0.010982	182.461
0.00867	177.793
0.00867	173.55
0.00867	168.034
0.006358	157.426
0.006358	151.485
0.006358	143.847
0.006358	134.512
0.006358	124.328
0.027166	194.767
0.10462	201.98
0.084967	199.859
0.072251	197.313
0.060691	194.767
0.049131	191.796
0.038727	188.402
0.029478	183.734
0.02023	179.491
0.00867	164.215
0.006358	114.569
0.006936	103.536
0.006358	92.0792
0.006358	79.3494
0.006358	68.1047
0.006358	54.7383
0.006358	42.8571
0.006358	29.0665
0.006358	16.5488
0.006358	3.60679
0.934641	247.383
0.908052	245.686
0.149704	225.318
