Adsorption isotherm of Carbon Dioxide on ND-COF-1
DOI: 10.1039/d1nr07593d
Article source: Figure 3a
Adsorbate Carbon Dioxide: InChIKey CURLTUGMZLYLDI-UHFFFAOYSA-N
Kind: experiment
Temperature: 273 K
Tabular data in the source: 0
pressure (bar)	uptake (mmol/g)
0.005976	0.173738
0.022956	0.312387
0.044787	0.436712
0.066618	0.546142
0.086024	0.630935
0.107855	0.711718
0.127261	0.782188
0.146666	0.849221
0.166072	0.911097
0.185477	0.967817
0.207309	1.02282
0.22914	1.0761
0.248546	1.12938
0.267951	1.17579
0.287357	1.21704
0.306762	1.25829
0.331019	1.30814
0.350425	1.34595
0.369831	1.38548
0.389236	1.42158
0.408642	1.45767
0.428047	1.49033
0.447453	1.52642
0.466859	1.5608
0.486264	1.59345
0.50567	1.62095
0.525075	1.65189
0.544481	1.68111
0.563886	1.70689
0.583292	1.73611
0.602698	1.76533
0.622103	1.79799
0.641509	1.82377
0.660914	1.84955
0.68032	1.87533
0.699726	1.90112
0.717514	1.91659
0.737081	1.94546
0.757457	1.97021
0.777348	1.99336
0.796754	2.02315
0.816159	2.04721
0.835565	2.06211
0.85497	2.08732
0.874861	2.11321
0.894267	2.13384
0.914804	2.15607
0.93421	2.18128
0.951998	2.20534
0.973021	2.22253
1.00536	2.25003
