Adsorption isotherm of Methane on ND-COF-2
DOI: 10.1039/d1nr07593d
Article source: Figure 3e
Adsorbate Methane: InChIKey VNWKTOKETHGBQD-UHFFFAOYSA-N
Kind: experiment
Isotherm type: absolute
Temperature: 298 K
Tabular data in the source: 0
pressure (bar)	uptake (mmol/g)
0.007643	0.024964
0.029299	0.049929
0.049682	0.071327
0.070064	0.092725
0.090446	0.10699
0.107006	0.128388
0.128662	0.149786
0.149045	0.160485
0.168153	0.181883
0.191083	0.192582
0.211465	0.210414
0.229299	0.228245
0.250955	0.242511
0.271338	0.25321
0.289172	0.271041
0.309554	0.292439
0.328662	0.299572
0.352229	0.317404
0.371975	0.328103
0.392357	0.342368
0.411465	0.356633
0.431847	0.363766
0.450955	0.378031
0.472611	0.392297
0.492994	0.410128
0.512102	0.417261
0.533758	0.435093
0.555414	0.445792
0.574522	0.460057
0.594904	0.474322
0.614013	0.488588
0.635669	0.499287
0.654777	0.513552
0.675159	0.524251
0.692994	0.531384
0.715924	0.549215
0.73758	0.559914
0.756688	0.570613
0.77707	0.584879
0.796178	0.592011
0.817834	0.606277
0.838217	0.616976
0.858599	0.627675
0.877707	0.634807
0.899363	0.652639
0.921019	0.659772
0.940127	0.666904
0.959236	0.677603
0.980892	0.691869
0.997452	0.699001
