Adsorption isotherm of Methane on ND-COF-1
DOI: 10.1039/d1nr07593d
Article source: Figure 3b
Adsorbate Methane: InChIKey VNWKTOKETHGBQD-UHFFFAOYSA-N
Kind: experiment
Isotherm type: absolute
Temperature: 298 K
Tabular data in the source: 0
pressure (bar)	uptake (mmol/g)
0.024923	0.055091
0.046063	0.102664
0.073057	0.155755
0.097447	0.210641
0.244395	0.464599
0.267955	0.50177
0.291178	0.535388
0.315481	0.565708
0.389471	0.636243
0.412694	0.663264
0.436998	0.684501
0.461301	0.711675
0.777243	1.01104
0.801006	1.02698
0.82446	1.05293
0.757306	0.99212
0.738247	0.977794
0.717916	0.963467
0.698856	0.94914
0.879288	1.09599
1	1.18911
0.975858	1.17479
0.956798	1.16404
0.913596	1.1318
0.895807	1.11748
0.860229	1.08166
0.837357	1.06734
0.937103	1.14792
0.677255	0.931232
0.654384	0.909742
0.634053	0.888252
0.613723	0.870344
0.595934	0.852436
0.578145	0.841691
0.556544	0.816619
0.533672	0.798711
0.513342	0.770057
0.495553	0.755731
0.476493	0.737822
0.3723	0.619628
0.350699	0.601719
0.33291	0.576648
0.227446	0.447708
0.212198	0.426218
0.189327	0.383238
0.170267	0.36533
0.148666	0.329513
0.132147	0.30086
0.111817	0.25788
