Adsorption isotherm of Methane on ND-COF-1
DOI: 10.1039/d1nr07593d
Article source: Figure 3a
Adsorbate Methane: InChIKey VNWKTOKETHGBQD-UHFFFAOYSA-N
Kind: experiment
Temperature: 273 K
Tabular data in the source: 0
pressure (bar)	uptake (mmol/g)
0.005629	0.111371
0.026998	0.261969
0.045595	0.379993
0.065232	0.4787
0.083113	0.570434
0.107855	0.658436
0.127261	0.727187
0.147475	0.785626
0.250001	1.06407
0.267951	1.1122
0.285901	1.1397
0.306416	1.17996
0.326168	1.2222
0.345574	1.26087
0.364979	1.30212
0.382768	1.33678
0.40483	1.37247
0.421579	1.39866
0.443641	1.44122
0.46039	1.46741
0.482452	1.50997
0.499779	1.53354
0.520224	1.57283
0.541247	1.60033
0.559035	1.62439
0.578441	1.65189
0.597846	1.67768
0.617252	1.70604
0.636657	1.73268
0.656063	1.7576
0.675815	1.78792
0.695221	1.81248
0.71428	1.83752
0.733685	1.86502
0.752744	1.88909
0.774114	1.92346
0.790447	1.94271
0.809852	1.96609
0.831753	1.9873
0.850119	2.0094
0.867907	2.03117
0.88997	2.05507
0.908336	2.07643
0.926124	2.09534
0.948764	2.12284
0.965513	2.13463
0.986443	2.16959
1.00294	2.18472
0.169943	0.860891
0.191503	0.90762
0.210526	0.961538
0.230818	1.01546
