Adsorption isotherm of Carbon Dioxide on ND-COF-1
DOI: 10.1039/d1nr07593d
Article source: Figure 3b
Adsorbate Carbon Dioxide: InChIKey CURLTUGMZLYLDI-UHFFFAOYSA-N
Kind: experiment
Isotherm type: absolute
Temperature: 298 K
Tabular data in the source: 0
pressure (bar)	uptake (mmol/g)
1.00254	1.41834
0.97967	1.39685
0.008895	0.04298
0.031766	0.114613
0.053367	0.168338
0.068615	0.222063
0.088945	0.261461
0.113088	0.304441
0.133418	0.351003
0.151207	0.383238
0.172808	0.429799
0.193139	0.458453
0.21601	0.505014
0.23507	0.537249
0.256671	0.569484
0.277001	0.601719
0.964422	1.37536
0.946633	1.36461
0.92122	1.33954
0.903431	1.31089
0.88183	1.30014
0.860229	1.27507
0.838628	1.26433
0.814485	1.23567
0.799238	1.22493
0.78399	1.2106
0.76493	1.18911
0.738247	1.16046
0.717916	1.13897
0.700127	1.11748
0.682338	1.11031
0.660737	1.08882
0.644219	1.07092
0.618806	1.03868
0.598475	1.00645
0.574333	0.988539
0.555273	0.97063
0.536213	0.945559
0.519695	0.920487
0.498094	0.898997
0.477764	0.873926
0.457433	0.852436
0.439644	0.827364
0.416137	0.800501
0.29479	0.637536
0.315121	0.666189
0.337992	0.691261
0.357052	0.719914
0.374841	0.741404
0.395172	0.766476
