Adsorption isotherm of Nitrogen on ND-COF-1
DOI: 10.1039/d1nr07593d
Article source: Figure 3a
Adsorbate Nitrogen: InChIKey IJGRMHOSHXDMSA-UHFFFAOYSA-N
Kind: experiment
Temperature: 273 K
Tabular data in the source: 0
pressure (bar)	uptake (mmol/g)
0.119984	0.025923
0.144241	0.032798
0.168498	0.035548
0.192754	0.038298
0.217011	0.041048
0.241268	0.038691
0.265525	0.047923
0.289782	0.052048
0.314039	0.052278
0.337488	0.053423
0.360936	0.058007
0.387619	0.06832
0.41176	0.066192
0.435324	0.078174
0.459581	0.080924
0.483838	0.081906
0.508095	0.090549
0.532352	0.093299
0.556609	0.094674
0.580058	0.098112
0.605123	0.1098
0.630189	0.10957
0.65433	0.107442
0.677894	0.119425
0.701343	0.124467
0.798486	0.135925
0.822628	0.137071
0.872759	0.151967
0.896207	0.159301
0.943913	0.164572
0.967361	0.170301
0.853519	0.152768
0.984147	0.17793
1.0019	0.174335
0.013951	0.001797
0.71655	0.134795
0.734306	0.134795
0.760938	0.134795
0.032974	0.012581
0.049461	0.012581
0.068484	0.01977
0.088776	0.01977
