Adsorption isotherm of Nitrogen on ND-COF-2
DOI: 10.1039/d1nr07593d
Article source: Figure 3d
Adsorbate Nitrogen: InChIKey IJGRMHOSHXDMSA-UHFFFAOYSA-N
Kind: experiment
Isotherm type: absolute
Temperature: 273 K
Tabular data in the source: 0
pressure (bar)	uptake (mmol/g)
0.011305	0.004964
0.339052	0.085455
0.358283	0.086137
0.377838	0.096368
0.397232	0.099097
0.416463	0.098642
0.435857	0.10319
0.456866	0.10319
0.515046	0.125359
0.533954	0.126382
0.553832	0.125927
0.593104	0.13866
0.612012	0.147527
0.631406	0.150938
0.671808	0.152075
0.74922	0.16458
0.821702	0.178223
0.99907	0.223698
0.96071	0.21398
0.899873	0.206847
0.87706	0.203281
0.858048	0.192582
0.797212	0.185449
0.774398	0.178317
0.491762	0.121255
0.315589	0.082026
0.070976	0.021398
0.04943	0.017832
0.031686	0.017832
0.294043	0.078459
0.269962	0.078459
0.249683	0.071327
0.231939	0.064194
0.089987	0.028531
0.111534	0.032097
0.130545	0.046362
0.152091	0.049929
0.171103	0.053495
0.193916	0.057061
0.214195	0.060628
0.936629	0.210414
0.716096	0.171184
0.695817	0.164051
