Adsorption isotherm of Nitrogen on ND-COF-1
DOI: 10.1039/d1nr07593d
Article source: Figure 3b
Adsorbate Nitrogen: InChIKey IJGRMHOSHXDMSA-UHFFFAOYSA-N
Kind: experiment
Isotherm type: absolute
Temperature: 298 K
Tabular data in the source: 0
pressure (bar)	uptake (mmol/g)
0.023843	0.006756
0.047452	0.009692
0.072449	0.018402
0.096752	0.022741
0.413389	0.051774
0.436303	0.052753
0.558514	0.058992
0.582277	0.064225
0.6055	0.064986
0.631964	0.069933
0.655727	0.071836
0.68003	0.07098
0.703793	0.076784
0.75375	0.090104
0.777937	0.092877
0.876539	0.108046
0.899453	0.108046
0.922368	0.107557
0.946758	0.10823
0.995277	0.113429
1.01298	0.109514
0.736976	0.089542
0.717916	0.08596
0.537484	0.060888
0.515883	0.060888
0.494282	0.060888
0.47141	0.060888
0.454892	0.053725
0.397713	0.053725
0.373571	0.050143
0.355781	0.046562
0.33418	0.04298
0.315121	0.04298
0.292249	0.04298
0.273189	0.039398
0.25413	0.032235
0.233799	0.028653
0.212198	0.028653
0.193139	0.028653
0.17662	0.028653
0.97967	0.111032
0.964422	0.109241
0.820839	0.102077
0.841169	0.096705
0.858958	0.10745
0.800508	0.096705
0.110546	0.017908
0.132147	0.017908
0.153748	0.025072
