Adsorption isotherm of Carbon Dioxide on ND-COF-2
DOI: 10.1039/d1nr07593d
Article source: Figure 3d
Adsorbate Carbon Dioxide: InChIKey CURLTUGMZLYLDI-UHFFFAOYSA-N
Kind: experiment
Isotherm type: absolute
Temperature: 273 K
Tabular data in the source: 0
pressure (bar)	uptake (mmol/g)
0.007011	0.10319
0.031252	0.265924
0.045797	0.361421
0.065768	0.453345
0.090009	0.539746
0.108826	0.611207
0.128219	0.669349
0.152876	0.75666
0.170815	0.794404
0.191247	0.852547
0.209601	0.895586
0.228995	0.941344
0.248388	0.981419
0.267781	1.02831
0.287175	1.06839
0.306568	1.10676
0.325961	1.14427
0.345355	1.17923
0.363709	1.2092
0.383795	1.25207
0.402496	1.28131
0.422928	1.31736
0.442321	1.34976
0.461714	1.38643
0.481108	1.41798
0.500501	1.44697
0.519894	1.48107
0.539288	1.50665
0.558681	1.53735
0.578074	1.56293
0.597467	1.59277
0.616861	1.61664
0.636254	1.64649
0.655647	1.67718
0.675041	1.70503
0.693395	1.72566
0.715443	1.75165
0.733567	1.77438
0.752614	1.80167
0.773462	1.83032
0.793016	1.86192
0.81114	1.88352
0.830187	1.90143
0.850619	1.92542
0.868974	1.94747
0.888367	1.96538
0.906721	1.99071
0.927153	2.02591
0.946547	2.04638
0.96594	2.06599
0.985333	2.08816
1.00311	2.1109
