Adsorption isotherm of Nitrogen on NENU-520a
DOI: 10.1039/c5ta00256g
Article source: Figure 2
Adsorbate Nitrogen: InChIKey IJGRMHOSHXDMSA-UHFFFAOYSA-N
Kind: experiment
Temperature: 77 K
Tabular data in the source: 0
pressure (bar)	uptake (cm3(STP)/g)
0.002288	60
0.004577	95.2174
0.006865	107.826
0.02746	113.043
0.064073	116.522
0.077803	117.391
0.098398	118.261
0.116705	118.696
0.1373	121.304
0.139588	119.565
0.16476	120.435
0.180778	120.87
0.199085	123.043
0.249428	121.739
0.251716	123.043
0.299771	122.174
0.329519	123.913
0.345538	122.174
0.398169	124.348
0.402746	123.043
0.450801	124.783
0.453089	123.043
0.498856	123.043
0.501144	126.957
0.549199	127.826
0.551487	123.913
0.599542	127.391
0.601831	124.783
0.649886	127.391
0.695652	124.783
0.697941	127.826
0.750572	129.13
0.75286	126.087
0.796339	125.652
0.798627	130
0.816934	126.087
0.823799	130.87
0.851259	131.304
0.874142	126.957
0.878719	132.174
0.897025	134.348
0.899314	128.696
0.926773	130.435
0.93135	138.261
0.951945	133.913
0.963387	143.478
0.977117	139.13
0.981693	143.478
0.993135	148.696
