Adsorption isotherm of Nitrogen on Fe3O4/MOFs
DOI: 10.1080/19443994.2014.937751
Article source: Figure 3
Adsorbate Nitrogen: InChIKey IJGRMHOSHXDMSA-UHFFFAOYSA-N
Kind: experiment
Temperature: 77 K
Tabular data in the source: 0
pressure (bar)	uptake (mmol/g)
0.008569	11.9342
0.027848	12.1395
0.064265	12.5091
0.074976	12.5994
0.100682	12.7225
0.119962	12.7963
0.141384	12.9852
0.160663	12.9028
0.179943	12.952
0.201365	13.0011
0.252776	13.0911
0.299905	13.1483
0.302047	13.2551
0.332038	13.2713
0.355601	13.1807
0.400587	13.205
0.404871	13.3036
0.454142	13.336
0.456284	13.221
0.490559	13.4097
0.507696	13.2288
0.533402	13.5984
0.578388	13.2364
0.586956	13.6062
0.627658	13.2113
0.638369	13.5893
0.676928	13.2192
0.689781	13.5807
0.730482	13.2023
0.760474	13.5966
0.777611	13.1855
0.811885	13.6126
0.829023	13.1768
0.835449	13.6699
0.863297	13.719
0.869724	13.7518
0.878293	13.1847
0.889003	13.1928
0.893288	13.7681
0.910425	13.2091
0.916852	13.7761
0.946843	13.8334
0.953269	13.2827
0.961838	13.3566
0.985402	13.9482
0.987544	13.5125
1.00682	13.8905
1.01111	14.0795
