Adsorption isotherm of Acetone on CdC15H20N2O7
DOI: 10.1007/s11426-010-4107-8
Adsorbate Acetone: InChIKey CSCPPACGZOOCGX-UHFFFAOYSA-N
Temperature: 298 K
Tabular data in the source: 0
pressure (bar)	uptake (mmol/g)
0.010028	0.0217321
0.0300869	0.042541
0.0439787	0.0186073
0.0578647	0.0399843
0.073294	0.0612193
0.100297	0.081389
0.12422	0.056532
0.145825	0.0545434
0.175143	0.0745
0.191344	0.095664
0.204458	0.117112
0.218342	0.161144
