Adsorption isotherm of Methanol on CdC15H20N2O7
DOI: 10.1007/s11426-010-4107-8
Adsorbate Methanol: InChIKey OKKJLVBELUTLKV-UHFFFAOYSA-N
Temperature: 298 K
Tabular data in the source: 0
pressure (bar)	uptake (mmol/g)
0.000115144	0.16336
0.000197505	0.203781
0.000345619	0.366882
0.000543373	0.406402
0.000691548	0.528439
0.00102112	0.607995
0.0013342	0.687681
0.00166383	0.726171
0.00215799	0.9687
0.00283312	1.4562
0.00327733	2.02764
0.00395207	2.76153
0.00428096	3.29281
0.00462416	5.26124
0.00492983	10.2687
