Adsorption isotherm of Carbon Dioxide on CdC15H20N2O7
DOI: 10.1007/s11426-010-4107-8
Adsorbate Carbon Dioxide: InChIKey CURLTUGMZLYLDI-UHFFFAOYSA-N
Temperature: 195 K
Tabular data in the source: 0
pressure (bar)	uptake (cm3(STP)/g)
0.00333736	2.89807
0.0200241	3.18555
0.0367109	3.76287
0.0567351	4.33972
0.0834339	4.77069
0.12682	5.19928
0.233615	5.90866
0.34041	6.61804
0.437194	7.039
0.540652	7.459
0.64411	7.73408
0.740893	8.15503
0.844351	8.43011
0.944472	8.99552
