Adsorption isotherm of Carbon Dioxide on CdC15H20N2O7
DOI: 10.1007/s11426-010-4107-8
Adsorbate Carbon Dioxide: InChIKey CURLTUGMZLYLDI-UHFFFAOYSA-N
Temperature: 195 K
Tabular data in the source: 0
pressure (bar)	uptake (cm3(STP)/g)
0.00333736	0.00333736
0.00667471	13.4773
0.0133494	15.0706
0.0367109	20.4295
0.0600724	22.89
0.0901086	24.7697
0.110133	25.9263
0.170205	28.6713
0.223603	30.5478
0.266989	31.9908
0.313712	33.1436
0.370447	33.8601
0.420507	34.7225
0.473905	35.2946
0.523965	36.0121
0.574025	36.2948
0.627423	36.722
0.677483	37.1496
0.724206	37.5777
0.784279	37.859
0.831002	37.9972
0.874388	38.136
0.931123	38.2728
0.981183	38.7004
1.02791	38.6937
