Adsorption isotherm of Carbon Dioxide on CdC15H20N2O7
DOI: 10.1007/s11426-010-4107-8
Adsorbate Carbon Dioxide: InChIKey CURLTUGMZLYLDI-UHFFFAOYSA-N
Temperature: 195 K
Tabular data in the source: 0
pressure (bar)	uptake (cm3(STP)/g)
0.0100121	1.30292
0.0200241	1.59134
0.0433856	1.87786
0.0767592	2.01802
0.110133	2.01325
0.16353	2.00563
0.216928	1.998
0.273663	1.98989
0.327061	2.12719
0.370447	2.121
0.413832	2.1148
0.46723	2.10717
0.523965	2.24399
0.574025	2.23684
0.627423	2.22921
0.670809	2.36794
0.727544	2.35984
0.827665	2.34554
0.877725	2.33839
0.931123	2.47569
