Adsorption isotherm of Cyclohexane on Silicalite MFI
DOI: 10.1021/La990756f
Adsorbate Cyclohexane: InChIKey XDTMQSROBMDMFD-UHFFFAOYSA-N
Temperature: 423 K
Tabular data in the source: 0
pressure (bar)	uptake (molecules/unitcell)
0.000167	0.528245
0.00422352	2.52825
0.00591366	2.85923
0.0135193	3.39444
0.0197728	3.5705
0.0277165	3.69022
0.0351531	3.76768
0.0407306	3.80994
0.046477	3.84515
0.0528996	3.86627
