Adsorption isotherm of Methanol on H-ZSM-5
DOI: 10.1021/La990756f
Adsorbate Methanol: InChIKey OKKJLVBELUTLKV-UHFFFAOYSA-N
Temperature: 300 K
Tabular data in the source: 0
pressure (bar)	uptake (molecules/unitcell)
0.000674	0.563685
0.00112432	1.66228
0.00180038	3.07073
0.00180038	4.22566
0.00225108	6.70453
0.00427925	11.0426
0.00653277	14.282
0.009237	15.2116
0.0123919	17.0707
0.0189271	18.5919
0.0286173	18.8735
0.0398849	19.2397
0.0644483	19.6904
0.118533	19.9721
0.164505	20.282
