Adsorption isotherm of Methanol on Silicalite MFI
DOI: 10.1021/La990756f
Adsorbate Methanol: InChIKey OKKJLVBELUTLKV-UHFFFAOYSA-N
Temperature: 300 K
Tabular data in the source: 0
pressure (bar)	uptake (molecules/unitcell)
0.00112432	0.0284739
0.00315249	1.15523
0.00630742	2.67636
0.00856094	3.94397
0.0110398	5.88763
0.013068	7.29608
0.0191525	10.5637
0.0225328	12.2257
0.0283919	13.9721
0.0369553	15.0707
0.0466454	16.282
0.0597159	16.789
0.0763919	17.6059
0.0973497	17.8876
0.124843	18.451
0.160448	19.5778
