Adsorption isotherm of Cyclohexane on Silicalite MFI
DOI: 10.1021/La990756f
Adsorbate Cyclohexane: InChIKey XDTMQSROBMDMFD-UHFFFAOYSA-N
Temperature: 523 K
Tabular data in the source: 0
pressure (bar)	uptake (molecules/unitcell)
0.0131813	0.133879
0.0265334	0.302893
0.0395475	0.485992
0.0544207	0.612752
0.0672658	0.746555
0.0799418	0.845147
0.093632	0.985992
0.106984	1.07754
