Adsorption isotherm of Cyclohexane on Silicalite MFI
DOI: 10.1021/La990756f
Adsorbate Cyclohexane: InChIKey XDTMQSROBMDMFD-UHFFFAOYSA-N
Temperature: 523 K
Tabular data in the source: 0
pressure (bar)	uptake (molecules/unitcell)
0.0130123	0.10571
0.0267024	0.26064
0.0402235	0.359231
0.0534066	0.45078
0.0664207	0.54233
0.0804489	0.619795
0.0932939	0.66909
0.106646	0.739513
