Adsorption isotherm of Methanol on Silicalite MFI
DOI: 10.1021/La990756f
Adsorbate Methanol: InChIKey OKKJLVBELUTLKV-UHFFFAOYSA-N
Temperature: 300 K
Tabular data in the source: 0
pressure (bar)	uptake (molecules/unitcell)
0.00597021	3.89222
0.00867443	5.16922
0.010928	6.7279
0.0124303	8.5495
0.017388	10.2772
0.0221956	11.9673
0.0280547	13.2443
0.035266	14.3335
0.0438294	15.0472
0.0746275	16.3993
0.0940078	16.7373
0.129463	17.2819
0.166872	17.5636
