Adsorption isotherm of Cyclohexane on Silicalite MFI
DOI: 10.1021/La990756f
Adsorbate Cyclohexane: InChIKey XDTMQSROBMDMFD-UHFFFAOYSA-N
Temperature: 473 K
Tabular data in the source: 0
pressure (bar)	uptake (molecules/unitcell)
0.00354747	0.577541
0.00608268	0.978949
0.00963197	1.38036
0.0133503	1.7043
0.0268714	2.4367
0.0400545	2.8381
0.0532376	3.07754
0.0667587	3.22543
0.0802799	3.35923
0.093632	3.4367
0.106815	3.50712
