Adsorption isotherm of Cyclohexane on Silicalite MFI
DOI: 10.1021/La990756f
Adsorbate Cyclohexane: InChIKey XDTMQSROBMDMFD-UHFFFAOYSA-N
Temperature: 523 K
Tabular data in the source: 0
pressure (bar)	uptake (molecules/unitcell)
0.0131813	0.0986678
0.0260263	0.197259
0.0397165	0.295851
0.0534066	0.32402
0.0667587	0.422611
0.0804489	0.436696
