Adsorption isotherm of Cyclohexane on Silicalite MFI
DOI: 10.1021/La990756f
Adsorbate Cyclohexane: InChIKey XDTMQSROBMDMFD-UHFFFAOYSA-N
Temperature: 473 K
Tabular data in the source: 0
pressure (bar)	uptake (molecules/unitcell)
0.00236437	0.302893
0.0111531	0.852189
0.0133503	1.04937
0.0263644	1.64796
0.0392094	2.03529
0.0542517	2.23247
0.0672658	2.47895
0.0792658	2.69022
0.093463	2.83106
