Adsorption isotherm of Cyclohexane on Silicalite MFI
DOI: 10.1021/La990756f
Adsorbate Cyclohexane: InChIKey XDTMQSROBMDMFD-UHFFFAOYSA-N
Temperature: 473 K
Tabular data in the source: 0
pressure (bar)	uptake (molecules/unitcell)
0.00320944	0.45078
0.00726578	0.767682
0.00946296	1.02825
0.0126742	1.2043
0.0261954	1.80289
0.0400545	2.22543
0.0544207	2.53529
0.0674348	2.7536
0.081463	2.90853
0.0932939	3.0212
0.106308	3.11979
