Adsorption isotherm of Cyclohexane on Silicalite MFI
DOI: 10.1021/La990756f
Adsorbate Cyclohexane: InChIKey XDTMQSROBMDMFD-UHFFFAOYSA-N
Temperature: 423 K
Tabular data in the source: 0
pressure (bar)	uptake (molecules/unitcell)
0.00236437	1.64092
0.0038855	2.03529
0.00658972	2.4367
0.0128432	2.96486
0.0260263	3.31698
0.0398855	3.55641
0.0528996	3.64092
