Adsorption isotherm of Methanol on Na-ZSM-5
DOI: 10.1021/La990756f
Adsorbate Methanol: InChIKey OKKJLVBELUTLKV-UHFFFAOYSA-N
Temperature: 300 K
Tabular data in the source: 0
pressure (bar)	uptake (molecules/unitcell)
0.00157503	2.02847
0.00427925	5.12707
0.00540601	7.21157
0.00698348	9.60594
0.0103638	12.5355
0.013068	13.8031
0.017575	15.4369
0.0223074	16.2538
0.0347018	16.7327
0.0509271	16.9299
0.0923919	17.7186
0.134082	18.4792
0.163152	18.9017
