Adsorption isotherm of Cyclohexane on Silicalite MFI
DOI: 10.1021/La990756f
Adsorbate Cyclohexane: InChIKey XDTMQSROBMDMFD-UHFFFAOYSA-N
Temperature: 423 K
Tabular data in the source: 0
pressure (bar)	uptake (molecules/unitcell)
0.000167	0.507118
0.00371648	1.64796
0.00692775	2.28881
0.0135193	2.92261
0.0201108	3.23247
0.0267024	3.42261
0.0327869	3.54937
0.0398855	3.59867
0.0473221	3.66205
0.0534066	3.7043
