Adsorption isotherm of Hydrogen on IRMOF-1
DOI: 10.1016/j.electacta.2013.10.190
Adsorbate Hydrogen: InChIKey UFHFLCQGNIYNRP-UHFFFAOYSA-N
Temperature: 77 K
Tabular data in the source: 0
pressure (bar)	uptake (wt%)
0.0417985	0.270853
0.0834102	0.509198
0.367528	0.93149
0.771497	1.20195
1.01382	1.35339
1.98247	1.85079
2.99037	2.17478
3.99783	2.42291
5.04541	2.64933
7.50249	3.05843
