Adsorption isotherm of Hydrogen on Interwoven MOF-5
DOI: 10.1016/j.electacta.2013.10.190
Adsorbate Hydrogen: InChIKey UFHFLCQGNIYNRP-UHFFFAOYSA-N
Temperature: 77 K
Tabular data in the source: 0
pressure (bar)	uptake (wt%)
0.0162224	0.326343
0.0285557	0.393862
0.0367673	0.450128
0.0429129	0.506394
0.055225	0.596419
0.0696191	0.669565
0.0840238	0.731458
0.10459	0.832737
0.137558	0.928389
0.170536	1.01279
0.21383	1.11407
0.269514	1.22097
0.341728	1.32788
0.428426	1.41228
0.529576	1.50793
0.669992	1.59233
0.845522	1.68798
1.06239	1.76675
