Adsorption isotherm of Hydrogen on IRMOF-13
DOI: 10.1016/j.electacta.2013.10.190
Adsorbate Hydrogen: InChIKey UFHFLCQGNIYNRP-UHFFFAOYSA-N
Temperature: 77 K
Tabular data in the source: 0
pressure (bar)	uptake (mg/g)
0.0113225	1.91969
0.0339675	3.10704
0.0656705	4.57748
0.131341	6.50293
0.197012	8.03338
0.267211	9.45147
0.326088	10.4734
0.400816	11.5534
0.461958	12.237
0.536687	13.2041
0.663499	14.5153
0.792575	15.6575
1.01902	17.4307
