Adsorption isotherm of Hydrogen on Co14-MOF-74
DOI: 10.1016/j.electacta.2013.10.190
Adsorbate Hydrogen: InChIKey UFHFLCQGNIYNRP-UHFFFAOYSA-N
Temperature: 77 K
Tabular data in the source: 0
pressure (bar)	uptake (wt%)
0.0455984	0.931839
0.0862756	1.00765
0.127015	1.09429
0.147696	1.19179
0.208432	1.25674
0.309596	1.35415
0.390576	1.44075
0.491802	1.549
0.734122	1.70044
1.01662	1.841
2.0044	2.16501
3.01161	2.3698
3.99846	2.53127
7.46132	2.89594
9.97733	3.05575
