Adsorption isotherm of Hydrogen on Pristine MOF-5
DOI: 10.1016/j.electacta.2013.10.190
Adsorbate Hydrogen: InChIKey UFHFLCQGNIYNRP-UHFFFAOYSA-N
Temperature: 77 K
Tabular data in the source: 0
pressure (bar)	uptake (wt%)
0.0184524	0.151918
0.024619	0.185678
0.0287195	0.219437
0.0348967	0.241944
0.0390026	0.270077
0.0492909	0.31509
0.0678383	0.365729
0.0822589	0.410742
0.106984	0.483887
0.133796	0.534527
0.168867	0.590793
0.210131	0.652685
0.265853	0.720205
0.340169	0.787724
0.424811	0.86087
0.532186	0.928389
0.670531	1.01841
0.844011	1.09719
1.06085	1.20409
