Adsorption isotherm of Hydrogen on Co21-MOF-5
DOI: 10.1016/j.electacta.2013.10.190
Adsorbate Hydrogen: InChIKey UFHFLCQGNIYNRP-UHFFFAOYSA-N
Temperature: 77 K
Tabular data in the source: 0
pressure (bar)	uptake (wt%)
0.0100806	0.0385852
0.0241935	0.14791
0.078629	0.334405
0.102823	0.392283
0.203629	0.572347
0.34879	0.765273
0.502016	0.926045
0.756048	1.14469
0.995968	1.31833
