Adsorption isotherm of Hydrogen on IRMOF-1
DOI: 10.1016/j.electacta.2013.10.190
Adsorbate Hydrogen: InChIKey UFHFLCQGNIYNRP-UHFFFAOYSA-N
Temperature: 77 K
Tabular data in the source: 0
pressure (bar)	uptake (molecules/formula unit)
0.0192088	0.133937
0.0307443	0.267491
0.0653456	0.641557
0.105692	0.962718
0.136426	1.17702
0.188287	1.52535
0.197893	1.60561
0.268963	2.08788
0.336171	2.43698
0.403379	2.78607
0.480178	3.13565
0.535861	3.40438
0.670241	3.9164
0.800789	4.45483
0.935154	4.88706
1.00617	5.07677
