Adsorption isotherm of Hydrogen on Interwoven MOF-5 incorporating MWCNT
DOI: 10.1016/j.electacta.2013.10.190
Adsorbate Hydrogen: InChIKey UFHFLCQGNIYNRP-UHFFFAOYSA-N
Temperature: 77 K
Tabular data in the source: 0
pressure (bar)	uptake (wt%)
0.0161379	0.416368
0.0161855	0.365729
0.0243548	0.467008
0.0346378	0.517647
0.0428336	0.590793
0.0551563	0.669565
0.0654076	0.753964
0.0839023	0.86087
0.104489	0.939642
0.133315	1.04655
0.168338	1.15345
0.213692	1.26036
0.2673	1.37852
0.339498	1.5023
0.432368	1.61483
0.533518	1.71049
0.671847	1.81739
0.845306	1.91867
1.06423	2.00307
