Adsorption isotherm of Hydrogen on Zn2(NDC)2(diPyNI)
DOI: 10.1016/j.electacta.2013.10.190
Adsorbate Hydrogen: InChIKey UFHFLCQGNIYNRP-UHFFFAOYSA-N
Temperature: 77 K
Tabular data in the source: 0
pressure (bar)	uptake (wt%)
0.0557171	0.213278
0.110596	0.327144
0.16299	0.412596
0.215264	0.483846
0.267378	0.53616
0.317246	0.588464
0.371447	0.621854
0.418908	0.655212
0.475397	0.693345
0.525064	0.72198
0.574653	0.741146
0.628814	0.769802
0.676156	0.788958
0.725784	0.812858
0.777619	0.832035
0.829534	0.86068
0.879122	0.879847
0.930957	0.899024
0.982793	0.918201
