Adsorption isotherm of Hydrogen on IRMOF-13
DOI: 10.1016/j.electacta.2013.10.190
Adsorbate Hydrogen: InChIKey UFHFLCQGNIYNRP-UHFFFAOYSA-N
Temperature: 77 K
Tabular data in the source: 0
pressure (bar)	uptake (molecules/formula unit)
0.0117293	1.1442
0.0310504	1.86325
0.0676516	2.66295
0.133079	3.73004
0.19847	4.61096
0.269596	5.38579
0.333009	5.94746
0.406017	6.53621
0.461725	6.93792
0.540473	7.44717
0.669149	8.22486
0.795881	8.86948
1.02243	9.86482
