Adsorption isotherm of Hydrogen on Mn2(dhtp)
DOI: 10.1016/j.electacta.2013.10.190
Adsorbate Hydrogen: InChIKey UFHFLCQGNIYNRP-UHFFFAOYSA-N
Temperature: 77 K
Tabular data in the source: 0
pressure (bar)	uptake (wt%)
-0.0188691	0.606226
0.00817297	0.830443
0.0799744	1.01199
0.155743	1.13582
0.295507	1.29669
0.408712	1.39218
0.519111	1.4732
0.652439	1.56177
0.826558	1.66537
1.05132	1.76969
