Adsorption isotherm of Hydrogen on Crystalline MOF-5
DOI: 10.1016/j.electacta.2013.10.190
Adsorbate Hydrogen: InChIKey UFHFLCQGNIYNRP-UHFFFAOYSA-N
Temperature: 77 K
Tabular data in the source: 0
pressure (bar)	uptake (wt%)
0.0185475	0.0506394
0.0309178	0.0787724
0.0432986	0.0956522
0.0556583	0.135038
0.068018	0.174425
0.0803883	0.202558
0.1072	0.253197
0.134012	0.303836
0.167017	0.360102
0.212403	0.433248
0.268114	0.51202
0.338267	0.613299
0.42701	0.720205
0.532265	0.84399
0.672634	0.979028
0.84604	1.13657
1.06488	1.31662
