Adsorption isotherm of Hydrogen on MOF-74
DOI: 10.1016/j.electacta.2013.10.190
Adsorbate Hydrogen: InChIKey UFHFLCQGNIYNRP-UHFFFAOYSA-N
Temperature: 77 K
Tabular data in the source: 0
pressure (bar)	uptake (wt%)
0.0120968	0.244373
0.0262097	0.379421
0.0504032	0.501608
0.0745968	0.572347
0.0987903	0.662379
0.149194	0.726688
0.201613	0.784566
0.298387	0.855305
0.403226	0.938907
0.5	1.00322
0.75	1.11897
0.995968	1.25402
