Adsorption isotherm of Hydrogen on IRMOF-1
DOI: 10.1016/j.electacta.2013.10.190
Adsorbate Hydrogen: InChIKey UFHFLCQGNIYNRP-UHFFFAOYSA-N
Temperature: 77 K
Tabular data in the source: 0
pressure (bar)	uptake (mg/g)
0.018116	0.396901
0.0249096	0.623325
0.063406	1.64307
0.0996379	2.43687
0.131341	3.06092
0.187954	4.13901
0.199276	4.30949
0.267211	5.38877
0.335146	6.41164
0.400816	7.32141
0.47328	8.17547
0.536687	8.91572
0.600092	9.7124
0.663499	10.1705
0.794839	11.5951
0.932974	12.7946
1.00544	13.3101
