Adsorption isotherm of Hydrogen on Co14-MOF-74
DOI: 10.1016/j.electacta.2013.10.190
Adsorbate Hydrogen: InChIKey UFHFLCQGNIYNRP-UHFFFAOYSA-N
Temperature: 77 K
Tabular data in the source: 0
pressure (bar)	uptake (wt%)
0.00806452	0.559486
0.0483871	0.919614
0.0725806	1.00965
0.0987903	1.07395
0.147177	1.16399
0.199597	1.23473
0.300403	1.36334
0.40121	1.44051
0.504032	1.53698
0.747984	1.70418
0.995968	1.82637
