Adsorption isotherm of Hydrogen on Co100-MOF-74
DOI: 10.1016/j.electacta.2013.10.190
Adsorbate Hydrogen: InChIKey UFHFLCQGNIYNRP-UHFFFAOYSA-N
Temperature: 77 K
Tabular data in the source: 0
pressure (bar)	uptake (wt%)
0.0100806	0.938907
0.0262097	1.00322
0.0483871	1.09325
0.100806	1.18328
0.147177	1.26688
0.199597	1.33762
0.298387	1.45338
0.40121	1.5627
0.5	1.67203
0.75	1.83923
0.995968	1.98714
