Adsorption isotherm of Hydrogen on MOF-74
DOI: 10.1016/j.electacta.2013.10.190
Adsorbate Hydrogen: InChIKey UFHFLCQGNIYNRP-UHFFFAOYSA-N
Temperature: 77 K
Tabular data in the source: 0
pressure (bar)	uptake (wt%)
0.145018	0.725849
0.488688	1.00721
1.0335	1.27752
2.00066	1.51486
3.0075	1.65464
3.99409	1.77276
5.00069	1.86919
7.51682	2.05068
9.97222	2.16721
