Adsorption isotherm of Hydrogen on Co2(dhtp)
DOI: 10.1016/j.electacta.2013.10.190
Adsorbate Hydrogen: InChIKey UFHFLCQGNIYNRP-UHFFFAOYSA-N
Temperature: 77 K
Tabular data in the source: 0
pressure (bar)	uptake (wt%)
0.0283677	0.960698
0.120016	1.12087
0.265119	1.29625
0.381268	1.41345
0.489272	1.50165
0.617672	1.59737
0.77379	1.68626
0.983224	1.78315
