Adsorption isotherm of Hydrogen on IRMOF-9
DOI: 10.1016/j.electacta.2013.10.190
Adsorbate Hydrogen: InChIKey UFHFLCQGNIYNRP-UHFFFAOYSA-N
Temperature: 77 K
Tabular data in the source: 0
pressure (bar)	uptake (molecules/formula unit)
0.00969878	0.558994
0.0347951	1.38471
0.0675291	2.02464
0.132915	2.87897
0.198261	3.52053
0.265469	3.86962
0.332671	4.19212
0.405624	4.48831
0.474729	4.73112
0.530396	4.92007
0.674333	5.2464
0.806752	5.54555
1.01399	5.87504
