Adsorption isotherm of Hydrogen on Pt/Ac-IRMOF-1
DOI: 10.1016/j.electacta.2013.10.190
Adsorbate Hydrogen: InChIKey UFHFLCQGNIYNRP-UHFFFAOYSA-N
Temperature: 298 K
Tabular data in the source: 0
pressure (bar)	uptake (wt%)
5.24715	0.0760893
22.1293	0.380123
41.0646	0.618102
60.6844	0.95073
80.9886	1.24557
100.38	1.57818
