Adsorption isotherm of Hydrogen on Zn2(dhtp)
DOI: 10.1016/j.electacta.2013.10.190
Adsorbate Hydrogen: InChIKey UFHFLCQGNIYNRP-UHFFFAOYSA-N
Temperature: 77 K
Tabular data in the source: 0
pressure (bar)	uptake (wt%)
-0.0290808	0.201746
-0.0118206	0.577447
0.0121406	0.772738
0.050336	0.917694
0.178397	1.12893
0.302555	1.26791
0.40789	1.34885
0.515756	1.42983
0.643882	1.5111
0.804928	1.59285
1.00916	1.68244
