Adsorption isotherm of Hydrogen on Pt/Ac-IRMOF-8
DOI: 10.1016/j.electacta.2013.10.190
Adsorbate Hydrogen: InChIKey UFHFLCQGNIYNRP-UHFFFAOYSA-N
Temperature: 298 K
Tabular data in the source: 0
pressure (bar)	uptake (wt%)
5.83587	0.0474297
23.1611	0.443358
41.3982	0.736018
60	1.12265
81.3374	1.35919
101.033	1.74591
