Adsorption isotherm of Hydrogen on Zn2(NDC)2(diPyNI)-Li
DOI: 10.1016/j.electacta.2013.10.190
Adsorbate Hydrogen: InChIKey UFHFLCQGNIYNRP-UHFFFAOYSA-N
Temperature: 77 K
Tabular data in the source: 0
pressure (bar)	uptake (wt%)
0.0121511	0.108933
0.0479265	0.355253
0.163056	0.687152
0.206383	0.763094
0.265357	0.829642
0.319798	0.891435
0.367339	0.934261
0.417087	0.972363
0.469081	1.01048
0.523243	1.03913
0.570664	1.06775
0.624786	1.09168
0.674414	1.11558
0.726209	1.13002
0.775798	1.14919
0.827593	1.16363
0.881715	1.18755
0.92681	1.2067
0.983058	1.21643
