Adsorption isotherm of Hydrogen on IRMOF-9
DOI: 10.1016/j.electacta.2013.10.190
Adsorbate Hydrogen: InChIKey UFHFLCQGNIYNRP-UHFFFAOYSA-N
Temperature: 77 K
Tabular data in the source: 0
pressure (bar)	uptake (mg/g)
0.009058	1.24234
0.0339675	2.82491
0.063406	4.0694
0.129076	5.65629
0.199276	7.01795
0.269475	7.87177
0.330617	8.55536
0.400816	9.07062
0.466487	9.58541
0.529892	9.93068
0.670292	10.5098
0.801633	11.1444
1.0077	11.7869
