Adsorption isotherm of Hydrogen on Zn2(NDC)2(diPyNI)-K
DOI: 10.1016/j.electacta.2013.10.190
Adsorbate Hydrogen: InChIKey UFHFLCQGNIYNRP-UHFFFAOYSA-N
Temperature: 77 K
Tabular data in the source: 0
pressure (bar)	uptake (wt%)
0.000159533	0.0189357
0.00268548	0.0520836
0.0098246	0.0994542
0.0547067	0.360019
0.110424	0.573297
0.163336	0.72029
0.215968	0.834145
0.270609	0.919607
0.320636	0.990847
0.370623	1.05735
0.422777	1.1144
0.477137	1.16673
0.526886	1.20483
0.57896	1.25241
0.630955	1.29052
0.68287	1.31917
0.730371	1.35726
0.780038	1.38589
0.832033	1.42401
0.884028	1.46212
0.935903	1.48603
0.987817	1.51467
