Adsorption isotherm of Hydrogen on Ni2(dhtp)
DOI: 10.1016/j.electacta.2013.10.190
Adsorbate Hydrogen: InChIKey UFHFLCQGNIYNRP-UHFFFAOYSA-N
Temperature: 77 K
Tabular data in the source: 0
pressure (bar)	uptake (wt%)
0.00147187	1.01085
0.0554098	1.18492
0.181625	1.43223
0.308863	1.60013
0.412351	1.71715
0.517822	1.80531
0.643415	1.88655
0.797276	1.98985
0.998976	2.07941
