Adsorption isotherm of Hydrogen on IRMOF-8
DOI: 10.1016/j.electacta.2013.10.190
Adsorbate Hydrogen: InChIKey UFHFLCQGNIYNRP-UHFFFAOYSA-N
Temperature: 298 K
Tabular data in the source: 0
pressure (bar)	uptake (wt%)
5.10638	0.000399769
22.4316	0.105096
59.2705	0.314661
79.696	0.410206
99.7568	0.515117
