Adsorption isotherm of Hydrogen on IRMOF-1
DOI: 10.1016/j.electacta.2013.10.190
Adsorbate Hydrogen: InChIKey UFHFLCQGNIYNRP-UHFFFAOYSA-N
Temperature: 77 K
Tabular data in the source: 0
pressure (bar)	uptake (wt%)
0.016129	0.128617
0.0262097	0.173633
0.046371	0.263666
0.0745968	0.347267
0.100806	0.418006
0.149194	0.514469
0.201613	0.617363
0.300403	0.758842
0.405242	0.881029
0.502016	0.977492
0.752016	1.18328
0.995968	1.35691
