Adsorption isotherm of Hydrogen on Zn2(NDC)2(diPyNI)-Na
DOI: 10.1016/j.electacta.2013.10.190
Adsorbate Hydrogen: InChIKey UFHFLCQGNIYNRP-UHFFFAOYSA-N
Temperature: 77 K
Tabular data in the source: 0
pressure (bar)	uptake (wt%)
0.00477271	0.0331584
0.0566742	0.326892
0.116845	0.535457
0.163017	0.682418
0.215529	0.782072
0.267924	0.867524
0.322444	0.938785
0.372391	1.00056
0.422298	1.05759
0.478907	1.10993
0.526407	1.14802
0.576155	1.18612
0.630436	1.22898
0.677898	1.26234
0.732059	1.29099
0.783934	1.31491
0.833602	1.34354
0.88339	1.38638
0.933018	1.41028
0.987179	1.43893
