Adsorption isotherm of Hydrogen on Co100-MOF-74
DOI: 10.1016/j.electacta.2013.10.190
Adsorbate Hydrogen: InChIKey UFHFLCQGNIYNRP-UHFFFAOYSA-N
Temperature: 77 K
Tabular data in the source: 0
pressure (bar)	uptake (wt%)
0.0875215	1.22436
0.087833	1.27854
0.188997	1.37596
0.269977	1.46256
0.391386	1.58162
0.472491	1.68989
0.734931	1.84131
0.997434	2.00356
2.00527	2.31671
3.01261	2.54318
4.01945	2.68295
5.0061	2.81191
7.50249	3.05843
9.97832	3.22913
