Adsorption isotherm of Hydrogen on IRMOF-1
DOI: 10.1016/j.electacta.2013.10.190
Adsorbate Hydrogen: InChIKey UFHFLCQGNIYNRP-UHFFFAOYSA-N
Temperature: 298 K
Tabular data in the source: 0
pressure (bar)	uptake (wt%)
5.47529	-0.00902785
22.8137	0.105852
41.0646	0.182967
60.4563	0.269631
81.2167	0.365862
100.38	0.424129
