Adsorption isotherm of Hydrogen on Co21-MOF-5
DOI: 10.1016/j.electacta.2013.10.190
Adsorbate Hydrogen: InChIKey UFHFLCQGNIYNRP-UHFFFAOYSA-N
Temperature: 77 K
Tabular data in the source: 0
pressure (bar)	uptake (wt%)
0.0209927	0.15168
0.0219271	0.314218
0.123153	0.422467
0.204632	0.595753
0.204944	0.649933
0.265866	0.74739
0.386901	0.801438
0.488376	0.953031
0.751128	1.15863
0.993571	1.33174
2.02259	1.82908
2.99043	2.18561
3.99808	2.46626
5.00561	2.72523
7.52355	3.22095
