Adsorption isotherm of Hydrogen on Mg2(dhtp)
DOI: 10.1016/j.electacta.2013.10.190
Adsorbate Hydrogen: InChIKey UFHFLCQGNIYNRP-UHFFFAOYSA-N
Temperature: 77 K
Tabular data in the source: 0
pressure (bar)	uptake (wt%)
0.0245372	1.02563
0.0777895	1.16358
0.231174	1.37518
0.358002	1.52142
0.460804	1.60232
0.573872	1.6906
0.719861	1.77935
0.909448	1.89761
