Adsorption isotherm of Methane on SNU-77H
DOI: 10.1002/chem.201003376
Adsorbate Methane: InChIKey VNWKTOKETHGBQD-UHFFFAOYSA-N
Temperature: 231 K
Tabular data in the source: 0
pressure (bar)	uptake (cm3(STP)/g)
0.212907	3.55017
0.264191	9.40019
0.366759	11.1829
0.466219	9.00472
0.564125	28.6478
0.721086	40.2413
0.818992	42.0332
0.923114	43.8128
0.979061	49.6537
