Adsorption isotherm of Hydrogen on SNU-77H
DOI: 10.1002/chem.201003376
Adsorbate Hydrogen: InChIKey UFHFLCQGNIYNRP-UHFFFAOYSA-N
Temperature: 77 K
Tabular data in the source: 0
pressure (bar)	uptake (cm3(STP)/g)
0.0584332	35.3909
0.0845184	43.9071
0.10139	48.4918
0.153565	66.1798
0.211828	79.2757
0.262423	90.4069
0.311484	101.211
0.366658	110.701
0.418763	119.209
0.470863	127.061
0.518374	135.242
0.568946	143.422
0.616432	148.325
0.660872	155.196
0.726744	162.716
0.771167	167.291
0.777304	169.257
0.821731	174.488
0.869227	180.702
0.933554	186.255
0.976456	192.143
1.02548	198.029
