Adsorption isotherm of Methane on SNU-77H
DOI: 10.1002/chem.201003376
Adsorbate Methane: InChIKey VNWKTOKETHGBQD-UHFFFAOYSA-N
Temperature: 298 K
Tabular data in the source: 0
pressure (bar)	uptake (volume/volume)
2.12635	12.2754
5.26965	27.5449
9.79969	49.7006
14.6071	71.8563
19.6918	90.1198
22.2804	100.599
24.9615	108.383
29.7689	123.353
32.4499	129.641
34.9461	136.527
39.9384	148.204
42.9892	153.593
44.8382	157.485
50.1079	166.168
52.2342	169.76
55.0077	173.353
60	179.94
