Adsorption isotherm of Methane on SNU-77H
DOI: 10.1002/chem.201003376
Adsorbate Methane: InChIKey VNWKTOKETHGBQD-UHFFFAOYSA-N
Temperature: 298 K
Tabular data in the source: 0
pressure (bar)	uptake (volume/volume)
2.5886	12.8743
5.3621	25.1497
9.89214	44.9102
12.0185	54.1916
14.792	64.0719
19.8767	79.3413
22.3729	88.6228
24.9615	95.509
30.1387	106.886
34.7612	117.066
40.0308	125.15
42.6194	129.042
45.1156	132.036
49.8305	137.425
52.604	139.222
54.9153	141.916
60.0924	145.21
