Adsorption isotherm of Carbon Dioxide on SNU-77H
DOI: 10.1002/chem.201003376
Adsorbate Carbon Dioxide: InChIKey CURLTUGMZLYLDI-UHFFFAOYSA-N
Temperature: 298 K
Tabular data in the source: 0
pressure (bar)	uptake (wt%)
1.12496	3.06361
2.74087	9.55402
5.20005	19.1091
7.51659	31.7323
9.97312	45.7986
12.5	60.0451
17.4902	76.6286
22.4151	84.7311
25.0899	86.8869
27.483	89.0437
29.9469	90.4784
32.4112	91.3717
35.0163	92.2646
37.6921	92.6158
40.0158	93.1488
42.4099	93.5011
44.8748	93.3117
