Adsorption isotherm of Carbon Dioxide on SNU-77H
DOI: 10.1002/chem.201003376
Adsorbate Carbon Dioxide: InChIKey CURLTUGMZLYLDI-UHFFFAOYSA-N
Temperature: 231 K
Tabular data in the source: 0
pressure (bar)	uptake (cm3(STP)/g)
0.110339	31.5195
0.158515	47.293
0.206691	61.083
0.257975	78.8338
0.310813	86.6643
0.355881	98.4769
0.407165	120.195
0.458449	135.962
0.509733	157.68
0.564125	177.408
0.612301	209.049
0.662031	240.688
0.713316	310.009
0.738181	359.547
0.769262	430.891
0.811222	520.065
0.874938	591.345
0.912236	615.074
0.96352	634.808
1.0148	658.509
