Adsorption isotherm of Nitrogen on SNU-77H
DOI: 10.1002/chem.201003376
Adsorbate Nitrogen: InChIKey IJGRMHOSHXDMSA-UHFFFAOYSA-N
Temperature: 77 K
Tabular data in the source: 0
pressure (bar)	uptake (cm3(STP)/g)
0.00273678	60.7541
0.00373642	406.322
0.00502706	503.155
0.00526031	303.787
0.00612222	767.077
0.00624662	660.747
0.0172848	825.916
0.0242534	869.573
0.0410717	894.224
0.0719272	920.746
0.10139	937.777
0.139276	954.791
0.196822	967.97
0.250158	979.258
0.289464	982.979
0.342804	990.469
0.39054	988.477
0.43966	1003.57
0.494407	1009.16
0.544944	1012.86
0.587058	1016.57
0.639001	1018.37
0.689536	1023.97
0.733058	1023.88
0.784997	1029.48
0.825697	1040.79
0.886058	1048.27
