Adsorption isotherm of Hydrogen on SNU-77H
DOI: 10.1002/chem.201003376
Adsorbate Hydrogen: InChIKey UFHFLCQGNIYNRP-UHFFFAOYSA-N
Temperature: 298 K
Tabular data in the source: 0
pressure (bar)	uptake (wt%)
4.6523	0.0940439
9.74042	0.169279
15.2641	0.206897
20.7888	0.319749
50.7354	0.714734
65.563	0.884013
75.4481	0.996865
89.695	1.22257
