Adsorption isotherm of Hydrogen on SNU-77H
DOI: 10.1002/chem.201003376
Adsorbate Hydrogen: InChIKey UFHFLCQGNIYNRP-UHFFFAOYSA-N
Temperature: 77 K
Tabular data in the source: 0
pressure (bar)	uptake (wt%)
0.890091	1.48589
1.9171	2.27586
5.12981	3.51724
6.73571	4.10031
12.1259	5.11599
15.3272	5.41693
24.7852	6.26332
30.4579	6.60188
35.4027	6.84639
41.2189	7.03448
49.9435	7.33542
60.2658	7.54232
69.7164	7.78683
79.8931	7.97492
90.0693	8.12539
