Adsorption isotherm of Hydrogen on SNU-77R
DOI: 10.1002/chem.201003376
Adsorbate Hydrogen: InChIKey UFHFLCQGNIYNRP-UHFFFAOYSA-N
Temperature: 77 K
Tabular data in the source: 0
pressure (bar)	uptake (cm3(STP)/g)
0.0492372	33.7546
0.0707306	42.2722
0.0876097	47.8405
0.109093	55.0467
0.155124	69.7859
0.207256	81.9001
0.253262	93.3607
0.313037	104.161
0.360556	113.326
0.41725	121.504
0.46782	129.357
0.515331	137.538
0.568949	143.75
0.617983	150.948
0.673131	157.159
0.717561	162.719
0.769659	170.243
0.829392	175.469
0.873816	180.373
0.876872	179.716
