Adsorption isotherm of Hydrogen on SNU-77H
DOI: 10.1002/chem.201003376
Adsorbate Hydrogen: InChIKey UFHFLCQGNIYNRP-UHFFFAOYSA-N
Temperature: 298 K
Tabular data in the source: 0
pressure (bar)	uptake (wt%)
5.08766	0.0376176
10.0298	0.0564263
14.9721	0.0940439
20.6407	0.0940439
30.0895	0.188088
37.7937	0.244514
43.3174	0.282132
50.4397	0.30094
59.1611	0.338558
69.7722	0.394984
75.1504	0.413793
80.2376	0.413793
90.1224	0.507837
