Adsorption isotherm of Hydrogen on SNU-77H
DOI: 10.1002/chem.201003376
Adsorbate Hydrogen: InChIKey UFHFLCQGNIYNRP-UHFFFAOYSA-N
Temperature: 87 K
Tabular data in the source: 0
pressure (bar)	uptake (cm3(STP)/g)
0.0950167	15.707
0.148708	31.4273
0.196211	38.625
0.246773	45.4939
0.34941	56.9361
0.366267	59.5536
0.499533	73.281
0.560791	77.8513
0.672599	87.6512
0.767548	94.5057
0.81809	98.7517
0.865571	102.999
0.917631	105.605
0.977344	108.208
