Adsorption isotherm of Carbon Dioxide on SNU-77H
DOI: 10.1002/chem.201003376
Adsorbate Carbon Dioxide: InChIKey CURLTUGMZLYLDI-UHFFFAOYSA-N
Temperature: 195 K
Tabular data in the source: 0
pressure (bar)	uptake (cm3(STP)/g)
0.0450679	43.5481
0.0870276	79.1685
0.125879	122.729
0.138312	136.589
0.156961	168.288
0.172501	231.728
0.175609	424.119
0.184934	586.745
0.189596	679.959
0.259529	747.261
0.33257	774.886
0.357435	788.722
0.388516	788.661
0.413381	794.563
0.456895	798.444
0.509733	808.258
0.564125	816.086
0.613855	821.939
0.668248	831.75
0.716424	833.639
0.767708	841.472
0.817438	845.342
0.870276	847.222
0.918452	851.095
0.972844	856.939
1.0148	860.823
