Adsorption isotherm of Oxygen on SNU-77H
DOI: 10.1002/chem.201003376
Adsorbate Oxygen: InChIKey MYMOFIZGZYHOMD-UHFFFAOYSA-N
Temperature: 77 K
Tabular data in the source: 0
pressure (bar)	uptake (cm3(STP)/g)
0.00155406	856.856
0.00310813	245.944
0.00466219	333.214
0.00621626	987.756
0.0124325	1080.97
0.024865	1096.81
0.0341894	1118.61
0.0450679	1138.42
0.0745951	1148.28
0.0854735	1172.06
0.113447	1183.91
0.147636	1191.78
0.172501	1195.7
0.202028	1197.62
0.225339	1205.51
