Adsorption isotherm of Hydrogen on SNU-77S
DOI: 10.1002/chem.201003376
Adsorbate Hydrogen: InChIKey UFHFLCQGNIYNRP-UHFFFAOYSA-N
Temperature: 77 K
Tabular data in the source: 0
pressure (bar)	uptake (cm3(STP)/g)
0.0231294	22.2876
0.0354318	29.8246
0.0477091	34.0829
0.0584734	40.6368
0.0661564	44.5688
0.083033	49.8092
0.106085	61.9329
0.259437	100.244
0.308486	109.408
0.356007	118.901
0.411178	128.064
0.457156	135.918
0.513845	143.44
0.567471	150.636
0.614967	156.85
0.670113	162.734
0.722205	169.602
0.777342	174.175
0.823309	180.717
0.875384	185.291
0.924398	189.865
0.984131	195.091
1.02549	199.668
