Adsorption isotherm of Hydrogen on SNU-77S
DOI: 10.1002/chem.201003376
Adsorbate Hydrogen: InChIKey UFHFLCQGNIYNRP-UHFFFAOYSA-N
Temperature: 87 K
Tabular data in the source: 0
pressure (bar)	uptake (cm3(STP)/g)
0.0199227	3.27224
0.0214784	6.55043
0.0414136	11.462
0.0521378	12.77
0.0689993	16.0432
0.0843453	21.2842
0.107329	24.5554
0.154838	32.4089
0.203871	39.6062
0.252905	46.8034
0.304985	52.0325
0.360137	58.572
0.412224	64.7846
0.455113	69.0331
0.510254	74.2611
0.560799	78.8349
0.614395	82.0963
0.669523	85.685
0.715481	90.916
0.769074	93.8495
0.818088	98.4238
0.868625	102.014
0.925279	104.946
0.985007	109.517
1.02023	111.473
