Adsorption isotherm of Methane on SNU-77H
DOI: 10.1002/chem.201003376
Adsorbate Methane: InChIKey VNWKTOKETHGBQD-UHFFFAOYSA-N
Temperature: 273 K
Tabular data in the source: 0
pressure (bar)	uptake (cm3(STP)/g)
0.125879	3.72053
0.225339	1.54236
0.327908	1.34158
0.696221	4.58754
0.890479	2.2238
0.918452	4.15251
0.972844	8.01298
1.01636	9.91127
