Adsorption isotherm of Carbon Dioxide on SNU-77H
DOI: 10.1002/chem.201003376
Adsorbate Carbon Dioxide: InChIKey CURLTUGMZLYLDI-UHFFFAOYSA-N
Temperature: 298 K
Tabular data in the source: 0
pressure (bar)	uptake (wt%)
5.05847	20.3727
9.97122	49.0467
12.639	63.1123
15.2384	73.7495
17.418	79.6965
22.6237	89.2417
27.5498	95.1788
30.0138	96.433
32.5478	98.5893
34.9413	100.024
37.5459	101.819
40.0104	102.352
42.4042	103.245
44.9387	104.499
