Adsorption isotherm of Nitrogen on SNU-77S
DOI: 10.1002/chem.201003376
Adsorbate Nitrogen: InChIKey IJGRMHOSHXDMSA-UHFFFAOYSA-N
Temperature: 77 K
Tabular data in the source: 0
pressure (bar)	uptake (cm3(STP)/g)
0.00265015	134.805
0.0037964	355.056
0.00504483	487.965
0.00759502	708.213
0.00763722	672.137
0.0103518	751.879
0.0116846	812.635
0.024269	856.282
0.0481047	882.817
0.0677376	901.766
0.094399	913.107
0.147728	930.091
0.191244	935.702
0.240375	941.302
0.292316	944.998
0.341447	950.599
0.396196	954.289
0.446733	957.988
0.488847	961.703
0.53939	959.705
0.591329	965.3
0.636251	969.01
0.688199	967.009
0.737334	968.812
0.780849	974.423
0.839812	976.207
