Adsorption isotherm of Hydrogen on SNU-77H
DOI: 10.1002/chem.201003376
Adsorbate Hydrogen: InChIKey UFHFLCQGNIYNRP-UHFFFAOYSA-N
Temperature: 77 K
Tabular data in the source: 0
pressure (bar)	uptake (wt%)
1.03544	1.48589
4.55092	3.72414
7.46587	4.38245
12.5665	5.49216
15.0427	5.92476
24.9412	7.14734
30.4697	7.57994
35.2719	8.05016
40.653	8.31348
50.2545	9.0094
60.5813	9.59248
69.3072	10.0063
80.2152	10.5705
90.1037	10.9655
