Adsorption isotherm of Carbon Dioxide on SNU-77R
DOI: 10.1002/chem.201003376
Adsorbate Carbon Dioxide: InChIKey CURLTUGMZLYLDI-UHFFFAOYSA-N
Temperature: 77 K
Tabular data in the source: 0
pressure (bar)	uptake (cm3(STP)/g)
0.00268125	108.223
0.00350539	603.791
0.00360091	522.145
0.00376752	379.739
0.0144992	806.934
0.0285096	831.59
0.043924	856.243
0.0635591	873.294
0.104247	895.999
0.151965	909.197
0.194074	916.709
0.25303	924.189
0.299358	925.997
0.348482	937.294
0.400423	940.99
0.443954	933.31
0.491688	933.216
0.540819	938.816
0.59136	938.718
0.634882	938.633
0.686821	944.227
0.733153	942.238
0.783702	936.443
0.837053	934.44
0.886178	945.736
