Adsorption isotherm of Hydrogen on SNU-77R
DOI: 10.1002/chem.201003376
Adsorbate Hydrogen: InChIKey UFHFLCQGNIYNRP-UHFFFAOYSA-N
Temperature: 87 K
Tabular data in the source: 0
pressure (bar)	uptake (cm3(STP)/g)
0.056732	13.0964
0.10426	23.5728
0.150238	31.4268
0.211534	40.9152
0.263637	49.095
0.315717	54.3241
0.369335	60.5362
0.403038	64.4597
0.419895	67.0772
0.455123	70.3445
0.470434	70.9953
0.502609	75.2472
0.520986	76.5527
0.551625	80.1494
0.569992	80.1434
0.606754	83.7381
0.620537	84.7172
0.658827	87.9835
0.675673	89.2896
0.704774	91.9031
0.721618	92.8813
0.755324	97.1326
0.776752	97.1257
0.808922	100.722
0.827289	100.716
0.85639	103.329
0.883941	103.321
0.913054	107.573
0.932952	107.567
0.962058	110.836
0.978895	110.831
1.02332	115.734
