Adsorption isotherm of Propene on Zeolite 13X
DOI: 10.1021/Ie0705655
Adsorbate Propene: InChIKey QQONPFPTGQHPMA-UHFFFAOYSA-N
Temperature: 323 K
Tabular data in the source: 0
pressure (bar)	uptake (molecules/unitcell)
0.0387156	32.1134
0.0789973	32.6064
0.159561	35.6346
0.331533	39.0853
0.501955	40.2825
0.635194	41.1979
0.797871	41.6205
0.90942	42.2543
1.03181	42.1134
