Adsorption isotherm of Propene on Zeolite 13X
DOI: 10.1021/Ie0705655
Adsorbate Propene: InChIKey QQONPFPTGQHPMA-UHFFFAOYSA-N
Temperature: 323 K
Tabular data in the source: 0
pressure (bar)	uptake (molecules/unitcell)
0.0123776	25.9163
0.0340677	31.2684
0.0805466	34.2261
0.156462	36.7613
0.323786	38.5219
0.492659	39.5078
0.632096	40.0712
0.797871	40.5641
0.903223	40.7754
1.02872	41.2684
