Adsorption isotherm of Propene on Zeolite 13X
DOI: 10.1021/Ie0705655
Adsorbate Propene: InChIKey QQONPFPTGQHPMA-UHFFFAOYSA-N
Temperature: 323 K
Tabular data in the source: 0
pressure (bar)	uptake (molecules/unitcell)
0.0170255	26.6205
0.0402649	31.9022
0.0805466	35.0008
0.159561	37.1839
0.333082	39.367
0.498856	40.0712
0.632096	40.9163
0.793223	41.6909
0.90942	41.7613
1.02562	42.1134
