Adsorption isotherm of Propene on Zeolite 13X
DOI: 10.1021/Ie0705655
Adsorbate Propene: InChIKey QQONPFPTGQHPMA-UHFFFAOYSA-N
Temperature: 303 K
Tabular data in the source: 0
pressure (bar)	uptake (molecules/unitcell)
0.00927901	20.212
0.0201241	27.8177
0.0619551	36.6205
0.147166	41.1275
0.266462	45.212
0.370265	45.2825
0.613504	45.9163
0.847448	47.1839
1.00238	48.381
