Adsorption isotherm of N-propane on Zeolite 13X
DOI: 10.1021/Ie0705655
Adsorbate N-propane: InChIKey ATUOYWHBWRKTHZ-UHFFFAOYSA-N
Temperature: 303 K
Tabular data in the source: 0
pressure (bar)	uptake (molecules/unitcell)
0.00772971	5.70499
0.0201241	15.9867
0.0309691	20.8458
0.0666029	26.1979
0.0944903	28.2402
0.176603	31.4092
0.319138	33.3106
0.481814	34.9303
0.599561	35.2825
0.850547	35.6346
0.9528	35.9163
