Adsorption isotherm of N-propane on Zeolite 13X
DOI: 10.1021/Ie0705655
Adsorbate N-propane: InChIKey ATUOYWHBWRKTHZ-UHFFFAOYSA-N
Temperature: 373 K
Tabular data in the source: 0
pressure (bar)	uptake (molecules/unitcell)
0.0481458	3.04808
0.0827553	3.97767
0.122084	6.69494
0.207035	10.4133
0.336034	13.4166
0.411545	15.4903
0.494922	17.4925
0.583019	18.7797
0.672689	19.9953
0.762359	21.2824
0.880346	22.069
0.93698	22.212
1.04081	23.1416
