Adsorption isotherm of Propene on Zeolite 13X
DOI: 10.1021/Ie0705655
Adsorbate Propene: InChIKey QQONPFPTGQHPMA-UHFFFAOYSA-N
Temperature: 343 K
Tabular data in the source: 0
pressure (bar)	uptake (molecules/unitcell)
0.0480114	26.0571
0.0728001	30.705
0.209138	33.4515
0.334631	35.2825
0.483364	37.2543
0.619702	38.1698
0.740547	40.1416
0.90942	40.5641
1.01167	41.4092
