Adsorption isotherm of N-propane on Zeolite 13X
DOI: 10.1021/Ie0705655
Adsorbate N-propane: InChIKey ATUOYWHBWRKTHZ-UHFFFAOYSA-N
Temperature: 473 K
Tabular data in the source: 0
pressure (bar)	uptake (molecules/unitcell)
0.0418532	0.75985
0.111072	1.54643
0.186584	2.2615
0.306144	3.40561
0.452447	4.2637
0.605043	5.33631
0.719884	6.19439
0.823712	6.48042
0.924394	7.33851
1.02665	8.48262
