Adsorption isotherm of N-propane on Zeolite 13X
DOI: 10.1021/Ie0705655
Adsorbate N-propane: InChIKey ATUOYWHBWRKTHZ-UHFFFAOYSA-N
Temperature: 343 K
Tabular data in the source: 0
pressure (bar)	uptake (molecules/unitcell)
0.0324142	5.62234
0.0748895	10.4848
0.114218	14.5607
0.199169	18.4221
0.247937	20.4243
0.30457	22.4265
0.477618	24.7147
0.653811	25.6443
0.779664	26.6454
0.921248	28.1471
1.03609	28.0756
