Adsorption isotherm of Propene on Zeolite 13X
DOI: 10.1021/Ie0705655
Adsorbate Propene: InChIKey QQONPFPTGQHPMA-UHFFFAOYSA-N
Temperature: 373 K
Tabular data in the source: 0
pressure (bar)	uptake (molecules/unitcell)
0.035617	13.3106
0.0820959	20.6346
0.1828	27.3247
0.277307	29.7191
0.407448	31.6909
0.503504	33.4515
1.00857	36.4796
