Adsorption isotherm of N-propane on Zeolite 13X
DOI: 10.1021/Ie0705655
Adsorbate N-propane: InChIKey ATUOYWHBWRKTHZ-UHFFFAOYSA-N
Temperature: 303 K
Tabular data in the source: 0
pressure (bar)	uptake (molecules/unitcell)
0.00674227	5.70499
0.0118127	9.85992
0.0168831	17.3951
0.0625169	26.8317
0.0946296	29.2261
0.175756	32.536
0.317728	34.6487
0.483362	35.9867
0.719982	36.7613
0.851813	37.7472
0.961672	37.8881
1.04787	38.3106
