Adsorption isotherm of Propene on Zeolite 13X
DOI: 10.1021/Ie0705655
Adsorbate Propene: InChIKey QQONPFPTGQHPMA-UHFFFAOYSA-N
Temperature: 303 K
Tabular data in the source: 0
pressure (bar)	uptake (molecules/unitcell)
0.00308182	31.4796
0.00927901	35.1416
0.0294199	37.7472
0.0542086	39.6487
0.148716	41.8317
0.261814	43.0289
0.360969	43.3106
0.605758	43.9444
0.844349	44.5782
0.99618	45.1416
