Adsorption isotherm of N-propane on Zeolite 13X
DOI: 10.1021/Ie0705655
Adsorbate N-propane: InChIKey ATUOYWHBWRKTHZ-UHFFFAOYSA-N
Temperature: 423 K
Tabular data in the source: 0
pressure (bar)	uptake (molecules/unitcell)
0.0670237	1.47492
0.150401	3.47712
0.235352	4.76425
0.33446	6.05138
0.450874	6.98097
0.575153	8.84016
0.707299	10.1988
0.815847	12.1295
0.924394	12.9876
1.0235	13.4881
