Adsorption isotherm of N-propane on Zeolite 13X
DOI: 10.1021/Ie0705655
Adsorbate N-propane: InChIKey ATUOYWHBWRKTHZ-UHFFFAOYSA-N
Temperature: 423 K
Tabular data in the source: 0
pressure (bar)	uptake (molecules/unitcell)
0.0591579	1.61794
0.144108	3.33411
0.233778	4.62124
0.33446	6.2659
0.446155	7.55303
0.564141	9.2692
0.701006	10.8424
0.811127	12.487
0.922821	13.4881
1.02036	13.8457
