Adsorption isotherm of Propene on Zeolite 13X
DOI: 10.1021/Ie0705655
Adsorbate Propene: InChIKey QQONPFPTGQHPMA-UHFFFAOYSA-N
Temperature: 473 K
Tabular data in the source: 0
pressure (bar)	uptake (molecules/unitcell)
0.0325184	3.09935
0.159561	8.2402
0.252518	10.3529
0.353223	12.1134
0.413645	13.2402
0.582518	15.7754
0.672378	16.9022
0.771533	18.0994
0.853645	19.5078
0.954349	20.8458
1.03491	21.4796
