Adsorption isotherm of N-propane on Zeolite 13X
DOI: 10.1021/Ie0705655
Adsorbate N-propane: InChIKey ATUOYWHBWRKTHZ-UHFFFAOYSA-N
Temperature: 303 K
Tabular data in the source: 0
pressure (bar)	uptake (molecules/unitcell)
0.00308182	5.35287
0.00772971	11.0571
0.0201241	17.3951
0.0449128	25.2825
0.0867438	29.2965
0.123927	30.9163
0.170406	32.2543
0.238575	33.3106
0.395054	34.5078
0.594913	35.212
0.845899	35.9163
0.9528	36.3388
1.04576	36.4796
