Adsorption isotherm of Propene on Zeolite 13X
DOI: 10.1021/Ie0705655
Adsorbate Propene: InChIKey QQONPFPTGQHPMA-UHFFFAOYSA-N
Temperature: 473 K
Tabular data in the source: 0
pressure (bar)	uptake (molecules/unitcell)
0.0371663	2.6064
0.0913917	4.57823
0.159561	6.97259
0.252518	9.15569
0.356321	10.9163
0.415195	12.043
0.57942	14.367
0.670828	15.8458
0.768434	17.043
0.853645	18.0289
0.946603	18.8036
1.03491	19.5078
