Adsorption isotherm of Propene on Zeolite 13X
DOI: 10.1021/Ie0705655
Adsorbate Propene: InChIKey QQONPFPTGQHPMA-UHFFFAOYSA-N
Temperature: 343 K
Tabular data in the source: 0
pressure (bar)	uptake (molecules/unitcell)
0.0154762	18.1698
0.0294199	23.6627
0.05111	27.3951
0.0712508	29.8599
0.105335	32.1839
0.213786	35.3529
0.326885	36.9726
0.478716	38.1698
0.615054	38.874
0.737448	39.5078
0.90942	40.0008
1.00857	40.4233
