Adsorption isotherm of N-propane on Zeolite 13X
DOI: 10.1021/Ie0705655
Adsorbate N-propane: InChIKey ATUOYWHBWRKTHZ-UHFFFAOYSA-N
Temperature: 303 K
Tabular data in the source: 0
pressure (bar)	uptake (molecules/unitcell)
0.00843241	5.4233
0.015193	9.93034
0.0320944	21.1979
0.0625169	26.6205
0.133503	30.5641
0.177446	32.043
0.241672	32.7472
0.321108	34.0148
0.486742	34.9303
0.853503	36.1979
0.961672	36.5501
1.04787	36.8317
