Adsorption isotherm of Propene on Zeolite 13X
DOI: 10.1021/Ie0705655
Adsorbate Propene: InChIKey QQONPFPTGQHPMA-UHFFFAOYSA-N
Temperature: 303 K
Tabular data in the source: 0
pressure (bar)	uptake (molecules/unitcell)
0.00843241	12.3951
0.0101226	26.1275
0.0320944	37.536
0.148714	41.6909
0.373503	45.9867
0.839982	48.3106
1.00055	49.0148
