Adsorption isotherm of N-propane on Zeolite 13X
DOI: 10.1021/Ie0705655
Adsorbate N-propane: InChIKey ATUOYWHBWRKTHZ-UHFFFAOYSA-N
Temperature: 323 K
Tabular data in the source: 0
pressure (bar)	uptake (molecules/unitcell)
0.0170255	3.2402
0.0185748	7.11344
0.0278706	10.9163
0.0433635	15.3529
0.0635044	18.381
0.092941	21.8317
0.130124	24.0148
0.215335	26.5501
0.364068	28.7332
0.455476	29.7191
0.567025	30.2825
0.802518	31.6909
0.910969	31.9726
1.03646	32.3951
