Adsorption isotherm of N-propane on Zeolite 13X
DOI: 10.1021/Ie0705655
Adsorbate N-propane: InChIKey ATUOYWHBWRKTHZ-UHFFFAOYSA-N
Temperature: 373 K
Tabular data in the source: 0
pressure (bar)	uptake (molecules/unitcell)
0.0464621	2.95851
0.0851945	4.78949
0.120828	6.33879
0.162659	8.38104
0.263364	11.7613
0.33773	13.4515
0.408997	15.212
0.49111	16.7613
0.664631	19.367
0.773082	20.6346
0.93111	21.4796
1.03956	22.1839
