Adsorption isotherm of N-propane on Zeolite 13X
DOI: 10.1021/Ie0705655
Adsorbate N-propane: InChIKey ATUOYWHBWRKTHZ-UHFFFAOYSA-N
Temperature: 323 K
Tabular data in the source: 0
pressure (bar)	uptake (molecules/unitcell)
0.0201241	7.88809
0.0449128	14.4374
0.0712508	19.9303
0.0975889	22.6064
0.170406	25.9163
0.216885	27.536
0.274209	28.8036
0.458575	30.7754
0.577871	32.1839
0.708011	32.1134
0.912518	33.0994
1.03801	34.0853
