Adsorption isotherm of N-propane on Zeolite 13X
DOI: 10.1021/Ie0705655
Adsorbate N-propane: InChIKey ATUOYWHBWRKTHZ-UHFFFAOYSA-N
Temperature: 303 K
Tabular data in the source: 0
pressure (bar)	uptake (molecules/unitcell)
0.00618041	5.49372
0.0139269	10.0008
0.0495607	25.6346
0.0898424	28.9444
0.128575	31.3388
0.176603	32.536
0.31449	34.6487
0.483364	35.0008
0.598011	35.5641
0.848997	36.4092
0.955899	37.3951
1.04421	37.536
