Adsorption isotherm of N-propane on Zeolite 13X
DOI: 10.1021/Ie0705655
Adsorbate N-propane: InChIKey ATUOYWHBWRKTHZ-UHFFFAOYSA-N
Temperature: 473 K
Tabular data in the source: 0
pressure (bar)	uptake (molecules/unitcell)
0.100687	1.6909
0.1828	2.32471
0.309842	3.38104
0.444631	4.5078
0.607307	5.56414
0.712659	6.55006
0.82111	7.18386
0.921814	8.02893
1.02717	8.73316
