Adsorption isotherm of Propene on Zeolite 13X
DOI: 10.1021/Ie0705655
Adsorbate Propene: InChIKey QQONPFPTGQHPMA-UHFFFAOYSA-N
Temperature: 423 K
Tabular data in the source: 0
pressure (bar)	uptake (molecules/unitcell)
0.0325184	5.28245
0.0836452	9.15569
0.122378	11.2684
0.22618	15.1416
0.325335	18.0289
0.399702	19.5782
0.500406	21.4092
0.641392	23.7332
0.748293	24.7895
0.856744	26.1275
1.00548	27.3951
