Adsorption isotherm of N-propane on Zeolite 13X
DOI: 10.1021/Ie0705655
Adsorbate N-propane: InChIKey ATUOYWHBWRKTHZ-UHFFFAOYSA-N
Temperature: 323 K
Tabular data in the source: 0
pressure (bar)	uptake (molecules/unitcell)
0.0276947	5.33631
0.0449995	12.7731
0.0654505	15.8479
0.0969137	19.9238
0.134669	22.641
0.169279	23.2846
0.218047	24.7147
0.276254	26.5024
0.460313	28.5046
0.710445	30.2923
0.804834	30.3638
1.03609	31.5079
