Adsorption isotherm of N-propane on Zeolite 13X
DOI: 10.1021/Ie0705655
Adsorbate N-propane: InChIKey ATUOYWHBWRKTHZ-UHFFFAOYSA-N
Temperature: 423 K
Tabular data in the source: 0
pressure (bar)	uptake (molecules/unitcell)
0.0867438	2.46555
0.150265	3.94442
0.237025	5.77541
0.340828	6.97259
0.450828	7.67682
0.574772	9.85992
0.706462	11.6909
0.82111	12.6064
0.926462	14.0853
1.02252	14.7191
