Adsorption isotherm of Propene on Zeolite 13X
DOI: 10.1021/Ie0705655
Adsorbate Propene: InChIKey QQONPFPTGQHPMA-UHFFFAOYSA-N
Temperature: 473 K
Tabular data in the source: 0
pressure (bar)	uptake (molecules/unitcell)
0.00463112	1.40921
0.0371663	3.02893
0.0851945	5.14161
0.164209	7.46555
0.24942	9.57823
0.419842	12.7472
0.584068	14.9303
0.672378	16.3388
0.769983	17.3951
0.852096	18.381
0.9528	19.5078
1.03646	20.6346
