Adsorption isotherm of Propene on Zeolite 13X
DOI: 10.1021/Ie0705655
Adsorbate Propene: InChIKey QQONPFPTGQHPMA-UHFFFAOYSA-N
Temperature: 373 K
Tabular data in the source: 0
pressure (bar)	uptake (molecules/unitcell)
0.00463112	8.38104
0.0325184	12.8881
0.0789973	19.5782
0.181251	25.9867
0.280406	29.1557
0.407448	31.1275
0.501955	32.1839
0.636744	33.2402
0.740547	34.4374
0.844349	35.1416
1.01167	36.1275
