Adsorption isotherm of N-propane on Zeolite 13X
DOI: 10.1021/Ie0705655
Adsorbate N-propane: InChIKey ATUOYWHBWRKTHZ-UHFFFAOYSA-N
Temperature: 303 K
Tabular data in the source: 0
pressure (bar)	uptake (molecules/unitcell)
0.00674227	5.70499
0.0135028	9.64865
0.0202634	15.7754
0.0320944	20.705
0.0658972	26.0571
0.0912493	28.0289
0.130123	29.6486
0.241672	31.6909
0.317728	33.2402
0.483362	34.6487
0.718292	35.1416
0.851813	35.6346
0.959982	35.9163
1.04449	36.1275
