Adsorption isotherm of Propene on Zeolite 13X
DOI: 10.1021/Ie0705655
Adsorbate Propene: InChIKey QQONPFPTGQHPMA-UHFFFAOYSA-N
Temperature: 473 K
Tabular data in the source: 0
pressure (bar)	uptake (molecules/unitcell)
0.0309691	3.16978
0.0867438	5.49372
0.156462	7.39513
0.241673	9.29654
0.669279	16.8317
0.847448	18.7332
0.951251	20.6346
1.03801	20.9867
