Adsorption isotherm of N-propane on Zeolite 13X
DOI: 10.1021/Ie0705655
Adsorbate N-propane: InChIKey ATUOYWHBWRKTHZ-UHFFFAOYSA-N
Temperature: 473 K
Tabular data in the source: 0
pressure (bar)	uptake (molecules/unitcell)
0.0681522	1.33879
0.187448	2.6064
0.305194	3.45147
0.453927	5.00076
0.607307	5.98668
0.712659	6.83175
0.825758	7.88809
0.923364	8.66273
1.02872	9.01485
