Adsorption isotherm of N-propane on Zeolite 13X
DOI: 10.1021/Ie0705655
Adsorbate N-propane: InChIKey ATUOYWHBWRKTHZ-UHFFFAOYSA-N
Temperature: 423 K
Tabular data in the source: 0
pressure (bar)	uptake (molecules/unitcell)
0.0526593	1.12752
0.148716	3.16978
0.233927	4.57823
0.333082	5.98668
0.44773	7.53597
0.565476	9.36696
0.700265	11.0571
0.814913	12.3247
0.926462	13.3106
1.02252	14.2261
