Adsorption isotherm of N-propane on Zeolite 13X
DOI: 10.1021/Ie0705655
Adsorbate N-propane: InChIKey ATUOYWHBWRKTHZ-UHFFFAOYSA-N
Temperature: 373 K
Tabular data in the source: 0
pressure (bar)	uptake (molecules/unitcell)
0.0481458	2.40451
0.0796089	4.2637
0.120511	6.2659
0.202315	9.41222
0.33446	13.2021
0.408399	14.9183
0.493349	16.3484
0.583019	17.7786
0.776518	19.8523
0.880346	20.7103
0.93698	21.1394
1.04081	21.7114
