Adsorption isotherm of N-propane on Zeolite 13X
DOI: 10.1021/Ie0705655
Adsorbate N-propane: InChIKey ATUOYWHBWRKTHZ-UHFFFAOYSA-N
Temperature: 303 K
Tabular data in the source: 0
pressure (bar)	uptake (molecules/unitcell)
0.00927901	5.00076
0.0108283	11.1275
0.0201241	17.043
0.0325184	22.4656
0.0619551	27.1839
0.125476	30.9163
0.241673	33.3106
0.396603	34.7895
0.477166	34.0148
0.593364	35.6346
0.847448	36.2684
0.954349	36.4796
1.04731	36.6909
