Adsorption isotherm of Propene on Zeolite 13X
DOI: 10.1021/Ie0705655
Adsorbate Propene: InChIKey QQONPFPTGQHPMA-UHFFFAOYSA-N
Temperature: 343 K
Tabular data in the source: 0
pressure (bar)	uptake (molecules/unitcell)
0.0108283	17.7472
0.024772	22.3247
0.0418142	26.8317
0.0681522	29.367
0.105335	31.8317
0.213786	34.8599
0.325335	36.2684
0.478716	37.3951
0.615054	38.0994
0.742096	38.874
0.904772	39.367
1.00857	39.5782
