Adsorption isotherm of N-propane on Zeolite 13X
DOI: 10.1021/Ie0705655
Adsorbate N-propane: InChIKey ATUOYWHBWRKTHZ-UHFFFAOYSA-N
Temperature: 373 K
Tabular data in the source: 0
pressure (bar)	uptake (molecules/unitcell)
0.0449128	2.6064
0.0836452	4.36696
0.16111	7.95851
0.264913	11.4796
0.333082	13.1698
0.412096	15.0008
0.582518	17.9585
0.672378	19.0853
0.77773	20.2825
0.879983	20.9867
0.937307	21.4092
1.04266	22.1839
