Adsorption isotherm of Propene on Zeolite 13X
DOI: 10.1021/Ie0705655
Adsorbate Propene: InChIKey QQONPFPTGQHPMA-UHFFFAOYSA-N
Temperature: 303 K
Tabular data in the source: 0
pressure (bar)	uptake (molecules/unitcell)
0.00927901	31.9022
0.0139269	35.8458
0.0309691	38.5923
0.0619551	39.9303
0.150265	42.2543
0.258716	43.4515
0.370265	43.9444
0.607307	44.9303
0.8428	45.4937
1.00083	45.705
