Adsorption isotherm of Propene on Zeolite 13X
DOI: 10.1021/Ie0705655
Adsorbate Propene: InChIKey QQONPFPTGQHPMA-UHFFFAOYSA-N
Temperature: 323 K
Tabular data in the source: 0
pressure (bar)	uptake (molecules/unitcell)
0.0464621	28.6627
0.0867438	33.381
0.331533	40.4937
0.500406	41.9726
0.635194	42.7472
0.797871	43.6627
0.912518	44.9303
1.03646	44.8599
