Adsorption isotherm of Propene on Zeolite 13X
DOI: 10.1021/Ie0705655
Adsorbate Propene: InChIKey QQONPFPTGQHPMA-UHFFFAOYSA-N
Temperature: 303 K
Tabular data in the source: 0
pressure (bar)	uptake (molecules/unitcell)
0.00336199	0.141607
0.00674227	15.212
0.015193	35.6346
0.0320944	37.4655
0.0625169	38.3106
0.153785	43.0289
0.267024	44.8599
0.375193	45.4233
0.613503	46.9022
0.848432	47.6768
1.00393	49.0853
