Adsorption isotherm of N-propane on Zeolite 13X
DOI: 10.1021/Ie0705655
Adsorbate N-propane: InChIKey ATUOYWHBWRKTHZ-UHFFFAOYSA-N
Temperature: 343 K
Tabular data in the source: 0
pressure (bar)	uptake (molecules/unitcell)
0.0232227	3.2402
0.0464621	6.47964
0.0758987	10.0712
0.108434	13.1698
0.201392	18.381
0.309842	21.4092
0.396603	22.6768
0.481814	23.3106
0.570124	24.367
0.783927	25.9163
0.920265	27.043
1.03956	27.2543
