Adsorption isotherm of N-propane on Zeolite 13X
DOI: 10.1021/Ie0705655
Adsorbate N-propane: InChIKey ATUOYWHBWRKTHZ-UHFFFAOYSA-N
Temperature: 423 K
Tabular data in the source: 0
pressure (bar)	uptake (molecules/unitcell)
0.0882931	2.53597
0.144068	3.45147
0.233927	4.22611
0.33773	5.77541
0.450828	7.04302
0.571673	8.38104
0.704913	11.9022
0.814913	13.8036
0.924913	13.0289
1.01632	14.2965
