Adsorption isotherm of Propene on Zeolite 13X
DOI: 10.1021/Ie0705655
Adsorbate Propene: InChIKey QQONPFPTGQHPMA-UHFFFAOYSA-N
Temperature: 423 K
Tabular data in the source: 0
pressure (bar)	uptake (molecules/unitcell)
0.0340677	4.78949
0.0836452	8.59231
0.123927	10.5641
0.171955	12.8881
0.27111	16.3388
0.391955	19.1557
0.500406	21.1275
0.635194	23.1698
0.748293	24.6486
0.853645	25.9163
0.99773	27.043
