Adsorption isotherm of N-propane on Zeolite 13X
DOI: 10.1021/Ie0705655
Adsorbate N-propane: InChIKey ATUOYWHBWRKTHZ-UHFFFAOYSA-N
Temperature: 373 K
Tabular data in the source: 0
pressure (bar)	uptake (molecules/unitcell)
0.0495607	3.45147
0.0836452	5.14161
0.122378	7.11344
0.167307	9.43738
0.266462	12.4656
0.415195	15.8458
0.587166	18.874
0.675476	19.9303
0.760687	20.9867
0.884631	21.8317
0.941955	22.3951
1.04421	23.3106
