Adsorption isotherm of Propene on Zeolite 13X
DOI: 10.1021/Ie0705655
Adsorbate Propene: InChIKey QQONPFPTGQHPMA-UHFFFAOYSA-N
Temperature: 423 K
Tabular data in the source: 0
pressure (bar)	uptake (molecules/unitcell)
0.00927901	3.52189
0.0851945	9.29654
0.171955	12.536
0.329983	18.8036
0.639842	24.1557
0.746744	25.4233
0.858293	26.4092
