Adsorption isotherm of Propene on Zeolite 13X
DOI: 10.1021/Ie0705655
Adsorbate Propene: InChIKey QQONPFPTGQHPMA-UHFFFAOYSA-N
Temperature: 423 K
Tabular data in the source: 0
pressure (bar)	uptake (molecules/unitcell)
0.024772	5.4233
0.0789973	9.08527
0.213786	15.4937
0.390406	19.5078
0.501955	21.5501
0.855195	25.4233
1.00083	27.536
