Adsorption isotherm of Propene on Zeolite 13X
DOI: 10.1021/Ie0705655
Adsorbate Propene: InChIKey QQONPFPTGQHPMA-UHFFFAOYSA-N
Temperature: 423 K
Tabular data in the source: 0
pressure (bar)	uptake (molecules/unitcell)
0.00618041	2.74724
0.0418142	4.78949
0.0898424	8.874
0.130124	10.9163
0.229279	15.0712
0.331533	18.0289
0.399702	19.4374
0.503504	21.2684
0.642941	23.6627
0.748293	24.8599
0.853645	25.9867
0.999279	27.1839
