Adsorption isotherm of Propene on Zeolite 13X
DOI: 10.1021/Ie0705655
Adsorbate Propene: InChIKey QQONPFPTGQHPMA-UHFFFAOYSA-N
Temperature: 423 K
Tabular data in the source: 0
pressure (bar)	uptake (molecules/unitcell)
0.0309691	5.49372
0.0805466	9.78949
0.173504	14.0853
0.219983	15.9867
0.328434	18.7332
0.391955	20.2825
0.501955	21.9726
0.748293	25.4937
0.861392	26.7613
