Adsorption isotherm of Propene on Zeolite 13X
DOI: 10.1021/Ie0705655
Adsorbate Propene: InChIKey QQONPFPTGQHPMA-UHFFFAOYSA-N
Temperature: 373 K
Tabular data in the source: 0
pressure (bar)	uptake (molecules/unitcell)
0.00308182	8.59231
0.0325184	12.7472
0.0805466	19.7895
0.1828	25.9867
0.278856	28.5923
0.412096	30.9163
0.503504	32.1134
0.638293	33.381
0.746744	34.367
0.841251	34.9303
1.01322	35.7754
