Adsorption isotherm of Propene on Zeolite 13X
DOI: 10.1021/Ie0705655
Adsorbate Propene: InChIKey QQONPFPTGQHPMA-UHFFFAOYSA-N
Temperature: 343 K
Tabular data in the source: 0
pressure (bar)	uptake (molecules/unitcell)
0.0170255	17.043
0.0418142	26.4796
0.210687	34.6487
0.325335	35.9867
0.477166	37.2543
0.618152	39.5782
0.743645	39.9303
0.912518	41.0571
1.01322	41.6909
