Adsorption isotherm of N-propane on Zeolite 13X
DOI: 10.1021/Ie0705655
Adsorbate N-propane: InChIKey ATUOYWHBWRKTHZ-UHFFFAOYSA-N
Temperature: 323 K
Tabular data in the source: 0
pressure (bar)	uptake (molecules/unitcell)
0.0201241	6.90217
0.0325184	10.9867
0.0464621	15.0008
0.0650537	17.9585
0.0913917	21.4092
0.165758	25.1416
0.272659	27.3951
0.458575	29.7191
0.574772	30.4937
0.706462	31.0571
0.802518	31.7613
1.03491	32.1134
