Adsorption isotherm of N-propane on Zeolite 13X
DOI: 10.1021/Ie0705655
Adsorbate N-propane: InChIKey ATUOYWHBWRKTHZ-UHFFFAOYSA-N
Temperature: 303 K
Tabular data in the source: 0
pressure (bar)	uptake (molecules/unitcell)
0.00409738	4.83576
0.0119632	10.7709
0.0166826	16.849
0.0276947	21.783
0.0591579	26.86
0.123657	30.2208
0.173998	31.5079
0.243217	32.366
0.395814	33.8677
0.474471	33.5816
0.592458	34.8688
0.710445	34.9403
0.949565	35.7268
1.04553	35.7984
