Adsorption isotherm of N-propane on Zeolite 13X
DOI: 10.1021/Ie0705655
Adsorbate N-propane: InChIKey ATUOYWHBWRKTHZ-UHFFFAOYSA-N
Temperature: 343 K
Tabular data in the source: 0
pressure (bar)	uptake (molecules/unitcell)
0.0309691	5.70499
0.0758987	11.1275
0.109983	14.7895
0.195194	18.9444
0.246321	20.7754
0.306744	22.6768
0.478716	25.2825
0.653786	26.7613
0.780828	27.9585
0.920265	28.874
