Adsorption isotherm of N-propane on Zeolite 13X
DOI: 10.1021/Ie0705655
Adsorbate N-propane: InChIKey ATUOYWHBWRKTHZ-UHFFFAOYSA-N
Temperature: 423 K
Tabular data in the source: 0
pressure (bar)	uptake (molecules/unitcell)
0.0820959	2.11344
0.144068	3.52189
0.232378	4.93034
0.334631	6.55006
0.44618	8.02893
0.567025	9.64865
0.698716	11.4796
0.810265	12.7472
0.921814	14.0148
1.01942	14.7191
