Adsorption isotherm of N-propane on Zeolite 13X
DOI: 10.1021/Ie0705655
Adsorbate N-propane: InChIKey ATUOYWHBWRKTHZ-UHFFFAOYSA-N
Temperature: 473 K
Tabular data in the source: 0
pressure (bar)	uptake (molecules/unitcell)
0.0681522	1.33879
0.111533	1.90217
0.192096	2.39513
0.305194	3.59231
0.457025	4.78949
0.608856	5.63456
0.717307	6.33879
0.827307	7.53597
0.926462	8.66273
1.03181	8.52189
