Adsorption isotherm of N-propane on Zeolite 13X
DOI: 10.1021/Ie0705655
Adsorbate N-propane: InChIKey ATUOYWHBWRKTHZ-UHFFFAOYSA-N
Temperature: 323 K
Tabular data in the source: 0
pressure (bar)	uptake (molecules/unitcell)
0.019829	7.05248
0.0324142	10.9139
0.0465726	14.7037
0.07017	18.0646
0.0953405	21.2109
0.166133	24.8578
0.27468	27.3605
0.36435	28.4331
0.460313	28.9337
0.572007	29.7918
0.800115	31.3649
0.910236	31.4364
1.03766	31.6509
