Adsorption isotherm of Propene on Zeolite 13X
DOI: 10.1021/Ie0705655
Adsorbate Propene: InChIKey QQONPFPTGQHPMA-UHFFFAOYSA-N
Temperature: 473 K
Tabular data in the source: 0
pressure (bar)	uptake (molecules/unitcell)
0.0387156	2.95851
0.165758	7.53597
0.250969	10.212
0.584068	15.4233
0.670828	16.7613
0.771533	18.3106
0.850547	19.5782
0.9528	20.7754
1.03491	21.4796
