Adsorption isotherm of Propene on Zeolite 13X
DOI: 10.1021/Ie0705655
Adsorbate Propene: InChIKey QQONPFPTGQHPMA-UHFFFAOYSA-N
Temperature: 323 K
Tabular data in the source: 0
pressure (bar)	uptake (molecules/unitcell)
0.0139269	17.536
0.0418142	27.7472
0.0851945	33.4515
0.109983	36.5501
0.333082	40.705
0.501955	42.6768
0.636744	43.0289
0.794772	44.0148
0.912518	44.2965
1.03956	45.4937
