Adsorption isotherm of Propene on Zeolite 13X
DOI: 10.1021/Ie0705655
Adsorbate Propene: InChIKey QQONPFPTGQHPMA-UHFFFAOYSA-N
Temperature: 303 K
Tabular data in the source: 0
pressure (bar)	uptake (molecules/unitcell)
0.0123776	35.0008
0.0309691	37.043
0.0635044	38.0994
0.156462	43.0289
0.264913	44.9303
0.370265	44.9303
0.616603	46.9022
0.845899	47.6064
0.99773	48.6627
