Adsorption isotherm of Propene on Zeolite 13X
DOI: 10.1021/Ie0705655
Adsorbate Propene: InChIKey QQONPFPTGQHPMA-UHFFFAOYSA-N
Temperature: 473 K
Tabular data in the source: 0
pressure (bar)	uptake (molecules/unitcell)
0.00463112	0.986678
0.0433635	2.88809
0.0960396	4.85992
0.167307	6.97259
0.254068	9.22611
0.354772	11.4092
0.42449	12.6768
0.585617	15.0008
0.66773	15.9867
0.769983	17.2543
0.850547	18.5219
0.951251	19.5782
1.03646	20.1416
