Adsorption isotherm of Propene on Zeolite 13X
DOI: 10.1021/Ie0705655
Adsorbate Propene: InChIKey QQONPFPTGQHPMA-UHFFFAOYSA-N
Temperature: 303 K
Tabular data in the source: 0
pressure (bar)	uptake (molecules/unitcell)
0.00167185	12.3247
0.0135028	20.4233
0.0168831	27.4656
0.0642071	37.1839
0.153785	40.9867
0.261954	44.5782
0.373503	45.212
0.615193	45.9163
0.850123	47.2543
0.997165	48.1698
