Adsorption isotherm of N-propane on Zeolite 13X
DOI: 10.1021/Ie0705655
Adsorbate N-propane: InChIKey ATUOYWHBWRKTHZ-UHFFFAOYSA-N
Temperature: 323 K
Tabular data in the source: 0
pressure (bar)	uptake (molecules/unitcell)
0.0185748	7.81766
0.0309691	11.8317
0.0433635	13.381
0.0666029	16.8317
0.0960396	22.4656
0.164209	24.6486
0.215335	26.7613
0.362518	28.9444
0.460124	30.705
0.574772	31.8317
0.709561	31.6205
0.808716	32.1839
0.910969	32.7472
1.03646	33.381
