Adsorption isotherm of Propene on Zeolite 13X
DOI: 10.1021/Ie0705655
Adsorbate Propene: InChIKey QQONPFPTGQHPMA-UHFFFAOYSA-N
Temperature: 343 K
Tabular data in the source: 0
pressure (bar)	uptake (molecules/unitcell)
0.00153253	14.0853
0.0154762	18.2402
0.0263213	23.381
0.0449128	27.1839
0.0697015	30.212
0.109983	32.536
0.213786	35.4233
0.325335	36.7613
0.477166	38.1698
0.613504	38.874
0.742096	39.5078
0.907871	39.7895
1.01632	40.5641
