Adsorption isotherm of N-propane on Zeolite 13X
DOI: 10.1021/Ie0705655
Adsorbate N-propane: InChIKey ATUOYWHBWRKTHZ-UHFFFAOYSA-N
Temperature: 303 K
Tabular data in the source: 0
pressure (bar)	uptake (molecules/unitcell)
0.00409738	5.97987
0.0135363	10.4848
0.019829	17.6355
0.0308411	22.4265
0.060731	26.7885
0.090621	29.2912
0.12523	31.1504
0.177145	32.7235
0.320302	34.8688
0.482337	36.0844
0.597178	36.5134
0.716738	36.871
0.848883	37.8006
1.04553	37.9436
