Adsorption isotherm of N-propane on Zeolite 13X
DOI: 10.1021/Ie0705655
Adsorbate N-propane: InChIKey ATUOYWHBWRKTHZ-UHFFFAOYSA-N
Temperature: 343 K
Tabular data in the source: 0
pressure (bar)	uptake (molecules/unitcell)
0.0170255	3.16978
0.0495607	7.04302
0.077448	10.3529
0.111533	13.5219
0.154913	16.2684
0.244772	19.9303
0.309842	21.4092
0.480265	23.6627
0.656885	25.4233
0.779279	26.3388
0.920265	27.2543
1.03491	27.6768
