Adsorption isotherm of Propene on Zeolite 13X
DOI: 10.1021/Ie0705655
Adsorbate Propene: InChIKey QQONPFPTGQHPMA-UHFFFAOYSA-N
Temperature: 323 K
Tabular data in the source: 0
pressure (bar)	uptake (molecules/unitcell)
0.0154762	26.4796
0.0170255	18.874
0.035617	32.1134
0.0805466	35.2825
0.159561	37.3247
0.325335	39.1557
0.498856	40.5641
0.636744	40.705
0.796321	41.5501
0.907871	41.6909
1.02562	41.8317
