Adsorption isotherm of N-propane on Zeolite 13X
DOI: 10.1021/Ie0705655
Adsorbate N-propane: InChIKey ATUOYWHBWRKTHZ-UHFFFAOYSA-N
Temperature: 343 K
Tabular data in the source: 0
pressure (bar)	uptake (molecules/unitcell)
0.0309691	5.77541
0.077448	11.2684
0.113082	14.7191
0.156462	16.8317
0.247871	20.5641
0.308293	22.8177
0.481814	25.6346
0.661533	26.5501
0.782378	28.1698
0.923364	28.8036
1.03801	28.5923
