Adsorption isotherm of N-propane on Zeolite 13X
DOI: 10.1021/Ie0705655
Adsorbate N-propane: InChIKey ATUOYWHBWRKTHZ-UHFFFAOYSA-N
Temperature: 473 K
Tabular data in the source: 0
pressure (bar)	uptake (molecules/unitcell)
0.0573072	1.33879
0.181251	2.6064
0.302096	3.59231
0.444631	4.5078
0.604209	5.49372
0.712659	6.47964
0.818011	7.32471
0.918716	8.09935
1.02407	8.66273
