Adsorption isotherm of Propene on Zeolite 13X
DOI: 10.1021/Ie0705655
Adsorbate Propene: InChIKey QQONPFPTGQHPMA-UHFFFAOYSA-N
Temperature: 303 K
Tabular data in the source: 0
pressure (bar)	uptake (molecules/unitcell)
0.0108283	31.8317
0.0154762	36.0571
0.0340677	38.2402
0.0604058	39.8599
0.150265	42.1839
0.261814	43.4515
0.371814	44.0148
0.610406	45.1416
0.847448	45.4937
1.00238	45.6346
