Adsorption isotherm of N-propane on Zeolite 13X
DOI: 10.1021/Ie0705655
Adsorbate N-propane: InChIKey ATUOYWHBWRKTHZ-UHFFFAOYSA-N
Temperature: 343 K
Tabular data in the source: 0
pressure (bar)	uptake (molecules/unitcell)
0.0229753	3.04808
0.0465726	6.62344
0.0780358	10.0558
0.111072	12.9876
0.194449	17.7786
0.241644	19.4232
0.310863	21.0679
0.39424	22.498
0.572007	24.0712
0.778091	25.7158
0.921248	26.2879
1.03609	26.5024
