Adsorption isotherm of Propene on Zeolite 13X
DOI: 10.1021/Ie0705655
Adsorbate Propene: InChIKey QQONPFPTGQHPMA-UHFFFAOYSA-N
Temperature: 303 K
Tabular data in the source: 0
pressure (bar)	uptake (molecules/unitcell)
0.00463112	26.1275
0.0526593	39.7895
0.264913	44.9303
0.365617	45.9163
0.610406	47.2543
0.844349	47.9585
0.999279	47.8177
