Adsorption isotherm of Propene on Zeolite 13X
DOI: 10.1021/Ie0705655
Adsorbate Propene: InChIKey QQONPFPTGQHPMA-UHFFFAOYSA-N
Temperature: 343 K
Tabular data in the source: 0
pressure (bar)	uptake (molecules/unitcell)
0.0154762	14.6486
0.0216734	19.0148
0.0418142	26.4092
0.106885	32.6768
0.207589	33.5219
0.323786	34.6487
0.478716	36.1979
0.615054	37.4655
0.737448	39.5782
1.01322	40.4233
