Adsorption isotherm of Propene on Zeolite 13X
DOI: 10.1021/Ie0705655
Adsorbate Propene: InChIKey QQONPFPTGQHPMA-UHFFFAOYSA-N
Temperature: 373 K
Tabular data in the source: 0
pressure (bar)	uptake (molecules/unitcell)
0.0294199	12.3951
0.0728001	19.2965
0.173504	25.705
0.272659	28.381
0.405899	30.1416
0.498856	31.4092
0.635194	32.6064
0.743645	33.6627
0.839702	34.2261
1.00857	35.0712
