Adsorption isotherm of N-propane on Zeolite 13X
DOI: 10.1021/Ie0705655
Adsorbate N-propane: InChIKey ATUOYWHBWRKTHZ-UHFFFAOYSA-N
Temperature: 473 K
Tabular data in the source: 0
pressure (bar)	uptake (molecules/unitcell)
0.0151095	0.616836
0.180291	2.33301
0.306144	3.40561
0.443008	4.33521
0.60347	5.33631
0.710445	6.48042
0.81742	7.05248
0.919675	7.62454
1.02822	8.62564
