Adsorption isotherm of Propene on Zeolite 13X
DOI: 10.1021/Ie0705655
Adsorbate Propene: InChIKey QQONPFPTGQHPMA-UHFFFAOYSA-N
Temperature: 373 K
Tabular data in the source: 0
pressure (bar)	uptake (molecules/unitcell)
0.0294199	13.4515
0.0728001	20.2825
0.175054	27.3247
0.274209	29.4374
0.404349	31.5501
0.497307	32.6064
0.633645	33.9444
0.841251	35.7754
1.00703	36.5501
