Adsorption isotherm of Propene on Zeolite 13X
DOI: 10.1021/Ie0705655
Adsorbate Propene: InChIKey QQONPFPTGQHPMA-UHFFFAOYSA-N
Temperature: 373 K
Tabular data in the source: 0
pressure (bar)	uptake (molecules/unitcell)
0.0325184	13.4515
0.0789973	20.4233
0.178152	27.6064
0.277307	29.5782
0.412096	31.7613
0.501955	32.8881
0.636744	34.2965
0.841251	35.9867
