Adsorption isotherm of N-propane on Zeolite 13X
DOI: 10.1021/Ie0705655
Adsorbate N-propane: InChIKey ATUOYWHBWRKTHZ-UHFFFAOYSA-N
Temperature: 373 K
Tabular data in the source: 0
pressure (bar)	uptake (molecules/unitcell)
0.0480114	3.38104
0.119279	7.32471
0.165758	9.08527
0.210687	10.9867
0.266462	12.6768
0.413645	16.0571
0.585617	19.1557
0.762237	21.5501
0.878434	22.6768
0.938856	22.9585
1.03956	23.5219
