Adsorption isotherm of Nitrogen on MOF-867
DOI: 10.1039/c5cc05927e
Article source: Figure  1b
Adsorbate Nitrogen: InChIKey IJGRMHOSHXDMSA-UHFFFAOYSA-N
Kind: experiment
Temperature: 77 K
Tabular data in the source: 0
pressure (bar)	uptake (cm3(STP)/g)
0.02521	543.73
0.028422	584.71
0.032444	608.5
0.038352	620.82
0.048849	626.83
0.059083	633.99
0.066885	636.56
0.100545	641.69
0.132047	645.39
0.163275	648.52
0.19424	650.5
0.2279	650.18
0.255096	651.59
0.284176	652.43
0.315952	651.25
0.363605	652.93
0.41369	653.75
0.465659	654.28
0.512238	654.81
0.559365	654.2
0.607828	653.3
0.656839	654.4
0.705303	654.94
0.752429	655.47
0.800356	656.58
0.850441	658.25
0.895946	659.36
0.942252	662.48
0.991262	668.17
