Adsorption isotherm of Nitrogen on ZJU-101
DOI: 10.1039/c5cc05927e
Article source: Figure  1b
Adsorbate Nitrogen: InChIKey IJGRMHOSHXDMSA-UHFFFAOYSA-N
Kind: experiment
Temperature: 77 K
Tabular data in the source: 0
pressure (bar)	uptake (cm3(STP)/g)
0.021187	137.7
0.021714	143.59
0.025747	155.62
0.032738	165.93
0.041077	172.52
0.05427	178.81
0.068273	181.1
0.101386	184.22
0.130203	186.2
0.164663	187.89
0.195628	193.31
0.223898	190.71
0.229552	193
0.257558	193.55
0.287175	193.24
0.314097	195.79
0.364719	196.9
0.409424	197.72
0.465163	198.53
0.513353	199.64
0.56129	199.6
0.607058	199.56
0.65768	202.09
0.70507	200.91
0.754344	202.58
0.801471	201.4
0.849934	203.08
0.894639	203.9
0.945798	206.15
0.991029	210.7
