Adsorption isotherm of Methanol on Cr-MIL(101)
DOI: 10.1016/j.micromeso.2014.11.025
Article source: Figure 8b
Adsorbate Methanol: InChIKey OKKJLVBELUTLKV-UHFFFAOYSA-N
Kind: experiment
Temperature: 293 K
Tabular data in the source: 0
pressure (bar)	uptake (g/g)
0.001259	0.1178
0.005117	0.20995
0.006749	0.25349
0.010276	0.2642
0.0138	0.31816
0.014366	0.30294
0.019045	0.35381
0.020368	0.40002
0.050514	0.97443
0.056556	0.97778
0.056613	0.99053
0.057713	0.98339
0.062345	0.99106
0.064716	1.00536
0.066637	1.00001
0.071577	1.0059
0.072029	1.01942
0.077111	1.01842
0.079512	1.03093
0.081263	1.02354
0.085808	1.02993
0.085921	1.03835
0.090523	1.03735
0.093996	1.04986
0.09555	1.04324
0.101197	1.05729
0.102411	1.05347
0.105998	1.06037
0.108172	1.06727
0.111023	1.06804
0.115061	1.07546
0.117348	1.08159
