Adsorption isotherm of Water on pp-MIL-101@HIPE composite, 59 wt% MIL-101(Cr)
DOI: 10.1016/j.micromeso.2014.11.025
Article source: Figure 8a
Adsorbate Water: InChIKey XLYOFNOQVPJJNP-UHFFFAOYSA-N
Kind: experiment
Temperature: 293 K
Tabular data in the source: 0
pressure (bar)	uptake (g/g)
0.000214	0.00573
0.000858	0.01256
0.001185	0.04075
0.001552	0.01818
0.002241	0.02402
0.002313	0.05122
0.002936	0.0303
0.00361	0.03548
0.003696	0.06555
0.004319	0.04374
0.005024	0.05267
0.005136	0.08372
0.005718	0.06357
0.006367	0.07569
0.006499	0.11115
0.007097	0.09188
0.007868	0.11413
0.007929	0.15709
0.008532	0.13165
0.009165	0.15026
0.009313	0.20346
0.010339	0.19212
0.011437	0.23893
0.011871	0.22484
0.012754	0.23233
0.013862	0.25513
0.013938	0.23894
0.015072	0.246
0.016221	0.25316
0.016256	0.26704
0.017359	0.26021
0.018467	0.27718
0.018595	0.26716
0.019728	0.27575
0.020754	0.28578
0.020887	0.28578
