Adsorption isotherm of Water on pp-MIL-101@HIPE composite, 38 wt% MIL-101(Cr)
DOI: 10.1016/j.micromeso.2014.11.025
Article source: Figure 8a
Adsorbate Water: InChIKey XLYOFNOQVPJJNP-UHFFFAOYSA-N
Kind: experiment
Temperature: 293 K
Tabular data in the source: 0
pressure (bar)	uptake (g/g)
2.6e-05	0.00055
0.000158	0.00364
0.000842	0.00793
0.001144	0.02688
0.001578	0.01443
0.002267	0.01818
0.002338	0.03834
0.002941	0.02281
0.003656	0.05112
0.003676	0.02854
0.00433	0.03394
0.005019	0.03978
0.005126	0.06577
0.005795	0.04838
0.006459	0.05664
0.006515	0.0845
0.007173	0.06677
0.007812	0.07713
0.007827	0.10863
0.008532	0.08749
0.009226	0.13209
0.009241	0.09905
0.010456	0.1223
0.011529	0.1375
0.0116	0.1603
0.012708	0.14554
0.013897	0.15293
0.013933	0.1754
0.015077	0.16131
0.016205	0.16869
0.016251	0.18862
0.017329	0.17773
0.018528	0.18643
0.018539	0.20273
0.019662	0.19866
0.020795	0.21265
