Adsorption isotherm of Water on poly(HEMA)HIPE
DOI: 10.1016/j.micromeso.2014.11.025
Article source: Figure 8a
Adsorbate Water: InChIKey XLYOFNOQVPJJNP-UHFFFAOYSA-N
Kind: experiment
Temperature: 293 K
Tabular data in the source: 0
pressure (bar)	uptake (g/g)
2.6e-05	0.00055
0.000781	0.00397
0.000847	0.00948
0.001481	0.0065
0.001603	0.01333
0.002236	0.00959
0.002333	0.01774
0.002961	0.02237
0.002977	0.01279
0.003686	0.01544
0.003722	0.02843
0.00436	0.01742
0.005034	0.03692
0.00507	0.02073
0.005718	0.02293
0.006372	0.04452
0.006484	0.0269
0.007179	0.0301
0.007786	0.03308
0.007934	0.05455
0.008537	0.03693
0.009165	0.0626
0.009226	0.04079
0.010415	0.04708
0.011574	0.05567
0.011595	0.07781
0.012723	0.06394
0.013795	0.09478
0.013933	0.0733
0.015133	0.08278
0.016246	0.09347
0.016251	0.11638
0.017415	0.10449
0.018579	0.1187
0.0186	0.14029
0.019733	0.13677
0.020739	0.15627
0.020836	0.15649
