Adsorption isotherm of Nitrogen on pp-MIL-101@HIPE composite, 59 wt% MIL-101(Cr)
DOI: 10.1016/j.micromeso.2014.11.025
Article source: Figure 6a
Adsorbate Nitrogen: InChIKey IJGRMHOSHXDMSA-UHFFFAOYSA-N
Kind: experiment
Temperature: 77 K
Tabular data in the source: 0
pressure (bar)	uptake (cm3(STP)/g)
0.005015	148.06
0.007832	153.82
0.010396	163.83
0.011926	167.86
0.014226	173.39
0.02678	189.28
0.030367	198.72
0.044461	208.73
0.055991	220.36
0.074959	227.62
0.080592	232.8
0.09725	236.48
0.101353	242.7
0.119804	244.77
0.121091	249.49
0.137749	256.74
0.138265	253.29
0.15697	259.28
0.158256	263.88
0.179281	262.62
0.186191	267.45
0.200549	269.18
0.206962	265.38
0.21747	270.56
0.227734	266.99
0.245678	272.29
0.248241	268.49
0.262852	273.09
0.268496	270.1
0.283877	275.05
0.292084	270.67
0.297201	276.55
0.309511	272.17
0.354114	278.85
0.358998	274.47
0.40052	282.65
0.40514	275.74
0.450776	284.72
0.455133	278.04
0.502045	288.4
0.511023	280.12
0.553578	290.25
0.555382	281.5
0.598697	291.97
0.614088	284.26
0.657667	294.97
0.660241	286.1
0.703303	295.66
0.713821	288.29
0.75663	298.42
0.762527	291.05
0.807129	301.07
0.81791	293.7
0.838924	302.8
0.845855	295.66
0.859432	303.14
0.867386	296.46
0.88687	304.52
0.888917	298.88
0.907631	306.48
0.912758	301.64
0.93891	305.44
0.939163	311.55
0.962498	312.7
0.965821	319.72
0.988629	336.53
