Adsorption isotherm of Water on Cr-MIL(101)
DOI: 10.1016/j.micromeso.2014.11.025
Article source: Figure 8a
Adsorbate Water: InChIKey XLYOFNOQVPJJNP-UHFFFAOYSA-N
Kind: experiment
Temperature: 293 K
Tabular data in the source: 0
pressure (bar)	uptake (g/g)
0.000419	0.01586
0.00098	0.06983
0.001108	0.02633
0.001797	0.03492
0.002343	0.08669
0.002491	0.04373
0.002977	0.09341
0.003227	0.0531
0.003712	0.10167
0.003921	0.0618
0.004355	0.10905
0.004615	0.06896
0.005049	0.11776
0.005749	0.08031
0.00579	0.13009
0.006454	0.14265
0.006505	0.09089
0.007143	0.10114
0.007173	0.16259
0.007796	0.11204
0.007919	0.24475
0.008572	0.12845
0.009231	0.16337
0.009828	0.23496
0.009283	0.96249
0.010391	0.98348
0.011526	0.99974
0.012732	1.0164
0.013765	1.02889
0.013982	0.93943
0.015366	1.00446
0.016173	1.01384
0.016207	1.05181
0.017491	1.02789
0.01852	1.06224
0.018631	1.03935
0.01974	1.05159
0.020798	1.07006
0.020843	1.06018
0.021784	1.07164
0.022024	1.0719
