Adsorption isotherm of Nitrogen on pp-MIL-101@HIPE composite, 38 wt% MIL-101(Cr)
DOI: 10.1016/j.micromeso.2014.11.025
Article source: Figure 6a
Adsorbate Nitrogen: InChIKey IJGRMHOSHXDMSA-UHFFFAOYSA-N
Kind: experiment
Temperature: 77 K
Tabular data in the source: 0
pressure (bar)	uptake (cm3(STP)/g)
0.002776	54.92
0.007903	61.02
0.010203	69.54
0.026607	83.82
0.027367	88.31
0.033518	94.98
0.047369	91.53
0.055302	100.28
0.06889	101.2
0.08273	109.03
0.089661	106.73
0.105295	108.91
0.108112	114.33
0.126056	112.25
0.135793	119.16
0.142977	117.55
0.165025	120.54
0.183222	122.85
0.185279	124.92
0.20374	122.27
0.205017	126.76
0.219374	127.91
0.232445	123.77
0.247056	129.06
0.258343	128.72
0.263724	124.46
0.286025	131.25
0.297312	131.37
0.308853	126.88
0.350375	132.98
0.354995	128.83
0.399344	136.09
0.404481	130.56
0.452671	138.39
0.455751	132.17
0.498823	139.88
0.507284	133.32
0.550093	141.84
0.558817	135.74
0.610603	144.03
0.61958	137.58
0.652905	144.84
0.661112	138.04
0.700334	146.45
0.713922	140.46
0.756741	148.06
0.762891	142.42
0.811091	150.13
0.813654	144.26
0.839299	145.18
0.840829	151.86
0.85929	151.74
0.867244	146.68
0.886728	148.75
0.888258	153.82
0.907489	154.16
0.911846	149.67
0.938251	158.42
0.944665	152.43
0.955689	157.96
0.964149	158.19
0.966702	160.49
0.989267	168.55
