Adsorption isotherm of Methanol on poly(HEMA)HIPE
DOI: 10.1016/j.micromeso.2014.11.025
Article source: Figure 7
Adsorbate Methanol: InChIKey OKKJLVBELUTLKV-UHFFFAOYSA-N
Kind: experiment
Temperature: 293 K
Tabular data in the source: 0
pressure (bar)	uptake (g/g)
0.001137	0.00375
0.005938	0.01341
0.008808	0.01726
0.012729	0.02194
0.016593	0.02663
0.020201	0.03076
0.02435	0.03526
0.028214	0.03957
0.03205	0.04435
0.035687	0.04829
0.03958	0.05297
0.043644	0.05869
0.047195	0.06422
0.051173	0.06854
0.058219	0.08073
0.064242	0.09161
0.071203	0.10736
0.077056	0.12228
0.083845	0.14348
0.090522	0.16534
0.096629	0.18861
0.103418	0.22089
0.109639	0.2541
0.116029	0.29755
0.119323	0.3243
