Adsorption isotherm of Methanol on MIL-101@HIPE composite, 38 wt% MIL-101(Cr)
DOI: 10.1016/j.micromeso.2014.11.025
Article source: Figure 8b
Adsorbate Methanol: InChIKey OKKJLVBELUTLKV-UHFFFAOYSA-N
Kind: experiment
Temperature: 293 K
Tabular data in the source: 0
pressure (bar)	uptake (g/g)
0.001325	0.01959
0.00502	0.041
0.006456	0.08214
0.010182	0.06185
0.013818	0.12314
0.014246	0.07706
0.019014	0.09214
0.021154	0.14554
0.023952	0.10608
0.028715	0.16779
0.029031	0.11904
0.033968	0.12946
0.035911	0.18272
0.038484	0.1365
0.042685	0.19159
0.043789	0.14312
0.048502	0.14847
0.049852	0.20173
0.052481	0.15241
0.057105	0.2106
0.05773	0.15903
0.062386	0.16438
0.064272	0.22017
0.06676	0.17142
0.071558	0.17846
0.071751	0.22975
0.076778	0.18733
0.079286	0.23876
0.081462	0.19521
0.085836	0.20451
0.086623	0.24833
0.091255	0.21747
0.092943	0.25946
0.095542	0.23
0.100224	0.27453
0.10048	0.24536
0.104967	0.26367
0.109619	0.30425
0.10996	0.28847
0.114924	0.32101
0.11701	0.3389
