Adsorption isotherm of Nitrogen on MIL-101@HIPE composite, 67 wt% MIL-101(Cr)
DOI: 10.1016/j.micromeso.2014.11.025
Article source: Figure 6a
Adsorbate Nitrogen: InChIKey IJGRMHOSHXDMSA-UHFFFAOYSA-N
Kind: experiment
Temperature: 77 K
Tabular data in the source: 0
pressure (bar)	uptake (cm3(STP)/g)
0.003516	106.84
0.004529	111.68
0.008886	121
0.012726	128.95
0.028097	144.03
0.03143	147.71
0.047065	155.77
0.055515	162.8
0.070896	166.83
0.078839	172.47
0.099601	179.49
0.101141	176.5
0.118832	182.94
0.119855	185.48
0.137536	190.89
0.140363	188.13
0.160354	194.92
0.160617	191.23
0.179321	196.07
0.185472	199.18
0.200863	200.33
0.207783	197.8
0.218544	201.71
0.228544	198.83
0.243672	203.67
0.246752	199.41
0.255982	204.59
0.260856	201.6
0.287514	205.86
0.288031	202.86
0.300332	205.97
0.305458	202.4
0.353141	208.96
0.354428	206.43
0.402627	210.81
0.403144	208.62
0.452103	210.81
0.452367	212.07
0.501326	214.95
0.507486	213.45
0.549525	216.68
0.556962	214.84
0.598758	218.4
0.611312	217.48
0.653614	219.56
0.655155	220.36
0.703607	221.74
0.711814	221.97
0.75668	224.16
0.767704	224.16
0.813087	227.04
0.818467	226
0.834111	227.38
0.843595	227.5
0.865896	229.34
0.86846	228.54
0.88307	229.92
0.890508	230.15
0.908715	231.64
0.919223	230.84
0.936143	234.87
0.937937	233.03
0.961008	236.48
0.961261	239.36
0.987149	247.3
