Adsorption isotherm of Nitrogen on poly(HEMA)HIPE
DOI: 10.1016/j.micromeso.2014.11.025
Article source: Figure 6a
Adsorbate Nitrogen: InChIKey IJGRMHOSHXDMSA-UHFFFAOYSA-N
Kind: experiment
Temperature: 77 K
Tabular data in the source: 0
pressure (bar)	uptake (cm3(STP)/g)
0.007184	0
0.014104	0
0.035129	0.58
0.05589	1.15
0.080501	1.15
0.103836	1.61
0.120757	1.73
0.142551	2.42
0.153829	2.42
0.162036	3.68
0.1746	3.68
0.181773	4.49
0.201258	5.53
0.210235	5.41
0.219466	5.41
0.22972	6.22
0.235353	7.02
0.246124	5.76
0.265091	9.9
0.273299	4.72
0.287149	6.1
0.287403	9.44
0.295863	11.28
0.308427	6.68
0.352523	13.47
0.355857	8.17
0.399436	15.77
0.404309	10.02
0.449682	17.73
0.461739	10.48
0.503525	20.61
0.508398	12.2
0.547874	22.91
0.559678	13.7
0.597096	24.87
0.615821	16.12
0.658377	26.6
0.661457	17.73
0.702726	28.67
0.714013	19.34
0.748878	30.28
0.761706	21.76
0.806045	32.01
0.818872	24.29
0.83707	33.04
0.844254	25.21
0.859371	32.7
0.869635	26.6
0.889119	34.08
0.891166	27.86
0.909891	29.47
0.915778	34.31
0.935009	33.96
0.938595	32.12
0.95654	35.69
0.96577	34.42
0.989358	38.8
