Adsorption isotherm of Water on poly(HEMA)HIPE
DOI: 10.1016/j.micromeso.2014.11.025
Article source: Figure 8a
Adsorbate Water: InChIKey XLYOFNOQVPJJNP-UHFFFAOYSA-N
Kind: experiment
Temperature: 293 K
Tabular data in the source: 0
pressure (bar)	uptake (cm3(STP)/g)
0.000118	0.00094
0.000881	0.00432
0.001578	0.00695
0.002331	0.01014
0.003012	0.01295
0.003719	0.01567
0.004385	0.01755
0.005097	0.02112
0.005737	0.02375
0.00651	0.02788
0.007197	0.0305
0.007883	0.03388
0.008574	0.03773
0.009266	0.04214
0.010434	0.04796
0.011556	0.05575
0.012764	0.06495
0.013932	0.07387
0.015131	0.08335
0.016237	0.09405
0.017425	0.10587
0.018567	0.11939
0.019704	0.13638
0.0208	0.15674
