Adsorption isotherm of Nitrogen on MIL-101@HIPE composite, 38 wt% MIL-101(Cr)
DOI: 10.1016/j.micromeso.2014.11.025
Article source: Figure 6a
Adsorbate Nitrogen: InChIKey IJGRMHOSHXDMSA-UHFFFAOYSA-N
Kind: experiment
Temperature: 77 K
Tabular data in the source: 0
pressure (bar)	uptake (cm3(STP)/g)
0.00535	41.1
0.018167	50.77
0.030468	55.15
0.034571	60.44
0.047389	59.98
0.048919	64.01
0.075577	70.46
0.07584	65.97
0.101992	70.69
0.105579	76.33
0.118649	78.17
0.126086	73.57
0.13557	76.22
0.145571	81.86
0.156848	83.24
0.159411	78.4
0.185563	81.05
0.18607	85.66
0.203507	86.92
0.205817	82.55
0.218888	87.85
0.222738	84.16
0.242729	91.07
0.247096	85.66
0.259134	91.18
0.268628	86.58
0.286055	93.26
0.291192	88.42
0.297079	93.26
0.308366	89.8
0.350405	96.83
0.358359	92.68
0.400145	100.51
0.408089	96.13
0.452701	102.12
0.453218	99.36
0.50167	105.81
0.507567	102.01
0.553193	108.11
0.558584	105.23
0.603186	110.76
0.610623	108.68
0.650879	113.06
0.661133	113.17
0.701125	115.82
0.711379	114.79
0.753681	117.89
0.760865	118.59
0.803674	121.12
0.810088	121.35
0.836746	123.19
0.855977	123.54
0.888795	125.72
0.910073	128.03
0.91597	128.03
0.938271	129.98
0.951342	129.87
0.965183	134.59
0.967239	131.25
0.991081	137.93
