Adsorption isotherm of Methanol on MIL-101@HIPE composite, 59 wt% MIL-101(Cr)
DOI: 10.1016/j.micromeso.2014.11.025
Article source: Figure 8b
Adsorbate Methanol: InChIKey OKKJLVBELUTLKV-UHFFFAOYSA-N
Kind: experiment
Temperature: 293 K
Tabular data in the source: 0
pressure (bar)	uptake (g/g)
0.001267	0.03015
0.004876	0.06214
0.006396	0.10596
0.010293	0.09271
0.014013	0.15076
0.014609	0.11624
0.018952	0.13892
0.020643	0.18598
0.023721	0.1623
0.028034	0.2174
0.029137	0.18287
0.034104	0.20189
0.034974	0.24134
0.038166	0.21612
0.042226	0.25698
0.043838	0.22668
0.047592	0.22992
0.050156	0.26584
0.053574	0.23681
0.05707	0.2726
0.057327	0.24033
0.062125	0.24596
0.064407	0.27893
0.067571	0.2499
0.071692	0.25511
0.071801	0.28611
0.07694	0.26145
0.078942	0.29301
0.081653	0.2668
0.086448	0.29976
0.086479	0.27426
0.090711	0.2806
0.093927	0.30892
0.095566	0.28834
0.100446	0.31764
0.10104	0.29806
0.105667	0.31045
0.108177	0.33384
0.110238	0.32679
0.114469	0.34948
0.117121	0.36962
