Adsorption isotherm of Methanol on poly(HEMA)HIPE
DOI: 10.1016/j.micromeso.2014.11.025
Article source: Figure 8b
Adsorbate Methanol: InChIKey OKKJLVBELUTLKV-UHFFFAOYSA-N
Kind: experiment
Temperature: 293 K
Tabular data in the source: 0
pressure (bar)	uptake (g/g)
0.001101	0.00493
0.005836	0.05706
0.005897	0.01408
0.008747	0.01803
0.012157	0.07636
0.012614	0.0231
0.016536	0.02647
0.01986	0.09749
0.020347	0.03168
0.024382	0.03506
0.028191	0.04041
0.028637	0.11425
0.032142	0.04407
0.035811	0.04829
0.036114	0.12861
0.039479	0.05336
0.043628	0.05885
0.047352	0.0642
0.050251	0.15312
0.051219	0.06843
0.05833	0.08068
0.064304	0.18058
0.06434	0.09237
0.071141	0.10842
0.07593	0.20156
0.076954	0.1218
0.084036	0.14336
0.088882	0.22973
0.090384	0.16561
0.096507	0.18815
0.101382	0.26114
0.103221	0.22112
0.109539	0.25338
0.11515	0.30889
0.116197	0.29705
0.119214	0.32382
