Adsorption isotherm of Nitrogen on MIL-101@HIPE composite, 59 wt% MIL-101(Cr)
DOI: 10.1016/j.micromeso.2014.11.025
Article source: Figure 6a
Adsorbate Nitrogen: InChIKey IJGRMHOSHXDMSA-UHFFFAOYSA-N
Kind: experiment
Temperature: 77 K
Tabular data in the source: 0
pressure (bar)	uptake (cm3(STP)/g)
0.00533	69.31
0.011227	77.94
0.028137	87.96
0.034541	93.83
0.046335	96.13
0.053762	101.2
0.07658	103.85
0.07812	107.42
0.095811	108.8
0.104261	112.6
0.117595	111.68
0.120412	115.59
0.138873	115.94
0.141437	119.74
0.159898	118.59
0.161945	122.15
0.183992	121.81
0.187579	125.61
0.197833	125.38
0.207327	122.38
0.227835	123.65
0.252963	126.64
0.267574	124.8
0.287311	128.6
0.308336	126.41
0.351925	129.98
0.353972	127.57
0.400378	131.02
0.408585	129.18
0.451911	131.83
0.456784	131.02
0.500363	134.24
0.507284	131.48
0.549586	135.05
0.56215	133.44
0.601119	137.47
0.612143	134.24
0.655215	134.24
0.659836	138.16
0.704185	138.96
0.713162	136.09
0.758798	139.65
0.766488	136.78
0.805457	141.04
0.815458	137.93
0.840322	142.53
0.849046	138.5
0.858267	142.3
0.872624	139.88
0.888268	143.68
0.892372	140.23
0.909799	144.84
0.918523	141.84
0.939801	146.33
0.942101	144.03
0.958769	147.25
0.964149	149.67
0.986967	154.85
