Adsorption isotherm of Nitrogen on MOF-2
DOI: 10.1007/s10934-014-9823-6
Adsorbate Nitrogen: InChIKey IJGRMHOSHXDMSA-UHFFFAOYSA-N
Temperature: 298 K
Tabular data in the source: 0
pressure (bar)	uptake (cm3(STP)/g)
0.00844656	83.8144
0.0205602	86.1657
0.0351214	87.3463
0.0472616	87.9394
0.0642615	88.5353
0.0739809	88.541
0.0861301	88.548
0.103121	89.73
0.1177	89.7384
0.141981	90.9246
0.16142	90.9359
0.183279	91.5346
0.200288	91.5444
0.214867	91.5529
0.231875	91.5627
0.244007	92.7419
0.258586	92.7503
0.275595	92.7601
0.295033	92.7714
0.304744	93.3631
0.319323	93.3715
0.336332	93.3814
0.35577	93.3926
0.37763	93.9913
0.39706	94.5886
0.416489	95.186
0.426209	95.1916
0.445648	95.2028
0.462648	95.7987
0.482086	95.81
0.496657	96.4045
0.508806	96.4115
0.523384	96.42
0.542814	97.0173
0.554963	97.0243
0.571963	97.6202
0.586542	97.6286
0.601122	97.6371
0.618121	98.233
0.630271	98.24
0.64484	98.8345
0.66185	98.8444
0.678849	99.4403
0.69342	100.035
0.707998	100.043
0.722569	100.638
0.739577	100.648
0.754148	101.242
0.768718	101.837
0.783288	102.431
0.800288	103.027
0.81485	104.208
0.829428	104.216
0.84156	105.395
0.858559	105.991
0.87555	107.173
0.890112	108.354
0.904673	109.534
0.909505	111.295
0.921628	113.061
0.936163	115.999
0.9531	120.698
0.960345	123.632
0.970002	127.741
0.984386	140.643
0.9867	148.263
0.996285	157.06
0.998547	168.197
