Adsorption isotherm of Hydrogen on COF-102
DOI: 10.1039/C3ta01544k
Adsorbate Hydrogen: InChIKey UFHFLCQGNIYNRP-UHFFFAOYSA-N
Temperature: 20 K
Tabular data in the source: 0
pressure (bar)	uptake (mmol/g)
0.00837971	38.7503
0.0127495	50.9637
0.0280436	54.0881
0.108884	56.2183
0.215943	56.5024
0.307707	57.6385
0.408212	58.2066
0.506531	58.3486
0.607035	58.6326
0.700985	59.2007
