Adsorption isotherm of Deuterium on ZIF-8
DOI: 10.1039/C3ta01544k
Adsorbate Deuterium: InChIKey UFHFLCQGNIYNRP-VVKOMZTBSA-N
Temperature: 40 K
Tabular data in the source: 0
pressure (bar)	uptake (mmol/g)
0.00837971	9.87625
0.0127495	15.5001
0.0258587	17.3179
0.0564469	18.5109
0.104514	19.0789
0.202833	19.7038
0.303338	20.2719
0.406027	20.7263
0.513086	20.8399
0.60922	20.9536
0.718464	21.124
0.812413	21.2944
0.906363	21.408
0.991573	21.5784
