Adsorption isotherm of Deuterium on COF-102
DOI: 10.1039/C3ta01544k
Adsorbate Deuterium: InChIKey UFHFLCQGNIYNRP-VVKOMZTBSA-N
Temperature: 30 K
Tabular data in the source: 0
pressure (bar)	uptake (mmol/g)
0.00837971	19.0099
0.0105646	31.3654
0.0149343	36.194
0.0193041	40.3125
0.0280436	42.7267
0.0477074	45.5671
0.0739259	48.5494
0.104514	49.8276
0.307707	54.5141
0.504346	55.6503
0.607035	56.2183
0.705355	57.0704
0.801489	57.2125
0.899808	57.7805
0.993758	57.7805
