Adsorption isotherm of Deuterium on COF-102
DOI: 10.1039/C3ta01544k
Adsorbate Deuterium: InChIKey UFHFLCQGNIYNRP-VVKOMZTBSA-N
Temperature: 60 K
Tabular data in the source: 0
pressure (bar)	uptake (mmol/g)
0.0149343	1.39986
0.100144	5.51834
0.213758	8.78473
0.312077	11.199
0.414766	13.7553
0.517455	15.0335
0.700985	18.2999
0.797119	19.436
0.991573	21.8503
