Adsorption isotherm of Deuterium on COF-1
DOI: 10.1039/C3ta01544k
Adsorbate Deuterium: InChIKey UFHFLCQGNIYNRP-VVKOMZTBSA-N
Temperature: 50 K
Tabular data in the source: 0
pressure (bar)	uptake (mmol/g)
0.00837971	3.21363
0.0149343	5.37665
0.0280436	7.05901
0.0520772	8.40489
0.08922	9.5585
0.209388	10.9525
0.307707	11.2889
0.406027	11.7696
0.499976	12.0099
0.60922	12.2503
0.700985	12.5387
0.803674	12.6829
0.897623	12.9232
0.982834	12.9232
