Adsorption isotherm of Hydrogen on COF-1
DOI: 10.1039/C3ta01544k
Adsorbate Hydrogen: InChIKey UFHFLCQGNIYNRP-UHFFFAOYSA-N
Temperature: 40 K
Tabular data in the source: 0
pressure (bar)	uptake (mmol/g)
0.0105646	6.86674
0.0171192	9.31817
0.0324133	10.3276
0.104514	11.6254
0.207203	12.3464
0.408212	13.2597
0.504346	13.5481
0.622329	13.8365
0.696615	13.9326
0.801489	14.1249
0.899808	14.1249
0.989388	14.3172
