Adsorption isotherm of Hydrogen on COF-102
DOI: 10.1039/C3ta01544k
Adsorbate Hydrogen: InChIKey UFHFLCQGNIYNRP-UHFFFAOYSA-N
Temperature: 70 K
Tabular data in the source: 0
pressure (bar)	uptake (mmol/g)
0.0193041	0.547756
0.100144	2.67801
0.215943	3.95616
0.303338	5.66036
0.401657	6.79649
0.504346	7.6486
0.60485	8.5007
0.799304	10.2049
0.910733	11.341
0.985018	12.0511
