Adsorption isotherm of Deuterium on COF-1
DOI: 10.1039/C3ta01544k
Adsorbate Deuterium: InChIKey UFHFLCQGNIYNRP-VVKOMZTBSA-N
Temperature: 60 K
Tabular data in the source: 0
pressure (bar)	uptake (mmol/g)
0.00837971	1.29094
0.0193041	2.44455
0.0411528	4.22304
0.0717411	5.56892
0.111069	6.38607
0.211573	7.87615
0.305523	8.59716
0.399472	9.07783
0.502161	9.5585
0.607035	9.89497
0.700985	10.2314
0.808044	10.3276
0.893254	10.4237
0.987203	10.616
