Adsorption isotherm of Deuterium on COF-102
DOI: 10.1039/C3ta01544k
Adsorbate Deuterium: InChIKey UFHFLCQGNIYNRP-VVKOMZTBSA-N
Temperature: 20 K
Tabular data in the source: 0
pressure (bar)	uptake (mmol/g)
0.00837971	42.5847
0.0105646	53.662
0.0105646	56.2183
0.0193041	58.3486
0.0455226	60.6209
0.0782957	61.757
0.111069	61.615
0.154766	62.6091
