Adsorption isotherm of Hydrogen on ZIF-8
DOI: 10.1039/C3ta01544k
Adsorbate Hydrogen: InChIKey UFHFLCQGNIYNRP-UHFFFAOYSA-N
Temperature: 40 K
Tabular data in the source: 0
pressure (bar)	uptake (mmol/g)
0.00837971	10.4443
0.0127495	13.9095
0.0149343	15.5001
0.0345982	16.5226
0.0608167	17.602
0.115439	18.2268
0.202833	18.8517
0.309892	19.2494
0.513086	19.7606
0.709724	19.9878
0.998128	20.2151
