Adsorption isotherm of Hydrogen on COF-1
DOI: 10.1039/C3ta01544k
Adsorbate Hydrogen: InChIKey UFHFLCQGNIYNRP-UHFFFAOYSA-N
Temperature: 70 K
Tabular data in the source: 0
pressure (bar)	uptake (mmol/g)
0.0105646	0.185394
0.0455226	1.77161
0.0957747	2.82909
0.211573	4.31918
0.305523	5.13632
0.408212	5.76119
0.506531	6.24186
0.602665	6.67447
0.705355	7.01094
0.801489	7.29934
0.901993	7.53968
0.989388	7.68388
