Adsorption isotherm of Hydrogen on COF-1
DOI: 10.1039/C3ta01544k
Adsorbate Hydrogen: InChIKey UFHFLCQGNIYNRP-UHFFFAOYSA-N
Temperature: 30 K
Tabular data in the source: 0
pressure (bar)	uptake (mmol/g)
0.00837971	10.4718
0.0193041	12.1541
0.0433377	13.4519
0.106699	13.9807
0.194094	14.6056
0.301153	14.894
0.414766	14.894
0.504346	15.2785
0.600481	15.4708
0.69443	15.5669
0.805859	15.7111
0.897623	15.7111
