Adsorption isotherm of Hydrogen on ZIF-8
DOI: 10.1039/C3ta01544k
Adsorbate Hydrogen: InChIKey UFHFLCQGNIYNRP-UHFFFAOYSA-N
Temperature: 30 K
Tabular data in the source: 0
pressure (bar)	uptake (mmol/g)
0.00400996	17.2043
0.00619484	18.2836
0.0324133	19.3062
0.104514	20.0446
0.202833	20.6127
0.307707	20.8399
0.508716	21.124
0.60922	21.1808
0.707539	21.2376
0.810228	21.2944
0.919472	21.408
1.00031	21.2944
