Adsorption isotherm of Hydrogen on ZIF-8
DOI: 10.1039/C3ta01544k
Adsorbate Hydrogen: InChIKey UFHFLCQGNIYNRP-UHFFFAOYSA-N
Temperature: 20 K
Tabular data in the source: 0
pressure (bar)	uptake (mmol/g)
0.00837971	19.931
0.00837971	20.7831
0.0258587	21.408
0.0782957	21.7488
0.108884	21.7488
0.196279	21.8057
0.309892	21.8625
0.408212	22.4305
0.51527	22.6578
0.60485	23.0554
0.714094	23.169
