Adsorption isotherm of Deuterium on ZIF-8
DOI: 10.1039/C3ta01544k
Adsorbate Deuterium: InChIKey UFHFLCQGNIYNRP-VVKOMZTBSA-N
Temperature: 50 K
Tabular data in the source: 0
pressure (bar)	uptake (mmol/g)
0.0127495	2.49137
0.0171192	7.09272
0.021489	9.08095
0.0324133	11.0124
0.0542621	12.7734
0.0957747	15.0457
0.220312	16.9203
0.406027	18.1132
0.506531	18.5109
0.615775	18.6813
0.70317	18.7949
0.814598	18.9653
0.917287	19.1357
