Adsorption isotherm of Deuterium on COF-1
DOI: 10.1039/C3ta01544k
Adsorbate Deuterium: InChIKey UFHFLCQGNIYNRP-VVKOMZTBSA-N
Temperature: 20 K
Tabular data in the source: 0
pressure (bar)	uptake (mmol/g)
0.0105646	15.1343
0.0127495	17.0089
0.021489	18.1145
0.0630016	18.9316
0.115439	19.4123
0.154766	19.7488
