Adsorption isotherm of Hydrogen on ZIF-8
DOI: 10.1039/C3ta01544k
Adsorbate Hydrogen: InChIKey UFHFLCQGNIYNRP-UHFFFAOYSA-N
Temperature: 60 K
Tabular data in the source: 0
pressure (bar)	uptake (mmol/g)
0.0171192	0.616749
0.0520772	3.00263
0.0914049	4.76364
0.119808	6.01339
0.220312	8.74011
0.325186	10.4443
0.526195	12.1485
0.709724	13.5687
0.818968	13.7959
0.915102	14.364
0.993758	14.7048
