Adsorption isotherm of Hydrogen on COF-102
DOI: 10.1039/C3ta01544k
Adsorbate Hydrogen: InChIKey UFHFLCQGNIYNRP-UHFFFAOYSA-N
Temperature: 40 K
Tabular data in the source: 0
pressure (bar)	uptake (mmol/g)
0.0105646	5.80238
0.0193041	12.4772
0.0455226	17.5898
0.0651864	22.1343
0.104514	27.2469
0.211573	32.7856
0.305523	35.3419
0.403842	37.1881
0.508716	38.4662
0.611405	39.7444
0.714094	40.7385
0.803674	41.1646
0.910733	41.8746
0.989388	42.7267
