Adsorption isotherm of Deuterium on ZIF-8
DOI: 10.1039/C3ta01544k
Adsorbate Deuterium: InChIKey UFHFLCQGNIYNRP-VVKOMZTBSA-N
Temperature: 30 K
Tabular data in the source: 0
pressure (bar)	uptake (mmol/g)
0.00837971	17.0907
0.00837971	18.3404
0.0193041	19.7606
0.0520772	20.9536
0.111069	21.5216
0.209388	21.8625
0.312077	22.1465
0.403842	22.4873
0.51527	22.5441
0.60485	22.8282
0.718464	22.7714
0.805859	23.1122
0.912918	23.1122
0.989388	23.3394
