Adsorption isotherm of Hydrogen on ZIF-8
DOI: 10.1039/C3ta01544k
Adsorbate Hydrogen: InChIKey UFHFLCQGNIYNRP-UHFFFAOYSA-N
Temperature: 50 K
Tabular data in the source: 0
pressure (bar)	uptake (mmol/g)
0.0105646	1.80969
0.0193041	6.01339
0.0258587	9.59221
0.0586318	11.8077
0.0848503	13.2278
0.205018	15.841
0.423506	17.2611
0.508716	17.3179
0.624514	18.2268
0.716279	17.9996
0.915102	18.2836
0.995943	18.3404
