Adsorption isotherm of Hydrogen on COF-102
DOI: 10.1039/C3ta01544k
Adsorbate Hydrogen: InChIKey UFHFLCQGNIYNRP-UHFFFAOYSA-N
Temperature: 60 K
Tabular data in the source: 0
pressure (bar)	uptake (mmol/g)
0.0105646	1.68389
0.0935898	4.52423
0.202833	7.93263
0.307707	10.3469
0.397287	12.1931
0.502161	13.8973
0.60485	15.0335
0.810228	17.8738
0.904178	19.152
0.991573	19.862
