Adsorption isotherm of Deuterium on ZIF-8
DOI: 10.1039/C3ta01544k
Adsorbate Deuterium: InChIKey UFHFLCQGNIYNRP-VVKOMZTBSA-N
Temperature: 60 K
Tabular data in the source: 0
pressure (bar)	uptake (mmol/g)
0.0127495	0.616749
0.0345982	3.17305
0.0695562	5.50213
0.102329	7.26314
0.205018	10.6147
0.303338	12.4325
0.401657	13.5119
0.510901	14.1367
0.60922	14.7616
0.714094	15.2161
0.908548	15.9546
1.00031	16.1818
