Adsorption isotherm of Hydrogen on COF-102
DOI: 10.1039/C3ta01544k
Adsorbate Hydrogen: InChIKey UFHFLCQGNIYNRP-UHFFFAOYSA-N
Temperature: 50 K
Tabular data in the source: 0
pressure (bar)	uptake (mmol/g)
0.0105646	2.96204
0.0389679	6.37044
0.113254	12.0511
0.205018	17.0217
0.301153	20.7141
0.410397	23.6965
0.52401	25.8267
0.635439	27.673
0.812413	29.3772
0.906363	30.2293
0.991573	31.0814
