Adsorption isotherm of Deuterium on ZIF-8
DOI: 10.1039/C3ta01544k
Adsorbate Deuterium: InChIKey UFHFLCQGNIYNRP-VVKOMZTBSA-N
Temperature: 20 K
Tabular data in the source: 0
pressure (bar)	uptake (mmol/g)
0.0105646	21.8057
0.0127495	20.2719
0.0236738	22.7714
0.0957747	23.6235
0.196279	24.0211
