Adsorption isotherm of Deuterium on COF-1
DOI: 10.1039/C3ta01544k
Adsorbate Deuterium: InChIKey UFHFLCQGNIYNRP-VVKOMZTBSA-N
Temperature: 40 K
Tabular data in the source: 0
pressure (bar)	uptake (mmol/g)
0.00619484	7.15514
0.0149343	9.36623
0.0324133	11.1928
0.102329	12.779
0.209388	13.6923
0.307707	14.173
0.406027	14.5575
0.502161	14.7978
0.60485	15.0862
0.705355	15.2785
0.799304	15.3266
0.891069	15.5188
0.987203	15.7111
