Adsorption isotherm of Hydrogen on COF-1
DOI: 10.1039/C3ta01544k
Adsorbate Hydrogen: InChIKey UFHFLCQGNIYNRP-UHFFFAOYSA-N
Temperature: 60 K
Tabular data in the source: 0
pressure (bar)	uptake (mmol/g)
0.0105646	1.0506
0.0258587	2.73296
0.0630016	4.75178
0.0914049	5.28052
0.205018	6.91481
0.316447	7.63581
0.410397	8.30876
0.508716	8.64523
0.60922	9.02976
0.705355	9.36623
0.799304	9.4143
0.895439	9.5585
0.985018	9.75077
