Adsorption isotherm of Hydrogen on ZIF-8
DOI: 10.1039/C3ta01544k
Adsorbate Hydrogen: InChIKey UFHFLCQGNIYNRP-UHFFFAOYSA-N
Temperature: 70 K
Tabular data in the source: 0
pressure (bar)	uptake (mmol/g)
0.0105646	0.446329
0.102329	1.98011
0.196279	3.40028
0.316447	4.59322
0.408212	5.84297
0.502161	6.69507
0.61359	7.31994
0.705355	8.00162
0.808044	8.6833
0.910733	9.19456
0.998128	9.53541
