Adsorption isotherm of Deuterium on ZIF-8
DOI: 10.1039/C3ta01544k
Adsorbate Deuterium: InChIKey UFHFLCQGNIYNRP-VVKOMZTBSA-N
Temperature: 70 K
Tabular data in the source: 0
pressure (bar)	uptake (mmol/g)
0.0127495	0.332716
0.209388	4.08196
0.419136	6.86549
0.611405	8.56969
0.816783	9.93305
0.917287	9.98986
1.0025	10.6715
