Adsorption isotherm of Deuterium on COF-102
DOI: 10.1039/C3ta01544k
Adsorbate Deuterium: InChIKey UFHFLCQGNIYNRP-VVKOMZTBSA-N
Temperature: 70 K
Tabular data in the source: 0
pressure (bar)	uptake (mmol/g)
0.0149343	0.689772
0.106699	2.96204
0.205018	4.66624
0.307707	5.94439
0.403842	7.22255
0.506531	8.21666
0.593926	9.21078
0.696615	10.3469
0.794934	11.341
0.904178	12.0511
0.985018	13.0452
