Adsorption isotherm of Hydrogen on COF-1
DOI: 10.1039/C3ta01544k
Adsorbate Hydrogen: InChIKey UFHFLCQGNIYNRP-UHFFFAOYSA-N
Temperature: 20 K
Tabular data in the source: 0
pressure (bar)	uptake (mmol/g)
0.00837971	14.0768
0.0127495	15.5188
0.0258587	16.4802
0.111069	17.3935
0.211573	17.9703
0.305523	18.4509
0.403842	18.8835
0.51527	19.0758
0.607035	19.7007
0.655102	19.9891
