Adsorption isotherm of Deuterium on COF-102
DOI: 10.1039/C3ta01544k
Adsorbate Deuterium: InChIKey UFHFLCQGNIYNRP-VVKOMZTBSA-N
Temperature: 50 K
Tabular data in the source: 0
pressure (bar)	uptake (mmol/g)
0.00619484	3.10406
0.0804806	10.4889
0.100144	12.9032
0.209388	19.436
0.316447	22.9864
0.408212	26.2528
0.510901	28.5251
0.60922	30.3713
0.718464	31.2234
0.897623	34.0637
0.978464	34.9158
