Adsorption isotherm of Deuterium on COF-1
DOI: 10.1039/C3ta01544k
Adsorbate Deuterium: InChIKey UFHFLCQGNIYNRP-VVKOMZTBSA-N
Temperature: 70 K
Tabular data in the source: 0
pressure (bar)	uptake (mmol/g)
0.0105646	0.521865
0.0498923	1.86775
0.106699	3.30976
0.207203	4.84792
0.303338	5.80926
0.403842	6.28993
0.508716	6.81867
0.602665	7.20321
0.70317	7.58775
0.808044	7.87615
0.899808	8.16455
0.991573	8.40489
