Adsorption isotherm of Deuterium on COF-102
DOI: 10.1039/C3ta01544k
Adsorbate Deuterium: InChIKey UFHFLCQGNIYNRP-VVKOMZTBSA-N
Temperature: 40 K
Tabular data in the source: 0
pressure (bar)	uptake (mmol/g)
0.0127495	6.22843
0.021489	14.0394
0.0345982	22.1343
0.0739259	28.6671
0.106699	34.7738
0.202833	38.1822
0.397287	43.0108
0.504346	45.141
0.622329	46.4192
0.746867	47.4133
0.980649	48.8335
