Adsorption isotherm of Deuterium on COF-1
DOI: 10.1039/C3ta01544k
Adsorbate Deuterium: InChIKey UFHFLCQGNIYNRP-VVKOMZTBSA-N
Temperature: 30 K
Tabular data in the source: 0
pressure (bar)	uptake (mmol/g)
0.0105646	10.616
0.0149343	13.2116
0.0258587	14.3172
0.0542621	15.1824
0.108884	15.9514
0.207203	16.5283
0.305523	16.8647
0.401657	17.1531
0.499976	17.3935
0.60485	17.5857
0.707539	17.6819
0.797119	17.8741
0.991573	18.2587
