Adsorption isotherm of Hydrogen on COF-1
DOI: 10.1039/C3ta01544k
Adsorbate Hydrogen: InChIKey UFHFLCQGNIYNRP-UHFFFAOYSA-N
Temperature: 50 K
Tabular data in the source: 0
pressure (bar)	uptake (mmol/g)
0.00837971	3.06943
0.0171192	5.04018
0.0345982	6.4822
0.0651864	7.78002
0.106699	8.69329
0.202833	9.70271
0.312077	10.2314
0.401657	10.616
0.504346	10.9525
0.600481	11.2409
0.709724	11.3851
0.801489	11.6735
0.899808	11.8177
0.989388	11.8177
