Adsorption isotherm of Hydrogen on COF-102
DOI: 10.1039/C3ta01544k
Adsorbate Hydrogen: InChIKey UFHFLCQGNIYNRP-UHFFFAOYSA-N
Temperature: 30 K
Tabular data in the source: 0
pressure (bar)	uptake (mmol/g)
0.00837971	15.6015
0.0127495	30.5133
0.0236738	35.4839
0.0455226	40.1704
0.0957747	42.8688
0.222497	46.9873
0.325186	48.2654
0.43006	49.5436
0.497791	49.8276
0.60485	50.8217
0.727203	51.5318
0.808044	51.6738
0.928212	52.0999
0.991573	52.2419
