Adsorption isotherm of Reactive Violet 5, Water on cocoa shell activated carbon
DOI: 10.1016/j.rinp.2016.12.014
Article source: Figure 1
Adsorbate Reactive Violet 5: InChIKey UBTDYBUJBRAYEZ-UHFFFAOYSA-K
Adsorbate Water: InChIKey XLYOFNOQVPJJNP-UHFFFAOYSA-N
Kind: experiment
Temperature: 323 K
Tabular data in the source: 0
pressure (bar)	Reactive Violet 5 fraction	Reactive Violet 5 uptake (mg/g)	Water fraction	Water uptake (mg/g)	total uptake (mg/g)
1.01325	0.5	0.82			
1.01325	1.269	119.89			
1.01325	2.4	156.64			
1.01325	6.408	201.22			
1.01325	12.915	228.66			
1.01325	22.546	250.22			
1.01325	33.864	264.27			
1.01325	51.31	278.48			
1.01325	65.315	286.48			
1.01325	97.953	301.35			
1.01325	114.521	307.23			
1.01325	137.216	308.7			
1.01325	160.411	312.62			
1.01325	189.234	321.27			
1.01325	200.676	322.58			
