Adsorption isotherm of Reactive Violet 5, Water on cocoa shell activated carbon
DOI: 10.1016/j.rinp.2016.12.014
Article source: Figure 1
Adsorbate Reactive Violet 5: InChIKey UBTDYBUJBRAYEZ-UHFFFAOYSA-K
Adsorbate Water: InChIKey XLYOFNOQVPJJNP-UHFFFAOYSA-N
Kind: experiment
Temperature: 308 K
Tabular data in the source: 0
pressure (bar)	Reactive Violet 5 fraction	Reactive Violet 5 uptake (mg/g)	Water fraction	Water uptake (mg/g)	total uptake (mg/g)
1.01325	0.5	0.82			
1.01325	4.037	228.83			
1.01325	10.921	271.13			
1.01325	18.364	291.55			
1.01325	24.868	303.63			
1.01325	33.059	314.09			
1.01325	45.753	327.32			
1.01325	62.26	336.46			
1.01325	85.706	345.94			
1.01325	105.276	354.92			
1.01325	141.101	363.58			
1.01325	160.67	368.48			
1.01325	184.678	368.8			
1.01325	198.87	371.58			
