Adsorption isotherm of Reactive Violet 5, Water on cocoa shell activated carbon
DOI: 10.1016/j.rinp.2016.12.014
Article source: Figure 1
Adsorbate Reactive Violet 5: InChIKey UBTDYBUJBRAYEZ-UHFFFAOYSA-K
Adsorbate Water: InChIKey XLYOFNOQVPJJNP-UHFFFAOYSA-N
Kind: experiment
Temperature: 298 K
Tabular data in the source: 0
pressure (bar)	Reactive Violet 5 fraction	Reactive Violet 5 uptake (mg/g)	Water fraction	Water uptake (mg/g)	total uptake (mg/g)
1.01325	0.5	0.82			
1.01325	2.102	250.06			
1.01325	7.423	290.24			
1.01325	14.804	318.5			
1.01325	24.373	337.12			
1.01325	32.377	347.9			
1.01325	50.323	366.03			
1.01325	69.018	376.48			
1.01325	93.965	388.08			
1.01325	114.16	394.28			
1.01325	133.604	397.39			
1.01325	152.611	403.43			
1.01325	185.622	410.45			
1.01325	199.501	410.13			
