Adsorption isotherm of Reactive Violet 5, Water on commercial activated carbon
DOI: 10.1016/j.rinp.2016.12.014
Article source: Figure 1
Adsorbate Reactive Violet 5: InChIKey UBTDYBUJBRAYEZ-UHFFFAOYSA-K
Adsorbate Water: InChIKey XLYOFNOQVPJJNP-UHFFFAOYSA-N
Kind: experiment
Temperature: 313 K
Tabular data in the source: 0
pressure (bar)	Reactive Violet 5 fraction	Reactive Violet 5 uptake (mg/g)	Water fraction	Water uptake (mg/g)	total uptake (mg/g)
1.01325	0.138	0.65			
1.01325	2.925	27.48			
1.01325	9.36	116.47			
1.01325	16.656	168.16			
1.01325	22.334	193.02			
1.01325	27.6	204.25			
1.01325	36.582	217.23			
1.01325	46.974	222.79			
1.01325	56.541	228.9			
1.01325	70.479	229.77			
1.01325	84.348	232.5			
1.01325	95.325	235.88			
1.01325	101.52	235.88			
