Adsorption isotherm of Reactive Violet 5, Water on commercial activated carbon
DOI: 10.1016/j.rinp.2016.12.014
Article source: Figure 1
Adsorbate Reactive Violet 5: InChIKey UBTDYBUJBRAYEZ-UHFFFAOYSA-K
Adsorbate Water: InChIKey XLYOFNOQVPJJNP-UHFFFAOYSA-N
Kind: experiment
Temperature: 308 K
Tabular data in the source: 0
pressure (bar)	Reactive Violet 5 fraction	Reactive Violet 5 uptake (mg/g)	Water fraction	Water uptake (mg/g)	total uptake (mg/g)
1.01325	0.138	0.65			
1.01325	2.994	41			
1.01325	5.713	75.9			
1.01325	8.19	113.96			
1.01325	10.634	140.57			
1.01325	15.658	177.64			
1.01325	20.132	196.29			
1.01325	25.019	210.36			
1.01325	34.586	224.1			
1.01325	45.151	230.32			
1.01325	54.442	233.81			
1.01325	68.104	241.66			
1.01325	85.793	240.57			
1.01325	94.224	243.08			
1.01325	102.484	243.29			
