Adsorption isotherm of Reactive Violet 5, Water on commercial activated carbon
DOI: 10.1016/j.rinp.2016.12.014
Article source: Figure 1
Adsorbate Reactive Violet 5: InChIKey UBTDYBUJBRAYEZ-UHFFFAOYSA-K
Adsorbate Water: InChIKey XLYOFNOQVPJJNP-UHFFFAOYSA-N
Kind: experiment
Temperature: 303 K
Tabular data in the source: 0
pressure (bar)	Reactive Violet 5 fraction	Reactive Violet 5 uptake (mg/g)	Water fraction	Water uptake (mg/g)	total uptake (mg/g)
1.01325	0.138	0.65			
1.01325	2.512	28.24			
1.01325	3.166	44.6			
1.01325	5.781	97.93			
1.01325	8.707	133.26			
1.01325	11.907	166.74			
1.01325	13.834	181.9			
1.01325	18.721	200.44			
1.01325	22.919	215.59			
1.01325	32.073	227.37			
1.01325	39.61	237.95			
1.01325	47.353	242.31			
1.01325	57.161	242.86			
1.01325	67.244	248.42			
1.01325	83.384	247.22			
1.01325	99.111	251.04			
