Adsorption isotherm of Reactive Violet 5, Water on commercial activated carbon
DOI: 10.1016/j.rinp.2016.12.014
Article source: Figure 1
Adsorbate Reactive Violet 5: InChIKey UBTDYBUJBRAYEZ-UHFFFAOYSA-K
Adsorbate Water: InChIKey XLYOFNOQVPJJNP-UHFFFAOYSA-N
Kind: experiment
Temperature: 323 K
Tabular data in the source: 0
pressure (bar)	Reactive Violet 5 fraction	Reactive Violet 5 uptake (mg/g)	Water fraction	Water uptake (mg/g)	total uptake (mg/g)
1.01325	0.138	0.65			
1.01325	4.783	26.94			
1.01325	7.261	58.02			
1.01325	11.666	109.38			
1.01325	15.176	140.89			
1.01325	20.098	170.77			
1.01325	25.535	188.11			
1.01325	33.381	202.51			
1.01325	39.885	208.4			
1.01325	45.667	212.43			
1.01325	59.019	217.01			
1.01325	74.815	221.59			
1.01325	83.935	224.1			
1.01325	90.026	220.72			
1.01325	102.862	220.72			
