Adsorption isotherm of Reactive Violet 5, Water on cocoa shell activated carbon
DOI: 10.1016/j.rinp.2016.12.014
Article source: Figure 1
Adsorbate Reactive Violet 5: InChIKey UBTDYBUJBRAYEZ-UHFFFAOYSA-K
Adsorbate Water: InChIKey XLYOFNOQVPJJNP-UHFFFAOYSA-N
Kind: experiment
Temperature: 303 K
Tabular data in the source: 0
pressure (bar)	Reactive Violet 5 fraction	Reactive Violet 5 uptake (mg/g)	Water fraction	Water uptake (mg/g)	total uptake (mg/g)
1.01325	0.5	0.82			
1.01325	2.279	180.81			
1.01325	4.541	251.2			
1.01325	9.61	285.5			
1.01325	15.427	302			
1.01325	20.556	315.23			
1.01325	30.186	328.62			
1.01325	47.444	346.92			
1.01325	65.576	358.19			
1.01325	91.024	368.64			
1.01325	115.657	376.48			
1.01325	135.102	382.52			
1.01325	150.107	383.18			
1.01325	182.431	390.85			
1.01325	200.124	393.14			
