Adsorption isotherm of Reactive Violet 5, Water on cocoa shell activated carbon
DOI: 10.1016/j.rinp.2016.12.014
Article source: Figure 1
Adsorbate Reactive Violet 5: InChIKey UBTDYBUJBRAYEZ-UHFFFAOYSA-K
Adsorbate Water: InChIKey XLYOFNOQVPJJNP-UHFFFAOYSA-N
Kind: experiment
Temperature: 318 K
Tabular data in the source: 0
pressure (bar)	Reactive Violet 5 fraction	Reactive Violet 5 uptake (mg/g)	Water fraction	Water uptake (mg/g)	total uptake (mg/g)
1.01325	0.5	0.82			
1.01325	1.209	136.22			
1.01325	2.841	174.11			
1.01325	5.847	211.02			
1.01325	10.916	238.46			
1.01325	20.798	263.94			
1.01325	36.556	284.36			
1.01325	48.624	296.61			
1.01325	62.442	301.67			
1.01325	90.703	316.86			
1.01325	112.773	320.78			
1.01325	132.905	328.95			
1.01325	170.605	332.87			
1.01325	190.8	339.89			
1.01325	201.866	337.44			
