Adsorption isotherm of Reactive Violet 5, Water on commercial activated carbon
DOI: 10.1016/j.rinp.2016.12.014
Article source: Figure 1
Adsorbate Reactive Violet 5: InChIKey UBTDYBUJBRAYEZ-UHFFFAOYSA-K
Adsorbate Water: InChIKey XLYOFNOQVPJJNP-UHFFFAOYSA-N
Kind: experiment
Temperature: 298 K
Tabular data in the source: 0
pressure (bar)	Reactive Violet 5 fraction	Reactive Violet 5 uptake (mg/g)	Water fraction	Water uptake (mg/g)	total uptake (mg/g)
1.01325	0.138	0.65			
1.01325	1.48	30.75			
1.01325	3.82	74.7			
1.01325	4.921	97.16			
1.01325	7.089	133.15			
1.01325	10.496	166.52			
1.01325	14.798	192.8			
1.01325	20.855	215.27			
1.01325	30.215	232.93			
1.01325	36.822	240.57			
1.01325	48.454	248.53			
1.01325	64.938	254.63			
1.01325	79.839	258.67			
1.01325	91.368	259.76			
1.01325	100.075	261.29			
