Adsorption isotherm of Reactive Violet 5, Water on commercial activated carbon
DOI: 10.1016/j.rinp.2016.12.014
Article source: Figure 1
Adsorbate Reactive Violet 5: InChIKey UBTDYBUJBRAYEZ-UHFFFAOYSA-K
Adsorbate Water: InChIKey XLYOFNOQVPJJNP-UHFFFAOYSA-N
Kind: experiment
Temperature: 318 K
Tabular data in the source: 0
pressure (bar)	Reactive Violet 5 fraction	Reactive Violet 5 uptake (mg/g)	Water fraction	Water uptake (mg/g)	total uptake (mg/g)
1.01325	0.138	0.65			
1.01325	3.682	25.63			
1.01325	6.401	66.19			
1.01325	9.877	110.58			
1.01325	13.869	143.73			
1.01325	18.377	171.1			
1.01325	23.917	191.06			
1.01325	30.525	203.71			
1.01325	37.786	212.43			
1.01325	48.489	219.3			
1.01325	57.436	221.48			
1.01325	72.75	225.3			
1.01325	80.665	225.95			
1.01325	87.066	228.57			
1.01325	101.004	228.46			
