Adsorption isotherm of Reactive Violet 5, Water on cocoa shell activated carbon
DOI: 10.1016/j.rinp.2016.12.014
Article source: Figure 1
Adsorbate Reactive Violet 5: InChIKey UBTDYBUJBRAYEZ-UHFFFAOYSA-K
Adsorbate Water: InChIKey XLYOFNOQVPJJNP-UHFFFAOYSA-N
Kind: experiment
Temperature: 313 K
Tabular data in the source: 0
pressure (bar)	Reactive Violet 5 fraction	Reactive Violet 5 uptake (mg/g)	Water fraction	Water uptake (mg/g)	total uptake (mg/g)
1.01325	0.5	0.82			
1.01325	5.036	218.37			
1.01325	9.542	247.45			
1.01325	17.048	273.91			
1.01325	26.554	289.75			
1.01325	34.495	300.37			
1.01325	44.25	309.19			
1.01325	60.507	320.95			
1.01325	87.829	330.91			
1.01325	107.962	340.55			
1.01325	130.782	343.49			
1.01325	166.045	353.78			
1.01325	187.614	353.45			
1.01325	200.744	358.35			
