Adsorption isotherm of Nitrogen on BDF-TAPT-COF
DOI: 10.1039/d1cc00854d
Article source: Figure 2
Adsorbate Nitrogen: InChIKey IJGRMHOSHXDMSA-UHFFFAOYSA-N
Kind: experiment
Temperature: 77 K
Tabular data in the source: 0
pressure (bar)	uptake (cm3(STP)/g)
0	9.17431
0	31.1927
-0.001861	67.8899
0.007444	110.092
0.022331	139.45
0.053966	159.633
0.091183	185.321
0.113514	212.844
0.135844	240.367
0.18981	266.055
0.264245	273.395
0.320072	280.734
0.37962	286.239
0.437307	293.578
0.468942	293.578
0.521047	297.248
0.582456	304.587
0.630839	310.092
0.679222	315.596
0.736909	322.936
0.789014	328.44
0.837397	339.45
0.88764	344.954
0.952771	372.477
0.962076	383.486
0.986267	460.55
0.997433	500.917
0.99185	539.45
1.00302	629.358
1.01232	708.257
