Adsorption isotherm of Lead(II) Ion on Alginate-Au-Mica bionanocomposite
DOI: 10.1016/j.psep.2017.03.020
Article source: Figure 7
Adsorbate Lead(II) Ion: InChIKey RVPVRDXYQKGNMQ-UHFFFAOYSA-N
Kind: experiment
Temperature: 308 K
Tabular data in the source: 0
pressure (bar)	uptake (mg/g)
1.01325	18.581
1.01325	53.508
1.01325	125.113
1.01325	151.621
