Adsorption isotherm of Copper(II) Ion on Alginate-Au-Mica bionanocomposite
DOI: 10.1016/j.psep.2017.03.020
Article source: Figure 7
Adsorbate Copper(II) Ion: InChIKey JPVYNHNXODAKFH-UHFFFAOYSA-N
Kind: experiment
Temperature: 308 K
Tabular data in the source: 0
pressure (bar)	uptake (mg/g)
1.01325	18.058
1.01325	51.384
1.01325	83.101
1.01325	124.071
1.01325	128.737
