Adsorption isotherm of Copper(II) Ion, Lead(II) Ion on Alginate-Au-Mica bionanocomposite
DOI: 10.1016/j.psep.2017.03.020
Article source: Figure 7
Adsorbate Copper(II) Ion: InChIKey JPVYNHNXODAKFH-UHFFFAOYSA-N
Adsorbate Lead(II) Ion: InChIKey RVPVRDXYQKGNMQ-UHFFFAOYSA-N
Kind: experiment
Temperature: 308 K
Tabular data in the source: 0
pressure (bar)	Copper(II) Ion fraction	Copper(II) Ion uptake (mg/g)	Lead(II) Ion fraction	Lead(II) Ion uptake (mg/g)	total uptake (mg/g)
1.01325			3.616	12.588	
1.01325			8.976	41.727	
1.01325			21.547	57.339	
1.01325			41.011	77.706	
1.01325			46.615	107.484	
