Adsorption isotherm of Boron on UiO-66
DOI: 10.1021/acs.iecr.6b04066
Article source: Figure 5A
Adsorbate Boron: InChIKey ZOXJGFHDIHLPTG-UHFFFAOYSA-N
Kind: experiment
Temperature: 318 K
Tabular data in the source: 0
pressure (bar)	uptake (mmol/g)
1.01325	4.8991
1.01325	7.10762
1.01325	7.5
1.01325	10.2466
1.01325	11.4238
