Adsorption isotherm of Nitrogen on UiO-66
DOI: 10.1021/acs.iecr.6b04066
Article source: Figure 1C
Adsorbate Nitrogen: InChIKey IJGRMHOSHXDMSA-UHFFFAOYSA-N
Kind: experiment
Temperature: 77 K
Tabular data in the source: 0
pressure (bar)	uptake (cm3(STP)/g)
0.000999	1.66667
0.000999	10
0.000999	19.1667
0.000999	25.8333
0.000999	35
0.000999	42.5
0.000999	52.5
0.000999	68.3333
0.000999	78.3333
0.000999	88.3333
0.000999	96.6667
0.000999	107.5
0.000999	135
0.000999	156.667
0.000999	167.5
0.000999	178.333
0.000999	188.333
0.005996	223.333
0.004996	240
0.006995	251.667
0.010992	266.667
0.048964	350.833
0.101925	372.5
0.150888	380
0.203849	384.167
0.252813	388.333
0.303775	391.667
0.354737	391.667
0.4057	395
0.455663	398.333
0.505626	399.167
0.555589	400.833
0.606551	403.333
0.660511	404.167
0.707476	407.5
0.761436	409.167
0.809401	410
0.859364	412.5
0.913324	419.167
0.960289	428.333
0.985271	442.5
0.99926	495
0.997262	495.833
0.987269	465.833
0.95929	432.5
0.908328	420
0.857365	415
0.808402	413.333
0.757439	410
0.705478	407.5
0.655515	407.5
0.60755	405.833
0.55359	402.5
0.504626	401.667
0.454663	400
0.402702	398.333
0.35174	395
0.300777	393.333
0.249815	388.333
0.201851	386.667
0.14889	382.5
0.096928	371.667
0.048964	355
