Adsorption isotherm of Boron on UiO-66
DOI: 10.1021/acs.iecr.6b04066
Article source: Figure 5A
Adsorbate Boron: InChIKey ZOXJGFHDIHLPTG-UHFFFAOYSA-N
Kind: experiment
Temperature: 298 K
Tabular data in the source: 0
pressure (bar)	uptake (mmol/g)
1.01325	4.70852
1.01325	5.38117
1.01325	7.34305
1.01325	9.83184
1.01325	10.1457
