Adsorption isotherm of Boron on UiO-66
DOI: 10.1021/acs.iecr.6b04066
Article source: Figure 5A
Adsorbate Boron: InChIKey ZOXJGFHDIHLPTG-UHFFFAOYSA-N
Kind: experiment
Temperature: 308 K
Tabular data in the source: 0
pressure (bar)	uptake (mmol/g)
1.01325	4.49552
1.01325	6.33408
1.01325	7.79148
1.01325	9.56278
1.01325	10.7063
