Adsorption isotherm of Nitrogen on 2D-BPTA-COF
DOI: 10.1021/jacs.9b13824
Article source: Figure 1a
Adsorbate Nitrogen: InChIKey IJGRMHOSHXDMSA-UHFFFAOYSA-N
Kind: experiment
Temperature: 77 K
Tabular data in the source: 0
pressure (bar)	uptake (cm3(STP)/g)
0	6.72269
0	35.5342
0	62.425
0.000877	96.9988
0.000877	117.167
0.000877	145.018
0.000877	168.067
0.003506	189.196
0.014024	209.364
0.030678	222.809
0.045579	230.492
0.062232	236.255
0.100799	247.779
0.15076	258.343
0.201598	268.908
0.252436	275.63
0.303274	282.353
0.354112	289.076
0.405826	296.759
0.455787	302.521
0.505748	309.244
0.556586	316.927
0.606548	321.729
0.657385	329.412
0.708223	338.055
0.759937	346.699
0.810775	357.263
0.86249	371.669
0.914204	397.599
0.962412	460.984
0.003506	212.245
0.007012	226.651
0.01753	238.175
0.026295	246.819
0.03769	255.462
0.049961	260.264
0.09817	276.591
0.152513	285.234
0.200722	291.957
0.253312	298.679
0.303274	305.402
0.354112	311.164
0.404949	313.085
0.454034	322.689
0.506625	350.54
0.557463	354.382
0.608301	360.144
0.657385	368.788
0.7091	375.51
0.759937	383.193
0.810775	394.718
0.860737	411.044
0.913327	438.896
0.962412	515.726
1.00273	750.06
