Adsorption isotherm of Nitrogen on 3D-BMTA-COF
DOI: 10.1021/jacs.9b13824
Article source: Figure 1c
Adsorbate Nitrogen: InChIKey IJGRMHOSHXDMSA-UHFFFAOYSA-N
Kind: experiment
Temperature: 77 K
Tabular data in the source: 0
pressure (bar)	uptake (cm3(STP)/g)
0	101.833
0	169.989
0	66.5521
0	84.9943
0	226.117
0	46.5063
0.000876	1.60367
0.000876	250.974
0.000876	279.038
0.000876	16.8385
0.000876	264.605
0.002627	328.751
0.007882	360.825
0.06393	404.124
0.102463	412.944
0.152382	424.17
0.2023	429.782
0.253969	437.801
0.304763	441.008
0.356433	445.819
0.406351	449.828
0.455393	452.234
0.507063	457.045
0.557857	461.856
0.607775	465.865
0.66032	469.874
0.709363	473.883
0.758405	477.892
0.81095	482.703
0.86262	489.92
0.911662	498.74
0.96158	519.588
0.003506	347.995
0.007012	368.843
0.019283	384.88
0.029801	396.105
0.04032	401.718
0.047332	404.926
0.100799	421.764
0.151637	428.981
0.202475	437.801
0.251559	442.612
0.303274	445.819
0.354112	449.828
0.404949	454.639
0.455787	459.45
0.506625	465.865
0.556586	469.874
0.607424	473.081
0.659138	475.487
0.7091	480.298
0.759937	485.109
0.811652	489.118
0.861613	494.731
0.909821	503.551
0.960659	527.606
1.00273	635.853
