Adsorption isotherm of Nitrogen on Neimenggu Coal
DOI: 10.1021/ef100142t
Article source: Figure 3a
Adsorbate Nitrogen: InChIKey IJGRMHOSHXDMSA-UHFFFAOYSA-N
Kind: experiment
Temperature: 77 K
Tabular data in the source: 0
pressure (bar)	uptake (cm3(STP)/g)
0.007937	1.25581
0.033104	1.74419
0.056681	1.95349
0.078688	2.16279
0.099122	2.33721
0.11955	2.44186
0.139985	2.61628
0.150982	2.65116
0.160411	2.68605
0.18084	2.7907
0.201273	2.96512
0.251555	3.13953
0.251559	3.2093
0.282985	3.31395
0.301838	3.34884
0.334839	3.52326
0.35369	3.52326
0.402402	3.73256
0.402409	3.83721
0.455828	3.94186
0.455842	4.15116
0.504538	4.11628
0.504592	4.95349
0.556395	4.36047
0.556452	5.23256
0.606678	4.56977
0.606737	5.47674
0.656964	4.81395
0.657028	5.7907
0.708825	5.12791
0.708891	6.13953
0.75912	5.51163
0.759189	6.55814
0.809422	6
0.809495	7.11628
0.829865	6.31395
0.834655	7.5
0.844087	7.60465
0.859742	6.76744
0.869252	8.05814
0.884911	7.2907
0.894428	8.68605
0.911661	7.95349
0.921191	9.55814
0.935283	8.86047
0.947986	10.9186
0.960512	10.2907
0.974849	13.3256
0.985813	12.8372
0.990735	16.0116
0.993755	14.1628
1.00178	16.7791
1.00824	19.4302
