Adsorption isotherm of Nitrogen on Neimenggu Coal
DOI: 10.1021/ef100142t
Article source: Figure 3d
Adsorbate Nitrogen: InChIKey IJGRMHOSHXDMSA-UHFFFAOYSA-N
Kind: experiment
Temperature: 77 K
Tabular data in the source: 0
pressure (bar)	uptake (cm3(STP)/g)
0.009515	1.36296
0.033879	1.67703
0.056689	1.86531
0.079486	2.01164
0.100753	2.11606
0.120504	2.2205
0.140255	2.32495
0.140312	2.5137
0.150879	2.34571
0.161516	2.4084
0.181254	2.47091
0.202508	2.53338
0.202566	2.72213
0.252608	2.67915
0.252666	2.86789
0.284557	2.99306
0.304219	2.80391
0.336162	3.09685
0.354312	2.9287
0.404406	3.0535
0.404476	3.28418
0.454506	3.19926
0.457674	3.6396
0.506116	3.32402
0.506518	4.64523
0.556643	4.87488
0.557733	3.46976
0.607827	3.59455
0.608253	4.99964
0.65794	3.78226
0.658347	5.12444
0.708046	3.94899
0.709964	5.27017
0.759688	4.17861
0.760076	5.45788
0.809833	4.47118
0.810202	5.68753
0.831106	4.59657
0.836039	5.85477
0.861526	4.86857
0.861876	6.02201
0.869485	6.10574
0.885878	5.1407
0.895348	6.35686
0.910255	5.49671
0.92123	6.6709
0.937698	5.95752
0.945645	7.15274
0.962178	6.64908
0.973184	7.92813
0.988326	7.84393
0.990161	8.89247
0.99456	8.38906
1.00402	9.56328
1.00887	10.5698
