Adsorption isotherm of Nitrogen on Neimenggu Coal
DOI: 10.1021/ef100142t
Article source: Figure 3b
Adsorbate Nitrogen: InChIKey IJGRMHOSHXDMSA-UHFFFAOYSA-N
Kind: experiment
Temperature: 77 K
Tabular data in the source: 0
pressure (bar)	uptake (cm3(STP)/g)
0.009286	1.0662
0.032803	1.4216
0.056343	1.60976
0.078314	1.777
0.100293	1.88153
0.120699	2.00697
0.125444	1.7561
0.141112	2.06969
0.150532	2.1115
0.161524	2.15331
0.181938	2.21603
0.183531	2.04878
0.202352	2.27875
0.233781	2.19512
0.251032	2.42509
0.284026	2.38328
0.302858	2.52962
0.335854	2.4878
0.353115	2.63415
0.404952	2.65505
0.422221	2.73868
0.455203	2.80139
0.45676	2.90592
0.505459	2.90592
0.506929	3.67944
0.557174	3.8676
0.557286	3.01045
0.607424	4.01394
0.607545	3.09408
0.657678	4.13937
0.657798	3.21951
0.709497	4.30662
0.709617	3.38676
0.759745	4.47387
0.759863	3.57491
0.809982	4.72474
0.810099	3.82578
0.817828	4.78746
0.830502	3.97213
0.860202	5.10105
0.860317	4.223
0.86962	5.16376
0.885413	4.51568
0.894711	5.49826
0.912073	4.87108
0.921367	5.87456
0.93714	5.39373
0.946428	6.43902
0.96217	6.18815
0.971437	7.4007
0.987127	7.54704
0.988572	8.50871
0.991758	8.17422
1.0026	9.34495
1.00559	10.4739
