Adsorption isotherm of Nitrogen on Neimenggu Coal
DOI: 10.1021/ef100142t
Article source: Figure 2a
Adsorbate Nitrogen: InChIKey IJGRMHOSHXDMSA-UHFFFAOYSA-N
Kind: experiment
Temperature: 77 K
Tabular data in the source: 0
pressure (bar)	uptake (cm3(STP)/g)
0.009353	1.89928
0.032736	2.2446
0.056118	2.46043
0.079501	2.63309
0.099766	2.71942
0.120032	2.80576
0.123148	2.41727
0.140297	2.89209
0.149649	2.97842
0.160562	3.02158
0.180827	3.06475
0.182385	2.71942
0.201092	3.10791
0.233827	2.93525
0.250974	3.28058
0.28371	3.10791
0.302417	3.4964
0.335152	3.28058
0.353858	3.58273
0.386593	3.45324
0.403742	3.7554
0.453624	3.88489
0.456742	3.71223
0.505067	4.05755
0.554949	4.35971
0.556508	4.18705
0.604832	4.61871
0.606392	4.40288
0.656274	4.57554
0.657833	5.00719
0.707717	4.92086
0.757599	6.1295
0.759158	5.30935
0.809042	7.03597
0.829307	6.21583
0.833983	7.64029
0.858924	6.77698
0.860483	8.46043
0.869837	8.84892
0.885424	7.51079
0.894778	9.88489
0.910367	8.46043
0.921278	11.223
0.935308	9.79856
0.949337	13.2086
0.960249	11.8273
0.974278	16.4892
0.985191	15.2374
0.991427	17.1799
1.00234	20.5899
1.00701	23.6115
