Adsorption isotherm of Nitrogen on Neimenggu Coal
DOI: 10.1021/ef100142t
Article source: Figure 2b
Adsorbate Nitrogen: InChIKey IJGRMHOSHXDMSA-UHFFFAOYSA-N
Kind: experiment
Temperature: 77 K
Tabular data in the source: 0
pressure (bar)	uptake (cm3(STP)/g)
0.009247	1.48421
0.034099	1.73684
0.057402	1.89474
0.079154	1.98947
0.100905	2.11579
0.121103	2.21053
0.122674	1.86316
0.139748	2.27368
0.152179	2.30526
0.15995	2.30526
0.181701	2.4
0.183272	2.08421
0.201902	2.43158
0.234547	2.24211
0.251625	2.55789
0.284271	2.36842
0.302904	2.68421
0.335549	2.49474
0.354185	2.74737
0.385272	2.62105
0.40391	2.84211
0.455187	2.96842
0.455196	2.77895
0.506466	3.06316
0.556186	3.25263
0.55619	3.18947
0.607458	3.50526
0.607469	3.28421
0.657189	3.47368
0.658729	3.75789
0.708439	4.13684
0.708462	3.69474
0.758143	4.64211
0.759733	3.94737
0.809442	4.35789
0.810941	5.4
0.82963	4.64211
0.834228	5.87368
0.860615	6.50526
0.860688	5.08421
0.869925	6.78947
0.885527	5.58947
0.894746	7.61053
0.910352	6.34737
0.921117	8.55789
0.936719	7.35789
0.947463	9.97895
0.961507	8.84211
0.973759	12.3474
0.984692	11.3053
0.990725	14.8105
0.992393	12.6316
1.00158	15.2211
1.00613	17.5263
