Adsorption isotherm of Nitrogen on Shenua Coal
DOI: 10.1021/ef100142t
Article source: Figure 1c
Adsorbate Nitrogen: InChIKey IJGRMHOSHXDMSA-UHFFFAOYSA-N
Kind: experiment
Temperature: 77 K
Tabular data in the source: 0
pressure (bar)	uptake (cm3(STP)/g)
0.007973	0.991862
0.033028	1.22491
0.056504	1.35586
0.079974	1.45764
0.100311	1.5157
0.119084	1.57378
0.140985	1.63181
0.141	1.73393
0.15037	1.66085
0.159757	1.6899
0.181653	1.71876
0.200437	1.84978
0.201985	1.74764
0.252034	1.81986
0.252049	1.92197
0.284892	1.96526
0.303643	1.87747
0.334937	2.00831
0.353685	1.90592
0.403749	2.08026
0.422495	1.96328
0.455363	2.16704
0.474102	2.0063
0.50538	2.03503
0.505464	2.57478
0.555516	2.67617
0.574187	2.0778
0.589924	2.71944
0.624236	2.15002
0.657079	2.19331
0.658741	2.82057
0.70713	2.28012
0.708792	2.90737
0.758751	2.41067
0.758849	3.03794
0.808815	2.585
0.808918	3.24145
0.816738	3.25593
0.829159	2.68682
0.843343	3.40143
0.860461	2.87601
0.866823	3.56155
0.883948	3.07991
0.893439	3.77999
0.910573	3.35669
0.92007	4.08595
0.935651	3.73562
0.945159	4.53781
0.960764	4.33336
0.971866	5.33976
0.985948	5.39791
0.98766	6.3461
0.992285	5.92299
1.00184	7.00235
1.00668	7.9505
