Adsorption isotherm of Nitrogen on Shenua Coal
DOI: 10.1021/ef100142t
Article source: Figure 1d
Adsorbate Nitrogen: InChIKey IJGRMHOSHXDMSA-UHFFFAOYSA-N
Kind: experiment
Temperature: 77 K
Tabular data in the source: 0
pressure (bar)	uptake (cm3(STP)/g)
0.010293	1.04348
0.03363	1.23188
0.056994	1.37681
0.080395	1.46377
0.100668	1.55072
0.120968	1.5942
0.141169	1.7971
0.14125	1.66667
0.150624	1.68116
0.159978	1.72464
0.181842	1.76812
0.200497	1.94203
0.200588	1.7971
0.250571	1.88406
0.252052	2.01449
0.283299	2.05797
0.302135	1.94203
0.334854	2.13043
0.352136	2
0.403592	2.23188
0.403691	2.07246
0.453701	2.11594
0.455101	2.37681
0.504785	2.94203
0.505265	2.17391
0.553712	2.21739
0.554731	3.08696
0.605258	2.30435
0.606268	3.18841
0.65524	2.3913
0.656252	3.27536
0.706768	2.50725
0.707789	3.37681
0.756715	2.65217
0.757735	3.52174
0.807636	3.73913
0.808179	2.86957
0.828443	2.97101
0.832581	3.85507
0.840373	3.89855
0.858008	3.2029
0.866847	4.07246
0.882891	3.42029
0.891738	4.27536
0.907728	3.71014
0.916575	4.56522
0.932511	4.08696
0.942903	4.97101
0.958739	4.65217
0.96746	5.71014
0.981569	5.65217
0.984134	6.55072
0.987515	6.14493
0.997854	7.11594
1.00207	7.86957
