Adsorption isotherm of Nitrogen on Neimenggu Coal
DOI: 10.1021/ef100142t
Article source: Figure 2c
Adsorbate Nitrogen: InChIKey IJGRMHOSHXDMSA-UHFFFAOYSA-N
Kind: experiment
Temperature: 77 K
Tabular data in the source: 0
pressure (bar)	uptake (cm3(STP)/g)
0.009404	1.42105
0.032829	1.64211
0.056251	1.76842
0.081233	1.83158
0.101532	1.92632
0.120268	1.98947
0.1265	1.48421
0.142127	2.02105
0.151495	2.08421
0.162424	2.08421
0.18116	2.11579
0.184271	1.67368
0.201456	2.14737
0.234234	1.8
0.25298	2.24211
0.284197	1.92632
0.302942	2.33684
0.335721	2.02105
0.354466	2.4
0.385683	2.11579
0.405989	2.46316
0.437207	2.21053
0.455951	2.55789
0.488733	2.4
0.505913	2.62105
0.557434	2.65263
0.574609	2.68421
0.6074	2.84211
0.626133	2.77895
0.658922	2.87368
0.658927	3.06316
0.708885	3
0.708894	3.34737
0.760412	3.22105
0.760427	3.82105
0.810381	3.6
0.811966	4.48421
0.832244	3.78947
0.836957	4.89474
0.861918	4.2
0.863512	5.46316
0.871325	5.71579
0.88691	4.64211
0.897883	6.37895
0.913468	5.30526
0.924449	7.29474
0.938473	6.25263
0.951024	8.62105
0.963488	7.61053
0.976065	10.9263
0.988532	10.0421
0.993301	13.3579
0.996371	11.3368
1.00424	13.8947
1.009	16.5474
