Adsorption isotherm of Nitrogen on Neimenggu Coal
DOI: 10.1021/ef100142t
Article source: Figure 2d
Adsorbate Nitrogen: InChIKey IJGRMHOSHXDMSA-UHFFFAOYSA-N
Kind: experiment
Temperature: 77 K
Tabular data in the source: 0
pressure (bar)	uptake (cm3(STP)/g)
0.009353	1.41365
0.034295	1.63855
0.057677	1.76707
0.079501	1.86345
0.101325	1.92771
0.12159	2.0241
0.126266	1.67068
0.140297	2.05622
0.151208	2.08835
0.160562	2.12048
0.182385	2.15261
0.183943	1.83133
0.20265	2.18474
0.235386	1.92771
0.252533	2.28112
0.285268	2.0241
0.303975	2.34538
0.336711	2.08835
0.353858	2.40964
0.386593	2.18474
0.422447	2.4739
0.438036	2.249
0.473889	2.53815
0.506625	2.53815
0.556508	2.63454
0.575214	2.63454
0.60795	2.79518
0.657833	2.76305
0.659392	3.02008
0.707717	2.89157
0.709275	3.30924
0.759158	3.08434
0.809042	3.43775
0.8106	4.33735
0.830865	3.59839
0.835541	4.78715
0.860483	5.26908
0.869837	5.49398
0.885424	4.33735
0.894778	6.10442
0.910367	4.91566
0.921278	6.90763
0.936866	5.78313
0.947779	8.03213
0.961808	7.00402
0.97272	9.86345
0.985191	9.18876
0.989867	11.8554
0.992985	10.3133
1.00234	12.4337
1.00701	14.3614
