Adsorption isotherm of Nitrogen on Shenua Coal
DOI: 10.1021/ef100142t
Article source: Figure 1a
Adsorbate Nitrogen: InChIKey IJGRMHOSHXDMSA-UHFFFAOYSA-N
Kind: experiment
Temperature: 77 K
Tabular data in the source: 0
pressure (bar)	uptake (cm3(STP)/g)
0.007966	0.785047
0.033103	1.04673
0.056656	1.21495
0.080205	1.34579
0.099041	1.43925
0.121018	1.5514
0.127254	1.30841
0.139852	1.62617
0.150839	1.68224
0.160257	1.71963
0.180658	1.79439
0.183763	1.58879
0.201061	1.86916
0.233985	1.7757
0.251279	2.03738
0.284206	1.96262
0.303063	2.18692
0.334424	2.13084
0.353279	2.33645
0.405039	2.33645
0.40506	2.46729
0.455257	2.50467
0.455272	2.59813
0.505484	2.72897
0.505517	2.93458
0.555694	2.84112
0.55731	3.14019
0.605909	2.99065
0.607531	3.3271
0.657693	3.14019
0.657755	3.53271
0.707982	3.75701
0.709486	3.34579
0.758212	4
0.759711	3.5514
0.809953	3.86916
0.810025	4.33645
0.830363	4
0.833583	4.52336
0.843005	4.59813
0.860209	4.28037
0.868139	4.84112
0.885345	4.54206
0.893282	5.14019
0.910497	4.8972
0.920014	5.57009
0.93567	5.38318
0.945209	6.20561
0.960885	6.14953
0.972047	7.30841
0.986195	7.51402
0.987943	8.65421
0.99257	8.14953
1.0022	9.5514
1.00711	10.8411
