Adsorption isotherm of Nitrogen on Neimenggu Coal
DOI: 10.1021/ef100142t
Article source: Figure 3c
Adsorbate Nitrogen: InChIKey IJGRMHOSHXDMSA-UHFFFAOYSA-N
Kind: experiment
Temperature: 77 K
Tabular data in the source: 0
pressure (bar)	uptake (cm3(STP)/g)
0.008015	1.22858
0.033191	1.54045
0.05678	1.7274
0.08036	1.85187
0.102364	1.93472
0.121226	2.01764
0.14165	2.03805
0.141658	2.10052
0.15109	2.14198
0.160521	2.18344
0.180948	2.22467
0.202944	2.24505
0.202949	2.2867
0.251662	2.38983
0.284659	2.45163
0.303516	2.49289
0.336513	2.55469
0.353797	2.57516
0.404077	2.65744
0.405656	2.71988
0.455931	2.7605
0.455953	2.92711
0.506212	2.84277
0.506329	3.73829
0.556492	2.92504
0.556629	3.96634
0.608346	3.02811
0.608485	4.09024
0.658635	3.17286
0.658769	4.19333
0.708923	3.31761
0.70906	4.35891
0.759221	3.52483
0.760928	4.5661
0.809523	3.77371
0.811235	4.85663
0.819096	4.89812
0.831538	3.93987
0.844258	5.10587
0.85985	4.21003
0.869423	5.33444
0.886594	4.50104
0.894595	5.62549
0.91178	4.89622
0.921358	6.06228
0.936986	5.43718
0.948147	6.68652
0.96223	6.26971
0.973423	7.76895
0.987553	7.70619
0.989296	9.01819
0.993924	8.37249
1.00352	9.64269
1.00841	11.0588
