Adsorption isotherm of Nitrogen on Shenua Coal
DOI: 10.1021/ef100142t
Article source: Figure 1b
Adsorbate Nitrogen: InChIKey IJGRMHOSHXDMSA-UHFFFAOYSA-N
Kind: experiment
Temperature: 77 K
Tabular data in the source: 0
pressure (bar)	uptake (cm3(STP)/g)
0.00926	0.800781
0.034308	1.05469
0.056234	1.23047
0.07974	1.34766
0.100112	1.44531
0.120484	1.54297
0.125248	1.23047
0.14086	1.62109
0.151831	1.66016
0.161235	1.69922
0.181615	1.75781
0.183231	1.50391
0.201987	1.85547
0.233387	1.69922
0.252157	1.97266
0.283545	1.875
0.302323	2.10938
0.33528	2.01172
0.352489	2.24609
0.404228	2.36328
0.404257	2.20703
0.454405	2.44141
0.454419	2.36328
0.506103	2.77344
0.506144	2.55859
0.556262	2.94922
0.556317	2.65625
0.607993	3.10547
0.608059	2.75391
0.658151	3.28125
0.658225	2.89062
0.708307	3.47656
0.708387	3.04688
0.758543	3.24219
0.760027	3.69141
0.808684	3.51562
0.81016	4.00391
0.830617	3.65234
0.835223	4.17969
0.84305	4.25781
0.860374	3.88672
0.868103	4.49219
0.885418	4.16016
0.894712	4.78516
0.910445	4.53125
0.919731	5.19531
0.935449	5.01953
0.946274	5.83984
0.960405	5.76172
0.971153	6.99219
0.986801	7.1875
0.989699	8.45703
0.991371	7.91016
1.00049	9.45312
1.00646	11.0547
