Adsorption isotherm of Hydrogen on {[Co3(L)3(DMF)0.5(H2O)1.5]*n(solv)}
DOI: 10.1039/C1dt10901d
Adsorbate Hydrogen: InChIKey UFHFLCQGNIYNRP-UHFFFAOYSA-N
Temperature: 88 K
Tabular data in the source: 0
pressure (bar)	uptake (wt%)
0.0560331	0.25708
0.112371	0.492996
0.281385	0.683137
0.70392	0.936658
1.15462	1.10567
1.97153	1.30286
2.98561	1.46835
3.97153	1.58455
6.0842	1.73243
8.02786	1.82398
9.97153	1.89793
12.9856	1.97539
15.9152	2.01412
17.549	2.04229
19.0138	2.06342
