Adsorption isotherm of Hydrogen on {[Co2(L)2(DMF)]*n(solv)}
DOI: 10.1039/C1dt10901d
Adsorbate Hydrogen: InChIKey UFHFLCQGNIYNRP-UHFFFAOYSA-N
Temperature: 78 K
Tabular data in the source: 0
pressure (bar)	uptake (wt%)
0.196878	0.0549753
0.196878	0.536665
0.253216	0.671877
0.365892	0.823989
0.450399	1.0099
0.816597	1.23385
1.12646	1.42821
1.57716	1.65216
2.53491	1.90568
3.6335	2.06202
5.12646	2.20568
7.07012	2.34089
9.07012	2.45498
11.5772	2.53948
14.5912	2.66202
15.9997	2.70427
17.5772	2.74652
18.9574	2.76765
