Adsorption isotherm of Hydrogen on {[Co3(L)3(DMF)0.5(H2O)1.5]*n(solv)}
DOI: 10.1039/C1dt10901d
Adsorbate Hydrogen: InChIKey UFHFLCQGNIYNRP-UHFFFAOYSA-N
Temperature: 78 K
Tabular data in the source: 0
pressure (bar)	uptake (wt%)
0.0842021	0.514123
0.0842021	0.686658
0.112371	0.866235
0.253216	1.02821
0.563075	1.24652
0.985611	1.44722
1.49265	1.63032
2.4504	1.82046
3.9997	1.97187
6.05603	2.08455
7.97153	2.1444
10.0279	2.20426
12.9856	2.24652
15.9715	2.27821
17.549	2.30286
19.0419	2.32046
