Adsorption isotherm of Hydrogen on {[Co2(L)2(DMF)]*n(solv)}
DOI: 10.1039/C1dt10901d
Adsorbate Hydrogen: InChIKey UFHFLCQGNIYNRP-UHFFFAOYSA-N
Temperature: 88 K
Tabular data in the source: 0
pressure (bar)	uptake (wt%)
0.0842021	0.0592007
0.309554	0.28737
0.506737	0.473285
0.844766	0.684553
1.2673	0.862018
2.02786	1.07329
3.01378	1.39441
3.97153	1.55498
6.05603	1.71554
8.02786	1.82962
10.1124	1.90145
12.0842	1.94793
13.9997	2.00709
16.1405	2.04934
17.9997	2.08314
19.0419	2.10427
