Adsorption isotherm of Nitrogen on {[Co3(L)3(DMF)0.5(H2O)1.5]*n(solv)}
DOI: 10.1039/C1dt10901d
Adsorbate Nitrogen: InChIKey IJGRMHOSHXDMSA-UHFFFAOYSA-N
Temperature: 78 K
Tabular data in the source: 0
pressure (bar)	uptake (wt%)
0.000692	14.9978
0.000692	16.5996
0.0018358	13.4961
0.0098446	19.9532
0.0224299	21.1045
0.0590415	22.0555
0.0967973	22.6062
0.135697	23.0066
0.166588	23.2068
0.202056	23.5071
0.294729	24.258
0.343926	24.7585
0.417149	25.209
0.489229	25.5093
0.565884	25.6095
0.609361	25.7596
0.64254	25.8097
