Adsorption isotherm of Nitrogen on {[Co2(L)2(DMF)]*n(solv)}
DOI: 10.1039/C1dt10901d
Adsorbate Nitrogen: InChIKey IJGRMHOSHXDMSA-UHFFFAOYSA-N
Temperature: 78 K
Tabular data in the source: 0
pressure (bar)	uptake (wt%)
0.000692	21.2046
0.00297991	0.78217
0.00412403	25.5594
0.0132769	26.6106
0.0418798	28.5126
0.0716268	29.2635
0.108238	29.714
0.175741	30.0143
0.212353	30.3146
0.30045	30.5148
0.395411	30.7151
0.565884	31.0154
0.659702	31.0654
