Adsorption isotherm of Nitrogen on Pd4.5/MIL-101
DOI: 10.1166/jnn.2014.8535
Adsorbate Nitrogen: InChIKey IJGRMHOSHXDMSA-UHFFFAOYSA-N
Temperature: 77 K
Tabular data in the source: 0
pressure (bar)	uptake (cm3(STP)/g)
0.00702957	212.511
0.00710568	75.0484
0.00770762	260.569
0.00788059	129.971
0.00836491	164.298
0.00867627	329.222
0.0445506	443.269
0.0591286	476.498
0.0675697	503.333
0.0823415	550.293
0.131341	594.59
0.159819	612.993
0.201055	678.512
0.338353	695.32
0.493675	703.851
0.546121	706.643
0.594732	723.479
0.639027	720.032
0.689459	722.98
0.735766	719.377
0.784185	722.482
0.917359	732.737
0.968372	776.877
0.976912	810.577
0.979409	844.747
