Adsorption isotherm of Nitrogen on MIL-101
DOI: 10.1166/jnn.2014.8535
Adsorbate Nitrogen: InChIKey IJGRMHOSHXDMSA-UHFFFAOYSA-N
Temperature: 77 K
Tabular data in the source: 0
pressure (bar)	uptake (cm3(STP)/g)
0.00255998	467.155
0.00372235	549.539
0.00375695	123.419
0.00453186	178.341
0.00489856	61.4745
0.0055005	246.995
0.00651066	604.304
0.00714719	363.705
0.0170619	637.848
0.0260841	705.874
0.0374103	794.34
0.0521821	841.3
0.0608169	881.865
0.0756855	935.691
0.0926645	996.226
0.103215	1029.77
0.134773	1123.53
0.200654	1221.5
0.211108	1248.18
0.218117	1316.36
0.277087	1353.01
0.335862	1375.93
0.390127	1364.83
0.45475	1373.55
0.511609	1403.49
0.562137	1413.3
0.628676	1415
0.687161	1417.32
0.748047	1446.94
0.808643	1455.97
0.857352	1479.67
0.879596	1484.82
0.924181	1501.97
0.947104	1555.16
0.952196	1630.37
0.957094	1691.84
0.96519	1979.87
0.967278	1842.25
