Adsorption isotherm of Nitrogen on ZBTEC-1
DOI: 10.1016/j.micromeso.2008.04.003
Adsorbate Nitrogen: InChIKey IJGRMHOSHXDMSA-UHFFFAOYSA-N
Temperature: 77 K
Tabular data in the source: 0
pressure (bar)	uptake (cm3(STP)/g)
0.00400996	16.854
0.0935898	60.5515
0.25527	91.1397
0.499976	130.467
0.578632	134.837
0.679136	161.056
0.77527	200.383
0.851741	257.19
0.928212	383.913
0.978464	825.257
