Adsorption isotherm of Hydrogen on ZBTEC-1
DOI: 10.1016/j.micromeso.2008.04.003
Adsorbate Hydrogen: InChIKey UFHFLCQGNIYNRP-UHFFFAOYSA-N
Temperature: 77 K
Tabular data in the source: 0
pressure (bar)	uptake (cm3(STP)/g)
0.00619484	0.319919
0.0193041	2.7779
0.104514	4.47118
0.229052	5.94597
0.381993	7.36614
0.51527	8.18546
0.661657	9.11404
0.766531	9.49639
0.888884	9.87874
0.989388	9.93336
