Adsorption isotherm of Hydrogen on ZBTEC-1
DOI: 10.1016/j.micromeso.2008.04.003
Adsorbate Hydrogen: InChIKey UFHFLCQGNIYNRP-UHFFFAOYSA-N
Temperature: 77 K
Tabular data in the source: 0
pressure (bar)	uptake (cm3(STP)/g)
0.0171192	3.43336
0.0433377	5.61824
0.106699	7.96698
0.207203	10.5888
0.307707	13.1561
0.384178	15.0678
0.513086	17.5804
0.641993	19.7107
0.812413	22.551
0.982834	25.6098
