Adsorption isotherm of N-Butane on TetZB
DOI: 10.1039/C1cc11738f
Adsorbate N-Butane: InChIKey IJDNQMDRQITEOD-UHFFFAOYSA-N
Temperature: 298 K
Tabular data in the source: 0
pressure (bar)	uptake (mmol/g)
0.00248763	0.372126
0.00995051	0.643678
0.0124381	0.83477
0.0273639	0.864943
0.0597031	0.91523
0.0796041	0.925287
0.0970175	0.935345
0.116919	0.95546
0.13682	0.95546
0.164183	0.975575
0.194035	0.99569
0.238812	1.02586
0.261201	1.06609
0.281102	1.11638
0.288565	1.15661
0.305978	1.25718
0.318416	1.3477
0.33583	1.47845
0.343293	1.58908
0.353243	1.6796
0.365681	1.77011
0.385582	1.95115
0.393045	1.99138
0.407971	2.07184
0.415434	2.13218
0.43036	2.20259
0.445285	2.28305
0.465186	2.36351
0.480112	2.45402
