Adsorption isotherm of N-Heptane on TetZB
DOI: 10.1039/C1cc11738f
Adsorbate N-Heptane: InChIKey IMNFDUFMRHMDMM-UHFFFAOYSA-N
Temperature: 298 K
Tabular data in the source: 0
pressure (bar)	uptake (mmol/g)
0.000121211	0.428571
0.000442354	0.512422
0.000869228	0.586957
0.00171968	0.642857
0.00246342	0.680124
0.00341894	0.708075
0.00437447	0.736025
0.00511919	0.801242
0.00586391	0.86646
0.00639685	0.940994
0.00714058	0.978261
0.0078853	1.04348
0.00863003	1.1087
0.00905525	1.13665
0.0101178	1.19255
0.010968	1.23913
0.0118177	1.2764
0.0125625	1.34161
0.0133072	1.40683
0.0142627	1.43478
0.0151132	1.49068
0.0159633	1.53727
0.0169191	1.57453
0.017875	1.6118
0.0188309	1.64907
0.0214856	1.74224
0.0224412	1.77019
0.0233967	1.79814
0.0244579	1.81677
0.0255192	1.8354
0.0264744	1.85404
0.0275353	1.86335
0.0284905	1.88199
0.0295518	1.90062
0.030613	1.91925
0.0315682	1.93789
0.0326292	1.9472
0.0336901	1.95652
0.0346449	1.96584
0.0357059	1.97516
0.0367668	1.98447
0.0378277	1.99379
0.0387829	2.01242
0.0405866	2.03106
0.0416472	2.03106
0.0427084	2.04969
0.0436633	2.05901
0.0445124	2.07764
0.0455734	2.08696
0.046634	2.08696
0.0476949	2.09627
0.0485434	2.09627
