Adsorption isotherm of N-Butane on TetZB
DOI: 10.1039/C1cc11738f
Adsorbate N-Butane: InChIKey IJDNQMDRQITEOD-UHFFFAOYSA-N
Temperature: 323 K
Tabular data in the source: 0
pressure (bar)	uptake (mmol/g)
0.00506902	0.432471
0.010138	0.734195
0.0354831	0.804598
0.0658972	0.844828
0.10138	0.864943
0.152071	0.875
0.197692	0.885057
0.243313	0.895115
0.294003	0.905172
0.41059	0.925287
0.461281	0.945402
0.511971	0.945402
