Adsorption isotherm of N-Butane on TetZB
DOI: 10.1039/C1cc11738f
Adsorbate N-Butane: InChIKey IJDNQMDRQITEOD-UHFFFAOYSA-N
Temperature: 283 K
Tabular data in the source: 0
pressure (bar)	uptake (mmol/g)
0.00151789	0.00151789
0.00910736	0.885057
0.0227684	0.925287
0.0409831	0.965517
0.0652694	0.99569
0.0789305	1.02586
0.0941094	1.05603
0.0986631	1.09626
0.104735	1.16667
0.110806	1.25718
0.118396	1.4181
0.122949	1.49856
0.127503	1.59914
0.132057	1.68966
0.1442	1.90086
0.150271	1.99138
0.157861	2.0819
0.174558	2.26293
0.183665	2.33333
0.204916	2.44397
0.215541	2.50431
0.227684	2.56466
0.239827	2.63506
0.25197	2.6954
0.264113	2.74569
0.276257	2.80603
0.289918	2.85632
0.302061	2.89655
0.31724	2.93678
0.330901	2.96695
0.34608	2.98707
0.359741	3.00718
0.37492	3.01724
0.388581	3.03736
0.399206	3.05747
0.417421	3.07759
0.449297	3.08764
0.48269	3.0977
0.500905	3.11782
