Adsorption isotherm of N-Hexane on TetZB
DOI: 10.1039/C1cc11738f
Adsorbate N-Hexane: InChIKey VLKZOEOYAKHREP-UHFFFAOYSA-N
Temperature: 298 K
Tabular data in the source: 0
pressure (bar)	uptake (mmol/g)
0.000711546	0.0652174
0.00426381	0.34472
0.00708704	0.409938
0.00955504	0.447205
0.0148419	0.512422
0.0197746	0.559006
0.0232996	0.60559
0.0243609	0.652174
0.0254222	0.698758
0.0268398	0.782609
0.0282574	0.86646
0.0293242	0.959627
0.0335804	1.23913
0.034998	1.32298
0.0360648	1.41615
0.0392509	1.57453
0.0438437	1.7236
0.046315	1.78882
0.0470232	1.82609
0.0494934	1.88199
0.0523177	1.95652
0.0607842	2.12422
0.0639561	2.16149
0.0671269	2.18944
0.0692407	2.20807
0.0727613	2.21739
0.0734663	2.22671
0.0769868	2.23602
0.0808605	2.25466
0.0843821	2.27329
0.0875507	2.28261
0.0910713	2.29193
0.0967046	2.31056
