Adsorption isotherm of N-Pentane on TetZB
DOI: 10.1039/C1cc11738f
Adsorbate N-Pentane: InChIKey OFBQJSOFQDEBGM-UHFFFAOYSA-N
Temperature: 298 K
Tabular data in the source: 0
pressure (bar)	uptake (mmol/g)
0.00011109	0.279503
0.00379188	0.540373
0.0121533	0.57764
0.0193297	0.63354
0.0289242	0.773292
0.0349786	1.00621
0.0374004	1.09938
0.0410108	1.18323
0.0434326	1.2764
0.0458543	1.36957
0.0615292	1.80745
0.0651433	1.90062
0.0759746	2.15217
0.0807774	2.23602
0.0867726	2.31988
0.097552	2.44099
0.116663	2.52484
0.134556	2.54348
0.142899	2.53416
0.154823	2.53416
0.16675	2.54348
0.178674	2.54348
0.190601	2.5528
0.202525	2.5528
