Adsorption isotherm of N-Octane on TetZB
DOI: 10.1039/C1cc11738f
Adsorbate N-Octane: InChIKey TVMXDCGIABBOFY-UHFFFAOYSA-N
Temperature: 298 K
Tabular data in the source: 0
pressure (bar)	uptake (mmol/g)
1e-07	0.00931677
0.00025913	0.0652174
0.00051806	0.111801
0.000744887	0.177019
0.00103592	0.204969
0.00132705	0.242236
0.00161819	0.279503
0.00184481	0.326087
0.00197443	0.363354
0.00216905	0.437888
0.00233137	0.512422
0.00252609	0.596273
0.00262361	0.652174
0.00285023	0.698758
0.00310926	0.754658
0.00336829	0.810559
0.00369213	0.885093
0.00395086	0.913043
0.00424209	0.959627
0.00453323	0.996894
0.00479226	1.0528
0.00505098	1.08075
0.00530991	1.12733
0.00560105	1.1646
0.00589218	1.20186
0.00615101	1.23913
0.00644224	1.28571
0.00670117	1.3323
0.0069921	1.35093
0.00728324	1.3882
0.00757437	1.42547
0.00789771	1.45342
0.00818874	1.48137
0.00851197	1.5
0.00880291	1.51863
0.00912624	1.54658
0.00941718	1.56522
0.00970811	1.58385
0.00999904	1.60248
0.0103222	1.6118
0.0106131	1.63043
0.0109363	1.64907
0.0112273	1.6677
0.0115505	1.68634
0.0118736	1.69565
0.0121646	1.71429
0.0124877	1.7236
0.0128108	1.73292
0.0131018	1.75155
0.0134249	1.76087
0.0137804	1.77019
