Adsorption isotherm of N-Butane on TetZB
DOI: 10.1039/C1cc11738f
Adsorbate N-Butane: InChIKey IJDNQMDRQITEOD-UHFFFAOYSA-N
Temperature: 273 K
Tabular data in the source: 0
pressure (bar)	uptake (mmol/g)
0.00105552	0.00105552
0.00316656	0.864943
0.00633313	1.75
0.00949969	2.26293
0.0116107	2.53448
0.0126663	2.64511
0.0179439	2.75575
0.026388	2.81609
0.0348322	2.86638
0.0432764	2.89655
0.0538316	2.93678
0.0633313	2.9569
0.072831	2.98707
0.0823307	3.00718
0.0928859	3.01724
0.103441	3.03736
0.112941	3.04741
0.123496	3.05747
0.134051	3.06753
0.143551	3.08764
0.151995	3.08764
0.16255	3.0977
0.173106	3.10776
0.183661	3.11782
0.191049	3.11782
0.201605	3.12787
0.21216	3.13793
0.22166	3.13793
0.232215	3.14799
0.24277	3.15805
0.253325	3.15805
0.271269	3.1681
0.281824	3.1681
0.292379	3.1681
0.301879	3.17816
0.312434	3.17816
0.32299	3.18822
0.333545	3.18822
0.3441	3.19828
0.354655	3.19828
0.364155	3.21839
0.373655	3.20833
0.38421	3.20833
0.394765	3.21839
0.40532	3.21839
0.415875	3.22845
0.426431	3.22845
0.436986	3.22845
0.447541	3.23851
0.458096	3.23851
0.467596	3.24856
0.473929	3.24856
