Adsorption isotherm of Carbon Dioxide on C4N8O4Cd2
DOI: 10.1039/C0cc03506h
Adsorbate Carbon Dioxide: InChIKey CURLTUGMZLYLDI-UHFFFAOYSA-N
Temperature: 195 K
Tabular data in the source: 0
pressure (bar)	uptake (cm3(STP)/g)
0.00515464	2.55738
0.0206186	3.54098
0.0489691	3.54098
0.100515	3.7377
0.152062	3.7377
0.201031	3.7377
0.244845	3.7377
0.298969	3.54098
0.368557	3.54098
0.417526	3.54098
0.466495	3.54098
0.518041	3.34426
0.569588	3.14754
0.621134	2.95082
0.664948	3.14754
0.716495	3.14754
0.765464	3.14754
0.81701	2.95082
0.845361	3.14754
0.89433	3.34426
0.943299	4.32787
0.963918	5.90164
0.981959	12
