Adsorption isotherm of Hydrogen on C4N8O4Cd2
DOI: 10.1039/C0cc03506h
Adsorbate Hydrogen: InChIKey UFHFLCQGNIYNRP-UHFFFAOYSA-N
Temperature: 87 K
Tabular data in the source: 0
pressure (bar)	uptake (wt%)
0.00256261	0.00894984
0.00757134	0.0537155
0.0076587	0.033566
0.0126771	0.0760928
0.0152009	0.0939979
0.0306154	0.138742
0.0512716	0.174519
0.0693069	0.21478
0.0796738	0.223713
0.100398	0.243819
0.108134	0.259475
0.149621	0.290731
0.159998	0.297425
0.201543	0.315249
0.21191	0.324182
0.253436	0.346483
0.305416	0.357568
0.352174	0.373141
0.406736	0.388698
0.458726	0.397545
0.508115	0.406396
0.557494	0.417487
0.612095	0.424088
0.661502	0.428462
0.710901	0.435075
0.757707	0.439454
0.809726	0.441584
0.864317	0.450425
0.916346	0.450315
0.963143	0.456934
1.00735	0.461318
