Adsorption isotherm of Hydrogen on C4N8O4Cd2
DOI: 10.1039/C0cc03506h
Adsorbate Hydrogen: InChIKey UFHFLCQGNIYNRP-UHFFFAOYSA-N
Temperature: 77 K
Tabular data in the source: 0
pressure (bar)	uptake (wt%)
0.00470782	0.114169
0.00478548	0.0962586
0.00979421	0.141024
0.0123277	0.156691
0.0148224	0.181312
0.0224422	0.223833
0.0326927	0.259633
0.048146	0.295421
0.0506892	0.308849
0.0739856	0.335666
0.0765385	0.346854
0.0998544	0.369193
0.125752	0.396005
0.156902	0.411611
0.20364	0.431662
0.253019	0.442752
0.30498	0.458315
0.310163	0.462782
0.351737	0.473889
0.406338	0.48049
0.458319	0.491575
0.510309	0.500421
0.559707	0.507034
0.609115	0.511408
0.655911	0.518026
0.707921	0.522395
0.757319	0.529007
0.811929	0.53337
0.863939	0.537739
0.915958	0.539868
0.960172	0.542014
0.999155	0.550888
