Adsorption isotherm of Nitrogen on C4N8O4Cd2
DOI: 10.1039/C0cc03506h
Adsorbate Nitrogen: InChIKey IJGRMHOSHXDMSA-UHFFFAOYSA-N
Temperature: 77 K
Tabular data in the source: 0
pressure (bar)	uptake (cm3(STP)/g)
0	3.93443
0.00257732	9.63934
0.00515464	14.5574
0.00773196	19.6721
0.0128866	24.9836
0.0180412	29.9016
0.0335052	33.6393
0.0618557	38.7541
0.0773196	40.7213
0.103093	42.6885
0.154639	45.8361
0.213918	47.4098
0.257732	48.7869
0.309278	49.7705
0.360825	50.5574
0.409794	51.3443
0.46134	51.9344
0.512887	52.5246
0.559278	52.918
0.60567	53.1148
0.657216	53.7049
0.71134	53.9016
0.760309	54.0984
0.809278	54.2951
0.85567	54.6885
0.909794	54.8852
0.956186	55.082
0.997423	55.2787
