Adsorption isotherm of Nitrogen on MIL-53(Al)
DOI: 10.1039/C4gc00313f
Adsorbate Nitrogen: InChIKey IJGRMHOSHXDMSA-UHFFFAOYSA-N
Temperature: 77 K
Tabular data in the source: 0
pressure (bar)	uptake (cm3(STP)/g)
0.000373029	73.5178
0.00177737	162.055
0.00274285	222.925
0.00404846	130.237
0.00494812	186.957
0.00573806	236.759
0.00586971	245.059
0.00868937	247.826
0.0143067	251.976
0.0199241	256.126
0.0254976	257.51
0.0338688	260.277
0.0394203	260.277
0.0533211	261.66
0.0616704	263.043
0.0727954	264.427
0.0811666	267.194
0.089472	265.81
0.100597	267.194
0.122803	267.194
0.150583	268.577
0.172789	268.577
0.200568	269.96
0.222797	271.344
0.247801	272.727
0.270007	272.727
0.294988	272.727
0.322768	274.111
0.342198	274.111
0.367202	275.494
0.392185	275.494
0.419942	275.494
0.442171	276.877
0.467152	276.877
0.489359	276.877
0.51434	276.877
0.536547	276.877
0.56155	278.261
0.586533	278.261
0.60876	279.644
0.636519	279.644
0.6615	279.644
0.686482	279.644
0.70871	281.028
0.733692	281.028
0.75592	282.411
0.783679	282.411
0.808682	283.794
0.828112	283.794
0.853116	285.178
0.875344	286.561
0.903124	287.945
0.928106	287.945
