Adsorption isotherm of Nitrogen on MIL-53(Al)
DOI: 10.1039/C4gc00313f
Adsorbate Nitrogen: InChIKey IJGRMHOSHXDMSA-UHFFFAOYSA-N
Temperature: 77 K
Tabular data in the source: 0
pressure (bar)	uptake (cm3(STP)/g)
0.000768	98.419
0.00147017	142.688
0.00186514	167.589
0.00448731	157.905
0.004992	189.723
0.00789943	198.024
0.010763	203.557
0.0247735	211.858
0.0526629	220.158
0.0721591	224.308
0.0999607	227.075
0.122233	231.225
0.150012	232.609
0.172241	233.992
0.20002	235.375
0.219472	236.759
0.241701	238.142
0.272256	239.526
0.294484	240.909
0.319488	242.292
0.338919	242.292
0.369495	245.059
0.391702	245.059
0.41393	246.443
0.438934	247.826
0.463916	247.826
0.488919	249.209
0.513923	250.593
0.533376	251.976
0.561133	251.976
0.586116	251.976
0.611141	254.743
0.63337	256.126
0.658374	257.51
0.683356	257.51
0.708337	257.51
0.730588	260.277
0.755591	261.66
0.780617	264.427
0.805643	267.194
0.830669	269.96
0.852941	274.111
0.877967	276.877
0.905834	283.794
0.928215	294.862
