Adsorption isotherm of Carbon Dioxide on [Cu(BF4)2(bpp)2]n
DOI: 10.1016/j.micromeso.2015.03.021
Article source: Figure 2a
Adsorbate Carbon Dioxide: InChIKey CURLTUGMZLYLDI-UHFFFAOYSA-N
Kind: experiment
Temperature: 298 K
Tabular data in the source: 0
pressure (bar)	uptake (cm3(STP)/g)
0	0
0.347395	3.61111
0.645161	12.2222
0.744417	16.1111
0.868486	19.4444
0.967742	22.7778
1.16625	25.8333
1.46402	31.1111
1.53846	33.3333
1.76179	35.5556
2.10918	39.1667
2.20844	41.1111
2.40695	41.9444
2.72953	45
2.8536	46.3889
3.10174	47.2222
3.5732	50.2778
3.77171	50.8333
4.26799	53.3333
4.49132	53.3333
4.96278	55.5556
5.16129	55.8333
5.65757	57.2222
5.85608	57.2222
6.37717	58.3333
6.55087	58.8889
7.07196	60
7.24566	60
7.79156	61.1111
8.0397	61.1111
8.53598	61.6667
8.75931	61.6667
9.30521	62.7778
