Adsorption isotherm of N-Butane on [Cu(BF4)2(bpp)2]n
DOI: 10.1016/j.micromeso.2015.03.021
Article source: Figure 2a
Adsorbate N-Butane: InChIKey IJDNQMDRQITEOD-UHFFFAOYSA-N
Kind: experiment
Temperature: 298 K
Tabular data in the source: 0
pressure (bar)	uptake (cm3(STP)/g)
0	0
0.123762	0.275296
0.247525	0.843137
0.321782	3.63266
0.346535	21.4731
0.39604	13.6696
0.420792	27.8863
0.445545	41.8243
0.470297	45.1699
0.519802	52.1399
0.544554	55.4856
0.569307	61.8974
0.643564	65.8019
0.742574	66.9197
1.06436	67.7649
1.23762	67.4909
