Adsorption isotherm of N-propane on [Cu(BF4)2(bpp)2]n
DOI: 10.1016/j.micromeso.2015.03.021
Article source: Figure 2a
Adsorbate N-propane: InChIKey ATUOYWHBWRKTHZ-UHFFFAOYSA-N
Kind: experiment
Temperature: 298 K
Tabular data in the source: 0
pressure (bar)	uptake (cm3(STP)/g)
0	0
0.347395	1.38889
0.57072	8.61111
0.719603	15.5556
0.868486	26.1111
0.942928	36.6667
1.09181	47.5
1.21588	56.3889
1.48883	61.9444
1.73697	63.0556
2.03474	63.8889
2.33251	64.1667
2.65509	64.7222
2.97767	64.4444
3.30025	64.1667
3.9206	64.4444
4.54094	64.4444
5.23573	64.1667
5.83127	64.1667
6.47643	63.6111
6.89826	63.0556
