Adsorption isotherm of Ethane on [Cu(BF4)2(bpp)2]n
DOI: 10.1016/j.micromeso.2015.03.021
Article source: Figure 2a
Adsorbate Ethane: InChIKey OTMSDBZUPAUEDD-UHFFFAOYSA-N
Kind: experiment
Temperature: 298 K
Tabular data in the source: 0
pressure (bar)	uptake (cm3(STP)/g)
0	0
0.4195	0.818837
0.764841	1.91654
0.925977	39.836
1.08412	7.44404
1.22774	22.1113
1.32036	42.0396
1.39025	55.6017
1.48918	55.0453
1.83367	58.9112
1.98088	61.9521
2.1292	61.3943
2.47445	62.7689
2.81962	64.4202
3.18974	65.2404
3.46109	66.0634
3.93015	66.3272
4.2015	67.1501
4.62117	67.4153
4.9419	68.2369
5.36166	68.2253
5.63301	69.0482
6.07746	69.0359
6.34898	69.3052
6.79326	69.8466
7.06495	69.5622
7.5094	69.5499
7.85499	69.8172
8.22528	70.0837
8.57079	70.6278
8.94125	70.3407
9.31163	70.3305
