Adsorption isotherm of Methane on [Cu(BF4)2(bpp)2]n
DOI: 10.1016/j.micromeso.2015.03.021
Article source: Figure 2a
Adsorbate Methane: InChIKey VNWKTOKETHGBQD-UHFFFAOYSA-N
Kind: experiment
Temperature: 298 K
Tabular data in the source: 0
pressure (bar)	uptake (cm3(STP)/g)
0	0
0.297767	0.286049
0.645161	0.851254
1.33995	0.870554
1.86104	1.44058
2.10918	1.72526
2.58065	1.73835
2.8536	2.02371
3.32506	2.03681
3.67246	2.87979
4.04467	2.89013
4.36725	4.28798
4.76427	3.46567
5.03722	5.97326
5.48387	4.319
5.78164	9.32727
6.2531	4.89592
6.50124	13.7917
6.9727	6.86035
7.17122	16.5881
7.59305	9.09981
7.84119	19.3845
8.23821	15.7844
8.61042	22.1836
8.88337	22.1912
9.2804	26.0911
