Adsorption isotherm of Hydrogen on ZIF-8
DOI: 10.1021/Jp904170s
Adsorbate Hydrogen: InChIKey UFHFLCQGNIYNRP-UHFFFAOYSA-N
Temperature: 77 K
Tabular data in the source: 0
pressure (bar)	uptake (cm3(STP)/g)
1.00703	111.955
1.99567	192.634
2.96494	240.39
5.11263	291.463
7.2487	322.783
10.0878	349.179
13.1563	365.703
15.9866	377.284
19.9915	385.597
25.171	390.641
30.1151	395.681
34.821	395.778
39.9976	395.885
45.1712	391.053
49.8762	389.504
54.8155	386.313
59.9891	381.481
65.1647	379.942
69.8687	376.746
74.5707	370.259
80.2159	367.083
