Adsorption isotherm of Hydrogen on ZIF-8
DOI: 10.1021/Jp904170s
Adsorbate Hydrogen: InChIKey UFHFLCQGNIYNRP-UHFFFAOYSA-N
Temperature: 77 K
Tabular data in the source: 0
pressure (bar)	uptake (cm3(STP)/g)
0.481245	18.1169
0.988635	80.6788
1.48925	131.718
2.45561	174.536
3.65921	220.651
5.79721	255.263
7.68927	271.763
8.40097	281.654
10.996	293.23
11.9411	299.834
13.3558	304.802
15.7097	306.496
19.9538	321.398
25.6048	328.099
32.197	334.819
45.3755	338.382
57.1433	343.563
68.4375	343.795
77.8504	345.635
