Adsorption isotherm of Hydrogen on ZIF-8
DOI: 10.1021/Jp904170s
Adsorbate Hydrogen: InChIKey UFHFLCQGNIYNRP-UHFFFAOYSA-N
Temperature: 77 K
Tabular data in the source: 0
pressure (bar)	uptake (cm3(STP)/g)
0.255631	34.5732
0.299205	108.648
1.25976	141.59
1.75069	176.168
2.24162	210.746
2.96687	243.682
4.39705	274.988
6.53409	307.953
8.89771	326.109
12.2035	345.93
18.329	359.225
25.1564	365.95
34.5674	364.497
43.0342	358.087
49.8539	351.643
53.6187	351.721
56.206	350.128
