Adsorption isotherm of Nitrogen on BABE-TFPy COF.
DOI: 10.1021/acs.cgd.9b00409
Article source: Figure 2c
Adsorbate Nitrogen: InChIKey IJGRMHOSHXDMSA-UHFFFAOYSA-N
Kind: experiment
Temperature: 77 K
Tabular data in the source: 0
pressure (bar)	uptake (cm3(STP)/g)
0.070946	82.474
0.084387	85.8423
0.102655	92.3382
0.122589	98.9558
0.142646	108.883
0.162683	118.259
0.187445	122.394
0.209642	123.77
0.261377	125.42
0.310661	127.346
0.359914	128.444
0.409137	128.714
0.45838	129.537
0.512544	130.359
0.561756	130.353
0.61103	132.003
0.662702	131.998
0.714416	133.096
0.763649	133.642
0.816637	135.912
0.835131	136.945
0.86716	138.045
0.891828	139.697
0.916517	141.901
0.941288	146.311
0.966102	151.825
0.991267	166.717
1.00154	178.3
1.0072	197.883
1.01293	219.396
0.035168	69.2756
0.016133	59.2264
0.01235	54.9626
0.008509	49.176
0.008281	43.0844
0.000795	36.689
0.002015	30.5972
0.001346	27.2469
0.001649	20.8507
0.000594	16.8912
0.001271	10.7995
0.000746	5.3173
0.001212	33.3385
0.000965	23.5922
0.001343	13.541
0.00156	7.75403
0.001849	40.6484
0.105522	100.031
0.148823	119.52
0.207167	129.565
0.25524	131.387
0.309595	131.686
0.33859	131.988
0.410222	134.112
0.460037	134.107
0.514427	135.32
0.563371	136.228
0.614126	137.137
0.659401	136.828
0.713802	138.345
0.764523	138.34
0.796269	139.555
0.825287	140.465
0.847047	141.072
0.870653	142.593
0.903374	145.635
0.929869	151.724
0.962887	162.686
0.990034	186.135
1.00245	203.191
