Adsorption isotherm of Methane on BPL Activated Carbon (6x16)
DOI: 10.1021/la036430v
Article source: Table 1
Adsorbate Methane: InChIKey VNWKTOKETHGBQD-UHFFFAOYSA-N
Kind: experiment
Temperature: 301 K
Tabular data in the source: 0
pressure (bar)	uptake (mmol/g)
0.0103	0.013
0.0197	0.024
0.0472	0.055
0.0833	0.093
0.1319	0.14
0.2344	0.23
0.46	0.411
0.4602	0.397
0.8266	0.638
0.949	0.684
1.2386	0.848
1.7839	1.06
1.8585	1.111
2.2745	1.257
2.6438	1.39
3.501	1.613
4.0197	1.784
5.2902	2.073
5.4649	2.084
8.7499	2.637
12.8576	3.133
18.6251	3.621
25.3659	3.999
32.2067	4.263
