Adsorption isotherm of Ethane, Methane on BPL Activated Carbon (6x16)
DOI: 10.1021/la036430v
Article source: Table 7
Adsorbate Ethane: InChIKey OTMSDBZUPAUEDD-UHFFFAOYSA-N
Adsorbate Methane: InChIKey VNWKTOKETHGBQD-UHFFFAOYSA-N
Kind: experiment
Temperature: 301 K
Tabular data in the source: 0
pressure (bar)	Ethane fraction	Ethane uptake (mmol/g)	Methane fraction	Methane uptake (mmol/g)	total uptake (mmol/g)
0.5205	0.511	1.601	0.489	0.091	
1.9572	0.511	2.78	0.489	0.209	
6.8448	0.511	4.035	0.489	0.359	
13.9655	0.511	4.663	0.489	0.436	
25.0259	0.511	4.968	0.489	0.525	
