Adsorption isotherm of Ethane, Methane on BPL Activated Carbon (6x16)
DOI: 10.1021/la036430v
Article source: Table 7
Adsorbate Ethane: InChIKey OTMSDBZUPAUEDD-UHFFFAOYSA-N
Adsorbate Methane: InChIKey VNWKTOKETHGBQD-UHFFFAOYSA-N
Kind: experiment
Temperature: 301 K
Tabular data in the source: 0
pressure (bar)	Ethane fraction	Ethane uptake (mmol/g)	Methane fraction	Methane uptake (mmol/g)	total uptake (mmol/g)
0.523	0.094	0.566	0.906	0.262	
6.8368	0.094	1.752	0.906	1.319	
24.9646	0.094	2.066	0.906	2.367	
