Adsorption isotherm of Ethane, Methane on BPL Activated Carbon (6x16)
DOI: 10.1021/la036430v
Article source: Table 8
Adsorbate Ethane: InChIKey OTMSDBZUPAUEDD-UHFFFAOYSA-N
Adsorbate Methane: InChIKey VNWKTOKETHGBQD-UHFFFAOYSA-N
Kind: experiment
Temperature: 297 K
Tabular data in the source: 0
pressure (bar)	Ethane fraction	Ethane uptake (mmol/g)	Methane fraction	Methane uptake (mmol/g)	total uptake (mmol/g)
0.0326	0	0	1	0.045	0.045
0.0342	0.023	0.026483	0.977	0.044517	0.071
0.0754	0.016	0.02604	0.984	0.09396	0.12
0.0816	0.037	0.0915	0.963	0.0915	0.183
0.1415	0.026	0.091012	0.974	0.152988	0.244
0.1509	0.046	0.163386	0.954	0.149614	0.313
0.1982	0.036	0.163404	0.964	0.192596	0.356
0.2114	0.058	0.24708	0.942	0.18792	0.435
0.2729	0.045	0.247324	0.955	0.236676	0.484
0.2902	0.071	0.335664	0.929	0.231336	0.567
0.3707	0.053	0.336162	0.947	0.289838	0.626
