Adsorption isotherm of Ethane on BPL Activated Carbon (6x16)
DOI: 10.1021/la036430v
Article source: Table 5
Adsorbate Ethane: InChIKey OTMSDBZUPAUEDD-UHFFFAOYSA-N
Kind: experiment
Temperature: 297 K
Tabular data in the source: 0
pressure (bar)	uptake (mmol/g)
0.0008	0.031
0.0011	0.044
0.0018	0.077
0.0025	0.096
0.0032	0.126
0.0045	0.153
0.0046	0.169
0.0068	0.224
0.0071	0.217
0.0093	0.279
0.0102	0.28
0.0124	0.336
0.0139	0.344
0.0157	0.391
0.018	0.407
0.0199	0.451
0.023	0.475
0.0245	0.511
0.0292	0.548
0.0302	0.579
0.0356	0.635
0.0365	0.625
0.0418	0.696
0.0442	0.699
0.0494	0.764
0.0535	0.778
0.0567	0.823
0.0639	0.858
0.0658	0.892
0.0735	0.946
0.0754	0.94
0.0841	1.015
0.0877	1.019
0.0966	1.091
0.1017	1.101
0.1091	1.162
0.115	1.174
0.1243	1.241
0.1291	1.246
0.1401	1.318
0.1455	1.324
0.1631	1.403
0.1804	1.482
0.1996	1.556
0.222	1.638
0.2452	1.716
0.2697	1.795
0.296	1.873
0.3276	1.96
0.3606	2.045
0.3964	2.134
0.4353	2.224
0.4772	2.325
0.5215	2.413
0.5698	2.503
0.6191	2.589
0.6737	2.676
0.7308	2.762
0.7874	2.841
