Adsorption isotherm of Ethane, Methane on BPL Activated Carbon (6x16)
DOI: 10.1021/la036430v
Article source: Table 7
Adsorbate Ethane: InChIKey OTMSDBZUPAUEDD-UHFFFAOYSA-N
Adsorbate Methane: InChIKey VNWKTOKETHGBQD-UHFFFAOYSA-N
Kind: experiment
Temperature: 301 K
Tabular data in the source: 0
pressure (bar)	Ethane fraction	Ethane uptake (mmol/g)	Methane fraction	Methane uptake (mmol/g)	total uptake (mmol/g)
0.5202	0.284	1.173	0.716	0.158	
1.9705	0.284	2.153	0.716	0.347	
6.8261	0.284	3.188	0.716	0.673	
13.9762	0.284	3.697	0.716	0.853	
24.9739	0.284	3.852	0.716	1.164	
