Adsorption isotherm of Ethane, Methane on BPL Activated Carbon (6x16)
DOI: 10.1021/la036430v
Article source: Table 7
Adsorbate Ethane: InChIKey OTMSDBZUPAUEDD-UHFFFAOYSA-N
Adsorbate Methane: InChIKey VNWKTOKETHGBQD-UHFFFAOYSA-N
Kind: experiment
Temperature: 301 K
Tabular data in the source: 0
pressure (bar)	Ethane fraction	Ethane uptake (mmol/g)	Methane fraction	Methane uptake (mmol/g)	total uptake (mmol/g)
0.5216	0.732	1.919	0.268	0.044	
1.9692	0.732	3.25	0.268	0.094	
6.8261	0.732	4.53	0.268	0.167	
13.9735	0.732	5.179	0.268	0.215	
24.9713	0.732	5.571	0.268	0.268	
