Adsorption isotherm of Ethane on BPL Activated Carbon (6x16)
DOI: 10.1021/la036430v
Article source: Table 2
Adsorbate Ethane: InChIKey OTMSDBZUPAUEDD-UHFFFAOYSA-N
Kind: experiment
Temperature: 301 K
Tabular data in the source: 0
pressure (bar)	uptake (mmol/g)
0.0011	0.045
0.0032	0.11
0.0073	0.181
0.0108	0.256
0.0172	0.349
0.0223	0.389
0.0321	0.517
0.0448	0.6
0.0767	0.846
0.0835	0.862
0.1257	1.104
0.128	1.116
0.1656	1.253
0.2419	1.539
0.4107	1.972
0.8853	2.759
0.9037	2.772
1.64	3.432
1.888	3.576
2.1186	3.718
4.0239	4.406
5.2012	4.673
5.6839	4.785
7.9198	5.095
8.7731	5.207
10.8637	5.427
11.701	5.444
14.9156	5.654
19.0155	5.794
21.7208	5.818
23.7676	5.852
