Adsorption isotherm of Methane on BPL Activated Carbon (6x16)
DOI: 10.1021/la036430v
Article source: Table 4
Adsorbate Methane: InChIKey VNWKTOKETHGBQD-UHFFFAOYSA-N
Kind: experiment
Temperature: 297 K
Tabular data in the source: 0
pressure (bar)	uptake (mmol/g)
0.0321	0.044
0.0375	0.051
0.0777	0.1
0.1332	0.163
0.1337	0.162
0.1907	0.22
0.2521	0.277
0.2891	0.312
0.3201	0.337
0.3507	0.365
0.3897	0.394
0.468	0.453
0.4878	0.472
0.5407	0.505
0.6238	0.563
0.6369	0.576
0.7102	0.619
0.8046	0.677
0.893	0.729
0.978	0.777
