Adsorption isotherm of Ethane, Methane on BPL Activated Carbon (6x16)
DOI: 10.1021/la036430v
Article source: Table 8
Adsorbate Ethane: InChIKey OTMSDBZUPAUEDD-UHFFFAOYSA-N
Adsorbate Methane: InChIKey VNWKTOKETHGBQD-UHFFFAOYSA-N
Kind: experiment
Temperature: 297 K
Tabular data in the source: 0
pressure (bar)	Ethane fraction	Ethane uptake (mmol/g)	Methane fraction	Methane uptake (mmol/g)	total uptake (mmol/g)
0.0362	0	0	1	0.049	0.049
0.0398	0.034	0.050985	0.966	0.048015	0.099
0.0882	0.02	0.050685	0.98	0.104315	0.155
0.095	0.041	0.116194	0.959	0.101806	0.218
0.1655	0.028	0.115661	0.972	0.171339	0.287
0.1782	0.051	0.199104	0.949	0.166896	0.366
0.248	0.038	0.1989	0.962	0.2261	0.425
0.2632	0.059	0.2795	0.941	0.2205	0.5
0.3306	0.046	0.279864	0.954	0.272136	0.552
0.3514	0.074	0.374985	0.926	0.266015	0.641
0.4382	0.054	0.3759	0.946	0.3241	0.7
0.4631	0.089	0.465505	0.911	0.319495	0.785
0.5692	0.061	0.4692	0.939	0.3808	0.85
0.5947	0.095	0.54516	0.905	0.37884	0.924
0.7034	0.067	0.551174	0.933	0.434826	0.986
