Adsorption isotherm of Ethane, Methane on BPL Activated Carbon (6x16)
DOI: 10.1021/la036430v
Article source: Table 7
Adsorbate Ethane: InChIKey OTMSDBZUPAUEDD-UHFFFAOYSA-N
Adsorbate Methane: InChIKey VNWKTOKETHGBQD-UHFFFAOYSA-N
Kind: experiment
Temperature: 301 K
Tabular data in the source: 0
pressure (bar)	Ethane fraction	Ethane uptake (mmol/g)	Methane fraction	Methane uptake (mmol/g)	total uptake (mmol/g)
0.5253	0.969	2.198	0.031	0.006	
1.9638	0.969	3.612	0.031	0.014	
6.8448	0.969	4.965	0.031	0.021	
13.9682	0.969	5.637	0.031	0.03	
24.9646	0.969	5.933	0.031	0.036	
