Adsorption isotherm of Ethane, Methane on BPL Activated Carbon (6x16)
DOI: 10.1021/la036430v
Article source: Table 7
Adsorbate Ethane: InChIKey OTMSDBZUPAUEDD-UHFFFAOYSA-N
Adsorbate Methane: InChIKey VNWKTOKETHGBQD-UHFFFAOYSA-N
Kind: experiment
Temperature: 301 K
Tabular data in the source: 0
pressure (bar)	Ethane fraction	Ethane uptake (mmol/g)	Methane fraction	Methane uptake (mmol/g)	total uptake (mmol/g)
0.5218	0.03	0.292	0.97	0.331	
1.9585	0.03	0.548	0.97	0.85	
6.8488	0.03	0.811	0.97	1.82	
13.9682	0.03	1.003	0.97	2.539	
16.0107	0.03	0.715	0.97	2.865	
17.9719	0.03	0.447	0.97	3.236	
24.9699	0.03	0.328	0.97	3.707	
