Adsorption isotherm of Nitrogen on C24H16CoN10
DOI: 10.1021/Ja1009635
Adsorbate Nitrogen: InChIKey IJGRMHOSHXDMSA-UHFFFAOYSA-N
Temperature: 77 K
Tabular data in the source: 0
pressure (bar)	uptake (cm3(STP)/g)
0.000795395	34.7985
0.00385139	43.4982
0.00424908	60.8974
0.00444793	69.5971
0.00462585	77.381
0.00689691	51.7399
0.00762951	83.7912
0.0134799	89.7436
0.016494	96.6117
0.0451596	100.733
0.0795186	103.938
0.110989	105.769
0.16248	108.516
0.208237	110.348
0.259696	111.722
0.314014	113.095
0.36832	114.011
0.416913	114.927
0.465505	115.842
0.514097	116.758
0.565536	117.216
0.616986	118.132
0.671282	118.59
0.722732	119.505
0.771313	119.963
0.819895	120.421
0.874192	120.879
0.922784	121.795
0.965672	123.168
0.994265	124.084
1.0143	125.458
