Adsorption isotherm of Hydrogen on C26H20CoN10
DOI: 10.1021/Ja1009635
Adsorbate Hydrogen: InChIKey UFHFLCQGNIYNRP-UHFFFAOYSA-N
Temperature: 77 K
Tabular data in the source: 0
pressure (bar)	uptake (cm3(STP)/g)
0.00857143	0
0.0257561	1.8315
0.0544113	5.49451
0.0801884	8.24176
0.105965	10.989
0.154642	15.5678
0.160377	16.4835
0.203297	19.2308
0.209032	20.1465
0.254809	22.8938
0.3063	25.641
0.354935	28.3883
0.409273	30.6777
0.460743	32.5092
0.506489	33.8828
0.560806	35.2564
0.612266	36.63
0.663726	38.0037
0.715186	39.3773
0.763778	40.293
0.81237	41.2088
0.866677	42.1245
0.91528	43.4982
0.963862	43.956
1.00674	44.8718
