Adsorption isotherm of Carbon Dioxide on C26H20CoN10
DOI: 10.1021/Ja1009635
Adsorbate Carbon Dioxide: InChIKey CURLTUGMZLYLDI-UHFFFAOYSA-N
Temperature: 195 K
Tabular data in the source: 0
pressure (bar)	uptake (cm3(STP)/g)
0.00581894	4.57875
0.00877028	8.69963
0.0203768	16.4835
0.0261852	20.6044
0.0320774	28.3883
0.043663	35.2564
0.0581162	42.5824
0.0696703	48.0769
0.0869388	53.5714
0.107043	58.1502
0.192977	67.7656
0.210152	69.1392
0.313114	73.7179
0.410319	76.4652
0.513218	78.2967
0.61326	80.1282
0.721863	81.5018
0.821894	82.8755
0.924772	83.7912
1.01336	84.707
