Adsorption isotherm of Nitrogen on C26H20CoN10
DOI: 10.1021/Ja1009635
Adsorbate Nitrogen: InChIKey IJGRMHOSHXDMSA-UHFFFAOYSA-N
Temperature: 77 K
Tabular data in the source: 0
pressure (bar)	uptake (cm3(STP)/g)
0.0542962	0.457875
0.0857248	0.457875
0.111439	0.457875
0.214296	0.457875
0.311439	0.457875
0.414307	0.915751
0.514307	0.915751
0.617174	1.37363
0.714328	1.8315
0.814328	1.8315
0.914338	2.28938
0.985808	4.12088
1.00869	5.03663
