Adsorption isotherm of Carbon Dioxide on C24H16CoN10
DOI: 10.1021/Ja1009635
Adsorbate Carbon Dioxide: InChIKey CURLTUGMZLYLDI-UHFFFAOYSA-N
Temperature: 283 K
Tabular data in the source: 0
pressure (bar)	uptake (cm3(STP)/g)
0.0586025	1.26142
0.0996098	1.99652
0.155278	3.15261
0.205088	4.20369
0.257822	5.25446
0.310535	6.09396
0.360335	7.0394
0.410125	7.87921
0.465793	9.0353
0.512658	9.87542
0.562427	10.504
0.615161	11.5547
0.667864	12.2886
0.717644	13.0228
0.767423	13.757
0.820126	14.4908
0.872839	15.3303
0.922629	16.1701
0.978256	16.9037
1.01927	17.7444
