Adsorption isotherm of Carbon Dioxide on C26H20CoN10
DOI: 10.1021/Ja1009635
Adsorbate Carbon Dioxide: InChIKey CURLTUGMZLYLDI-UHFFFAOYSA-N
Temperature: 273 K
Tabular data in the source: 0
pressure (bar)	uptake (cm3(STP)/g)
0.0613096	1.42934
0.0947684	2.33247
0.100366	2.63393
0.15613	4.13916
0.211874	5.49344
0.256486	6.69762
0.312219	7.97644
0.362376	9.10473
0.412522	10.1575
0.468224	11.2099
0.512814	12.2632
0.568495	13.1646
0.615874	14.2931
0.668777	15.1948
0.718881	15.9457
0.768986	16.6967
0.821857	17.3719
0.874739	18.1227
0.924823	18.7227
0.974927	19.4736
1.02501	20.0736
