Adsorption isotherm of Hydrogen on C24H16CoN10
DOI: 10.1021/Ja1009635
Adsorbate Hydrogen: InChIKey UFHFLCQGNIYNRP-UHFFFAOYSA-N
Temperature: 87 K
Tabular data in the source: 0
pressure (bar)	uptake (cm3(STP)/g)
0.011765	2.35849
0.0328686	5.03145
0.0515972	6.76101
0.0750026	8.80503
0.0937459	10.8491
0.103099	11.478
0.184963	17.4528
0.203655	18.3962
0.29949	24.0566
0.304181	24.6855
0.390611	28.6164
0.402303	29.4025
0.491064	33.3333
0.507418	34.1195
0.600842	38.0503
0.607857	38.522
0.698898	41.3522
0.710567	41.6667
0.789939	44.1824
0.841301	45.9119
0.885642	47.0126
0.953314	48.5849
1.03966	50.7862
