Adsorption isotherm of Hydrogen on C26H20CoN10
DOI: 10.1021/Ja1009635
Adsorbate Hydrogen: InChIKey UFHFLCQGNIYNRP-UHFFFAOYSA-N
Temperature: 87 K
Tabular data in the source: 0
pressure (bar)	uptake (cm3(STP)/g)
0.00234566	0.314465
0.0140227	0.786164
0.02806	1.88679
0.051392	2.35849
0.0700987	3.61635
0.0887687	4.08805
0.100453	4.71698
0.158823	6.76101
0.203186	8.33333
0.254556	10.2201
0.30358	11.7925
0.354935	13.3648
0.406283	14.7799
0.457631	16.195
0.513641	17.6101
0.553327	18.8679
0.609323	19.9686
0.663009	21.5409
0.71432	22.1698
0.760984	23.1132
0.81698	24.2138
0.865967	25
0.914962	25.9434
1.01058	26.8868
