Adsorption isotherm of Carbon Dioxide on C24H16CoN10
DOI: 10.1021/Ja1009635
Adsorbate Carbon Dioxide: InChIKey CURLTUGMZLYLDI-UHFFFAOYSA-N
Temperature: 273 K
Tabular data in the source: 0
pressure (bar)	uptake (cm3(STP)/g)
0.0616088	2.10617
0.0938649	3.05346
0.102647	3.15817
0.158346	4.63116
0.205253	5.89381
0.25218	7.36773
0.307879	8.84072
0.360593	9.68022
0.410444	11.1538
0.460285	12.5218
0.513029	13.6782
0.568718	15.0456
0.618538	16.2023
0.665445	17.4649
0.71822	18.9382
0.770954	19.989
0.820785	21.2513
0.870615	22.5137
0.920446	23.776
0.976104	24.8265
1.02301	26.0891
