Adsorption isotherm of Hydrogen on C24H16CoN10
DOI: 10.1021/Ja1009635
Adsorbate Hydrogen: InChIKey UFHFLCQGNIYNRP-UHFFFAOYSA-N
Temperature: 77 K
Tabular data in the source: 0
pressure (bar)	uptake (cm3(STP)/g)
0.0115542	5.49451
0.0230769	9.61538
0.0317111	12.3626
0.0489273	15.5678
0.0546834	17.3993
0.07191	21.0623
0.0805233	22.8938
0.0977185	25.1832
0.109199	27.4725
0.146457	32.5092
0.160785	34.3407
0.198022	38.4615
0.209482	39.8352
0.249576	43.956
0.258158	44.4139
0.306824	48.5348
0.312548	48.9927
0.355468	51.7399
0.361204	52.6557
0.406981	55.4029
0.46134	58.6081
0.507096	60.4396
0.561423	62.2711
0.612894	64.1026
0.661497	65.4762
0.712967	67.3077
0.764437	69.1392
0.81304	70.5128
0.864511	72.3443
0.91596	73.2601
0.96742	74.6337
1.00744	75.5495
