Adsorption isotherm of Carbon Dioxide on C24H16CoN10
DOI: 10.1021/Ja1009635
Adsorbate Carbon Dioxide: InChIKey CURLTUGMZLYLDI-UHFFFAOYSA-N
Temperature: 195 K
Tabular data in the source: 0
pressure (bar)	uptake (cm3(STP)/g)
0.00591313	8.69963
0.00598639	11.9048
0.00895866	16.9414
0.00901099	19.2308
0.0148299	23.8095
0.0149137	27.4725
0.0178964	32.967
0.0208477	37.0879
0.020921	40.293
0.0267295	44.4139
0.0268655	50.3663
0.0326635	54.0293
0.0327368	57.2344
0.0356777	60.8974
0.0443433	65.0183
0.0444165	68.2234
0.0588383	74.1758
0.0732077	77.8388
0.0847096	81.044
0.10764	84.2491
0.150602	88.8278
0.162051	89.7436
0.216431	93.8645
0.265065	96.6117
0.316567	99.8168
0.368038	101.648
0.413783	103.022
0.465264	105.311
0.516735	107.143
0.571062	108.974
0.613961	110.806
0.671136	112.179
0.722595	113.553
0.771209	115.385
0.828383	116.758
0.876975	117.674
0.925599	119.963
0.979906	120.879
1.02278	121.795
