Adsorption isotherm of Carbon Dioxide on C26H20CoN10
DOI: 10.1021/Ja1009635
Adsorbate Carbon Dioxide: InChIKey CURLTUGMZLYLDI-UHFFFAOYSA-N
Temperature: 283 K
Tabular data in the source: 0
pressure (bar)	uptake (cm3(STP)/g)
0.0668546	1.35344
0.0946845	1.7287
0.100261	1.87923
0.155952	2.85615
0.208876	3.90876
0.261779	4.81043
0.309106	5.56158
0.364797	6.53851
0.412103	7.13871
0.462238	8.11606
0.512374	9.09341
0.565225	9.61772
0.618096	10.293
0.67101	11.2701
0.721093	11.8701
0.768399	12.4703
0.82127	13.1456
0.874131	13.7453
0.924215	14.3453
0.974298	14.9453
1.02438	15.5453
