Adsorption isotherm of Hydrogen on NU-125
DOI: 10.1039/C3ee24506c
Adsorbate Hydrogen: InChIKey UFHFLCQGNIYNRP-UHFFFAOYSA-N
Temperature: 77 K
Tabular data in the source: 0
pressure (bar)	uptake (wt%)
0.152679	0.0234954
0.701009	2.57323
4.35655	4.32789
8.19486	5.39713
16.7854	6.35671
29.0314	7.04212
41.2775	7.45337
54.2546	7.72754
63.5762	7.94687
