Adsorption isotherm of Carbon Dioxide on NU-125
DOI: 10.1039/C3ee24506c
Adsorbate Carbon Dioxide: InChIKey CURLTUGMZLYLDI-UHFFFAOYSA-N
Temperature: 298 K
Tabular data in the source: 0
pressure (bar)	uptake (mmol/g)
0.259116	0.443871
0.990223	4.73913
2.7266	9.76549
5.55964	13.6952
9.12379	17.9904
14.9726	21.8288
21.0043	23.8393
26.579	25.3929
