Adsorption isotherm of Hydrogen on NU-125
DOI: 10.1039/C3ee24506c
Adsorbate Hydrogen: InChIKey UFHFLCQGNIYNRP-UHFFFAOYSA-N
Temperature: 298 K
Tabular data in the source: 0
pressure (bar)	uptake (wt%)
1.61489	0.0234954
17.6993	0.297661
31.4075	0.516993
46.0297	0.818574
57.9101	0.983074
62.8451	1.06532
64.8557	1.12016
