Adsorption isotherm of Hydrogen on NU-125
DOI: 10.1039/C3ee24506c
Adsorbate Hydrogen: InChIKey UFHFLCQGNIYNRP-UHFFFAOYSA-N
Temperature: 100 K
Tabular data in the source: 0
pressure (bar)	uptake (wt%)
0.152679	0.105745
2.52878	1.80557
6.54987	2.90223
11.6676	3.80698
20.2581	4.60205
33.0525	5.36972
43.288	5.94546
55.534	6.38413
64.4901	6.60346
