Adsorption isotherm of Carbon Dioxide on NU-125
DOI: 10.1039/C3ee24506c
Adsorbate Carbon Dioxide: InChIKey CURLTUGMZLYLDI-UHFFFAOYSA-N
Temperature: 270 K
Tabular data in the source: 0
pressure (bar)	uptake (mmol/g)
0.0763395	-0.0130706
0.807447	8.66883
2.17827	14.7919
2.90938	18.356
4.82854	23.291
7.11325	26.4896
11.6827	28.5915
17.0746	29.7795
23.3804	30.2365
30.8742	30.5107
