Adsorption isotherm of Methane on NU-125
DOI: 10.1039/C3ee24506c
Adsorbate Methane: InChIKey VNWKTOKETHGBQD-UHFFFAOYSA-N
Temperature: 240 K
Tabular data in the source: 0
pressure (bar)	uptake (cm3(STP)/cm3)
0.525757	1.69706
1.89658	62.9273
3.81574	108.621
7.2428	152.488
10.5328	179.904
14.9194	199.096
21.4994	220.115
25.886	231.082
31.6435	236.565
37.9493	240.221
48.9159	240.221
58.3746	236.565
