Adsorption isotherm of Methane on NU-125
DOI: 10.1039/C3ee24506c
Adsorbate Methane: InChIKey VNWKTOKETHGBQD-UHFFFAOYSA-N
Temperature: 125 K
Tabular data in the source: 0
pressure (bar)	uptake (cm3(STP)/cm3)
0.251592	1.69706
0.251592	167.11
0.251592	278.604
0.251592	325.212
0.66284	361.767
1.07409	386.442
1.62242	398.323
