Adsorption isotherm of Hydrogen on NU-125
DOI: 10.1039/C3ee24506c
Adsorbate Hydrogen: InChIKey UFHFLCQGNIYNRP-UHFFFAOYSA-N
Temperature: 200 K
Tabular data in the source: 0
pressure (bar)	uptake (wt%)
0.453453	0.0234954
8.44994	0.297661
18.2057	0.516993
25.5624	0.736325
32.5993	0.873407
40.116	1.06532
50.8313	1.25724
60.4271	1.42174
64.9051	1.47657
