Adsorption isotherm of Nitrogen on NU-125
DOI: 10.1039/C3ee24506c
Adsorbate Nitrogen: InChIKey IJGRMHOSHXDMSA-UHFFFAOYSA-N
Temperature: 77 K
Tabular data in the source: 0
pressure (bar)	uptake (cm3(STP)/g)
0.0020966	22.5203
0.00323895	216.721
0.00552366	433.768
0.00552366	605.121
0.00666602	673.663
0.0272284	739.919
0.0489332	797.037
0.0957697	829.023
0.17345	833.592
0.260269	849.585
0.405348	856.44
