Adsorption isotherm of Hydrogen on NU-125
DOI: 10.1039/C3ee24506c
Adsorbate Hydrogen: InChIKey UFHFLCQGNIYNRP-UHFFFAOYSA-N
Temperature: 50 K
Tabular data in the source: 0
pressure (bar)	uptake (wt%)
0.133594	0.105745
0.293524	3.91664
0.453453	5.15038
0.773313	6.08255
1.2531	6.74054
1.89282	7.12437
3.17226	7.61787
5.73113	7.89204
9.08966	8.08395
14.5273	8.02912
20.4447	7.75495
28.2812	7.15179
37.0774	6.46638
46.3533	5.64388
54.9895	4.90364
62.0264	4.41014
64.4253	4.27306
