Adsorption isotherm of Hydrogen on NU-125
DOI: 10.1039/C3ee24506c
Adsorbate Hydrogen: InChIKey UFHFLCQGNIYNRP-UHFFFAOYSA-N
Temperature: 50 K
Tabular data in the source: 0
pressure (bar)	uptake (wt%)
0.152679	6.08255
0.335456	0.0234954
1.98045	7.64529
3.80821	8.71453
9.83985	9.48219
15.6887	10.0305
22.4514	10.2499
33.9664	10.524
40.1808	10.6885
53.158	10.7434
65.0384	10.7434
