Adsorption isotherm of Methane on NU-125
DOI: 10.1039/C3ee24506c
Adsorbate Methane: InChIKey VNWKTOKETHGBQD-UHFFFAOYSA-N
Temperature: 270 K
Tabular data in the source: 0
pressure (bar)	uptake (volume/volume)
0.453453	4.40604
3.17226	51.2426
6.21092	90.0827
9.88931	126.638
17.7259	163.193
28.761	204.318
39.1564	226.023
49.8717	248.87
58.9877	264.863
