Adsorption isotherm of Nitrogen on NU-125
DOI: 10.1039/C3ee24506c
Adsorbate Nitrogen: InChIKey IJGRMHOSHXDMSA-UHFFFAOYSA-N
Temperature: 77 K
Tabular data in the source: 0
pressure (bar)	uptake (cm3(STP)/g)
0.00190849	164.172
0.00190849	461.185
0.0179015	669.093
0.0704498	776.475
0.132137	801.606
0.257796	817.599
0.401733	826.738
0.598218	833.592
0.765002	833.592
0.93407	838.162
