Adsorption isotherm of Carbon Dioxide on NU-125
DOI: 10.1039/C3ee24506c
Adsorbate Carbon Dioxide: InChIKey CURLTUGMZLYLDI-UHFFFAOYSA-N
Temperature: 240 K
Tabular data in the source: 0
pressure (bar)	uptake (mmol/g)
0.259116	0.443871
0.350505	13.0555
0.898835	18.7216
1.53855	24.7532
2.54383	28.9571
4.28021	31.059
7.02186	31.9729
