Adsorption isotherm of Carbon Dioxide on NU-125
DOI: 10.1039/C3ee24506c
Adsorbate Carbon Dioxide: InChIKey CURLTUGMZLYLDI-UHFFFAOYSA-N
Temperature: 220 K
Tabular data in the source: 0
pressure (bar)	uptake (mmol/g)
0.194337	0.352483
0.194337	11.5019
0.399961	16.6196
0.399961	20.4579
0.811209	24.5704
1.15392	28.5001
2.04495	30.4193
3.6214	31.3332
4.7866	31.6987
5.33493	32.8868
5.47202	34.6231
5.67764	36.7251
5.67764	39.4667
