Adsorption isotherm of Methane on NU-125
DOI: 10.1039/C3ee24506c
Adsorbate Methane: InChIKey VNWKTOKETHGBQD-UHFFFAOYSA-N
Temperature: 125 K
Tabular data in the source: 0
pressure (bar)	uptake (volume/volume)
-0.0263357	302.561
0.133594	2.12133
0.133594	192.895
0.453453	372.244
1.2531	393.949
2.21268	406.515
