Adsorption isotherm of Hydrogen on NU-125
DOI: 10.1039/C3ee24506c
Adsorbate Hydrogen: InChIKey UFHFLCQGNIYNRP-UHFFFAOYSA-N
Temperature: 30 K
Tabular data in the source: 0
pressure (bar)	uptake (wt%)
0.335456	0.0234954
0.335456	4.5198
0.701009	9.34511
0.701009	10.5514
2.346	10.9901
4.17377	11.2643
