Adsorption isotherm of Methane on NU-125
DOI: 10.1039/C3ee24506c
Adsorbate Methane: InChIKey VNWKTOKETHGBQD-UHFFFAOYSA-N
Temperature: 200 K
Tabular data in the source: 0
pressure (bar)	uptake (volume/volume)
0.453453	3.26368
0.773313	120.926
2.53254	206.603
4.61163	269.432
9.08966	309.415
13.2478	331.12
19.3252	349.397
24.9227	357.394
34.0387	367.675
39.7962	368.817
