Adsorption isotherm of Methane on NU-125
DOI: 10.1039/C3ee24506c
Adsorbate Methane: InChIKey VNWKTOKETHGBQD-UHFFFAOYSA-N
Temperature: 200 K
Tabular data in the source: 0
pressure (bar)	uptake (volume/volume)
0.453453	3.26368
0.773313	120.926
2.69247	198.606
5.5712	247.728
11.0088	291.137
16.9262	312.842
30.2004	333.404
37.2373	341.401
45.2338	342.543
