Adsorption isotherm of Carbon Dioxide on NU-125
DOI: 10.1039/C3ee24506c
Adsorbate Carbon Dioxide: InChIKey CURLTUGMZLYLDI-UHFFFAOYSA-N
Temperature: 220 K
Tabular data in the source: 0
pressure (bar)	uptake (mmol/g)
0.167728	0.0783178
0.259116	18.356
0.62467	25.0274
0.807447	27.4948
1.44717	29.9623
2.81799	31.2418
4.64576	32.1556
