Adsorption isotherm of Hydrogen on NU-125
DOI: 10.1039/C3ee24506c
Adsorbate Hydrogen: InChIKey UFHFLCQGNIYNRP-UHFFFAOYSA-N
Temperature: 100 K
Tabular data in the source: 0
pressure (bar)	uptake (wt%)
0.613383	0.0509119
1.57296	1.17499
4.4517	2.24423
7.65029	2.98448
14.5273	3.72473
20.9245	4.08114
30.2004	4.38272
37.5571	4.57464
45.0738	4.65689
50.5115	4.6843
60.747	4.6843
64.4253	4.71172
