Adsorption isotherm of Hydrogen on NU-125
DOI: 10.1039/C3ee24506c
Adsorbate Hydrogen: InChIKey UFHFLCQGNIYNRP-UHFFFAOYSA-N
Temperature: 150 K
Tabular data in the source: 0
pressure (bar)	uptake (wt%)
0.335456	0.133161
8.01208	0.791158
15.6887	1.33949
25.5587	2.07973
36.3425	2.57323
49.5024	3.09415
63.5762	3.64248
72.5323	3.80698
