Adsorption isotherm of Methane on NU-125
DOI: 10.1039/C3ee24506c
Adsorbate Methane: InChIKey VNWKTOKETHGBQD-UHFFFAOYSA-N
Temperature: 150 K
Tabular data in the source: 0
pressure (bar)	uptake (volume/volume)
0.133594	2.12133
0.133594	149.485
0.453453	253.439
0.453453	333.404
1.41303	371.102
3.17226	392.807
8.13008	408.8
