Adsorption isotherm of Hydrogen on NU-125
DOI: 10.1039/C3ee24506c
Adsorbate Hydrogen: InChIKey UFHFLCQGNIYNRP-UHFFFAOYSA-N
Temperature: 77 K
Tabular data in the source: 0
pressure (bar)	uptake (wt%)
0.293524	0.105745
0.613383	1.66849
1.73289	3.0119
3.33219	3.99889
6.21092	4.79397
9.88931	5.28747
16.1266	5.69872
23.0035	5.78096
30.8401	5.78096
41.7153	5.78096
52.9104	5.56163
60.4271	5.31488
64.2654	5.28747
