Adsorption isotherm of Methane on NU-125
DOI: 10.1039/C3ee24506c
Adsorbate Methane: InChIKey VNWKTOKETHGBQD-UHFFFAOYSA-N
Temperature: 270 K
Tabular data in the source: 0
pressure (bar)	uptake (cm3(STP)/cm3)
0.525757	4.43871
2.30783	34.5969
5.32365	73.8939
10.2586	118.674
14.5082	142.435
22.459	170.766
30.4098	186.302
39.5943	199.096
49.8755	205.493
58.3746	210.063
