Adsorption isotherm of Hydrogen on NU-125
DOI: 10.1039/C3ee24506c
Adsorbate Hydrogen: InChIKey UFHFLCQGNIYNRP-UHFFFAOYSA-N
Temperature: 100 K
Tabular data in the source: 0
pressure (bar)	uptake (wt%)
0.152679	0.105745
3.62544	1.72332
9.83985	3.28606
17.1509	4.32789
28.8486	5.23263
39.2669	5.80838
51.6957	6.30188
63.5762	6.65829
69.4251	6.82279
