Adsorption isotherm of Methane on NU-125
DOI: 10.1039/C3ee24506c
Adsorbate Methane: InChIKey VNWKTOKETHGBQD-UHFFFAOYSA-N
Temperature: 298 K
Tabular data in the source: 0
pressure (bar)	uptake (cm3(STP)/cm3)
0.251592	0.783178
4.63824	36.4247
9.16196	73.8939
13.6857	97.6549
19.7173	119.588
26.0231	138.78
32.8773	153.402
41.3764	168.938
51.2463	177.163
57.8263	182.646
