Adsorption isotherm of Carbon Dioxide on NU-125
DOI: 10.1039/C3ee24506c
Adsorbate Carbon Dioxide: InChIKey CURLTUGMZLYLDI-UHFFFAOYSA-N
Temperature: 270 K
Tabular data in the source: 0
pressure (bar)	uptake (mmol/g)
0.259116	0.53526
0.807447	9.6741
2.17827	14.9746
4.28021	19.7268
7.20463	24.1135
10.4032	26.3068
16.8004	28.2259
24.1115	29.1398
25.7565	29.5054
