Adsorption isotherm of Methane on NU-125
DOI: 10.1039/C3ee24506c
Adsorbate Methane: InChIKey VNWKTOKETHGBQD-UHFFFAOYSA-N
Temperature: 240 K
Tabular data in the source: 0
pressure (bar)	uptake (volume/volume)
0.453453	2.12133
1.73289	63.8085
4.93149	130.065
8.44994	167.763
12.928	205.461
22.8436	242.016
30.0404	266.005
42.0352	286.568
54.1898	297.991
58.8278	304.845
