Adsorption isotherm of Carbon Dioxide on NU-125
DOI: 10.1039/C3ee24506c
Adsorbate Carbon Dioxide: InChIKey CURLTUGMZLYLDI-UHFFFAOYSA-N
Temperature: 298 K
Tabular data in the source: 0
pressure (bar)	uptake (mmol/g)
0.194337	0.261095
0.948291	4.28218
2.59328	8.02911
4.7866	11.9588
7.25409	14.6091
10.8182	17.5335
14.3824	19.4527
19.4544	21.646
25.8973	23.0168
29.8042	23.5651
30.9694	23.6565
