Adsorption isotherm of Methane on NU-125
DOI: 10.1039/C3ee24506c
Adsorbate Methane: InChIKey VNWKTOKETHGBQD-UHFFFAOYSA-N
Temperature: 240 K
Tabular data in the source: 0
pressure (bar)	uptake (volume/volume)
0.453453	2.12133
2.05275	70.6626
4.77156	127.78
7.81022	184.898
12.928	226.023
20.2847	259.151
29.0809	279.714
36.5976	296.849
45.3937	308.272
55.3093	317.411
62.826	321.981
