Adsorption isotherm of Methane on NU-125
DOI: 10.1039/C3ee24506c
Adsorbate Methane: InChIKey VNWKTOKETHGBQD-UHFFFAOYSA-N
Temperature: 298 K
Tabular data in the source: 0
pressure (bar)	uptake (volume/volume)
0.453453	4.40604
4.61163	44.3885
10.8489	88.9403
16.9262	118.642
28.761	158.624
44.4341	202.033
58.5079	229.45
