Adsorption isotherm of Hydrogen on NU-125
DOI: 10.1039/C3ee24506c
Adsorbate Hydrogen: InChIKey UFHFLCQGNIYNRP-UHFFFAOYSA-N
Temperature: 150 K
Tabular data in the source: 0
pressure (bar)	uptake (wt%)
0.293524	-0.00392117
5.09141	0.571826
12.2883	1.06532
19.9649	1.47657
27.3216	1.88782
38.0369	2.21682
50.1916	2.54582
61.7065	2.71031
64.2654	2.76515
