Adsorption isotherm of Methane on NU-125
DOI: 10.1039/C3ee24506c
Adsorbate Methane: InChIKey VNWKTOKETHGBQD-UHFFFAOYSA-N
Temperature: 200 K
Tabular data in the source: 0
pressure (bar)	uptake (cm3(STP)/cm3)
0.251592	0.783178
0.66284	95.8271
1.48534	135.124
2.85616	189.043
5.59781	238.393
9.43613	270.379
14.0969	292.312
21.6365	303.279
28.9019	305.107
37.2639	301.451
44.9405	284.087
