Adsorption isotherm of Hydrogen on NU-125
DOI: 10.1039/C3ee24506c
Adsorbate Hydrogen: InChIKey UFHFLCQGNIYNRP-UHFFFAOYSA-N
Temperature: 50 K
Tabular data in the source: 0
pressure (bar)	uptake (wt%)
0.335456	0.0234954
0.518233	5.28747
1.24934	6.87763
4.17377	7.97429
9.65707	8.71453
18.0648	9.20803
30.1281	9.39995
39.6325	9.59186
54.9857	9.61928
63.9418	9.61928
