Adsorption isotherm of Hydrogen on NU-125
DOI: 10.1039/C3ee24506c
Adsorbate Hydrogen: InChIKey UFHFLCQGNIYNRP-UHFFFAOYSA-N
Temperature: 200 K
Tabular data in the source: 0
pressure (bar)	uptake (wt%)
0.701009	0.0509119
10.9365	0.516993
24.6448	0.983074
35.6114	1.31207
44.5674	1.55882
56.8135	1.8604
62.8451	2.07973
