Adsorption isotherm of Carbon Dioxide on NU-125
DOI: 10.1039/C3ee24506c
Adsorbate Carbon Dioxide: InChIKey CURLTUGMZLYLDI-UHFFFAOYSA-N
Temperature: 240 K
Tabular data in the source: 0
pressure (bar)	uptake (mmol/g)
0.259116	0.443871
0.350505	13.0555
1.26439	20.7321
2.26966	25.5757
3.82326	28.3173
6.93047	29.9623
9.30657	30.5107
