Adsorption isotherm of Carbon Dioxide on NU-125
DOI: 10.1039/C3ee24506c
Adsorbate Carbon Dioxide: InChIKey CURLTUGMZLYLDI-UHFFFAOYSA-N
Temperature: 240 K
Tabular data in the source: 0
pressure (bar)	uptake (mmol/g)
0.0572546	0.261095
0.262878	9.12577
0.674126	14.5177
1.42808	19.7268
2.18203	24.1135
2.79891	26.3982
3.82703	27.5862
4.7866	28.3173
6.50014	28.8657
8.83054	29.5968
10.407	29.8709
12.052	31.6073
12.1891	40.2892
