Adsorption isotherm of Carbon Dioxide on NU-125
DOI: 10.1039/C3ee24506c
Adsorbate Carbon Dioxide: InChIKey CURLTUGMZLYLDI-UHFFFAOYSA-N
Temperature: 270 K
Tabular data in the source: 0
pressure (bar)	uptake (mmol/g)
0.125796	0.261095
0.33142	5.19607
1.01683	8.94299
1.90787	12.7813
3.21015	16.2541
4.4439	18.4474
6.50014	21.4632
8.07659	23.6565
10.5441	25.2101
14.1082	26.124
19.3174	27.0379
26.1715	27.2207
30.2154	27.3121
30.4896	32.247
30.4896	33.892
