Adsorption isotherm of Hydrogen on NU-125
DOI: 10.1039/C3ee24506c
Adsorbate Hydrogen: InChIKey UFHFLCQGNIYNRP-UHFFFAOYSA-N
Temperature: 298 K
Tabular data in the source: 0
pressure (bar)	uptake (wt%)
0.453453	0.0509119
10.2092	0.0783284
23.0035	0.160578
30.8401	0.215411
40.4359	0.325077
51.631	0.352494
60.9069	0.407327
64.5853	0.46216
