Adsorption isotherm of Hydrogen on NU-125
DOI: 10.1039/C3ee24506c
Adsorbate Hydrogen: InChIKey UFHFLCQGNIYNRP-UHFFFAOYSA-N
Temperature: 77 K
Tabular data in the source: 0
pressure (bar)	uptake (wt%)
0.152679	0.0234954
0.701009	2.57323
3.62544	4.10856
6.91542	5.26005
14.592	6.41154
22.4514	7.20662
32.3214	7.6727
47.3091	8.11137
62.6623	8.52262
70.1562	8.63228
