Adsorption isotherm of Methane on NU-125
DOI: 10.1039/C3ee24506c
Adsorbate Methane: InChIKey VNWKTOKETHGBQD-UHFFFAOYSA-N
Temperature: 270 K
Tabular data in the source: 0
pressure (bar)	uptake (volume/volume)
0.453453	4.40604
3.17226	51.2426
6.21092	90.0827
11.3287	141.489
16.9262	180.329
24.4429	211.172
34.8383	235.162
47.9526	256.866
61.7065	271.717
