Adsorption isotherm of Methane on NU-125
DOI: 10.1039/C3ee24506c
Adsorbate Methane: InChIKey VNWKTOKETHGBQD-UHFFFAOYSA-N
Temperature: 125 K
Tabular data in the source: 0
pressure (bar)	uptake (volume/volume)
-0.0263357	5.54839
-0.0263357	261.436
0.133594	371.102
0.293524	398.519
1.09317	416.796
3.01233	424.793
