Adsorption isotherm of Methane on NU-125
DOI: 10.1039/C3ee24506c
Adsorbate Methane: InChIKey VNWKTOKETHGBQD-UHFFFAOYSA-N
Temperature: 298 K
Tabular data in the source: 0
pressure (bar)	uptake (volume/volume)
0.453453	4.40604
4.61163	44.3885
10.8489	88.9403
18.2057	132.35
27.0018	167.763
37.3972	192.895
44.9139	205.461
50.9912	214.599
58.8278	227.165
