Adsorption isotherm of Hydrogen on NU-125
DOI: 10.1039/C3ee24506c
Adsorbate Hydrogen: InChIKey UFHFLCQGNIYNRP-UHFFFAOYSA-N
Temperature: 200 K
Tabular data in the source: 0
pressure (bar)	uptake (wt%)
0.701009	0.0509119
8.74319	0.434743
23.7309	1.03791
36.8908	1.50399
51.513	1.97007
63.3935	2.38132
