Adsorption isotherm of Hydrogen on NU-125
DOI: 10.1039/C3ee24506c
Adsorbate Hydrogen: InChIKey UFHFLCQGNIYNRP-UHFFFAOYSA-N
Temperature: 30 K
Tabular data in the source: 0
pressure (bar)	uptake (wt%)
0.293524	-0.00392117
0.293524	3.45056
0.293524	6.3293
0.293524	8.35812
0.613383	9.18061
0.933243	9.70153
1.73289	10.0305
2.69247	10.2224
4.93149	10.1128
7.01057	9.83861
7.97015	9.72894
8.92973	11.1546
8.92973	11.3739
