Adsorption isotherm of Methane on NU-125
DOI: 10.1039/C3ee24506c
Adsorbate Methane: InChIKey VNWKTOKETHGBQD-UHFFFAOYSA-N
Temperature: 150 K
Tabular data in the source: 0
pressure (bar)	uptake (cm3(STP)/cm3)
0.251592	1.69706
0.251592	167.11
0.525757	263.068
0.937005	309.676
1.7595	348.973
3.81574	369.078
7.37989	377.303
9.02488	380.959
