Adsorption isotherm of Carbon Dioxide on NU-125
DOI: 10.1039/C3ee24506c
Adsorbate Carbon Dioxide: InChIKey CURLTUGMZLYLDI-UHFFFAOYSA-N
Temperature: 298 K
Tabular data in the source: 0
pressure (bar)	uptake (mmol/g)
0.259116	0.443871
1.26439	3.82524
2.54383	6.74967
3.82326	10.7708
6.10797	15.1574
9.58073	19.3613
13.9674	22.3771
19.2679	24.479
24.8426	25.8498
31.057	26.8551
