Adsorption isotherm of Hydrogen on NU-125
DOI: 10.1039/C3ee24506c
Adsorbate Hydrogen: InChIKey UFHFLCQGNIYNRP-UHFFFAOYSA-N
Temperature: 150 K
Tabular data in the source: 0
pressure (bar)	uptake (wt%)
0.335456	0.133161
5.45321	0.736325
13.6782	1.5314
26.6553	2.3539
39.4497	3.12156
51.6957	3.50539
61.7485	3.88922
