Adsorption isotherm of Hydrogen on NU-125
DOI: 10.1039/C3ee24506c
Adsorbate Hydrogen: InChIKey UFHFLCQGNIYNRP-UHFFFAOYSA-N
Temperature: 298 K
Tabular data in the source: 0
pressure (bar)	uptake (wt%)
2.16322	-0.00392117
11.1193	0.160578
27.0209	0.407327
42.0086	0.626659
56.0824	0.845991
66.6834	0.983074
70.8873	1.03791
