Adsorption isotherm of Nitrogen on Ni-MOF
DOI: 10.1007/s12274-014-0438-7
Adsorbate Nitrogen: InChIKey IJGRMHOSHXDMSA-UHFFFAOYSA-N
Temperature: 77 K
Tabular data in the source: 0
pressure (bar)	uptake (cm3(STP)/g)
0.00702037	22.7437
0.0074626	39.2945
0.0239909	57.8799
0.0437253	76.4586
0.0567158	82.6378
0.0761185	88.8034
0.0986724	92.8933
0.118075	99.0589
0.140628	103.149
0.201932	117.501
0.250191	123.605
0.298504	131.778
0.346872	142.02
0.382251	146.083
0.440238	156.304
0.475727	164.504
0.524317	183.021
0.585787	203.58
0.63526	255.199
0.686891	387.503
0.744214	492.898
0.789488	507.284
0.811986	509.305
0.840953	513.382
0.866711	517.465
0.895678	521.541
0.924589	523.548
0.966489	531.735
0.985782	533.763
