Adsorption isotherm of Nitrogen on Ni/C-2
DOI: 10.1007/s12274-014-0438-7
Adsorbate Nitrogen: InChIKey IJGRMHOSHXDMSA-UHFFFAOYSA-N
Temperature: 77 K
Tabular data in the source: 0
pressure (bar)	uptake (cm3(STP)/g)
0.0273935	56.6929
0.0890286	64.252
0.12293	68.0315
0.150676	69.9213
0.175337	71.811
0.199999	73.7008
0.230841	73.7008
0.26167	75.5906
0.289416	77.4803
0.338739	81.2598
0.388062	85.0394
0.437397	86.9291
0.486695	94.4882
0.539102	98.2677
0.585341	102.047
0.631579	105.827
0.680877	113.386
0.720912	122.835
0.739392	126.614
0.776342	136.063
0.78557	139.843
0.816291	158.74
0.856094	204.094
0.861983	247.559
0.907505	362.835
0.910492	377.953
0.937509	493.228
0.94664	512.126
0.952747	521.575
