Adsorption isotherm of Nitrogen on Ni/C-1
DOI: 10.1007/s12274-014-0438-7
Adsorbate Nitrogen: InChIKey IJGRMHOSHXDMSA-UHFFFAOYSA-N
Temperature: 77 K
Tabular data in the source: 0
pressure (bar)	uptake (cm3(STP)/g)
-0.00565207	2.22222
0.0575025	5.18519
0.0747153	5.67901
0.103382	5.92593
0.123479	6.91358
0.146415	7.16049
0.169359	7.65432
0.200892	7.90123
0.238165	8.39506
0.258244	8.88889
0.275448	9.1358
0.301259	9.62963
0.341415	10.6173
0.395884	11.1111
0.438889	11.6049
0.49051	12.5926
0.533515	13.0864
0.579404	14.0741
0.63964	15.5556
0.68552	16.2963
0.731444	18.2716
0.777369	20.2469
0.831916	22.963
0.872189	27.1605
0.918369	36.2963
0.947629	53.0864
0.956961	73.5802
