Adsorption isotherm of Nitrogen on Ni/C-2
DOI: 10.1007/s12274-014-0438-7
Adsorbate Nitrogen: InChIKey IJGRMHOSHXDMSA-UHFFFAOYSA-N
Temperature: 77 K
Tabular data in the source: 0
pressure (bar)	uptake (cm3(STP)/g)
0.00295062	20.7874
0.0058891	43.4646
0.0458864	58.5827
0.0766919	64.252
0.129087	69.9213
0.17535	69.9213
0.203095	71.811
0.30174	79.3701
0.338739	81.2598
0.394218	86.9291
0.440456	90.7087
0.489791	92.5984
0.53603	96.378
0.591521	100.157
0.631579	105.827
0.671637	111.496
0.723995	122.835
0.76403	132.283
0.807135	143.622
0.822532	147.402
0.859396	170.079
0.865516	177.638
0.868564	183.307
0.889935	217.323
0.89597	238.11
0.92306	342.047
0.923144	328.819
0.946968	461.102
0.949967	474.331
0.958868	529.134
