Adsorption isotherm of Nitrogen on Ni/C-1
DOI: 10.1007/s12274-014-0438-7
Adsorbate Nitrogen: InChIKey IJGRMHOSHXDMSA-UHFFFAOYSA-N
Temperature: 77 K
Tabular data in the source: 0
pressure (bar)	uptake (cm3(STP)/g)
0.0116579	5.4321
0.0890976	7.16049
0.112033	7.40741
0.137843	7.90123
0.163654	8.39506
0.189446	8.39506
0.212391	8.88889
0.235326	9.1358
0.258253	9.1358
0.292661	9.62963
0.338532	10.1235
0.381529	10.3704
0.433149	11.358
0.479099	14.0741
0.527854	15.0617
0.579475	16.0494
0.628221	16.7901
0.676993	18.2716
0.722908	20
0.777412	21.4815
0.829077	23.7037
0.872224	28.1481
0.883776	30.6173
0.927276	44.9383
0.936086	50.8642
0.950946	65.679
