Adsorption isotherm of Nitrogen on Ni-MOF
DOI: 10.1007/s12274-014-0438-7
Adsorbate Nitrogen: InChIKey IJGRMHOSHXDMSA-UHFFFAOYSA-N
Temperature: 77 K
Tabular data in the source: 0
pressure (bar)	uptake (cm3(STP)/g)
0.00375894	20.6817
0.013875	39.2808
0.0272523	59.942
0.0405192	76.4654
0.0566605	80.569
0.0792141	84.6589
0.101878	92.8865
0.121171	94.9144
0.140573	101.08
0.153563	107.259
0.176062	109.28
0.23731	121.564
0.292036	129.723
0.340294	135.827
0.385402	144.007
0.433716	152.18
0.485234	160.346
0.536754	168.512
0.578876	184.974
0.62426	203.498
0.673182	234.428
0.729344	296.378
0.783739	412.124
0.814197	472.059
0.840565	498.9
0.875944	502.962
0.901704	507.045
0.924257	511.135
0.969475	523.453
