Adsorption isotherm of Nitrogen on Ni/C-3
DOI: 10.1007/s12274-014-0438-7
Adsorbate Nitrogen: InChIKey IJGRMHOSHXDMSA-UHFFFAOYSA-N
Temperature: 77 K
Tabular data in the source: 0
pressure (bar)	uptake (cm3(STP)/g)
-0.00327773	18.4615
0.000276786	38.9744
0.0413286	59.4872
0.0685993	59.4872
0.109535	63.5897
0.147061	67.6923
0.177755	69.7436
0.215266	71.7949
0.266414	73.8462
0.286882	75.8974
0.34827	80
0.3926	82.0513
0.43355	88.2051
0.48812	92.3077
0.52904	94.359
0.583611	98.4615
0.679146	110.769
0.767878	125.128
0.819157	145.641
0.829412	149.744
0.856799	166.154
0.863705	178.462
0.874004	188.718
0.891237	215.385
0.901624	237.949
0.922646	317.949
0.933003	336.41
0.947542	463.59
0.954461	477.949
0.96849	533.333
