Adsorption isotherm of Nitrogen on Ni/C-3
DOI: 10.1007/s12274-014-0438-7
Adsorbate Nitrogen: InChIKey IJGRMHOSHXDMSA-UHFFFAOYSA-N
Temperature: 77 K
Tabular data in the source: 0
pressure (bar)	uptake (cm3(STP)/g)
0.0242698	57.4359
0.085658	61.5385
0.116352	63.5897
0.140214	63.5897
0.167514	67.6923
0.194799	69.7436
0.232311	71.7949
0.2664	71.7949
0.283473	75.8974
0.33462	77.9487
0.382373	82.0513
0.433535	86.1538
0.481303	92.3077
0.529069	98.4615
0.583641	102.564
0.631394	106.667
0.682584	114.872
0.726972	125.128
0.744016	125.128
0.767965	137.436
0.785053	143.59
0.809003	155.897
0.850215	198.974
0.867448	225.641
0.912666	352.821
0.923082	379.487
0.944381	498.462
0.944483	512.821
0.954796	525.128
