Adsorption isotherm of Argon on PCN-333(Fe)
DOI: 10.1038/Ncomms6979
Article source: Figure 4a
Adsorbate Argon: InChIKey XKRFYHLGVUSROY-UHFFFAOYSA-N
Kind: experiment
Temperature: 87 K
Tabular data in the source: 0
pressure (bar)	uptake (cm3(STP)/g)
0	0
0.002189	60.0488
0.002218	34.2972
0.002247	8.54562
0.004388	111.514
0.004407	94.3459
0.006615	137.227
0.006625	128.643
0.011109	154.318
0.015565	205.745
0.015584	188.577
0.020059	222.836
0.022306	231.382
0.0268	248.473
0.029027	274.186
0.031265	291.316
0.033512	299.861
0.035749	316.991
0.037996	325.536
0.042481	351.212
0.046984	359.719
0.049222	376.848
0.053716	393.94
0.060467	410.993
0.067208	436.63
0.069445	453.759
0.073939	470.85
0.08069	487.903
0.082927	505.033
0.085174	513.578
0.091925	530.631
0.100923	556.23
0.105418	573.321
0.112168	590.374
0.116682	590.298
0.118928	598.843
0.123432	607.351
0.125679	615.896
0.127936	615.858
0.130183	624.404
0.134686	632.911
0.13919	641.419
0.143685	658.51
0.157206	675.448
0.166214	692.463
0.17524	692.31
0.179734	709.401
0.186495	717.87
0.193255	726.339
0.200005	743.392
0.209023	751.823
0.21804	760.254
0.222544	768.762
0.227048	777.269
0.227057	768.685
0.233808	785.738
0.238302	802.829
0.240559	802.791
0.245073	802.715
0.249557	828.39
0.249567	819.806
0.256308	845.443
0.258594	819.653
0.263049	871.08
0.265344	836.706
0.267601	836.668
0.272057	888.094
0.27657	888.018
0.276618	845.099
0.278807	905.147
0.278866	853.644
0.285626	862.113
0.287805	930.746
0.287872	870.659
0.292376	879.166
0.296803	956.345
0.29688	887.674
0.303534	990.565
0.308145	904.65
0.310265	1024.79
0.312483	1059.08
0.312504	1041.92
0.314896	921.703
0.316959	1093.34
0.319196	1110.47
0.31939	938.795
0.323651	1161.9
0.323883	955.886
0.325878	1187.61
0.330363	1213.29
0.332872	990.068
0.337085	1256.09
0.337104	1238.92
0.339312	1281.8
0.339332	1264.64
0.339613	1015.71
0.341511	1333.27
0.34153	1316.1
0.341559	1290.35
0.345966	1384.7
0.346354	1041.34
0.350442	1418.96
0.350848	1058.43
0.354878	1487.55
0.354887	1478.97
0.355322	1092.69
0.357086	1530.43
0.357096	1521.85
0.357192	1436.01
0.359304	1564.73
0.361522	1599.02
0.362064	1118.33
0.363729	1641.91
0.364292	1144.04
0.36589	1727.71
0.365919	1701.95
0.365958	1667.62
0.365977	1650.45
0.368021	1839.26
0.368776	1169.72
0.370364	1761.97
0.371014	1186.85
0.372514	1856.35
0.372544	1830.6
0.372553	1822.01
0.372563	1813.43
0.372592	1787.68
0.373241	1212.56
0.374742	1882.06
0.379236	1899.15
0.379943	1272.53
0.379982	1238.2
0.382094	1366.92
0.382104	1358.33
0.382132	1332.58
0.382171	1298.25
0.384292	1418.38
0.384312	1401.21
0.384341	1375.46
0.385977	1924.79
0.38651	1452.68
0.388215	1941.92
0.390462	1950.47
0.390975	1495.52
0.39545	1529.78
0.397154	2019.02
0.397687	1546.91
0.399353	2070.49
0.399372	2053.32
0.399915	1572.62
0.401533	2139.12
0.40158	2096.2
0.40376	2164.83
0.405929	2242.05
0.406656	1598.26
0.408119	2302.1
0.408138	2284.93
0.408157	2267.76
0.408166	2259.18
0.408206	2224.84
0.408234	2199.09
0.410288	2379.31
0.410307	2362.15
0.410356	2319.23
0.41114	1623.94
0.412574	2353.52
0.414753	2422.16
0.417882	1649.57
0.424613	1683.79
0.433611	1709.39
0.435054	2430.4
0.438095	1735.07
0.44259	1752.16
0.453108	2430.09
0.453854	1769.13
0.458348	1786.23
0.465108	1794.69
0.474116	1811.71
0.475665	2438.29
0.47861	1828.8
0.487627	1837.23
0.492121	1854.32
0.496624	1862.83
0.498223	2446.49
0.501119	1879.92
0.503337	1914.22
0.505526	1974.27
0.505555	1948.52
0.505583	1922.76
0.507744	2008.56
0.507763	1991.4
0.509942	2060.03
0.509972	2034.28
0.514398	2111.46
0.514427	2085.7
0.516276	2446.19
0.518902	2119.96
0.521129	2145.68
0.525623	2162.77
0.527851	2188.48
0.530088	2205.61
0.532325	2222.74
0.536578	2454.43
0.53682	2239.83
0.539047	2265.55
0.545788	2291.18
0.554786	2316.78
0.556878	2462.67
0.563784	2342.38
0.570535	2359.43
0.579445	2462.29
0.581809	2367.82
0.590816	2384.84
0.595243	2462.02
0.604347	2393.19
0.613364	2401.63
0.6178	2470.22
0.635912	2418.41
0.638101	2478.46
0.658402	2486.7
0.660726	2426.57
0.676456	2486.39
0.676514	2434.89
0.699072	2443.09
0.70127	2494.56
0.717116	2451.37
0.719323	2494.25
0.739634	2493.91
0.74192	2468.12
0.759935	2502.15
0.76223	2467.77
0.777989	2501.84
0.778028	2467.5
0.79829	2510.08
0.798329	2475.74
0.818601	2509.74
0.818629	2483.98
0.841158	2517.94
0.841187	2492.19
0.859221	2509.05
0.861478	2509.01
0.879531	2508.7
0.881779	2517.25
0.9021	2508.32
0.906593	2525.41
0.917896	2508.05
0.92915	2533.61
0.931427	2516.41
0.944957	2524.76
0.944967	2516.18
0.958507	2515.95
