Adsorption isotherm of Argon on PCN-332(Al)
DOI: 10.1038/Ncomms6979
Article source: Figure 4b
Adsorbate Argon: InChIKey XKRFYHLGVUSROY-UHFFFAOYSA-N
Kind: experiment
Temperature: 87 K
Tabular data in the source: 0
pressure (bar)	uptake (cm3(STP)/g)
0	0
0.002191	25.4467
0.002214	10.9011
0.004371	58.1661
0.0044	39.9842
0.008736	119.969
0.008771	98.1503
0.008794	83.6048
0.010852	192.688
0.010881	174.506
0.010927	145.415
0.015292	207.218
0.017484	232.665
0.019669	261.748
0.021855	290.831
0.021872	279.922
0.024063	305.368
0.026272	319.906
0.028475	338.08
0.030695	345.344
0.032915	352.609
0.03513	363.51
0.037344	374.411
0.039547	392.585
0.043988	407.115
0.048393	443.463
0.05066	421.636
0.055071	454.348
0.055106	432.53
0.057315	447.067
0.061767	454.324
0.063976	468.861
0.066225	457.944
0.068422	479.754
0.070683	461.565
0.072909	465.193
0.077355	476.086
0.079546	501.533
0.081807	483.343
0.084027	490.608
0.090665	526.947
0.090717	494.22
0.095158	508.749
0.097337	541.469
0.09961	516.006
0.104062	523.263
0.106282	530.528
0.110694	563.239
0.11296	541.413
0.119586	585.025
0.119632	555.934
0.128543	566.811
0.13071	606.804
0.132994	574.068
0.137441	584.961
0.141847	621.309
0.144067	628.574
0.144125	592.21
0.14634	603.111
0.150791	610.368
0.152959	650.36
0.157475	617.617
0.161921	628.51
0.16409	668.502
0.168594	643.031
0.17075	690.296
0.17304	653.924
0.175261	661.189
0.177405	715.727
0.179701	675.719
0.184066	737.521
0.184141	690.248
0.188593	697.505
0.190808	708.406
0.192947	766.58
0.193028	715.671
0.19737	792.019
0.19748	722.928
0.199689	737.465
0.201758	839.276
0.201799	813.821
0.204135	748.358
0.206349	759.259
0.208569	766.524
0.21079	773.789
0.213004	784.69
0.215213	799.228
0.215224	791.955
0.217422	813.765
0.217433	806.492
0.219636	824.666
0.221781	879.204
0.224088	831.923
0.226308	839.188
0.228466	886.453
0.230767	842.808
0.235219	850.065
0.237364	904.603
0.239671	857.322
0.244122	864.578
0.246343	871.843
0.250796	879.1
0.255247	886.357
0.257404	933.622
0.261931	893.605
0.270836	908.119
0.273056	915.384
0.281901	966.261
0.28858	977.146
0.293107	937.13
0.295241	998.94
0.297554	948.023
0.306353	1027.99
0.306446	969.809
0.310777	1053.43
0.315194	1082.51
0.319623	1104.31
0.328672	1027.91
0.333171	1006.08
0.335205	1129.71
0.348695	1067.84
0.355274	1140.54
0.362051	1089.61
0.370955	1104.12
0.377582	1147.74
0.377639	1111.37
0.386549	1122.25
0.395424	1154.94
0.404392	1129.46
0.417737	1158.5
0.422235	1136.67
0.437812	1165.7
0.437847	1143.88
0.455654	1172.91
0.455696	1147.46
0.475771	1154.66
0.477967	1176.47
0.495817	1180.04
0.498083	1158.21
0.515891	1187.24
0.518164	1161.78
0.538204	1190.8
0.538244	1165.34
0.558285	1194.36
0.558314	1176.18
0.576162	1179.75
0.580597	1197.92
0.598447	1201.49
0.598475	1183.31
0.618527	1205.05
0.620788	1186.86
0.638602	1212.25
0.640863	1194.06
0.658688	1212.18
0.660944	1197.63
0.680995	1219.37
0.681025	1201.19
0.698839	1226.58
0.698868	1208.4
0.721151	1230.14
0.723412	1211.95
0.741232	1233.7
0.741261	1215.52
0.761307	1240.9
0.761342	1219.09
0.776953	1226.3
0.781382	1248.1
0.801463	1251.67
0.801498	1229.85
0.819312	1255.24
0.82381	1233.41
0.841619	1262.43
0.843885	1240.61
0.861729	1247.82
0.863925	1269.63
0.879543	1273.21
0.881809	1251.38
0.901849	1280.4
0.904116	1258.57
0.924196	1262.14
0.926388	1287.58
0.94204	1269.35
0.950938	1287.5
0.964335	1283.81
