Adsorption isotherm of Argon on PCN-333(Al)
DOI: 10.1038/Ncomms6979
Article source: Figure 4a
Adsorbate Argon: InChIKey XKRFYHLGVUSROY-UHFFFAOYSA-N
Kind: experiment
Temperature: 87 K
Tabular data in the source: 0
pressure (bar)	uptake (cm3(STP)/g)
0	0
0.002092	145.887
0.002111	128.72
0.002131	111.552
0.002247	8.54562
0.006538	205.898
0.006557	188.73
0.006586	162.979
0.008765	231.611
0.008785	214.443
0.010993	257.324
0.01324	265.87
0.015477	283
0.017705	308.713
0.024437	342.934
0.026664	368.647
0.028911	377.193
0.033405	394.284
0.035643	411.413
0.040127	437.088
0.044621	454.18
0.046849	479.893
0.05359	505.53
0.058074	531.205
0.060321	539.751
0.062559	556.88
0.067062	565.387
0.071508	625.398
0.073813	582.44
0.078249	651.035
0.080545	616.661
0.08499	676.672
0.085039	633.752
0.087228	693.801
0.089533	650.844
0.09177	667.973
0.096235	710.816
0.098531	676.442
0.100739	719.323
0.103025	693.533
0.105214	753.582
0.105233	736.414
0.107519	710.625
0.109756	727.754
0.112023	719.132
0.11426	736.262
0.116478	770.559
0.118745	761.937
0.123228	787.612
0.123277	744.692
0.127762	770.368
0.132227	813.21
0.134512	787.421
0.13673	821.718
0.13675	804.55
0.143471	847.355
0.145757	821.565
0.147985	847.278
0.150212	872.991
0.152517	830.034
0.156973	881.461
0.161467	898.552
0.161535	838.465
0.168237	898.437
0.168296	846.934
0.174988	915.49
0.175046	863.987
0.179492	923.998
0.184054	881.002
0.186242	941.051
0.188548	898.093
0.19526	949.481
0.197555	915.108
0.199754	966.573
0.204307	932.161
0.208762	983.587
0.213256	1000.68
0.213313	949.176
0.217749	1017.77
0.222253	1026.28
0.222321	966.19
0.23127	1034.71
0.231329	983.205
0.235746	1068.97
0.240337	1000.22
0.24701	1085.94
0.249256	1094.49
0.249344	1017.23
0.253741	1120.16
0.256095	1034.29
0.258235	1137.26
0.262845	1051.34
0.264967	1171.48
0.269471	1179.98
0.269596	1068.39
0.271834	1085.52
0.273965	1197.07
0.278594	1093.99
0.280706	1222.71
0.283088	1111.08
0.285199	1239.8
0.287428	1265.52
0.287437	1256.93
0.287573	1136.76
0.291921	1282.61
0.296415	1299.7
0.298652	1316.83
0.298837	1153.74
0.300891	1333.96
0.301055	1188.03
0.303137	1342.5
0.307592	1393.93
0.307612	1376.76
0.307806	1205.09
0.30982	1419.64
0.310033	1230.8
0.316764	1265.02
0.316785	1247.85
0.321036	1479.54
0.323505	1290.66
0.325434	1582.47
0.325744	1307.79
0.32772	1556.68
0.327748	1530.93
0.330237	1324.88
0.332465	1350.59
0.336959	1367.68
0.338876	1668.08
0.341105	1693.79
0.341453	1384.77
0.343671	1419.07
0.34555	1753.8
0.34557	1736.63
0.345579	1728.05
0.347759	1796.68
0.350005	1805.23
0.350412	1444.71
0.352117	1933.95
0.352136	1916.78
0.352175	1882.45
0.352204	1856.69
0.352223	1839.53
0.352639	1470.42
0.354325	1976.83
0.354354	1951.08
0.356553	2002.54
0.358771	2036.84
0.359401	1478.89
0.363178	2131.19
0.363197	2114.02
0.363226	2088.27
0.363245	2071.1
0.365405	2156.9
0.366161	1487.36
0.368388	1513.07
0.369899	2173.99
0.372127	2199.7
0.372844	1564.5
0.372883	1530.16
0.375033	1624.55
0.375072	1590.21
0.376612	2225.38
0.37726	1650.26
0.378839	2251.09
0.379478	1684.56
0.381086	2259.64
0.381706	1710.27
0.383313	2285.35
0.383934	1735.98
0.385551	2302.48
0.386162	1761.7
0.387789	2319.61
0.38838	1795.99
0.389997	2362.49
0.390016	2345.32
0.392234	2379.62
0.392874	1813.09
0.394452	2413.92
0.395092	1847.38
0.396612	2499.72
0.39667	2448.21
0.396689	2431.05
0.398791	2568.35
0.398888	2482.51
0.398907	2465.34
0.399576	1873.06
0.400922	2679.9
0.40097	2636.98
0.401	2611.23
0.401009	2602.65
0.401029	2585.48
0.401068	2551.14
0.401096	2525.39
0.401813	1890.19
0.403111	2739.95
0.40315	2705.62
0.403169	2688.45
0.403208	2654.11
0.404002	1950.24
0.404031	1924.49
0.408496	1967.33
0.414346	2782.68
0.415228	2001.55
0.419702	2035.81
0.42194	2052.94
0.424177	2070.07
0.428681	2078.57
0.430928	2087.12
0.434638	2799.5
0.446686	2121.19
0.453417	2155.41
0.454938	2807.74
0.455645	2181.12
0.460139	2198.21
0.462387	2206.76
0.46688	2223.85
0.469128	2232.39
0.473641	2232.32
0.47524	2815.98
0.491646	2274.93
0.493874	2300.65
0.496044	2377.86
0.496063	2360.69
0.496092	2334.94
0.497797	2824.18
0.498242	2429.33
0.498271	2403.58
0.50048	2446.46
0.502698	2480.75
0.504935	2497.88
0.507172	2515.01
0.509409	2532.14
0.511618	2575.02
0.511647	2549.27
0.515851	2823.88
0.518359	2600.66
0.520597	2617.79
0.52508	2643.46
0.527328	2652.01
0.531812	2677.68
0.533895	2832.16
0.554195	2840.4
0.55435	2703.05
0.574506	2840.05
0.57687	2745.59
0.579097	2771.3
0.581334	2788.43
0.594807	2848.29
0.594855	2805.37
0.617374	2847.91
0.617413	2813.57
0.635418	2856.19
0.639971	2821.78
0.657985	2855.8
0.658024	2821.47
0.67602	2872.67
0.676068	2829.75
0.696369	2837.99
0.698587	2872.28
0.71667	2846.23
0.718888	2880.52
0.736942	2880.22
0.739228	2854.43
0.757242	2888.46
0.759528	2862.67
0.777572	2870.95
0.779809	2888.08
0.797854	2896.35
0.80013	2879.15
0.815907	2896.05
0.820441	2878.8
0.838475	2895.67
0.840741	2887.04
0.858776	2903.9
0.861052	2886.7
0.881343	2903.52
0.88361	2894.9
0.899387	2911.8
0.901654	2903.18
0.924211	2911.38
0.926477	2902.76
0.944521	2911.04
0.962575	2910.73
