Adsorption isotherm of Argon on PCN-332(Fe)
DOI: 10.1038/Ncomms6979
Article source: Figure 4b
Adsorbate Argon: InChIKey XKRFYHLGVUSROY-UHFFFAOYSA-N
Kind: experiment
Temperature: 87 K
Tabular data in the source: 0
pressure (bar)	uptake (cm3(STP)/g)
0	0
0.002168	39.9922
0.002191	25.4467
0.002209	14.5375
0.004348	72.7117
0.004377	54.5297
0.006533	101.795
0.006556	87.2492
0.008742	116.332
0.01095	130.87
0.013159	145.407
0.015368	159.945
0.019779	192.656
0.019814	170.838
0.021994	203.557
0.024214	210.822
0.026417	228.996
0.030852	247.162
0.033049	268.972
0.033066	258.063
0.037489	283.502
0.04193	298.031
0.046359	319.834
0.050793	338
0.052979	367.083
0.055234	352.529
0.057408	388.885
0.064074	407.043
0.070735	428.837
0.070793	392.473
0.077413	439.722
0.077459	410.631
0.086311	457.872
0.086352	432.417
0.095221	468.749
0.097482	450.559
0.104126	483.263
0.106369	475.982
0.110804	494.148
0.119737	490.479
0.121928	515.926
0.128641	504.993
0.130832	530.44
0.141962	548.581
0.142003	523.127
0.150861	566.731
0.15536	544.897
0.164222	584.865
0.166489	563.039
0.170895	599.387
0.179788	621.173
0.182083	581.165
0.18646	635.694
0.195346	661.117
0.19766	610.2
0.202014	679.275
0.204223	693.813
0.208645	719.251
0.21101	635.606
0.213057	751.963
0.217486	773.765
0.219874	675.575
0.219909	653.756
0.224135	802.832
0.228592	806.452
0.230975	711.898
0.233166	737.345
0.235266	820.974
0.23537	755.519
0.242042	770.04
0.257624	795.439
0.259775	846.34
0.270974	820.846
0.282052	871.715
0.293189	886.221
0.295496	838.94
0.304307	911.635
0.31098	926.157
0.313304	867.967
0.317646	944.315
0.322075	966.117
0.324277	984.291
0.335593	886.068
0.337581	1038.79
0.340011	915.143
0.34444	936.946
0.353344	951.459
0.355414	1053.27
0.368897	995.04
0.37772	1060.46
0.377807	1005.92
0.388937	1024.06
0.395569	1064.03
0.402323	1027.65
0.41565	1067.6
0.417934	1034.86
0.437962	1071.16
0.440241	1042.06
0.458038	1078.36
0.458084	1049.27
0.478118	1081.92
0.478165	1052.83
0.496008	1060.04
0.498199	1085.48
0.518279	1089.05
0.518315	1067.23
0.536129	1092.62
0.538395	1070.8
0.558442	1096.18
0.55847	1078
0.578516	1103.38
0.578552	1081.56
0.598603	1103.31
0.598632	1085.12
0.618683	1106.87
0.618713	1088.69
0.640996	1110.43
0.641026	1092.24
0.658846	1114
0.661106	1095.81
0.681152	1121.19
0.681181	1103.01
0.701233	1124.76
0.703493	1106.57
0.721313	1128.32
0.721343	1110.14
0.739191	1113.71
0.741394	1131.88
0.761476	1135.45
0.761504	1117.27
0.779324	1139.02
0.781585	1120.83
0.7994	1146.22
0.803891	1128.02
0.821706	1153.41
0.823978	1127.95
0.841787	1156.98
0.844053	1135.15
0.861867	1160.54
0.864134	1138.72
0.881942	1167.74
0.881983	1142.29
0.899826	1149.5
0.902024	1171.31
0.922132	1156.69
0.92433	1178.5
0.946671	1163.88
0.948874	1182.05
0.964509	1174.72
