Adsorption isotherm of Nitrogen on [Zn(BDC)(H2O)2]n
DOI: 10.1007/s11426-013-4905-x
Adsorbate Nitrogen: InChIKey IJGRMHOSHXDMSA-UHFFFAOYSA-N
Temperature: 77 K
Tabular data in the source: 0
pressure (bar)	uptake (cm3(STP)/g)
0.0210859	0.501919
0.0987492	0.758586
0.240569	1.08525
0.363818	1.38859
0.458364	1.66859
0.534339	1.90192
0.622133	2.13525
0.698108	2.39192
0.743693	2.55525
0.841616	3.04525
0.904084	3.53525
0.954734	4.18859
0.971618	4.93525
0.993566	6.73192
1.01045	14.3619
