Adsorption isotherm of Nitrogen on Pristine LZU-508
DOI: 10.1021/jacs.9b10625
Article source: Figure S26
Adsorbate Nitrogen: InChIKey IJGRMHOSHXDMSA-UHFFFAOYSA-N
Kind: experiment
Temperature: 77 K
Tabular data in the source: 0
pressure (bar)	uptake (cm3(STP)/g)
0.007334	0
0.012223	83.2258
0.012223	90.3226
0.017112	97.4194
0.022001	100.645
0.02689	105.806
0.044001	112.258
0.058668	114.839
0.070891	118.71
0.092891	123.226
0.119781	123.226
0.141782	126.452
0.166227	128.387
0.185783	129.032
0.212672	132.258
0.259118	136.774
0.322676	139.355
0.366677	140.645
0.440012	145.806
0.471791	145.161
0.520681	145.806
0.569571	148.387
0.618461	153.548
0.672241	153.548
0.704019	154.839
0.760243	156.129
0.811578	158.71
0.843356	160.645
0.870246	160.645
0.892247	162.581
0.921581	165.806
0.933803	170.323
0.968027	173.548
0.992472	180.645
0.992472	184.516
0.999805	189.032
1.00469	195.484
0.987583	185.161
0.938692	180
0.904469	176.129
0.887358	176.129
0.865357	173.548
0.836023	174.194
0.799355	174.194
0.757799	172.903
0.691797	170.968
0.655129	170.323
0.608683	170.323
0.550015	168.387
0.493791	165.161
0.442457	162.581
0.386233	160.645
0.320231	159.355
0.264007	156.129
0.215117	152.903
0.193116	150.968
0.193116	150.968
0.158893	149.032
0.139337	147.097
0.112448	144.516
0.09778	138.71
0.066002	135.484
0.04889	132.903
0.034223	127.097
0.02689	122.581
0.022001	120
0.007334	111.613
0.012223	107.097
0.007334	100.645
0.007334	98.7097
0.007334	96.129
0.007334	91.6129
0.002445	85.1613
0.002445	81.2903
