Adsorption isotherm of Nitrogen on LZU-506 with water
DOI: 10.1021/jacs.9b10625
Article source: Figure S67
Adsorbate Nitrogen: InChIKey IJGRMHOSHXDMSA-UHFFFAOYSA-N
Kind: experiment
Temperature: 77 K
Tabular data in the source: 0
pressure (bar)	uptake (cm3(STP)/g)
0.006504	112.229
0.006504	129.257
0.011706	141.641
0.016909	149.381
0.019511	154.025
0.027315	158.669
0.040322	163.313
0.053329	166.409
0.071539	174.149
0.087147	177.245
0.126168	181.889
0.149581	184.985
0.196407	186.533
0.258841	189.628
0.329079	189.628
0.391513	189.628
0.526786	191.176
0.597024	194.272
0.617835	195.82
0.703682	194.272
0.732297	192.724
0.831151	192.724
0.870172	198.916
0.893585	200.464
0.916998	203.56
0.937809	206.656
0.956019	212.848
0.966425	220.588
0.97683	231.424
0.99504	257.74
0.997642	276.316
1.00284	322.755
1.01065	355.263
1.00284	361.455
0.987236	297.988
0.963823	267.028
0.906592	226.78
0.815543	222.136
0.77392	220.588
0.716689	220.588
0.693276	220.588
0.677668	220.588
0.633444	223.684
0.57101	225.232
0.490366	223.684
0.472156	192.724
0.446142	194.272
0.409722	212.848
0.323876	215.944
0.266645	215.944
0.230225	214.396
0.222421	214.396
0.157385	214.396
0.144378	211.3
0.120966	208.204
0.089749	203.56
0.068937	200.464
0.063735	198.916
0.042923	188.08
0.027315	181.889
0.024713	175.697
0.019511	166.409
0.011706	150.929
