Adsorption isotherm of Nitrogen on LZU-501 with 9 M NaOH
DOI: 10.1021/jacs.9b10625
Article source: Figure S54
Adsorbate Nitrogen: InChIKey IJGRMHOSHXDMSA-UHFFFAOYSA-N
Kind: experiment
Temperature: 77 K
Tabular data in the source: 0
pressure (bar)	uptake (cm3(STP)/g)
0.005143	115.031
0.007715	124.233
0.002572	139.571
0.012859	142.638
0.01543	148.773
0.01543	154.908
0.020574	159.509
0.025717	168.712
0.033432	171.779
0.036004	171.779
0.046291	179.448
0.048862	179.448
0.056577	182.515
0.09001	200.92
0.110583	203.988
0.177447	216.258
0.205736	217.791
0.22631	217.791
0.267457	228.528
0.298317	228.528
0.334321	233.129
0.370325	234.663
0.421759	239.264
0.475765	243.865
0.534914	245.399
0.596635	251.534
0.671214	257.669
0.727791	262.27
0.779225	266.871
0.835803	271.472
0.887237	274.54
0.92324	277.607
0.956673	286.81
0.974674	292.945
0.990105	312.883
0.992676	325.153
1.00296	348.16
1.00039	360.429
0.979818	328.221
0.925812	297.546
0.887237	294.479
0.869235	292.945
0.810086	285.276
0.797227	285.276
0.758652	283.742
0.722648	280.675
0.655784	279.141
0.547772	274.54
0.48348	268.405
0.380612	260.736
0.331749	256.135
0.300889	256.135
0.131157	211.656
0.156874	214.724
0.174876	217.791
0.252027	251.534
0.213451	250
0.22631	248.466
0.210879	245.399
0.162017	240.798
0.149159	236.196
0.126013	233.129
0.095153	223.926
0.064293	214.724
0.054006	208.589
0.043719	202.454
0.033432	194.785
0.028289	185.583
0.023145	179.448
