Adsorption isotherm of Nitrogen on LZU-501 with 9 M HCl
DOI: 10.1021/jacs.9b10625
Article source: Figure S52
Adsorbate Nitrogen: InChIKey IJGRMHOSHXDMSA-UHFFFAOYSA-N
Kind: experiment
Temperature: 77 K
Tabular data in the source: 0
pressure (bar)	uptake (cm3(STP)/g)
0.007937	119.874
0.007937	129.338
0.015873	140.379
0.021164	149.842
0.029101	151.42
0.029101	160.883
0.044975	165.615
0.058202	165.615
0.066139	168.77
0.074076	170.347
0.084658	179.811
0.116405	179.811
0.150797	186.12
0.177253	187.697
0.195772	187.697
0.224873	187.697
0.238101	187.697
0.272493	189.274
0.309531	194.006
0.357151	194.006
0.425935	194.006
0.476201	194.006
0.547631	194.006
0.616416	192.429
0.656099	195.584
0.693137	195.584
0.751339	195.584
0.814833	195.584
0.862453	195.584
0.8942	195.584
0.936529	205.047
0.955048	209.779
0.968275	212.934
0.976212	219.243
0.994731	233.438
1.00267	250.789
1.00796	268.139
1.01325	277.603
1.00267	280.757
0.978858	247.634
0.970921	242.902
0.960339	236.593
0.928592	220.82
0.873035	214.511
0.835997	212.934
0.828061	212.934
0.801605	212.934
0.775149	212.934
0.727529	212.934
0.687846	214.511
0.608479	216.088
0.563505	217.666
0.500011	219.243
0.436518	216.088
0.383606	216.088
0.341277	216.088
0.288366	217.666
0.243392	217.666
0.195772	214.511
0.148151	212.934
0.145506	212.934
0.097886	208.202
0.084658	206.625
0.052911	198.738
0.04762	197.161
0.034392	187.697
0.029101	186.12
0.018519	176.656
0.010582	159.306
0.010582	151.42
0.007937	145.11
0.005291	135.647
