Adsorption isotherm of Nitrogen on Pristine LZU-501
DOI: 10.1021/jacs.9b10625
Article source: Figure S5
Adsorbate Nitrogen: InChIKey IJGRMHOSHXDMSA-UHFFFAOYSA-N
Kind: experiment
Temperature: 77 K
Tabular data in the source: 0
pressure (bar)	uptake (cm3(STP)/g)
0.002618	115.41
0.002618	123.279
0.005236	136.393
0.002618	146.885
0.010473	152.131
0.020946	171.803
0.034037	179.672
0.039273	182.295
0.04451	186.23
0.052364	190.164
0.057601	192.787
0.083783	198.033
0.104729	204.59
0.125674	208.525
0.14662	211.148
0.164948	212.459
0.178039	217.705
0.204221	219.016
0.251349	222.951
0.306331	228.197
0.358696	232.131
0.397969	234.754
0.468661	238.689
0.510552	241.311
0.55768	242.623
0.612663	246.557
0.657172	246.557
0.714773	251.803
0.761901	254.426
0.816884	262.295
0.832593	263.607
0.864012	266.23
0.884957	268.852
0.905903	272.787
0.947795	285.902
0.963504	297.705
0.98445	326.557
0.989686	344.918
1.0054	377.705
1.00801	409.18
0.992304	382.951
0.981831	360.656
0.958267	322.623
0.934703	306.885
0.913758	296.393
0.892812	291.148
0.858775	285.902
0.832593	278.033
0.795938	279.344
0.754047	275.41
0.706919	272.787
0.657172	274.098
0.607426	268.852
0.55768	270.164
0.502698	266.23
0.45557	262.295
0.400587	259.672
0.332514	254.426
0.301095	254.426
0.248731	250.492
0.225167	249.18
0.217312	247.869
0.206839	246.557
0.172802	242.623
0.157093	240
0.141384	238.689
0.091638	228.197
0.070692	219.016
0.060219	219.016
0.047128	209.836
0.036655	203.279
0.034037	198.033
0.026182	184.918
0.013091	165.246
0.010473	161.311
0.007855	156.066
