Adsorption isotherm of Nitrogen on Pristine LZU-512
DOI: 10.1021/jacs.9b10625
Article source: Figure S38
Adsorbate Nitrogen: InChIKey IJGRMHOSHXDMSA-UHFFFAOYSA-N
Kind: experiment
Temperature: 77 K
Tabular data in the source: 0
pressure (bar)	uptake (cm3(STP)/g)
0	109.231
0.005016	129.231
0.040129	158.462
0.050161	163.077
0.060193	165.385
0.077749	171.538
0.10283	175.385
0.122894	176.154
0.147975	178.462
0.165531	180
0.180579	182.308
0.195627	183.846
0.255821	189.231
0.308489	191.538
0.353634	193.846
0.401287	199.231
0.46148	200
0.529197	200.769
0.556786	201.538
0.611963	206.923
0.652092	206.923
0.704761	207.692
0.757429	209.231
0.812606	212.308
0.842703	215.385
0.875308	215.385
0.902896	216.923
0.935501	219.231
0.945533	220
0.955565	220.769
0.98817	223.077
1.00071	229.231
1.00071	233.846
0.938009	229.231
0.882832	228.462
0.802574	226.923
0.787526	226.154
0.78251	225.385
0.737365	226.154
0.704761	226.154
0.674664	226.154
0.6546	226.154
0.604439	226.154
0.53923	225.385
0.501609	223.846
0.466496	223.846
0.418843	222.308
0.388747	221.538
0.356142	220.769
0.308489	219.231
0.260837	216.154
0.23074	214.615
0.195627	211.538
0.183087	211.538
0.152991	208.462
0.14045	207.692
0.10283	203.846
0.087782	195.385
0.030097	178.462
0.060193	189.231
0.047653	184.615
0.040129	182.308
0.032605	179.231
0.015048	169.231
0.007524	160
0.002508	151.538
0.002508	144.615
0	137.692
0	130.769
0.017556	153.846
0.015048	150
0.007524	131.538
