Adsorption isotherm of Nitrogen on LZU-506 with 9 M NaOH
DOI: 10.1021/jacs.9b10625
Article source: Figure S65
Adsorbate Nitrogen: InChIKey IJGRMHOSHXDMSA-UHFFFAOYSA-N
Kind: experiment
Temperature: 77 K
Tabular data in the source: 0
pressure (bar)	uptake (cm3(STP)/g)
0	149.18
0.00517	167.541
0.012924	183.607
0.023263	195.082
0.033603	197.377
0.041357	201.967
0.046527	201.967
0.054281	204.262
0.059451	208.852
0.07496	220.328
0.105978	227.213
0.126656	231.803
0.152504	234.098
0.168013	238.689
0.183522	240.984
0.188692	243.279
0.204201	247.869
0.253312	259.344
0.299839	261.639
0.361875	266.23
0.418741	275.41
0.475607	280
0.50921	286.885
0.558321	293.77
0.615187	296.066
0.656545	300.656
0.710826	307.541
0.785786	319.016
0.832312	321.311
0.865915	330.492
0.878839	332.787
0.899518	339.672
0.920196	346.557
0.935705	355.738
0.948629	364.918
0.966723	383.279
0.984817	433.77
0.997741	479.672
1.00291	594.426
1.0055	688.525
1.00033	557.705
0.964138	454.426
0.94346	408.525
0.891763	385.574
0.829728	376.393
0.801295	367.213
0.770277	360.328
0.749598	355.738
0.700487	355.738
0.690147	355.738
0.617772	341.967
0.545397	337.377
0.516964	332.787
0.485946	323.607
0.462683	309.836
0.423911	302.951
0.354121	291.475
0.281746	291.475
0.232634	291.475
0.204201	282.295
0.175768	273.115
0.13958	270.82
0.103393	259.344
0.054281	247.869
0.036187	234.098
0.018094	220.328
0.015509	213.443
