Adsorption isotherm of Nitrogen on Pristine LZU-506
DOI: 10.1021/jacs.9b10625
Article source: Figure S5
Adsorbate Nitrogen: InChIKey IJGRMHOSHXDMSA-UHFFFAOYSA-N
Kind: experiment
Temperature: 77 K
Tabular data in the source: 0
pressure (bar)	uptake (cm3(STP)/g)
0.007238	112.048
0.00965	119.277
0.00965	132.53
0.016888	140.964
0.021713	149.398
0.026537	163.855
0.033775	169.88
0.041013	171.084
0.04825	174.699
0.055487	179.518
0.065138	179.518
0.08685	185.542
0.10615	189.157
0.132688	191.566
0.151987	195.181
0.168875	197.59
0.185762	200
0.207475	201.205
0.246075	208.434
0.3281	209.639
0.354637	216.867
0.407713	216.867
0.4632	216.867
0.51145	220.482
0.554875	225.301
0.6176	227.711
0.658613	231.325
0.716512	234.94
0.759937	237.349
0.815425	240.964
0.832312	242.169
0.863675	246.988
0.902275	251.807
0.921575	254.217
0.95535	266.265
0.969825	274.699
0.989125	298.795
1.0036	325.301
1.00842	351.807
1.00842	372.289
0.998775	343.374
0.989125	328.916
0.957762	304.819
0.928813	293.976
0.899863	286.747
0.85885	284.337
0.825075	279.518
0.796125	279.518
0.779237	277.108
0.7527	275.904
0.70445	273.494
0.658613	271.084
0.595888	268.675
0.53075	267.47
0.499388	254.217
0.441487	238.554
0.390825	233.735
0.342575	231.325
0.303975	231.325
0.246075	227.711
0.224362	227.711
0.217125	225.301
0.197825	224.096
0.1737	218.072
0.139925	212.048
0.101325	207.229
0.06755	198.795
0.050662	195.181
0.04825	193.976
0.041013	190.361
0.036187	189.157
0.026537	183.133
0.021713	177.108
0.014475	157.831
0.012062	154.217
0.00965	145.783
0.004825	138.554
0.004825	137.349
0.002413	132.53
-0.002413	124.096
-0.002413	119.277
0.002413	113.253
