Adsorption isotherm of Nitrogen on LZU-506 with DMF
DOI: 10.1021/jacs.9b10625
Article source: Figure S67
Adsorbate Nitrogen: InChIKey IJGRMHOSHXDMSA-UHFFFAOYSA-N
Kind: experiment
Temperature: 77 K
Tabular data in the source: 0
pressure (bar)	uptake (cm3(STP)/g)
0.004147	103.448
0.001382	118.227
0.004147	128.079
0.004147	136.289
0.004147	141.215
0.01797	147.783
0.026264	157.635
0.042852	164.204
0.05944	169.13
0.06497	170.772
0.078793	174.056
0.092616	177.34
0.10091	180.624
0.120263	183.908
0.14238	185.55
0.170027	188.834
0.197674	190.476
0.264026	195.402
0.333142	198.686
0.393965	198.686
0.463082	200.328
0.499022	205.255
0.562609	206.897
0.626197	206.897
0.645549	206.897
0.706372	206.897
0.758901	206.897
0.84737	210.181
0.899899	215.107
0.922016	223.317
0.949663	231.527
0.955192	236.453
0.963486	243.021
0.980074	262.726
0.991133	285.714
0.993897	310.345
1.01049	362.89
1.00219	412.151
0.993897	356.322
0.946898	269.294
0.905428	247.947
0.880546	246.305
0.839076	238.095
0.8059	238.095
0.761665	238.095
0.72296	233.169
0.653843	233.169
0.606844	233.169
0.570903	233.169
0.51561	233.169
0.482434	233.169
0.410553	220.033
0.377377	216.749
0.338672	215.107
0.291672	213.465
0.258496	213.465
0.208732	211.823
0.172792	206.897
0.14238	205.255
0.098146	201.97
0.073264	193.76
0.051146	188.834
0.037323	178.982
0.0235	169.13
0.004147	155.993
-0.004147	136.289
