Adsorption isotherm of Nitrogen on LZU-501 with DMF
DOI: 10.1021/jacs.9b10625
Article source: Figure S56
Adsorbate Nitrogen: InChIKey IJGRMHOSHXDMSA-UHFFFAOYSA-N
Kind: experiment
Temperature: 77 K
Tabular data in the source: 0
pressure (bar)	uptake (cm3(STP)/g)
0.002716	121.99
0.005433	131.621
0.008149	141.252
0.010866	150.883
0.024448	158.909
0.029881	163.724
0.043464	166.934
0.051613	171.75
0.059763	174.96
0.081495	182.986
0.105943	187.801
0.127675	189.406
0.149407	189.406
0.165706	192.616
0.187438	195.827
0.203737	197.432
0.298814	205.457
0.331412	208.668
0.437355	216.693
0.497117	216.693
0.559597	219.904
0.630225	223.114
0.662823	224.719
0.728019	226.324
0.785065	229.535
0.814946	232.745
0.869276	234.35
0.891008	237.56
0.907307	239.165
0.923606	240.77
0.942621	243.981
0.956204	253.612
0.972503	258.427
0.991518	277.689
0.994235	292.135
1.01053	314.607
1.01053	343.499
0.980652	290.53
0.926322	258.427
0.893725	256.822
0.86656	252.006
0.817663	248.796
0.795931	247.191
0.76605	242.376
0.733452	239.165
0.676405	245.586
0.594911	237.56
0.516133	237.56
0.486251	237.56
0.45637	235.955
0.407473	229.535
0.353143	229.535
0.312396	227.929
0.287948	224.719
0.220036	224.719
0.192871	221.509
0.173855	218.299
0.157556	216.693
0.130391	211.878
0.051613	194.222
0.048897	192.616
0.038031	186.196
0.027165	179.775
0.021732	173.355
0.010866	160.514
