Adsorption isotherm of Nitrogen on LZU-506 with 9 M HCl
DOI: 10.1021/jacs.9b10625
Article source: Figure S63
Adsorbate Nitrogen: InChIKey IJGRMHOSHXDMSA-UHFFFAOYSA-N
Kind: experiment
Temperature: 77 K
Tabular data in the source: 0
pressure (bar)	uptake (cm3(STP)/g)
0.005163	116.162
0.005163	124.579
0.007745	134.68
0.010326	141.414
0.015489	151.515
0.023234	163.3
0.036141	173.401
0.046468	176.768
0.056794	181.818
0.077446	186.869
0.095517	190.236
0.11875	196.97
0.144566	203.704
0.170381	207.071
0.193615	210.438
0.258153	213.805
0.30462	220.539
0.353669	222.222
0.400137	225.589
0.480164	227.273
0.539539	235.69
0.619567	239.057
0.673779	240.741
0.735736	245.791
0.766714	247.475
0.808018	250.842
0.846741	254.209
0.888046	264.31
0.900954	269.36
0.913861	272.727
0.919024	274.411
0.937095	282.828
0.955166	292.929
0.978399	350.168
1.0197	454.545
1.01196	506.734
0.999052	429.293
0.99647	420.875
0.988725	382.155
0.983562	368.687
0.975818	360.269
0.952584	336.7
0.921606	313.131
0.838997	292.929
0.797692	284.512
0.787366	282.828
0.720246	279.461
0.702176	277.778
0.647964	277.778
0.598915	274.411
0.547284	274.411
0.500817	265.993
0.436278	250.842
0.374322	252.525
0.30462	242.424
0.25299	247.475
0.222011	237.374
0.206522	237.374
0.178125	235.69
0.162636	230.64
0.15231	228.956
0.103261	222.222
0.080027	212.121
0.051631	207.071
0.036141	195.286
0.03356	193.603
0.020652	181.818
0.020652	180.135
0.015489	173.401
