Adsorption isotherm of Nitrogen on LZU-501 with water
DOI: 10.1021/jacs.9b10625
Article source: Figure S58
Adsorbate Nitrogen: InChIKey IJGRMHOSHXDMSA-UHFFFAOYSA-N
Kind: experiment
Temperature: 77 K
Tabular data in the source: 0
pressure (bar)	uptake (cm3(STP)/g)
0.00802	132.12
0.00802	143.196
0.00802	151.108
0.013367	159.019
0.021388	166.93
0.037429	171.677
0.045449	174.842
0.056143	179.589
0.06149	181.171
0.069511	182.753
0.085551	189.082
0.109613	192.247
0.136348	198.576
0.17645	201.741
0.200511	208.07
0.3529	223.892
0.403696	225.475
0.467859	230.222
0.510635	230.222
0.564105	234.968
0.612228	238.133
0.665697	239.715
0.72184	244.462
0.77531	244.462
0.820759	249.209
0.852841	252.373
0.884923	253.956
0.908984	258.703
0.930372	261.867
0.95176	266.614
0.970474	274.525
1.00523	303.006
1.01058	317.247
1.01058	328.323
0.981168	301.424
0.908984	274.525
0.89829	271.361
0.866208	268.196
0.842147	266.614
0.823433	265.032
0.788677	261.867
0.759269	261.867
0.732534	261.867
0.708473	258.703
0.646983	260.285
0.606881	258.703
0.540044	253.956
0.497268	252.373
0.457166	246.044
0.419737	242.88
0.379635	242.88
0.256654	212.816
0.304777	219.146
0.355573	241.297
0.29943	239.715
0.248634	234.968
0.227246	234.968
0.205858	230.222
0.197838	228.639
0.152389	227.057
0.136348	223.892
0.128327	220.728
0.069511	209.652
0.050796	200.158
0.037429	192.247
0.032082	184.335
0.026735	173.259
0.018714	144.778
