Adsorption isotherm of Nitrogen on MIL-53
DOI: 10.1016/j.jngse.2015.04.033
Article source: Figure 2
Adsorbate Nitrogen: InChIKey IJGRMHOSHXDMSA-UHFFFAOYSA-N
Kind: experiment
Temperature: 77 K
Tabular data in the source: 0
pressure (bar)	uptake (cm3(STP)/g)
0.002418	205.97
0.003627	209.701
0.012091	226.119
0.015719	225.373
0.044738	234.328
0.048365	232.836
0.085848	239.552
0.088266	238.06
0.123331	243.284
0.128168	240.299
0.154769	244.776
0.159605	242.537
0.191042	247.015
0.195878	244.03
0.228525	251.493
0.233362	247.015
0.275681	252.985
0.279308	249.254
0.311955	254.478
0.318	251.493
0.349439	257.463
0.354275	254.478
0.38813	258.209
0.390549	256.716
0.429241	261.194
0.435286	259.701
0.467933	264.179
0.47156	261.94
0.502998	264.925
0.506625	263.433
0.540481	267.91
0.545317	265.672
0.580381	270.149
0.584009	268.657
0.623911	273.134
0.626328	269.403
0.660184	275.373
0.661394	271.642
0.69404	279.851
0.698876	276.119
0.742405	283.582
0.783516	288.806
0.784725	285.075
0.824625	294.03
0.863318	302.239
0.868155	297.015
0.90201	312.687
0.904428	305.224
0.934656	324.627
0.939494	314.179
0.951585	334.328
0.961257	322.388
0.973349	344.776
0.98544	334.328
0.995113	355.97
1.00358	345.522
1.01325	356.716
