Adsorption isotherm of Nitrogen on ZSM-5
DOI: 10.1016/j.jngse.2015.04.033
Article source: Figure 2
Adsorbate Nitrogen: InChIKey IJGRMHOSHXDMSA-UHFFFAOYSA-N
Kind: experiment
Temperature: 77 K
Tabular data in the source: 0
pressure (bar)	uptake (cm3(STP)/g)
7.7e-05	25.4206
0.001315	34.3925
0.001324	37.3832
0.002552	43.3645
0.006207	50.8411
0.007435	56.8224
0.018344	61.3084
0.021985	64.2991
0.042574	67.2897
0.066806	74.0187
0.075284	75.514
0.103139	79.2523
0.111615	80
0.140685	85.2336
0.146742	86.729
0.174596	90.4673
0.180649	90.4673
0.206078	92.7103
0.208502	93.4579
0.244835	98.6916
0.250883	97.1963
0.287221	103.925
0.302969	107.664
0.322349	111.402
0.328412	114.393
0.351417	115.888
0.353849	119.626
0.370809	123.364
0.380487	121.121
0.397457	128.598
0.410764	125.607
0.434996	132.336
0.448308	130.841
0.472537	136.822
0.483422	133.084
0.507658	141.308
0.513695	136.075
0.547627	148.037
0.548815	140.561
0.576667	143.551
0.585164	151.028
0.60573	146.542
0.611805	154.019
0.639637	150.28
0.644507	159.252
0.668698	152.523
0.679622	162.243
0.69534	155.514
0.71232	165.981
0.720773	159.252
0.751046	162.243
0.75955	171.963
0.782524	162.991
0.789823	174.953
0.817653	170.467
0.820106	180.935
0.849135	172.71
0.854018	186.168
0.876996	178.692
0.886721	192.15
0.90486	185.421
0.919429	199.626
0.938778	192.897
0.946076	204.112
0.964221	199.626
0.965472	213.084
0.981189	206.355
0.984862	219.813
0.994532	215.327
1.00064	231.776
1.00424	222.804
1.01395	231.028
1.01638	235.514
