Adsorption isotherm of O-Xylene on MIL-53(Al)
DOI: 10.1007/s10934-012-9612-z
Adsorbate O-Xylene: InChIKey CTQNGGLPUBDAKN-UHFFFAOYSA-N
Temperature: 303 K
Tabular data in the source: 0
pressure (bar)	uptake (mmol/g)
8.43e-05	0.02823
0.000558	1.96626
0.0010139	3.17753
0.00204489	3.75217
0.00405616	3.97753
0.00601672	4.0395
0.00802799	4.0733
0.0100055	4.10147
0.0119998	4.1071
