Adsorption isotherm of Nitrogen on MIL-53(Al)
DOI: 10.1007/s10934-012-9612-z
Adsorbate Nitrogen: InChIKey IJGRMHOSHXDMSA-UHFFFAOYSA-N
Temperature: 77 K
Tabular data in the source: 0
pressure (bar)	uptake (cm3(STP)/g)
0.0137359	242.338
0.0165962	286.387
0.0566402	318.422
0.103835	327.575
0.305485	337.872
0.597234	341.876
0.804605	344.737
