Adsorption isotherm of Ethylbenzene on MIL-53(Al)
DOI: 10.1007/s10934-012-9612-z
Adsorbate Ethylbenzene: InChIKey YNQLUTRBYVCPMQ-UHFFFAOYSA-N
Temperature: 303 K
Tabular data in the source: 0
pressure (bar)	uptake (mmol/g)
7.9e-05	0.0379057
0.000525	0.672889
0.00100576	0.993241
0.00203546	1.428
0.00402622	2.1488
0.00702952	2.74946
0.00999849	3.13274
0.0120064	3.29863
