Adsorption isotherm of M-Xylene on MIL-53(Al)
DOI: 10.1007/s10934-012-9612-z
Adsorbate M-Xylene: InChIKey IVSZLXZYQVIEFR-UHFFFAOYSA-N
Temperature: 333 K
Tabular data in the source: 0
pressure (bar)	uptake (mmol/g)
0.000118	0.0620328
0.000541	0.681751
0.00108151	0.901469
0.00204489	1.87612
0.00397165	2.41133
0.00605052	2.57471
0.0070308	2.63668
0.0119829	2.72119
