Adsorption isotherm of M-Xylene on MIL-53(Al)
DOI: 10.1007/s10934-012-9612-z
Adsorbate M-Xylene: InChIKey IVSZLXZYQVIEFR-UHFFFAOYSA-N
Temperature: 373 K
Tabular data in the source: 0
pressure (bar)	uptake (mmol/g)
0.000101	0.0394976
0.000524	0.343723
0.0010308	0.693019
0.00204489	0.749357
0.00407306	0.856399
0.00708151	1.53246
0.0100055	2.02823
0.0119998	2.18598
