Adsorption isotherm of P-Xylene on MIL-53(Al)
DOI: 10.1007/s10934-012-9612-z
Adsorbate P-Xylene: InChIKey URLKBWYHVLBVBO-UHFFFAOYSA-N
Temperature: 303 K
Tabular data in the source: 0
pressure (bar)	uptake (mmol/g)
6.74e-05	0.0451314
0.000558	1.40288
0.00123362	3.15499
0.0021463	3.60006
0.00407306	3.79161
0.00594911	3.88738
0.00807869	3.93246
0.00998855	4.00569
0.0120167	4.0226
