Adsorption isotherm of O-Xylene on MIL-53(Al)
DOI: 10.1007/s10934-012-9612-z
Adsorbate O-Xylene: InChIKey CTQNGGLPUBDAKN-UHFFFAOYSA-N
Temperature: 333 K
Tabular data in the source: 0
pressure (bar)	uptake (mmol/g)
8.43e-05	0.02823
0.000541	0.636681
0.00111531	0.862033
0.00206179	3.13246
0.00398855	3.61133
0.0070139	3.80851
0.00905897	3.85358
0.0119829	3.88175
