Adsorption isotherm of M-Xylene on MIL-53(Al)
DOI: 10.1007/s10934-012-9612-z
Adsorbate M-Xylene: InChIKey IVSZLXZYQVIEFR-UHFFFAOYSA-N
Temperature: 303 K
Tabular data in the source: 0
pressure (bar)	uptake (mmol/g)
8.43e-05	0.056399
0.000845	2.16344
0.00126742	2.32682
0.00202799	2.57471
0.00405616	2.81696
0.0070139	2.94654
0.0100224	2.99724
0.0118984	3.01978
