Adsorption isotherm of Ethylbenzene on MIL-53(Al)
DOI: 10.1007/s10934-012-9612-z
Adsorbate Ethylbenzene: InChIKey YNQLUTRBYVCPMQ-UHFFFAOYSA-N
Temperature: 373 K
Tabular data in the source: 0
pressure (bar)	uptake (mmol/g)
0.000508	0.020744
0.0010744	0.27817
0.00203546	0.78158
0.00400905	0.970359
0.00702952	1.11337
0.0100157	1.22206
0.0119721	1.29643
