Adsorption isotherm of P-Xylene on MIL-53(Al)
DOI: 10.1007/s10934-012-9612-z
Adsorbate P-Xylene: InChIKey URLKBWYHVLBVBO-UHFFFAOYSA-N
Temperature: 333 K
Tabular data in the source: 0
pressure (bar)	uptake (mmol/g)
5.05e-05	0.0620328
0.000507	0.969075
0.0010477	1.10429
0.00201108	1.74091
0.00403925	2.86767
0.00603362	3.2902
0.00804489	3.52682
0.0100393	3.6564
0.0119491	3.74654
