Adsorption isotherm of Ethylbenzene on MIL-53(Al)
DOI: 10.1007/s10934-012-9612-z
Adsorbate Ethylbenzene: InChIKey YNQLUTRBYVCPMQ-UHFFFAOYSA-N
Temperature: 333 K
Tabular data in the source: 0
pressure (bar)	uptake (mmol/g)
0.000113	0.0379057
0.000508	0.249567
0.00100576	0.747257
0.00203546	0.918874
0.00400905	1.13626
0.00702952	1.46805
0.0090546	1.74836
0.0119206	2.02294
