Adsorption isotherm of P-Xylene on MIL-53(Al)
DOI: 10.1007/s10934-012-9612-z
Adsorbate P-Xylene: InChIKey URLKBWYHVLBVBO-UHFFFAOYSA-N
Temperature: 373 K
Tabular data in the source: 0
pressure (bar)	uptake (mmol/g)
8.43e-05	0.0338638
0.000507	0.642314
0.0010139	0.726822
0.00199418	0.749357
0.00402235	0.845131
0.00605052	0.952174
0.00804489	2.03386
0.0100224	2.56908
0.0119829	2.8226
