Adsorption isotherm of O-Xylene on MIL-53(Al)
DOI: 10.1007/s10934-012-9612-z
Adsorbate O-Xylene: InChIKey CTQNGGLPUBDAKN-UHFFFAOYSA-N
Temperature: 373 K
Tabular data in the source: 0
pressure (bar)	uptake (mmol/g)
8.43e-05	0.02823
0.000524	0.552174
0.0010477	0.687385
0.00202799	1.18316
0.00403925	2.93527
0.00706461	3.20006
0.0100055	3.35217
0.0118815	3.37471
