Adsorption isotherm of Nitrogen on AAm-TPB-H2SO4
DOI: 10.1002/anie.202108684
Article source: Figure S15
Adsorbate Nitrogen: InChIKey IJGRMHOSHXDMSA-UHFFFAOYSA-N
Kind: experiment
Temperature: 77 K
Tabular data in the source: 0
pressure (bar)	uptake (cm3(STP)/g)
-0.002	5.48494
0.004016	9.55488
0.019659	13.9948
0.044326	15.4748
0.058164	17.5714
0.073807	19.0514
0.089449	22.1347
0.114718	24.6013
0.138783	26.0813
0.173077	27.9313
0.191126	30.8912
0.239859	33.2345
0.268136	35.5778
0.322885	38.0445
0.375227	42.2377
0.429976	43.5944
0.482319	47.6643
0.591215	53.4609
0.697103	58.2708
0.803593	65.0541
0.913693	72.454
0.960019	78.0039
0.960019	78.0039
0.89775	72.269
0.848115	69.864
0.797577	66.904
0.735608	65.0541
0.684469	63.0808
0.633931	60.8608
0.585199	58.5175
0.522628	57.1609
0.473294	54.6942
0.422757	51.6109
0.372219	51.3643
0.309047	49.5143
0.259111	47.541
0.231436	47.171
0.204964	45.5677
0.179695	45.4444
0.165857	44.3344
0.150816	43.4711
0.124344	41.8677
0.099075	41.4977
0.086441	39.8944
0.072603	38.5378
0.050343	37.6745
0.038912	35.0845
0.017253	30.2746
