Adsorption isotherm of Nitrogen on TPB-TP-COF
DOI: 10.1002/anie.202108684
Article source: Figure S6A
Adsorbate Nitrogen: InChIKey IJGRMHOSHXDMSA-UHFFFAOYSA-N
Kind: experiment
Temperature: 77 K
Tabular data in the source: 0
pressure (bar)	uptake (cm3(STP)/g)
0.00015	3.15128
0.001884	5.54958
0.0201	8.53125
0.042653	10.8647
0.060001	12.55
0.075615	13.5871
0.090361	14.4946
0.116383	15.9854
0.142405	17.2818
0.173632	18.9671
0.219605	20.9765
0.269048	25.9027
0.323189	28.6197
0.378607	31.1855
0.43282	33.4812
0.482817	36.0019
0.593653	40.3232
0.697863	45.0495
0.806892	50.4061
0.913512	57.7433
0.899055	57.5632
0.851468	55.3576
0.802073	53.332
0.790026	52.5217
0.738222	50.6312
0.68943	49.1908
0.64124	47.6603
0.626784	47.6603
0.579196	45.6797
0.527995	44.4194
0.478299	42.8889
0.416556	40.9083
0.36656	39.648
0.317165	38.0275
0.268373	36.1819
0.254519	35.0116
0.232833	31.5231
0.209943	29.7901
0.185246	28.4397
0.172596	27.8545
0.159344	27.0443
0.147297	26.3241
0.134045	25.6038
0.10995	24.1184
0.085253	22.9481
0.072	22.0928
0.049713	20.5624
0.038268	19.7071
