Adsorption isotherm of Nitrogen on AAm-Py-H2SO4
DOI: 10.1002/anie.202108684
Article source: Figure S16
Adsorbate Nitrogen: InChIKey IJGRMHOSHXDMSA-UHFFFAOYSA-N
Kind: experiment
Temperature: 77 K
Tabular data in the source: 0
pressure (bar)	uptake (cm3(STP)/g)
-0.000867	6.46533
0.001204	15.7269
0.006727	27.4582
0.021915	35.7936
0.04815	39.4982
0.061267	42.2767
0.077146	44.7464
0.093715	47.5249
0.117188	50.6121
0.146184	52.7731
0.178631	56.169
0.224196	59.8737
0.276665	64.9675
0.330515	69.1352
0.382984	72.2224
0.436833	76.5445
0.554198	87.0409
0.657755	98.1548
0.762002	112.047
0.865559	136.127
0.953237	187.992
0.951857	188.918
0.90422	165.147
0.853132	147.55
0.842086	143.228
0.803425	132.731
0.787546	128.1
0.749575	122.235
0.732316	118.839
0.691583	113.282
0.634282	105.873
0.5756	100.316
0.533486	97.5373
0.516917	95.0676
0.475495	90.1281
0.417503	85.4973
0.370557	82.1014
0.312565	77.7793
0.255264	73.766
0.226958	71.9137
0.211079	70.6788
0.180703	69.1352
0.164133	67.9003
0.148945	67.2829
0.129614	65.1219
0.10338	62.9608
0.088192	61.4173
0.072313	60.1824
0.057815	58.0213
0.037104	55.2429
0.018463	49.9947
