Adsorption isotherm of Nitrogen on PANI
DOI: 10.1002/anie.202108684
Article source: Figure S6C
Adsorbate Nitrogen: InChIKey IJGRMHOSHXDMSA-UHFFFAOYSA-N
Kind: experiment
Temperature: 77 K
Tabular data in the source: 0
pressure (bar)	uptake (cm3(STP)/g)
-0.000923	1.46429
0.003278	2.55528
0.01924	4.09456
0.042763	5.18692
0.069226	6.05576
0.088968	6.58853
0.112491	7.3453
0.139795	8.01843
0.172559	8.69196
0.191881	9.25266
0.236827	10.0949
0.268331	10.9081
0.324618	12.1986
0.374604	13.4327
0.429631	14.8349
0.483818	16.321
0.590091	18.9507
0.697759	22.5425
0.804217	27.2618
0.904627	36.3301
0.948178	48.1327
0.948783	48.0925
0.896158	37.4168
0.855027	31.5342
0.842325	30.3655
0.798169	26.7781
0.737681	23.8743
0.689291	21.5351
0.631223	19.6785
0.582833	17.9031
0.535048	16.8526
0.52174	16.3684
0.475165	15.0361
0.425565	14.1064
0.364473	12.7328
0.316082	11.6017
0.267911	10.3767
0.254889	10.0682
0.229266	9.59092
0.204903	9.00189
0.18138	8.63665
0.168778	8.27219
0.143575	7.71107
0.130554	7.34658
0.10535	6.95326
0.080147	6.19637
0.070066	5.94396
0.057464	5.5795
0.051584	5.24348
0.038982	4.82309
0.017979	3.70294
