Adsorption isotherm of Nitrogen on AAm-Py-HCl
DOI: 10.1002/anie.202108684
Article source: Figure S16
Adsorbate Nitrogen: InChIKey IJGRMHOSHXDMSA-UHFFFAOYSA-N
Kind: experiment
Temperature: 77 K
Tabular data in the source: 0
pressure (bar)	uptake (cm3(STP)/g)
-0.000955	7.3345
-0.000262	23.219
0.004585	42.2804
0.018436	58.8002
0.046136	72.7786
0.063449	78.497
0.0773	85.4862
0.092535	93.1107
0.114696	101.371
0.144474	109.631
0.177715	119.797
0.222729	131.234
0.277439	148.389
0.33007	161.732
0.384087	178.887
0.436026	191.595
0.556525	223.364
0.65971	255.133
0.767051	293.255
0.871622	342.815
0.972037	448.923
0.974115	448.288
0.900708	379.667
0.844613	342.18
0.798214	317.4
0.741428	290.714
0.695721	278.006
0.679793	269.111
0.634087	253.226
0.57453	230.353
0.528131	219.551
0.467882	203.031
0.422868	192.23
0.361234	177.616
0.31622	169.356
0.253893	154.743
0.225499	146.483
0.207494	138.223
0.191566	136.317
0.177715	130.598
0.16248	126.786
0.145167	121.703
0.130624	118.526
0.102231	107.089
0.086995	103.277
0.071067	101.371
0.055832	96.2876
0.035749	86.1216
