Adsorption isotherm of Nitrogen on AAm-TPB
DOI: 10.1002/anie.202108684
Article source: Figure 1B
Adsorbate Nitrogen: InChIKey IJGRMHOSHXDMSA-UHFFFAOYSA-N
Kind: experiment
Temperature: 77 K
Tabular data in the source: 0
pressure (bar)	uptake (cm3(STP)/g)
0.000282	4.9459
-0.000259	9.8643
0.000282	14.7827
0.000824	18.3597
-0.000259	22.0858
0.001366	27.2277
0.003803	31.0283
0.018159	43.5479
0.020326	46.2306
0.040641	57.2597
0.055538	63.8176
0.068539	69.6302
0.083166	75.89
0.105377	82.1498
0.130838	88.4096
0.15034	91.8375
0.167133	95.4146
0.187718	98.2464
0.208304	102.121
0.230515	104.953
0.259768	109.126
0.30771	115.833
0.358903	122.689
0.413617	129.694
0.466706	136.997
0.520336	144.449
0.572884	151.753
0.626514	159.056
0.681228	166.21
0.774405	179.474
0.877332	195.273
0.940714	205.557
0.940714	205.706
0.896834	200.489
0.844829	194.826
0.79174	189.609
0.738651	183.499
0.683937	178.431
0.631931	172.171
0.577759	166.061
0.523587	160.397
0.470498	153.988
0.418493	146.983
0.364862	140.574
0.310148	133.569
0.267893	127.608
0.257059	126.713
0.227264	121.795
0.205054	119.112
0.18501	116.877
0.174717	115.088
0.164424	114.045
0.144381	111.064
0.135713	108.977
0.107002	103.165
0.085333	96.7559
0.07179	91.3904
0.056621	84.8326
0.041995	78.5728
0.023035	66.9475
