Adsorption isotherm of Nitrogen on AAm-Py
DOI: 10.1002/anie.202108684
Article source: Figure S5
Adsorbate Nitrogen: InChIKey IJGRMHOSHXDMSA-UHFFFAOYSA-N
Kind: experiment
Temperature: 77 K
Tabular data in the source: 0
pressure (bar)	uptake (cm3(STP)/g)
-0.000297	5.04516
-0.001087	11.1889
-0.000335	17.0247
-0.000353	22.5537
0.002702	31.7673
0.018868	39.7461
0.042749	46.4925
0.055076	49.2512
0.075112	52.9277
0.089748	56.914
0.114408	61.2027
0.142921	65.7968
0.172972	71.926
0.194549	75.6018
0.235394	82.0331
0.267762	86.6254
0.323249	95.1999
0.375657	102.24
0.430373	110.815
0.48432	118.776
0.592211	135.619
0.697772	157.686
0.80178	183.439
0.903403	231.309
0.953368	278.896
0.951825	279.204
0.895667	239.299
0.847558	213.98
0.799051	192.655
0.738586	173.639
0.687736	161.683
0.638423	151.263
0.589105	142.378
0.575236	139.62
0.523984	132.58
0.474279	124.31
0.4238	116.961
0.374475	110.227
0.360988	108.39
0.310122	101.349
0.259384	94.5133
0.23305	91.454
0.208005	87.3702
0.184886	83.5416
0.170113	82.0127
0.157265	80.9949
0.145065	78.6968
0.131577	77.1674
0.106533	72.3157
0.081488	68.2319
0.069291	64.6541
0.057728	63.8916
0.03718	60.0617
