Adsorption isotherm of Nitrogen on AAm-TPB-NaOH
DOI: 10.1002/anie.202108684
Article source: Figure S15
Adsorbate Nitrogen: InChIKey IJGRMHOSHXDMSA-UHFFFAOYSA-N
Kind: experiment
Temperature: 77 K
Tabular data in the source: 0
pressure (bar)	uptake (cm3(STP)/g)
-0.000291	2.95149
0.003419	4.52734
0.023509	5.87142
0.043588	6.98209
0.060918	7.68403
0.07644	8.67755
0.096494	9.20471
0.117479	10.1988
0.14849	11.4272
0.185843	11.9561
0.229594	13.0108
0.286104	14.3585
0.340775	15.2976
0.401836	16.5874
0.45744	18.0517
0.508487	19.3988
0.629685	21.6866
0.738142	24.1481
0.852111	27.7189
0.96153	31.3476
0.96243	31.1143
0.947854	30.9378
0.895879	29.182
0.843954	28.5934
0.828458	28.1834
0.777461	28.0032
0.724583	26.4225
0.670809	25.1918
0.620711	24.72
0.607028	24.1351
0.552366	23.4294
0.500421	22.3739
0.446683	21.9601
0.396584	21.4883
0.378364	21.2531
0.330074	20.4897
0.274512	20.0174
0.241723	19.7807
0.216216	19.4864
0.204329	18.3182
0.191602	18.7838
0.176115	18.6072
0.160609	17.9638
0.134196	17.7861
0.1105	17.2586
0.092279	17.0234
0.073103	15.7377
0.056704	15.5027
0.039376	14.8591
0.020207	13.7485
