Adsorption isotherm of Nitrogen on AAm-Py-NaOH
DOI: 10.1002/anie.202108684
Article source: Figure S16
Adsorbate Nitrogen: InChIKey IJGRMHOSHXDMSA-UHFFFAOYSA-N
Kind: experiment
Temperature: 77 K
Tabular data in the source: 0
pressure (bar)	uptake (cm3(STP)/g)
-0.002204	0.174667
0.019217	2.50979
0.042023	4.84491
0.058603	6.82976
0.074503	8.23083
0.093875	9.16488
0.113216	11.6168
0.140197	13.0178
0.171967	17.221
0.193439	17.1043
0.238368	21.3075
0.268112	23.0588
0.31925	28.4296
0.372517	31.3485
0.428532	35.3182
0.483203	37.3031
0.591771	45.2425
0.698275	52.4814
0.804019	62.9894
0.914671	70.5785
0.963068	74.5482
0.961681	74.665
0.898118	67.3094
0.851845	61.1213
0.800719	55.1667
0.790369	53.2987
0.738519	48.8619
0.688047	44.7755
0.640323	41.7398
0.625121	40.1052
0.577407	36.6025
0.528325	32.2826
0.475041	30.181
0.428714	26.5615
0.412807	25.5107
0.362311	22.5918
0.314604	18.7389
0.264088	16.754
0.226726	15.0027
0.200445	13.2513
0.187306	12.3173
0.175561	10.9162
0.16242	10.0989
0.150682	8.34759
0.135451	8.11408
0.109163	6.713
0.086339	5.19518
0.0718	4.96166
0.052455	2.7433
0.038601	2.86005
