Adsorption isotherm of Nitrogen on TPB-DMTP-COF
DOI: 10.1002/anie.202108684
Article source: Figure S6B
Adsorbate Nitrogen: InChIKey IJGRMHOSHXDMSA-UHFFFAOYSA-N
Kind: experiment
Temperature: 77 K
Tabular data in the source: 0
pressure (bar)	uptake (cm3(STP)/g)
0.001171	6.41373
-0.00091	34.612
0.001225	68.2411
0.001601	96.4437
0.000572	123.559
0.000595	150.676
0.004136	185.393
0.009084	223.366
0.013318	248.321
0.01896	277.618
0.034444	321.033
0.045695	341.662
0.055543	363.373
0.071713	389.435
0.083671	415.488
0.10406	448.065
0.130772	486.077
0.151152	508.891
0.16732	531.699
0.189103	553.431
0.209489	582.754
0.229171	610.991
0.237626	645.716
0.236976	705.373
0.251774	767.226
0.269369	816.069
0.269399	850.779
0.289777	871.424
0.318565	874.729
0.374045	893.267
0.427413	905.294
0.482186	918.407
0.534852	930.432
0.641583	947.977
0.749019	969.862
0.855054	994.998
0.956186	1033.14
0.954781	1032.05
0.897194	1013.51
0.848742	1002.58
0.801033	994.51
0.788355	992.981
0.740569	986.117
0.691318	976.237
0.630366	967.09
0.581114	956.457
0.534789	947.335
0.521623	945.052
0.473345	932.914
0.426044	923.038
0.366549	907.867
0.320221	894.98
0.26899	851.2
0.2675	820.314
0.244049	764.531
0.240098	707.276
0.239098	677.898
0.236143	644.749
0.211236	595.743
0.184393	564.059
0.175606	551.991
0.163894	539.165
0.146811	518.043
0.138512	505.977
0.110198	464.497
0.092135	437.348
0.085787	426.038
0.077973	411.712
0.071133	395.128
0.062833	381.555
0.055997	370.244
0.04867	353.659
0.042807	339.337
