Adsorption isotherm of Nitrogen on AAm-TPB-HCl
DOI: 10.1002/anie.202108684
Article source: Figure S15
Adsorbate Nitrogen: InChIKey IJGRMHOSHXDMSA-UHFFFAOYSA-N
Kind: experiment
Temperature: 77 K
Tabular data in the source: 0
pressure (bar)	uptake (cm3(STP)/g)
-0.000971	1.28307
0.019884	3.55304
0.045778	6.16298
0.061612	7.41025
0.075299	8.08916
0.092592	8.76707
0.115633	10.2399
0.142999	11.8253
0.173985	12.9546
0.216474	15.4461
0.271196	18.9583
0.325191	22.6982
0.378464	26.4384
0.42892	27.7898
0.481489	30.9612
0.591668	37.5303
0.698244	43.9865
0.806214	52.1492
0.908345	62.7032
0.957989	67.2409
0.957986	67.3547
0.896102	62.0239
0.848586	58.7372
0.796073	53.6313
0.736327	49.2102
0.685162	47.4039
0.635238	44.1743
0.587729	41.356
0.573562	40.438
0.524799	37.6859
0.473546	34.4077
0.428143	30.9303
0.412308	29.947
0.363966	27.0631
0.313101	24.8384
0.261843	21.7577
0.227271	19.0675
0.211842	18.4791
0.188102	16.5761
0.172656	16.5804
0.160631	13.7522
0.147248	14.612
0.133494	13.8256
0.106418	11.7918
0.081416	10.2184
0.068921	9.23411
0.055605	7.72327
0.036824	7.59681
0.018067	6.61429
