Adsorption isotherm of Nitrogen on 5% CuS/CdS NFAs
DOI: 10.1039/c6qi00515b
Article source: Figure 3
Adsorbate Nitrogen: InChIKey IJGRMHOSHXDMSA-UHFFFAOYSA-N
Kind: experiment
Temperature: 77 K
Tabular data in the source: 0
pressure (bar)	uptake (cm3(STP)/g)
0.013719	32.57
0.048554	44.74
0.081788	48.44
0.110472	52.4
0.149441	56.9
0.1815	59.8
0.220418	63.5
0.249001	65.35
0.28565	69.05
0.320019	72.75
0.347558	76.45
0.359008	77.51
0.394491	80.68
0.42885	84.11
0.462104	88.34
0.491852	90.72
0.501204	95.22
0.533526	103.15
0.534296	96.27
0.564096	99.71
0.575717	125.11
0.596205	103.67
0.598566	126.43
0.629408	106.84
0.640787	127.75
0.664871	109.75
0.665814	127.22
0.706079	113.45
0.713739	128.8
0.739273	116.35
0.747946	129.32
0.769072	119.79
0.773044	130.11
0.802762	131.96
0.803461	123.75
0.841092	124.54
0.844963	133.01
0.870952	129.04
0.871206	133.8
0.904085	130.88
0.933864	134.06
0.97722	135.37
1.00576	136.43
