Adsorption isotherm of Nitrogen on CdS
DOI: 10.1039/c6qi00515b
Article source: Figure 3
Adsorbate Nitrogen: InChIKey IJGRMHOSHXDMSA-UHFFFAOYSA-N
Kind: experiment
Temperature: 77 K
Tabular data in the source: 0
pressure (bar)	uptake (cm3(STP)/g)
0.010771	34.24
0.044998	45.91
0.071159	50.2
0.113208	54.51
0.143909	58.57
0.178025	62.88
0.215524	66.23
0.254148	69.58
0.2803	72.69
0.316675	76.76
0.347356	79.63
0.360963	79.17
0.389394	83.23
0.422365	87.53
0.449661	91.11
0.463289	92.07
0.481456	92.8
0.490636	99.22
0.528055	97.82
0.531682	111.38
0.556932	128.98
0.558766	102.36
0.587177	105.47
0.60119	129.49
0.625031	130.69
0.625801	107.88
0.661062	113.13
0.667019	131.2
0.690618	116.95
0.691996	131.69
0.723578	120.54
0.735108	131.72
0.756528	122.94
0.762354	132.69
0.795163	126.77
0.804373	134.86
0.826978	129.41
0.829329	134.64
0.865623	133.24
0.896263	133.98
0.933732	135.43
0.963247	136.4
1.0007	136.66
