Adsorption isotherm of Ethane on MAF-3
DOI: 10.1038/ncomms9697
Article source: Figure 2c
Adsorbate Ethane: InChIKey OTMSDBZUPAUEDD-UHFFFAOYSA-N
Kind: experiment
Temperature: 316 K
Tabular data in the source: 0
pressure (bar)	uptake (cm3(STP)/g)
2.3e-05	0.324074
0.002209	0
0.036089	0
0.048897	0.648148
0.068738	0.972222
0.089607	1.2963
0.117012	2.26852
0.146882	2.59259
0.192478	4.86111
0.209943	9.07407
0.220317	12.963
0.239679	16.2037
0.251083	19.4444
0.27291	22.3611
0.296894	25.6019
0.322704	28.5185
0.350757	31.4352
0.395224	33.7037
0.412946	35.9722
0.463672	36.9444
0.560967	37.5926
0.679271	38.5648
0.791363	39.213
0.921147	39.537
1.15731	40.1852
