Adsorption isotherm of Methane on MAF-49
DOI: 10.1038/ncomms9697
Article source: Figure 2a
Adsorbate Methane: InChIKey VNWKTOKETHGBQD-UHFFFAOYSA-N
Kind: experiment
Temperature: 316 K
Tabular data in the source: 0
pressure (bar)	uptake (cm3(STP)/g)
1e-05	-0.001184
0.00256	0.524478
0.006454	1.08388
0.012426	1.635
0.022155	2.36074
0.031347	2.90239
0.042699	3.97384
0.049836	4.50956
0.062841	5.40165
0.073343	5.93737
0.08899	6.82827
0.099922	7.18582
0.112253	8.07435
0.131035	8.78707
0.159017	9.85497
0.208602	11.8102
0.24367	13.2309
0.295707	14.2988
0.345417	15.7195
0.419182	16.7874
0.470913	17.676
0.549985	18.9197
0.642225	19.9864
0.694228	20.8737
0.842339	21.7646
0.945648	21.9452
0.983609	22.8314
