Adsorption isotherm of Ethene on MAF-49
DOI: 10.1038/ncomms9697
Article source: Figure 2a
Adsorbate Ethene: InChIKey VGGSQFUCUMXWEO-UHFFFAOYSA-N
Kind: experiment
Temperature: 316 K
Tabular data in the source: 0
pressure (bar)	uptake (cm3(STP)/g)
1e-05	0
8.4e-05	0.241256
0.000181	0.793543
0.000378	1.52086
0.000535	2.06014
0.000624	2.41729
0.000757	2.77563
0.000919	3.6626
0.001405	5.0853
0.002508	8.09863
0.003836	11.2834
0.004477	11.993
0.006099	14.4694
0.007992	17.2971
0.009696	19.4176
0.011316	20.6558
0.014268	22.7774
0.016021	24.1906
0.020201	25.9598
0.024505	27.3755
0.027517	28.0838
0.038958	30.5615
0.053068	32.333
0.064375	33.7486
0.084366	34.9904
0.106377	35.8785
0.134127	36.9429
0.197379	37.3072
0.29046	37.6714
0.395653	37.8571
0.49887	38.0404
0.706306	38.051
0.890562	38.2343
