Adsorption isotherm of Ethane on ZIF-8
DOI: 10.1038/ncomms9697
Article source: Figure 2c
Adsorbate Ethane: InChIKey OTMSDBZUPAUEDD-UHFFFAOYSA-N
Kind: experiment
Temperature: 316 K
Tabular data in the source: 0
pressure (bar)	uptake (cm3(STP)/g)
2.2e-05	-0.325581
0.0031	-0.325581
0.016978	0.325581
0.029934	0.651163
0.06631	1.62791
0.100793	2.93023
0.159102	4.23256
0.208132	5.86047
0.261953	7.16279
0.330272	9.11628
0.401335	11.3953
0.469212	13.3488
0.592624	15.9535
0.642472	17.907
0.724576	20.5116
0.784833	22.1395
0.882028	23.4419
0.91918	24.7442
0.957898	26.0465
1.03665	27.3488
1.08221	29.3023
