Adsorption isotherm of Ethane on MAF-49
DOI: 10.1038/ncomms9697
Article source: Figure 2a
Adsorbate Ethane: InChIKey OTMSDBZUPAUEDD-UHFFFAOYSA-N
Kind: experiment
Temperature: 316 K
Tabular data in the source: 0
pressure (bar)	uptake (cm3(STP)/g)
1e-05	0
4.3e-05	0.374893
6.1e-05	0.556426
8.7e-05	0.737959
0.000123	0.919493
0.000181	1.63025
0.000257	2.69284
0.000288	3.22325
0.000324	3.57745
0.000378	4.10845
0.000424	4.81507
0.000458	5.16867
0.000578	6.22949
0.000624	6.75931
0.000674	7.46533
0.00085	8.70236
0.001072	10.468
0.001578	13.822
0.001914	15.9394
0.00271	19.1166
0.003287	21.7627
0.004654	25.116
0.005645	26.7049
0.00769	29.3528
0.013207	31.6518
0.01799	33.4187
0.030898	35.5415
0.038958	35.8975
0.051056	36.4302
0.094735	37.3208
0.110567	37.6755
0.162708	37.8577
0.279453	38.2184
0.38066	38.2231
0.560173	38.5814
0.734128	38.5856
1	39.1189
