Adsorption isotherm of Ethane on MAF-49
DOI: 10.1038/ncomms9697
Article source: Figure 2c
Adsorbate Ethane: InChIKey OTMSDBZUPAUEDD-UHFFFAOYSA-N
Kind: experiment
Temperature: 316 K
Tabular data in the source: 0
pressure (bar)	uptake (cm3(STP)/g)
2.2e-05	-0.325581
4.4e-05	-0.325581
6.1e-05	0
8.3e-05	0.325581
0.000126	0.651163
0.000191	1.30233
0.000249	2.27907
0.00029	2.60465
0.000351	3.5814
0.000408	3.90698
0.000495	4.88372
0.000556	6.18605
0.000699	7.16279
0.000848	8.7907
0.001107	9.76744
0.001695	13.6744
0.002058	15.6279
0.002805	18.5581
0.003683	21.4884
0.005016	24.093
0.006324	26.0465
0.009297	28.9767
0.014715	31.2558
0.019989	32.8837
0.030384	34.186
0.038175	34.8372
0.053713	35.4884
0.106244	36.4651
0.133367	36.7907
0.180541	37.1163
0.202189	37.1163
0.284236	37.4419
0.414584	37.4419
0.58231	37.4419
0.730964	37.7674
0.952865	38.093
1.14979	37.7674
