Adsorption isotherm of Ethane on IRMOF-8
DOI: 10.1038/ncomms9697
Article source: Figure 2c
Adsorbate Ethane: InChIKey OTMSDBZUPAUEDD-UHFFFAOYSA-N
Kind: experiment
Temperature: 316 K
Tabular data in the source: 0
pressure (bar)	uptake (cm3(STP)/g)
2.3e-05	1.27854
0.001081	0.958904
0.005926	1.91781
0.01172	2.87671
0.01649	3.51598
0.023222	4.47489
0.032757	6.07306
0.044458	7.3516
0.055951	8.63014
0.067866	10.2283
0.092266	12.1461
0.108046	14.7032
0.159371	18.8584
0.217984	23.0137
0.287106	27.1689
0.350652	31.3242
0.544107	40.274
0.616743	44.7489
0.725969	49.2237
0.820051	52.4201
0.891243	55.2968
0.967782	57.8539
1.0518	60.7306
1.14213	63.2877
1.24128	66.1644
