Adsorption isotherm of Carbon Dioxide on MAF-49
DOI: 10.1038/ncomms9697
Article source: Figure 2a
Adsorbate Carbon Dioxide: InChIKey CURLTUGMZLYLDI-UHFFFAOYSA-N
Kind: experiment
Temperature: 316 K
Tabular data in the source: 0
pressure (bar)	uptake (cm3(STP)/g)
1e-05	0
0.000292	0.279455
0.000447	0.468725
0.000658	0.480591
0.00097	0.492457
0.001545	0.682914
0.00195	1.04247
0.002763	0.87693
0.004577	1.59722
0.007295	2.49255
0.009952	3.03069
0.012089	3.74149
0.015265	4.45348
0.018539	4.98806
0.020833	5.34405
0.03075	7.11809
0.040405	8.88856
0.049089	9.77558
0.05739	11.0138
0.081546	13.4916
0.095387	15.2585
0.12055	16.8515
0.135579	18.0886
0.164774	19.3281
0.192642	20.5663
0.225222	21.8046
0.253301	23.0417
0.274002	24.1013
0.308056	24.986
0.374456	26.4016
0.420925	27.1101
0.473321	28.1709
0.532241	29.2318
0.62215	30.2938
0.699236	30.8261
0.75638	31.8857
0.850388	32.7704
0.884454	33.3002
1.03368	34.186
