Adsorption isotherm of Nitrogen on C32H24Cu2N2O8
DOI: 10.1021/Ja9091598
Adsorbate Nitrogen: InChIKey IJGRMHOSHXDMSA-UHFFFAOYSA-N
Temperature: 77 K
Tabular data in the source: 0
pressure (bar)	uptake (molecules/Cu2 unit)
1.59e-05	0.0512821
3.23e-05	0.102564
6.56e-05	0.128205
0.000124203	0.179487
0.000234994	0.230769
0.000477253	0.25641
0.000902967	0.282051
0.00183386	0.282051
0.00372441	0.282051
0.00756396	0.282051
0.0153618	0.282051
0.0359479	0.307692
0.128684	0.410256
0.243469	0.487179
0.346963	0.564103
0.494462	0.74359
0.811938	0.923077
