Adsorption isotherm of Oxygen on C32H24N2O8Rh2
DOI: 10.1021/Ja9091598
Adsorbate Oxygen: InChIKey MYMOFIZGZYHOMD-UHFFFAOYSA-N
Temperature: 77 K
Tabular data in the source: 0
pressure (bar)	uptake (molecules/Rh2 unit)
2.53e-06	1.48837
3.36e-06	1.71967
5.54e-06	2.10521
7.37e-06	2.33651
1.05e-05	2.54229
1.5e-05	2.77372
2.65e-05	2.90299
4.69e-05	3.03225
8.91e-05	3.05908
0.00018152	3.11168
0.000224754	3.08644
0.000458126	3.13904
0.000869633	3.16587
0.00165077	3.16706
0.00336484	3.19403
0.00685872	3.22099
0.0121246	3.24769
0.0150125	3.24808
0.0306001	3.24941
0.0580875	3.30188
0.0719222	3.32791
0.136525	3.40603
