Adsorption isotherm of Oxygen on C34H28Cu2N2O8
DOI: 10.1021/Ja9091598
Adsorbate Oxygen: InChIKey MYMOFIZGZYHOMD-UHFFFAOYSA-N
Temperature: 77 K
Tabular data in the source: 0
pressure (bar)	uptake (molecules/Cu2 unit)
0.000177003	0
0.000512293	0
0.00811929	-0.0512821
0.0414203	-0.025641
0.128684	0
0.211302	0.0512821
