Adsorption isotherm of Carbon Dioxide on C33H26Cu2N2O8
DOI: 10.1021/Ja9091598
Adsorbate Carbon Dioxide: InChIKey CURLTUGMZLYLDI-UHFFFAOYSA-N
Temperature: 195 K
Tabular data in the source: 0
pressure (bar)	uptake (molecules/Cu2 unit)
0.000633616	0.0769231
0.00128682	0.128205
0.00243468	0.205128
0.00429136	0.307692
0.00811929	0.410256
0.0143111	0.538462
0.020395	0.641026
0.0414203	0.74359
0.0680132	0.897436
0.104043	1.02564
0.159156	1.58974
0.183385	2.35897
0.301129	2.76923
0.611566	2.89744
1.07794	3
