Adsorption isotherm of Argon on C34H28N2O8Rh2
DOI: 10.1021/Ja9091598
Adsorbate Argon: InChIKey XKRFYHLGVUSROY-UHFFFAOYSA-N
Temperature: 77 K
Tabular data in the source: 0
pressure (bar)	uptake (molecules/Rh2 unit)
3.72e-05	0
7.05e-05	0
0.000133322	0.025641
0.000234994	-0.025641
0.000477253	-0.025641
0.000902967	0
0.00159157	0
0.00323235	0
0.00656464	0
0.0133322	0.025641
0.0252245	0
0.0477258	0.025641
0.0969266	0
0.170841	0.0512821
0.243469	0.102564
