Adsorption isotherm of Carbon Dioxide on C34H28N2O8Rh2
DOI: 10.1021/Ja9091598
Adsorbate Carbon Dioxide: InChIKey CURLTUGMZLYLDI-UHFFFAOYSA-N
Temperature: 195 K
Tabular data in the source: 0
pressure (bar)	uptake (molecules/Rh2 unit)
0.00291816	0.0142744
0.00849233	0.09318
0.0161203	0.0943695
0.0306001	0.172482
0.0623739	0.32765
0.102684	0.482421
0.157421	0.662702
0.224752	0.817209
0.32088	1.04864
0.458124	1.10058
0.567248	1.22918
0.609106	1.97291
0.654068	1.56278
0.754194	2.25535
1.15623	2.38435
