Adsorption isotherm of Hydrogen on C34H28Cu2N2O8
DOI: 10.1021/Ja9091598
Adsorbate Hydrogen: InChIKey UFHFLCQGNIYNRP-UHFFFAOYSA-N
Temperature: 77 K
Tabular data in the source: 0
pressure (bar)	uptake (molecules/Cu2 unit)
0.0334891	0
0.0633611	0
0.128684	0.025641
0.243469	0.0512821
0.372437	0.0769231
0.704666	0.179487
1.00421	0.358974
