Adsorption isotherm of Carbon Dioxide on C32H24Cu2N2O8
DOI: 10.1021/Ja9091598
Adsorbate Carbon Dioxide: InChIKey CURLTUGMZLYLDI-UHFFFAOYSA-N
Temperature: 195 K
Tabular data in the source: 0
pressure (bar)	uptake (molecules/Cu2 unit)
5.7e-05	0.025641
9.36e-05	0.0512821
0.000153618	0.153846
0.000290646	0.230769
0.000549905	0.333333
0.00104043	0.461538
0.00170842	0.538462
0.00323235	0.641026
0.00569734	0.769231
0.0100421	0.794872
0.020395	0.897436
0.0311984	1.02564
0.0477258	1.07692
0.0633611	1.25641
0.0730067	1.46154
0.078367	2.15385
0.104043	2.4359
0.138128	2.53846
0.261344	2.82051
0.429134	3.02564
0.704666	3.17949
1.00421	3.20513
