Adsorption isotherm of Nitrogen on C34H28Cu2N2O8
DOI: 10.1021/Ja9091598
Adsorbate Nitrogen: InChIKey IJGRMHOSHXDMSA-UHFFFAOYSA-N
Temperature: 77 K
Tabular data in the source: 0
pressure (bar)	uptake (molecules/Cu2 unit)
1.38e-05	0
0.000153618	0
0.000234994	0
0.000549905	0
0.00111681	0
0.00811929	0
0.183385	0
0.460641	0.025641
0.93552	0.0769231
