Adsorption isotherm of Argon on C33H26Cu2N2O8
DOI: 10.1021/Ja9091598
Adsorbate Argon: InChIKey XKRFYHLGVUSROY-UHFFFAOYSA-N
Temperature: 77 K
Tabular data in the source: 0
pressure (bar)	uptake (molecules/Cu2 unit)
0.000512293	0.0254777
0.000680135	0.178344
0.00148271	0.152866
0.00323235	0.203822
0.00656464	0.203822
0.0218919	0.229299
0.0477258	0.280255
0.078367	0.305732
0.138128	0.382166
0.196849	0.433121
0.261344	0.509554
