Adsorption isotherm of Oxygen on C34H28N2O8Rh2
DOI: 10.1021/Ja9091598
Adsorbate Oxygen: InChIKey MYMOFIZGZYHOMD-UHFFFAOYSA-N
Temperature: 77 K
Tabular data in the source: 0
pressure (bar)	uptake (molecules/Rh2 unit)
6.86e-06	-0.0226011
1.3e-05	0.0298705
2.3e-05	0.00528681
4.69e-05	0.00660851
9.56e-05	-0.0177108
0.000157423	-0.0167856
0.000298826	0.0100449
0.000567243	-0.0144066
0.00107676	0.012424
0.00204395	0.0136135
0.00416628	0.0149352
0.00849233	0.0162569
0.0161203	0.0430875
0.0328589	0.0444092
0.0669781	0.0457309
0.136525	0.0726936
0.224752	0.304388
