Adsorption isotherm of Hydrogen on C32H24N2O8Rh2
DOI: 10.1021/Ja9091598
Adsorbate Hydrogen: InChIKey UFHFLCQGNIYNRP-UHFFFAOYSA-N
Temperature: 77 K
Tabular data in the source: 0
pressure (bar)	uptake (molecules/Rh2 unit)
6.24e-05	0.00713719
0.000102684	0.00806238
0.000320882	0.0358181
0.000933822	0.0890827
0.00165077	0.167063
0.00313355	0.296458
0.0051586	0.451229
0.00790859	0.65715
0.0112911	0.862939
0.024714	1.30029
0.037889	1.50621
0.0580875	1.71213
0.0890519	1.89241
0.146603	2.02154
0.278287	2.15094
0.426632	2.35686
0.491941	2.61353
0.654068	2.87047
0.93382	3.05062
1.07677	3.15345
