Adsorption isotherm of Argon on C33H26N2O8Rh2
DOI: 10.1021/Ja9091598
Adsorbate Argon: InChIKey XKRFYHLGVUSROY-UHFFFAOYSA-N
Temperature: 77 K
Tabular data in the source: 0
pressure (bar)	uptake (molecules/Rh2 unit)
3.06e-05	-0.0198255
3.79e-05	0.416468
6.24e-05	0.750727
7.72e-05	0.981893
0.000169043	1.54745
0.000259157	1.75337
0.00039731	1.95929
0.000567243	2.06252
0.000702347	2.13984
0.00133322	2.21795
0.00271757	2.27055
0.0051586	2.34867
0.00979224	2.3755
0.0199601	2.40246
0.12714	2.55974
0.224752	2.689
0.278287	2.81761
