Adsorption isotherm of Nitrogen on C32H24N2O8Rh2
DOI: 10.1021/Ja9091598
Adsorbate Nitrogen: InChIKey IJGRMHOSHXDMSA-UHFFFAOYSA-N
Temperature: 77 K
Tabular data in the source: 0
pressure (bar)	uptake (molecules/Rh2 unit)
2.72e-06	1.00132
4.17e-06	1.20724
6.86e-06	1.36201
1.21e-05	1.49128
2.14e-05	1.62054
3.29e-05	1.82646
5.04e-05	2.03238
8.29e-05	2.21279
0.000146602	2.41898
0.000259157	2.47132
0.000528252	2.54956
0.00100275	2.57639
0.00190345	2.57758
0.0038799	2.57891
0.00790859	2.60587
0.0161203	2.60719
0.0284973	2.65953
0.0580875	2.66085
0.110264	2.71332
0.181519	2.81681
0.32088	2.94607
0.528254	3.12649
0.702349	3.35778
0.93382	3.58908
1.15623	3.74333
