Adsorption isotherm of Carbon Dioxide on C34H28Cu2N2O8
DOI: 10.1021/Ja9091598
Adsorbate Carbon Dioxide: InChIKey CURLTUGMZLYLDI-UHFFFAOYSA-N
Temperature: 195 K
Tabular data in the source: 0
pressure (bar)	uptake (molecules/Cu2 unit)
0.000633616	0
0.00128682	0
0.00226815	0.025641
0.00429136	0.025641
0.00871541	0.0512821
0.0153618	0.102564
0.0311984	0.153846
0.0590273	0.25641
0.104043	0.384615
0.138128	0.487179
0.226816	0.615385
0.372437	0.846154
0.494462	1
0.569735	1.10256
0.656467	1.30769
0.704666	1.61538
0.871531	1.84615
1.07794	2
