Adsorption isotherm of Argon on C32H24N2O8Rh2
DOI: 10.1021/Ja9091598
Adsorbate Argon: InChIKey XKRFYHLGVUSROY-UHFFFAOYSA-N
Temperature: 77 K
Tabular data in the source: 0
pressure (bar)	uptake (molecules/Rh2 unit)
3.88e-06	0.489162
4.47e-06	0.745837
6.86e-06	0.951758
1.3e-05	0.978588
2.47e-05	1.00542
5.04e-05	1.03238
0.00012714	1.16231
0.000259157	1.21491
0.000491941	1.26738
0.000933822	1.29421
0.00177261	1.32104
0.00336484	1.32223
0.00685872	1.34919
0.0130195	1.37602
0.024714	1.4285
0.0436881	1.53212
0.0829303	1.73844
0.136525	1.97013
0.209307	2.22733
0.259157	2.53542
