Adsorption isotherm of Argon on C34H28Cu2N2O8
DOI: 10.1021/Ja9091598
Adsorbate Argon: InChIKey XKRFYHLGVUSROY-UHFFFAOYSA-N
Temperature: 77 K
Tabular data in the source: 0
pressure (bar)	uptake (molecules/Cu2 unit)
5.5e-06	-3.55e-15
0.000252247	0.0254777
0.000969262	0.0254777
0.00460644	0.0509554
0.00871541	0.0254777
0.0590273	-3.55e-15
0.211302	0.0509554
