Adsorption isotherm of Carbon Dioxide on C32H24N2O8Rh2
DOI: 10.1021/Ja9091598
Adsorbate Carbon Dioxide: InChIKey CURLTUGMZLYLDI-UHFFFAOYSA-N
Temperature: 195 K
Tabular data in the source: 0
pressure (bar)	uptake (molecules/Rh2 unit)
0.000654071	0.216627
0.00124158	0.346022
0.00204395	0.500793
0.00480401	0.78443
0.00736497	0.964711
0.0121246	1.14512
0.0173102	1.35091
0.024714	1.5567
0.0503759	2.17341
0.0719222	2.5074
0.209307	2.894
0.528254	3.22905
0.93382	3.35831
