Adsorption isotherm of Nitrogen on C33H26N2O8Rh2
DOI: 10.1021/Ja9091598
Adsorbate Nitrogen: InChIKey IJGRMHOSHXDMSA-UHFFFAOYSA-N
Temperature: 77 K
Tabular data in the source: 0
pressure (bar)	uptake (molecules/Rh2 unit)
2e-05	0.0306635
2.47e-05	0.210547
3.06e-05	0.467354
3.53e-05	0.698388
4.37e-05	0.980835
5.04e-05	1.21187
7.19e-05	1.41766
9.56e-05	1.64896
0.000146602	1.8036
0.000241343	1.95837
0.000426637	2.06199
0.000869633	2.11459
0.00165077	2.16706
0.00336484	2.21967
0.00685872	2.24663
0.0130195	2.27346
0.024714	2.30029
0.0503759	2.32725
0.102684	2.37986
0.224752	2.53516
0.426632	2.63891
0.754194	2.81946
1.00275	3.25588
1.07677	3.84576
