Adsorption isotherm of Argon on C32H24Cu2N2O8
DOI: 10.1021/Ja9091598
Adsorbate Argon: InChIKey XKRFYHLGVUSROY-UHFFFAOYSA-N
Temperature: 77 K
Tabular data in the source: 0
pressure (bar)	uptake (molecules/Cu2 unit)
0.000234994	0.0254777
0.000730071	0.0509554
0.00170842	0.0254777
0.00656464	0.0254777
0.0359479	0.0509554
0.0841207	0.0509554
0.261344	0.0254777
