Adsorption isotherm of Hydrogen on C32H24Cu2N2O8
DOI: 10.1021/Ja9091598
Adsorbate Hydrogen: InChIKey UFHFLCQGNIYNRP-UHFFFAOYSA-N
Temperature: 77 K
Tabular data in the source: 0
pressure (bar)	uptake (molecules/Cu2 unit)
0.000234994	0.025641
0.000902967	0.025641
0.00148271	0.0769231
0.0028053	0.153846
0.00530766	0.282051
0.0115708	0.538462
0.0177004	0.717949
0.0270765	0.923077
0.0334891	1.05128
0.0444614	1.25641
0.0590273	1.46154
0.078367	1.64103
0.119882	1.84615
0.159156	1.97436
0.243469	2.17949
0.346963	2.38462
0.611566	2.74359
0.704666	2.94872
1.00421	3.20513
