Adsorption isotherm of Hydrogen on C33H26Cu2N2O8
DOI: 10.1021/Ja9091598
Adsorbate Hydrogen: InChIKey UFHFLCQGNIYNRP-UHFFFAOYSA-N
Temperature: 77 K
Tabular data in the source: 0
pressure (bar)	uptake (molecules/Cu2 unit)
0.00170842	0
0.00494463	0.025641
0.0164897	0.0769231
0.0334891	0.102564
0.0633611	0.205128
0.111682	0.333333
0.170841	0.487179
0.243469	0.717949
0.372437	0.948718
0.530766	1.23077
0.704666	1.46154
1.00421	1.84615
