Adsorption isotherm of Oxygen on C33H26N2O8Rh2
DOI: 10.1021/Ja9091598
Adsorbate Oxygen: InChIKey MYMOFIZGZYHOMD-UHFFFAOYSA-N
Temperature: 77 K
Tabular data in the source: 0
pressure (bar)	uptake (molecules/Rh2 unit)
5.54e-06	0.0026434
6.86e-06	0.285091
7.91e-06	0.567407
8.49e-06	1.41369
9.12e-06	1.84972
1.05e-05	2.05511
1.21e-05	2.31179
1.73e-05	2.51758
3.06e-05	2.67248
5.04e-05	2.80161
8.91e-05	2.95652
0.000224754	3.08644
0.000458126	3.13904
0.000869633	3.16587
0.00165077	3.16706
0.00336484	3.19403
0.00685872	3.22099
0.0121246	3.24769
0.0150125	3.24808
0.0306001	3.24941
0.0580875	3.30188
0.0719222	3.32791
0.136525	3.40603
