Adsorption isotherm of Carbon Dioxide on C33H26N2O8Rh2
DOI: 10.1021/Ja9091598
Adsorbate Carbon Dioxide: InChIKey CURLTUGMZLYLDI-UHFFFAOYSA-N
Temperature: 195 K
Tabular data in the source: 0
pressure (bar)	uptake (molecules/Rh2 unit)
0.000654071	0.114063
0.00124158	0.217817
0.00235682	0.32157
0.00416628	0.425192
0.00685872	0.554322
0.0121246	0.683584
0.0199601	0.812715
0.0328589	0.993127
0.0503759	1.09648
0.0580875	2.40444
0.0890519	2.61036
0.157421	2.84219
0.259157	2.97132
0.491941	3.17764
0.93382	3.30703
1.15623	3.43563
