Adsorption isotherm of Oxygen on C32H24Cu2N2O8
DOI: 10.1021/Ja9091598
Adsorbate Oxygen: InChIKey MYMOFIZGZYHOMD-UHFFFAOYSA-N
Temperature: 77 K
Tabular data in the source: 0
pressure (bar)	uptake (molecules/Cu2 unit)
4.45e-06	0
5.9e-06	0
1.04e-05	0.179487
1.83e-05	0.307692
3.01e-05	0.333333
4.94e-05	0.358974
9.36e-05	0.461538
0.000153618	0.641026
0.000189998	1.07692
0.000252247	1.48718
0.000334891	1.71795
0.000512293	2.07692
0.000841207	2.25641
0.00159157	2.33333
0.00301127	2.33333
0.00494463	2.33333
0.0100421	2.33333
0.0385872	2.41026
0.0730067	2.48718
0.14827	2.58974
0.211302	2.89744
