Adsorption isotherm of Oxygen on C33H26Cu2N2O8
DOI: 10.1021/Ja9091598
Adsorbate Oxygen: InChIKey MYMOFIZGZYHOMD-UHFFFAOYSA-N
Temperature: 77 K
Tabular data in the source: 0
pressure (bar)	uptake (molecules/Cu2 unit)
2.43e-05	0
6.56e-05	0.0512821
0.000124203	0.179487
0.000189998	0.358974
0.000290646	0.538462
0.00038587	0.769231
0.000549905	0.948718
0.000783671	1.17949
0.00111681	1.38462
0.00148271	1.58974
0.00226815	1.74359
0.00399785	1.84615
0.00756396	1.92308
0.0133322	2
0.0270765	2.05128
0.0512298	2.10256
0.0902969	2.25641
0.159156	2.46154
0.170841	2.64103
0.211302	2.74359
