Adsorption isotherm of Hydrogen on C34H28N2O8Rh2
DOI: 10.1021/Ja9091598
Adsorbate Hydrogen: InChIKey UFHFLCQGNIYNRP-UHFFFAOYSA-N
Temperature: 77 K
Tabular data in the source: 0
pressure (bar)	uptake (molecules/Rh2 unit)
0.00143163	-0.0126883
0.00313355	-0.0112345
0.00638727	-0.00991277
0.0121246	0.0169178
0.0230151	-0.0075337
0.0406858	-0.00647634
0.0719222	0.020222
0.136525	0.0470526
0.278287	0.0483743
0.491941	0.100714
0.93382	0.204467
