Adsorption isotherm of Hydrogen on C33H26N2O8Rh2
DOI: 10.1021/Ja9091598
Adsorbate Hydrogen: InChIKey UFHFLCQGNIYNRP-UHFFFAOYSA-N
Temperature: 77 K
Tabular data in the source: 0
pressure (bar)	uptake (molecules/Rh2 unit)
5.41e-05	0.00687285
0.000110264	0.00819455
0.000344567	0.0359503
0.000933822	-0.0134814
0.00271757	0.0910653
0.00480401	0.143405
0.00790859	0.195612
0.0150125	0.273725
0.0284973	0.377478
0.046913	0.53225
0.0829303	0.840999
0.12714	1.02128
0.181519	1.25271
0.278287	1.45863
0.370001	1.66429
0.528254	1.89572
0.702349	2.12702
0.869627	2.3069
1.07677	2.56371
