Adsorption isotherm of Nitrogen on C33H26Cu2N2O8
DOI: 10.1021/Ja9091598
Adsorbate Nitrogen: InChIKey IJGRMHOSHXDMSA-UHFFFAOYSA-N
Temperature: 77 K
Tabular data in the source: 0
pressure (bar)	uptake (molecules/Cu2 unit)
1.59e-05	0
3.23e-05	0
6.56e-05	0
0.000133322	0
0.000252247	0
0.000512293	0
0.00104043	0
0.00183386	0
0.00372441	0
0.00756396	0
0.019	0
0.0385872	0
0.078367	0.025641
0.243469	0.0769231
0.429134	0.102564
0.704666	0.153846
1.07794	0.410256
