Adsorption isotherm of Nitrogen on C34H28N2O8Rh2
DOI: 10.1021/Ja9091598
Adsorbate Nitrogen: InChIKey IJGRMHOSHXDMSA-UHFFFAOYSA-N
Temperature: 77 K
Tabular data in the source: 0
pressure (bar)	uptake (molecules/Rh2 unit)
8.29e-05	0.00766587
0.000169043	0.00898758
0.000344567	0.0103093
0.000702347	0.011631
0.00133	0.0384615
0.00253078	0.01401
0.0051586	0.0153317
0.010515	0.0166534
0.0173102	0.0175786
0.0352844	0.0189003
0.0719222	0.020222
0.146603	0.0471848
0.278287	0.0483743
0.567248	0.075337
0.869627	0.127412
1.00275	0.691779
1.07677	0.307296
