Adsorption isotherm of Carbon Dioxide on MF-700
DOI: 10.1021/acs.jced.6b00604
Article source: Figure 1
Adsorbate Carbon Dioxide: InChIKey CURLTUGMZLYLDI-UHFFFAOYSA-N
Kind: experiment
Temperature: 373 K
Tabular data in the source: 0
pressure (bar)	uptake (mmol/g)
0.001985	0.005523
0.006636	0.015261
0.011853	0.02463
0.024771	0.045206
0.051847	0.080373
0.078227	0.109104
0.101643	0.130488
0.126429	0.154561
0.152748	0.1737
0.176363	0.189981
0.203276	0.209614
0.253727	0.238979
0.303799	0.268324
0.358754	0.296053
0.405692	0.315421
0.454817	0.33975
0.502015	0.359617
0.557952	0.38147
0.604222	0.401134
0.649242	0.413143
0.703698	0.429724
0.753523	0.442099
0.797162	0.455344
0.851386	0.469483
0.906936	0.487259
0.948717	0.500749
0.988113	0.516868
