Adsorption isotherm of Carbon Dioxide on MF-700
DOI: 10.1021/acs.jced.6b00604
Article source: Figure 1
Adsorbate Carbon Dioxide: InChIKey CURLTUGMZLYLDI-UHFFFAOYSA-N
Kind: experiment
Temperature: 303 K
Tabular data in the source: 0
pressure (bar)	uptake (mmol/g)
0.00472	0.070034
0.009779	0.123376
0.025175	0.229768
0.050885	0.351035
0.078132	0.435402
0.103989	0.491688
0.126054	0.549503
0.152801	0.591085
0.180201	0.629231
0.205053	0.667513
0.256901	0.720527
0.306321	0.77505
0.352425	0.820786
0.403791	0.85424
0.455708	0.890594
0.505891	0.930122
0.553932	0.957988
0.604862	0.993574
0.654164	1.01627
0.70263	1.03407
0.748491	1.06878
0.799533	1.07436
0.847065	1.08373
0.896162	1.11619
0.940322	1.13577
0.985318	1.15165
