Adsorption isotherm of Nitrogen on MF-700
DOI: 10.1021/acs.jced.6b00604
Article source: Figure 1
Adsorbate Nitrogen: InChIKey IJGRMHOSHXDMSA-UHFFFAOYSA-N
Kind: experiment
Temperature: 348 K
Tabular data in the source: 0
pressure (bar)	uptake (mmol/g)
0.015291	0.000474
0.030669	0.000913
0.056113	0.001725
0.081013	0.002679
0.106509	0.003572
0.157198	0.005489
0.20781	0.007369
0.258563	0.009275
0.308977	0.011097
0.358853	0.013255
0.413358	0.015461
0.459819	0.016997
0.512432	0.019167
0.559135	0.021252
0.611205	0.023403
0.662044	0.025513
0.714458	0.027391
0.765397	0.029509
0.812469	0.031362
0.86323	0.033387
0.912949	0.035185
0.95235	0.036334
0.981627	0.037776
