Adsorption isotherm of Carbon Dioxide on MF-700
DOI: 10.1021/acs.jced.6b00604
Article source: Figure 1
Adsorbate Carbon Dioxide: InChIKey CURLTUGMZLYLDI-UHFFFAOYSA-N
Kind: experiment
Temperature: 323 K
Tabular data in the source: 0
pressure (bar)	uptake (mmol/g)
0.005603	0.061879
0.011435	0.105085
0.026806	0.181614
0.051584	0.268114
0.076557	0.330796
0.102763	0.385558
0.127379	0.43014
0.153044	0.467444
0.178853	0.501349
0.206023	0.533937
0.253476	0.58479
0.303792	0.631728
0.358589	0.669391
0.406965	0.70152
0.457854	0.731139
0.497435	0.759906
0.549942	0.794182
0.597484	0.809655
0.653396	0.846175
0.719228	0.886788
0.762881	0.899104
0.80389	0.92423
0.858275	0.939658
0.892641	0.963252
0.936541	0.979332
0.989046	0.998412
