Adsorption isotherm of Nitrogen on MF-700
DOI: 10.1021/acs.jced.6b00604
Article source: Figure 1
Adsorbate Nitrogen: InChIKey IJGRMHOSHXDMSA-UHFFFAOYSA-N
Kind: experiment
Temperature: 303 K
Tabular data in the source: 0
pressure (bar)	uptake (mmol/g)
0.013686	0.001226
0.029369	0.002508
0.054346	0.004693
0.080907	0.007037
0.106056	0.009648
0.156804	0.014403
0.207461	0.019247
0.257856	0.02423
0.308146	0.028858
0.360651	0.033501
0.411487	0.038071
0.457695	0.042534
0.509104	0.046516
0.561057	0.051528
0.611205	0.055755
0.665069	0.0602
0.712864	0.065421
0.760565	0.069296
0.815242	0.072619
0.8618	0.077416
0.907834	0.081828
0.939911	0.084848
0.971956	0.088924
1.00163	0.093197
