Adsorption isotherm of Nitrogen on MF-700
DOI: 10.1021/acs.jced.6b00604
Article source: Figure 1
Adsorbate Nitrogen: InChIKey IJGRMHOSHXDMSA-UHFFFAOYSA-N
Kind: experiment
Temperature: 373 K
Tabular data in the source: 0
pressure (bar)	uptake (mmol/g)
0.01421	0.000323
0.030008	0.000572
0.055714	0.001217
0.081329	0.001814
0.107317	0.00251
0.157234	0.00373
0.207858	0.005075
0.260529	0.00628
0.310754	0.007694
0.358853	0.008575
0.411345	0.009641
0.4602	0.010566
0.511277	0.012137
0.563452	0.013502
0.614507	0.014957
0.663264	0.016219
0.713406	0.017739
0.772692	0.018869
0.815881	0.019649
0.864463	0.020946
0.912781	0.021488
0.948302	0.022138
0.97386	0.022712
0.997807	0.023854
