Adsorption isotherm of Carbon Dioxide on MF-700
DOI: 10.1021/acs.jced.6b00604
Article source: Figure 1
Adsorbate Carbon Dioxide: InChIKey CURLTUGMZLYLDI-UHFFFAOYSA-N
Kind: experiment
Temperature: 348 K
Tabular data in the source: 0
pressure (bar)	uptake (mmol/g)
0.001404	0.008257
0.005131	0.025532
0.010136	0.044039
0.026131	0.089609
0.050728	0.143094
0.078827	0.192646
0.103774	0.223532
0.129076	0.260795
0.155721	0.289561
0.179059	0.316228
0.202333	0.334126
0.252771	0.379245
0.302752	0.408207
0.353815	0.445502
0.404992	0.476727
0.45719	0.504592
0.505506	0.529444
0.554098	0.553095
0.611585	0.572783
0.66116	0.597063
0.718483	0.621012
0.7581	0.63891
0.809667	0.657325
0.855809	0.67627
0.912445	0.686689
0.956129	0.709578
0.998451	0.718936
