Adsorption isotherm of Nitrogen on MF-700
DOI: 10.1021/acs.jced.6b00604
Article source: Figure 1
Adsorbate Nitrogen: InChIKey IJGRMHOSHXDMSA-UHFFFAOYSA-N
Kind: experiment
Temperature: 323 K
Tabular data in the source: 0
pressure (bar)	uptake (mmol/g)
0.015262	0.000889
0.030591	0.001675
0.055695	0.003154
0.080926	0.00471
0.106377	0.006207
0.156717	0.00916
0.206413	0.012484
0.25801	0.015795
0.306794	0.018906
0.357822	0.022041
0.410163	0.025263
0.459395	0.028466
0.512763	0.031331
0.561186	0.034931
0.612755	0.037716
0.663677	0.040463
0.712208	0.043691
0.76427	0.046975
0.806969	0.0504
0.863986	0.053613
0.905934	0.056427
0.947756	0.058884
0.9733	0.060669
0.997233	0.06291
