Adsorption isotherm of Nitrogen on ZIF-8
DOI: 10.1016/j.ultsonch.2017.04.030
Article source: Figure 4a
Adsorbate Nitrogen: InChIKey IJGRMHOSHXDMSA-UHFFFAOYSA-N
Kind: experiment
Temperature: 77 K
Tabular data in the source: 0
pressure (bar)	uptake (cm3(STP)/g)
0.000507	137.24
0.00075	97.59
0.001115	178.62
0.002523	218.3
0.004762	265.6
0.02068	300.8
0.030225	328.16
0.042637	345.32
0.059811	343.87
0.078748	348.18
0.124232	350.46
0.168298	353.63
0.2351	354.32
0.253551	355.53
0.350263	358.04
0.450148	360.55
0.455872	358.79
0.552585	363.66
0.557672	363.07
0.662014	367.36
0.663291	369.73
0.760004	371.65
0.793724	380.56
0.850353	383.6
0.894885	402
0.923519	407.36
0.937521	428.66
0.955344	445.83
0.961079	473.63
0.96808	510.29
0.972529	476.6
0.97573	544
0.981465	584.8
0.983998	529.23
0.985295	629.14
0.987828	576.53
0.99103	677.63
0.992925	622.06
0.994222	707.78
0.99485	665.22
0.999947	704.83
1.00187	749.77
