Adsorption isotherm of Nitrogen on APTMS@ZIF-8
DOI: 10.1016/j.ultsonch.2017.04.030
Article source: Figure 4a
Adsorbate Nitrogen: InChIKey IJGRMHOSHXDMSA-UHFFFAOYSA-N
Kind: experiment
Temperature: 77 K
Tabular data in the source: 0
pressure (bar)	uptake (cm3(STP)/g)
0.002199	46.18
0.003171	77.35
0.003901	107.83
0.007164	131.51
0.024551	159.9
0.040691	179.37
0.060135	174.71
0.070987	182.7
0.133108	178.81
0.153808	183.76
0.227278	186.45
0.254554	181.33
0.330951	185.63
0.376759	182.45
0.422568	186.36
0.482054	184.38
0.521824	187.39
0.583539	183.34
0.622924	189.14
0.691611	185.49
0.725442	188.35
0.790076	187.51
0.826431	189.9
0.890568	188.12
0.934492	196.63
0.969843	196.68
0.977392	219.66
0.993016	250.63
0.997565	245.01
1.00358	284.4
