Adsorption isotherm of Methane on (OH)2-MIL-53(Al)
DOI: 10.1021/Cg100646e
Adsorbate Methane: InChIKey VNWKTOKETHGBQD-UHFFFAOYSA-N
Temperature: 303 K
Tabular data in the source: 0
pressure (bar)	uptake (molecules/unitcell)
0.185	0.0769231
0.2075	0.0769231
0.2325	0.115385
0.365	0.423077
0.49875	0.653846
