Adsorption isotherm of Carbon Dioxide on NH2-MIL-53(Al)
DOI: 10.1021/Cg100646e
Adsorbate Carbon Dioxide: InChIKey CURLTUGMZLYLDI-UHFFFAOYSA-N
Temperature: 303 K
Tabular data in the source: 0
pressure (bar)	uptake (molecules/unitcell)
0.18625	0.307692
0.20625	0.807692
0.2325	1.34615
0.36625	3.73077
0.5	5
