Adsorption isotherm of Carbon Dioxide on (OH)2-MIL-53(Al)
DOI: 10.1021/Cg100646e
Adsorbate Carbon Dioxide: InChIKey CURLTUGMZLYLDI-UHFFFAOYSA-N
Temperature: 303 K
Tabular data in the source: 0
pressure (bar)	uptake (molecules/unitcell)
0.1725	0.192308
0.18625	0.653846
0.2075	1.38462
0.2325	2.30769
0.36625	4.76923
0.49875	5.84615
