Adsorption isotherm of Carbon Dioxide on MIL-53(Al)
DOI: 10.1021/Cg100646e
Adsorbate Carbon Dioxide: InChIKey CURLTUGMZLYLDI-UHFFFAOYSA-N
Temperature: 303 K
Tabular data in the source: 0
pressure (bar)	uptake (molecules/unitcell)
0.1875	0.230769
0.2075	0.5
0.2325	0.807692
0.36625	2.61538
0.5	3.92308
