Adsorption isotherm of Methane on (CH3)2-MIL-53(Al)
DOI: 10.1021/Cg100646e
Adsorbate Methane: InChIKey VNWKTOKETHGBQD-UHFFFAOYSA-N
Temperature: 303 K
Tabular data in the source: 0
pressure (bar)	uptake (molecules/unitcell)
0.17375	0.0384615
0.18625	0.0384615
0.2075	0.0769231
0.23375	0.115385
0.36625	0.230769
0.5	0.384615
