Adsorption isotherm of Carbon Dioxide on (CH3)2-MIL-53(Al)
DOI: 10.1021/Cg100646e
Adsorbate Carbon Dioxide: InChIKey CURLTUGMZLYLDI-UHFFFAOYSA-N
Temperature: 303 K
Tabular data in the source: 0
pressure (bar)	uptake (molecules/unitcell)
0.18875	0.192308
0.2075	0.461538
0.23375	0.692308
0.36625	1.5
0.49875	2.03846
