Adsorption isotherm of Carbon Dioxide on Al-MIL-53-COOH
DOI: 10.1021/Cg100646e
Adsorbate Carbon Dioxide: InChIKey CURLTUGMZLYLDI-UHFFFAOYSA-N
Temperature: 303 K
Tabular data in the source: 0
pressure (bar)	uptake (molecules/unitcell)
0.1725	0.307692
0.20625	1.15385
0.2325	1.65385
0.36625	3.26923
0.49875	3.96154
