Adsorption isotherm of Carbon Dioxide on MOF-74-Co
DOI: 10.1021/Jz3008485
Adsorbate Carbon Dioxide: InChIKey CURLTUGMZLYLDI-UHFFFAOYSA-N
Temperature: 298 K
Tabular data in the source: 0
pressure (bar)	uptake (mmol/g)
0.0498937	0.497114
0.0681408	0.635202
0.087624	0.911376
0.11074	1.1047
0.121688	1.18755
0.132641	1.29802
0.158203	1.60181
0.169152	1.68467
0.180104	1.79513
0.191057	1.9056
0.208114	2.2094
0.21905	2.2094
0.230006	2.34748
0.240959	2.45795
0.261649	2.67889
0.272593	2.73413
0.283545	2.8446
0.306665	3.06554
0.316398	3.14839
0.328566	3.25886
0.339518	3.36933
0.360208	3.59027
0.371148	3.61789
0.383311	3.70074
0.394255	3.75597
0.407651	3.9493
0.418595	4.00453
0.429547	4.115
0.441711	4.19785
0.462392	4.36356
0.474551	4.41879
0.485499	4.50165
0.511045	4.69497
0.521985	4.72259
0.534148	4.80544
0.545092	4.86067
0.560905	4.97114
0.573064	5.02638
0.584008	5.08161
0.609563	5.33017
0.619271	5.24732
0.630215	5.30255
0.661832	5.46826
0.673991	5.52349
0.684935	5.57873
0.715337	5.74443
0.727496	5.79967
0.73844	5.8549
0.761547	5.99299
0.773702	6.02061
0.785857	6.04822
0.812601	6.13108
0.82476	6.18631
0.8357	6.21393
0.861233	6.3244
0.873388	6.35202
0.885543	6.37963
0.912287	6.46249
0.924442	6.4901
0.935386	6.54534
0.960911	6.60057
0.97307	6.65581
0.98401	6.68343
1.00224	6.73866
