Adsorption isotherm of Carbon Dioxide on Pd(2-pymo)2
DOI: 10.1021/Jz3008485
Adsorbate Carbon Dioxide: InChIKey CURLTUGMZLYLDI-UHFFFAOYSA-N
Temperature: 298 K
Tabular data in the source: 0
pressure (bar)	uptake (mmol/g)
0.0532883	0.0591288
0.100534	0.0946061
0.151407	0.141909
0.20228	0.189212
0.250729	0.236515
0.304026	0.283818
0.350087	0.283818
0.39973	0.354773
0.449409	0.378425
0.501512	0.402076
0.552385	0.449379
0.600843	0.484856
0.650522	0.508508
0.700201	0.53216
0.74864	0.591288
0.800743	0.61494
0.851635	0.638591
0.897695	0.638591
0.948568	0.685894
0.998247	0.709546
