Adsorption isotherm of Carbon Dioxide on MOF-74-Co
DOI: 10.1021/Jz3008485
Adsorbate Carbon Dioxide: InChIKey CURLTUGMZLYLDI-UHFFFAOYSA-N
Temperature: 298 K
Tabular data in the source: 0
pressure (bar)	uptake (mmol/g)
0.0486955	0.607584
0.071824	0.883759
0.085215	1.04946
0.0998211	1.21517
0.110778	1.35326
0.12173	1.46373
0.132687	1.60181
0.158246	1.87799
0.167987	2.01607
0.178944	2.15416
0.189901	2.29225
0.208165	2.54081
0.219121	2.67889
0.230074	2.78936
0.24103	2.92745
0.248338	3.03792
0.25929	3.14839
0.270243	3.25886
0.281195	3.36933
0.292143	3.45218
0.303096	3.56265
0.309184	3.6455
0.320132	3.72836
0.3323	3.83883
0.359069	4.08738
0.370017	4.17024
0.382181	4.25309
0.393125	4.30832
0.402862	4.41879
0.410165	4.50165
0.422324	4.55688
0.433277	4.66735
0.460034	4.83306
0.472193	4.88829
0.483141	4.97114
0.509898	5.13685
0.522057	5.19208
0.533005	5.27493
0.559758	5.41302
0.571917	5.46826
0.582861	5.52349
0.609609	5.63396
0.621768	5.6892
0.632712	5.74443
0.660676	5.8549
0.672831	5.88252
0.683775	5.93775
0.710519	6.02061
0.722678	6.07584
0.733618	6.10346
0.761577	6.18631
0.773736	6.24155
0.784676	6.26916
0.812635	6.35202
0.824794	6.40725
0.835734	6.43487
0.861263	6.51772
0.873422	6.57296
0.884366	6.62819
0.912325	6.71104
0.92448	6.73866
0.936635	6.76628
0.960945	6.82151
0.9731	6.84913
0.98525	6.84913
