Adsorption isotherm of Carbon Dioxide on MIL-47
DOI: 10.1021/Jz3008485
Adsorbate Carbon Dioxide: InChIKey CURLTUGMZLYLDI-UHFFFAOYSA-N
Temperature: 298 K
Tabular data in the source: 0
pressure (bar)	uptake (mmol/g)
0.145318	0.384818
0.203423	0.600715
0.251865	0.721043
0.302697	0.936766
0.349944	1.0094
0.377772	1.15307
0.400768	1.24895
0.409236	1.29683
0.429808	1.39265
0.458865	1.48869
0.484302	1.53696
0.514554	1.68069
0.538762	1.77661
0.561758	1.87249
0.587204	1.89693
0.6102	1.99282
0.621084	2.06458
0.633188	2.11254
0.647691	2.23206
0.659804	2.25618
0.671925	2.25647
0.684037	2.2806
0.698557	2.35245
0.709458	2.37654
0.721562	2.4245
0.732446	2.49626
0.75907	2.61607
0.771182	2.64019
0.782074	2.68812
0.799018	2.76003
0.808707	2.78409
0.820819	2.80822
0.831712	2.85615
0.858344	2.95212
0.870448	3.00008
0.88134	3.04801
0.909176	3.16784
0.921289	3.19197
0.932181	3.2399
0.958814	3.33587
0.970918	3.38383
0.98181	3.43176
0.998754	3.50366
