Adsorption isotherm of Carbon Dioxide on ZIF-8
DOI: 10.1021/Jz3008485
Adsorbate Carbon Dioxide: InChIKey CURLTUGMZLYLDI-UHFFFAOYSA-N
Temperature: 298 K
Tabular data in the source: 0
pressure (bar)	uptake (mmol/g)
0.0487145	5.19621
0.0937749	9.95923
0.146143	15.5886
0.197278	19.4794
0.248421	24.2398
0.300785	29.4344
0.348274	33.7616
0.401864	39.8253
0.450552	42.4128
0.500487	48.0433
0.549184	51.5004
0.650262	61.8912
0.701406	66.6516
0.750107	70.5434
0.80248	76.6076
0.85242	82.6729
0.898697	87.4353
0.95226	90.8903
0.999758	96.0871
