Adsorption isotherm of Carbon Dioxide on Pd(2-pymo)2
DOI: 10.1021/Jz3008485
Adsorbate Carbon Dioxide: InChIKey CURLTUGMZLYLDI-UHFFFAOYSA-N
Temperature: 298 K
Tabular data in the source: 0
pressure (bar)	uptake (mmol/g)
0.0557035	0.0709546
0.0750704	0.106432
0.100498	0.141909
0.151344	0.22469
0.176771	0.260167
0.202199	0.295644
0.251833	0.378425
0.27243	0.39025
0.301512	0.402076
0.349952	0.461205
0.372955	0.496682
0.400834	0.496682
0.449282	0.543985
0.501368	0.591288
0.549816	0.638591
0.599477	0.685894
0.650368	0.709546
0.701241	0.756849
0.749708	0.780501
0.800572	0.839629
0.823576	0.875107
0.850242	0.875107
0.899912	0.910584
0.916873	0.92241
0.948388	0.92241
0.975037	0.946061
0.999279	0.946061
