Adsorption isotherm of Carbon Dioxide on MOF-74-Co
DOI: 10.1021/Jz3008485
Adsorbate Carbon Dioxide: InChIKey CURLTUGMZLYLDI-UHFFFAOYSA-N
Temperature: 298 K
Tabular data in the source: 0
pressure (bar)	uptake (mmol/g)
0.048628	0.165705
0.0984879	0.441879
0.126451	0.552349
0.151989	0.690436
0.172653	0.745671
0.200621	0.883759
0.212772	0.883759
0.224931	0.938994
0.235875	0.994229
0.262627	1.13232
0.274787	1.18755
0.285731	1.24279
0.313702	1.40849
0.325857	1.43611
0.336801	1.49134
0.362335	1.60181
0.374494	1.65705
0.385438	1.71228
0.40976	1.85037
0.421919	1.9056
0.432863	1.96084
0.443812	2.04369
0.455962	2.04369
0.466906	2.09893
0.479065	2.15416
0.49122	2.18178
0.502164	2.23701
0.514323	2.29225
0.525267	2.34748
0.537427	2.40272
0.548375	2.48557
0.56053	2.51319
0.571474	2.56842
0.583633	2.62366
0.594581	2.70651
0.606736	2.73413
0.617684	2.81698
0.629843	2.87222
0.640787	2.92745
0.652947	2.98269
0.663891	3.03792
0.674835	3.09316
0.686994	3.14839
0.697938	3.20363
0.710093	3.23124
0.722248	3.25886
0.733192	3.3141
0.745351	3.36933
0.757501	3.36933
0.76845	3.45218
0.779398	3.53503
0.791565	3.6455
0.802505	3.67312
0.813449	3.72836
0.825604	3.75597
0.837763	3.81121
0.848703	3.83883
0.859643	3.86644
0.871802	3.92168
0.882746	3.97691
0.893694	4.05977
0.905849	4.08738
0.916789	4.115
0.928948	4.17024
0.941107	4.22547
0.952051	4.28071
0.964206	4.30832
0.976365	4.36356
0.987305	4.39118
0.999464	4.44641
