Adsorption isotherm of Carbon Dioxide on CuBTC
DOI: 10.1021/Jz3008485
Adsorbate Carbon Dioxide: InChIKey CURLTUGMZLYLDI-UHFFFAOYSA-N
Temperature: 298 K
Tabular data in the source: 0
pressure (bar)	uptake (mmol/g)
0.0521295	0.257173
0.101862	0.375359
0.151589	0.513406
0.202535	0.631568
0.249844	0.729939
0.302016	0.788489
0.351752	0.886813
0.39907	0.945459
0.451238	1.02387
0.498551	1.10238
0.553154	1.14102
0.602895	1.21948
0.650217	1.25827
0.701175	1.31684
0.750916	1.3953
0.801878	1.43401
0.851623	1.49261
0.901359	1.59094
0.951117	1.58995
0.999652	1.62871
