Adsorption isotherm of Carbon Dioxide on Mg-MOF-74
DOI: 10.1021/Jz3008485
Adsorbate Carbon Dioxide: InChIKey CURLTUGMZLYLDI-UHFFFAOYSA-N
Temperature: 298 K
Tabular data in the source: 0
pressure (bar)	uptake (mmol/g)
0.0534359	0.201977
0.0655821	0.235639
0.0777283	0.269302
0.0886594	0.302965
0.116574	0.538604
0.128721	0.572267
0.139647	0.639593
0.163935	0.740581
0.176077	0.807906
0.187008	0.841569
0.211291	0.97622
0.223433	1.04355
0.234359	1.11087
0.262283	1.27919
0.27443	1.31285
0.285356	1.38017
0.31207	1.51482
0.324211	1.58215
0.335138	1.64948
0.364277	1.81779
0.376419	1.88511
0.387345	1.95244
0.411629	2.08709
0.42377	2.15442
0.434697	2.22174
0.46141	2.35639
0.473552	2.42372
0.484483	2.45738
0.512407	2.6257
0.524549	2.69302
0.535475	2.76035
0.552464	2.92866
0.562184	2.92866
0.574326	2.99599
0.585253	3.06331
0.608316	3.23163
0.618037	3.23163
0.630179	3.29895
0.662954	3.53459
0.675096	3.60192
0.686022	3.66924
0.711521	3.80389
0.723662	3.87122
0.734593	3.90488
0.761307	4.03953
0.773449	4.10686
0.784375	4.17418
0.812304	4.30883
0.824445	4.37616
0.835376	4.40982
0.848729	4.51081
0.8633	4.57814
0.875442	4.64546
0.886369	4.71279
0.899721	4.81378
0.911867	4.84744
0.924013	4.8811
0.93494	4.94843
0.950722	5.04941
0.961653	5.08308
0.973795	5.1504
0.984722	5.21773
1.0005	5.31872
