Adsorption isotherm of Carbon Dioxide on Mg-MOF-74
DOI: 10.1021/Jz3008485
Adsorbate Carbon Dioxide: InChIKey CURLTUGMZLYLDI-UHFFFAOYSA-N
Temperature: 298 K
Tabular data in the source: 0
pressure (bar)	uptake (mmol/g)
0.0522344	0.100988
0.100819	0.235639
0.153044	0.403953
0.160339	0.37029
0.172481	0.437616
0.183412	0.471279
0.212565	0.538604
0.224711	0.572267
0.235642	0.60593
0.246573	0.639593
0.258724	0.639593
0.27087	0.673255
0.283016	0.706918
0.293943	0.774244
0.306093	0.774244
0.31824	0.807906
0.330386	0.841569
0.341312	0.908895
0.353458	0.942557
0.364394	0.942557
0.37654	0.97622
0.388686	1.00988
0.399613	1.07721
0.411764	1.07721
0.42391	1.11087
0.434841	1.14453
0.446987	1.1782
0.459138	1.1782
0.471284	1.21186
0.483426	1.27919
0.493137	1.34651
0.505288	1.34651
0.516219	1.38017
0.528365	1.41384
0.539296	1.4475
0.551442	1.48116
0.563593	1.48116
0.574524	1.51482
0.58667	1.54849
0.597597	1.61581
0.608532	1.61581
0.620679	1.64948
0.63161	1.68314
0.643751	1.75046
0.655902	1.75046
0.668048	1.78413
0.680194	1.81779
0.691121	1.88511
0.702057	1.88511
0.712992	1.88511
0.725134	1.95244
0.736065	1.9861
0.748211	2.01977
0.760362	2.01977
0.772503	2.08709
0.783435	2.12075
0.795576	2.18808
0.805297	2.18808
0.817443	2.22174
0.829594	2.22174
0.840525	2.25541
0.852671	2.28907
0.864817	2.32273
0.876963	2.35639
0.887894	2.39006
0.898821	2.45738
0.908541	2.45738
0.920688	2.49104
0.932838	2.49104
0.943765	2.55837
0.955916	2.55837
0.968062	2.59203
0.980208	2.6257
0.991135	2.69302
1.00085	2.76035
