Adsorption isotherm of Carbon Dioxide on MIL-47
DOI: 10.1021/Jz3008485
Adsorbate Carbon Dioxide: InChIKey CURLTUGMZLYLDI-UHFFFAOYSA-N
Temperature: 298 K
Tabular data in the source: 0
pressure (bar)	uptake (mmol/g)
0.0496203	0.215695
0.104114	0.360001
0.153752	0.528027
0.200956	0.719829
0.251805	0.887884
0.269953	0.983655
0.301426	1.10358
0.317166	1.15162
0.32927	1.19958
0.364362	1.36726
0.376475	1.39138
0.387367	1.43931
0.413991	1.55912
0.426104	1.58324
0.436996	1.63117
0.46362	1.75098
0.475724	1.79894
0.486624	1.82303
0.513248	1.94284
0.525344	2.01463
0.536236	2.06256
0.544679	2.18194
0.555588	2.1822
0.5677	2.20632
0.578584	2.27808
0.589476	2.32601
0.604013	2.35019
0.612464	2.44573
0.623356	2.49366
0.635451	2.56545
0.648742	2.68494
0.669314	2.78077
0.697159	2.87677
0.724978	3.04428
0.751594	3.18792
0.772166	3.28375
0.797586	3.3797
0.823006	3.47564
0.848427	3.57158
0.871423	3.66747
0.901692	3.76353
0.925909	3.83561
0.950117	3.93153
0.97552	4.07514
1.00092	4.24259
