Adsorption isotherm of Carbon Dioxide on CuBTC
DOI: 10.1021/Jz3008485
Adsorbate Carbon Dioxide: InChIKey CURLTUGMZLYLDI-UHFFFAOYSA-N
Temperature: 298 K
Tabular data in the source: 0
pressure (bar)	uptake (mmol/g)
0.0484718	0.336695
0.100606	0.574006
0.14791	0.692239
0.203689	0.909616
0.248546	1.12721
0.298269	1.28512
0.350437	1.36353
0.401374	1.52142
0.447465	1.63968
0.497185	1.81745
0.548134	1.91575
0.597875	1.99421
0.650026	2.15207
0.698544	2.27028
0.748259	2.46791
0.799213	2.54635
0.848941	2.6844
0.898686	2.743
0.950828	2.94058
0.999355	3.01907
