Adsorption isotherm of Carbon Dioxide on IRMOF-1
DOI: 10.1021/Jz3008485
Adsorbate Carbon Dioxide: InChIKey CURLTUGMZLYLDI-UHFFFAOYSA-N
Temperature: 298 K
Tabular data in the source: 0
pressure (bar)	uptake (mmol/g)
0.0473301	1.74216
0.0995146	3.13589
0.149272	5.57491
0.200243	8.01394
0.25	9.7561
0.300971	11.4983
0.349515	13.5889
0.400485	14.9826
0.449029	17.0732
0.5	18.4669
0.552184	20.5575
0.599515	23.3449
0.650485	24.7387
0.699029	26.1324
0.748786	28.223
0.802184	29.9652
0.851942	33.7979
0.902913	34.1463
0.949029	37.2822
1	40.0697
