Adsorption isotherm of Carbon Dioxide on IRMOF-1
DOI: 10.1021/Jz3008485
Adsorbate Carbon Dioxide: InChIKey CURLTUGMZLYLDI-UHFFFAOYSA-N
Temperature: 298 K
Tabular data in the source: 0
pressure (bar)	uptake (mmol/g)
0.0533981	1.0453
0.101942	2.43902
0.151699	4.52962
0.199029	5.57491
0.248786	7.31707
0.29733	8.7108
0.351942	10.8014
0.400485	11.4983
0.450243	13.5889
0.502427	14.6341
0.550971	16.3763
0.600728	18.8153
0.650485	20.5575
0.700243	20.9059
0.751214	22.9965
0.799757	24.7387
0.849515	26.1324
0.899272	27.8746
0.951456	29.6167
1	30.662
