Adsorption isotherm of Carbon Dioxide on IRMOF-1
DOI: 10.1021/Jz3008485
Adsorbate Carbon Dioxide: InChIKey CURLTUGMZLYLDI-UHFFFAOYSA-N
Temperature: 298 K
Tabular data in the source: 0
pressure (bar)	uptake (mmol/g)
0.0509709	4.52962
0.0703883	6.27178
0.0995146	8.7108
0.123786	11.1498
0.150485	12.892
0.175971	14.9826
0.201456	16.0279
0.223301	18.1185
0.25	20.5575
0.274272	21.2544
0.300971	22.6481
0.32767	26.4808
0.350728	29.6167
0.373786	32.4042
0.400485	35.8885
0.42233	36.2369
0.451456	35.8885
0.478155	39.3728
0.5	42.1603
0.524272	43.2056
0.549757	44.5993
0.575243	46.6899
0.601942	49.1289
0.623786	51.9164
0.650485	55.0523
0.677184	55.4007
0.700243	55.4007
0.723301	57.4913
0.75	60.2787
0.774272	63.7631
0.800971	67.2474
0.82767	68.2927
0.849515	68.9895
0.877427	70.3833
0.900485	71.4286
0.924757	74.5645
0.950243	77.7003
0.980583	77.7003
1	78.3972
