Adsorption isotherm of Carbon Dioxide on Zn-MOF-74
DOI: 10.1021/Jz3008485
Adsorbate Carbon Dioxide: InChIKey CURLTUGMZLYLDI-UHFFFAOYSA-N
Temperature: 298 K
Tabular data in the source: 0
pressure (bar)	uptake (mmol/g)
0.0497966	0.138551
0.0619388	0.193971
0.0740852	0.221682
0.0862316	0.249392
0.11052	0.332523
0.122671	0.332523
0.133602	0.360233
0.160321	0.443363
0.172472	0.443363
0.183403	0.471074
0.194326	0.554204
0.210122	0.554204
0.222273	0.554204
0.2332	0.609625
0.245342	0.665045
0.258708	0.665045
0.27085	0.720465
0.281781	0.748176
0.293928	0.775886
0.309715	0.831306
0.321861	0.859016
0.334008	0.886727
0.359512	0.969857
0.371658	0.997568
0.383804	1.02528
0.409308	1.10841
0.421455	1.13612
0.432382	1.19154
0.459101	1.27467
0.471243	1.33009
0.482174	1.3578
0.494316	1.41322
0.510104	1.46864
0.52225	1.49635
0.534397	1.52406
0.5599	1.60719
0.572047	1.6349
0.584193	1.66261
0.608482	1.74574
0.620624	1.80116
0.631555	1.82887
0.643698	1.88429
0.6607	1.93971
0.672846	1.96742
0.683774	2.02285
0.710492	2.10598
0.722639	2.13369
0.733566	2.18911
0.7615	2.27224
0.773646	2.29995
0.785793	2.32766
0.810081	2.41079
0.822223	2.46621
0.833155	2.49392
0.859869	2.60476
0.872016	2.63247
0.884162	2.66018
0.909666	2.74331
0.921808	2.79873
0.932739	2.82644
0.960669	2.93728
0.97282	2.93728
0.984966	2.96499
1.00075	3.02041
