Adsorption isotherm of Carbon Dioxide on MOF-74-Co
DOI: 10.1021/Jz3008485
Adsorbate Carbon Dioxide: InChIKey CURLTUGMZLYLDI-UHFFFAOYSA-N
Temperature: 298 K
Tabular data in the source: 0
pressure (bar)	uptake (mmol/g)
0.0498346	0.11047
0.0692715	0.0828524
0.0814264	0.11047
0.111811	0.165705
0.123966	0.193322
0.134906	0.22094
0.160427	0.248557
0.171367	0.276175
0.183517	0.276175
0.195672	0.303792
0.205393	0.303792
0.217548	0.33141
0.229702	0.359027
0.240642	0.386644
0.251578	0.386644
0.263729	0.386644
0.275883	0.414262
0.288038	0.441879
0.298974	0.441879
0.309914	0.469497
0.322064	0.469497
0.331789	0.497114
0.343944	0.524732
0.356095	0.524732
0.36825	0.552349
0.3804	0.552349
0.392555	0.579967
0.403491	0.579967
0.414431	0.607584
0.42537	0.635202
0.43631	0.662819
0.448465	0.690436
0.459401	0.690436
0.471551	0.690436
0.483706	0.718054
0.495861	0.745671
0.508012	0.745671
0.518952	0.773289
0.531102	0.773289
0.542046	0.828524
0.554197	0.828524
0.566352	0.856141
0.578507	0.883759
0.590657	0.883759
0.602812	0.911376
0.613752	0.938994
0.625903	0.938994
0.638058	0.966611
0.650213	0.994229
0.661148	0.994229
0.673303	1.02185
0.684239	1.02185
0.696398	1.07708
0.707333	1.07708
0.719484	1.07708
0.730424	1.1047
0.742583	1.15993
0.751088	1.15993
0.762024	1.15993
0.772964	1.18755
0.785115	1.18755
0.797274	1.24279
0.808209	1.24279
0.82036	1.24279
0.8313	1.2704
0.843455	1.29802
0.85439	1.29802
0.866545	1.32564
0.877481	1.32564
0.889636	1.35326
0.901791	1.38087
0.913941	1.38087
0.924881	1.40849
0.937036	1.43611
0.949187	1.43611
0.961337	1.43611
0.972277	1.46373
0.983217	1.49134
0.994157	1.51896
1.00023	1.49134
