Adsorption isotherm of Carbon Dioxide on Pd(2-pymo)2
DOI: 10.1021/Jz3008485
Adsorbate Carbon Dioxide: InChIKey CURLTUGMZLYLDI-UHFFFAOYSA-N
Temperature: 298 K
Tabular data in the source: 0
pressure (bar)	uptake (mmol/g)
0.0413879	1.35996
0.0535001	1.37179
0.063188	1.38361
0.0728399	1.44274
0.083722	1.47822
0.0921528	1.54918
0.104274	1.54918
0.115156	1.58465
0.126047	1.6083
0.138141	1.64378
0.147811	1.67926
0.159932	1.67926
0.168372	1.73839
0.179245	1.78569
0.190118	1.83299
0.198567	1.8803
0.210688	1.8803
0.22281	1.8803
0.234922	1.89212
0.247043	1.89212
0.259164	1.89212
0.267613	1.93943
0.279707	1.9749
0.289377	2.01038
0.300268	2.03403
0.312389	2.03403
0.324511	2.03403
0.336632	2.03403
0.348753	2.03403
0.360874	2.03403
0.368084	2.11681
0.380169	2.16412
0.38983	2.21142
0.3995	2.2469
0.411621	2.2469
0.423733	2.25872
0.434633	2.27055
0.446746	2.28237
0.458867	2.28237
0.468519	2.3415
0.479401	2.37698
0.489053	2.43611
0.498741	2.44793
0.510853	2.45976
0.522965	2.47159
0.533865	2.48341
0.545968	2.50706
0.558089	2.50706
0.56899	2.51889
0.581111	2.51889
0.593214	2.54254
0.605335	2.54254
0.616244	2.54254
0.628356	2.55437
0.640469	2.56619
0.65259	2.56619
0.661039	2.61349
0.673142	2.63715
0.684015	2.68445
0.692473	2.71993
0.704594	2.71993
0.716706	2.73175
0.728818	2.74358
0.74093	2.7554
0.753052	2.7554
0.763952	2.76723
0.776055	2.79088
0.786946	2.81453
0.799058	2.82636
0.809949	2.85001
0.822062	2.86184
0.832953	2.88549
0.843844	2.90914
0.855965	2.90914
0.866865	2.92096
0.878986	2.92096
0.889886	2.93279
0.902007	2.93279
0.91412	2.94462
0.926232	2.95644
0.938344	2.96827
0.949244	2.98009
0.961347	3.00374
0.972247	3.01557
0.984351	3.03922
0.995242	3.06287
