Adsorption isotherm of Carbon Dioxide on UMCM-150
DOI: 10.1021/Jz3008485
Adsorbate Carbon Dioxide: InChIKey CURLTUGMZLYLDI-UHFFFAOYSA-N
Temperature: 298 K
Tabular data in the source: 0
pressure (bar)	uptake (mmol/g)
0.0475133	0.178048
0.0986763	0.356097
0.151051	0.522275
0.19856	0.688454
0.248497	0.842762
0.299651	0.997071
0.316692	1.02081
0.328871	1.05642
0.339834	1.09203
0.352017	1.13951
0.364192	1.16325
0.376366	1.18699
0.387329	1.2226
0.415341	1.30569
0.426304	1.3413
0.438483	1.37691
0.464062	1.46
0.476241	1.49561
0.487204	1.53122
0.501816	1.56683
0.513999	1.61431
0.524962	1.64992
0.537141	1.68552
0.545679	1.74487
0.563937	1.76861
0.574899	1.80422
0.587074	1.82796
0.596824	1.87544
0.607773	1.87544
0.616307	1.92292
0.627274	1.9704
0.639453	2.00601
0.647992	2.06536
0.660157	2.06536
0.667475	2.11284
0.678442	2.16032
0.689409	2.2078
0.697947	2.26715
0.710113	2.26715
0.719859	2.30276
0.732033	2.3265
0.741784	2.37398
0.752737	2.38585
0.764907	2.39772
0.775874	2.4452
0.786832	2.46894
0.796583	2.51642
0.808748	2.51642
0.817282	2.5639
0.828249	2.61138
0.839212	2.64699
0.84775	2.70634
0.859916	2.70634
0.869662	2.74195
0.881836	2.76569
0.892799	2.80129
0.903752	2.81316
0.91471	2.8369
0.926885	2.86064
0.937847	2.89625
0.947598	2.94373
0.959763	2.94373
0.968297	2.99121
0.980481	3.03869
0.991448	3.08617
0.998765	3.13365
