Adsorption isotherm of Carbon Dioxide on MIL-47
DOI: 10.1021/Jz3008485
Adsorbate Carbon Dioxide: InChIKey CURLTUGMZLYLDI-UHFFFAOYSA-N
Temperature: 298 K
Tabular data in the source: 0
pressure (bar)	uptake (mmol/g)
0.0653184	0.382911
0.0761935	0.478509
0.0882891	0.550301
0.108827	0.741468
0.119728	0.765562
0.131815	0.861189
0.142707	0.909118
0.158397	1.10017
0.169297	1.12426
0.180172	1.21986
0.192268	1.29165
0.207958	1.4827
0.218858	1.5068
0.230945	1.60243
0.241829	1.67419
0.257518	1.86524
0.268411	1.91317
0.280498	2.0088
0.291381	2.08056
0.307079	2.24778
0.317971	2.29571
0.328847	2.3913
0.339722	2.4869
0.357835	2.67801
0.368719	2.74977
0.379594	2.84537
0.390469	2.94097
0.407371	3.13205
0.418263	3.17998
0.430359	3.25177
0.441234	3.34737
0.456932	3.51458
0.467832	3.53868
0.479928	3.61047
0.490812	3.68223
0.50651	3.84945
0.51741	3.87355
0.529498	3.96917
0.540381	4.04094
0.556088	4.18432
0.565776	4.20838
0.577863	4.30401
0.588747	4.37577
0.605657	4.54302
0.615354	4.54325
0.62745	4.61504
0.638325	4.71064
0.656456	4.85408
0.667356	4.87817
0.67824	4.94994
0.690344	4.9979
0.710899	5.14139
0.723003	5.18935
0.733887	5.26112
0.755645	5.42848
0.766554	5.42874
0.777438	5.5005
0.80891	5.62042
0.821023	5.64455
0.831923	5.66864
0.862201	5.74087
0.874305	5.78882
0.885197	5.83675
0.909397	5.9565
0.921501	6.00446
0.932393	6.05239
0.961441	6.17226
0.973545	6.22021
0.984438	6.26814
0.996516	6.3876
