Adsorption isotherm of Carbon Dioxide on UMCM-150N2
DOI: 10.1021/Jz3008485
Adsorbate Carbon Dioxide: InChIKey CURLTUGMZLYLDI-UHFFFAOYSA-N
Temperature: 298 K
Tabular data in the source: 0
pressure (bar)	uptake (mmol/g)
0.0474509	0.165615
0.0985288	0.283708
0.144756	0.425598
0.201913	0.555488
0.248131	0.673639
0.298003	0.815485
0.350314	0.981043
0.400168	1.07541
0.45004	1.21726
0.499903	1.33536
0.549793	1.52469
0.598418	1.58346
0.64829	1.72531
0.700605	1.90274
0.749276	2.08021
0.797914	2.17459
0.851427	2.30452
0.900097	2.48199
0.949956	2.58823
0.95239	2.60007
1.00227	2.75379
