Adsorption isotherm of Carbon Dioxide on ZIF-8
DOI: 10.1021/Jz3008485
Adsorbate Carbon Dioxide: InChIKey CURLTUGMZLYLDI-UHFFFAOYSA-N
Temperature: 298 K
Tabular data in the source: 0
pressure (bar)	uptake (mmol/g)
0.049931	5.19568
0.0986367	9.52233
0.150992	13.8474
0.199715	19.9132
0.24843	25.1094
0.299564	29.0002
0.349504	35.0654
0.399439	40.6959
0.448141	44.5878
0.501717	49.3471
0.551657	55.4123
0.601588	60.608
0.651501	64.0646
0.699008	70.1309
0.750191	78.8043
0.800122	83.9999
0.852486	89.1946
0.901213	95.6951
0.951158	102.195
1.00473	106.52
