Adsorption isotherm of Carbon Dioxide on ZIF-8
DOI: 10.1021/Jz3008485
Adsorbate Carbon Dioxide: InChIKey CURLTUGMZLYLDI-UHFFFAOYSA-N
Temperature: 298 K
Tabular data in the source: 0
pressure (bar)	uptake (mmol/g)
0.105945	10.3887
0.174137	16.8808
0.243546	23.3724
0.300789	29.8692
0.400643	39.391
0.501695	47.1732
0.664892	64.9283
0.719698	70.9914
0.769616	74.8828
0.785448	76.615
0.949871	95.2392
1.00345	99.9985
