Adsorption isotherm of Carbon Dioxide on Zn-MOF-74
DOI: 10.1021/Jz3008485
Adsorbate Carbon Dioxide: InChIKey CURLTUGMZLYLDI-UHFFFAOYSA-N
Temperature: 298 K
Tabular data in the source: 0
pressure (bar)	uptake (mmol/g)
0.0521336	0.748176
0.0763672	1.19154
0.103048	1.52406
0.12243	1.912
0.150317	2.29995
0.173361	2.57705
0.203682	2.93728
0.212167	3.07583
0.218208	3.29751
0.226684	3.49149
0.23516	3.68546
0.239986	3.90714
0.248471	4.04569
0.260621	4.04569
0.269106	4.18424
0.280024	4.29508
0.290943	4.40592
0.301874	4.43363
0.311586	4.48905
0.32129	4.59989
0.333428	4.68303
0.343131	4.79387
0.355282	4.79387
0.364986	4.90471
0.377124	4.98784
0.388047	5.07097
0.397754	5.1541
0.409905	5.1541
0.419609	5.26494
0.431751	5.32036
0.441455	5.4312
0.453605	5.4312
0.463317	5.48662
0.475459	5.54204
0.486387	5.59746
0.497314	5.65288
0.509464	5.65288
0.519172	5.73601
0.531314	5.79143
0.541018	5.90227
0.553169	5.90227
0.565315	5.92998
0.576247	5.95769
0.588389	6.01312
0.599316	6.06854
0.611471	6.04083
0.621179	6.12396
0.633321	6.17938
0.643029	6.26251
0.655179	6.26251
0.667321	6.31793
0.679468	6.34564
0.690395	6.40106
0.702541	6.42877
0.713473	6.45648
0.725619	6.48419
0.737761	6.53961
0.749908	6.56732
0.760844	6.56732
0.772986	6.62274
0.785132	6.65045
0.796059	6.70587
0.80821	6.70587
0.819141	6.73358
0.831288	6.76129
0.84343	6.81671
0.855581	6.81671
0.866508	6.87213
0.878654	6.89984
0.889586	6.92755
0.900517	6.95526
0.912668	6.95526
0.923595	7.01068
0.935745	7.01068
0.947892	7.03839
0.960043	7.03839
