Adsorption isotherm of Carbon Dioxide on Pd(2-pymo)2
DOI: 10.1021/Jz3008485
Adsorbate Carbon Dioxide: InChIKey CURLTUGMZLYLDI-UHFFFAOYSA-N
Temperature: 298 K
Tabular data in the source: 0
pressure (bar)	uptake (mmol/g)
0.0585738	1.07614
0.070677	1.0998
0.0815771	1.11162
0.0936803	1.13527
0.103368	1.1471
0.11548	1.15893
0.126381	1.17075
0.138484	1.1944
0.150587	1.21805
0.155444	1.20623
0.166344	1.21805
0.178457	1.22988
0.190578	1.22988
0.201469	1.25353
0.22933	1.27718
0.248706	1.30083
0.282645	1.30083
0.300809	1.32449
0.320185	1.34814
0.348009	1.41909
0.38194	1.43092
0.400113	1.44274
0.452234	1.44274
0.484925	1.49005
0.501904	1.47822
0.530968	1.5137
0.550371	1.50187
0.570923	1.57283
0.599995	1.59648
0.627856	1.62013
0.650914	1.58465
0.700538	1.67926
0.739326	1.67926
0.749032	1.66743
0.776875	1.71474
0.799914	1.70291
0.833809	1.76204
0.850787	1.75021
0.900466	1.77387
0.925912	1.78569
0.955012	1.77387
0.965894	1.80934
0.977988	1.84482
0.98887	1.8803
1.00096	1.91577
