Adsorption isotherm of Carbon Dioxide on UMCM-150
DOI: 10.1021/Jz3008485
Adsorbate Carbon Dioxide: InChIKey CURLTUGMZLYLDI-UHFFFAOYSA-N
Temperature: 298 K
Tabular data in the source: 0
pressure (bar)	uptake (mmol/g)
0.010958	0.0237398
0.0341041	0.106829
0.043841	0.118699
0.0596879	0.201788
0.0730744	0.213658
0.112045	0.320487
0.123007	0.356097
0.153457	0.451056
0.158323	0.451056
0.207053	0.629104
0.248448	0.712194
0.255747	0.712194
0.291067	0.819023
0.308122	0.878372
0.319075	0.890242
0.350728	0.949591
0.359258	0.985201
0.389712	1.09203
0.40919	1.12764
0.465201	1.25821
0.489546	1.29382
0.513909	1.37691
0.530963	1.43626
0.549234	1.49561
0.555316	1.49561
0.571145	1.53122
0.5809	1.59057
0.591863	1.62618
0.724561	1.87544
0.734317	1.93479
0.758675	2.00601
0.798862	2.11284
0.826842	2.11284
0.836597	2.17219
0.854868	2.23154
0.874337	2.24341
0.8853	2.27902
0.897474	2.30276
0.916957	2.35024
0.92669	2.35024
0.935224	2.39772
0.947398	2.42146
0.966885	2.48081
