Adsorption isotherm of Carbon Dioxide on MIL-47
DOI: 10.1021/Jz3008485
Adsorbate Carbon Dioxide: InChIKey CURLTUGMZLYLDI-UHFFFAOYSA-N
Temperature: 298 K
Tabular data in the source: 0
pressure (bar)	uptake (mmol/g)
0.104123	0.336167
0.199761	0.672131
0.251797	0.911718
0.299001	1.10352
0.355886	1.34322
0.392198	1.4871
0.447888	1.6791
0.501144	1.89488
0.547128	2.11049
0.597935	2.39772
0.651192	2.6135
0.700812	2.82919
0.750424	3.06872
0.800036	3.30825
0.849664	3.50011
0.898072	3.71578
0.94771	3.8838
0.998517	4.17103
