Adsorption isotherm of Carbon Dioxide on UMCM-150N2
DOI: 10.1021/Jz3008485
Adsorbate Carbon Dioxide: InChIKey CURLTUGMZLYLDI-UHFFFAOYSA-N
Temperature: 298 K
Tabular data in the source: 0
pressure (bar)	uptake (mmol/g)
0.0566681	5.76058
0.0675953	5.87082
0.078514	6.09189
0.090652	6.25748
0.106414	6.69997
0.117341	6.81021
0.129479	6.9758
0.140398	7.19687
0.156164	7.58394
0.167096	7.63876
0.179234	7.80434
0.190152	8.02542
0.213213	8.35667
0.225356	8.46683
0.236279	8.63249
0.256905	9.01929
0.267841	9.01868
0.278764	9.18434
0.29091	9.23909
0.306677	9.62615
0.318823	9.6809
0.329746	9.84656
0.340673	9.95679
0.360093	10.2328
0.372235	10.343
0.383163	10.4532
0.411088	10.7288
0.42323	10.8389
0.434157	10.9492
0.459653	11.2249
0.471795	11.335
0.482718	11.5007
0.510648	11.7208
0.52279	11.831
0.533717	11.9412
0.560436	12.106
0.572583	12.1608
0.58351	12.271
0.606575	12.5468
0.617511	12.5462
0.628434	12.7119
0.660004	12.9872
0.672146	13.0974
0.683078	13.1522
0.708577	13.3725
0.720724	13.4272
0.73287	13.482
0.759589	13.6467
0.771736	13.7015
0.783882	13.7562
0.810601	13.921
0.822743	14.0312
0.833671	14.1414
0.859174	14.3063
0.871321	14.361
0.882248	14.4713
0.908967	14.636
0.921113	14.6908
0.93326	14.7455
0.958768	14.855
0.970914	14.9097
0.983061	14.9644
0.997633	15.0745
