Adsorption isotherm of Carbon Dioxide on CuBTC
DOI: 10.1021/Jz3008485
Adsorbate Carbon Dioxide: InChIKey CURLTUGMZLYLDI-UHFFFAOYSA-N
Temperature: 298 K
Tabular data in the source: 0
pressure (bar)	uptake (mmol/g)
0.104255	0.534209
0.153978	0.692119
0.203702	0.850029
0.250994	1.02785
0.301944	1.12615
0.35289	1.24431
0.402622	1.3625
0.448709	1.50062
0.500876	1.57903
0.549407	1.63765
0.600345	1.79554
0.652517	1.85409
0.703458	1.99211
0.749553	2.09051
0.800508	2.16894
0.851453	2.2871
0.899976	2.38545
0.952156	2.40428
1.00189	2.52246
