Adsorption isotherm of Carbon Dioxide on MOF-74-Ni
DOI: 10.1021/Jz3008485
Adsorbate Carbon Dioxide: InChIKey CURLTUGMZLYLDI-UHFFFAOYSA-N
Temperature: 298 K
Tabular data in the source: 0
pressure (bar)	uptake (mmol/g)
0.0485018	0.274801
0.0970119	0.494373
0.151573	0.824234
0.201276	1.18184
0.250987	1.48422
0.299476	1.84187
0.350409	2.08899
0.400104	2.50182
0.447379	2.8595
0.500744	3.07894
0.548023	3.409
0.600158	3.73893
0.648668	3.9585
0.70081	4.2332
0.749321	4.45277
0.797831	4.67235
0.848768	4.89185
0.897278	5.11142
0.948232	5.22047
1.00158	5.55037
