Adsorption isotherm of Carbon Dioxide on MOF-74-Ni
DOI: 10.1021/Jz3008485
Adsorbate Carbon Dioxide: InChIKey CURLTUGMZLYLDI-UHFFFAOYSA-N
Temperature: 298 K
Tabular data in the source: 0
pressure (bar)	uptake (mmol/g)
0.0509416	0.191891
0.078829	0.356805
0.103088	0.438977
0.132198	0.548629
0.152804	0.713744
0.179482	0.851077
0.202523	0.960897
0.213446	0.960595
0.225573	1.01549
0.236487	1.07042
0.263169	1.18013
0.274079	1.26268
0.286207	1.31757
0.314094	1.48248
0.325008	1.53741
0.337131	1.61992
0.35775	1.70219
0.36866	1.78473
0.380791	1.81201
0.392919	1.8669
0.402619	1.92186
0.413533	1.97679
0.425661	2.03168
0.436571	2.11422
0.448694	2.19673
0.459612	2.22404
0.470522	2.30658
0.482645	2.38909
0.493555	2.47163
0.505687	2.49891
0.516601	2.55384
0.52751	2.63638
0.539642	2.66366
0.550552	2.7462
0.562679	2.80109
0.573593	2.85602
0.585721	2.91091
0.596626	3.02106
0.608762	3.02073
0.619672	3.10327
0.630582	3.18581
0.641492	3.26835
0.653623	3.29563
0.664537	3.35056
0.676665	3.40545
0.687583	3.43276
0.699711	3.48765
0.711838	3.54255
0.722752	3.59747
0.73488	3.65237
0.745785	3.76252
0.757921	3.76219
0.770044	3.84469
0.780958	3.89962
0.793086	3.95451
0.804004	3.98183
0.816132	4.03672
0.828263	4.064
0.839177	4.11893
0.850091	4.17385
0.862223	4.20113
0.874351	4.25602
0.885264	4.31095
0.896174	4.39349
0.90831	4.39316
0.919224	4.44808
0.931352	4.50298
0.942261	4.58552
0.954393	4.6128
0.965311	4.64011
0.977439	4.695
0.989571	4.72228
1.00048	4.77721
