Adsorption isotherm of Carbon Dioxide on UMCM-150
DOI: 10.1021/Jz3008485
Adsorbate Carbon Dioxide: InChIKey CURLTUGMZLYLDI-UHFFFAOYSA-N
Temperature: 298 K
Tabular data in the source: 0
pressure (bar)	uptake (mmol/g)
0.0901333	0.284877
0.147374	0.451056
0.199745	0.605365
0.249682	0.759673
0.297182	0.902112
0.353184	1.00894
0.401896	1.13951
0.45304	1.27008
0.501752	1.40065
0.556547	1.53122
0.601613	1.67365
0.655191	1.80422
0.699046	1.95853
0.750186	2.07723
0.801331	2.2078
0.846379	2.30276
0.901187	2.46894
0.952332	2.59951
1.00345	2.65886
