Adsorption isotherm of Carbon Dioxide on ZIF-8
DOI: 10.1021/Jz3008485
Adsorbate Carbon Dioxide: InChIKey CURLTUGMZLYLDI-UHFFFAOYSA-N
Temperature: 298 K
Tabular data in the source: 0
pressure (bar)	uptake (mmol/g)
0.0644942	1.71109
0.102225	3.43382
0.126586	6.4667
0.155788	6.88879
0.167957	7.31828
0.180127	7.74777
0.19108	8.17779
0.20325	8.60728
0.21542	9.03677
0.226378	9.90157
0.238548	10.3311
0.250717	10.7606
0.266546	12.058
0.275057	11.6195
0.287231	12.4838
0.298184	12.9138
0.310354	13.3433
0.322524	13.7728
0.334694	14.2023
0.345652	15.0671
0.357821	15.4966
0.369991	15.9261
0.380944	16.3561
0.393114	16.7856
0.405288	17.6499
0.416242	18.0799
0.428411	18.5094
0.440581	18.9389
0.452751	19.3684
0.463709	20.2332
0.475879	20.6627
0.488048	21.0922
0.500218	21.5216
0.511171	21.9517
0.523346	22.8159
0.535515	23.2454
0.546469	23.6754
0.558639	24.1049
0.570808	24.5344
0.582983	25.3987
0.593936	25.8287
0.606106	26.2582
0.618275	26.6877
0.629229	27.1177
0.641403	27.982
0.653573	28.4115
0.66453	29.2763
0.677908	28.8357
0.68887	30.1353
0.70104	30.5648
0.711993	30.9948
0.724163	31.4243
0.736333	31.8538
0.748507	32.718
0.75946	33.1481
0.77163	33.5776
0.7838	34.007
0.794757	34.8718
0.806927	35.3013
0.819097	35.7308
0.831267	36.1603
0.842225	37.0251
0.854394	37.4546
0.866564	37.8841
0.877517	38.3141
0.888479	39.6137
0.898221	40.479
