Adsorption isotherm of Carbon Dioxide on ZIF-8
DOI: 10.1021/Jz3008485
Adsorbate Carbon Dioxide: InChIKey CURLTUGMZLYLDI-UHFFFAOYSA-N
Temperature: 298 K
Tabular data in the source: 0
pressure (bar)	uptake (mmol/g)
0.0474979	5.19674
0.103516	10.8246
0.148568	14.718
0.199715	19.9132
0.24843	25.1094
0.299573	29.8698
0.348292	35.5007
0.399431	39.8263
0.449331	41.9786
0.498067	49.3487
0.547985	53.24
0.596708	59.3058
0.650289	64.4999
0.697774	68.3923
0.750138	73.5869
0.798852	78.7831
0.849991	83.1087
0.901152	89.6082
0.952308	95.6729
1.00344	99.5637
