Adsorption isotherm of Carbon Dioxide on IRMOF-1
DOI: 10.1021/Jz3008485
Adsorbate Carbon Dioxide: InChIKey CURLTUGMZLYLDI-UHFFFAOYSA-N
Temperature: 298 K
Tabular data in the source: 0
pressure (bar)	uptake (mmol/g)
0.0521845	1.39373
0.100728	3.48432
0.151699	4.87805
0.199029	5.92334
0.248786	8.01394
0.300971	9.7561
0.347087	10.1045
0.398058	11.8467
0.450243	14.6341
0.503641	15.6794
0.548544	17.0732
0.600728	18.8153
0.654126	20.9059
0.701456	22.6481
0.747573	24.3902
0.849515	28.223
0.902913	29.6167
0.951456	31.3589
1.00243	33.4495
