Adsorption isotherm of Carbon Dioxide on IRMOF-3
DOI: 10.1021/Jz3008485
Adsorbate Carbon Dioxide: InChIKey CURLTUGMZLYLDI-UHFFFAOYSA-N
Temperature: 298 K
Tabular data in the source: 0
pressure (bar)	uptake (mmol/g)
0.0994476	0.125451
0.297142	0.352693
0.348096	0.383849
0.400239	0.462335
0.449941	0.564509
0.49969	0.579896
0.550619	0.658391
0.60036	0.689558
0.651293	0.760163
0.699799	0.830788
0.750732	0.901394
0.799247	0.956239
0.851389	1.03472
0.898677	1.11325
0.949623	1.16018
0.998142	1.20714
