Adsorption isotherm of Carbon Dioxide on Zn-MOF-74
DOI: 10.1021/Jz3008485
Adsorbate Carbon Dioxide: InChIKey CURLTUGMZLYLDI-UHFFFAOYSA-N
Temperature: 298 K
Tabular data in the source: 0
pressure (bar)	uptake (mmol/g)
0.0618541	0.748176
0.0873282	1.02528
0.104305	1.24696
0.132201	1.57948
0.150385	1.85658
0.175859	2.13369
0.189191	2.35537
0.201333	2.41079
0.212243	2.57705
0.223162	2.68789
0.23408	2.79873
0.2632	3.07583
0.274118	3.18667
0.286256	3.2698
0.295956	3.40836
0.308102	3.43607
0.317801	3.57462
0.329935	3.68546
0.340858	3.76859
0.356637	3.87943
0.367556	3.99027
0.378474	4.10111
0.389393	4.21195
0.399105	4.26737
0.410032	4.32279
0.420955	4.40592
0.433097	4.46134
0.44402	4.54447
0.453736	4.57218
0.464659	4.65532
0.476802	4.71074
0.487729	4.76616
0.499867	4.84929
0.510798	4.877
0.521721	4.96013
0.533863	5.01555
0.544782	5.12639
0.556932	5.12639
0.56786	5.18181
0.580002	5.23723
0.592148	5.26494
0.606721	5.32036
0.617643	5.40349
0.629786	5.45891
0.640709	5.54204
0.6565	5.56975
0.667427	5.62517
0.67957	5.68059
0.690497	5.73601
0.698998	5.76372
0.709929	5.79143
0.722071	5.84685
0.734218	5.87456
0.745141	5.95769
0.756081	5.92998
0.767004	6.01312
0.77915	6.04083
0.791292	6.09625
0.803439	6.12396
0.81437	6.15167
0.826516	6.17938
0.838663	6.20709
0.850809	6.2348
0.861741	6.26251
0.872668	6.31793
0.88481	6.37335
0.895737	6.42877
0.906673	6.42877
0.918819	6.45648
0.930966	6.48419
0.941901	6.48419
0.951617	6.5119
0.963764	6.53961
0.97591	6.56732
0.986842	6.59503
0.998988	6.62274
