Adsorption isotherm of Carbon Dioxide on UMCM-150N2
DOI: 10.1021/Jz3008485
Adsorbate Carbon Dioxide: InChIKey CURLTUGMZLYLDI-UHFFFAOYSA-N
Temperature: 298 K
Tabular data in the source: 0
pressure (bar)	uptake (mmol/g)
0.059606	0.177341
0.10581	0.259882
0.154458	0.378003
0.197017	0.460587
0.251735	0.566767
0.300374	0.661149
0.351461	0.802981
0.40131	0.885478
0.449954	0.99173
0.502224	1.05046
0.549661	1.18046
0.600739	1.29856
0.650593	1.39292
0.702877	1.48726
0.751543	1.65286
0.801383	1.71162
0.850035	1.84161
0.903525	1.9122
0.952182	2.05406
1.00326	2.17215
