Adsorption isotherm of Carbon Dioxide on UMCM-150N2
DOI: 10.1021/Jz3008485
Adsorbate Carbon Dioxide: InChIKey CURLTUGMZLYLDI-UHFFFAOYSA-N
Temperature: 298 K
Tabular data in the source: 0
pressure (bar)	uptake (mmol/g)
0.105819	0.283621
0.150808	0.366177
0.199451	0.472428
0.246884	0.590564
0.299168	0.684903
0.347816	0.803024
0.398889	0.909247
0.451182	1.02733
0.502247	1.10981
0.549679	1.22794
0.601972	1.34602
0.65062	1.46414
0.701698	1.58224
0.747902	1.66478
0.798993	1.81848
0.851277	1.91282
0.899907	1.98346
0.949784	2.13718
1.00209	2.29086
