Adsorption isotherm of Carbon Dioxide on UMCM-150N2
DOI: 10.1021/Jz3008485
Adsorbate Carbon Dioxide: InChIKey CURLTUGMZLYLDI-UHFFFAOYSA-N
Temperature: 298 K
Tabular data in the source: 0
pressure (bar)	uptake (mmol/g)
0.00973409	0.0354941
0.0279827	0.094627
0.0608256	0.189196
0.104613	0.307375
0.15327	0.449237
0.204362	0.602939
0.256664	0.744757
0.301671	0.874791
0.349117	1.02854
0.360048	1.01654
0.370997	1.05202
0.381942	1.07563
0.394102	1.09922
0.412336	1.12275
0.422075	1.17011
0.433024	1.20559
0.443973	1.24107
0.464648	1.2883
0.475597	1.32378
0.487756	1.34738
0.49871	1.39473
0.514529	1.45389
0.538852	1.51295
0.555877	1.54836
0.587505	1.64294
0.611824	1.69013
0.661692	1.82011
0.711568	1.97383
0.758992	2.06822
0.814943	2.22187
0.864815	2.36371
0.909818	2.48188
0.963321	2.58807
0.982785	2.64719
1.00224	2.6707
