Adsorption isotherm of Carbon Dioxide on IRMOF-1
DOI: 10.1021/Jz3008485
Adsorbate Carbon Dioxide: InChIKey CURLTUGMZLYLDI-UHFFFAOYSA-N
Temperature: 298 K
Tabular data in the source: 0
pressure (bar)	uptake (mmol/g)
0.0533981	1.0453
0.106796	2.78746
0.145631	4.52962
0.177184	5.92334
0.209951	7.31707
0.237864	8.7108
0.26699	9.7561
0.313107	11.4983
0.342233	12.892
0.366505	12.892
0.383495	13.9373
0.417476	15.331
0.43932	16.3763
0.473301	17.77
0.502427	18.1185
0.527913	18.4669
0.550971	19.8606
0.582524	21.6028
0.609223	21.9512
0.628641	23.3449
0.661408	24.3902
0.691748	25.4355
0.716019	25.4355
0.759709	27.8746
0.796117	28.5714
