Adsorption isotherm of Carbon Dioxide on UMCM-150
DOI: 10.1021/Jz3008485
Adsorbate Carbon Dioxide: InChIKey CURLTUGMZLYLDI-UHFFFAOYSA-N
Temperature: 298 K
Tabular data in the source: 0
pressure (bar)	uptake (mmol/g)
0.0570388	5.79894
0.0679612	5.90939
0.0788835	6.07508
0.0910194	6.24076
0.106796	6.68258
0.117718	6.73781
0.129854	6.95872
0.140777	7.12441
0.156553	7.511
0.167476	7.56623
0.179612	7.73192
0.190534	7.8976
0.206311	8.2842
0.217233	8.33942
0.229369	8.44988
0.240291	8.56034
0.257282	8.94693
0.268204	9.05739
0.28034	9.22307
0.291262	9.2783
0.307039	9.6649
0.316748	9.6649
0.328883	9.83058
0.339806	9.88581
0.360437	10.1619
0.372573	10.2724
0.383495	10.3829
0.411408	10.659
0.423544	10.7695
0.434466	10.8799
0.459951	11.1008
0.472087	11.2113
0.48301	11.2665
0.507282	11.5979
0.518204	11.5979
0.529126	11.7636
0.541262	11.8188
0.549757	12.0397
0.559466	12.0397
0.571602	12.0949
0.583738	12.1502
0.612864	12.3711
0.625	12.4815
0.635922	12.592
0.658981	12.8129
0.669903	12.8681
0.682039	12.9233
0.701456	13.0338
0.709951	13.089
0.722087	13.1443
0.73301	13.2547
0.759709	13.4204
0.771845	13.5309
0.782767	13.6965
0.811893	13.9174
0.824029	13.9727
0.836165	14.0279
0.859223	14.1384
0.871359	14.1384
0.883495	14.1936
0.910194	14.304
0.92233	14.4145
0.933252	14.525
0.958738	14.6906
0.970874	14.6906
0.98301	14.7459
0.997573	14.8563
