Adsorption isotherm of Carbon Dioxide on Mg-MOF-74
DOI: 10.1021/Jz3008485
Adsorbate Carbon Dioxide: InChIKey CURLTUGMZLYLDI-UHFFFAOYSA-N
Temperature: 298 K
Tabular data in the source: 0
pressure (bar)	uptake (mmol/g)
0.0497457	0.538604
0.0618784	0.673255
0.0861482	0.908895
0.099496	1.04355
0.149237	1.61581
0.198987	2.12075
0.248729	2.69302
0.2633	2.76035
0.274218	2.895
0.285136	3.02965
0.302115	3.26529
0.313051	3.26529
0.321529	3.46726
0.332451	3.56825
0.363998	3.90488
0.376135	4.00587
0.387057	4.10686
0.412556	4.24151
0.421039	4.40982
0.431961	4.51081
0.46231	4.71279
0.472008	4.8811
0.482931	4.98209
0.51207	5.1504
0.520548	5.35238
0.532685	5.45337
0.563021	5.75633
0.575163	5.82366
0.58609	5.89098
0.599442	5.99197
0.612799	6.0593
0.62494	6.12662
0.635867	6.19395
0.660159	6.26127
0.669862	6.39593
0.680779	6.53058
0.700194	6.73255
0.713555	6.76622
0.725696	6.83354
0.736623	6.90087
0.763336	7.03552
0.775478	7.10284
0.786405	7.17017
0.813118	7.30482
0.82526	7.37215
0.836186	7.43947
0.853184	7.54046
0.862904	7.54046
0.875046	7.60779
0.885977	7.64145
0.901751	7.80976
0.912691	7.7761
0.924832	7.84342
0.935759	7.91075
0.952756	8.01174
0.998906	8.18005
