Adsorption isotherm of Carbon Dioxide on UMCM-150
DOI: 10.1021/Jz3008485
Adsorbate Carbon Dioxide: InChIKey CURLTUGMZLYLDI-UHFFFAOYSA-N
Temperature: 298 K
Tabular data in the source: 0
pressure (bar)	uptake (mmol/g)
0.0523614	0.130569
0.0864473	0.189918
0.127855	0.308617
0.148555	0.356097
0.220399	0.534145
0.232573	0.557885
0.271535	0.640974
0.283709	0.664714
0.320233	0.735933
0.331191	0.759673
0.342158	0.807153
0.368935	0.842762
0.38111	0.866502
0.392077	0.913982
0.41033	0.925852
0.422504	0.949591
0.433462	0.973331
0.444425	1.00894
0.46024	1.00894
0.471202	1.04455
0.48216	1.06829
0.493127	1.11577
0.505293	1.11577
0.516246	1.12764
0.528421	1.15138
0.539374	1.16325
0.550332	1.18699
0.561281	1.18699
0.572244	1.2226
0.583202	1.24634
0.595381	1.28195
0.607546	1.28195
0.618504	1.30569
0.629467	1.3413
0.640429	1.37691
0.652599	1.38878
0.663557	1.41252
0.675732	1.43626
0.686685	1.44813
0.698864	1.48374
0.71103	1.48374
0.721988	1.50748
0.734158	1.51935
0.74512	1.55496
0.757286	1.55496
0.768248	1.59057
0.780427	1.62618
0.79139	1.66179
0.801131	1.68552
0.813301	1.69739
0.824259	1.72113
0.836434	1.74487
0.847392	1.76861
0.858345	1.78048
0.869308	1.81609
0.881487	1.8517
0.892449	1.88731
0.902186	1.89918
0.911923	1.91105
0.924093	1.92292
0.935051	1.94666
0.946009	1.9704
0.956958	1.9704
0.967911	1.98227
0.978869	2.00601
0.991044	2.02975
1.00079	2.06536
