Adsorption isotherm of Carbon Dioxide on IRMOF-3
DOI: 10.1021/Jz3008485
Adsorbate Carbon Dioxide: InChIKey CURLTUGMZLYLDI-UHFFFAOYSA-N
Temperature: 298 K
Tabular data in the source: 0
pressure (bar)	uptake (mmol/g)
0.0133327	0.0314537
0.0363826	0.0470512
0.0497238	0.0627254
0.101871	0.133321
0.127343	0.15679
0.151599	0.188157
0.183135	0.219467
0.203754	0.242973
0.237713	0.282154
0.26925	0.313464
0.304428	0.344745
0.323837	0.360372
0.359006	0.407433
0.403875	0.470196
0.452402	0.501372
0.487571	0.548433
0.549427	0.618952
0.579754	0.642382
0.59795	0.658018
0.613705	0.697342
0.625833	0.713026
0.636751	0.72083
0.71317	0.791234
0.725301	0.799028
0.736215	0.814721
0.756834	0.838228
0.768966	0.846022
0.77988	0.861715
0.792007	0.877399
0.805348	0.893073
0.81748	0.900867
0.828394	0.91656
0.840526	0.924354
0.852653	0.940038
0.863567	0.955731
0.875699	0.963525
0.886613	0.979219
0.89874	0.994902
0.910872	1.0027
0.921786	1.01839
0.933918	1.02618
0.946045	1.04187
0.956959	1.05756
0.969091	1.06535
0.980005	1.08105
0.992137	1.08884
0.998192	1.11246
