Adsorption isotherm of Carbon Dioxide on CuBTC
DOI: 10.1021/Jz3008485
Adsorbate Carbon Dioxide: InChIKey CURLTUGMZLYLDI-UHFFFAOYSA-N
Temperature: 298 K
Tabular data in the source: 0
pressure (bar)	uptake (mmol/g)
0.0218108	0.158464
0.0509074	0.296922
0.0981741	0.593916
0.126053	0.75226
0.151509	0.89079
0.175751	1.02934
0.19757	1.14808
0.208476	1.22732
0.220599	1.28666
0.231504	1.36589
0.255764	1.425
0.264237	1.52414
0.276361	1.58349
0.28727	1.64286
0.299394	1.7022
0.310303	1.76157
0.322427	1.82092
0.333336	1.88029
0.357595	1.93939
0.366065	2.0584
0.378188	2.11774
0.389098	2.17711
0.400003	2.25635
0.412127	2.31569
0.423032	2.39492
0.448505	2.454
0.456975	2.57301
0.467884	2.63238
0.480007	2.69173
0.490917	2.7511
0.50304	2.81044
0.51395	2.86981
0.52486	2.92918
0.536983	2.98853
0.547893	3.0479
0.560016	3.10724
0.570925	3.16661
0.583049	3.22596
0.609731	3.30488
0.619418	3.404
0.630332	3.4435
0.642456	3.50285
0.653365	3.56222
0.665493	3.6017
0.677616	3.66105
0.688526	3.72042
0.700653	3.7599
0.711563	3.81927
0.72369	3.85876
0.7346	3.91813
0.746727	3.95761
0.757637	4.01698
0.781896	4.07608
0.791584	4.1752
0.803711	4.21469
0.814621	4.27406
0.826748	4.31354
0.837658	4.37291
0.849785	4.41239
0.860695	4.47176
0.872823	4.51125
0.883732	4.57062
0.894638	4.64985
