Adsorption isotherm of Carbon Dioxide on MIL-47
DOI: 10.1021/Jz3008485
Adsorbate Carbon Dioxide: InChIKey CURLTUGMZLYLDI-UHFFFAOYSA-N
Temperature: 298 K
Tabular data in the source: 0
pressure (bar)	uptake (mmol/g)
0.0375585	0.0485645
0.064208	0.096869
0.075117	0.097129
0.10781	0.193247
0.130849	0.169961
0.145377	0.217977
0.164762	0.242274
0.176875	0.266397
0.188988	0.29052
0.215637	0.338825
0.22775	0.362948
0.239862	0.387071
0.250763	0.411166
0.262876	0.435289
0.274988	0.459413
0.287109	0.459702
0.313759	0.508006
0.325871	0.532129
0.336763	0.580058
0.348876	0.604182
0.360989	0.628305
0.373101	0.652428
0.384002	0.676523
0.396114	0.700646
0.408227	0.724769
0.42034	0.748893
0.431232	0.796822
0.45305	0.797342
0.465154	0.8453
0.476054	0.869394
0.488167	0.893517
0.50028	0.917641
0.512392	0.941764
0.523293	0.965859
0.535406	0.989982
0.547518	1.01411
0.559631	1.03823
0.570531	1.06232
0.582644	1.08645
0.594757	1.11057
0.606869	1.13469
0.61777	1.15879
0.629882	1.18291
0.641995	1.20703
0.654108	1.23116
0.66622	1.25528
0.677121	1.27938
0.689233	1.3035
0.701346	1.32762
0.713459	1.35175
0.724359	1.37584
0.736472	1.39996
0.748584	1.42409
0.760697	1.44821
0.771581	1.51997
0.775225	1.49623
0.787338	1.52035
0.790983	1.4966
0.803087	1.54456
0.813988	1.56865
0.8261	1.59278
0.838213	1.6169
0.849105	1.66483
0.861218	1.68895
0.87333	1.71308
0.885443	1.7372
0.896343	1.76129
0.908456	1.78542
0.920569	1.80954
0.931461	1.85747
0.943573	1.88159
0.955686	1.90572
0.967799	1.92984
0.979911	1.95396
0.990812	1.97806
