Adsorption isotherm of Carbon Dioxide on IRMOF-3
DOI: 10.1021/Jz3008485
Adsorbate Carbon Dioxide: InChIKey CURLTUGMZLYLDI-UHFFFAOYSA-N
Temperature: 298 K
Tabular data in the source: 0
pressure (bar)	uptake (mmol/g)
0.048506	0.0706247
0.100678	0.0938822
0.149171	0.188176
0.2001	0.266671
0.251055	0.297828
0.300774	0.368443
0.35172	0.41538
0.397782	0.517583
0.44995	0.54873
0.499665	0.627235
0.549389	0.68996
0.597907	0.736915
0.65005	0.815401
0.699765	0.893906
0.750711	0.940842
0.801644	1.01145
0.85015	1.08207
0.901071	1.17635
0.949585	1.23119
0.99933	1.25447
