Adsorption isotherm of Carbon Dioxide on MIL-47
DOI: 10.1021/Jz3008485
Adsorbate Carbon Dioxide: InChIKey CURLTUGMZLYLDI-UHFFFAOYSA-N
Temperature: 298 K
Tabular data in the source: 0
pressure (bar)	uptake (mmol/g)
0.053282	0.144278
0.0762952	0.192496
0.0992914	0.288382
0.130781	0.360637
0.150158	0.408768
0.174366	0.504684
0.200999	0.600657
0.228852	0.672825
0.25306	0.76874
0.276073	0.816958
0.302706	0.912932
0.317226	0.984782
0.329338	1.0089
0.364455	1.10508
0.376568	1.1292
0.38746	1.17713
0.414093	1.27311
0.426205	1.29723
0.437097	1.34516
0.46373	1.44113
0.475843	1.46526
0.486735	1.51318
0.513367	1.60916
0.525471	1.65712
0.536363	1.70504
0.610285	1.75448
0.621169	1.82624
0.633273	1.8742
0.659897	1.994
0.67201	2.01813
0.682902	2.06606
0.709551	2.11436
0.720443	2.16229
0.732547	2.21025
0.759171	2.33006
0.771292	2.33034
0.782193	2.35444
0.81125	2.45047
0.823354	2.49843
0.834246	2.54636
0.848791	2.5467
0.874212	2.64265
0.903277	2.71484
0.914177	2.73894
0.92629	2.76306
0.938403	2.78719
0.949295	2.83511
0.961416	2.8354
0.97352	2.88336
0.984412	2.93129
0.995304	2.97922
