Adsorption isotherm of Carbon Dioxide on UMCM-150N2
DOI: 10.1021/Jz3008485
Adsorbate Carbon Dioxide: InChIKey CURLTUGMZLYLDI-UHFFFAOYSA-N
Temperature: 298 K
Tabular data in the source: 0
pressure (bar)	uptake (mmol/g)
0.0533981	0.0824554
0.0970874	0.176896
0.126214	0.24777
0.151699	0.283077
0.169903	0.31847
0.182039	0.330196
0.211165	0.36546
0.222087	0.40094
0.234223	0.424536
0.260922	0.471699
0.273058	0.495294
0.283981	0.530774
0.31068	0.566067
0.322816	0.577793
0.333738	0.601403
0.360437	0.624826
0.371359	0.660306
0.382282	0.683916
0.411408	0.71918
0.42233	0.74279
0.434466	0.766386
0.445388	0.778126
0.453883	0.778025
0.464806	0.813505
0.476942	0.825231
0.489078	0.848827
0.509709	0.872322
0.520631	0.895932
0.532767	0.919528
0.544903	0.943124
0.557039	0.942979
0.567961	0.96659
0.578883	0.9902
0.589806	1.02568
0.601942	1.03741
0.612864	1.04915
0.625	1.07274
0.637136	1.09634
0.646845	1.13183
0.658981	1.13169
0.669903	1.1553
0.682039	1.16702
0.692961	1.2025
0.70267	1.19052
0.713592	1.20226
0.724515	1.22587
0.73665	1.23759
0.747573	1.2612
0.759709	1.26106
0.770631	1.29654
0.782767	1.30827
0.792476	1.35563
0.803398	1.34363
0.81432	1.36724
0.826456	1.37897
0.837379	1.40258
0.848301	1.42619
0.859223	1.41419
0.870146	1.44967
0.882282	1.46139
0.893204	1.49687
0.902913	1.48489
0.915049	1.49661
0.925971	1.52023
0.938107	1.53195
0.949029	1.54369
0.959951	1.55543
0.972087	1.56716
0.984223	1.57888
0.996359	1.59061
