Adsorption isotherm of Carbon Dioxide on IRMOF-3
DOI: 10.1021/Jz3008485
Adsorbate Carbon Dioxide: InChIKey CURLTUGMZLYLDI-UHFFFAOYSA-N
Temperature: 298 K
Tabular data in the source: 0
pressure (bar)	uptake (mmol/g)
0.0642827	0.0705002
0.0873284	0.0939875
0.124933	0.12525
0.171029	0.164335
0.18316	0.172129
0.21227	0.203458
0.224402	0.211252
0.236533	0.219046
0.262006	0.242514
0.274138	0.250308
0.285052	0.266001
0.314166	0.289441
0.326298	0.297235
0.338429	0.305029
0.361475	0.328516
0.373607	0.33631
0.384521	0.352003
0.409994	0.375471
0.422125	0.383265
0.433039	0.398959
0.443949	0.422542
0.458508	0.430317
0.469426	0.43812
0.481558	0.445914
0.492476	0.453718
0.510667	0.477243
0.522799	0.485037
0.533713	0.500731
0.557972	0.524208
0.570104	0.532002
0.582236	0.539796
0.593154	0.5476
0.610136	0.563245
0.622268	0.571039
0.6344	0.578833
0.659872	0.602302
0.672004	0.610096
0.682918	0.625789
0.708387	0.657147
0.720519	0.664941
0.731433	0.680634
0.758119	0.704093
0.770247	0.719776
0.781165	0.72758
0.793292	0.743264
0.807851	0.751039
0.819983	0.758833
0.832115	0.766627
0.843033	0.77443
0.858801	0.790085
0.870929	0.805769
0.881839	0.829352
0.908521	0.8607
0.920653	0.868494
0.931571	0.876298
0.958257	0.899756
0.970385	0.91544
0.981303	0.923244
0.997071	0.938899
