Adsorption isotherm of Carbon Dioxide on UMCM-150
DOI: 10.1021/Jz3008485
Adsorbate Carbon Dioxide: InChIKey CURLTUGMZLYLDI-UHFFFAOYSA-N
Temperature: 298 K
Tabular data in the source: 0
pressure (bar)	uptake (mmol/g)
0.051163	0.178048
0.115708	0.356097
0.255774	0.783413
0.351958	0.985201
0.403103	1.11577
0.44817	1.25821
0.501748	1.38878
0.550487	1.59057
0.604051	1.68552
0.652767	1.82796
0.702705	1.98227
0.751416	2.11284
0.803769	2.21967
0.851268	2.36211
0.901219	2.55203
0.951148	2.6826
1.00349	2.75382
