Adsorption isotherm of Carbon Dioxide on ZIF-8
DOI: 10.1021/Jz3008485
Adsorbate Carbon Dioxide: InChIKey CURLTUGMZLYLDI-UHFFFAOYSA-N
Temperature: 298 K
Tabular data in the source: 0
pressure (bar)	uptake (mmol/g)
0.0487101	4.76143
0.0730541	6.05519
0.09984	8.21746
0.129063	10.8135
0.169236	13.4047
0.18141	14.269
0.211845	16.4296
0.222807	17.7292
0.234982	18.5935
0.261768	20.7558
0.273942	21.62
0.284895	22.05
0.311694	25.5167
0.321422	25.0776
0.33238	25.9424
0.36282	28.5379
0.374994	29.4022
0.385952	30.267
0.407863	31.5618
0.420037	32.4261
0.430994	33.2909
0.458988	34.583
0.46995	35.8826
0.480908	36.7474
0.49187	38.047
0.504035	38.0417
0.514993	38.9065
0.525955	40.2061
0.538129	41.0704
0.546658	42.371
0.557603	41.9315
0.568565	43.2311
0.579522	44.0959
0.590489	45.8302
0.602654	45.8249
0.613612	46.6897
0.625786	47.554
0.636748	48.8536
0.64771	50.1532
0.659876	50.1479
0.670838	51.4475
0.681791	51.8775
0.692758	53.6118
0.704923	53.6066
0.715885	54.9061
0.726843	55.7709
0.737809	57.5053
0.748767	58.3701
0.75972	58.8001
0.771894	59.6644
0.784064	60.0939
0.795026	61.3935
0.805975	61.3887
0.818149	62.253
0.829103	62.683
0.841281	63.9821
0.852235	64.4121
0.863192	65.2769
0.875371	66.5759
0.887545	67.4402
0.898507	68.7398
0.910672	68.7345
0.921635	70.0341
0.932597	71.3337
0.942347	73.0685
0.953295	73.0638
0.963032	73.4943
0.975206	74.3586
0.986168	75.6582
0.997131	76.9578
