Adsorption isotherm of Carbon Dioxide on MOF-74-Co
DOI: 10.1021/Jz3008485
Adsorbate Carbon Dioxide: InChIKey CURLTUGMZLYLDI-UHFFFAOYSA-N
Temperature: 298 K
Tabular data in the source: 0
pressure (bar)	uptake (mmol/g)
0.0256598	0.938994
0.0378569	1.24279
0.0451811	1.46373
0.0525052	1.68467
0.0696005	2.23701
0.0903242	2.67889
0.114697	3.14839
0.126894	3.45218
0.14269	3.45218
0.15001	3.6455
0.160967	3.78359
0.171919	3.89406
0.182876	4.03215
0.193828	4.14262
0.204781	4.25309
0.215738	4.39118
0.225475	4.50165
0.236432	4.63973
0.247384	4.7502
0.260779	4.94353
0.271711	4.91591
0.281444	4.99876
0.293603	5.054
0.304547	5.10923
0.316706	5.16446
0.328865	5.2197
0.339809	5.27493
0.351964	5.30255
0.362908	5.35779
0.375068	5.41302
0.386012	5.46826
0.398171	5.52349
0.409115	5.57873
0.421274	5.63396
0.433433	5.6892
0.444377	5.74443
0.456532	5.77205
0.467476	5.82728
0.479635	5.88252
0.490579	5.93775
0.502738	5.99299
0.513682	6.04822
0.525841	6.10346
0.537996	6.13108
0.54894	6.18631
0.561099	6.24155
0.572043	6.29678
0.584202	6.35202
0.595146	6.40725
0.607306	6.46249
0.61946	6.4901
0.630405	6.54534
0.649867	6.68343
0.659583	6.65581
0.670523	6.68343
0.682678	6.71104
0.693622	6.76628
0.705777	6.7939
0.717932	6.82151
0.730086	6.84913
0.741026	6.87675
0.753181	6.90436
0.765336	6.93198
0.777491	6.9596
0.789646	6.98722
0.800586	7.01483
0.81274	7.04245
0.8249	7.09769
0.835839	7.1253
0.847994	7.15292
0.860149	7.18054
0.872304	7.20816
0.883244	7.23577
0.895399	7.26339
0.907554	7.29101
0.919709	7.31863
0.930648	7.34624
0.942807	7.40148
0.954962	7.4291
0.967117	7.45671
0.984132	7.48433
