Adsorption isotherm of Carbon Dioxide on Zn-MOF-74
DOI: 10.1021/Jz3008485
Adsorbate Carbon Dioxide: InChIKey CURLTUGMZLYLDI-UHFFFAOYSA-N
Temperature: 298 K
Tabular data in the source: 0
pressure (bar)	uptake (mmol/g)
0.0109187	0.110841
0.0339541	0.443363
0.0606306	0.803596
0.0885221	1.16383
0.107929	1.38551
0.1237	1.55177
0.1419	1.71803
0.163733	1.96742
0.178302	2.05056
0.191646	2.18911
0.213492	2.35537
0.224415	2.4385
0.236549	2.54934
0.248674	2.7156
0.263259	2.68789
0.271743	2.82644
0.283881	2.90957
0.294804	2.9927
0.306946	3.04812
0.317869	3.13125
0.330007	3.21438
0.34093	3.29751
0.357924	3.40836
0.368864	3.38065
0.378563	3.5192
0.38949	3.57462
0.401633	3.63004
0.41256	3.68546
0.424698	3.76859
0.435625	3.82401
0.446543	3.93485
0.455049	3.93485
0.46963	3.93485
0.479333	4.04569
0.491475	4.10111
0.502407	4.12882
0.514549	4.18424
0.526691	4.23966
0.537618	4.29508
0.548541	4.37821
0.557034	4.46134
0.571628	4.37821
0.582546	4.48905
0.593478	4.51676
0.60562	4.57218
0.616547	4.6276
0.628693	4.65532
0.640836	4.71074
0.659049	4.79387
0.668774	4.76616
0.679697	4.84929
0.691843	4.877
0.703985	4.93242
0.714917	4.96013
0.727063	4.98784
0.739205	5.04326
0.759849	5.12639
0.770788	5.09868
0.782931	5.1541
0.793862	5.18181
0.806013	5.18181
0.818159	5.20952
0.830306	5.23723
0.842452	5.26494
0.871609	5.29265
0.882532	5.37578
0.894679	5.40349
0.91047	5.4312
