Adsorption isotherm of Carbon Dioxide on IRMOF-3
DOI: 10.1021/Jz3008485
Adsorbate Carbon Dioxide: InChIKey CURLTUGMZLYLDI-UHFFFAOYSA-N
Temperature: 298 K
Tabular data in the source: 0
pressure (bar)	uptake (mmol/g)
0.0497027	0.102174
0.0994054	0.204348
0.150334	0.282843
0.200041	0.377128
0.250962	0.471403
0.299451	0.573586
0.351581	0.675741
0.398865	0.762155
0.423107	0.817192
0.450986	0.880089
0.471609	0.895706
0.500727	0.911256
0.527359	1.03728
0.551588	1.11599
0.573425	1.13159
0.600115	1.14716
0.621939	1.18644
0.648609	1.24146
0.675283	1.28858
0.698328	1.31207
0.723793	1.35132
0.749257	1.39057
0.774722	1.42982
0.800182	1.47695
0.820792	1.51624
0.852316	1.57122
0.881409	1.63411
0.902006	1.69706
0.92745	1.77576
0.950483	1.82291
0.975956	1.84638
1.00022	1.85408
