Adsorption isotherm of Carbon Dioxide on Zn-MOF-74
DOI: 10.1021/Jz3008485
Adsorbate Carbon Dioxide: InChIKey CURLTUGMZLYLDI-UHFFFAOYSA-N
Temperature: 298 K
Tabular data in the source: 0
pressure (bar)	uptake (mmol/g)
0.0522309	0.110841
0.0813925	0.110841
0.10569	0.138551
0.127548	0.221682
0.159131	0.277102
0.185854	0.332523
0.224728	0.387943
0.236875	0.415653
0.261172	0.443363
0.273318	0.471074
0.285469	0.471074
0.309762	0.526494
0.321908	0.554204
0.334054	0.581914
0.359562	0.637335
0.371713	0.637335
0.383855	0.692755
0.411798	0.720465
0.423944	0.748176
0.43609	0.775886
0.461603	0.803596
0.473749	0.831306
0.485895	0.859016
0.496827	0.886727
0.508978	0.886727
0.521124	0.914437
0.53327	0.942147
0.544198	0.997568
0.556348	0.997568
0.568495	1.02528
0.580641	1.05299
0.591572	1.0807
0.602508	1.0807
0.612224	1.10841
0.624371	1.13612
0.636517	1.16383
0.648664	1.19154
0.660814	1.19154
0.671746	1.21925
0.683892	1.24696
0.696039	1.27467
0.708189	1.27467
0.720336	1.30238
0.732486	1.30238
0.743413	1.3578
0.754349	1.3578
0.766495	1.38551
0.778642	1.41322
0.790788	1.44093
0.802935	1.46864
0.815085	1.46864
0.826017	1.49635
0.838163	1.52406
0.85031	1.55177
0.86246	1.55177
0.874607	1.57948
0.885538	1.60719
0.897685	1.6349
0.909835	1.6349
0.921982	1.66261
0.934128	1.69032
0.946275	1.71803
0.955991	1.74574
0.968142	1.74574
0.979069	1.80116
0.991215	1.82887
1.00093	1.85658
