Adsorption isotherm of Carbon Dioxide on IRMOF-3
DOI: 10.1021/Jz3008485
Adsorbate Carbon Dioxide: InChIKey CURLTUGMZLYLDI-UHFFFAOYSA-N
Temperature: 298 K
Tabular data in the source: 0
pressure (bar)	uptake (mmol/g)
0.0497238	0.0627254
0.1019	0.0780931
0.149209	0.117168
0.197728	0.164124
0.252323	0.195252
0.300837	0.250097
0.35057	0.297043
0.402742	0.320301
0.450051	0.359376
0.500997	0.406312
0.549524	0.437488
0.600469	0.484425
0.648996	0.515601
0.702374	0.554628
0.748465	0.601603
0.801842	0.64063
0.849156	0.671816
0.898884	0.726651
0.949842	0.749918
0.999574	0.796864
