Adsorption isotherm of Carbon Dioxide on MOF-74-Co
DOI: 10.1021/Jz3008485
Adsorbate Carbon Dioxide: InChIKey CURLTUGMZLYLDI-UHFFFAOYSA-N
Temperature: 298 K
Tabular data in the source: 0
pressure (bar)	uptake (mmol/g)
0.051075	0.276175
0.0693094	0.33141
0.0814685	0.386644
0.0899909	0.497114
0.111871	0.552349
0.12281	0.579967
0.134969	0.635202
0.142281	0.773289
0.170244	0.883759
0.197001	1.04946
0.212805	1.1047
0.224965	1.15993
0.235913	1.24279
0.250506	1.32564
0.26267	1.40849
0.273618	1.49134
0.285777	1.54658
0.313749	1.71228
0.325908	1.76752
0.336856	1.85037
0.362385	1.93322
0.373338	2.04369
0.384286	2.12654
0.401318	2.26463
0.428066	2.3751
0.45603	2.48557
0.465763	2.56842
0.476711	2.65128
0.488875	2.73413
0.498608	2.81698
0.510754	2.78936
0.520496	2.92745
0.53144	2.98269
0.541181	3.12077
0.553332	3.12077
0.564276	3.17601
0.575216	3.20363
0.587375	3.25886
0.598319	3.3141
0.61047	3.3141
0.618992	3.42456
0.631151	3.4798
0.640893	3.61789
0.653044	3.61789
0.662768	3.6455
0.673717	3.72836
0.68588	3.81121
0.694402	3.92168
0.706549	3.89406
0.716278	3.9493
0.728437	4.00453
0.739377	4.03215
0.750321	4.08738
0.762471	4.08738
0.77342	4.17024
0.785574	4.19785
0.795308	4.28071
0.807458	4.28071
0.817192	4.36356
0.829355	4.44641
0.839092	4.55688
0.851251	4.61212
0.863402	4.61212
0.874346	4.66735
0.886501	4.69497
0.897445	4.7502
0.909596	4.7502
0.92054	4.80544
0.932699	4.86067
0.942432	4.94353
0.954583	4.94353
0.965531	5.02638
0.976475	5.08161
0.988634	5.13685
0.997156	5.24732
