Adsorption isotherm of Carbon Dioxide on Pd(2-pymo)2
DOI: 10.1021/Jz3008485
Adsorbate Carbon Dioxide: InChIKey CURLTUGMZLYLDI-UHFFFAOYSA-N
Temperature: 298 K
Tabular data in the source: 0
pressure (bar)	uptake (mmol/g)
0.0648688	0.768675
0.0926935	0.839629
0.122924	0.934236
0.154367	1.02884
0.179786	1.07614
0.206408	1.13527
0.229402	1.18258
0.270587	1.21805
0.298403	1.30083
0.319018	1.28901
0.357751	1.35996
0.388027	1.39544
0.420737	1.41909
0.446164	1.45457
0.460701	1.4664
0.490986	1.49005
0.518846	1.5137
0.541859	1.53735
0.568489	1.58465
0.60848	1.59648
0.648444	1.64378
0.676296	1.67926
0.711421	1.71474
0.753818	1.75021
0.791375	1.77387
0.822882	1.78569
0.855591	1.80934
0.887088	1.83299
0.9101	1.85665
0.925849	1.86847
