Adsorption isotherm of Carbon Dioxide on Zn-MOF-74
DOI: 10.1021/Jz3008485
Adsorbate Carbon Dioxide: InChIKey CURLTUGMZLYLDI-UHFFFAOYSA-N
Temperature: 298 K
Tabular data in the source: 0
pressure (bar)	uptake (mmol/g)
0.0507492	1.85658
0.0761555	2.57705
0.101575	3.21438
0.128217	3.7963
0.150029	4.18424
0.173073	4.46134
0.199754	4.79387
0.226443	5.07097
0.25071	5.29265
0.278627	5.48662
0.299271	5.56975
0.350248	5.92998
0.401251	6.12396
0.448618	6.26251
0.499617	6.48419
0.549405	6.67816
0.600425	6.76129
0.650217	6.92755
0.700014	7.0661
0.749819	7.14923
0.79962	7.26007
0.849429	7.3155
0.899234	7.39863
0.95025	7.50947
1.00127	7.56489
