Adsorption isotherm of Carbon Dioxide on Pd(2-pymo)2
DOI: 10.1021/Jz3008485
Adsorbate Carbon Dioxide: InChIKey CURLTUGMZLYLDI-UHFFFAOYSA-N
Temperature: 298 K
Tabular data in the source: 0
pressure (bar)	uptake (mmol/g)
0.0516706	0.591288
0.0770531	0.685894
0.110911	0.792326
0.123015	0.815978
0.143576	0.875107
0.167773	0.934236
0.179885	0.946061
0.222255	1.01702
0.250107	1.05249
0.270704	1.06432
0.282816	1.07614
0.299777	1.08797
0.309465	1.0998
0.321586	1.0998
0.333698	1.11162
0.349438	1.13527
0.359135	1.13527
0.371247	1.1471
0.383359	1.15893
0.407584	1.18258
0.419696	1.1944
0.431817	1.1944
0.443929	1.20623
0.458466	1.21805
0.470587	1.21805
0.482699	1.22988
0.508136	1.25353
0.520257	1.25353
0.532369	1.26536
0.54449	1.26536
0.559027	1.27718
0.571148	1.27718
0.58326	1.28901
0.607494	1.30083
0.619615	1.30083
0.631727	1.31266
0.643848	1.31266
0.658385	1.32449
0.670506	1.32449
0.682618	1.33631
0.706851	1.34814
0.718964	1.35996
0.731076	1.37179
0.743197	1.37179
0.757733	1.38361
0.769855	1.38361
0.781976	1.38361
0.809837	1.40727
0.821958	1.40727
0.83407	1.41909
0.857082	1.44274
0.869204	1.44274
0.881316	1.45457
0.893437	1.45457
0.906761	1.4664
0.918883	1.4664
0.931004	1.4664
0.943125	1.4664
0.957661	1.47822
0.969783	1.47822
0.981895	1.49005
0.996422	1.5137
