Adsorption isotherm of Carbon Dioxide on MOF-74-Ni
DOI: 10.1021/Jz3008485
Adsorbate Carbon Dioxide: InChIKey CURLTUGMZLYLDI-UHFFFAOYSA-N
Temperature: 298 K
Tabular data in the source: 0
pressure (bar)	uptake (mmol/g)
0.0131508	1.30202
0.020369	1.71747
0.0239675	1.99447
0.0324204	2.27134
0.038463	2.43743
0.0444929	2.68666
0.0517407	2.90814
0.0637836	3.51743
0.096462	4.09844
0.123102	4.48564
0.141306	4.48514
0.150994	4.62342
0.161903	4.70625
0.174026	4.78904
0.18615	4.87184
0.197059	4.95467
0.207969	5.03749
0.220092	5.12029
0.231002	5.20312
0.243125	5.28591
0.269803	5.42372
0.281935	5.4511
0.292849	5.50622
0.304981	5.53359
0.317113	5.56096
0.329244	5.58834
0.340158	5.64346
0.35229	5.67083
0.364422	5.6982
0.37534	5.72561
0.387467	5.7807
0.399599	5.80807
0.410517	5.83548
0.422649	5.86285
0.434777	5.91794
0.446908	5.94531
0.457826	5.97272
0.469958	6.00009
0.482086	6.05518
0.493004	6.08258
0.505136	6.10996
0.517267	6.13733
0.528181	6.19245
0.540313	6.21982
0.552445	6.2472
0.564576	6.27457
0.57549	6.32969
0.587622	6.35706
0.599754	6.38444
0.611886	6.41181
0.6228	6.46693
0.634931	6.4943
0.657981	6.54909
0.670113	6.57646
0.682249	6.57612
0.693167	6.60353
0.705299	6.6309
0.717435	6.63057
0.729567	6.65794
0.741698	6.68532
0.752616	6.71272
0.764752	6.71239
0.776884	6.73976
0.789016	6.76714
0.801148	6.79451
0.813284	6.79417
0.824202	6.82158
0.836333	6.84896
0.848465	6.87633
0.860601	6.87599
0.872733	6.90337
0.883651	6.93077
0.895787	6.93044
0.907919	6.95781
0.920051	6.98519
0.932182	7.01256
0.944318	7.01222
0.95645	7.0396
0.967368	7.06701
0.981923	7.12202
