Adsorption isotherm of Carbon Dioxide on IRMOF-1
DOI: 10.1021/Jz3008485
Adsorbate Carbon Dioxide: InChIKey CURLTUGMZLYLDI-UHFFFAOYSA-N
Temperature: 298 K
Tabular data in the source: 0
pressure (bar)	uptake (mmol/g)
0.0509709	1.39373
0.098301	3.83275
0.150485	5.57491
0.201456	7.31707
0.248786	9.40767
0.299757	11.1498
0.347087	13.2404
0.402913	14.2857
0.451456	17.0732
0.5	18.8153
0.599515	23.3449
0.651699	25.0871
0.697816	27.5261
0.800971	30.3136
0.849515	33.101
0.899272	34.4948
0.951456	36.5854
1.00121	39.3728
