Adsorption isotherm of Carbon Dioxide on CuBTC
DOI: 10.1021/Jz3008485
Adsorbate Carbon Dioxide: InChIKey CURLTUGMZLYLDI-UHFFFAOYSA-N
Temperature: 298 K
Tabular data in the source: 0
pressure (bar)	uptake (mmol/g)
0.0570388	8.17214
0.0679612	8.39399
0.0788835	8.61583
0.0898058	8.8933
0.100728	9.17076
0.106796	9.33727
0.118932	9.50344
0.129854	9.66967
0.140777	9.89152
0.162621	10.2796
0.174757	10.4458
0.18568	10.612
0.20267	10.9448
0.213592	11.0554
0.225728	11.2215
0.23665	11.3878
0.259709	11.6646
0.271845	11.7195
0.282767	11.8301
0.300971	11.9403
0.31068	12.051
0.322816	12.1616
0.333738	12.2722
0.348301	12.5495
0.360437	12.5488
0.372573	12.6037
0.383495	12.7144
0.410194	12.9353
0.42233	12.9903
0.433252	13.1009
0.451456	13.2667
0.458738	13.2663
0.470874	13.3213
0.48301	13.3762
0.508495	13.486
0.520631	13.5409
0.532767	13.5403
0.558252	13.6501
0.570388	13.705
0.582524	13.7043
0.609223	13.8141
0.621359	13.869
0.632282	13.924
0.650485	14.0343
0.658981	14.0894
0.671117	14.1443
0.683252	14.1437
0.708738	14.2535
0.720874	14.2528
0.73301	14.3077
0.758495	14.3619
0.770631	14.4169
0.782767	14.4162
0.808252	14.4704
0.820388	14.5253
0.832524	14.5247
0.84466	14.524
0.850728	14.6349
0.85801	14.5232
0.870146	14.5782
0.882282	14.5775
0.894417	14.5768
0.907767	14.5761
0.919903	14.631
0.932039	14.686
0.942961	14.741
0.950243	14.8518
0.957524	14.7958
0.96966	14.8507
0.981796	14.9057
0.993932	14.905
1.00121	15.0158
