Adsorption isotherm of Carbon Dioxide on MOF-74-Ni
DOI: 10.1021/Jz3008485
Adsorbate Carbon Dioxide: InChIKey CURLTUGMZLYLDI-UHFFFAOYSA-N
Temperature: 298 K
Tabular data in the source: 0
pressure (bar)	uptake (mmol/g)
0.0472882	0.274834
0.0739536	0.49501
0.100636	0.604729
0.12731	0.769676
0.151561	0.907076
0.169752	0.989416
0.213404	1.23674
0.225527	1.31924
0.236437	1.40178
0.26311	1.56673
0.275234	1.64924
0.286148	1.70417
0.314031	1.89669
0.324945	1.95162
0.337068	2.03413
0.362533	2.17149
0.373438	2.28165
0.384348	2.36419
0.39404	2.47438
0.412235	2.5291
0.421927	2.63929
0.434051	2.7218
0.442525	2.85963
0.454669	2.80407
0.461951	2.80387
0.470425	2.94171
0.481339	2.99663
0.541951	3.43678
0.554091	3.40883
0.56257	3.51906
0.574697	3.57395
0.586821	3.65646
0.595303	3.73906
0.607439	3.73873
0.615918	3.84895
0.628045	3.90384
0.638963	3.93116
0.760247	4.42486
0.768725	4.53508
0.779635	4.61762
0.789327	4.72781
0.800254	4.69989
0.811176	4.69959
0.822086	4.78213
0.833	4.83706
0.859686	4.91916
0.870596	5.00171
0.88151	5.05663
0.897261	5.22188
0.922734	5.30402
0.951848	5.38606
0.97853	5.49578
1.00037	5.5504
