Adsorption isotherm of Carbon Dioxide on CuBTC
DOI: 10.1021/Jz3008485
Adsorbate Carbon Dioxide: InChIKey CURLTUGMZLYLDI-UHFFFAOYSA-N
Temperature: 298 K
Tabular data in the source: 0
pressure (bar)	uptake (mmol/g)
0.0520998	0.396209
0.0993834	0.613754
0.151509	0.89079
0.198818	0.989161
0.249734	1.24636
0.299466	1.36454
0.350416	1.46284
0.400131	1.66048
0.449875	1.71908
0.500808	1.89682
0.55054	2.01501
0.600277	2.11333
0.648795	2.23154
0.698519	2.38945
0.730042	2.52786
0.74946	2.52748
0.776142	2.60639
0.800427	2.54633
0.824656	2.74447
0.850116	2.86313
0.875585	2.94208
0.901066	2.96143
0.948371	3.07967
0.99812	3.1184
