Adsorption isotherm of Carbon Dioxide on Mg-MOF-74
DOI: 10.1021/Jz3008485
Adsorbate Carbon Dioxide: InChIKey CURLTUGMZLYLDI-UHFFFAOYSA-N
Temperature: 298 K
Tabular data in the source: 0
pressure (bar)	uptake (mmol/g)
0.0497502	0.504941
0.103128	1.14453
0.150443	1.68314
0.177125	2.05343
0.214734	2.49104
0.225651	2.6257
0.236569	2.76035
0.251123	2.96232
0.26326	3.06331
0.274178	3.19796
0.285095	3.33261
0.313001	3.63558
0.323919	3.77023
0.336056	3.87122
0.363962	4.17418
0.374884	4.27517
0.387021	4.37616
0.412502	4.64546
0.423419	4.78011
0.435556	4.8811
0.462252	5.1504
0.47317	5.28505
0.485307	5.38604
0.512007	5.62168
0.522929	5.72267
0.535066	5.82366
0.562985	6.02564
0.575123	6.12662
0.586045	6.22761
0.612754	6.39593
0.623676	6.49691
0.635817	6.56424
0.660096	6.73255
0.672242	6.76622
0.683169	6.83354
0.713519	7.03552
0.72566	7.10284
0.736587	7.17017
0.763296	7.33848
0.775438	7.40581
0.786369	7.43947
0.813082	7.57412
0.825228	7.60779
0.836155	7.67511
0.862868	7.80976
0.87501	7.87709
0.885937	7.94441
0.926007	8.14639
0.951505	8.28104
0.998857	8.55034
