Adsorption isotherm of Carbon Dioxide on Mg-MOF-74
DOI: 10.1021/Jz3008485
Adsorbate Carbon Dioxide: InChIKey CURLTUGMZLYLDI-UHFFFAOYSA-N
Temperature: 298 K
Tabular data in the source: 0
pressure (bar)	uptake (mmol/g)
0.0593943	1.07721
0.0690878	1.27919
0.0787813	1.48116
0.0884794	1.64948
0.0981729	1.85145
0.109081	2.05343
0.118775	2.25541
0.128469	2.45738
0.138167	2.6257
0.149075	2.82767
0.158773	2.99599
0.168471	3.1643
0.17938	3.36628
0.190297	3.50093
0.199991	3.7029
0.208478	3.83756
0.218172	4.03953
0.22787	4.20785
0.238779	4.40982
0.248477	4.57814
0.259394	4.71279
0.270312	4.84744
0.281225	5.01575
0.292152	5.08308
0.30185	5.25139
0.309127	5.35238
0.320044	5.48703
0.330962	5.62168
0.341884	5.72267
0.351586	5.85732
0.358868	5.92465
0.369785	6.0593
0.380703	6.19395
0.39163	6.26127
0.402543	6.42959
0.409829	6.46325
0.42197	6.53058
0.432897	6.5979
0.459601	6.79988
0.471743	6.8672
0.482665	6.96819
0.494811	7.00186
0.50937	7.17017
0.520292	7.27116
0.536069	7.40581
0.551861	7.43947
0.600423	7.74244
0.627136	7.87709
0.651411	8.07906
0.669628	8.14639
0.681774	8.18005
0.709703	8.3147
0.721844	8.38203
0.732775	8.41569
0.759493	8.51668
0.771639	8.55034
0.783786	8.58401
0.809289	8.68499
0.821435	8.71866
0.832361	8.78598
0.860294	8.88697
0.87244	8.92063
0.884587	8.9543
0.908879	9.02162
0.921021	9.08895
0.931947	9.15627
0.959876	9.29092
0.972022	9.32459
0.984173	9.32459
0.998744	9.39191
