Adsorption isotherm of Carbon Dioxide on MOF-74-Ni
DOI: 10.1021/Jz3008485
Adsorbate Carbon Dioxide: InChIKey CURLTUGMZLYLDI-UHFFFAOYSA-N
Temperature: 298 K
Tabular data in the source: 0
pressure (bar)	uptake (mmol/g)
0.0509121	0.38519
0.0800047	0.605298
0.0981876	0.742866
0.112738	0.825306
0.128494	0.962941
0.150313	1.12802
0.162441	1.18292
0.173346	1.29307
0.18547	1.37558
0.209712	1.56821
0.220618	1.67836
0.232741	1.76087
0.259402	2.00866
0.271526	2.09117
0.282435	2.17371
0.309101	2.39388
0.32001	2.47642
0.332134	2.55893
0.358803	2.75149
0.370931	2.80638
0.381836	2.91654
0.408506	3.1091
0.419416	3.19164
0.431539	3.27415
0.458205	3.49432
0.470328	3.57683
0.481238	3.65937
0.490942	3.68672
0.50063	3.82452
0.509117	3.87951
0.520026	3.96205
0.532154	4.01695
0.544286	4.04423
0.552768	4.12683
0.558824	4.20951
0.570951	4.2644
0.581865	4.31933
0.594001	4.31899
0.602484	4.4016
0.609761	4.42901
0.621889	4.48391
0.632807	4.51122
0.659493	4.59332
0.670403	4.67587
0.682531	4.73076
0.709204	4.89571
0.721332	4.9506
0.732246	5.00553
0.758928	5.11524
0.771056	5.17014
0.781974	5.19745
0.808656	5.30717
0.820788	5.33445
0.831702	5.38937
0.858384	5.49909
0.870512	5.55399
0.88143	5.5813
0.909326	5.69099
0.921457	5.71826
0.933589	5.74554
0.959062	5.82768
0.97119	5.88257
0.982108	5.90989
0.997872	5.99229
