Adsorption isotherm of Carbon Dioxide on MOF-74-Ni
DOI: 10.1021/Jz3008485
Adsorbate Carbon Dioxide: InChIKey CURLTUGMZLYLDI-UHFFFAOYSA-N
Temperature: 298 K
Tabular data in the source: 0
pressure (bar)	uptake (mmol/g)
0.052172	0.0814013
0.0679488	0.0809656
0.0800848	0.0806305
0.112839	0.162568
0.124971	0.189847
0.137107	0.189512
0.161371	0.24407
0.173506	0.243735
0.185638	0.271014
0.207479	0.298025
0.219611	0.325304
0.231747	0.324968
0.24266	0.379895
0.252369	0.379627
0.263292	0.379325
0.275423	0.406604
0.287559	0.406269
0.298478	0.433582
0.310613	0.433247
0.322745	0.460526
0.334877	0.487804
0.345799	0.487503
0.356722	0.487201
0.366426	0.514547
0.378558	0.541826
0.390694	0.541491
0.401612	0.568804
0.413748	0.568468
0.42588	0.595747
0.438016	0.595412
0.450148	0.622691
0.462284	0.622356
0.474415	0.649635
0.485334	0.676948
0.496252	0.70426
0.507174	0.703959
0.519306	0.731238
0.531438	0.758517
0.543565	0.81341
0.553278	0.785527
0.56541	0.812806
0.577542	0.840085
0.589678	0.83975
0.601809	0.867029
0.613945	0.866694
0.626077	0.893973
0.636995	0.921286
0.647913	0.948598
0.657622	0.94833
0.669758	0.947995
0.68189	0.975274
0.692808	1.00259
0.704944	1.00225
0.717076	1.02953
0.729212	1.0292
0.741344	1.05647
0.753475	1.08375
0.765611	1.08342
0.77653	1.11073
0.788661	1.13801
0.800793	1.16529
0.812929	1.16495
0.825061	1.19223
0.837197	1.1919
0.848115	1.21921
0.860251	1.21887
0.872383	1.24615
0.884514	1.27343
0.896646	1.30071
0.908782	1.30038
0.9197	1.32769
0.931832	1.35497
0.943964	1.38225
0.9561	1.38191
0.968232	1.40919
0.980368	1.40886
0.991281	1.46378
0.999777	1.46355
