Adsorption isotherm of Carbon Dioxide on Mg-MOF-74
DOI: 10.1021/Jz3008485
Adsorbate Carbon Dioxide: InChIKey CURLTUGMZLYLDI-UHFFFAOYSA-N
Temperature: 298 K
Tabular data in the source: 0
pressure (bar)	uptake (mmol/g)
0.00333018	2.35639
0.0129652	2.99599
0.0141038	3.56825
0.0285856	4.30883
0.0467216	4.98209
0.0709464	5.55436
0.0927771	5.85732
0.140124	6.16029
0.151046	6.26127
0.161973	6.3286
0.174119	6.36226
0.185046	6.42959
0.197187	6.49691
0.208114	6.56424
0.220256	6.63156
0.232402	6.66523
0.243328	6.73255
0.25547	6.79988
0.282188	6.90087
0.294334	6.93453
0.30648	6.96819
0.317411	7.00186
0.329558	7.03552
0.341708	7.03552
0.353854	7.06918
0.366001	7.10284
0.376932	7.13651
0.389078	7.17017
0.401224	7.20383
0.41337	7.23749
0.424301	7.27116
0.436448	7.30482
0.448598	7.30482
0.460744	7.33848
0.472891	7.37215
0.483822	7.40581
0.495968	7.43947
0.534836	7.54046
0.597993	7.74244
0.658728	7.87709
0.687881	7.94441
0.709743	8.01174
0.720688	7.94441
0.732834	7.97808
0.744984	7.97808
0.757131	8.01174
0.769277	8.0454
0.780212	8.0454
0.792359	8.07906
0.804509	8.07906
0.816655	8.11273
0.828802	8.14639
0.840952	8.14639
0.853098	8.18005
0.86403	8.21371
0.87618	8.21371
0.888326	8.24738
0.938122	8.41569
0.978219	8.41569
0.989154	8.41569
