Adsorption isotherm of Carbon Dioxide on SCWNH
DOI: 10.1021/jp208766u
Article source: Figure 2
Adsorbate Carbon Dioxide: InChIKey CURLTUGMZLYLDI-UHFFFAOYSA-N
Kind: experiment
Temperature: 173 K
Tabular data in the source: 0
pressure (bar)	uptake (mol/g)
0.000148	0.000463
0.001205	0.001032
0.003482	0.001474
0.006479	0.001789
0.009799	0.002084
0.013363	0.002316
0.016861	0.002547
0.020733	0.002737
0.024843	0.002926
0.029007	0.003095
0.036597	0.003347
0.041638	0.003516
0.046164	0.003663
0.052527	0.003811
0.055299	0.003937
0.071572	0.004316
0.085721	0.004632
0.100048	0.004926
0.129411	0.005495
