Adsorption isotherm of Carbon Dioxide on SCWNH
DOI: 10.1021/jp208766u
Article source: Figure 2
Adsorbate Carbon Dioxide: InChIKey CURLTUGMZLYLDI-UHFFFAOYSA-N
Kind: experiment
Temperature: 180 K
Tabular data in the source: 0
pressure (bar)	uptake (mol/g)
0.000137	0.000189
0.000298	0.000379
0.000682	0.000611
0.001175	0.000779
0.001825	0.000905
0.002761	0.001053
0.003671	0.001158
0.004515	0.001263
0.005699	0.001368
0.006831	0.001453
0.007978	0.001537
0.009079	0.001621
0.013384	0.001832
0.017787	0.002042
0.021316	0.002189
0.026899	0.002379
0.03141	0.002526
0.039629	0.002779
0.048726	0.002989
0.05689	0.003179
0.066421	0.003368
0.092899	0.003811
0.117153	0.004211
0.140314	0.004526
0.168019	0.004905
0.196087	0.005221
0.223013	0.005516
0.253618	0.005811
0.265982	0.007116
