Adsorption isotherm of Carbon Dioxide on SCWNH
DOI: 10.1021/jp208766u
Article source: Figure 2
Adsorbate Carbon Dioxide: InChIKey CURLTUGMZLYLDI-UHFFFAOYSA-N
Kind: experiment
Temperature: 193 K
Tabular data in the source: 0
pressure (bar)	uptake (mol/g)
0.001827	0.000505
0.005709	0.000842
0.014126	0.001179
0.021931	0.001411
0.02915	0.001579
0.035851	0.001705
0.041869	0.001811
0.048893	0.001937
0.054223	0.002
0.060125	0.002105
0.068416	0.002232
0.073928	0.002316
0.081981	0.0024
0.111767	0.002737
0.144717	0.002989
0.168928	0.003242
0.197228	0.003432
0.2244	0.0036
0.282939	0.004042
0.338841	0.0044
0.395492	0.004674
0.438224	0.004989
0.696056	0.006168
0.771649	0.006358
0.7915	0.006505
0.833163	0.006695
0.854853	0.006758
0.899582	0.007011
0.900032	0.006863
