Adsorption isotherm of Carbon Dioxide on SCWNH
DOI: 10.1021/jp208766u
Article source: Figure 2
Adsorbate Carbon Dioxide: InChIKey CURLTUGMZLYLDI-UHFFFAOYSA-N
Kind: experiment
Temperature: 160 K
Tabular data in the source: 0
pressure (bar)	uptake (mol/g)
0.000196	0.001137
0.000338	0.001411
0.000553	0.001663
0.000814	0.001916
0.00114	0.002126
0.001555	0.002358
0.002013	0.002568
0.00254	0.002779
0.003124	0.002968
0.003647	0.003158
0.004258	0.003326
0.004844	0.003516
0.00537	0.003705
