Adsorption isotherm of Carbon Dioxide on SCWNH
DOI: 10.1021/jp208766u
Article source: Figure 2
Adsorbate Carbon Dioxide: InChIKey CURLTUGMZLYLDI-UHFFFAOYSA-N
Kind: experiment
Temperature: 147 K
Tabular data in the source: 0
pressure (bar)	uptake (mol/g)
3.1e-05	0.000674
8.3e-05	0.000989
0.000177	0.001305
0.000329	0.001621
0.000567	0.001916
0.000857	0.002189
0.001231	0.002463
0.001722	0.002737
0.002173	0.002989
0.002741	0.003263
0.003284	0.003495
0.003833	0.003768
0.004249	0.004021
0.004709	0.004295
0.005218	0.004568
