Adsorption isotherm of Nitrogen on CuP-SQ COF
DOI: 10.1002/anie.201300256
Article source: Figure 3a
Adsorbate Nitrogen: InChIKey IJGRMHOSHXDMSA-UHFFFAOYSA-N
Kind: experiment
Temperature: 77 K
Tabular data in the source: 0
pressure (bar)	uptake (cm3(STP)/g)
0.007203	110.308
0.036016	136.019
0.048021	140.166
0.069631	145.142
0.086438	147.63
0.100845	149.289
0.108048	150.118
0.122454	151.777
0.136861	153.436
0.148866	154.265
0.168075	156.754
0.187283	158.412
0.204091	160.071
0.216096	162.559
0.232903	162.559
0.249711	163.389
0.273722	165.877
0.297732	167.536
0.309738	169.194
0.357759	174.171
0.415384	176.659
0.456203	179.147
0.506625	181.635
0.554646	185.782
0.609871	189.1
0.655491	193.246
0.696309	196.564
0.763539	202.37
0.821165	209.834
0.857181	213.981
0.902801	222.275
0.960427	247.156
0.982036	284.479
0.994041	313.507
0.974833	274.526
0.912405	247.156
0.864384	240.521
0.806758	233.886
0.761138	228.91
0.708315	225.592
0.660293	221.445
0.614673	218.128
0.554646	216.469
0.501823	209.834
0.456203	193.246
0.398577	188.27
0.350556	185.782
0.300133	181.635
0.280925	181.635
0.259315	180.806
0.249711	179.976
0.232903	179.976
0.220898	178.318
0.213695	177.488
0.199289	177.488
0.187283	175.829
0.177679	173.341
0.15847	171.682
0.146465	170.853
0.13446	170.024
0.124855	169.194
0.115251	169.194
0.108048	167.536
0.014406	136.019
