Adsorption isotherm of Nitrogen on IRMOF-1
DOI: 10.1016/j.enconman.2009.01.014
Adsorbate Nitrogen: InChIKey IJGRMHOSHXDMSA-UHFFFAOYSA-N
Temperature: 77 K
Tabular data in the source: 0
pressure (bar)	uptake (cm3(STP)/g)
0.0193041	153.597
0.0367831	162.008
0.0673713	165.067
0.161321	171.185
0.373254	176.538
0.539304	178.067
0.744682	181.891
0.849556	182.655
0.952245	191.067
0.982834	210.949
0.987203	242.302
