Adsorption isotherm of Nitrogen on IRMOF-1
DOI: 10.1016/j.enconman.2009.01.014
Adsorbate Nitrogen: InChIKey IJGRMHOSHXDMSA-UHFFFAOYSA-N
Temperature: 77 K
Tabular data in the source: 0
pressure (bar)	uptake (cm3(STP)/g)
0.00182509	2.94945
0.00182509	156.655
0.0345982	165.832
0.113254	176.538
0.218128	179.597
0.445354	186.479
0.692245	193.361
0.810228	198.714
0.904178	208.655
0.96317	225.479
0.987203	337.126
