Adsorption isotherm of Argon on COF-5
DOI: 10.1126/science.1120411
Article source: Figure S26
Adsorbate Argon: InChIKey XKRFYHLGVUSROY-UHFFFAOYSA-N
Kind: experiment
Temperature: 87 K
Tabular data in the source: 0
pressure (bar)	uptake (cm3(STP)/g)
0.092332	31.5036
0.092332	51.5513
0.094045	71.5991
0.095757	88.7828
0.095757	97.3747
0.09747	111.695
0.099173	128.878
0.099173	143.198
0.101737	163.246
0.111143	223.389
0.119697	266.348
0.129954	296.42
0.139359	322.196
0.147052	337.947
0.155606	352.267
0.167575	375.179
0.176119	389.499
0.182961	398.091
0.191515	416.706
0.203484	432.458
0.215454	452.506
0.223998	475.418
0.232552	504.057
0.241958	574.224
0.251363	667.303
0.259907	710.263
0.270164	727.446
0.283846	730.31
0.326597	738.902
0.374475	756.086
0.418928	766.11
0.466807	776.134
0.512973	787.589
0.559149	793.317
0.576247	799.045
0.649768	807.637
0.699359	817.661
0.747238	824.821
0.792552	834.845
0.838718	843.437
0.885746	853.461
0.932763	862.052
0.978077	877.804
1.02168	1088.31
0.093193	5.72792
0.160734	373.747
0.209464	453.938
0.236829	551.313
0.241096	601.432
0.25563	721.718
0.287272	740.334
0.300944	744.63
0.309499	744.63
0.318043	750.358
0.334289	754.654
0.348823	758.95
0.362506	761.814
0.393286	767.542
0.403543	770.406
0.441165	778.998
0.486469	789.021
0.534348	801.909
0.581375	811.933
0.62669	820.525
0.673707	827.685
0.721586	836.277
0.767762	844.869
0.811363	849.165
0.85838	859.189
0.906259	867.78
0.950722	882.1
