Adsorption isotherm of Nitrogen on COF-5
DOI: 10.1126/science.1120411
Article source: Figure 4(c)
Adsorbate Nitrogen: InChIKey IJGRMHOSHXDMSA-UHFFFAOYSA-N
Kind: experiment
Temperature: 77 K
Tabular data in the source: 0
pressure (bar)	uptake (cm3(STP)/g)
0.091557	19.0889
0.091557	39.9132
0.091557	60.7375
0.091557	74.6204
0.094607	116.269
0.097667	150.976
0.094607	178.742
0.100717	196.095
0.103767	227.332
0.115977	279.393
0.125126	289.805
0.134286	310.629
0.146496	327.983
0.161755	345.336
0.167855	355.748
0.173965	369.631
0.183115	386.985
0.192274	400.868
0.201434	425.163
0.212114	463.341
0.221263	518.872
0.231953	548.373
0.241103	553.579
0.250263	560.521
0.262472	560.521
0.279252	567.462
0.32503	577.874
0.370809	586.551
0.416588	595.228
0.462376	600.434
0.509675	605.64
0.555454	614.317
0.598182	629.935
0.647011	636.876
0.692789	642.082
0.738578	649.024
0.784357	654.23
0.831655	661.171
0.877434	666.377
0.923213	671.583
0.970521	680.26
1.01172	746.204
0.091557	1.73536
0.109867	255.098
0.158705	355.748
0.193804	413.015
0.207534	463.341
0.225843	551.844
0.242633	562.256
0.253312	563.991
0.260942	569.197
0.299091	574.403
0.34792	586.551
0.393698	593.492
0.439477	598.698
0.485266	609.111
0.531044	614.317
0.575293	626.464
0.621072	633.406
0.66838	638.612
0.712629	645.553
0.759937	650.759
0.805716	657.701
0.853025	664.642
0.898803	671.583
0.944582	680.26
