Adsorption isotherm of Nitrogen on COF-1
DOI: 10.1126/science.1120411
Adsorbate Nitrogen: InChIKey IJGRMHOSHXDMSA-UHFFFAOYSA-N
Temperature: 77 K
Tabular data in the source: 0
pressure (bar)	uptake (cm3(STP)/g)
0.00182509	10.3936
0.00182509	161.15
0.00400996	66.1079
0.00619484	106.091
0.0127495	174.915
0.0345982	184.091
0.0826654	196.545
0.18317	213.587
0.26838	220.142
0.34485	224.074
0.478128	227.352
0.556783	232.595
0.720649	239.15
0.797119	245.049
0.858296	250.293
0.932581	262.091
0.982834	280.444
