Adsorption isotherm of Nitrogen on COF-1
DOI: 10.1126/science.1120411
Article source: Figure 4(a)
Adsorbate Nitrogen: InChIKey IJGRMHOSHXDMSA-UHFFFAOYSA-N
Kind: experiment
Temperature: 77 K
Tabular data in the source: 0
pressure (bar)	uptake (cm3(STP)/g)
0.092945	9.89011
0.092945	67.9121
0.092945	105.495
0.094465	159.56
0.100565	168.791
0.105135	174.066
0.123414	183.956
0.144753	189.89
0.172171	197.143
0.19655	202.418
0.217889	207.033
0.262077	213.626
0.297115	216.923
0.335213	219.56
0.374821	220.879
0.40987	223.516
0.455577	226.154
0.481486	226.154
0.530244	228.132
0.577471	230.11
0.6049	232.088
0.711565	236.703
0.755743	240
0.827359	245.934
0.854788	248.571
0.880687	251.868
0.912685	256.484
0.950783	264.396
0.975162	271.648
0.985821	275.604
0.994961	280.22
0.091426	-0.65934
0.092945	56.044
0.092945	77.1429
0.092945	95.6044
0.092945	118.022
0.092945	144.396
0.094465	152.308
0.099035	171.429
0.135603	193.187
0.152373	197.143
0.166082	199.78
0.187411	203.736
0.21027	205.714
0.236168	209.011
0.271217	210.989
0.310835	213.626
0.335213	214.945
0.461677	222.198
0.582051	229.451
0.700895	235.385
0.839549	247.253
0.946203	260.44
