Adsorption isotherm of Argon on COF-1
DOI: 10.1126/science.1120411
Article source: Figure S25
Adsorbate Argon: InChIKey XKRFYHLGVUSROY-UHFFFAOYSA-N
Kind: experiment
Temperature: 87 K
Tabular data in the source: 0
pressure (bar)	uptake (cm3(STP)/g)
0.091146	16.6865
0.091146	23.3611
0.091987	35.7569
0.090305	42.4315
0.091987	51.0131
0.092838	75.3278
0.091987	92.9678
0.091987	105.364
0.091987	113.945
0.091987	121.097
0.091987	127.294
0.091987	133.015
0.091987	137.783
0.09368	149.702
0.09368	158.76
0.09368	163.528
0.097055	169.249
0.103805	177.831
0.109714	184.505
0.12069	188.319
0.130815	192.133
0.137565	194.994
0.146008	197.855
0.15444	198.808
0.166258	200.715
0.176383	203.576
0.186518	205.483
0.233779	213.111
0.280198	218.832
0.327458	224.076
0.373026	230.751
0.420297	235.995
0.465864	240.763
0.512284	246.007
0.559544	250.775
0.605122	256.019
0.651541	261.74
0.698802	267.461
0.745221	273.659
0.790789	281.287
0.836367	289.392
0.883627	300.834
0.929205	314.184
0.978989	339.452
0.115622	191.18
0.162042	206.913
0.208461	214.541
0.25488	221.692
0.301289	226.937
0.346867	232.181
0.394128	236.949
0.441388	236.949
0.488648	243.623
0.533385	251.251
0.579804	257.926
0.626224	265.077
0.673484	269.845
0.720744	276.043
0.767164	283.194
0.81189	290.822
0.859151	302.265
0.904729	313.707
0.951989	332.3
