Adsorption isotherm of Carbon Dioxide on COF-1
DOI: 10.1126/science.1120411
Article source: Figure S32
Adsorbate Carbon Dioxide: InChIKey CURLTUGMZLYLDI-UHFFFAOYSA-N
Kind: experiment
Temperature: 273 K
Tabular data in the source: 0
pressure (bar)	uptake (cm3(STP)/g)
0.029832	1.84751
0.031819	1.93548
0.035792	2.11144
0.041751	2.37537
0.045725	2.55132
0.051684	2.90323
0.057644	3.07918
0.067576	3.51906
0.077509	3.87097
0.085455	4.1349
0.097409	4.66276
0.107341	5.10264
0.122257	5.6305
0.139125	6.15836
0.155052	6.77419
0.173906	7.43402
0.194782	8.22581
0.218655	8.97361
0.246466	9.85337
0.276299	10.8211
0.310069	11.8328
0.347848	12.9326
0.390575	14.0762
0.439297	15.3519
0.490946	16.6276
0.550576	18.0352
0.620174	19.6188
0.697682	21.3343
0.78115	22.8739
0.874586	24.6334
