Adsorption isotherm of Nitrogen on COF-5
DOI: 10.1126/science.1120411
Adsorbate Nitrogen: InChIKey IJGRMHOSHXDMSA-UHFFFAOYSA-N
Temperature: 77 K
Tabular data in the source: 0
pressure (bar)	uptake (cm3(STP)/g)
0.00400996	15.4811
0.00400996	120.355
0.0105646	214.742
0.0258587	277.666
0.0651864	335.347
0.121993	426.237
0.137287	517.128
0.150397	548.59
0.202833	564.321
0.301153	581.8
0.449724	604.523
0.504346	609.767
0.548044	625.498
0.646363	639.481
0.801489	656.96
0.95006	677.935
0.995943	740.859
