Adsorption isotherm of Nitrogen on MIL-101
DOI: 10.1021/Cs300754k
Adsorbate Nitrogen: InChIKey IJGRMHOSHXDMSA-UHFFFAOYSA-N
Temperature: 77 K
Tabular data in the source: 0
pressure (bar)	uptake (cm3(STP)/g)
0.00801532	412.557
0.0294675	515.527
0.0537799	577.023
0.075232	629.938
0.0938239	671.413
0.123857	751.501
0.129577	788.684
0.149599	823.008
0.171052	838.739
0.208235	878.783
0.228257	954.581
0.243989	971.743
0.35268	987.474
0.445639	997.485
0.55147	1007.5
0.65158	1011.79
0.743109	1020.37
0.800315	1024.66
0.876112	1030.38
0.927597	1034.67
0.947619	1040.39
0.971932	1060.41
0.991954	1124.77
