Adsorption isotherm of Nitrogen on MIL-101
DOI: 10.1021/Cs300754k
Adsorbate Nitrogen: InChIKey IJGRMHOSHXDMSA-UHFFFAOYSA-N
Temperature: 77 K
Tabular data in the source: 0
pressure (bar)	uptake (cm3(STP)/g)
0.00229475	202.326
0.00372489	293.855
0.0108756	386.814
0.0208866	446.88
0.0480593	531.259
0.110986	677.133
0.136728	752.931
0.188213	800.125
0.206805	817.287
0.226827	888.794
0.242559	903.096
0.311206	918.827
0.397014	930.268
0.495694	937.419
0.594374	944.57
0.738818	958.871
0.843219	966.022
0.929027	977.463
0.960491	988.904
0.979082	1016.08
0.997674	1081.86
