Adsorption isotherm of Nitrogen on MIL-101
DOI: 10.1021/Cs300754k
Adsorbate Nitrogen: InChIKey IJGRMHOSHXDMSA-UHFFFAOYSA-N
Temperature: 77 K
Tabular data in the source: 0
pressure (bar)	uptake (cm3(STP)/g)
0.0165962	446.88
0.125287	730.048
0.142449	764.372
0.189643	802.986
0.225397	853.041
0.226827	874.493
0.232548	921.688
0.274022	928.838
0.3584	946
0.44993	957.441
0.55004	964.592
0.65015	971.743
0.743109	976.033
0.804605	980.323
0.843219	984.614
0.929027	991.765
0.95334	998.915
0.981943	1024.66
0.990524	1047.54
