Adsorption isotherm of Nitrogen on MIL-101
DOI: 10.1021/Cs300754k
Adsorbate Nitrogen: InChIKey IJGRMHOSHXDMSA-UHFFFAOYSA-N
Temperature: 77 K
Tabular data in the source: 0
pressure (bar)	uptake (cm3(STP)/g)
0.0137359	343.91
0.0223168	401.116
0.0409086	469.762
0.0623608	525.538
0.095254	594.185
0.115276	641.38
0.146739	702.876
0.185353	737.199
0.205375	755.791
0.222537	814.427
0.232548	831.589
0.278312	845.89
0.328367	851.611
0.401305	855.901
0.495694	868.772
0.598664	873.063
0.695914	878.783
0.794594	885.934
0.836068	887.364
0.904715	887.364
0.931888	893.085
0.963351	900.235
0.986233	918.827
0.991954	997.485
