Adsorption isotherm of Carbon Dioxide on ZIF-76
DOI: 10.1002/chem.200902144
Adsorbate Carbon Dioxide: InChIKey CURLTUGMZLYLDI-UHFFFAOYSA-N
Temperature: 298 K
Tabular data in the source: 0
pressure (bar)	uptake (mmol/g)
0.867052	1.42638
1.7341	2.07055
2.60116	2.57669
4.04624	3.12883
5.20231	3.86503
6.35838	4.23313
7.22543	4.73926
8.67052	5.33742
11.8497	6.39571
14.7399	7.31595
17.6301	7.96012
19.6532	8.32822
22.2543	8.65031
24.5665	8.83436
28.3237	9.29448
30.9249	9.47853
