Adsorption isotherm of Methane on ZIF-8
DOI: 10.1002/chem.200902144
Adsorbate Methane: InChIKey VNWKTOKETHGBQD-UHFFFAOYSA-N
Temperature: 303 K
Tabular data in the source: 0
pressure (bar)	uptake (mmol/g)
1.00699	0.539759
4.98344	2.29398
9.93276	3.60482
20.0415	4.89639
52.3179	5.9759
