Adsorption isotherm of Methane on ZIF-8
DOI: 10.1002/chem.200902144
Adsorbate Methane: InChIKey VNWKTOKETHGBQD-UHFFFAOYSA-N
Temperature: 303 K
Tabular data in the source: 0
pressure (bar)	uptake (mmol/g)
0.27555	0.0560748
0.30839	0.0560748
0.381953	0.0560748
0.452444	0.168224
0.478609	0.149533
0.506447	0.205607
0.606275	0.149533
0.678531	0.149533
0.879311	0.205607
1.04126	0.242991
1.07721	0.280374
1.192	0.261682
1.31933	0.299065
1.4768	0.336449
1.63455	0.373832
1.82979	0.429907
2.0251	0.448598
2.24178	0.523364
2.48145	0.579439
2.74674	0.635514
3.07483	0.691589
3.40383	0.766355
3.76773	0.82243
4.17087	0.897196
4.56618	1.00935
5.53339	1.17757
6.05734	1.27103
6.63143	1.38318
7.25879	1.45794
7.8584	1.58879
8.60318	1.70093
9.41857	1.81308
10.1958	1.92523
11.038	2.05607
11.949	2.16822
12.936	2.29907
14.0046	2.42991
15.1611	2.56075
16.4135	2.69159
17.7693	2.82243
19.2371	2.95327
20.8262	3.08411
22.5465	3.21495
24.1357	3.34579
26.1294	3.47664
28.2905	3.62617
30.6274	3.75701
33.1574	3.88785
35.8963	4.01869
38.8615	4.14953
