Adsorption isotherm of Carbon monoxide on ZIF-69
DOI: 10.1002/chem.200902144
Adsorbate Carbon monoxide: InChIKey UGFAIRIUMAVXCW-UHFFFAOYSA-N
Temperature: 273 K
Tabular data in the source: 0
pressure (bar)	uptake (mmol/g)
0.0423858	0.0213415
0.0711328	0.0426829
0.179654	0.0426829
0.293397	0.0853659
0.701704	0.192073
