Adsorption isotherm of Methane on ZIF-76
DOI: 10.1002/chem.200902144
Adsorbate Methane: InChIKey VNWKTOKETHGBQD-UHFFFAOYSA-N
Temperature: 303 K
Tabular data in the source: 0
pressure (bar)	uptake (mmol/g)
0.486261	0.192308
1	0.320513
5.21401	1.02564
10.7226	2.05128
21.0489	3.33333
52.1399	5.32051
