Adsorption isotherm of Carbon Dioxide on ZIF-8
DOI: 10.1002/chem.200902144
Adsorbate Carbon Dioxide: InChIKey CURLTUGMZLYLDI-UHFFFAOYSA-N
Temperature: 303 K
Tabular data in the source: 0
pressure (bar)	uptake (mmol/g)
0.210351	0.11215
0.235439	0.130841
0.365363	0.205607
0.408938	0.224299
0.542013	0.280374
0.599961	0.336449
0.726815	0.429907
0.804329	0.429907
0.890461	0.523364
1.07857	0.579439
1.16757	0.691589
1.2926	0.785047
1.54898	0.971963
1.69539	1.02804
1.87694	1.1215
2.15085	1.38318
2.35451	1.47664
2.52066	1.62617
2.8564	1.90654
3.12687	2
3.34726	2.13084
3.79339	2.42991
4.10609	2.52336
5.7825	3.60748
6.26017	3.73832
6.5527	3.88785
7.69028	4.46729
8.81883	4.8972
11.0785	5.58879
11.7274	5.73832
12.7072	6.07477
13.7556	6.18692
14.5626	6.35514
15.7783	6.6729
17.2735	6.78505
18.2852	6.93458
26.606	7.75701
29.128	7.86916
31.181	8
35.7314	8.26168
39.1111	8.33645
42.3419	8.46729
