Adsorption isotherm of Carbon monoxide on ZIF-69
DOI: 10.1002/chem.200902144
Adsorbate Carbon monoxide: InChIKey UGFAIRIUMAVXCW-UHFFFAOYSA-N
Temperature: 303 K
Tabular data in the source: 0
pressure (bar)	uptake (mmol/g)
-0.970414	0.0426829
-0.295858	0.106707
0	0.192073
0.721893	0.72561
1.00592	1.21646
1.31361	1.85671
1.70414	2.43293
