Adsorption isotherm of Nitrogen on ZIF-8
DOI: 10.1002/chem.200902144
Adsorbate Nitrogen: InChIKey IJGRMHOSHXDMSA-UHFFFAOYSA-N
Temperature: 303 K
Tabular data in the source: 0
pressure (bar)	uptake (mmol/g)
0.494817	0.0373832
0.972474	0.0560748
4.98476	0.448598
10.0348	0.82243
19.9954	1.43925
51.1387	2.50467
