Adsorption isotherm of Methane on ZIF-76
DOI: 10.1002/chem.200902144
Adsorbate Methane: InChIKey VNWKTOKETHGBQD-UHFFFAOYSA-N
Temperature: 298 K
Tabular data in the source: 0
pressure (bar)	uptake (mmol/g)
0.596079	0.803784
1.71591	0.857756
2.01104	1.19715
3.41436	1.34051
3.98716	1.64428
5.39132	1.8055
6.24179	2.07366
7.64511	2.21702
8.77575	2.50313
10.4584	2.64659
12.1477	2.93291
13.8295	3.05851
15.7965	3.30921
17.4783	3.43481
19.7263	3.72133
21.6875	3.84703
24.2123	4.08008
26.1735	4.20578
28.6974	4.42096
30.6586	4.54666
34.0206	4.76215
36.2602	4.87009
39.3421	5.06762
41.5809	5.15771
45.2206	5.33758
47.4586	5.40981
