Adsorption isotherm of Methane on ZIF-8
DOI: 10.1002/chem.200902144
Adsorbate Methane: InChIKey VNWKTOKETHGBQD-UHFFFAOYSA-N
Temperature: 303 K
Tabular data in the source: 0
pressure (bar)	uptake (mmol/g)
0.489509	0.149533
0.984417	0.280374
5.00328	1.3271
10.211	2.28037
20.1809	3.62617
52.8762	5.08411
