Adsorption isotherm of Carbon Dioxide on ZIF-69
DOI: 10.1002/chem.200902144
Adsorbate Carbon Dioxide: InChIKey CURLTUGMZLYLDI-UHFFFAOYSA-N
Temperature: 298 K
Tabular data in the source: 0
pressure (bar)	uptake (mmol/g)
0.552114	1.04253
0.684562	1.20108
0.796657	1.33972
0.918879	1.47861
