Adsorption isotherm of Carbon Dioxide on ZIF-8
DOI: 10.1002/chem.200902144
Adsorbate Carbon Dioxide: InChIKey CURLTUGMZLYLDI-UHFFFAOYSA-N
Temperature: 303 K
Tabular data in the source: 0
pressure (bar)	uptake (mmol/g)
1.42706	0.507692
4.82935	2.90769
10.2423	5.35385
19.9744	7.33846
49.8435	8.16923
