Adsorption isotherm of Carbon Dioxide on ZIF-69
DOI: 10.1002/chem.200902144
Adsorbate Carbon Dioxide: InChIKey CURLTUGMZLYLDI-UHFFFAOYSA-N
Temperature: 303 K
Tabular data in the source: 0
pressure (bar)	uptake (mmol/g)
1.12909	1.06154
9.97259	4.43077
20.3015	5.26154
50.4739	5.26154
