Adsorption isotherm of Carbon Dioxide on ZIF-76
DOI: 10.1002/chem.200902144
Adsorbate Carbon Dioxide: InChIKey CURLTUGMZLYLDI-UHFFFAOYSA-N
Temperature: 303 K
Tabular data in the source: 0
pressure (bar)	uptake (mmol/g)
1.11583	1.75385
5.07692	4.98462
10.1972	7.70769
19.6172	10.9846
50.0566	12.0462
