Adsorption isotherm of Carbon Dioxide on ZIF-76
DOI: 10.1002/chem.200902144
Adsorbate Carbon Dioxide: InChIKey CURLTUGMZLYLDI-UHFFFAOYSA-N
Temperature: 303 K
Tabular data in the source: 0
pressure (bar)	uptake (mmol/g)
0.0977012	0.25641
0.486261	0.897436
1.02353	1.66667
5.3367	5
10.4761	7.62821
21.0489	10.8974
53.3667	11.9231
