Adsorption isotherm of Nitrogen on ZIF-76
DOI: 10.1002/chem.200902144
Adsorbate Nitrogen: InChIKey IJGRMHOSHXDMSA-UHFFFAOYSA-N
Temperature: 303 K
Tabular data in the source: 0
pressure (bar)	uptake (mmol/g)
0.174753	0.128205
0.284803	0.192308
0.335161	0.128205
0.689261	0.192308
0.811131	0.192308
1.2045	0.192308
1.51991	0.320513
2.00923	0.384615
2.65609	0.512821
3.59382	0.576923
4.75081	0.641026
6.13591	0.833333
8.11131	1.02564
10.2353	1.28205
13.8487	1.47436
18.3075	1.73077
23.645	1.98718
29.8366	2.4359
39.4421	2.69231
48.6262	3.01282
