Adsorption isotherm of Nitrogen on ZIF-76
DOI: 10.1002/chem.200902144
Adsorbate Nitrogen: InChIKey IJGRMHOSHXDMSA-UHFFFAOYSA-N
Temperature: 303 K
Tabular data in the source: 0
pressure (bar)	uptake (mmol/g)
5.09414	0.512821
10.4761	0.961538
21.5442	1.60256
53.3667	2.82051
