Adsorption isotherm of Nitrogen on ZIF-8
DOI: 10.1002/chem.200902144
Adsorbate Nitrogen: InChIKey IJGRMHOSHXDMSA-UHFFFAOYSA-N
Temperature: 303 K
Tabular data in the source: 0
pressure (bar)	uptake (mmol/g)
0.187906	0.0560748
0.547589	0.0373832
0.759219	0.0934579
1.33332	0.130841
1.80731	0.168224
2.26431	0.224299
3.1394	0.280374
3.97776	0.336449
7.07144	0.598131
9.16678	0.728972
11.7517	0.897196
15.2363	1.06542
24.7765	1.5514
38.5257	2.09346
