Adsorption isotherm of Carbon Dioxide on ZIF-8
DOI: 10.1002/chem.200902144
Adsorbate Carbon Dioxide: InChIKey CURLTUGMZLYLDI-UHFFFAOYSA-N
Temperature: 303 K
Tabular data in the source: 0
pressure (bar)	uptake (mmol/g)
0.0945562	0.0747664
0.500894	0.261682
0.974471	0.542056
5.0944	2.93458
9.88778	5.3271
20.721	7.21495
52.9481	8.07477
