Adsorption isotherm of Carbon Dioxide on ZIF-69
DOI: 10.1002/chem.200902144
Adsorbate Carbon Dioxide: InChIKey CURLTUGMZLYLDI-UHFFFAOYSA-N
Temperature: 273 K
Tabular data in the source: 0
pressure (bar)	uptake (mmol/g)
0.0134952	0.0640244
0.0158921	0.106707
0.0245771	0.128049
0.0331673	0.213415
0.04476	0.256098
0.0556622	0.341463
0.0837684	0.448171
0.110007	0.57622
0.148456	0.768293
0.200343	0.960366
0.256026	1.19512
0.336223	1.40854
0.453738	1.79268
0.519967	1.98476
0.682842	2.3689
0.826342	2.68902
0.973118	2.94512
1.02762	3.07317
