Adsorption isotherm of Methane on ZIF-76
DOI: 10.1002/chem.200902144
Adsorbate Methane: InChIKey VNWKTOKETHGBQD-UHFFFAOYSA-N
Temperature: 303 K
Tabular data in the source: 0
pressure (bar)	uptake (mmol/g)
0.837989	0.196129
5.30726	1.1231
10.0559	1.96069
19.8324	3.38577
50	5.30357
