Adsorption isotherm of Methane on ZIF-69
DOI: 10.1002/chem.200902144
Adsorbate Methane: InChIKey VNWKTOKETHGBQD-UHFFFAOYSA-N
Temperature: 298 K
Tabular data in the source: 0
pressure (bar)	uptake (mmol/g)
0.139806	0.0669789
0.279612	0.124546
0.419417	0.200937
0.547573	0.258412
0.71068	0.334986
0.850485	0.401965
0.990291	0.459532
