Adsorption isotherm of Methane on ZIF-76
DOI: 10.1002/chem.200902144
Adsorbate Methane: InChIKey VNWKTOKETHGBQD-UHFFFAOYSA-N
Temperature: 303 K
Tabular data in the source: 0
pressure (bar)	uptake (mmol/g)
0.811131	0.641026
0.849753	0.641026
1.02353	0.705128
1.26186	0.769231
1.55568	0.897436
1.96304	1.02564
2.42013	1.15385
3.05385	1.34615
3.76494	1.53846
4.75081	1.73077
5.85702	1.92308
7.22081	2.17949
8.90215	2.4359
11.7682	2.82051
13.5304	3.07692
16.6809	3.52564
21.0489	3.84615
26.5607	4.35897
32.7454	4.67949
40.3701	5
47.5084	5.32051
