Adsorption isotherm of Methane on ZIF-69
DOI: 10.1002/chem.200902144
Adsorbate Methane: InChIKey VNWKTOKETHGBQD-UHFFFAOYSA-N
Temperature: 303 K
Tabular data in the source: 0
pressure (bar)	uptake (mmol/g)
0.101372	0.0853659
0.50599	0.29878
1	0.661585
5.12931	2.04878
9.86468	2.8811
20.0346	3.52134
51.9972	3.64939
