Adsorption isotherm of Carbon Dioxide on ZIF-69
DOI: 10.1002/chem.200902144
Adsorbate Carbon Dioxide: InChIKey CURLTUGMZLYLDI-UHFFFAOYSA-N
Temperature: 303 K
Tabular data in the source: 0
pressure (bar)	uptake (mmol/g)
0.10705	0.320122
0.492389	1.21646
1	2.09146
4.99143	5.22866
10.4172	6.16768
19.4958	6.53049
