Adsorption isotherm of Methane on ZIF-8
DOI: 10.1002/chem.200902144
Adsorbate Methane: InChIKey VNWKTOKETHGBQD-UHFFFAOYSA-N
Temperature: 303 K
Tabular data in the source: 0
pressure (bar)	uptake (mmol/g)
1.11732	0.32103
4.7486	1.33759
10.3352	2.31774
20.3911	3.65343
50	5.07143
