Adsorption isotherm of Carbon Dioxide on ZIF-8
DOI: 10.1002/chem.200902144
Adsorbate Carbon Dioxide: InChIKey CURLTUGMZLYLDI-UHFFFAOYSA-N
Temperature: 298 K
Tabular data in the source: 0
pressure (bar)	uptake (mmol/g)
0.867052	0.506135
2.31214	1.05828
3.17919	1.74847
4.04624	2.30061
5.20231	3.03681
6.06936	3.77301
8.09249	4.41718
8.3815	4.83129
10.1156	5.19939
11.5607	5.6135
13.0058	5.9816
14.7399	6.34969
16.474	6.67178
18.4971	6.94785
20.8092	7.22393
23.4104	7.45399
26.0116	7.63804
28.3237	7.82209
30.9249	8.05215
33.815	8.14417
36.4162	8.28221
39.3064	8.37423
41.9075	8.46626
44.7977	8.55828
