Adsorption isotherm of Methane on ZIF-8
DOI: 10.1002/chem.200902144
Adsorbate Methane: InChIKey VNWKTOKETHGBQD-UHFFFAOYSA-N
Temperature: 300 K
Tabular data in the source: 0
pressure (bar)	uptake (mmol/g)
0.657933	0.0884995
1.34382	0.297558
2.67798	0.603105
5.46976	1.23626
8.11131	1.75509
10.3762	2.29382
15.1992	2.90909
20.6781	3.40901
26.4521	3.85135
32.2122	4.13968
38.7472	4.44734
46.0363	4.67795
52.0691	4.73526
61.1083	4.85025
