Adsorption isotherm of Methane on ZIF-8
DOI: 10.1002/chem.200902144
Adsorbate Methane: InChIKey VNWKTOKETHGBQD-UHFFFAOYSA-N
Temperature: 303 K
Tabular data in the source: 0
pressure (bar)	uptake (mmol/g)
0.487615	0.115663
0.970138	0.250602
4.97593	1.31084
10.1592	2.29398
20.2507	3.66265
50.3535	5.0506
