Adsorption isotherm of Methane on ZIF-8
DOI: 10.1002/chem.200902144
Adsorbate Methane: InChIKey VNWKTOKETHGBQD-UHFFFAOYSA-N
Temperature: 298 K
Tabular data in the source: 0
pressure (bar)	uptake (mmol/g)
0.285154	0.125102
1.40997	0.286218
2.25629	0.465092
3.10177	0.626108
3.66792	0.787024
4.79274	0.94814
5.63906	1.12701
6.48455	1.28803
7.61186	1.50272
8.73668	1.66383
9.8615	1.82495
10.9871	2.00392
12.674	2.23667
14.0781	2.39789
15.2029	2.559
16.6071	2.72022
18.0104	2.86358
19.6931	3.00703
21.3757	3.15049
23.0584	3.29395
25.0195	3.41965
26.9807	3.54535
28.9419	3.67105
30.6245	3.81451
32.8642	3.92245
35.103	4.01254
37.3427	4.12048
39.5823	4.22842
