Adsorption isotherm of Carbon Dioxide on ZIF-76
DOI: 10.1002/chem.200902144
Adsorbate Carbon Dioxide: InChIKey CURLTUGMZLYLDI-UHFFFAOYSA-N
Temperature: 303 K
Tabular data in the source: 0
pressure (bar)	uptake (mmol/g)
0.107227	0.320513
0.123285	0.384615
0.159228	0.448718
0.187382	0.448718
0.231013	0.512821
0.278256	0.641026
0.385353	0.705128
0.453488	0.897436
0.585702	1.02564
0.657933	1.15385
0.811131	1.15385
0.911163	1.28205
1.2045	1.60256
1.51991	1.79487
1.6681	1.92308
2.15443	2.30769
2.84803	2.5641
3.27455	2.75641
3.76494	3.01282
4.43062	3.39744
5.21401	3.84615
5.99485	4.16667
7.39072	4.61538
8.11131	4.9359
10	5.51282
10.4761	5.83333
11.7682	6.34615
13.5304	6.73077
14.8498	7.30769
17.4751	7.75641
20.5651	8.33333
22.5704	8.65385
26.5607	9.03846
29.8366	9.29487
36.7841	9.67949
