Adsorption isotherm of Methane on ZIF-69
DOI: 10.1002/chem.200902144
Adsorbate Methane: InChIKey VNWKTOKETHGBQD-UHFFFAOYSA-N
Temperature: 303 K
Tabular data in the source: 0
pressure (bar)	uptake (mmol/g)
5.02793	1.21249
10.8939	1.94254
19.8324	2.65363
50	3.07143
