Adsorption isotherm of Methane on ZIF-69
DOI: 10.1002/chem.200902144
Adsorbate Methane: InChIKey VNWKTOKETHGBQD-UHFFFAOYSA-N
Temperature: 273 K
Tabular data in the source: 0
pressure (bar)	uptake (mmol/g)
0.0192318	0.0213415
0.0239166	0.0213415
0.031408	0.0426829
0.0401375	0.0213415
0.0673597	0.0426829
0.122675	0.128049
0.156771	0.192073
0.200343	0.213415
0.263098	0.277439
0.336223	0.320122
0.418121	0.426829
0.534332	0.490854
0.664485	0.597561
0.849169	0.72561
1.02762	0.875
