Adsorption isotherm of Methane on ZIF-8
DOI: 10.1002/chem.200902144
Adsorbate Methane: InChIKey VNWKTOKETHGBQD-UHFFFAOYSA-N
Temperature: 303 K
Tabular data in the source: 0
pressure (bar)	uptake (mmol/g)
0.481906	0.443373
0.971058	0.86747
4.93034	3.31566
10.1981	4.78072
20.3264	6.09157
51.1364	7.09398
