Adsorption isotherm of Nitrogen on nanosilica-Torlon hollow fiber composite
DOI: 10.1002/cssc.201500906
Article source: Figure 6b
Adsorbate Nitrogen: InChIKey IJGRMHOSHXDMSA-UHFFFAOYSA-N
Kind: experiment
Temperature: 77 K
Tabular data in the source: 0
pressure (bar)	uptake (cm3(STP)/g)
0.015305	4.63489
0.030686	6.31617
0.043507	7.57658
0.053812	6.72835
0.066633	7.98876
0.082046	8.4042
0.102612	8.39552
0.123156	9.23074
0.138559	10.0681
0.148863	9.21989
0.161684	10.4803
0.195115	10.0443
0.200223	11.3079
0.241355	11.2906
0.300449	12.5315
0.351842	13.3537
0.449497	14.5783
0.54713	16.6468
0.647345	18.2923
0.737266	20.364
0.796338	22.4488
0.819453	23.2829
0.837426	24.1192
0.8554	24.9555
0.870781	26.6368
0.886183	27.4742
0.899004	28.7346
0.904091	30.8422
0.921967	35.476
0.922065	31.6785
0.934821	35.4705
0.947577	39.2626
0.955115	46.0105
0.959877	60.7764
0.965225	52.7573
0.967199	75.9632
0.970138	61.616
0.97451	91.5719
0.975009	72.1624
0.977373	80.1783
0.97976	87.3503
0.982092	96.632
