Adsorption isotherm of Nitrogen on Silica
DOI: 10.1002/cssc.201500906
Article source: Figure S2
Adsorbate Nitrogen: InChIKey IJGRMHOSHXDMSA-UHFFFAOYSA-N
Kind: experiment
Temperature: 77 K
Tabular data in the source: 0
pressure (bar)	uptake (cm3(STP)/g)
0	26.1214
0.002491	37.9947
0.009963	47.4934
0.028643	54.6174
0.05604	64.1161
0.061021	64.1161
0.089664	68.8654
0.098381	71.2401
0.119552	73.6148
0.138232	75.9894
0.144458	75.9894
0.159402	78.3641
0.196762	83.1135
0.242839	85.4881
0.302615	92.6121
0.339975	94.9868
0.35741	97.3615
0.447073	109.235
0.450809	109.235
0.542964	121.108
0.547945	121.108
0.645081	140.106
0.647572	142.48
0.738481	173.351
0.745953	173.351
0.794521	199.472
0.799502	220.844
0.840598	246.966
0.870486	311.082
0.877958	626.913
0.901619	486.807
0.907846	750.396
0.920299	681.53
0.926526	788.391
0.935243	767.018
0.941469	793.14
0.946451	786.016
0.952677	797.889
0.957659	797.889
0.966376	800.264
0.970112	802.639
0.977584	802.639
0.980075	807.388
0.985056	809.763
0.990037	809.763
