Adsorption isotherm of Nitrogen on APS/Mesoporous silica nanoparticles
DOI: 10.1002/cssc.201500906
Article source: Figure 6a
Adsorbate Nitrogen: InChIKey IJGRMHOSHXDMSA-UHFFFAOYSA-N
Kind: experiment
Temperature: 77 K
Tabular data in the source: 0
pressure (bar)	uptake (cm3(STP)/g)
0.010554	0
0.031662	0
0.068602	0
0.081794	0
0.105541	0
0.121372	0
0.14248	0
0.163577	4.25532
0.182047	4.25532
0.203155	4.25532
0.23219	0
0.253287	4.25532
0.282322	0
0.30078	4.25532
0.332454	0
0.348274	4.25532
0.401044	4.25532
0.453815	4.25532
0.501308	4.25532
0.548801	4.25532
0.554067	8.51064
0.598933	4.25532
0.60421	4.25532
0.651704	4.25532
0.701813	12.766
0.701825	8.51064
0.746668	12.766
0.754573	17.0213
0.799416	21.2766
0.799427	17.0213
0.817908	12.766
0.82579	25.5319
0.849559	17.0213
0.854803	29.7872
0.873317	12.766
0.878538	34.0426
0.897041	21.2766
0.899646	34.0426
0.912828	38.2979
0.920777	25.5319
0.939202	42.5532
0.947162	25.5319
0.970875	38.2979
0.976141	42.5532
0.981418	42.5532
0.989345	38.2979
0.997238	46.8085
