Adsorption isotherm of Nitrogen on APS/nanosilica-Torlon hollow fiber sorbent
DOI: 10.1002/cssc.201500906
Article source: Figure 6b
Adsorbate Nitrogen: InChIKey IJGRMHOSHXDMSA-UHFFFAOYSA-N
Kind: experiment
Temperature: 77 K
Tabular data in the source: 0
pressure (bar)	uptake (cm3(STP)/g)
0.023082	2.09997
0.041056	2.93626
0.05136	2.08803
0.056469	3.3517
0.079584	4.18583
0.092459	3.33652
0.120705	4.59042
0.14127	4.58174
0.164385	5.41587
0.202946	5.3996
0.241507	5.38333
0.300601	6.62422
0.349445	6.60361
0.449692	6.98325
0.552488	8.2057
0.647583	9.00946
0.737526	10.2373
0.79662	11.4782
0.835159	12.3058
0.871128	13.1345
0.881389	13.9741
0.904514	14.3863
0.925059	15.2215
0.93532	16.061
0.948141	17.3215
0.953228	19.429
0.958369	19.4268
0.966071	19.8455
0.968501	25.3297
0.97118	21.1092
0.978827	23.6376
0.981354	25.3243
0.983806	29.9646
0.983871	27.433
