Adsorption isotherm of Nitrogen on Silica in fiber
DOI: 10.1002/cssc.201500906
Article source: Figure S2
Adsorbate Nitrogen: InChIKey IJGRMHOSHXDMSA-UHFFFAOYSA-N
Kind: experiment
Temperature: 77 K
Tabular data in the source: 0
pressure (bar)	uptake (cm3(STP)/g)
0	0
0.002491	33.2454
0.006227	45.1187
0.016189	52.2427
0.028643	56.9921
0.044832	59.3668
0.061021	64.1161
0.077211	66.4908
0.097136	68.8654
0.119552	73.6148
0.139477	75.9894
0.144458	75.9894
0.159402	78.3641
0.195517	83.1135
0.200498	80.7388
0.241594	87.8628
0.300125	94.9868
0.354919	102.111
0.440847	109.235
0.448319	111.609
0.549191	125.858
0.556663	125.858
0.651308	144.855
0.73599	170.976
0.747198	180.475
0.797011	199.472
0.836862	237.467
0.846824	344.327
0.875467	311.082
0.877958	617.414
0.899128	422.691
0.910336	748.021
0.92279	624.538
0.92528	769.393
0.941469	776.517
0.946451	759.894
0.957659	769.393
0.958904	778.892
0.971357	778.892
0.976339	786.016
0.985056	786.016
0.996264	790.765
