Adsorption isotherm of Nitrogen on APS/nanosilica-Torlon hollow fiber sorbent-hexane rinsed
DOI: 10.1002/cssc.201500906
Article source: Figure 6b
Adsorbate Nitrogen: InChIKey IJGRMHOSHXDMSA-UHFFFAOYSA-N
Kind: experiment
Temperature: 77 K
Tabular data in the source: 0
pressure (bar)	uptake (cm3(STP)/g)
0.025675	1.25499
0.043648	2.09129
0.059094	1.24089
0.066784	2.08153
0.08478	2.07393
0.125911	2.05658
0.141314	2.89396
0.159309	2.88637
0.177304	2.87877
0.200419	3.7129
0.241572	2.85166
0.300688	3.24865
0.349521	3.64999
0.449768	4.02963
0.550015	4.40928
0.647692	4.79
0.737656	5.17398
0.799343	5.5699
0.835311	6.3986
0.853306	6.39101
0.86872	6.80645
0.884144	6.79994
0.902117	7.63624
0.925254	7.62648
0.932933	8.88906
0.938086	8.46494
0.950907	9.72536
0.955951	13.5207
0.961157	10.9869
0.963706	11.8297
0.973935	13.935
0.97644	16.4656
0.978903	20.684
0.978968	18.1523
0.983968	23.6355
0.986506	24.9002
