Adsorption isotherm of Nitrogen on Mesoporous silica nanoparticles
DOI: 10.1002/cssc.201500906
Article source: Figure 6a
Adsorbate Nitrogen: InChIKey IJGRMHOSHXDMSA-UHFFFAOYSA-N
Kind: experiment
Temperature: 77 K
Tabular data in the source: 0
pressure (bar)	uptake (cm3(STP)/g)
0	0
0.005291	38.2528
0.007937	46.741
0.015873	55.1841
0.029101	59.3268
0.044973	63.447
0.060847	67.5673
0.07672	67.4322
0.097884	71.5074
0.119048	71.3273
0.137566	79.6803
0.142857	79.6353
0.15873	79.5002
0.195767	83.4403
0.240741	87.3128
0.301587	95.3056
0.354497	99.1107
0.439153	106.901
0.44709	115.344
0.547619	118.744
0.555556	122.931
0.648148	139.165
0.738095	163.931
0.746032	172.374
0.796296	193.223
0.798942	210.222
0.838624	231.161
0.849206	337.454
0.875661	303.186
0.878307	613.802
0.899471	417.877
0.912698	745.424
0.920635	621.952
0.925926	766.588
0.941799	770.708
0.94709	749.386
0.957672	779.084
0.973545	778.949
0.97619	778.926
0.984127	783.114
0.997354	787.257
