Adsorption isotherm of Nitrogen on C7H3NO4Ba
DOI: 10.1016/j.poly.2012.05.043
Adsorbate Nitrogen: InChIKey IJGRMHOSHXDMSA-UHFFFAOYSA-N
Temperature: 77 K
Tabular data in the source: 0
pressure (bar)	uptake (cm3(STP)/g)
0.00247206	13.6449
0.00494412	17.9439
0.00741618	20.5607
0.0247206	29.3458
0.0543853	30.6542
0.081578	31.4019
0.106299	31.9626
0.123603	32.8972
0.153268	33.4579
0.175516	33.8318
0.202709	34.3925
0.222485	35.1402
0.249678	35.7009
0.274399	36.4486
0.294175	36.8224
0.32384	37.0093
0.348561	37.5701
0.368337	37.9439
0.393058	38.5047
0.412834	39.4393
0.442499	40
0.46722	40.3738
0.494412	40.7477
0.514189	41.3084
0.538909	41.3084
0.566102	41.4953
0.590823	41.8692
0.613071	43.1776
0.63532	44.1121
0.664984	44.1121
0.684761	45.0467
0.711954	45.2336
0.739146	45.7944
0.758923	46.1682
0.788587	46.1682
0.805892	48.4112
0.82814	48.972
0.852861	50.0935
0.882526	50.2804
0.904774	51.4019
0.931967	52.5234
0.954216	54.9533
0.97152	57.5701
