Adsorption isotherm of Carbon Dioxide on Carbon Nanosheets
DOI: 10.1016/j.carbon.2013.10.081
Article source: Figure 8c
Adsorbate Carbon Dioxide: InChIKey CURLTUGMZLYLDI-UHFFFAOYSA-N
Kind: experiment
Temperature: 318 K
Tabular data in the source: 0
pressure (bar)	uptake (mmol/g)
0.008303	0.014192
0.012442	0.037845
0.023497	0.078055
0.03732	0.120631
0.055294	0.172668
0.071884	0.222339
0.082946	0.253088
0.092624	0.281472
0.116139	0.335874
0.141039	0.390276
0.163174	0.437582
0.18531	0.482523
0.207446	0.527464
0.229584	0.570039
0.286328	0.659921
0.343074	0.747438
0.399823	0.830223
0.455188	0.910644
0.511945	0.983968
0.568701	1.05729
0.624076	1.12589
0.679452	1.19212
0.737601	1.25598
0.792985	1.31275
0.849752	1.37188
0.906523	1.42628
0.961907	1.48305
1.01868	1.53509
1.07545	1.58712
1.11422	1.6226
1.12668	1.63916
