Adsorption isotherm of Nitrogen on Carbon Nanosheets
DOI: 10.1016/j.carbon.2013.10.081
Article source: Figure 7a
Adsorbate Nitrogen: InChIKey IJGRMHOSHXDMSA-UHFFFAOYSA-N
Kind: experiment
Temperature: 77 K
Tabular data in the source: 0
pressure (bar)	uptake (cm3(STP)/g)
0.001546	154.074
0.0029	164.444
0.005596	176.296
0.009627	185.185
0.025703	183.704
0.025727	201.481
0.033752	191.111
0.049862	214.815
0.067266	204.444
0.08067	208.889
0.100777	216.296
0.100797	231.111
0.123582	237.037
0.124898	219.259
0.142322	223.704
0.143686	241.481
0.162449	245.926
0.165107	229.63
0.182551	248.889
0.185211	234.074
0.202652	251.852
0.203972	237.037
0.253559	245.926
0.25626	262.222
0.307164	254.815
0.307183	269.63
0.339348	275.556
0.358088	262.222
0.400992	284.444
0.407671	269.63
0.453259	294.815
0.457256	278.519
0.50818	285.926
0.508246	334.815
0.557766	294.815
0.559175	346.667
0.608692	303.704
0.610105	358.519
0.659622	315.556
0.661038	373.333
0.710553	328.889
0.710633	388.148
0.760145	342.222
0.760232	407.407
0.811082	360
0.811178	431.111
0.831191	368.889
0.836655	445.926
0.86337	385.185
0.864819	466.667
0.887507	400
0.888966	488.889
0.912989	419.259
0.917145	521.481
0.933259	548.148
0.938485	448.889
0.962662	493.333
0.962827	616.296
0.984377	700.741
0.986884	571.852
0.995153	743.704
