Adsorption isotherm of Methane on Carbon Nanosheets
DOI: 10.1016/j.carbon.2013.10.081
Article source: Figure 8a
Adsorbate Methane: InChIKey VNWKTOKETHGBQD-UHFFFAOYSA-N
Kind: experiment
Temperature: 288 K
Tabular data in the source: 0
pressure (bar)	uptake (mmol/g)
0.017041	0.021802
0.025562	0.043605
0.035503	0.061046
0.052544	0.09157
0.069586	0.122093
0.080947	0.139535
0.092308	0.161337
0.11503	0.19186
0.137751	0.222384
0.161893	0.252907
0.183195	0.28343
0.205917	0.313953
0.228639	0.344477
0.284024	0.405523
0.340828	0.46657
0.397633	0.518895
0.454438	0.571221
0.511243	0.623547
0.566627	0.675872
0.623432	0.728198
0.680237	0.776163
0.737041	0.824128
0.793846	0.872093
0.849231	0.915698
0.906036	0.963663
0.96284	1.00291
1.01822	1.04651
1.07645	1.08576
1.11479	1.11192
1.12757	1.125
