Adsorption isotherm of Carbon monoxide on Carbon Nanosheets
DOI: 10.1016/j.carbon.2013.10.081
Article source: Figure 8c
Adsorbate Carbon monoxide: InChIKey UGFAIRIUMAVXCW-UHFFFAOYSA-N
Kind: experiment
Temperature: 318 K
Tabular data in the source: 0
pressure (bar)	uptake (mmol/g)
0.005481	0.080421
0.013771	0.11117
0.028983	0.15138
0.040054	0.170302
0.05389	0.196321
0.071886	0.219974
0.084348	0.2318
0.089884	0.241261
0.116191	0.26728
0.139733	0.286202
0.161892	0.30276
0.185435	0.319317
0.20621	0.333509
0.229755	0.3477
0.28793	0.378449
0.343334	0.409198
0.400127	0.435217
0.454154	0.454139
0.513718	0.480158
0.570515	0.501445
0.625924	0.525099
0.682722	0.544021
0.738133	0.565309
0.794931	0.584231
0.850342	0.605519
0.907141	0.624442
0.963935	0.648095
1.02073	0.671748
1.07753	0.693035
1.11631	0.711958
1.12738	0.73088
