Adsorption isotherm of Carbon monoxide on Carbon Nanosheets
DOI: 10.1016/j.carbon.2013.10.081
Article source: Figure 8a
Adsorbate Carbon monoxide: InChIKey UGFAIRIUMAVXCW-UHFFFAOYSA-N
Kind: experiment
Temperature: 288 K
Tabular data in the source: 0
pressure (bar)	uptake (mmol/g)
0.008521	0.18314
0.014201	0.226744
0.025562	0.274709
0.034083	0.313953
0.051124	0.357558
0.071006	0.396802
0.082367	0.427326
0.090888	0.444767
0.11503	0.479651
0.139172	0.510174
0.161893	0.536337
0.184615	0.56686
0.208757	0.593023
0.230059	0.619186
0.288284	0.671512
0.343669	0.719477
0.399053	0.767442
0.457278	0.815407
0.512663	0.854651
0.569467	0.898256
0.624852	0.94186
0.683077	0.985465
0.738462	1.02471
0.795266	1.06831
0.850651	1.11192
0.907456	1.15116
0.96426	1.19477
1.02107	1.23401
1.07787	1.28198
1.11763	1.32122
1.12899	1.34738
