Adsorption isotherm of Carbon monoxide on Carbon Nanosheets
DOI: 10.1016/j.carbon.2013.10.081
Article source: Figure 8b
Adsorbate Carbon monoxide: InChIKey UGFAIRIUMAVXCW-UHFFFAOYSA-N
Kind: experiment
Temperature: 303 K
Tabular data in the source: 0
pressure (bar)	uptake (mmol/g)
0.013257	0.130989
0.035269	0.213671
0.054328	0.254985
0.06752	0.279078
0.079248	0.303175
0.093904	0.327262
0.115885	0.358221
0.139325	0.382278
0.159838	0.406345
0.184743	0.430397
0.208184	0.454455
0.23016	0.478517
0.287288	0.523147
0.344412	0.560881
0.398608	0.598625
0.457196	0.636354
0.514318	0.67064
0.57144	0.704926
0.625634	0.739222
0.682756	0.773508
0.739878	0.807794
0.795536	0.842084
0.85412	0.872917
0.909777	0.907208
0.966899	0.941493
1.02256	0.975784
1.07822	1.01008
1.11923	1.03407
1.13242	1.05472
