Adsorption isotherm of Carbon Dioxide on Carbon Nanosheets
DOI: 10.1016/j.carbon.2013.10.081
Article source: Figure 8a
Adsorbate Carbon Dioxide: InChIKey CURLTUGMZLYLDI-UHFFFAOYSA-N
Kind: experiment
Temperature: 288 K
Tabular data in the source: 0
pressure (bar)	uptake (mmol/g)
0.00568	0.021802
0.007101	0.065407
0.011361	0.126453
0.017041	0.170058
0.022722	0.231105
0.034083	0.322674
0.051124	0.440407
0.071006	0.549419
0.079527	0.601744
0.092308	0.667151
0.11645	0.776163
0.140592	0.872093
0.161893	0.954942
0.186036	1.04215
0.208757	1.11192
0.230059	1.18605
0.284024	1.3343
0.343669	1.48256
0.400473	1.61773
0.457278	1.73983
0.512663	1.84884
0.569467	1.95785
0.626272	2.06686
0.681657	2.16715
0.738462	2.26744
0.795266	2.36337
0.850651	2.45494
0.908876	2.55523
0.96568	2.6468
1.02107	2.73837
1.07787	2.82994
1.11763	2.90407
1.13041	2.94767
