Adsorption isotherm of Methane on Carbon Nanosheets
DOI: 10.1016/j.carbon.2013.10.081
Article source: Figure 8b
Adsorbate Methane: InChIKey VNWKTOKETHGBQD-UHFFFAOYSA-N
Kind: experiment
Temperature: 303 K
Tabular data in the source: 0
pressure (bar)	uptake (mmol/g)
0.023436	0.017161
0.033696	0.034367
0.051276	0.051547
0.068858	0.072176
0.080577	0.082481
0.092301	0.099682
0.11574	0.120291
0.137714	0.140904
0.161153	0.161513
0.183127	0.182127
0.206566	0.202736
0.228538	0.219902
0.285667	0.264532
0.341329	0.30572
0.399919	0.346897
0.455577	0.381188
0.511237	0.418927
0.568358	0.453213
0.625483	0.490947
0.681142	0.528686
0.738262	0.559523
0.795384	0.593809
0.85104	0.624652
0.90816	0.655489
0.965284	0.693223
1.02094	0.724066
1.07806	0.758352
1.11761	0.78925
1.12934	0.809899
