Adsorption isotherm of Nitrogen on Carbon Nanosheets
DOI: 10.1016/j.carbon.2013.10.081
Article source: Figure 8a
Adsorbate Nitrogen: InChIKey IJGRMHOSHXDMSA-UHFFFAOYSA-N
Kind: experiment
Temperature: 288 K
Tabular data in the source: 0
pressure (bar)	uptake (mmol/g)
0.035503	0.021802
0.068166	0.026163
0.089468	0.039244
0.113609	0.052326
0.136331	0.056686
0.159053	0.065407
0.183195	0.078488
0.205917	0.082849
0.227219	0.087209
0.284024	0.113372
0.340828	0.135174
0.396213	0.156977
0.453018	0.174419
0.509822	0.196221
0.568047	0.213663
0.623432	0.235465
0.680237	0.252907
0.738462	0.274709
0.792426	0.292151
0.850651	0.309593
0.906036	0.327035
0.96284	0.340116
1.01964	0.357558
1.07645	0.375
1.11621	0.388081
1.12757	0.396802
