Adsorption isotherm of Nitrogen on Carbon Nanosheets
DOI: 10.1016/j.carbon.2013.10.081
Article source: Figure 8b
Adsorbate Nitrogen: InChIKey IJGRMHOSHXDMSA-UHFFFAOYSA-N
Kind: experiment
Temperature: 303 K
Tabular data in the source: 0
pressure (bar)	uptake (mmol/g)
0.068826	0.020452
0.09079	0.023825
0.112757	0.030646
0.137651	0.037456
0.159617	0.044277
0.181583	0.051098
0.205011	0.054466
0.228441	0.061281
0.284087	0.074883
0.339732	0.088484
0.398305	0.102075
0.455415	0.115671
0.51106	0.129272
0.568167	0.13942
0.623812	0.153021
0.680924	0.170066
0.738031	0.180214
0.79514	0.19381
0.850785	0.207411
0.907893	0.217559
0.965	0.227707
1.02065	0.241308
1.07775	0.251456
1.11729	0.258216
1.12901	0.265072
