Adsorption isotherm of Nitrogen on Carbon Nanosheets
DOI: 10.1016/j.carbon.2013.10.081
Article source: Figure 8c
Adsorbate Nitrogen: InChIKey IJGRMHOSHXDMSA-UHFFFAOYSA-N
Kind: experiment
Temperature: 318 K
Tabular data in the source: 0
pressure (bar)	uptake (mmol/g)
0.069275	0.011827
0.091442	0.016557
0.114997	0.018922
0.137164	0.023653
0.160719	0.026018
0.184274	0.028384
0.206441	0.033114
0.228608	0.037845
0.28403	0.044941
0.340836	0.054402
0.397643	0.061498
0.454449	0.070959
0.511256	0.078055
0.565291	0.087516
0.623482	0.096978
0.680289	0.104074
0.737097	0.11117
0.791133	0.118265
0.847942	0.122996
0.904748	0.132457
0.961555	0.139553
1.01836	0.146649
1.07517	0.153745
1.11535	0.158476
1.12643	0.163206
