Adsorption isotherm of Methane on Carbon Nanosheets
DOI: 10.1016/j.carbon.2013.10.081
Article source: Figure 8c
Adsorbate Methane: InChIKey VNWKTOKETHGBQD-UHFFFAOYSA-N
Kind: experiment
Temperature: 318 K
Tabular data in the source: 0
pressure (bar)	uptake (mmol/g)
0.023546	0.014192
0.034622	0.026018
0.051241	0.037845
0.06786	0.049672
0.07894	0.056767
0.091406	0.063863
0.113564	0.080421
0.137108	0.096978
0.160653	0.11117
0.182815	0.122996
0.206361	0.137188
0.227137	0.149014
0.282541	0.179763
0.342099	0.212878
0.400274	0.243627
0.458451	0.272011
0.509701	0.298029
0.566492	0.326413
0.627442	0.352431
0.680082	0.373719
0.739646	0.399737
0.795055	0.42339
0.853236	0.447043
0.910032	0.468331
0.966829	0.489619
1.02085	0.510907
1.07765	0.529829
1.11783	0.544021
1.12891	0.548752
