Adsorption isotherm of Carbon Dioxide on Carbon Nanosheets
DOI: 10.1016/j.carbon.2013.10.081
Article source: Figure 8b
Adsorbate Carbon Dioxide: InChIKey CURLTUGMZLYLDI-UHFFFAOYSA-N
Kind: experiment
Temperature: 303 K
Tabular data in the source: 0
pressure (bar)	uptake (mmol/g)
0.007342	0.034457
0.013225	0.079265
0.026455	0.165426
0.03674	0.224011
0.054364	0.313606
0.071978	0.385959
0.08079	0.430756
0.093999	0.482434
0.116009	0.561669
0.138013	0.630559
0.162947	0.702886
0.186413	0.768323
0.208413	0.830316
0.23041	0.888861
0.286121	1.00936
0.344755	1.12295
0.400453	1.22276
0.457611	1.31566
0.514766	1.40512
0.571918	1.48768
0.627603	1.5668
0.684754	1.64936
0.740433	1.71814
0.796114	1.79036
0.853259	1.86257
0.910404	1.93479
0.967547	2.00356
1.02469	2.06888
1.08036	2.13421
1.11993	2.19269
1.13167	2.23403
