Adsorption isotherm of Nitrogen on UiO-66-(COOLi)2-EX
DOI: 10.1002/chem.201503078
Article source: Figure 8d- UiO 66 COOLi 2 EX
Adsorbate Nitrogen: InChIKey IJGRMHOSHXDMSA-UHFFFAOYSA-N
Kind: experiment
Temperature: 298 K
Tabular data in the source: 0
pressure (bar)	uptake (mmol/g)
0.05168	0.011832
0.06561	0.014257
0.07876	0.016925
0.09177	0.019325
0.10527	0.022041
0.118	0.023787
0.13243	0.026213
0.14629	0.029098
0.15916	0.031232
0.17273	0.033415
0.18631	0.036276
0.1996	0.037853
0.21261	0.040108
0.22654	0.041636
0.23934	0.043891
0.25348	0.045832
0.26606	0.04799
0.27943	0.050148
0.29251	0.052258
0.30566	0.053617
0.31909	0.056017
0.33253	0.057958
0.34589	0.060067
0.35933	0.062274
0.37262	0.063899
0.38662	0.065767
0.39906	0.067707
0.41321	0.06926
0.42593	0.070497
0.4383	0.073188
0.45237	0.074886
0.46609	0.076851
0.47889	0.07804
0.49275	0.080125
0.5064	0.081775
0.5199	0.083133
0.5327	0.08534
0.54571	0.08665
0.55992	0.089148
0.57279	0.091015
0.58566	0.093246
0.5993	0.094823
0.61324	0.096521
0.62582	0.098073
0.63868	0.100159
0.65233	0.101493
0.66584	0.103336
0.67927	0.105156
0.69185	0.10729
0.70579	0.106376
0.70593	0.106394
0.71894	0.109958
0.71901	0.109975
0.73237	0.109402
0.73266	0.10952
0.74637	0.111027
0.74694	0.113354
0.76002	0.11384
0.76009	0.113833
0.77268	0.115392
0.78604	0.116571
0.78611	0.116581
0.7994	0.118182
0.81262	0.120268
0.82577	0.122759
0.82592	0.122765
0.83949	0.123857
0.85328	0.125192
0.86622	0.126841
0.88008	0.128757
0.89359	0.130067
0.90653	0.132056
0.91975	0.133681
0.9329	0.135306
0.94598	0.136568
0.95998	0.13766
0.97285	0.1404
0.98649	0.140619
0.98657	0.140633
0.9995	0.141953
0.99972	0.142462
1.01287	0.143088
1.01294	0.143094
1.02659	0.144469
1.0268	0.144501
1.03931	0.146538
1.03981	0.14659
1.0536	0.147412
1.06689	0.148892
