Adsorption isotherm of Nitrogen on UiO-66-(COONa)4-EX
DOI: 10.1002/chem.201503078
Article source: Figure 8c- UiO 66 COONa 4 EX
Adsorbate Nitrogen: InChIKey IJGRMHOSHXDMSA-UHFFFAOYSA-N
Kind: experiment
Temperature: 273 K
Tabular data in the source: 0
pressure (bar)	uptake (mmol/g)
0.02209	0.009626
0.04098	0.013685
0.05284	0.017707
0.06668	0.021176
0.07961	0.023815
0.09317	0.027482
0.10645	0.031227
0.11966	0.033985
0.13386	0.036782
0.14764	0.041001
0.16148	0.044588
0.17413	0.048966
0.1874	0.052395
0.20047	0.056259
0.2129	0.05961
0.22568	0.062723
0.23917	0.066074
0.25288	0.069542
0.26694	0.072892
0.28022	0.076084
0.29463	0.079118
0.30699	0.082271
0.31984	0.086689
0.3344	0.089643
0.33532	0.085613
0.34825	0.093112
0.34888	0.08849
0.36039	0.097292
0.36216	0.092077
0.37381	0.095468
0.37466	0.099576
0.38673	0.096883
0.38957	0.102056
0.39979	0.099838
0.40001	0.105961
0.40974	0.10244
0.41379	0.109113
0.42167	0.105119
0.42842	0.112977
0.44113	0.114352
0.44552	0.110953
0.45483	0.118413
0.45667	0.114265
0.46627	0.120817
0.46804	0.117221
0.48032	0.124862
0.48061	0.125272
0.49325	0.128544
0.49921	0.124235
0.5071	0.13142
0.5105	0.125177
0.52109	0.135205
0.52236	0.129476
0.53373	0.133066
0.53393	0.133064
0.54665	0.140405
0.54892	0.136019
0.56014	0.144348
0.56035	0.14436
0.57292	0.147422
0.57413	0.142799
0.58584	0.144649
0.58698	0.149824
0.59784	0.147408
0.6009	0.153529
0.60977	0.150048
0.61603	0.156286
0.62774	0.159321
0.63264	0.155921
0.64202	0.162513
0.64464	0.158166
0.65466	0.165113
0.65636	0.16132
0.66871	0.16471
0.66879	0.164772
0.68014	0.16818
0.68015	0.16818
0.69357	0.171609
0.70706	0.17413
0.72048	0.178073
0.72076	0.177322
0.7339	0.180469
0.73397	0.180475
0.74732	0.185247
0.76039	0.18682
0.76046	0.186821
0.77324	0.189183
0.78673	0.192455
0.80008	0.195173
0.81378	0.198009
0.82657	0.200451
0.84027	0.203525
0.85334	0.206638
0.8669	0.209791
0.88018	0.212509
0.8936	0.214833
0.90702	0.217946
0.92058	0.220427
0.93393	0.223382
0.947	0.22535
0.96056	0.228424
0.97355	0.231419
0.98704	0.23394
1.00004	0.236974
1.01396	0.2391
1.01474	0.240166
1.02795	0.242607
1.03057	0.242725
1.04321	0.245404
1.05557	0.24832
1.0675	0.251079
