Adsorption isotherm of Nitrogen on UiO-66-(COOK)4-EX
DOI: 10.1002/chem.201503078
Article source: Figure 7b- UiO 66 COOK 4 EX
Adsorbate Nitrogen: InChIKey IJGRMHOSHXDMSA-UHFFFAOYSA-N
Kind: experiment
Temperature: 77 K
Tabular data in the source: 0
pressure (bar)	uptake (cm3(STP)/g)
0.000588	36.2
0.000659	4.532
0.00074	10.575
0.001034	17.78
0.001034	17.786
0.001175	19.372
0.010214	46.485
0.020853	47.937
0.03062	48.751
0.041047	50.029
0.05125	50.203
0.061383	50.436
0.071809	50.61
0.080178	50.494
0.091122	51.714
0.101761	51.133
0.111306	51.54
0.121073	52.063
0.132016	52.179
0.140973	53.109
0.151471	52.644
0.161157	52.295
0.172101	52.295
0.182892	53.051
0.19192	52.353
0.202498	52.876
0.212631	53.167
0.223351	53.806
0.23245	54.213
0.243099	53.98
0.252421	54.038
0.263212	54.213
0.273274	54.213
0.283771	54.271
0.29368	54.155
0.304694	54.445
0.313945	54.038
0.324666	54.852
0.333917	54.91
0.344262	54.736
0.354323	55.549
0.365337	55.433
0.375906	55.375
0.383768	55.375
0.39456	55.84
0.405057	56.072
0.415483	56.304
0.425393	56.13
0.435971	56.595
0.445658	56.13
0.456155	56.711
0.466358	56.653
0.475832	56.944
0.485894	56.886
0.495803	57.408
0.506453	57.118
0.516585	57.699
0.526049	57.292
0.536182	58.048
0.547641	57.757
0.557257	58.454
0.567683	58.571
0.577735	58.048
0.586621	58.28
0.597189	58.687
0.607545	58.338
0.6179	59.152
0.628033	59.326
0.63853	59.094
0.648804	59.384
0.658349	59.21
0.668846	59.152
0.678766	58.861
0.688676	59.907
0.698656	59.675
0.707836	60.198
0.718556	60.139
0.729277	60.488
0.738821	60.837
0.749167	61.302
0.759005	61.36
0.769432	61.941
0.779128	61.941
0.789626	62.289
0.799981	62.231
0.81062	63.568
0.820611	63.335
0.831108	63.568
0.841241	63.974
0.851515	63.742
0.851667	63.757
0.862387	65.66
0.862529	65.626
0.873178	64.676
0.87332	64.672
0.881913	65.032
0.882135	65.078
0.892116	66.649
0.892187	66.647
0.901296	66.252
0.901438	66.299
0.912604	70.657
0.912817	70.625
0.922291	73.155
0.92303	67.984
0.932575	73.911
0.932717	69.204
0.940792	70.192
0.941968	76.002
0.951877	70.192
0.95357	78.966
0.960916	71.121
0.964655	81.29
0.972142	73.62
0.978019	82.801
0.981687	77.629
0.984555	83.207
0.991303	83.44
0.991455	83.02
1.00313	81.987
