Adsorption isotherm of Nitrogen on UiO-66-(COOK)2-EX
DOI: 10.1002/chem.201503078
Article source: Figure 7a- UiO 66 COOK 2 EX
Adsorbate Nitrogen: InChIKey IJGRMHOSHXDMSA-UHFFFAOYSA-N
Kind: experiment
Temperature: 77 K
Tabular data in the source: 0
pressure (bar)	uptake (cm3(STP)/g)
7.1e-05	9.603
0.000142	79.736
0.000142	80.737
0.000142	82.807
0.000213	21.807
0.000213	20.254
0.000284	29.231
0.000365	31.022
0.001601	88.118
0.00307	97.372
0.005492	105.87
0.009818	115.3
0.020903	121.822
0.031553	126.772
0.041533	128.812
0.051301	130.968
0.060917	132.019
0.071566	132.604
0.081253	133.654
0.091679	134.065
0.101518	135.755
0.111498	136.165
0.121701	136.401
0.132199	136.87
0.142108	137.571
0.152758	137.749
0.162373	138.683
0.172942	138.86
0.183662	139.387
0.193065	139.332
0.20268	139.509
0.213097	139.92
0.222935	140.155
0.232632	140.507
0.242319	140.976
0.252451	141.095
0.263313	141.331
0.272564	141.45
0.28292	142.035
0.293782	141.98
0.303843	142.099
0.313459	141.985
0.324098	142.163
0.334231	142.748
0.344586	143.1
0.354202	143.336
0.364557	143.164
0.375348	143.167
0.384305	143.926
0.394215	143.696
0.404489	144.165
0.414916	144.459
0.424602	144.404
0.434806	144.348
0.445597	144.642
0.454341	144.936
0.465791	145.405
0.475042	145.291
0.485833	145.12
0.495743	145.646
0.505723	145.533
0.516079	145.71
0.526282	146.004
0.535016	146.007
0.545007	146.417
0.555281	146.711
0.565414	146.481
0.576053	146.95
0.586479	147.127
0.596176	147.421
0.606967	147.482
0.617535	147.486
0.627009	147.372
0.636838	147.375
0.647852	148.193
0.657842	147.963
0.667671	148.14
0.677803	148.376
0.688595	148.495
0.698727	148.731
0.70813	148.617
0.717817	148.678
0.728172	148.74
0.73793	149.033
0.74792	148.978
0.758924	150.378
0.769574	150.265
0.779635	150.384
0.788734	150.212
0.800336	150.448
0.810022	150.567
0.818544	150.977
0.828889	151.097
0.840339	151.74
0.850552	151.859
0.860898	152.619
0.870078	152.563
0.881821	153.207
0.891883	153.792
0.901347	154.086
0.911337	154.903
0.921754	155.721
0.932474	157.005
0.940772	155.61
0.94136	157.88
0.951563	157.185
0.951786	157.266
0.961402	160.558
0.961473	160.563
0.971241	158.122
0.971534	162.254
0.980198	160.627
0.985335	165.11
0.992965	161.62
0.994657	164.763
1.00258	164.416
