Adsorption isotherm of Carbon Dioxide on UiO-66-(COOK)4-EX
DOI: 10.1002/chem.201503078
Article source: Figure 8b- UiO 66 COOK 4 EX
Adsorbate Carbon Dioxide: InChIKey CURLTUGMZLYLDI-UHFFFAOYSA-N
Kind: experiment
Temperature: 298 K
Tabular data in the source: 0
pressure (bar)	uptake (mmol/g)
0.01326	0.10523
0.02677	0.05977
0.02693	0.06203
0.03995	0.08028
0.04095	0.15287
0.05333	0.09594
0.05391	0.17228
0.0665	0.1127
0.0668	0.1125
0.08054	0.13237
0.08067	0.13277
0.09428	0.22212
0.09462	0.14666
0.10665	0.16033
0.10731	0.23821
0.12041	0.25299
0.12118	0.17599
0.13372	0.19069
0.13385	0.19076
0.14682	0.28099
0.14702	0.28091
0.16056	0.22036
0.16104	0.21214
0.17443	0.22383
0.1748	0.30193
0.18703	0.23551
0.18733	0.3145
0.20057	0.25121
0.20091	0.2472
0.2133	0.26109
0.21345	0.26347
0.22697	0.26991
0.22769	0.34669
0.24043	0.28188
0.24071	0.28247
0.25424	0.36652
0.25437	0.36685
0.26719	0.30187
0.26756	0.37578
0.28037	0.31389
0.28057	0.31223
0.29431	0.3195
0.29489	0.32608
0.30692	0.3257
0.30705	0.32611
0.32009	0.41039
0.32065	0.33912
0.33383	0.41722
0.33396	0.41765
0.34635	0.35565
0.34729	0.4267
0.36023	0.36337
0.36038	0.43132
0.37376	0.3713
0.37398	0.37167
0.38685	0.44076
0.38729	0.44785
0.40025	0.45512
0.40066	0.38849
0.41335	0.46173
0.41369	0.46071
0.42701	0.46834
0.42786	0.40215
0.44018	0.4113
0.44067	0.40965
0.45364	0.48068
0.45405	0.41559
0.46779	0.48632
0.4678	0.48641
0.48012	0.4917
0.48032	0.42904
0.49386	0.49941
0.49449	0.43851
0.50673	0.44181
0.50738	0.50293
0.52061	0.44909
0.52098	0.45016
0.53399	0.45503
0.53443	0.51659
0.54731	0.51826
0.54739	0.51901
0.56063	0.52341
0.56069	0.52301
0.57421	0.47133
0.57501	0.52892
0.58688	0.53259
0.58697	0.53332
0.60049	0.53773
0.60069	0.53583
0.61387	0.54301
0.61436	0.49094
0.62689	0.49844
0.62782	0.54654
0.64057	0.55138
0.64099	0.54688
0.65409	0.50485
0.65415	0.50438
0.66711	0.51077
0.66754	0.5582
0.68	0.56062
0.68021	0.55924
0.69388	0.56516
0.69395	0.56502
0.7079	0.5253
0.70791	0.52531
0.72014	0.53015
0.72107	0.57118
0.73374	0.57603
0.74776	0.53278
0.74812	0.57845
0.76064	0.53939
0.76094	0.5399
0.77445	0.58601
0.77467	0.58637
0.78784	0.58857
0.8003	0.59143
0.80065	0.55061
0.81347	0.59451
0.81425	0.55921
0.82721	0.59825
0.8277	0.56648
0.84009	0.60001
0.84037	0.56934
0.85354	0.60132
0.85425	0.57396
0.86757	0.60617
0.86792	0.60609
0.88081	0.58086
0.88102	0.5799
0.89418	0.60967
0.89419	0.60968
0.90729	0.61144
0.90807	0.6058
0.92053	0.59429
0.92088	0.594
0.93377	0.61605
0.93412	0.59487
0.94736	0.61626
0.94786	0.61617
0.9611	0.60118
0.96159	0.60059
0.97448	0.62
0.97469	0.60301
0.98715	0.62286
0.98793	0.60543
1.00103	0.62328
1.00103	0.62329
1.01427	0.62505
1.01434	0.62493
1.02246	0.62416
1.02815	0.6204
1.03805	0.62768
1.05363	0.62546
1.06766	0.6281
