Adsorption isotherm of Nitrogen on UiO-66-(COOK)4-EX
DOI: 10.1002/chem.201503078
Article source: Figure 8c- UiO 66 COOK 4 EX
Adsorbate Nitrogen: InChIKey IJGRMHOSHXDMSA-UHFFFAOYSA-N
Kind: experiment
Temperature: 273 K
Tabular data in the source: 0
pressure (bar)	uptake (mmol/g)
0.01357	0.000979
0.02757	0.004564
0.03957	0.007401
0.053	0.008695
0.06586	0.011136
0.08014	0.013536
0.09399	0.015621
0.10692	0.017508
0.12042	0.019238
0.13349	0.021481
0.14713	0.02317
0.16042	0.024742
0.17363	0.026629
0.18677	0.026581
0.19992	0.029416
0.20006	0.029439
0.21377	0.030845
0.21405	0.030869
0.22656	0.032612
0.22677	0.032598
0.24055	0.034406
0.25341	0.035859
0.25362	0.036847
0.26648	0.038379
0.26662	0.038355
0.27984	0.040029
0.28005	0.040061
0.29383	0.041956
0.30712	0.04263
0.30719	0.042618
0.32048	0.045612
0.33405	0.04584
0.34712	0.049545
0.34726	0.049514
0.36026	0.051074
0.3604	0.051116
0.37312	0.050997
0.37326	0.050989
0.38704	0.054119
0.38719	0.054179
0.40033	0.056343
0.4004	0.056342
0.41432	0.056769
0.41439	0.05679
0.42739	0.058182
0.4274	0.058182
0.44018	0.060808
0.4404	0.060899
0.45354	0.060808
0.45375	0.060851
0.46761	0.064279
0.46768	0.061711
0.48039	0.065416
0.48046	0.065426
0.49389	0.067184
0.49396	0.067191
0.50746	0.066572
0.5076	0.066504
0.52053	0.070676
0.5206	0.070682
0.53403	0.072372
0.54767	0.070151
0.54781	0.070176
0.55996	0.071328
0.5601	0.071331
0.5736	0.073982
0.57367	0.073965
0.58759	0.078137
0.58774	0.078144
0.6006	0.079715
0.60067	0.079755
0.61395	0.081128
0.61409	0.078758
0.62716	0.080013
0.62731	0.080084
0.64059	0.081743
0.65338	0.082966
0.65345	0.082959
0.66723	0.0869
0.68016	0.08776
0.68023	0.085588
0.69395	0.089292
0.69402	0.089302
0.7078	0.089007
0.72016	0.092229
0.72023	0.092237
0.7338	0.09368
0.73387	0.09369
0.7473	0.095024
0.76051	0.094462
0.76065	0.094478
0.77394	0.095796
0.78758	0.09717
0.78765	0.097176
0.80022	0.100993
0.81429	0.100225
0.8145	0.100273
0.82729	0.104175
0.82814	0.101765
0.84058	0.105431
0.84079	0.105457
0.85393	0.104592
0.85407	0.104677
0.867	0.105966
0.86729	0.108455
0.87972	0.10792
0.87979	0.107933
0.89414	0.108809
0.89421	0.108792
0.90728	0.110601
0.90736	0.110633
0.9205	0.114503
0.92071	0.114444
0.93329	0.115324
0.93407	0.113506
0.94742	0.114876
0.94756	0.11484
0.96035	0.117635
0.96064	0.117755
0.97442	0.11901
0.97456	0.116521
0.98692	0.120108
0.9877	0.118132
1.00042	0.120178
1.01399	0.121591
1.02457	0.12344
1.03942	0.124655
1.05349	0.126028
1.06791	0.127046
