Adsorption isotherm of Nitrogen on UiO-66-(COONa)2-EX
DOI: 10.1002/chem.201503078
Article source: Figure 8d- UiO 66 COONa 2 EX
Adsorbate Nitrogen: InChIKey IJGRMHOSHXDMSA-UHFFFAOYSA-N
Kind: experiment
Temperature: 298 K
Tabular data in the source: 0
pressure (bar)	uptake (mmol/g)
0.0155	0.006347
0.03051	0.010174
0.04053	0.012355
0.05277	0.017563
0.06635	0.02156
0.07972	0.026478
0.09195	0.030523
0.1056	0.033503
0.11918	0.0375
0.13312	0.041085
0.14606	0.045228
0.15943	0.04845
0.17294	0.051429
0.18645	0.055015
0.19975	0.058261
0.21276	0.06204
0.22599	0.064704
0.23986	0.067345
0.25301	0.071148
0.26617	0.073595
0.27925	0.077253
0.29361	0.079869
0.3062	0.083236
0.319	0.085635
0.33286	0.088711
0.34623	0.091618
0.35953	0.094646
0.37268	0.097989
0.38605	0.100824
0.39949	0.104191
0.41307	0.106759
0.4263	0.109327
0.43945	0.111991
0.45311	0.115019
0.46612	0.117975
0.47991	0.120252
0.49342	0.123401
0.507	0.126042
0.51966	0.128755
0.53182	0.131589
0.54697	0.120596
0.5471	0.120688
0.55976	0.137137
0.56445	0.124588
0.57306	0.13968
0.58578	0.128391
0.58671	0.143023
0.59958	0.146051
0.60725	0.132534
0.61366	0.148304
0.62481	0.136725
0.62604	0.151623
0.64075	0.154724
0.64529	0.140334
0.65405	0.156589
0.66657	0.159133
0.66705	0.144719
0.67944	0.161604
0.68284	0.149394
0.69387	0.164026
0.69912	0.152471
0.70653	0.153818
0.70701	0.153634
0.72004	0.167829
0.72337	0.156686
0.73283	0.171003
0.73937	0.160078
0.74713	0.173062
0.74811	0.160586
0.75943	0.175921
0.7629	0.165722
0.77265	0.17672
0.77869	0.168774
0.78161	0.177859
0.78672	0.170131
0.79946	0.181638
0.80315	0.173304
0.81354	0.183043
0.82683	0.185465
0.83878	0.187355
0.85378	0.19077
0.86629	0.192078
0.87924	0.194283
0.89339	0.196802
0.90626	0.198789
0.91927	0.201623
0.93256	0.202422
0.94621	0.204094
0.95965	0.206541
0.9632	0.202544
0.97316	0.208358
0.9738	0.203949
0.98638	0.209263
0.9866	0.209375
0.99869	0.211143
1.00089	0.209205
1.01227	0.21236
1.01255	0.212379
1.02556	0.213542
1.02627	0.213629
1.03907	0.216473
1.04248	0.216061
1.05201	0.218047
1.05898	0.218992
1.06872	0.220203
