Adsorption isotherm of Nitrogen on UiO-66(Zr) 30 Equ. AA
DOI: 10.1002/chem.201503078
Article source: Figure 1b- 30 Equ AA
Adsorbate Nitrogen: InChIKey IJGRMHOSHXDMSA-UHFFFAOYSA-N
Kind: experiment
Temperature: 77 K
Tabular data in the source: 0
pressure (bar)	uptake (cm3(STP)/g)
5.1e-05	208.498
6.1e-05	41.899
7.1e-05	50.645
0.000122	189.662
0.000122	174.668
0.000122	169.803
0.000132	91.161
0.000142	60.489
0.000142	-4.707
0.000142	4.526
0.000142	9.332
0.000193	199.336
0.000193	211.804
0.000203	101.005
0.000213	16.657
0.000213	29.704
0.000263	244.917
0.000263	250.025
0.000263	254.763
0.000263	217.432
0.000274	140.782
0.000274	130.994
0.000274	132.47
0.000274	133.079
0.000334	200.766
0.000345	150.967
0.00155	263.354
0.002705	273.028
0.003496	281.791
0.004874	290.327
0.007893	300.001
0.00992	308.936
0.010133	312.179
0.012514	320.431
0.015614	328.967
0.01604	331.528
0.019941	337.162
0.020589	341.828
0.023973	348.828
0.029891	356.966
0.030316	357.82
0.04056	365.498
0.040631	365.504
0.051088	372.047
0.051159	372.05
0.059599	372.563
0.060471	374.555
0.070492	377.607
0.070563	377.629
0.081313	378.485
0.081739	379.623
0.091263	381.104
0.101355	382.756
0.111022	384.294
0.122198	385.434
0.131652	386.232
0.14146	387.429
0.151987	388.455
0.161512	389.196
0.172111	390.393
0.182284	390.679
0.192518	391.535
0.203552	392.049
0.213147	392.562
0.222236	392.905
0.232977	393.875
0.243656	394.047
0.253535	394.675
0.263202	395.644
0.273729	395.702
0.283173	395.818
0.293782	396.673
0.30359	396.561
0.313398	397.587
0.323571	397.475
0.334606	398.103
0.344839	398.56
0.354719	398.789
0.364608	399.246
0.375065	399.475
0.384366	399.704
0.395259	399.422
0.405422	400.22
0.416243	400.051
0.42519	400.792
0.436295	400.737
0.446033	401.308
0.456196	401.537
0.46644	401.937
0.476319	401.712
0.486421	401.827
0.496878	402.227
0.506686	403.196
0.516281	402.856
0.527164	403.37
0.537914	403.429
0.546932	403.715
0.556953	404.115
0.567846	403.889
0.577654	404.175
0.587969	404.12
0.598132	404.008
0.607798	404.636
0.618184	404.467
0.628357	405.038
0.637871	405.039
0.648044	405.325
0.657204	405.953
0.668309	406.239
0.677114	406.355
0.687997	406.641
0.698383	406.757
0.708697	407.327
0.718364	407.272
0.729256	407.217
0.738994	408.015
0.748944	407.505
0.759613	408.474
0.768702	408.362
0.77924	408.477
0.788177	408.536
0.799718	408.538
0.809526	409.677
0.820418	410.078
0.830227	410.705
0.841261	410.992
0.850856	411.505
0.860594	411.678
0.871121	412.362
0.880707	412.99
0.891174	410.905
0.891386	410.943
0.900759	416.009
0.901407	414.018
0.911287	413.905
0.91151	413.963
0.922108	417.492
0.92225	414.192
0.931845	419.201
0.932129	416.527
0.941289	420.17
0.941796	416.471
0.951462	422.106
0.951898	417.668
0.961635	423.929
0.962061	418.523
0.971008	420.516
0.97505	425.866
0.981829	420.746
0.983845	427.119
0.993441	423.138
0.993796	427.975
1.00295	426.155
