Adsorption isotherm of Nitrogen on UiO-66-(COOLi)4-EX
DOI: 10.1002/chem.201503078
Article source: Figure 8d- UiO 66 COOLi 4 EX
Adsorbate Nitrogen: InChIKey IJGRMHOSHXDMSA-UHFFFAOYSA-N
Kind: experiment
Temperature: 298 K
Tabular data in the source: 0
pressure (bar)	uptake (mmol/g)
0.01522	0.006993
0.02902	0.010984
0.04289	0.015095
0.05285	0.018482
0.06601	0.023587
0.07874	0.027166
0.09204	0.03123
0.10562	0.03464
0.11942	0.038994
0.13264	0.043493
0.14523	0.046298
0.1586	0.049902
0.17233	0.054353
0.18541	0.05844
0.19907	0.062189
0.21194	0.065987
0.22595	0.068888
0.23091	0.057167
0.23918	0.071838
0.24406	0.060335
0.25219	0.075683
0.25352	0.062269
0.26535	0.079239
0.26661	0.067349
0.27893	0.082309
0.28118	0.070057
0.29343	0.084823
0.2942	0.07521
0.30673	0.089129
0.30963	0.078595
0.31982	0.092079
0.32364	0.082465
0.33233	0.095222
0.34627	0.098729
0.34725	0.088075
0.35914	0.101582
0.36204	0.092719
0.37365	0.104604
0.37577	0.097485
0.38659	0.108377
0.39141	0.100313
0.39982	0.1114
0.40628	0.103553
0.41347	0.106272
0.41403	0.106165
0.42606	0.116549
0.42797	0.108945
0.43929	0.120661
0.44219	0.112936
0.45251	0.12349
0.46546	0.127093
0.47085	0.119464
0.47982	0.129922
0.48493	0.12331
0.49304	0.132844
0.49347	0.133452
0.50571	0.136863
0.50797	0.12938
0.51929	0.140297
0.52368	0.132813
0.5333	0.143004
0.53691	0.136732
0.54702	0.144743
0.55142	0.139996
0.56046	0.14194
0.56088	0.141785
0.57283	0.150619
0.57944	0.147469
0.58641	0.152466
0.5872	0.153084
0.59907	0.152751
0.59956	0.152886
0.61301	0.158863
0.61364	0.158893
0.62602	0.159851
0.6263	0.160016
0.63981	0.162479
0.63988	0.162486
0.65332	0.167211
0.65368	0.1673
0.66634	0.168628
0.6667	0.170347
0.67971	0.172256
0.67985	0.172318
0.69322	0.175278
0.70623	0.178204
0.7063	0.178217
0.71996	0.181066
0.72003	0.181081
0.73276	0.184612
0.74648	0.186981
0.74662	0.187005
0.75999	0.190754
0.76028	0.190812
0.77329	0.194042
0.77357	0.194071
0.78659	0.197452
0.7868	0.197483
0.80017	0.199024
0.80052	0.198949
0.81318	0.202921
0.8134	0.202964
0.82676	0.204461
0.82691	0.205962
0.84034	0.20712
0.84049	0.207138
0.853	0.210991
0.85308	0.211004
0.86588	0.214691
0.86609	0.212609
0.87981	0.215427
0.88009	0.215486
0.89283	0.218168
0.89311	0.218072
0.9064	0.219981
0.90676	0.222451
0.92006	0.22557
0.92048	0.225494
0.93328	0.224307
0.93776	0.228228
0.94608	0.229913
0.94687	0.230428
0.95959	0.229547
0.95966	0.229577
0.97346	0.235456
0.97438	0.233228
0.98662	0.238237
0.98796	0.236687
0.99956	0.240775
1.00034	0.239516
1.01342	0.243482
1.01378	0.243574
1.02828	0.244567
1.0285	0.244624
1.04165	0.247081
1.04399	0.246306
1.05544	0.249159
1.05815	0.249352
1.0676	0.251093
