Adsorption isotherm of Nitrogen on UiO-66
DOI: 10.1002/chem.201503078
Article source: Figure 7b- UiO 66
Adsorbate Nitrogen: InChIKey IJGRMHOSHXDMSA-UHFFFAOYSA-N
Kind: experiment
Temperature: 77 K
Tabular data in the source: 0
pressure (bar)	uptake (cm3(STP)/g)
0.000365	217.744
0.000507	225.116
0.000578	232.372
0.000588	190.054
0.000719	241.718
0.00073	199.052
0.001023	208.049
0.001885	251.818
0.002918	261.687
0.003131	270.916
0.004154	279.624
0.005472	288.679
0.007083	296.864
0.008623	308.009
0.009798	312.536
0.013679	323.333
0.016688	334.129
0.020873	343.765
0.023366	350.962
0.02674	359.843
0.029739	364.951
0.030691	370.291
0.033995	378.185
0.035393	378.997
0.040236	388.342
0.040743	387.471
0.045809	398.442
0.046326	398.325
0.052334	408.599
0.058211	413.88
0.061504	419.916
0.06804	424.268
0.072447	428.157
0.078466	430.245
0.08184	434.598
0.089835	435.235
0.091456	438.021
0.101801	439.934
0.104152	440.108
0.112663	442.892
0.113545	442.079
0.122137	444.922
0.124336	443.18
0.132847	444.478
0.132999	444.455
0.143638	447.355
0.152818	447.933
0.162363	449.847
0.173073	450.889
0.183277	451.932
0.193044	452.51
0.203025	453.204
0.213299	453.26
0.223067	454.419
0.233858	454.823
0.243474	454.936
0.253312	456.095
0.263364	456.673
0.274013	457.542
0.2837	457.888
0.293609	458.756
0.304694	458.754
0.314604	459.738
0.324585	460.433
0.334423	460.779
0.343674	461.009
0.3541	461.471
0.365185	461.816
0.374872	461.988
0.383829	462.857
0.394549	463.319
0.405411	463.839
0.416122	464.185
0.426771	464.763
0.434988	465.574
0.44505	467.197
0.446296	465.165
0.455841	466.033
0.456864	468.587
0.466409	465.16
0.476613	468.106
0.476977	467.712
0.487039	468.58
0.487404	468.942
0.497313	474.499
0.497607	474.103
0.506564	470.377
0.506929	469.795
0.517132	469.27
0.517426	469.599
0.527113	475.595
0.527113	470.893
0.537245	470.02
0.537316	470.082
0.547814	472.283
0.547814	472.282
0.557358	476.428
0.557723	476.575
0.567714	471.232
0.56822	471.311
0.577107	477.267
0.578424	470.707
0.587239	471.419
0.58731	471.344
0.598253	472.154
0.598537	472.461
0.608234	478.073
0.608457	472.906
0.618508	478.709
0.618579	478.718
0.628489	473.772
0.629005	479.461
0.638398	474.728
0.63855	474.757
0.648825	479.515
0.649118	479.439
0.659393	479.977
0.659393	479.976
0.668867	475.261
0.66916	475.156
0.67907	481.365
0.679506	475.676
0.689203	475.732
0.689486	481.131
0.699254	481.187
0.699619	476.252
0.709609	478.399
0.709609	478.398
0.719438	482.638
0.71959	482.749
0.729206	483.269
0.72957	482.817
0.739632	483.731
0.739774	483.755
0.749977	480.943
0.750342	484.774
0.760252	481.405
0.760475	484.946
0.770749	484.588
0.77083	484.595
0.78081	481.748
0.781104	481.812
0.789839	486.347
0.789909	486.39
0.800336	483.576
0.800782	483.253
0.810174	484.818
0.810468	485.09
0.820884	488.357
0.821107	488.177
0.831311	489.283
0.831828	485.394
0.840997	490.442
0.841079	490.469
0.851647	490.962
0.852164	488.64
0.859135	488.638
0.860969	492.005
0.871101	493.608
0.871172	493.628
0.8802	491.362
0.881305	495.135
0.891579	491.417
0.89239	497.28
0.90009	493.099
0.902147	499.832
0.911905	502.5
0.912715	493.85
0.92072	494.719
0.922108	504.762
0.929019	497.097
0.932828	507.546
0.941856	499.068
0.942586	510.504
0.952354	500.227
0.953823	513.52
0.961828	502.024
0.962922	517.407
0.971372	503.822
0.97804	519.726
0.983329	506.837
0.985527	519.55
0.991769	519.548
0.99412	512.408
1.00374	516.353
