Adsorption isotherm of Nitrogen on UiO-66-(COOLi)4-EX
DOI: 10.1002/chem.201503078
Article source: Figure 8c- UiO 66 COOLi 4 EX
Adsorbate Nitrogen: InChIKey IJGRMHOSHXDMSA-UHFFFAOYSA-N
Kind: experiment
Temperature: 273 K
Tabular data in the source: 0
pressure (bar)	uptake (mmol/g)
0.01137	0.0094
0.02849	0.015874
0.03992	0.021007
0.05349	0.02685
0.06678	0.033998
0.08041	0.040394
0.09306	0.047581
0.10684	0.053029
0.11991	0.060388
0.12005	0.060453
0.13312	0.066257
0.13355	0.065743
0.14676	0.071705
0.16026	0.07822
0.1734	0.084024
0.18654	0.089986
0.20011	0.095987
0.21304	0.102305
0.22696	0.108109
0.24017	0.113754
0.25289	0.119169
0.25324	0.119242
0.26681	0.124098
0.27974	0.131285
0.29338	0.138037
0.30709	0.143319
0.3073	0.143405
0.32023	0.149209
0.32044	0.149051
0.33351	0.153986
0.34666	0.160264
0.36022	0.166344
0.36051	0.166402
0.37329	0.171674
0.37379	0.170212
0.38665	0.176014
0.38729	0.176055
0.40021	0.182825
0.40029	0.182847
0.41364	0.185924
0.41371	0.188216
0.42692	0.193625
0.42699	0.193621
0.43985	0.199429
0.43992	0.199465
0.45321	0.204877
0.45363	0.201281
0.46684	0.21064
0.46684	0.210641
0.47856	0.211309
0.47991	0.215773
0.49121	0.216125
0.49348	0.221458
0.50591	0.22181
0.50669	0.227223
0.52005	0.232907
0.52005	0.232908
0.5339	0.238512
0.5339	0.238514
0.54732	0.244119
0.54733	0.24412
0.5594	0.242891
0.56068	0.249331
0.57332	0.248102
0.5734	0.248124
0.58661	0.260939
0.58675	0.260887
0.5996	0.259236
0.60018	0.266585
0.61303	0.271631
0.61325	0.271954
0.62674	0.27677
0.62688	0.276677
0.64031	0.281546
0.64037	0.281571
0.65288	0.280119
0.65359	0.286244
0.66687	0.292166
0.66701	0.285054
0.67987	0.296164
0.68037	0.296943
0.69351	0.302114
0.69443	0.294646
0.70658	0.299067
0.70672	0.307642
0.72028	0.303527
0.72064	0.30375
0.73279	0.308502
0.73364	0.316878
0.74685	0.321908
0.74721	0.322168
0.76006	0.326587
0.76071	0.327419
0.77334	0.323661
0.77385	0.3318
0.78663	0.327963
0.78699	0.328175
0.79956	0.334281
0.79985	0.334488
0.81362	0.33878
0.81405	0.346801
0.82669	0.351317
0.82691	0.35142
0.8399	0.348096
0.84033	0.355366
0.85354	0.353109
0.85361	0.353137
0.86597	0.357807
0.8669	0.364406
0.88039	0.369222
0.88096	0.363452
0.89289	0.37321
0.89346	0.373959
0.90703	0.372328
0.90731	0.372136
0.92002	0.376518
0.92074	0.383827
0.93359	0.387616
0.93366	0.387578
0.94709	0.385952
0.94723	0.386107
0.96051	0.39014
0.96058	0.390175
0.97351	0.400918
0.97436	0.3959
0.98694	0.403719
0.98743	0.400992
0.99993	0.407942
1.001	0.405927
1.01322	0.410111
1.01407	0.413153
1.02749	0.417574
1.02778	0.417593
1.03943	0.418439
1.04412	0.423377
1.05498	0.423373
1.05896	0.427165
1.0677	0.428782
