Adsorption isotherm of Carbon Dioxide on UiO-66-(COOK)2-EX
DOI: 10.1002/chem.201503078
Article source: Figure 8b- UiO 66 COOK 2 EX
Adsorbate Carbon Dioxide: InChIKey CURLTUGMZLYLDI-UHFFFAOYSA-N
Kind: experiment
Temperature: 298 K
Tabular data in the source: 0
pressure (bar)	uptake (mmol/g)
0.0146	0.11847
0.02741	0.16744
0.04008	0.21399
0.05418	0.25546
0.05624	0.19016
0.06656	0.29473
0.06926	0.22501
0.07995	0.32804
0.08072	0.25965
0.09396	0.36152
0.09425	0.36157
0.10699	0.39141
0.10714	0.39355
0.12073	0.42024
0.12115	0.41515
0.13418	0.45069
0.13553	0.37281
0.14734	0.47618
0.14749	0.47782
0.1603	0.50385
0.16115	0.42619
0.17411	0.52768
0.17411	0.52767
0.18713	0.47318
0.18714	0.47318
0.20059	0.57686
0.20065	0.57635
0.21396	0.59764
0.21418	0.59782
0.22763	0.53869
0.22764	0.53868
0.2408	0.64326
0.24201	0.56075
0.25411	0.5836
0.25425	0.58369
0.26714	0.68208
0.26763	0.68089
0.28066	0.70259
0.28165	0.62097
0.29432	0.72111
0.2944	0.72201
0.30764	0.73921
0.3077	0.73849
0.3203	0.75752
0.32087	0.67633
0.33397	0.77649
0.33489	0.69751
0.34685	0.79259
0.34727	0.7917
0.36045	0.81112
0.36115	0.73501
0.37339	0.7542
0.3739	0.82634
0.38664	0.84465
0.38869	0.76545
0.40094	0.78607
0.40158	0.78199
0.41389	0.87553
0.41474	0.80118
0.42728	0.89361
0.42741	0.89425
0.44001	0.90609
0.44044	0.90619
0.45353	0.91973
0.45368	0.92163
0.46699	0.93817
0.46727	0.93582
0.47958	0.94623
0.48008	0.9514
0.49403	0.96574
0.49431	0.90264
0.50727	0.97787
0.50791	0.91919
0.52037	0.93908
0.52093	0.92999
0.53331	0.94257
0.53375	1.005
0.54691	1.01647
0.56043	1.02822
0.56051	1.02838
0.57417	0.98117
0.57417	0.98116
0.58705	1.05352
0.58755	0.99749
0.6005	1.06499
0.60064	1.00807
0.61274	1.02197
0.61374	1.07845
0.62748	1.0897
0.62811	1.03895
0.63993	1.04535
0.64079	1.10183
0.65309	1.05836
0.65345	1.0598
0.66747	1.12301
0.66762	1.12322
0.68007	1.08152
0.68036	1.13469
0.69444	1.0963
0.69445	1.0963
0.70697	1.15018
0.7074	1.15498
0.72064	1.16468
0.72092	1.11902
0.73387	1.17417
0.73423	1.17374
0.74718	1.13849
0.74746	1.1382
0.76021	1.19336
0.76141	1.15497
0.77344	1.16114
0.77394	1.20549
0.78697	1.17286
0.78703	1.17261
0.80056	1.1843
0.8007	1.18506
0.81365	1.23129
0.81429	1.19864
0.82746	1.20696
0.8276	1.20702
0.8402	1.24761
0.84084	1.21496
0.85372	1.25577
0.85393	1.22312
0.86667	1.23878
0.86732	1.26591
0.88048	1.27231
0.88084	1.27064
0.89379	1.25523
0.89414	1.25355
0.9071	1.26524
0.90717	1.28797
0.92076	1.27252
0.92105	1.27287
0.93357	1.30304
0.93393	1.3034
0.94681	1.28906
0.94695	1.28918
0.9604	1.2981
0.96055	1.2981
0.97378	1.31302
0.97407	1.31332
0.98709	1.33207
0.98716	1.31398
1.0004	1.34089
1.00068	1.34122
1.01428	1.33522
1.0147	1.33515
1.02638	1.35236
1.02709	1.34331
1.0399	1.35721
1.03997	1.35728
1.05363	1.363
1.05392	1.36272
1.06794	1.36934
