Adsorption isotherm of Nitrogen on UiO-66
DOI: 10.1002/chem.201503078
Article source: Figure 8d- UiO 66
Adsorbate Nitrogen: InChIKey IJGRMHOSHXDMSA-UHFFFAOYSA-N
Kind: experiment
Temperature: 298 K
Tabular data in the source: 0
pressure (bar)	uptake (mmol/g)
0.02845	0.008531
0.04374	0.012215
0.05213	0.013912
0.06692	0.017184
0.07994	0.020019
0.09516	0.023582
0.10725	0.026951
0.11948	0.030708
0.13363	0.03301
0.1413	0.029278
0.14558	0.037106
0.15595	0.032671
0.15988	0.040257
0.16954	0.036258
0.1731	0.043383
0.18333	0.039021
0.18583	0.046122
0.19713	0.042269
0.19913	0.049612
0.21121	0.045686
0.21215	0.052084
0.22437	0.048206
0.22537	0.054968
0.23781	0.051309
0.23889	0.058192
0.25196	0.061288
0.25233	0.061827
0.26584	0.057605
0.2659	0.057635
0.27864	0.067087
0.27955	0.060882
0.293	0.064639
0.2935	0.06985
0.30608	0.072303
0.30616	0.072322
0.31952	0.07031
0.3196	0.075376
0.33311	0.073655
0.33389	0.07826
0.34427	0.075763
0.34684	0.081144
0.358	0.079254
0.36042	0.084052
0.37179	0.081508
0.37379	0.086597
0.38516	0.084998
0.38624	0.08919
0.39931	0.088076
0.40017	0.091663
0.41233	0.090669
0.41333	0.094595
0.42521	0.093259
0.42527	0.093238
0.43857	0.09651
0.43886	0.100679
0.4523	0.0992
0.45301	0.103587
0.46581	0.106665
0.46616	0.106509
0.47868	0.104581
0.47932	0.10904
0.49212	0.112108
0.49234	0.112167
0.50606	0.110494
0.50642	0.114857
0.51978	0.113669
0.51993	0.113699
0.53209	0.115972
0.53266	0.119559
0.54602	0.12132
0.54674	0.122273
0.55968	0.124673
0.5601	0.121716
0.57319	0.124891
0.57341	0.125019
0.58642	0.127848
0.60007	0.130652
0.60029	0.130708
0.61245	0.134246
0.61302	0.133616
0.62653	0.136088
0.6394	0.13919
0.63968	0.138754
0.65277	0.141178
0.65291	0.141197
0.66628	0.143395
0.66663	0.143456
0.67986	0.145994
0.68	0.146001
0.69359	0.148691
0.7066	0.151551
0.70667	0.151558
0.72004	0.154266
0.72011	0.154281
0.73355	0.156689
0.74657	0.158701
0.74685	0.158701
0.76	0.160688
0.76015	0.161973
0.77288	0.163815
0.77302	0.163836
0.78653	0.167329
0.78667	0.167344
0.80011	0.170334
0.8132	0.171505
0.81355	0.171619
0.82664	0.175836
0.82706	0.173752
0.84022	0.178454
0.84065	0.178458
0.85359	0.180999
0.85394	0.178236
0.86618	0.182229
0.86639	0.182186
0.8799	0.183519
0.88004	0.185603
0.89334	0.18827
0.89384	0.188164
0.90664	0.19033
0.90678	0.190367
0.92043	0.193663
0.92065	0.19382
0.93352	0.193832
0.93373	0.193868
0.94675	0.198352
0.94717	0.19634
0.95997	0.198668
0.9732	0.201514
0.97327	0.201527
0.98714	0.204101
0.98742	0.204144
1.00015	0.206859
1.001	0.206277
1.01309	0.208192
1.01338	0.208262
1.02362	0.21064
1.02561	0.210422
1.03812	0.21316
1.03976	0.212991
1.0522	0.215172
1.05334	0.215051
1.06657	0.217305
