Adsorption isotherm of Nitrogen on UiO-66-(COOLi)4-EX
DOI: 10.1002/chem.201503078
Article source: Figure 7b- UiO 66 COOLi 4 EX
Adsorbate Nitrogen: InChIKey IJGRMHOSHXDMSA-UHFFFAOYSA-N
Kind: experiment
Temperature: 77 K
Tabular data in the source: 0
pressure (bar)	uptake (cm3(STP)/g)
0.000213	134.766
0.000284	139.646
0.000365	147.197
0.000365	148.107
0.000375	160.383
0.000385	177.32
0.000395	198.373
0.000446	168.254
0.000527	170.897
0.002006	204.588
0.004661	216.844
0.009433	224.8
0.020458	229.559
0.030813	232.111
0.040875	233.733
0.051453	234.658
0.061221	235.758
0.072235	236.741
0.080462	237.435
0.091192	237.373
0.101325	238.182
0.111903	239.049
0.122036	239.045
0.131804	240.145
0.142311	240.082
0.151998	240.369
0.162282	241.41
0.172719	241.929
0.182922	242.331
0.193136	242.734
0.203045	242.73
0.213775	243.481
0.223614	243.186
0.23169	244.287
0.242633	244.224
0.253576	244.743
0.263567	245.087
0.27304	245.142
0.283467	245.486
0.293093	245.656
0.303742	245.304
0.313956	246.287
0.3235	246.69
0.334666	246.511
0.344434	247.32
0.354567	247.374
0.364334	248.068
0.37396	248.006
0.383657	248.06
0.394671	248.23
0.40532	248.69
0.415311	248.686
0.424856	249.67
0.435069	249.317
0.444756	249.313
0.45423	249.6
0.465396	250.292
0.474576	250.405
0.484344	250.575
0.494993	251.268
0.505136	251.264
0.516443	251.492
0.525553	252.301
0.53532	252.239
0.546557	252.758
0.55669	252.696
0.56587	252.924
0.577107	253.036
0.587026	253.148
0.596936	253.899
0.605974	254.302
0.616482	254.008
0.627496	254.061
0.637993	254.812
0.647467	255.331
0.65768	255.966
0.666637	256.079
0.677368	256.539
0.687206	256.826
0.697633	257.054
0.708211	257.456
0.718273	258.149
0.728851	258.319
0.738761	258.606
0.747505	258.776
0.758813	258.888
0.768439	259.349
0.778936	260.274
0.788927	260.967
0.799282	261.544
0.810306	261.946
0.819628	262.639
0.830135	263.332
0.831017	261.473
0.840268	263.619
0.841291	261.12
0.849813	264.359
0.849965	264.428
0.860391	265.121
0.861202	262.1
0.870605	265.64
0.870969	263.432
0.880889	267.378
0.881031	267.372
0.89087	267.665
0.891974	265.689
0.901083	269.461
0.901742	266.673
0.910922	270.677
0.911368	270.441
0.921065	273.113
0.921571	272.91
0.931643	275.258
0.932301	271.075
0.941704	277.229
0.942069	277.03
0.950884	279.723
0.952425	274.785
0.960804	282.333
0.961676	274.316
0.971453	285.175
0.971747	285.386
0.981515	280.175
0.985406	289.061
0.992306	285.515
0.998264	290.276
1.002	289.171
