Adsorption isotherm of Carbon Dioxide on UiO-66-(COOK)4-EX
DOI: 10.1002/chem.201503078
Article source: Figure 8a- UiO 66 COOK 4 EX
Adsorbate Carbon Dioxide: InChIKey CURLTUGMZLYLDI-UHFFFAOYSA-N
Kind: experiment
Temperature: 273 K
Tabular data in the source: 0
pressure (bar)	uptake (mmol/g)
0.01388	0.12828
0.02581	0.11011
0.02811	0.17282
0.03982	0.19596
0.0404	0.20596
0.05262	0.23768
0.05326	0.16856
0.06728	0.27296
0.06735	0.27318
0.07906	0.22379
0.08065	0.29328
0.09329	0.24767
0.09387	0.31573
0.10645	0.25872
0.10717	0.34317
0.12046	0.36117
0.12054	0.36135
0.13282	0.3022
0.13383	0.3838
0.14712	0.39658
0.14713	0.39663
0.1605	0.41516
0.161	0.34176
0.17343	0.42942
0.17364	0.43012
0.18694	0.44595
0.18702	0.44582
0.20038	0.38703
0.20074	0.46114
0.21317	0.40271
0.21382	0.47647
0.22705	0.41892
0.22712	0.4184
0.2402	0.43087
0.24049	0.43406
0.25378	0.44571
0.25392	0.44442
0.26679	0.45333
0.26715	0.45895
0.28015	0.46616
0.28037	0.46676
0.29374	0.54776
0.29403	0.54883
0.3066	0.55546
0.30697	0.56095
0.32033	0.57521
0.32047	0.57357
0.33356	0.51655
0.33398	0.51535
0.34649	0.59161
0.3467	0.59165
0.35928	0.60088
0.3605	0.53674
0.37322	0.54743
0.37366	0.613
0.38673	0.55528
0.38703	0.55522
0.39939	0.56651
0.41354	0.57203
0.41383	0.63617
0.42655	0.5838
0.44006	0.65413
0.44021	0.65435
0.453	0.59842
0.45372	0.65756
0.46636	0.60234
0.46673	0.67147
0.47987	0.61232
0.4806	0.67717
0.49339	0.6248
0.50726	0.69108
0.51962	0.64583
0.52005	0.70035
0.53335	0.70213
0.53356	0.70047
0.54657	0.70908
0.54664	0.70962
0.55979	0.71853
0.56029	0.66117
0.57381	0.67471
0.57438	0.68141
0.58667	0.72717
0.58689	0.72923
0.60004	0.73565
0.60025	0.73422
0.61333	0.69575
0.61369	0.74171
0.62641	0.7467
0.62648	0.7011
0.63971	0.75597
0.64007	0.75599
0.65329	0.75786
0.65344	0.75776
0.66666	0.7232
0.66709	0.76418
0.67931	0.72428
0.68024	0.76988
0.69282	0.77055
0.69347	0.77345
0.70633	0.73783
0.7064	0.73788
0.72005	0.74567
0.72013	0.74557
0.73321	0.74932
0.73335	0.74959
0.74679	0.79734
0.74693	0.7973
0.7598	0.75609
0.75987	0.75566
0.77273	0.76956
0.77273	0.76957
0.78667	0.76957
0.78682	0.7695
0.7999	0.77301
0.80004	0.77242
0.81262	0.8202
0.81269	0.82017
0.82627	0.79417
0.82642	0.79406
0.83921	0.80539
0.83943	0.80557
0.8533	0.82838
0.85351	0.82824
0.86623	0.8077
0.8663	0.80772
0.87974	0.83801
0.87981	0.83808
0.89297	0.81557
0.89325	0.81724
0.90612	0.84799
0.90612	0.848
0.92006	0.83446
0.93264	0.84943
0.93278	0.84913
0.94607	0.85598
0.94615	0.85621
0.95923	0.85942
0.95944	0.85872
0.97295	0.86548
0.97324	0.85372
0.98646	0.85796
0.98661	0.858
0.99918	0.86834
0.99926	0.86835
1.01291	0.87227
1.01334	0.86407
1.02355	0.87156
1.02477	0.86978
1.03785	0.87976
1.03929	0.87548
1.05272	0.87762
1.05359	0.87477
1.06659	0.87977
