Adsorption isotherm of Carbon Dioxide on UiO-66
DOI: 10.1002/chem.201503078
Article source: Figure 8a- UiO 66
Adsorbate Carbon Dioxide: InChIKey CURLTUGMZLYLDI-UHFFFAOYSA-N
Kind: experiment
Temperature: 273 K
Tabular data in the source: 0
pressure (bar)	uptake (mmol/g)
0.06784	0.60327
0.08107	0.70981
0.09328	0.80103
0.10701	0.88441
0.1203	0.9653
0.13352	1.02928
0.13367	1.0298
0.1471	1.11496
0.14711	1.11496
0.16018	1.1487
0.16069	1.15131
0.17376	1.25322
0.17455	1.18196
0.18727	1.24218
0.18749	1.31665
0.19999	1.31345
0.20093	1.37937
0.214	1.37474
0.21429	1.3758
0.22751	1.42031
0.22765	1.42142
0.24052	1.55612
0.24116	1.46241
0.25503	1.51871
0.26818	1.56539
0.28133	1.61599
0.29283	1.75745
0.29426	1.65804
0.30684	1.802
0.30691	1.80229
0.32056	1.84547
0.32092	1.8475
0.33299	1.80308
0.33371	1.89073
0.34614	1.84299
0.34736	1.93599
0.35986	1.8829
0.3608	1.9734
0.37388	2.01225
0.37431	1.92673
0.38695	2.04931
0.38717	2.04937
0.40039	2.091
0.40154	2.08051
0.41325	2.12557
0.42683	2.16798
0.44041	2.20575
0.4532	2.19288
0.45406	2.19364
0.467	2.28201
0.46757	2.22643
0.48086	2.31729
0.48266	2.25672
0.49394	2.35186
0.49997	2.3002
0.5068	2.3853
0.50687	2.38607
0.52045	2.42349
0.52117	2.34474
0.53382	2.45521
0.53504	2.38074
0.54776	2.49227
0.54855	2.41566
0.5599	2.52291
0.56047	2.43669
0.57312	2.55142
0.57341	2.55153
0.58706	2.58243
0.58734	2.58284
0.59985	2.53597
0.59992	2.53611
0.61314	2.5651
0.61343	2.56498
0.62651	2.67794
0.62758	2.59705
0.64015	2.70716
0.64016	2.70716
0.65345	2.66405
0.66638	2.76596
0.66695	2.75692
0.6796	2.79483
0.67982	2.72428
0.69297	2.74987
0.69311	2.74994
0.70626	2.79009
0.70683	2.77987
0.71962	2.88231
0.7197	2.88321
0.73241	2.90887
0.7332	2.84188
0.74563	2.86754
0.74671	2.93381
0.76043	2.95947
0.76101	2.95219
0.7733	2.91865
0.77344	2.91886
0.78673	2.94821
0.78694	2.94808
0.79974	2.98725
0.79995	2.9855
0.8131	3.01401
0.81346	3.06959
0.82603	3.09525
0.8261	3.09492
0.83983	3.07245
0.8399	3.07299
0.85283	3.14907
0.85384	3.10381
0.86598	3.13169
0.86641	3.13197
0.87942	3.19932
0.88006	3.14195
0.89242	3.16405
0.89285	3.22391
0.906	3.19434
0.91958	3.27095
0.92008	3.26676
0.93266	3.29554
0.93359	3.25136
0.94667	3.31906
0.94738	3.27488
0.95917	3.29949
0.9596	3.29947
0.97232	3.36931
0.97311	3.32905
0.98568	3.38784
0.98618	3.35043
0.99998	3.41493
1.00034	3.416
1.01255	3.43453
1.01284	3.43475
1.02592	3.43088
1.02599	3.43097
1.03935	3.45302
1.03942	3.45307
1.0525	3.48083
1.05264	3.48015
1.06637	3.50118
