Adsorption isotherm of Nitrogen on UiO-66-(COOH)4-EX
DOI: 10.1002/chem.201503078
Article source: Figure 8d- UiO 66 COOH 4 EX
Adsorbate Nitrogen: InChIKey IJGRMHOSHXDMSA-UHFFFAOYSA-N
Kind: experiment
Temperature: 298 K
Tabular data in the source: 0
pressure (bar)	uptake (mmol/g)
0.01266	0.00211
0.02589	0.005553
0.03926	0.008051
0.05313	0.009773
0.06621	0.011567
0.0793	0.013653
0.09281	0.015811
0.10576	0.018091
0.11977	0.019619
0.13278	0.021486
0.13434	0.021123
0.14565	0.024032
0.14601	0.024082
0.1586	0.025488
0.15895	0.025553
0.17275	0.026773
0.17296	0.027573
0.18619	0.029489
0.19949	0.030586
0.19963	0.030605
0.21322	0.032812
0.21343	0.032832
0.22623	0.034437
0.22665	0.034472
0.23953	0.036595
0.2529	0.038657
0.26613	0.040645
0.27935	0.042294
0.29322	0.043604
0.29329	0.043613
0.30645	0.045326
0.31939	0.047944
0.31954	0.047969
0.33347	0.049376
0.34656	0.050684
0.3467	0.050686
0.36007	0.052408
0.36029	0.052457
0.37259	0.053984
0.3733	0.055027
0.38596	0.056652
0.38617	0.056264
0.39954	0.05844
0.39983	0.058471
0.41313	0.059967
0.4132	0.059974
0.42678	0.061163
0.42685	0.061174
0.43979	0.06337
0.43986	0.063371
0.45281	0.064147
0.46632	0.066511
0.46639	0.066523
0.47948	0.068131
0.47969	0.068148
0.49306	0.070306
0.4932	0.069385
0.50629	0.072101
0.50643	0.072123
0.51944	0.072998
0.51959	0.073036
0.5331	0.075545
0.53381	0.074648
0.5464	0.076544
0.54654	0.076539
0.55998	0.078964
0.573	0.080517
0.57307	0.080516
0.58629	0.08139
0.60009	0.083907
0.60016	0.083912
0.61239	0.085555
0.61247	0.085561
0.62598	0.08738
0.63899	0.08789
0.63906	0.087894
0.65243	0.090388
0.6525	0.090383
0.66623	0.091539
0.66644	0.091528
0.6796	0.093977
0.69233	0.094582
0.69247	0.094608
0.70556	0.0973
0.70591	0.097364
0.71935	0.098949
0.71942	0.098954
0.73286	0.099528
0.73322	0.099483
0.74666	0.102125
0.74666	0.102126
0.75946	0.102946
0.7596	0.102951
0.78655	0.10528
0.78656	0.10528
0.80035	0.108359
0.80049	0.108348
0.81308	0.109282
0.81315	0.109281
0.82609	0.111176
0.82674	0.111585
0.83954	0.112822
0.84025	0.11127
0.85255	0.114568
0.85298	0.11459
0.86599	0.114181
0.86663	0.116096
0.87993	0.117794
0.88071	0.115636
0.89259	0.116785
0.8933	0.116679
0.90646	0.120389
0.90717	0.118547
0.91968	0.122305
0.91982	0.122327
0.9332	0.123445
0.93341	0.123464
0.94621	0.123454
0.94649	0.12347
0.96029	0.12535
0.9605	0.125337
0.97359	0.127229
0.97373	0.127268
0.98184	0.12866
0.98653	0.128393
0.9999	0.129679
1.00701	0.131522
1.01313	0.131401
1.02515	0.133123
1.03276	0.134384
1.03958	0.134578
1.05345	0.136009
1.06718	0.137561
