Adsorption isotherm of Nitrogen on UiO-66(Zr) 100 Equ. FA
DOI: 10.1002/chem.201503078
Article source: Figure 1b- 100 Equ FA
Adsorbate Nitrogen: InChIKey IJGRMHOSHXDMSA-UHFFFAOYSA-N
Kind: experiment
Temperature: 77 K
Tabular data in the source: 0
pressure (bar)	uptake (cm3(STP)/g)
0.000162	160.455
0.000233	206.546
0.000243	207.741
0.000243	208.364
0.000314	223.727
0.000456	214.623
0.00075	232.091
0.001115	250.754
0.001327	240.171
0.00227	260.996
0.002989	268.166
0.003931	277.042
0.005441	286.999
0.006748	297.288
0.008552	303.728
0.021542	350.9
0.024136	360.516
0.029911	368.881
0.033883	376.905
0.039578	387.546
0.040084	384.36
0.044127	397.504
0.046721	397.618
0.050764	407.166
0.050835	407.235
0.058262	412.414
0.060359	419.527
0.06808	423.34
0.071617	428.291
0.076592	429.259
0.081212	433.755
0.087626	435.918
0.090797	437.398
0.101335	439.846
0.103422	439.505
0.111143	442.295
0.11396	440.702
0.121316	444.572
0.122542	443.036
0.132574	446.395
0.132786	446.455
0.141298	446.681
0.151542	448.276
0.152484	447.536
0.163083	448.904
0.172394	450.385
0.182567	451.069
0.192234	452.152
0.202042	452.893
0.212934	453.635
0.222672	454.148
0.232916	454.89
0.242795	455.461
0.252897	456.6
0.263283	457.057
0.273679	457.287
0.283193	457.8
0.292718	458.769
0.301736	458.828
0.312628	459.398
0.323521	459.912
0.33341	460.255
0.344444	460.655
0.35404	461.112
0.363199	461.797
0.373302	462.026
0.384772	462.654
0.394722	462.655
0.405908	463.511
0.415929	464.48
0.425889	464.937
0.43591	465.621
0.446377	466.533
0.456621	467.888
0.456763	467.957
0.465994	465.324
0.466136	465.285
0.47645	470.819
0.476602	470.749
0.485397	468.019
0.487637	473.084
0.497161	468.363
0.497952	473.825
0.508054	474.225
0.508125	474.138
0.516778	475.137
0.517862	468.878
0.528106	469.221
0.528754	475.196
0.536982	469.45
0.538715	475.197
0.546577	470.135
0.547733	475.313
0.558047	470.478
0.558473	470.575
0.568068	476.227
0.568646	469
0.578464	470.905
0.578535	470.823
0.587695	476.794
0.58805	476.628
0.598081	471.395
0.5988	476.971
0.608467	477.542
0.60869	477.32
0.618853	471.911
0.618853	471.912
0.628742	472.766
0.628813	472.767
0.638621	478.565
0.638763	478.742
0.648429	474.292
0.6485	474.306
0.658673	479.77
0.658825	479.836
0.668492	475.674
0.668917	479.999
0.67909	476.075
0.679313	476.119
0.689192	476.816
0.690135	480.685
0.699142	481.825
0.699578	481.996
0.710035	477.502
0.710542	481.371
0.719489	477.589
0.719782	477.39
0.728871	479.326
0.729591	482.683
0.739693	479.613
0.749643	480.468
0.749937	483.597
0.760829	481.38
0.761326	484.225
0.770202	481.483
0.770273	481.438
0.780162	481.44
0.780375	481.628
0.790112	483.661
0.790548	485.539
0.80065	483.094
0.800863	483.115
0.810671	487.192
0.810742	483.494
0.820337	487.652
0.820844	488.104
0.831088	488.902
0.831665	484.977
0.841038	490.213
0.841048	490.213
0.852012	491.125
0.852082	491.107
0.859155	488.623
0.861242	491.639
0.871344	488.397
0.87177	493.689
0.881224	489.309
0.882237	494.885
0.891761	490.051
0.892339	496.48
0.900414	491.418
0.902583	498.872
0.911884	492.216
0.911955	492.252
0.921835	494.266
0.922128	504.679
0.932372	508.208
0.932514	495.178
0.941968	510.486
0.942758	497.229
0.952283	499.278
0.952789	514.243
0.962598	500.646
0.964047	517.147
0.972983	503.549
0.978323	518.799
0.983086	506.453
0.987057	519.085
0.994626	507.422
0.994991	518.062
1.00307	516.3
