Adsorption isotherm of Carbon Dioxide on UiO-66-(COOLi)4-EX
DOI: 10.1002/chem.201503078
Article source: Figure 8a- UiO 66 COOLi 4 EX
Adsorbate Carbon Dioxide: InChIKey CURLTUGMZLYLDI-UHFFFAOYSA-N
Kind: experiment
Temperature: 273 K
Tabular data in the source: 0
pressure (bar)	uptake (mmol/g)
0.0085	0.12866
0.01527	0.29545
0.02772	0.44906
0.04096	0.58841
0.04188	0.45263
0.05375	0.71726
0.05391	0.71779
0.06691	0.70318
0.06707	0.83861
0.08087	0.80405
0.08124	0.80592
0.0939	1.05174
0.09439	0.89886
0.10656	0.99654
0.10669	0.99723
0.12015	1.23601
0.12064	1.07956
0.13396	1.3187
0.13509	1.15476
0.14712	1.23388
0.14731	1.23425
0.16056	1.32462
0.16062	1.32478
0.17358	1.54182
0.17521	1.38751
0.18686	1.44846
0.1871	1.45652
0.20047	1.66978
0.20138	1.50513
0.21391	1.56668
0.21418	1.5668
0.22707	1.7874
0.22741	1.62668
0.24015	1.84158
0.24092	1.67943
0.25401	1.89142
0.25417	1.89505
0.26726	1.78686
0.26731	1.78601
0.28046	1.83591
0.28077	1.99379
0.29369	1.88154
0.29407	1.88197
0.30608	2.08468
0.308	1.92966
0.32038	2.12639
0.32072	1.97706
0.33301	2.01556
0.33339	2.0311
0.34667	2.06261
0.34719	2.06927
0.36054	2.24943
0.36071	2.25436
0.37393	2.29214
0.37427	2.14531
0.38701	2.33064
0.38757	2.33156
0.40029	2.22195
0.40082	2.36914
0.41381	2.40299
0.41426	2.40692
0.42725	2.29717
0.42734	2.29752
0.44019	2.33139
0.44028	2.33169
0.45313	2.36989
0.45429	2.5103
0.46757	2.54729
0.46759	2.54738
0.4803	2.4394
0.48031	2.57518
0.49361	2.61047
0.49366	2.60937
0.50676	2.63828
0.50696	2.5082
0.52019	2.67258
0.5202	2.67286
0.53393	2.70209
0.53413	2.56916
0.54707	2.59911
0.54744	2.60709
0.56002	2.75842
0.56044	2.63297
0.57352	2.66648
0.5744	2.7905
0.58653	2.81406
0.58654	2.81439
0.59941	2.84255
0.60141	2.72815
0.61334	2.86908
0.61335	2.86929
0.62701	2.78419
0.62721	2.78163
0.64043	2.80944
0.64045	2.80965
0.65353	2.94915
0.65502	2.83653
0.6666	2.97221
0.66682	2.97196
0.67996	2.89215
0.68055	2.99728
0.69326	2.91781
0.69327	2.91784
0.70627	2.94633
0.70635	2.94649
0.72028	2.97414
0.7208	3.06858
0.73381	3.09354
0.73502	2.99839
0.74695	3.0212
0.74696	3.02136
0.76047	3.13597
0.76118	3.04545
0.77391	3.08849
0.77412	3.08537
0.78619	3.10106
0.78699	3.18089
0.80013	3.1278
0.80029	3.12784
0.81315	3.21975
0.8135	3.2171
0.82608	3.15241
0.82731	3.23758
0.84053	3.25969
0.84067	3.25794
0.85318	3.28179
0.85468	3.1984
0.86648	3.30176
0.86762	3.21801
0.88064	3.23755
0.88077	3.23762
0.89393	3.34312
0.89529	3.25581
0.90773	3.36237
0.90779	3.36248
0.9211	3.37877
0.92217	3.37448
0.93339	3.39874
0.94675	3.4155
0.96026	3.43226
0.97313	3.45436
0.98592	3.47112
0.99994	3.49145
1.01381	3.51034
1.03055	3.52105
1.04485	3.53638
1.0598	3.55742
1.06907	3.55992
