Adsorption isotherm of Carbon Dioxide on UiO-66-(COOLi)2-EX
DOI: 10.1002/chem.201503078
Article source: Figure 8b- UiO 66 COOLi 2 EX
Adsorbate Carbon Dioxide: InChIKey CURLTUGMZLYLDI-UHFFFAOYSA-N
Kind: experiment
Temperature: 298 K
Tabular data in the source: 0
pressure (bar)	uptake (mmol/g)
0.02712	0.17587
0.04128	0.22596
0.05538	0.26811
0.06755	0.31599
0.08093	0.35836
0.09395	0.39455
0.10712	0.43272
0.12043	0.46825
0.13367	0.50334
0.14698	0.53997
0.16079	0.57131
0.17367	0.60088
0.18712	0.63111
0.20029	0.66222
0.21353	0.68959
0.21409	0.60839
0.22669	0.71695
0.22804	0.6373
0.24008	0.67272
0.24071	0.66135
0.25374	0.69004
0.25395	0.76991
0.26691	0.71498
0.26698	0.71495
0.28043	0.82067
0.28071	0.81684
0.29367	0.76488
0.29381	0.76507
0.30698	0.7889
0.30754	0.78625
0.32036	0.89482
0.32093	0.81097
0.33381	0.91998
0.33395	0.9206
0.34705	0.86062
0.34712	0.86162
0.36029	0.88557
0.36043	0.88424
0.37302	0.98658
0.3736	0.98728
0.38683	0.92793
0.38691	0.92811
0.39964	0.94713
0.40029	1.02811
0.41381	1.04863
0.41395	1.04691
0.4269	0.99057
0.42697	0.99061
0.44021	1.0156
0.4405	1.01179
0.45388	1.03143
0.45388	1.03146
0.46654	1.05063
0.46726	1.12742
0.48042	1.06983
0.48043	1.06983
0.49345	1.16405
0.49437	1.08947
0.50704	1.18137
0.50711	1.18215
0.52042	1.19936
0.5212	1.12655
0.53388	1.2157
0.53437	1.21411
0.5469	1.23313
0.54754	1.16142
0.56035	1.24877
0.56057	1.25101
0.57366	1.20143
0.57409	1.19717
0.5869	1.21328
0.5874	1.28323
0.60042	1.3
0.6012	1.23049
0.61323	1.31589
0.61451	1.24705
0.62711	1.33183
0.62732	1.33156
0.64013	1.344
0.64078	1.34855
0.65394	1.29781
0.65423	1.36312
0.66739	1.37768
0.66789	1.37293
0.68027	1.32782
0.68042	1.32924
0.69401	1.40505
0.69458	1.34768
0.70718	1.36302
0.70725	1.36247
0.71977	1.37748
0.72013	1.4322
0.73387	1.4461
0.73401	1.44506
0.74675	1.46067
0.74689	1.46103
0.7597	1.42184
0.76041	1.47413
0.77394	1.48117
0.77429	1.48517
0.78675	1.49929
0.7871	1.44876
0.8007	1.46377
0.80077	1.46439
0.81351	1.47789
0.81379	1.47853
0.82675	1.49312
0.82717	1.53571
0.84013	1.54457
0.84027	1.54564
0.85408	1.51741
0.85429	1.51784
0.86682	1.56992
0.86802	1.53373
0.88034	1.57963
0.88041	1.5798
0.89407	1.55889
0.89429	1.56029
0.90646	1.59981
0.90696	1.6006
0.91969	1.5792
0.92076	1.61141
0.93372	1.59398
0.93386	1.59413
0.94688	1.60723
0.94717	1.60716
0.95998	1.64209
0.96033	1.62157
0.97329	1.65467
0.97435	1.63172
0.98695	1.64714
0.98702	1.64717
0.99991	1.67365
1.00012	1.6549
1.01393	1.66814
1.02787	1.67807
1.02802	1.67816
1.04126	1.69847
1.04154	1.69904
1.05357	1.70279
1.05478	1.70588
1.06766	1.70964
