Adsorption isotherm of Carbon Dioxide on UiO-66-(COONa)4-EX
DOI: 10.1002/chem.201503078
Article source: Figure 8a- UiO 66 COONa 4 EX
Adsorbate Carbon Dioxide: InChIKey CURLTUGMZLYLDI-UHFFFAOYSA-N
Kind: experiment
Temperature: 273 K
Tabular data in the source: 0
pressure (bar)	uptake (mmol/g)
0.01811	0.09514
0.02709	0.20526
0.0401	0.26976
0.05325	0.33033
0.06691	0.39091
0.06806	0.32499
0.08006	0.39763
0.08049	0.39804
0.09379	0.50174
0.09429	0.50259
0.10686	0.54966
0.10715	0.54984
0.1203	0.59296
0.13345	0.55733
0.13381	0.55959
0.14689	0.67955
0.16004	0.72181
0.16019	0.72232
0.1742	0.67742
0.18649	0.77039
0.18728	0.79073
0.20058	0.82744
0.20072	0.74619
0.21358	0.85915
0.21401	0.85823
0.22695	0.81421
0.22731	0.8139
0.24017	0.92151
0.24053	0.84241
0.25383	0.95465
0.2539	0.95505
0.26647	0.97677
0.26698	0.98352
0.27998	1.01096
0.2807	0.93541
0.29364	0.95929
0.29371	0.9604
0.30707	1.06548
0.30708	1.06548
0.32008	1.01666
0.32023	1.01707
0.33273	1.03768
0.33359	1.11715
0.34674	1.13869
0.34696	1.1396
0.36025	1.0865
0.3604	1.08643
0.37348	1.19127
0.37383	1.18758
0.3867	1.21229
0.38706	1.21229
0.39985	1.1592
0.40007	1.23902
0.41343	1.18307
0.41386	1.1853
0.42672	1.27874
0.42709	1.28463
0.44052	1.23339
0.44067	1.23225
0.45339	1.25755
0.45367	1.26212
0.46682	1.34717
0.4669	1.34735
0.47997	1.36463
0.48019	1.36517
0.49305	1.31777
0.49356	1.32042
0.50678	1.33987
0.50714	1.40258
0.51964	1.42575
0.52065	1.3584
0.53366	1.44463
0.53387	1.445
0.5453	1.40793
0.54645	1.46209
0.5601	1.47802
0.56017	1.47884
0.5734	1.49666
0.57368	1.49353
0.58662	1.51412
0.58676	1.51464
0.59955	1.53385
0.59977	1.53408
0.61385	1.49987
0.61407	1.49975
0.62708	1.56757
0.62722	1.56682
0.63972	1.582
0.63994	1.58396
0.65338	1.59608
0.65381	1.54013
0.66646	1.61604
0.66667	1.61626
0.67925	1.62922
0.68004	1.5804
0.6929	1.58788
0.69384	1.64347
0.70648	1.66272
0.70677	1.65992
0.71978	1.62877
0.72006	1.62637
0.73336	1.69356
0.73343	1.69408
0.74651	1.70441
0.74694	1.70158
0.75973	1.71922
0.76009	1.71938
0.7731	1.73336
0.77317	1.73399
0.78603	1.7486
0.78654	1.74488
0.79947	1.75879
0.79983	1.76143
0.81277	1.7357
0.81298	1.7347
0.82671	1.7429
0.82678	1.74331
0.8395	1.75765
0.84007	1.75857
0.85308	1.81595
0.85337	1.77568
0.86601	1.82521
0.86673	1.79207
0.87952	1.83952
0.8796	1.83947
0.89296	1.81737
0.89311	1.85479
0.9059	1.84089
0.90604	1.84102
0.91962	1.87862
0.91969	1.87902
0.93292	1.89007
0.93313	1.88928
0.94578	1.90076
0.94592	1.90106
0.95958	1.9119
0.95965	1.91216
0.97302	1.92677
0.97323	1.92644
0.98609	1.9143
0.98617	1.91453
0.99939	1.92719
0.99953	1.92748
1.0124	1.96454
1.01311	1.96535
1.02576	1.94851
1.03151	1.97416
1.0392	1.96241
1.04358	1.98094
1.0553	1.98664
1.06715	1.98984
