Adsorption isotherm of Nitrogen on UiO-66-(COOK)2-EX
DOI: 10.1002/chem.201503078
Article source: Figure 8c- UiO 66 COOK 2 EX
Adsorbate Nitrogen: InChIKey IJGRMHOSHXDMSA-UHFFFAOYSA-N
Kind: experiment
Temperature: 273 K
Tabular data in the source: 0
pressure (bar)	uptake (mmol/g)
0.0103	0.022764
0.02712	0.009596
0.04353	0.011844
0.04828	0.004807
0.05361	0.013857
0.05765	0.006504
0.06589	0.017015
0.06944	0.008753
0.08009	0.019224
0.0933	0.022105
0.10643	0.02546
0.11985	0.022889
0.1207	0.022175
0.13341	0.029871
0.13391	0.030471
0.14669	0.033827
0.14804	0.028214
0.15997	0.036313
0.16039	0.030582
0.17339	0.039076
0.1736	0.034372
0.18667	0.042233
0.18695	0.042241
0.20023	0.044877
0.20058	0.044909
0.21329	0.047798
0.21343	0.04786
0.22678	0.045936
0.22735	0.04642
0.23928	0.054233
0.23985	0.048738
0.25348	0.051629
0.25369	0.051659
0.26584	0.053951
0.26654	0.05375
0.27968	0.061334
0.28053	0.056552
0.29374	0.059332
0.29388	0.059354
0.30673	0.066583
0.30744	0.061681
0.31994	0.069069
0.32036	0.069082
0.33329	0.071989
0.33393	0.071882
0.34685	0.074475
0.34706	0.074508
0.36048	0.077238
0.36076	0.077303
0.37333	0.079518
0.37348	0.079605
0.38618	0.077616
0.3864	0.077546
0.39974	0.080704
0.40095	0.084616
0.41295	0.083664
0.41494	0.087458
0.42587	0.085478
0.42708	0.089114
0.43958	0.092549
0.43993	0.088636
0.453	0.095074
0.45314	0.095109
0.46691	0.097402
0.46698	0.097408
0.47977	0.099058
0.48033	0.096093
0.49311	0.101
0.49318	0.10103
0.50618	0.1019
0.50632	0.101935
0.51981	0.104699
0.52016	0.104618
0.53316	0.109849
0.53344	0.109989
0.54651	0.10973
0.54686	0.109629
0.56021	0.111404
0.56042	0.114368
0.5737	0.114562
0.57377	0.114566
0.58655	0.119143
0.58691	0.119105
0.60026	0.119613
0.60075	0.119811
0.61318	0.123166
0.61332	0.12316
0.62681	0.124229
0.62724	0.125533
0.63973	0.126713
0.64016	0.126794
0.65301	0.130069
0.65308	0.13007
0.66678	0.133188
0.6802	0.134844
0.69313	0.137212
0.6932	0.137228
0.70718	0.140053
0.72004	0.142934
0.7336	0.144669
0.74787	0.147155
0.76058	0.149009
0.77386	0.151573
0.78678	0.15402
0.78706	0.153993
0.79963	0.156269
0.81376	0.157685
0.81397	0.157727
0.82711	0.159558
0.82725	0.15958
0.84053	0.161512
0.84081	0.161513
0.85409	0.164829
0.86701	0.167117
0.87993	0.169445
0.89328	0.171457
0.90677	0.173152
0.92005	0.175519
0.93333	0.177926
0.94682	0.180491
0.94724	0.181242
0.96024	0.183293
0.96073	0.183301
0.97401	0.184237
0.98707	0.186565
1.00035	0.188775
1.01384	0.190984
1.02598	0.192669
1.02605	0.19268
1.04004	0.195521
1.05389	0.19684
1.05396	0.19686
1.06837	0.198753
