Adsorption isotherm of Nitrogen on UiO-66-(COONa)2-EX
DOI: 10.1002/chem.201503078
Article source: Figure 7a- UiO 66 COONa 2 EX
Adsorbate Nitrogen: InChIKey IJGRMHOSHXDMSA-UHFFFAOYSA-N
Kind: experiment
Temperature: 77 K
Tabular data in the source: 0
pressure (bar)	uptake (cm3(STP)/g)
0.000182	88.822
0.000243	74.396
0.000294	8.202
0.000446	15.473
0.000537	65.322
0.000608	56.19
0.000679	36.006
0.000679	46.825
0.000699	106.264
0.000699	108.134
0.00078	117.964
0.000892	25.419
0.001297	133.088
0.002108	141.696
0.003283	150.305
0.003506	159.437
0.005269	166.475
0.006819	173.688
0.009981	182.121
0.013355	188.577
0.020478	197.127
0.031279	206.665
0.04207	210.967
0.051108	212.536
0.061454	214.163
0.071373	215.499
0.08179	216.661
0.091851	217.241
0.101761	217.879
0.111528	218.866
0.121813	219.737
0.131793	220.317
0.142068	220.78
0.152129	221.127
0.162485	221.417
0.172546	222.055
0.182456	222.344
0.192001	222.866
0.202275	223.562
0.212631	223.909
0.223057	224.198
0.233919	224.313
0.242288	224.427
0.253161	224.6
0.263587	224.889
0.273496	225.12
0.283477	225.293
0.29368	225.756
0.304036	226.336
0.313722	226.335
0.323642	226.391
0.334069	226.68
0.344708	226.678
0.354252	226.851
0.364973	227.024
0.372613	227.604
0.384133	227.66
0.393607	227.659
0.404692	227.657
0.414895	228.062
0.42518	228.351
0.435971	228.524
0.446326	228.697
0.456307	228.811
0.466804	228.81
0.475245	229.157
0.485671	229.504
0.496026	229.735
0.5055	229.966
0.516139	230.546
0.526647	229.963
0.536263	230.252
0.546608	230.192
0.55674	230.481
0.567683	230.886
0.577664	230.768
0.587948	231.872
0.597422	231.986
0.607991	231.577
0.618265	231.925
0.627597	232.272
0.635743	232.561
0.647193	232.385
0.656961	232.383
0.667458	232.789
0.677368	233.485
0.687581	233.076
0.697785	233.132
0.708799	233.479
0.718637	233.594
0.728618	234.174
0.739115	234.172
0.749248	234.578
0.759968	234.111
0.769513	234.632
0.779939	235.154
0.790072	234.92
0.799981	235.151
0.809749	235.672
0.819658	235.729
0.830014	236.309
0.840288	236.307
0.849985	236.305
0.861141	236.711
0.870615	236.593
0.8817	237.347
0.89242	237.578
0.901884	237.867
0.911135	238.447
0.921713	239.085
0.932281	239.258
0.941532	239.896
0.952323	240.058
0.952404	240.069
0.961797	241.812
0.961868	241.812
0.972294	243.613
0.972669	243.677
0.980157	242.332
0.985811	244.949
0.992934	244.192
0.998001	245.994
1.00364	245.12
