Adsorption isotherm of Carbon Dioxide on UiO-66-(COOH)4-EX
DOI: 10.1002/chem.201503078
Article source: Figure 8b- UiO 66 COOH 4 EX
Adsorbate Carbon Dioxide: InChIKey CURLTUGMZLYLDI-UHFFFAOYSA-N
Kind: experiment
Temperature: 298 K
Tabular data in the source: 0
pressure (bar)	uptake (mmol/g)
0.21591	0.56281
0.2285	0.58531
0.24302	0.61618
0.25605	0.63956
0.26972	0.66249
0.28132	0.68322
0.29498	0.69446
0.30865	0.71518
0.32146	0.73128
0.33605	0.75134
0.34879	0.77075
0.36346	0.7939
0.37456	0.80911
0.38787	0.82521
0.38794	0.8257
0.4004	0.8841
0.40246	0.84483
0.41392	0.90549
0.41548	0.85916
0.42716	0.92269
0.42844	0.87636
0.44097	0.94054
0.44111	0.94057
0.45435	0.96017
0.4552	0.90348
0.46723	0.97759
0.46936	0.92067
0.48111	0.99545
0.49414	1.01529
0.50766	1.03293
0.52083	1.04682
0.53428	1.06335
0.54759	1.07901
0.56061	1.09665
0.57178	1.05605
0.57385	1.1112
0.58701	1.07744
0.5878	1.12464
0.6004	1.09515
0.60054	1.09463
0.61378	1.11713
0.61385	1.11774
0.6268	1.12925
0.62766	1.17315
0.64047	1.18571
0.64082	1.1836
0.65328	1.20176
0.65385	1.20181
0.66616	1.16805
0.66695	1.21459
0.68018	1.22558
0.68061	1.22716
0.69363	1.20399
0.69378	1.24325
0.70708	1.22229
0.70716	1.22237
0.72032	1.23287
0.7209	1.26971
0.73413	1.28227
0.7342	1.28192
0.74666	1.26572
0.74715	1.26219
0.76025	1.27299
0.7604	1.27403
0.7737	1.32073
0.77406	1.32328
0.7873	1.3354
0.78758	1.33426
0.80039	1.34773
0.8004	1.34775
0.81385	1.32776
0.81391	1.32788
0.82687	1.37243
0.82708	1.37279
0.83989	1.35434
0.84075	1.38323
0.85384	1.37043
0.85392	1.37044
0.8668	1.38091
0.86687	1.38101
0.88039	1.41983
0.88046	1.41997
0.89405	1.40592
0.89406	1.40593
0.90644	1.41518
0.90701	1.44099
0.9206	1.4304
0.92074	1.43017
0.93384	1.46258
0.93384	1.46259
0.94765	1.47361
0.94779	1.47329
0.95975	1.46669
0.96039	1.46367
0.97327	1.47536
0.9742	1.47901
0.98167	1.50314
0.98636	1.48858
1.00102	1.50048
1.00772	1.52386
1.01497	1.50886
1.02679	1.5201
1.03376	1.53951
1.04109	1.5298
1.05476	1.54435
1.06743	1.55294
