Adsorption isotherm of Nitrogen on UiO-66-(COOLi)2-EX
DOI: 10.1002/chem.201503078
Article source: Figure 8c- UiO 66 COOLi 2 EX
Adsorbate Nitrogen: InChIKey IJGRMHOSHXDMSA-UHFFFAOYSA-N
Kind: experiment
Temperature: 273 K
Tabular data in the source: 0
pressure (bar)	uptake (mmol/g)
0.05213	0.017142
0.06576	0.02121
0.08025	0.025041
0.09317	0.028002
0.10631	0.030804
0.1208	0.034832
0.13287	0.038822
0.14608	0.042771
0.1595	0.046246
0.17335	0.049642
0.18663	0.053275
0.19948	0.056394
0.21312	0.059552
0.22618	0.063779
0.23939	0.066977
0.25253	0.070373
0.26659	0.074006
0.2793	0.078469
0.29301	0.08143
0.3065	0.084272
0.31957	0.087668
0.33271	0.092013
0.34598	0.094816
0.35969	0.098923
0.37411	0.102081
0.38653	0.105952
0.39974	0.10915
0.41281	0.112427
0.42595	0.11527
0.44015	0.11827
0.45307	0.121626
0.4672	0.125061
0.48013	0.127824
0.49327	0.131339
0.50704	0.134853
0.51997	0.138842
0.53445	0.140854
0.54674	0.145634
0.56016	0.148476
0.57351	0.15203
0.58629	0.154161
0.60049	0.156924
0.61257	0.160676
0.61292	0.158224
0.62592	0.16502
0.62783	0.161501
0.64019	0.167348
0.64054	0.167423
0.65304	0.171021
0.65397	0.16849
0.66647	0.17418
0.66675	0.174195
0.67939	0.177338
0.67981	0.174293
0.69338	0.177887
0.69345	0.177932
0.70637	0.182904
0.70722	0.179938
0.71937	0.185746
0.72022	0.18286
0.73329	0.187046
0.73378	0.187123
0.74692	0.189809
0.75999	0.192098
0.77284	0.194585
0.78676	0.198613
0.80039	0.200625
0.81296	0.203072
0.82702	0.206428
0.84016	0.209665
0.85372	0.212587
0.86721	0.215192
0.88063	0.218113
0.89398	0.220362
0.90726	0.223956
0.92068	0.226916
0.93396	0.230075
0.94746	0.232324
0.96116	0.235443
0.9738	0.238681
0.98687	0.241523
1.00078	0.243812
1.01413	0.247168
1.02784	0.249931
1.04034	0.252378
1.05376	0.255062
1.06753	0.257548
