Adsorption isotherm of Nitrogen on UiO-66-(COONa)4-EX
DOI: 10.1002/chem.201503078
Article source: Figure 8d- UiO 66 COONa 4 EX
Adsorbate Nitrogen: InChIKey IJGRMHOSHXDMSA-UHFFFAOYSA-N
Kind: experiment
Temperature: 298 K
Tabular data in the source: 0
pressure (bar)	uptake (mmol/g)
0.02232	0.005756
0.03959	0.008368
0.51925	0.080491
0.53289	0.082527
0.54512	0.084348
0.55883	0.085828
0.57205	0.087235
0.58627	0.089685
0.60077	0.091529
0.61327	0.093325
0.62557	0.095629
0.63914	0.097327
0.65236	0.098589
0.66572	0.1007
0.67951	0.102131
0.69252	0.103975
0.70638	0.105674
0.71817	0.106693
0.73225	0.108828
0.74582	0.110114
0.75968	0.111425
0.77233	0.113511
0.78598	0.114821
0.79941	0.116641
0.81312	0.117636
0.82641	0.119577
0.84027	0.120912
0.85243	0.121786
0.86579	0.123023
0.87915	0.125085
0.89294	0.126347
0.90665	0.128434
0.91945	0.130399
0.93316	0.131661
0.94681	0.13365
0.95939	0.135518
0.97325	0.136562
0.98639	0.137533
0.99954	0.138892
1.01312	0.140517
1.03017	0.141852
1.03131	0.141392
1.04268	0.142847
1.05512	0.144327
1.0672	0.145662
