Adsorption isotherm of Carbon Dioxide on UiO-66-(COOLi)2-EX
DOI: 10.1002/chem.201503078
Article source: Figure 8a- UiO 66 COOLi 2 EX
Adsorbate Carbon Dioxide: InChIKey CURLTUGMZLYLDI-UHFFFAOYSA-N
Kind: experiment
Temperature: 273 K
Tabular data in the source: 0
pressure (bar)	uptake (mmol/g)
0.04002	0.37907
0.05418	0.46137
0.0674	0.53547
0.08084	0.59853
0.09391	0.66016
0.10685	0.72108
0.12028	0.78129
0.13343	0.83294
0.14701	0.88531
0.16038	0.93554
0.17382	0.98221
0.18682	1.02888
0.20047	1.07306
0.21377	1.11438
0.22684	1.15499
0.24021	1.1956
0.25357	1.2355
0.26644	1.27077
0.26766	1.15106
0.28009	1.30996
0.28131	1.17314
0.2936	1.34415
0.29381	1.34428
0.3066	1.37871
0.30703	1.25472
0.32026	1.2793
0.33326	1.44354
0.33412	1.31207
0.3467	1.47489
0.34799	1.35126
0.35978	1.3819
0.36071	1.50517
0.37314	1.41182
0.37328	1.41261
0.38679	1.44388
0.38701	1.44343
0.40001	1.59352
0.40009	1.5921
0.41316	1.62736
0.41403	1.49696
0.42696	1.53356
0.42725	1.53329
0.4404	1.67473
0.44198	1.55858
0.45319	1.59206
0.4534	1.59207
0.46655	1.72639
0.46662	1.72641
0.47999	1.75488
0.48064	1.75112
0.49292	1.77661
0.494	1.67151
0.50672	1.80297
0.5078	1.69217
0.52051	1.7198
0.52087	1.71888
0.53338	1.85142
0.53453	1.74418
0.54667	1.76454
0.54689	1.76448
0.55982	1.8963
0.56054	1.79298
0.57318	1.91447
0.57333	1.91456
0.58705	1.93619
0.58813	1.84035
0.59948	1.95757
0.60178	1.86493
0.61278	1.89237
0.61349	1.88737
0.62679	1.9971
0.62837	1.91908
0.63994	2.01776
0.64109	1.95363
0.65287	2.03736
0.6533	1.97394
0.66681	2.05873
0.66703	2.05904
0.67967	2.07547
0.68003	2.075
0.69311	2.09363
0.69397	2.03698
0.70619	2.11144
0.70676	2.05586
0.71962	2.13068
0.72034	2.07367
0.73263	2.094
0.73292	2.09077
0.74592	2.10217
0.7465	2.16986
0.76008	2.11962
0.76029	2.18553
0.77301	2.13458
0.77323	2.13506
0.7853	2.14776
0.78652	2.21759
0.80032	2.23397
0.80039	2.23332
0.81311	2.24964
0.81347	2.19014
0.82597	2.21535
0.82661	2.21223
0.83941	2.28099
0.84034	2.22897
0.85248	2.26042
0.85263	2.25961
0.86599	2.27136
0.86606	2.27179
0.8795	2.32729
0.87972	2.32629
0.89272	2.33869
0.89294	2.33865
0.90537	2.35115
0.90573	2.31588
0.91888	2.36825
0.91938	2.33119
0.9326	2.38535
0.93346	2.35257
0.94589	2.36432
0.95926	2.40921
0.9594	2.40928
0.97255	2.42488
0.98606	2.43734
0.98628	2.43762
0.99971	2.42451
1	2.42594
1.0125	2.44079
1.01279	2.44018
1.02687	2.45051
1.02759	2.47403
1.04074	2.48229
1.04096	2.48293
1.05339	2.48649
1.06711	2.4986
