Adsorption isotherm of Carbon Dioxide on UiO-66-(COONa)4-EX
DOI: 10.1002/chem.201503078
Article source: Figure 8b- UiO 66 COONa 4 EX
Adsorbate Carbon Dioxide: InChIKey CURLTUGMZLYLDI-UHFFFAOYSA-N
Kind: experiment
Temperature: 298 K
Tabular data in the source: 0
pressure (bar)	uptake (mmol/g)
0.01452	0.06971
0.02256	0.04898
0.04143	0.1145
0.05417	0.14252
0.06656	0.20074
0.06692	0.20385
0.08016	0.23275
0.08108	0.18068
0.09354	0.2601
0.09446	0.25693
0.10685	0.28702
0.12059	0.31371
0.13418	0.33688
0.1344	0.33953
0.14714	0.36468
0.14962	0.30665
0.16038	0.38916
0.16244	0.33533
0.1739	0.41453
0.17404	0.36291
0.18643	0.4366
0.18735	0.38475
0.20059	0.45725
0.20074	0.45844
0.21376	0.47917
0.21411	0.42887
0.22657	0.45182
0.22743	0.50146
0.24095	0.52308
0.24123	0.47101
0.25348	0.54078
0.25369	0.54249
0.26722	0.56477
0.26736	0.56418
0.28045	0.53124
0.28074	0.53443
0.29383	0.59969
0.29405	0.60029
0.30714	0.61611
0.30736	0.61838
0.32067	0.63758
0.32081	0.63661
0.33391	0.60563
0.33419	0.60338
0.3475	0.62191
0.34765	0.67111
0.36067	0.63956
0.36103	0.64081
0.37362	0.70284
0.37413	0.70486
0.38708	0.67243
0.38751	0.72031
0.40082	0.73663
0.40117	0.73476
0.41313	0.70376
0.41441	0.75075
0.42736	0.72008
0.42772	0.76752
0.44046	0.73729
0.44046	0.7373
0.45327	0.74832
0.45427	0.7962
0.46729	0.76509
0.46765	0.81186
0.48046	0.77921
0.48125	0.82333
0.49313	0.79178
0.49427	0.83701
0.50672	0.80657
0.50744	0.85113
0.52061	0.86834
0.52067	0.86802
0.53413	0.83414
0.5342	0.83461
0.54701	0.89283
0.54801	0.84981
0.56039	0.90518
0.56124	0.85973
0.57441	0.9182
0.57448	0.91839
0.5868	0.92541
0.58744	0.93121
0.60025	0.9418
0.60053	0.89812
0.61356	0.91356
0.61385	0.91624
0.62694	0.96591
0.62744	0.96761
0.64046	0.93518
0.64068	0.97842
0.65406	0.98923
0.65434	0.98726
0.66723	0.96182
0.66758	0.96166
0.68125	1.00975
0.68132	0.97489
0.69406	1.02056
0.69434	1.02095
0.70715	1.02898
0.70744	1.03049
0.72111	1.004
0.72117	1.00379
0.73399	1.02122
0.7342	1.02244
0.7473	1.06137
0.74744	1.03071
0.76039	1.04042
0.76103	1.06843
0.77391	1.04748
0.77399	1.04748
0.78701	1.08873
0.78751	1.05785
0.80061	1.07333
0.80103	1.07064
0.81384	1.10699
0.81399	1.10704
0.82744	1.08829
0.82758	1.08828
0.84053	1.1021
0.8406	1.10219
0.85406	1.11254
0.85413	1.11234
0.86729	1.12204
0.86758	1.12306
0.88011	1.15094
0.88124	1.12977
0.89356	1.16065
0.89405	1.13771
0.90673	1.16705
0.90715	1.16753
0.92067	1.17455
0.92068	1.17455
0.93384	1.1655
0.93384	1.18205
0.94715	1.18999
0.94729	1.18968
0.96053	1.18076
0.96082	1.18073
0.9737	1.19198
0.97384	1.19176
0.98729	1.20036
1.0006	1.22066
1.00067	1.22063
1.01355	1.22653
1.0137	1.22661
1.02793	1.22309
1.03128	1.23544
1.04231	1.23081
1.04366	1.23985
1.05526	1.24494
1.05548	1.24537
1.06814	1.24647
