Adsorption isotherm of Carbon Dioxide on UiO-66-(COOLi)4-EX
DOI: 10.1002/chem.201503078
Article source: Figure 8b- UiO 66 COOLi 4 EX
Adsorbate Carbon Dioxide: InChIKey CURLTUGMZLYLDI-UHFFFAOYSA-N
Kind: experiment
Temperature: 298 K
Tabular data in the source: 0
pressure (bar)	uptake (mmol/g)
0.01547	0.17054
0.05372	0.38189
0.05456	0.38327
0.06617	0.43989
0.06654	0.44565
0.08	0.41401
0.08042	0.41608
0.09325	0.56721
0.09402	0.4655
0.10584	0.52219
0.10692	0.62214
0.11866	0.57845
0.12031	0.67663
0.13384	0.72914
0.14616	0.78385
0.14835	0.6828
0.16032	0.83139
0.16048	0.8337
0.17379	0.77945
0.17384	0.77898
0.18702	0.82509
0.18711	0.82663
0.20163	0.97401
0.20169	0.9736
0.214	1.01859
0.21402	1.01857
0.22668	0.95502
0.22705	1.05828
0.24063	0.99738
0.24172	1.10041
0.25388	1.12432
0.25432	1.13571
0.267	1.17829
0.26719	1.17507
0.28017	1.21579
0.28093	1.11209
0.29389	1.15136
0.29426	1.25175
0.30671	1.18754
0.30751	1.28572
0.32032	1.32145
0.3208	1.31129
0.33378	1.3541
0.33433	1.35338
0.34709	1.38697
0.36069	1.41918
0.36252	1.31217
0.37422	1.45028
0.37455	1.44897
0.38739	1.47962
0.38822	1.37989
0.40056	1.51028
0.40139	1.40989
0.4138	1.53852
0.41421	1.43769
0.42747	1.56653
0.42752	1.56664
0.44028	1.59499
0.44105	1.49857
0.45366	1.53097
0.45393	1.52658
0.4671	1.55372
0.46769	1.56806
0.4802	1.67043
0.48043	1.67462
0.49367	1.70131
0.49444	1.60776
0.50711	1.63467
0.50727	1.63688
0.52044	1.65877
0.52057	1.65938
0.53411	1.68422
0.5343	1.68408
0.54685	1.79704
0.54733	1.79815
0.56071	1.73195
0.56073	1.73214
0.57376	1.84182
0.57438	1.75577
0.58698	1.78048
0.58735	1.86343
0.60029	1.80033
0.60081	1.88505
0.61426	1.82281
0.61453	1.82393
0.62771	1.9285
0.62777	1.84488
0.64045	1.94593
0.64094	1.9448
0.65355	1.89969
0.65418	1.88591
0.66678	1.90973
0.66758	1.98717
0.68045	1.93179
0.68067	1.93274
0.69411	2.02529
0.6942	2.02555
0.70742	1.97149
0.70786	2.04364
0.72053	2.06172
0.72088	2.05698
0.73363	2.08003
0.7339	2.00877
0.74716	2.03083
0.74743	2.0306
0.76068	2.11245
0.7611	2.04957
0.77392	2.12966
0.77405	2.12984
0.78716	2.0972
0.78772	2.08905
0.80018	2.10802
0.80111	2.16186
0.81399	2.17752
0.81427	2.1757
0.82701	2.19287
0.82723	2.19273
0.84053	2.15544
0.8409	2.20663
0.8537	2.17242
0.85428	2.17293
0.86702	2.23971
0.86765	2.19029
0.88019	2.25405
0.88089	2.20462
0.89357	2.26595
0.89413	2.22249
0.90694	2.24256
0.90716	2.24468
0.92068	2.29276
0.92083	2.29308
0.93349	2.27145
0.9345	2.3072
0.94731	2.31977
0.94752	2.31896
0.96047	2.3332
0.96048	2.33322
0.9735	2.34402
0.97371	2.34338
0.98681	2.35902
0.98759	2.35697
1.00026	2.36983
1.00111	2.3471
1.01357	2.38041
1.02724	2.3804
1.03023	2.39166
1.04083	2.39408
1.04524	2.40202
1.054	2.40356
1.05969	2.41084
1.06894	2.41547
