Adsorption isotherm of Nitrogen on UiO-66
DOI: 10.1002/chem.201503078
Article source: Figure 7a- UiO 66
Adsorbate Nitrogen: InChIKey IJGRMHOSHXDMSA-UHFFFAOYSA-N
Kind: experiment
Temperature: 77 K
Tabular data in the source: 0
pressure (bar)	uptake (cm3(STP)/g)
0.000456	142.236
0.000466	142.738
0.000669	180.052
0.000669	180.593
0.000679	180.995
0.000811	189.856
0.000811	190.007
0.001023	207.605
0.001023	207.645
0.001824	225.169
0.001824	225.167
0.003364	242.166
0.003506	244.76
0.003648	260.735
0.004965	270.864
0.005624	279.247
0.005988	289.202
0.007306	297.351
0.008765	303.289
0.01074	312.952
0.014044	323.431
0.017266	333.676
0.021451	343.223
0.023274	350.5
0.027307	360.279
0.030833	370.234
0.034714	377.801
0.040064	388.513
0.045566	397.652
0.051655	403.997
0.052608	408.421
0.058546	414.359
0.061555	420.18
0.068749	424.139
0.072336	428.505
0.078942	431.008
0.082975	434.559
0.090311	435.025
0.09251	438.285
0.104395	440.613
0.104618	440.659
0.111224	443.116
0.11548	440.671
0.12237	444.688
0.125825	441.952
0.132645	446.551
0.142919	447.599
0.15216	448.414
0.161846	449.345
0.172486	450.626
0.182172	451.383
0.192447	451.965
0.202427	452.954
0.212479	453.944
0.22326	454.584
0.232581	454.934
0.24315	455.341
0.253789	456.272
0.263688	457.029
0.274327	457.32
0.284237	457.844
0.295464	458.485
0.304634	459.358
0.314391	459.649
0.324959	459.823
0.334575	460.638
0.34485	461.337
0.354749	461.453
0.364071	461.861
0.374193	462.268
0.38616	463.316
0.394671	463.491
0.406404	464.248
0.416902	464.597
0.42673	465.121
0.437005	465.994
0.447127	467.158
0.45652	468.264
0.465913	467.158
0.466277	469.487
0.477068	472.048
0.477433	464.713
0.486309	467.158
0.486897	473.795
0.496807	465.586
0.497313	466.238
0.506493	466.751
0.509057	475.25
0.516909	475.716
0.517416	475.832
0.526596	468.555
0.527913	476.472
0.537671	470.767
0.538188	476.414
0.547722	472.048
0.54831	476.647
0.557632	471.757
0.55822	477.171
0.567025	476.07
0.567683	477.345
0.578393	477.637
0.578393	477.635
0.587644	472.456
0.588445	477.753
0.597696	472.397
0.598425	478.568
0.608041	478.142
0.608548	478.51
0.618457	479.184
0.61868	479.267
0.62859	473.795
0.629026	473.973
0.638783	475.133
0.638925	475.119
0.648764	476.64
0.649058	476.414
0.659332	476.123
0.659403	476.169
0.669525	481.362
0.669677	477.753
0.678411	475.483
0.6798	481.42
0.689121	477.811
0.689486	481.653
0.698737	476.472
0.699832	482.294
0.709812	482.759
0.709812	482.757
0.719347	483.632
0.719428	483.643
0.72955	479.675
0.72955	479.674
0.739966	484.287
0.740037	484.273
0.749065	480.78
0.750757	484.797
0.759927	480.198
0.76014	480.27
0.770415	480.373
0.770637	480.414
0.780101	486.397
0.780395	486.485
0.790011	482.294
0.790446	486.951
0.800498	481.42
0.800944	487.591
0.81063	485.786
0.810701	485.78
0.821199	484.855
0.821482	489.046
0.830956	486.601
0.831534	490.211
0.838951	486.718
0.841585	490.967
0.851566	488.639
0.85186	488.726
0.859783	488.988
0.861475	493.703
0.871821	490.036
0.872256	494.344
0.880555	491.258
0.881507	496.09
0.891701	491.84
0.891853	491.856
0.901164	499.99
0.901245	499.914
0.909392	495.1
0.911884	503.134
0.919068	495.915
0.92149	505.812
0.9314	509.246
0.931694	496.963
0.940347	499.408
0.941664	512.157
0.949739	500.747
0.952891	515.591
0.961777	503.076
0.963307	518.502
0.973146	505.87
0.977472	520.365
0.982022	508.955
0.985619	520.248
0.993319	513.025
0.9934	512.972
1.00294	517.454
