Adsorption isotherm of Nitrogen on UiO-66-(COOK)4-EX
DOI: 10.1002/chem.201503078
Article source: Figure 8d- UiO 66 COOK 4 EX
Adsorbate Nitrogen: InChIKey IJGRMHOSHXDMSA-UHFFFAOYSA-N
Kind: experiment
Temperature: 298 K
Tabular data in the source: 0
pressure (bar)	uptake (mmol/g)
0.02197	-0.000461
0.02979	0.004917
0.03355	0.000605
0.04394	0.006903
0.04536	0.001598
0.05268	0.00792
0.05566	0.002712
0.0664	0.00918
0.07806	0.00511
0.07899	0.010681
0.09036	0.006393
0.09128	0.011553
0.10131	0.007483
0.10664	0.01274
0.11737	0.009566
0.11844	0.014266
0.13074	0.011043
0.13238	0.015525
0.14439	0.012303
0.14553	0.016372
0.15868	0.01369
0.15903	0.013732
0.17325	0.015604
0.17361	0.015379
0.18676	0.020634
0.18676	0.020635
0.20069	0.021604
0.2019	0.017558
0.21278	0.022233
0.21591	0.018939
0.22842	0.023493
0.2297	0.019713
0.23994	0.024849
0.24406	0.021094
0.25288	0.025454
0.25849	0.022523
0.26766	0.026786
0.27285	0.023976
0.28025	0.027755
0.28636	0.025163
0.29247	0.029038
0.30107	0.026713
0.30655	0.029765
0.31501	0.027609
0.31935	0.031048
0.32958	0.028602
0.33392	0.031678
0.34352	0.029982
0.34615	0.03284
0.35852	0.031387
0.3588	0.031404
0.37273	0.032283
0.37281	0.032277
0.3866	0.03531
0.3871	0.03376
0.39989	0.036982
0.40153	0.034826
0.41326	0.037345
0.4156	0.035891
0.42499	0.038144
0.42954	0.036884
0.4397	0.0395
0.44368	0.037586
0.45385	0.040687
0.45819	0.038967
0.46572	0.04197
0.47354	0.039984
0.47916	0.042769
0.48684	0.041001
0.49245	0.043835
0.50105	0.042212
0.50561	0.044949
0.51641	0.04318
0.51961	0.045385
0.5302	0.043834
0.53219	0.045384
0.54485	0.044917
0.54527	0.044972
0.55899	0.047055
0.55921	0.047073
0.57129	0.047201
0.58558	0.049065
0.58565	0.049062
0.59959	0.049065
0.61359	0.050494
0.62603	0.051414
0.63975	0.052819
0.65333	0.053642
0.66656	0.055023
0.68006	0.055967
0.69279	0.056306
0.70686	0.057396
0.71959	0.058316
0.73281	0.059357
0.74618	0.060011
0.7594	0.061682
0.77269	0.062166
0.78514	0.063377
0.80007	0.06454
0.81293	0.064806
0.82601	0.065871
0.8398	0.066574
0.8531	0.067833
0.86625	0.068511
0.87947	0.069891
0.8927	0.070424
0.90556	0.071417
0.919	0.072143
0.93087	0.073064
0.94609	0.073306
0.95824	0.073669
0.97289	0.07425
0.98611	0.074516
0.99955	0.074952
1.01227	0.076453
1.02272	0.076841
1.03737	0.077736
1.05208	0.078318
1.06644	0.078826
