Adsorption isotherm of Carbon Dioxide on UiO-66-(COONa)2-EX
DOI: 10.1002/chem.201503078
Article source: Figure 8b- UiO 66 COONa 2 EX
Adsorbate Carbon Dioxide: InChIKey CURLTUGMZLYLDI-UHFFFAOYSA-N
Kind: experiment
Temperature: 298 K
Tabular data in the source: 0
pressure (bar)	uptake (mmol/g)
0.00991	0.16741
0.01385	0.34497
0.02387	0.24814
0.02666	0.41643
0.03063	0.27681
0.04026	0.32512
0.0406	0.31761
0.05363	0.36657
0.05407	0.53178
0.06632	0.58648
0.0668	0.4162
0.08042	0.63081
0.0809	0.62808
0.09352	0.50965
0.09392	0.50728
0.10669	0.72145
0.10709	0.54808
0.12069	0.59219
0.12071	0.59279
0.13386	0.79155
0.13416	0.80195
0.14733	0.83944
0.14746	0.83697
0.1607	0.87689
0.16072	0.87738
0.17367	0.91377
0.17422	0.74216
0.18684	0.94795
0.18718	0.94944
0.19978	0.96601
0.2003	0.98147
0.21375	1.01477
0.21416	0.83897
0.22713	1.04521
0.22754	0.87426
0.24014	0.90513
0.24094	1.07608
0.25359	0.93667
0.25404	0.94244
0.26676	1.12546
0.26699	1.13254
0.28045	0.99582
0.28057	0.99335
0.2936	1.02003
0.29419	1.18524
0.30734	1.21033
0.30735	1.21082
0.32038	1.2364
0.32065	1.23069
0.33374	1.24976
0.33419	1.26154
0.34729	1.28757
0.34755	1.12853
0.36015	1.15257
0.36031	1.15748
0.37368	1.32929
0.37376	1.33167
0.38693	1.35637
0.38699	1.35541
0.40015	1.37016
0.40046	1.37754
0.41355	1.39981
0.41382	1.25004
0.42672	1.4201
0.42727	1.42058
0.43916	1.29635
0.44039	1.43972
0.45318	1.31575
0.45384	1.46111
0.46606	1.33648
0.46686	1.4814
0.47952	1.35963
0.48067	1.5008
0.49405	1.51999
0.49411	1.5191
0.50664	1.53438
0.50729	1.53785
0.51987	1.42094
0.52039	1.55615
0.5334	1.43902
0.53363	1.57467
0.54657	1.4582
0.54708	1.59165
0.55995	1.47761
0.56025	1.47683
0.5732	1.494
0.57368	1.49547
0.58751	1.51418
0.58763	1.51421
0.60017	1.6578
0.60023	1.65786
0.61384	1.54969
0.6139	1.54861
0.62706	1.56801
0.62765	1.58169
0.64053	1.5871
0.64059	1.58632
0.65383	1.60506
0.65427	1.7202
0.66728	1.61873
0.66736	1.61901
0.68037	1.63659
0.68117	1.75085
0.69397	1.65224
0.69405	1.65234
0.70685	1.77571
0.70693	1.7773
0.72003	1.78987
0.72116	1.68488
0.7339	1.70163
0.73419	1.70806
0.74685	1.81106
0.7475	1.81699
0.76066	1.73294
0.76081	1.73326
0.77368	1.84099
0.77369	1.84102
0.78706	1.76337
0.78743	1.76292
0.80053	1.86682
0.80101	1.85731
0.81391	1.79248
0.81404	1.79248
0.82743	1.80878
0.82749	1.80879
0.83981	1.89966
0.84087	1.82335
0.85362	1.91025
0.85397	1.83635
0.86714	1.9184
0.86735	1.91844
0.88024	1.86065
0.88051	1.86038
0.89419	1.94067
0.89425	1.94077
0.90636	1.94993
0.90692	1.89169
0.92002	1.95822
0.92009	1.95874
0.93361	1.96888
0.93396	1.96605
0.94664	1.93042
0.94692	1.93028
0.96009	1.98608
0.96108	1.94174
0.9734	1.996
0.97389	1.99588
0.98621	2.00437
0.9872	1.9693
0.9998	2.01231
1.00001	2.01246
1.0134	2.0198
1.01361	1.99311
1.02642	2.0273
1.02727	2.00458
1.04037	2.01494
1.04343	2.03567
1.05332	2.02883
1.05916	2.04007
1.06919	2.03875
