Adsorption isotherm of Nitrogen on UiO-66-(COOLi)2-EX
DOI: 10.1002/chem.201503078
Article source: Figure 7a- UiO 66 COOLi 2 EX
Adsorbate Nitrogen: InChIKey IJGRMHOSHXDMSA-UHFFFAOYSA-N
Kind: experiment
Temperature: 77 K
Tabular data in the source: 0
pressure (bar)	uptake (cm3(STP)/g)
0.000223	94.394
0.000294	93.784
0.00073	113.1
0.000882	121.652
0.001104	130.321
0.001317	137.767
0.001398	135.266
0.001763	146.436
0.002199	154.639
0.00308	160.69
0.00536	168.019
0.005725	173.779
0.007924	179.945
0.01299	191.696
0.022393	200.478
0.034349	207.689
0.062538	214.255
0.082428	217.217
0.093736	217.737
0.102764	218.084
0.115683	219.36
0.124934	219.532
0.133516	220.925
0.142919	221.912
0.151278	222.375
0.16134	223.303
0.172273	224.696
0.182699	224.926
0.193632	225.213
0.20421	226.199
0.214991	227.651
0.223807	226.717
0.23247	227.82
0.240981	227.818
0.253535	228.222
0.265644	228.567
0.275776	228.797
0.283406	229.028
0.292799	228.559
0.303225	229.138
0.31504	229.484
0.325689	229.306
0.336257	229.885
0.342864	232.036
0.353797	231.974
0.363635	232.844
0.373991	233.132
0.382431	234.177
0.393516	234.639
0.403861	234.869
0.414429	235.797
0.42522	236.026
0.436599	237.652
0.447026	237.009
0.456783	238.577
0.465376	239.797
0.476754	241.19
0.486512	242.99
0.49782	244.034
0.508611	244.438
0.518591	244.727
0.528207	245.306
0.537529	245.012
0.547287	245.707
0.556761	245.879
0.567258	246.516
0.578262	246.513
0.58729	246.161
0.596693	247.613
0.596906	245.46
0.607555	245.457
0.608072	247.493
0.61864	245.629
0.619298	248.13
0.627891	245.568
0.62862	249
0.638459	246.787
0.638824	246.761
0.648369	247.061
0.648581	247.075
0.657984	249.224
0.658349	247.363
0.667965	246.778
0.678979	247.589
0.679192	247.575
0.688301	247.025
0.688372	247.005
0.699234	249.038
0.708333	248.686
0.718688	248.683
0.719053	252
0.729479	252.46
0.729621	252.462
0.738943	252.866
0.748711	253.62
0.748853	253.52
0.75935	253.791
0.759796	251.057
0.769482	254.196
0.770141	250.763
0.778946	252.564
0.779169	254.309
0.789301	252.678
0.789514	252.713
0.800528	254.526
0.800599	254.536
0.80985	256.337
0.810367	252.904
0.819831	252.727
0.819983	252.884
0.830409	253.771
0.831068	257.902
0.839873	254.99
0.840754	258.83
0.850664	256.732
0.850735	259.641
0.86028	260.279
0.860422	260.183
0.87026	258.065
0.870777	261.148
0.880828	262.024
0.881122	262.192
0.89015	260.037
0.890667	263.761
0.901093	265.968
0.901894	265.19
0.909605	263.173
0.911074	267.595
0.918927	263.985
0.92223	270.209
0.929941	265.96
0.932139	272.359
0.940215	266.946
0.940944	276.255
0.950125	269.212
0.951736	278.637
0.960105	270.431
0.960693	281.136
0.971342	284.798
0.971626	284.282
0.981322	275.952
0.986895	287.645
0.991151	279.847
0.994383	287.526
1.00151	286.128
