Adsorption isotherm of Carbon Dioxide on UiO-66-(COOK)2-EX
DOI: 10.1002/chem.201503078
Article source: Figure 8a- UiO 66 COOK 2 EX
Adsorbate Carbon Dioxide: InChIKey CURLTUGMZLYLDI-UHFFFAOYSA-N
Kind: experiment
Temperature: 273 K
Tabular data in the source: 0
pressure (bar)	uptake (mmol/g)
0.01438	0.19491
0.02682	0.28398
0.04026	0.36165
0.0537	0.42756
0.067	0.48634
0.08094	0.54619
0.09366	0.59821
0.10638	0.64559
0.12025	0.69012
0.13305	0.73215
0.14699	0.77347
0.1605	0.80838
0.17394	0.85042
0.1871	0.88176
0.2001	0.91702
0.21398	0.95158
0.22713	0.98292
0.24028	1.01355
0.25394	1.04062
0.26666	1.07018
0.28038	1.09725
0.29368	1.12539
0.3069	1.15139
0.3202	1.18024
0.33328	1.20303
0.34708	1.22796
0.36009	1.25111
0.37374	1.27354
0.38668	1.29562
0.40012	1.31485
0.4132	1.33337
0.42678	1.35972
0.44008	1.37859
0.45359	1.40139
0.46674	1.42061
0.48054	1.44091
0.49355	1.46406
0.50656	1.47901
0.52021	1.49788
0.53372	1.51319
0.54702	1.53456
0.5601	1.55521
0.57325	1.57337
0.5864	1.57585
0.59955	1.5958
0.61314	1.61039
0.62665	1.63105
0.63951	1.64707
0.6531	1.65952
0.66704	1.6759
0.68005	1.69192
0.69327	1.70652
0.70678	1.72183
0.7195	1.73536
0.73308	1.75316
0.74652	1.76348
0.75939	1.77879
0.77276	1.7941
0.78641	1.8037
0.7992	1.81901
0.81315	1.82826
0.82673	1.84215
0.84002	1.85638
0.85296	1.86777
0.86618	1.88237
0.87955	1.8902
0.89306	1.90265
0.90629	1.91547
0.91944	1.92507
0.93209	1.9354
0.94596	1.94144
0.95932	1.95746
0.97291	1.96778
0.98577	1.98131
0.99914	1.98735
1.01265	1.99304
1.02673	2.00656
1.04003	2.01653
1.05354	2.0215
1.06691	2.02434
