Adsorption isotherm of Nitrogen on UiO-66-(COOH)4-EX
DOI: 10.1002/chem.201503078
Article source: Figure 7b- UiO 66 COOH 4 EX
Adsorbate Nitrogen: InChIKey IJGRMHOSHXDMSA-UHFFFAOYSA-N
Kind: experiment
Temperature: 77 K
Tabular data in the source: 0
pressure (bar)	uptake (cm3(STP)/g)
0.008643	149.069
0.020822	158.304
0.031178	160.916
0.041969	165.155
0.051362	166.141
0.061048	167.36
0.070958	169.043
0.081749	169.39
0.09173	169.794
0.101203	170.897
0.111913	171.94
0.121975	172.345
0.132401	173.273
0.14297	173.968
0.152221	174.025
0.162272	175.127
0.172911	175.358
0.183996	176.053
0.192953	176.284
0.203157	177.502
0.213431	177.268
0.223928	177.789
0.23399	178.077
0.243454	178.599
0.253586	179.062
0.263344	179.234
0.274358	179.232
0.284632	179.173
0.294025	179.926
0.304451	180.041
0.314219	180.155
0.324787	180.444
0.33491	180.732
0.344525	181.196
0.35407	181.31
0.365084	182.238
0.375217	182.294
0.385633	182.699
0.395471	183.22
0.405969	183.335
0.416243	183.391
0.425859	183.912
0.435991	184.026
0.446266	183.792
0.457199	184.778
0.466814	184.893
0.476511	185.704
0.487008	186.167
0.497577	185.584
0.497719	185.585
0.50704	186.629
0.518196	187.557
0.518348	187.556
0.527447	186.974
0.527812	187.613
0.537651	187.553
0.537803	187.566
0.547196	188.077
0.547418	188.132
0.557835	187.375
0.56892	187.896
0.569072	189.232
0.5789	188.649
0.578981	188.655
0.589185	189.646
0.589397	189.693
0.598577	189.846
0.598648	189.866
0.609369	190.445
0.619278	189.746
0.619643	189.732
0.629482	189.28
0.639168	189.336
0.65003	191.6
0.659281	190.959
0.659352	191.947
0.669333	190.47
0.669485	190.435
0.679982	192.208
0.680276	192.292
0.690033	191.593
0.700531	193.741
0.709711	193.164
0.709853	193.158
0.721596	192.227
0.723288	193.156
0.73107	192.225
0.732539	194.258
0.741415	193.211
0.742226	194.489
0.750595	195.113
0.751183	195.185
0.761164	195.628
0.761234	195.648
0.771144	195.878
0.780618	196.225
0.790446	193.491
0.790528	193.493
0.800873	192.726
0.800944	192.678
0.810924	194.942
0.81137	197.788
0.821644	196.973
0.822009	197.05
0.83126	199.734
0.831625	199.76
0.841464	197.26
0.841605	200.165
0.851596	198.246
0.851738	198.287
0.862093	197.315
0.862235	197.299
0.872003	203.123
0.872591	198.824
0.882196	204.341
0.8825	204.332
0.891082	205.966
0.891964	199.692
0.902015	201.2
0.902096	207.184
0.912219	208.404
0.912665	208.635
0.921835	203.405
0.922716	209.853
0.930944	203.81
0.932261	211.362
0.942464	205.202
0.943346	212.986
0.952739	206.653
0.962719	207.638
0.962942	207.896
0.970501	215.945
0.972416	210.309
0.979894	216.233
0.982538	211.702
0.990249	216.696
0.994657	214.023
1.00156	216.114
