Adsorption isotherm of Nitrogen on UiO-66-(COONa)2-EX
DOI: 10.1002/chem.201503078
Article source: Figure 8c- UiO 66 COONa 2 EX
Adsorbate Nitrogen: InChIKey IJGRMHOSHXDMSA-UHFFFAOYSA-N
Kind: experiment
Temperature: 273 K
Tabular data in the source: 0
pressure (bar)	uptake (mmol/g)
0.01485	0.009123
0.02912	0.014927
0.04105	0.018164
0.05405	0.025312
0.06656	0.030682
0.08005	0.035577
0.09461	0.041974
0.10704	0.048292
0.12018	0.05469
0.13304	0.059309
0.14597	0.065192
0.16017	0.069534
0.17388	0.075062
0.18674	0.080313
0.2003	0.085248
0.21394	0.091487
0.22687	0.096541
0.23979	0.101397
0.25364	0.106687
0.26664	0.112017
0.28028	0.115964
0.29377	0.121729
0.30741	0.126308
0.32012	0.131086
0.33341	0.135665
0.34704	0.141469
0.36054	0.146404
0.37325	0.150549
0.38703	0.1558
0.4006	0.160537
0.41367	0.164998
0.42723	0.170131
0.44051	0.17471
0.45443	0.179882
0.46637	0.183711
0.46729	0.183078
0.48015	0.188092
0.49378	0.192394
0.49421	0.192513
0.50706	0.197409
0.5202	0.202542
0.53363	0.206212
0.53384	0.206261
0.54712	0.211661
0.56076	0.215252
0.57369	0.22067
0.57376	0.220701
0.58718	0.225596
0.60032	0.230294
0.60046	0.230337
0.61382	0.233903
0.61389	0.233925
0.62688	0.238386
0.64066	0.243202
0.64073	0.242807
0.65323	0.246722
0.65345	0.246794
0.6668	0.251729
0.66708	0.251825
0.67987	0.255478
0.68029	0.255602
0.69386	0.259781
0.70707	0.264439
0.72071	0.2689
0.73392	0.273875
0.74692	0.278098
0.76048	0.283112
0.76062	0.282598
0.77348	0.28715
0.77376	0.287217
0.78698	0.290967
0.78719	0.290992
0.80004	0.295704
0.80061	0.295349
0.81318	0.298087
0.81361	0.29815
0.82682	0.305021
0.82739	0.305145
0.84017	0.308454
0.84102	0.306755
0.85381	0.310939
0.85402	0.311729
0.86745	0.315163
0.88058	0.31911
0.89344	0.324215
0.89358	0.324282
0.90658	0.325817
0.90722	0.326016
0.92071	0.333203
0.92185	0.330753
0.93385	0.337388
0.93407	0.33751
0.94692	0.340031
0.96056	0.344729
0.96113	0.344898
0.97306	0.346147
0.9737	0.348043
0.98755	0.35282
1.00054	0.356883
1.00062	0.356925
1.0139	0.360991
1.01404	0.360981
1.02682	0.365452
1.02732	0.363752
1.03776	0.365843
1.0433	0.368726
1.05488	0.369986
1.05907	0.371131
1.06752	0.374052
