Adsorption isotherm of Carbon Dioxide on UiO-66
DOI: 10.1002/chem.201503078
Article source: Figure 8b- UiO 66
Adsorbate Carbon Dioxide: InChIKey CURLTUGMZLYLDI-UHFFFAOYSA-N
Kind: experiment
Temperature: 298 K
Tabular data in the source: 0
pressure (bar)	uptake (mmol/g)
0.08023	0.36204
0.09347	0.41694
0.107	0.46368
0.1201	0.51175
0.13334	0.55298
0.14658	0.59928
0.15946	0.60766
0.16017	0.64183
0.17128	0.6555
0.18523	0.68835
0.19818	0.72826
0.21213	0.75427
0.22765	0.78713
0.24018	0.82791
0.25406	0.86187
0.2673	0.89825
0.27933	0.99593
0.28118	0.93529
0.29371	1.03032
0.29406	1.03033
0.30638	1.06516
0.30773	0.99879
0.32055	1.09757
0.3209	1.09897
0.33342	1.06691
0.33357	1.06922
0.34695	1.09888
0.34702	1.09892
0.36012	1.19303
0.36133	1.12953
0.37372	1.22324
0.37449	1.15753
0.38681	1.25168
0.38745	1.19104
0.40048	1.27747
0.40062	1.27777
0.41386	1.30922
0.42681	1.33588
0.4271	1.33833
0.44005	1.36765
0.44083	1.32223
0.45322	1.35782
0.4535	1.35816
0.46675	1.37977
0.46731	1.37955
0.4807	1.44724
0.48211	1.39829
0.49436	1.47237
0.49649	1.43423
0.50696	1.50282
0.5071	1.5028
0.51906	1.47413
0.52155	1.52837
0.53258	1.49331
0.53522	1.5491
0.54582	1.51823
0.5481	1.57203
0.56119	1.54336
0.56184	1.58944
0.57322	1.56805
0.5861	1.59407
0.58717	1.64632
0.60056	1.673
0.60112	1.61655
0.61372	1.69461
0.61422	1.63772
0.62668	1.71533
0.62674	1.71561
0.63998	1.6849
0.64041	1.73826
0.65429	1.75502
0.65436	1.75462
0.66696	1.78169
0.66717	1.7818
0.68105	1.79911
0.69365	1.8216
0.70725	1.8421
0.70781	1.79227
0.72084	1.81431
0.72084	1.81435
0.73344	1.88046
0.73393	1.87585
0.74746	1.90251
0.74802	1.90137
0.76084	1.92323
0.76133	1.92435
0.77336	1.89346
0.77401	1.94175
0.78732	1.96225
0.78738	1.96203
0.80055	1.9391
0.80091	1.94234
0.81357	1.95982
0.81401	2.00017
0.82724	2.01869
0.82752	1.97724
0.84062	1.99884
0.84069	1.9993
0.85358	2.05639
0.85414	2.02177
0.86689	2.07381
0.86724	2.03831
0.8802	2.09078
0.88062	2.0608
0.89329	2.10754
0.8945	2.07865
0.90681	2.09544
0.90731	2.09519
0.92034	2.14259
0.92147	2.11304
0.93308	2.13527
0.93371	2.13267
0.94731	2.17425
0.94738	2.17456
0.95991	2.17002
0.9604	2.16882
0.97357	2.20894
0.97357	2.20895
0.98681	2.20593
0.98688	2.20586
1.00033	2.24157
1.00033	2.24158
1.01386	2.2399
1.01393	2.24003
1.02638	2.272
1.02731	2.25656
1.04019	2.2699
1.04033	2.27001
1.05336	2.30286
1.05343	2.28677
1.06723	2.30639
