Adsorption isotherm of Nitrogen on UiO-66-(COONa)4-EX
DOI: 10.1002/chem.201503078
Article source: Figure 7b- UiO 66 COONa 4 EX
Adsorbate Nitrogen: InChIKey IJGRMHOSHXDMSA-UHFFFAOYSA-N
Kind: experiment
Temperature: 77 K
Tabular data in the source: 0
pressure (bar)	uptake (cm3(STP)/g)
0.000446	48.305
0.000446	56.662
0.000446	60.469
0.000456	86.618
0.000456	87.445
0.000456	87.964
0.002148	128.824
0.004347	135.151
0.009342	145.077
0.020133	150.066
0.031076	152.674
0.041128	154.529
0.050966	155.686
0.059853	156.322
0.071079	157.305
0.080918	157.824
0.091638	158.111
0.101406	158.746
0.111164	158.975
0.121225	159.668
0.132016	159.897
0.141926	160.532
0.151765	160.703
0.161451	161.164
0.172171	161.624
0.183844	162.027
0.192072	162.256
0.202863	162.311
0.213796	162.829
0.223341	162.652
0.232521	163.578
0.244041	163.457
0.254984	163.57
0.264965	163.915
0.274804	164.492
0.283984	164.663
0.294187	165.066
0.305343	165.004
0.315334	165.233
0.324949	165.287
0.335001	165.69
0.345062	166.093
0.355266	166.322
0.365692	166.899
0.376483	166.779
0.385663	167.008
0.396525	167.121
0.406212	167.814
0.416273	167.81
0.426771	168.097
0.437491	168.326
0.446742	168.671
0.457969	169.015
0.467736	169.534
0.476542	169.357
0.487343	169.644
0.49784	170.163
0.508185	170.333
0.517213	170.795
0.527133	170.443
0.537701	170.555
0.549151	170.726
0.557156	171.361
0.568383	170.719
0.578667	170.773
0.58806	172.047
0.598709	171.986
0.608031	172.157
0.616694	172.27
0.628073	172.498
0.637618	172.785
0.64694	172.666
0.658542	173.01
0.669991	173.18
0.679536	173.003
0.689446	173.986
0.700014	174.099
0.709194	174.444
0.720644	174.73
0.730411	174.785
0.740392	175.304
0.75097	175.475
0.759634	175.704
0.769614	175.817
0.780405	176.219
0.789879	176.564
0.800001	176.967
0.810357	177.254
0.820489	177.425
0.830916	177.886
0.842224	178.462
0.852427	178.749
0.861303	179.21
0.871142	180.368
0.871506	179.671
0.882379	180.48
0.892288	180.872
0.892359	180.883
0.902856	181.653
0.90315	181.692
0.913435	183.779
0.913941	181.398
0.922969	185.053
0.923192	185.135
0.933183	186.152
0.933619	185.959
0.943528	187.89
0.944187	185.858
0.952708	185.914
0.953002	185.913
0.962689	190.787
0.964898	187.999
0.973703	192.524
0.973926	192.611
0.983096	189.502
0.990006	193.564
0.993603	190.718
0.998588	194.141
1.0049	193.036
