Adsorption isotherm of Carbon Dioxide on UiO-66-(COONa)2-EX
DOI: 10.1002/chem.201503078
Article source: Figure 8a- UiO 66 COONa 2 EX
Adsorbate Carbon Dioxide: InChIKey CURLTUGMZLYLDI-UHFFFAOYSA-N
Kind: experiment
Temperature: 273 K
Tabular data in the source: 0
pressure (bar)	uptake (mmol/g)
0.00856	0.16183
0.01317	0.45375
0.021	0.27343
0.02698	0.56428
0.03214	0.33441
0.04035	0.66874
0.0445	0.41178
0.05365	0.75788
0.05637	0.5084
0.06673	0.8456
0.06736	0.59183
0.08046	0.92547
0.08102	0.91881
0.09369	0.99572
0.09432	0.73875
0.10648	1.06419
0.10683	0.80758
0.11977	0.87818
0.12007	0.89559
0.13321	0.93917
0.1338	1.19258
0.14629	0.99552
0.14652	0.99792
0.16016	1.30186
0.16025	1.30599
0.17354	1.35771
0.17367	1.35239
0.18705	1.40907
0.18776	1.39522
0.19992	1.21951
0.20048	1.21201
0.21322	1.50074
0.21342	1.50069
0.22658	1.54248
0.22679	1.30475
0.23981	1.58564
0.24087	1.3497
0.25295	1.39037
0.25382	1.62489
0.26619	1.4447
0.26653	1.43389
0.27976	1.70552
0.2802	1.70551
0.29341	1.51701
0.2935	1.5175
0.30613	1.55589
0.30672	1.78008
0.32045	1.8154
0.32058	1.81214
0.33309	1.8493
0.33324	1.84858
0.3471	1.66721
0.34733	1.88498
0.35939	1.70217
0.3599	1.91709
0.37333	1.9425
0.37342	1.94564
0.38635	1.97776
0.38677	1.96473
0.39964	1.8085
0.4003	2.01308
0.41345	2.04234
0.41372	1.84347
0.42638	2.07232
0.42702	1.87451
0.44025	1.90836
0.4406	1.90556
0.45297	2.12978
0.45325	2.13203
0.46655	2.15345
0.4667	2.15726
0.48007	2.18795
0.48013	2.18678
0.49328	2.02689
0.49372	2.04449
0.50629	2.23127
0.5068	2.23935
0.51951	2.08363
0.51988	2.26434
0.53246	2.29253
0.53295	2.11254
0.54619	2.31858
0.54647	2.14323
0.55919	2.34179
0.55998	2.17107
0.57299	2.20733
0.57363	2.19855
0.58665	2.39176
0.58714	2.22639
0.59908	2.41817
0.60037	2.25209
0.61201	2.27458
0.61266	2.4371
0.62545	2.29992
0.62632	2.46173
0.63903	2.48064
0.63925	2.48209
0.65276	2.35453
0.65291	2.50672
0.66584	2.52992
0.6667	2.37845
0.67943	2.40789
0.67985	2.40522
0.69279	2.57063
0.69351	2.42914
0.70623	2.59228
0.70623	2.59241
0.71967	2.61134
0.72031	2.47733
0.73303	2.50481
0.73311	2.50626
0.74612	2.52233
0.7464	2.52338
0.7597	2.67168
0.75977	2.67204
0.77277	2.56908
0.773	2.69026
0.78607	2.58978
0.78679	2.59906
0.79857	2.61406
0.79937	2.72704
0.81324	2.63811
0.81352	2.63905
0.82639	2.66104
0.82646	2.66011
0.83968	2.68688
0.83969	2.68696
0.85248	2.79598
0.85348	2.70581
0.86476	2.72937
0.86613	2.81847
0.87885	2.75435
0.87914	2.75186
0.89258	2.85206
0.89258	2.85205
0.9058	2.79649
0.90587	2.79665
0.91945	2.88526
0.91946	2.88527
0.9316	2.82793
0.93261	2.89992
0.94518	2.90591
0.94562	2.91172
0.95927	2.93029
0.95948	2.92823
0.97228	2.9453
0.97235	2.94565
0.98571	2.9592
0.98586	2.95995
0.99944	2.97104
0.9998	2.9696
1.01231	2.98747
1.01288	2.9693
1.02617	2.97468
1.02617	2.97469
1.03933	2.9961
1.04321	3.01821
1.05212	3.0136
1.05815	3.02895
1.06692	3.0304
