Adsorption isotherm of Nitrogen on UiO-66-(COOH)4-EX
DOI: 10.1002/chem.201503078
Article source: Figure 8c- UiO 66 COOH 4 EX
Adsorbate Nitrogen: InChIKey IJGRMHOSHXDMSA-UHFFFAOYSA-N
Kind: experiment
Temperature: 273 K
Tabular data in the source: 0
pressure (bar)	uptake (mmol/g)
0.03893	0.012234
0.05875	0.016257
0.06748	0.01657
0.07906	0.020754
0.09249	0.025135
0.10577	0.028805
0.11977	0.031368
0.13277	0.034761
0.1464	0.038194
0.15912	0.041429
0.17326	0.044585
0.18661	0.046911
0.19968	0.050897
0.21339	0.054488
0.22604	0.057999
0.24024	0.060207
0.24038	0.060132
0.25281	0.059908
0.25288	0.059886
0.26546	0.062648
0.26638	0.066085
0.27966	0.065843
0.28009	0.06604
0.28783	0.06742
0.29501	0.07208
0.30694	0.075276
0.32058	0.074115
0.32072	0.074086
0.33301	0.078072
0.33301	0.078074
0.34125	0.079926
0.34786	0.084112
0.361	0.088572
0.36689	0.086397
0.374	0.091609
0.3875	0.093659
0.39346	0.091998
0.40057	0.096894
0.41307	0.099932
0.42606	0.099453
0.42699	0.101824
0.44056	0.101463
0.44155	0.104347
0.45036	0.104897
0.45455	0.109163
0.46691	0.111134
0.47316	0.109433
0.48048	0.114764
0.49511	0.117287
0.5003	0.115982
0.50619	0.120049
0.52054	0.123284
0.52651	0.121583
0.5334	0.126756
0.54732	0.128095
0.55393	0.127381
0.55989	0.131686
0.57282	0.134249
0.58625	0.133891
0.58646	0.133968
0.60024	0.139376
0.60059	0.139449
0.61409	0.142003
0.61445	0.142136
0.62688	0.143791
0.62716	0.143755
0.64044	0.145087
0.64051	0.14509
0.65351	0.148839
0.66673	0.151087
0.66687	0.151095
0.68001	0.15448
0.69358	0.156885
0.707	0.159922
0.71979	0.163158
0.73371	0.165523
0.74685	0.168126
0.75999	0.17065
0.7737	0.173925
0.7877	0.176607
0.8002	0.179328
0.81355	0.181773
0.82712	0.184099
0.84019	0.18686
0.85305	0.189432
0.85333	0.189542
0.86669	0.192738
0.86683	0.191987
0.88054	0.195459
0.89368	0.197272
0.90788	0.199875
0.9201	0.202004
0.93416	0.204172
0.94724	0.206973
0.96066	0.209417
0.97366	0.212297
0.98034	0.213361
0.98616	0.214584
1.00086	0.217266
1.00719	0.218449
1.01443	0.21975
1.02736	0.22176
1.03354	0.223655
1.03993	0.224522
1.05378	0.227203
1.06678	0.229214
