Adsorption isotherm of Carbon Dioxide on UiO-66-(COOH)4-EX
DOI: 10.1002/chem.201503078
Article source: Figure 8a- UiO 66 COOH 4 EX
Adsorbate Carbon Dioxide: InChIKey CURLTUGMZLYLDI-UHFFFAOYSA-N
Kind: experiment
Temperature: 273 K
Tabular data in the source: 0
pressure (bar)	uptake (mmol/g)
0.15965	0.81597
0.17394	0.85839
0.18709	0.90331
0.20146	0.95214
0.21461	0.98886
0.2264	1.027
0.24026	1.06835
0.25399	1.10222
0.26706	1.13644
0.28057	1.18243
0.29372	1.2113
0.30694	1.24623
0.32002	1.27582
0.3331	1.23126
0.33381	1.30755
0.34682	1.26477
0.34754	1.33821
0.35832	1.29115
0.36011	1.36744
0.37305	1.32323
0.37448	1.39881
0.38741	1.35406
0.38756	1.3546
0.40013	1.45299
0.40042	1.45413
0.41328	1.48329
0.41422	1.44194
0.42614	1.45869
0.42679	1.50824
0.4403	1.48222
0.44044	1.48262
0.45316	1.55531
0.45352	1.55993
0.46695	1.51692
0.4671	1.51751
0.48061	1.60806
0.48212	1.5446
0.4934	1.63158
0.49383	1.56956
0.50633	1.65832
0.50669	1.65779
0.51941	1.67935
0.5202	1.61233
0.53306	1.63479
0.53327	1.63792
0.54585	1.66402
0.54649	1.72783
0.55957	1.75207
0.56044	1.68505
0.57344	1.77215
0.57351	1.77275
0.58688	1.79235
0.58724	1.73354
0.59988	1.81125
0.59995	1.81133
0.61303	1.83549
0.61325	1.83633
0.62625	1.79164
0.6269	1.80266
0.63947	1.81838
0.63954	1.87541
0.65284	1.84012
0.65363	1.89609
0.66649	1.85898
0.66663	1.85937
0.67978	1.87844
0.68	1.87648
0.69279	1.95331
0.69286	1.95384
0.70737	1.97487
0.70737	1.97486
0.72024	1.93174
0.72052	1.93504
0.73317	1.95241
0.73338	1.95231
0.74682	1.97366
0.74711	1.97451
0.75961	1.99227
0.76033	1.98948
0.77341	2.00376
0.77377	2.00339
0.78663	2.0249
0.78691	2.02477
0.79978	2.09643
0.79999	2.0965
0.81321	2.11282
0.81408	2.06292
0.82636	2.0811
0.8265	2.0827
0.83987	2.09999
0.84023	2.14455
0.85359	2.11918
0.85403	2.11995
0.86617	2.13548
0.86638	2.13564
0.87968	2.14812
0.88011	2.14776
0.89247	2.20586
0.8929	2.16523
0.90626	2.22084
0.90655	2.22111
0.91984	2.23438
0.91991	2.23443
0.93263	2.24686
0.93349	2.2162
0.94664	2.23224
0.959	2.24757
0.95943	2.24757
0.9728	2.29712
0.97323	2.29714
0.98049	2.30995
0.98695	2.28108
0.99967	2.29035
1.00657	2.33206
1.01375	2.31316
1.02525	2.32065
1.03308	2.35095
1.04056	2.33313
1.05299	2.35523
1.06628	2.36735
