Adsorption isotherm of Nitrogen on UiO-66
DOI: 10.1002/chem.201503078
Article source: Figure 8c- UiO 66
Adsorbate Nitrogen: InChIKey IJGRMHOSHXDMSA-UHFFFAOYSA-N
Kind: experiment
Temperature: 273 K
Tabular data in the source: 0
pressure (bar)	uptake (mmol/g)
0.0277	0.012159
0.04367	0.017211
0.05503	0.020644
0.06803	0.025341
0.08067	0.029445
0.08138	0.026086
0.09317	0.030823
0.09516	0.034616
0.10744	0.03955
0.10836	0.035756
0.11987	0.044129
0.12051	0.040691
0.13435	0.044755
0.13542	0.048627
0.14685	0.054352
0.14699	0.049768
0.16077	0.058575
0.16084	0.058608
0.17362	0.063311
0.17426	0.060031
0.1874	0.066926
0.18761	0.067059
0.20054	0.068946
0.20061	0.06899
0.21332	0.073618
0.21381	0.073726
0.22674	0.077635
0.22695	0.077673
0.23931	0.084346
0.24073	0.082606
0.25344	0.088687
0.25394	0.087145
0.26707	0.092632
0.26722	0.091526
0.27936	0.097409
0.28	0.096183
0.29328	0.102026
0.29384	0.100919
0.30663	0.10696
0.30755	0.105932
0.31962	0.110353
0.32076	0.109444
0.33361	0.114615
0.33368	0.114641
0.34661	0.118522
0.34668	0.118554
0.36074	0.123218
0.36095	0.123268
0.37423	0.127441
0.38715	0.132414
0.40015	0.136281
0.41364	0.14078
0.42727	0.144845
0.44041	0.149542
0.45404	0.153764
0.46683	0.15854
0.48039	0.163237
0.49374	0.167618
0.50723	0.171445
0.52044	0.173957
0.52051	0.173969
0.53336	0.179791
0.53351	0.179851
0.54671	0.18356
0.54735	0.18273
0.55971	0.188297
0.56028	0.187624
0.57356	0.192677
0.5737	0.1927
0.58641	0.196426
0.58648	0.196453
0.60011	0.200609
0.60026	0.200637
0.61346	0.205147
0.61361	0.205189
0.62717	0.209607
0.62767	0.209711
0.64023	0.213869
0.64038	0.213911
0.65394	0.217775
0.65422	0.215997
0.66729	0.219726
0.66736	0.219745
0.68036	0.224516
0.6805	0.224561
0.69378	0.227117
0.69406	0.227203
0.70677	0.232149
0.70748	0.231781
0.72062	0.238641
0.72069	0.238691
0.73347	0.240244
0.73368	0.240305
0.74682	0.246781
0.74718	0.244844
0.76017	0.25049
0.76102	0.248711
0.77331	0.255028
0.77409	0.251946
0.78694	0.259409
0.78786	0.256682
0.79994	0.263276
0.8005	0.260431
0.81371	0.267301
0.81385	0.267354
0.82728	0.270891
0.82742	0.270903
0.84041	0.274995
0.84048	0.275033
0.85326	0.276254
0.85334	0.276302
0.86711	0.283006
0.86761	0.280476
0.87997	0.287278
0.88004	0.287308
0.89381	0.291293
0.89445	0.291388
0.90624	0.293935
0.92051	0.29879
0.934	0.302222
0.94693	0.30605
0.96035	0.309403
0.97356	0.313704
0.98684	0.317848
1.00047	0.321399
1.01339	0.32495
1.02639	0.328185
1.04023	0.33213
1.05437	0.335997
1.06807	0.339508
