Adsorption isotherm of Nitrogen on UiO-66-(COOK)2-EX
DOI: 10.1002/chem.201503078
Article source: Figure 8d- UiO 66 COOK 2 EX
Adsorbate Nitrogen: InChIKey IJGRMHOSHXDMSA-UHFFFAOYSA-N
Kind: experiment
Temperature: 298 K
Tabular data in the source: 0
pressure (bar)	uptake (mmol/g)
0.02829	0.00659
0.04108	0.008964
0.05259	0.010708
0.06588	0.013761
0.0683	0.002783
0.07925	0.015578
0.0909	0.006102
0.09254	0.017903
0.10661	0.019647
0.11912	0.022409
0.13262	0.024444
0.14641	0.026552
0.15956	0.028708
0.17008	0.020711
0.17299	0.030937
0.18209	0.023206
0.18628	0.03285
0.19694	0.025483
0.19879	0.034958
0.21109	0.027033
0.21322	0.036872
0.22502	0.028438
0.22644	0.038834
0.23866	0.030885
0.2398	0.04099
0.25267	0.032964
0.25274	0.032896
0.26624	0.045313
0.26638	0.045302
0.2796	0.046143
0.27996	0.047022
0.2924	0.048887
0.29339	0.039315
0.30625	0.050849
0.30682	0.041181
0.31955	0.052351
0.3209	0.043482
0.33234	0.054168
0.3349	0.044959
0.34606	0.056469
0.34783	0.046728
0.35906	0.058262
0.36205	0.048472
0.37221	0.059303
0.37534	0.050894
0.38621	0.061459
0.38856	0.053026
0.3995	0.063979
0.40284	0.055158
0.41279	0.065941
0.41592	0.057023
0.42608	0.067976
0.42878	0.059349
0.43952	0.069454
0.44378	0.061214
0.45231	0.071343
0.45707	0.062716
0.46574	0.073014
0.47143	0.065672
0.47918	0.074977
0.48358	0.067004
0.49268	0.076697
0.49879	0.069039
0.50618	0.078416
0.51308	0.071049
0.51926	0.080257
0.52793	0.073569
0.53269	0.081735
0.54094	0.076064
0.54598	0.083673
0.55558	0.078026
0.55899	0.085126
0.56844	0.079431
0.57228	0.087331
0.58671	0.088687
0.59865	0.090504
0.61286	0.092466
0.61912	0.088322
0.62608	0.093653
0.63468	0.09009
0.63945	0.095009
0.64819	0.091859
0.65188	0.096923
0.66155	0.094281
0.66589	0.098667
0.6752	0.095371
0.6801	0.099902
0.68891	0.097527
0.6914	0.100798
0.70313	0.099828
0.70462	0.103172
0.71699	0.101161
0.71919	0.104577
0.73063	0.103317
0.73227	0.105812
0.74492	0.104794
0.74556	0.107096
0.75842	0.106562
0.75878	0.108283
0.77157	0.108234
0.77321	0.110681
0.78621	0.110075
0.78657	0.111723
0.79929	0.111843
0.79986	0.112004
0.81151	0.112133
0.8123	0.114823
0.82637	0.113659
0.82658	0.113691
0.83973	0.114919
0.8398	0.114921
0.85345	0.116905
0.86631	0.118577
0.86638	0.118584
0.87932	0.120708
0.87939	0.121726
0.89261	0.123131
0.89311	0.122113
0.90626	0.124415
0.90675	0.123712
0.91976	0.125771
0.93298	0.127127
0.94677	0.129865
0.95935	0.130543
0.97271	0.131851
0.98614	0.133183
0.99972	0.134612
1.01294	0.136817
1.02473	0.138173
1.03938	0.139093
1.05302	0.140716
1.06716	0.142
