Adsorption isotherm of Carbon Dioxide on NU-1000
DOI: 10.1039/c5cc04808g
Article source: Figure 2a
Adsorbate Carbon Dioxide: InChIKey CURLTUGMZLYLDI-UHFFFAOYSA-N
Kind: experiment
Temperature: 273 K
Tabular data in the source: 0
pressure (bar)	uptake (mmol/g)
0	0
0.02124	0.190476
0.021411	0.095238
0.042737	0.238095
0.042823	0.190476
0.085731	0.333333
0.107229	0.380952
0.12864	0.47619
0.128726	0.428571
0.171548	0.619048
0.171634	0.571429
0.193046	0.666667
0.214457	0.761905
0.235868	0.857143
0.235954	0.809524
0.25728	0.952381
0.278777	1
0.300188	1.09524
0.321686	1.14286
0.343097	1.2381
0.386177	1.28571
0.429171	1.38095
0.450582	1.47619
0.472079	1.52381
0.493491	1.61905
0.514988	1.66667
0.536485	1.71429
0.557982	1.7619
0.579394	1.85714
0.600805	1.95238
0.622302	2
0.665296	2.09524
0.708291	2.19048
0.751285	2.28571
0.772782	2.33333
0.794279	2.38095
0.837273	2.47619
0.85877	2.52381
0.90185	2.57143
0.923347	2.61905
0.944844	2.66667
0.966256	2.7619
0.966341	2.71429
1.00925	2.85714
1.50334	4.14286
1.99777	5.2381
2.49221	6.33333
2.98681	7.33333
3.48159	8.2381
3.99794	9.14286
4.49298	9.90476
4.98801	10.6667
5.9785	11.9524
