Adsorption isotherm of Nitrogen on SALI-DAP
DOI: 10.1039/c5cc04808g
Article source: Figure 2b
Adsorbate Nitrogen: InChIKey IJGRMHOSHXDMSA-UHFFFAOYSA-N
Kind: experiment
Temperature: 293 K
Tabular data in the source: 0
pressure (bar)	uptake (mmol/g)
0	0
0.410072	0.047619
0.453237	0.047619
0.496403	0.047619
0.517986	0.047619
0.539568	0.047619
0.561151	0.047619
0.582734	0.047619
0.604317	0.047619
0.669065	0.047619
0.733813	0.095238
0.755396	0.095238
0.820144	0.095238
0.863309	0.095238
0.906475	0.095238
0.992806	0.095238
1.20863	0.142857
1.40288	0.142857
1.61871	0.142857
1.81295	0.142857
2.00719	0.190476
2.30935	0.190476
2.58993	0.238095
2.89209	0.285714
3.19424	0.285714
3.4964	0.333333
3.79856	0.333333
4.10072	0.333333
4.40288	0.380952
4.68345	0.428571
4.98561	0.428571
5.28777	0.428571
5.58993	0.47619
6	0.52381
