Adsorption isotherm of Nitrogen on SALI-F3G
DOI: 10.1039/c5cc04808g
Article source: Figure 2b
Adsorbate Nitrogen: InChIKey IJGRMHOSHXDMSA-UHFFFAOYSA-N
Kind: experiment
Temperature: 293 K
Tabular data in the source: 0
pressure (bar)	uptake (mmol/g)
0	0
0.433213	0
0.519856	0.047809
0.649819	0.047809
0.758123	0.047809
0.844765	0.047809
0.909747	0.047809
0.974729	0.047809
1.01805	0.095617
2.05776	0.095617
2.27437	0.191235
2.57762	0.143426
2.90253	0.191235
3.22744	0.191235
3.48736	0.191235
3.83394	0.191235
4.0722	0.239044
4.41877	0.239044
4.72202	0.239044
5.02527	0.239044
5.32852	0.239044
5.63177	0.239044
5.97834	0.334661
