Adsorption isotherm of Carbon Dioxide on SALI-F3G
DOI: 10.1039/c5cc04808g
Article source: Figure 2a
Adsorbate Carbon Dioxide: InChIKey CURLTUGMZLYLDI-UHFFFAOYSA-N
Kind: experiment
Temperature: 273 K
Tabular data in the source: 0
pressure (bar)	uptake (mmol/g)
0	0
0.021661	0.142685
0.043321	0.237751
0.064982	0.285199
0.086643	0.380265
0.108303	0.427712
0.129964	0.475159
0.151625	0.570225
0.173285	0.617672
0.194946	0.665119
0.216606	0.712567
0.238267	0.760014
0.259928	0.807461
0.281588	0.807289
0.32491	0.854564
0.368231	0.901839
0.411552	0.949115
0.433213	0.996562
0.454874	1.04401
0.476534	1.09146
0.498195	1.1389
0.541516	1.13856
0.563177	1.18601
0.584838	1.23345
0.606498	1.23328
0.628159	1.23311
0.649819	1.28056
0.693141	1.37545
0.736462	1.47035
0.779783	1.51762
0.823105	1.51728
0.866426	1.56455
0.931408	1.61166
0.99639	1.65876
1.19134	1.84769
1.38628	2.08424
1.60289	2.22537
1.79783	2.36668
1.99278	2.50799
2.29603	2.69606
2.59928	2.97937
2.88087	3.16761
3.18412	3.30806
3.48736	3.49613
3.79061	3.6842
4.09386	3.82465
4.39711	4.01272
4.70036	4.10555
4.98195	4.29379
5.2852	4.43424
5.61011	4.57452
6	4.7619
