Adsorption isotherm of Carbon Dioxide on SALI-F3G
DOI: 10.1039/c5cc04808g
Article source: Figure 2b
Adsorbate Carbon Dioxide: InChIKey CURLTUGMZLYLDI-UHFFFAOYSA-N
Kind: experiment
Temperature: 293 K
Tabular data in the source: 0
pressure (bar)	uptake (mmol/g)
0.021661	0
0.129964	0.095238
0.173285	0.095238
0.194946	0.142857
0.238267	0.238095
0.259928	0.285714
0.281588	0.333333
0.32491	0.380952
0.34657	0.380952
0.411552	0.47619
0.454874	0.571429
0.519856	0.619048
0.541516	0.666667
0.584838	0.714286
0.693141	0.809524
0.758123	0.809524
0.779783	0.904762
0.823105	0.952381
0.866426	1
0.931408	1
0.953069	1.04762
0.99639	1.04762
1.213	1.19048
1.40794	1.28571
1.62455	1.42857
1.79783	1.52381
1.99278	1.66667
2.29603	1.80952
2.62094	1.95238
2.90253	2.09524
3.20578	2.2381
3.50903	2.33333
3.81227	2.47619
4.11552	2.61905
4.39711	2.71429
4.70036	2.85714
5.00361	2.95238
5.30686	3.09524
5.61011	3.19048
6	3.28571
