Adsorption isotherm of Carbon Dioxide on SALI-DAP
DOI: 10.1039/c5cc04808g
Article source: Figure 2b
Adsorbate Carbon Dioxide: InChIKey CURLTUGMZLYLDI-UHFFFAOYSA-N
Kind: experiment
Temperature: 293 K
Tabular data in the source: 0
pressure (bar)	uptake (mmol/g)
0	0
0.043321	0.190476
0.086643	0.238095
0.108303	0.285714
0.151625	0.333333
0.194946	0.428571
0.216606	0.47619
0.259928	0.52381
0.281588	0.571429
0.32491	0.619048
0.34657	0.714286
0.368231	0.761905
0.411552	0.809524
0.454874	0.857143
0.498195	0.904762
0.519856	1
0.541516	1.04762
0.584838	1.09524
0.606498	1.14286
0.628159	1.14286
0.649819	1.19048
0.67148	1.19048
0.693141	1.2381
0.714801	1.2381
0.736462	1.28571
0.758123	1.33333
0.801444	1.38095
0.844765	1.42857
0.866426	1.47619
0.888087	1.47619
0.931408	1.52381
0.974729	1.52381
0.99639	1.57143
1.01805	1.61905
1.213	1.71429
1.40794	1.90476
1.60289	2.04762
1.81949	2.2381
2.01444	2.38095
2.31769	2.66667
2.59928	2.90476
2.90253	3.09524
3.20578	3.33333
3.50903	3.52381
3.81227	3.71429
4.11552	3.90476
4.41877	4.09524
4.72202	4.28571
5.00361	4.42857
5.30686	4.57143
5.61011	4.7619
6.02166	4.90476
