Adsorption isotherm of Carbon Dioxide on NU-1000
DOI: 10.1039/c5cc04808g
Article source: Figure 2b
Adsorbate Carbon Dioxide: InChIKey CURLTUGMZLYLDI-UHFFFAOYSA-N
Kind: experiment
Temperature: 293 K
Tabular data in the source: 0
pressure (bar)	uptake (mmol/g)
0	0
0.021661	0.047619
0.043321	0.095238
0.064982	0.142857
0.086643	0.190476
0.129964	0.238095
0.151625	0.285714
0.173285	0.333333
0.216606	0.380952
0.238267	0.428571
0.259928	0.52381
0.32491	0.619048
0.34657	0.666667
0.389892	0.714286
0.433213	0.761905
0.476534	0.809524
0.498195	0.857143
0.541516	0.904762
0.563177	0.952381
0.584838	1
0.628159	1.04762
0.649819	1.09524
0.693141	1.14286
0.714801	1.19048
0.736462	1.2381
0.758123	1.28571
0.801444	1.33333
0.823105	1.38095
0.844765	1.42857
0.866426	1.47619
0.909747	1.52381
0.931408	1.57143
0.974729	1.66667
0.99639	1.71429
1.01805	1.71429
1.03971	1.7619
1.49458	2.57143
1.99278	3.2381
2.51264	3.90476
3.01083	4.52381
3.48736	5.19048
3.98556	5.7619
4.48375	6.38095
5.00361	6.90476
6	7.90476
