Adsorption isotherm of Nitrogen on NU-1000
DOI: 10.1039/c5cc04808g
Article source: Figure 2b
Adsorbate Nitrogen: InChIKey IJGRMHOSHXDMSA-UHFFFAOYSA-N
Kind: experiment
Temperature: 293 K
Tabular data in the source: 0
pressure (bar)	uptake (mmol/g)
0	0
0.433213	0.095617
0.519856	0.143426
0.628159	0.095617
0.693141	0.143426
0.801444	0.191235
0.909747	0.191235
0.974729	0.239044
1.01805	0.239044
1.51625	0.334661
2.01444	0.38247
2.51264	0.478088
3.01083	0.525896
3.50903	0.525896
4.00722	0.621514
4.50542	0.669323
5.00361	0.717131
5.52347	0.76494
6.02166	0.860558
