Adsorption isotherm of Carbon Dioxide on SALI-DAP
DOI: 10.1039/c5cc04808g
Article source: Figure 2a
Adsorbate Carbon Dioxide: InChIKey CURLTUGMZLYLDI-UHFFFAOYSA-N
Kind: experiment
Temperature: 273 K
Tabular data in the source: 0
pressure (bar)	uptake (mmol/g)
0	0
0.021583	0.095238
0.043166	0.190476
0.064748	0.285714
0.086331	0.428571
0.107914	0.47619
0.129496	0.52381
0.151079	0.619048
0.172662	0.666667
0.215827	0.857143
0.258993	0.904762
0.280576	1
0.302158	1.04762
0.323741	1.09524
0.345324	1.2381
0.366906	1.28571
0.388489	1.33333
0.431655	1.38095
0.453237	1.42857
0.47482	1.47619
0.517986	1.52381
0.539568	1.57143
0.561151	1.61905
0.582734	1.66667
0.625899	1.71429
0.647482	1.7619
0.669065	1.80952
0.71223	1.85714
0.755396	2
0.820144	2.04762
0.841727	2.09524
0.884892	2.14286
0.928058	2.2381
0.94964	2.28571
0.992806	2.33333
1.03597	2.33333
1.23022	2.61905
1.40288	2.90476
1.61871	3.14286
1.81295	3.42857
2.02878	3.61905
2.30935	3.95238
2.61151	4.28571
2.91367	4.57143
3.21583	4.90476
3.4964	5.14286
3.79856	5.38095
4.10072	5.61905
4.42446	5.85714
4.70504	6.04762
5.00719	6.2381
5.28777	6.42857
5.61151	6.61905
6	6.85714
