Adsorption isotherm of Nitrogen on PBSAC-630
DOI: 10.1002/cite.201500133
Article source: Figure 1
Adsorbate Nitrogen: InChIKey IJGRMHOSHXDMSA-UHFFFAOYSA-N
Kind: experiment
Temperature: 77 K
Tabular data in the source: 0
pressure (bar)	uptake (cm3(STP)/g)
0.000405	1.11
0.000719	43.07
0.000821	105.84
0.000993	224.32
0.001155	231.7
0.005228	255.22
0.012838	270.56
0.021187	281
0.037065	295.58
0.045708	302.89
0.070005	313.93
0.094719	320.84
0.100494	323.54
0.110779	326.09
0.122218	327.35
0.149383	331.15
0.159648	332.91
0.1751	333.92
0.200168	337.19
0.224161	338.58
0.250313	338.57
0.275168	341.34
0.301645	343.23
0.351466	346.88
0.403233	348.51
0.454027	351.15
0.504669	352.9
0.554846	354.09
0.607342	357.23
0.655542	358.02
0.707147	362.46
0.758235	364.48
0.80827	369.39
0.860685	374.55
0.908237	378.83
0.960318	387.91
0.999966	408.59
1.00483	411.05
0.50393	361.22
0.55515	366.74
0.606987	371.17
0.708708	384.8
0.805736	396.64
0.86028	406.05
0.910263	406.69
0.958616	409.09
