Adsorption isotherm of Nitrogen on PBSAC-200-1
DOI: 10.1002/cite.201500133
Article source: Figure 1
Adsorbate Nitrogen: InChIKey IJGRMHOSHXDMSA-UHFFFAOYSA-N
Kind: experiment
Temperature: 77 K
Tabular data in the source: 0
pressure (bar)	uptake (cm3(STP)/g)
0.000679	1.57
0.00077	43.49
0.001064	75.39
0.001631	117.55
0.002057	159.55
0.00228	201.55
0.002371	233.05
0.002584	254.05
0.002736	291.6
0.005958	328.67
0.022261	373.78
0.049386	415.95
0.072427	442.6
0.099187	462.96
0.125106	476.4
0.14914	487.42
0.176093	493.04
0.19961	498.06
0.226897	503.68
0.250415	506.89
0.275472	508.9
0.301867	510.58
0.326864	512.09
0.35098	513.37
0.376726	515.28
0.404287	518.44
0.430206	518.65
0.453288	519.75
0.479642	521.56
0.506331	522.87
0.528045	523.17
0.555504	523.18
0.579447	524.79
0.604586	525.19
0.63394	526.2
0.653678	526.6
0.681542	529.46
0.707927	530.35
0.733552	532.13
0.759289	532.13
0.784691	534.53
0.808239	537.46
0.833388	540.07
0.861962	542.68
0.885307	547.29
0.909767	552.01
0.933376	555.92
0.961524	560.14
0.98572	563.55
1.00666	567.06
0.504213	539.22
0.52918	544.07
0.555372	547.5
0.580886	548.93
0.606126	551.32
0.629806	553.24
0.655563	554.01
0.68137	556.42
0.708718	557.92
0.729976	558.63
0.758478	560.49
0.784326	561.45
0.806922	562.57
0.832638	563.21
0.857817	565.77
0.883747	565.27
0.909017	567.17
0.935047	569.06
0.959679	568.56
0.986358	570.08
1.00482	571.22
