Adsorption isotherm of Nitrogen on PBSAC-460
DOI: 10.1002/cite.201500133
Article source: Figure 1
Adsorbate Nitrogen: InChIKey IJGRMHOSHXDMSA-UHFFFAOYSA-N
Kind: experiment
Temperature: 77 K
Tabular data in the source: 0
pressure (bar)	uptake (cm3(STP)/g)
0.000679	1.09
0.001023	53.62
0.001368	95.74
0.001641	148.19
0.001925	271.21
0.002128	272.49
0.002472	274.23
0.016708	302.12
0.037338	318.65
0.048038	329.37
0.064473	341.73
0.074636	345.26
0.091719	355.27
0.100362	358.76
0.115561	363.53
0.124072	366.39
0.149495	370.57
0.173793	374.57
0.200137	376.37
0.225266	378.02
0.251549	380.04
0.264945	380.58
0.277276	381.04
0.304634	382.67
0.311129	383.19
0.35329	385.73
0.363098	385.96
0.403557	387.39
0.413639	388.02
0.453288	390.55
0.476785	392.35
0.503818	392.98
0.556477	393.09
0.606764	396.21
0.655684	397.8
0.710015	397.85
0.761052	399.1
0.811664	403.13
0.860107	405.89
0.912229	417.49
0.962618	425.55
1.00241	440.93
1.01019	440.93
0.505095	403.98
0.512846	405.37
0.556001	408.71
0.563083	409.34
0.603512	411.09
0.710927	414.17
0.810326	425.28
0.910162	438.66
0.963317	439.92
