Adsorption isotherm of Nitrogen on PBSAC-200-2
DOI: 10.1002/cite.201500133
Article source: Figure 1
Adsorbate Nitrogen: InChIKey IJGRMHOSHXDMSA-UHFFFAOYSA-N
Kind: experiment
Temperature: 77 K
Tabular data in the source: 0
pressure (bar)	uptake (cm3(STP)/g)
0.000608	0.95
0.001429	41.59
0.001783	73.09
0.001915	115.16
0.002341	146.66
0.002533	219.45
0.002604	230.64
0.002959	286.69
0.003374	293.87
0.009849	323.54
0.019596	339.97
0.024034	349.8
0.038574	371.24
0.047126	381.86
0.06579	399.5
0.074352	407.32
0.094384	422.75
0.10398	429.77
0.117851	440.59
0.128136	443.6
0.151217	456.71
0.164177	462.14
0.176913	464.92
0.200127	472.62
0.216217	476.41
0.228954	478.56
0.249807	481.34
0.260709	483.11
0.275503	486.77
0.301857	488.29
0.310176	488.93
0.352185	493.1
0.359207	492.97
0.402088	495.51
0.409758	495.51
0.453288	498.16
0.475538	498.93
0.5047	500.32
0.556112	502.73
0.606957	504.6
0.655644	507.81
0.706914	509.02
0.757496	511.84
0.807246	514
0.860381	518.43
0.908014	523.74
0.955312	532.83
0.96125	534.23
0.508682	535.06
0.527457	536.55
0.555312	537.34
0.579336	540.59
0.607302	542.13
0.629218	545.4
0.66302	544.12
0.683437	543.99
0.707188	547.13
0.728354	547.25
0.7609	548.54
0.783759	549.16
0.811664	549.35
0.830338	550.54
0.861364	551.93
0.883483	554.52
0.909878	555.92
0.938847	557.3
0.964391	552.28
