Adsorption isotherm of Nitrogen on PBSAC-200-3
DOI: 10.1002/cite.201500133
Article source: Figure 1
Adsorbate Nitrogen: InChIKey IJGRMHOSHXDMSA-UHFFFAOYSA-N
Kind: experiment
Temperature: 77 K
Tabular data in the source: 0
pressure (bar)	uptake (cm3(STP)/g)
0.000527	0.85
0.00078	40.34
0.001023	80.04
0.001094	119.74
0.001348	146.3
0.00151	206.48
0.001753	313.69
0.002178	316.64
0.002503	318.52
0.020275	352.87
0.040692	381.2
0.063835	417.01
0.074747	430
0.093867	449.96
0.105216	459.19
0.123272	473.34
0.151754	495.29
0.174401	506.73
0.204079	522.37
0.225529	527.79
0.254012	538.83
0.277864	541.24
0.303945	547.67
0.352956	554.26
0.40457	558.73
0.456733	564.8
0.506311	568.47
0.556963	572.71
0.606238	575.28
0.660183	578.96
0.712072	584.79
0.760282	586.19
0.809141	592.52
0.861242	601.13
0.909665	614.03
0.949233	631.47
0.961118	639.05
0.985173	664.96
0.992367	686.42
0.997686	707.67
1.00334	722.11
1.00471	736.54
1.00488	754.79
0.459813	567.2
0.505743	580.54
0.556832	584.15
0.608092	589.87
0.708373	598.19
0.713348	598.39
0.809242	613.43
0.840531	621.56
0.909412	646.94
0.932393	658.24
0.961605	683.71
0.96581	688.33
0.973683	707.11
0.983572	730.67
