Adsorption isotherm of Methane on Activated Carbon Norit RB3
DOI: 10.1021/ie401831u
Article source: Table SI2
Adsorbate Methane: InChIKey VNWKTOKETHGBQD-UHFFFAOYSA-N
Kind: experiment
Temperature: 243 K
Tabular data in the source: 0
pressure (bar)	uptake (mmol/g)
0.001586	0.0143
0.001681	0.0151
0.002453	0.0217
0.003669	0.0318
0.00481	0.0409
0.006753	0.0558
0.008206	0.0665
0.010126	0.0799
0.014972	0.1119
0.025401	0.1728
0.040417	0.249
0.060035	0.3351
0.110144	0.5157
0.147408	0.6274
0.19824	0.7609
0.241795	0.862
0.296219	0.9756
0.339938	1.0599
0.384459	1.1409
0.442918	1.2392
0.540115	1.3878
0.659827	1.552
0.804962	1.7296
0.856261	1.7887
0.907912	1.8459
0.960571	1.9007
1.0135	1.9542
1.20133	2.1328
1.1375	2.0753
1.01041	1.9513
0.95612	1.8944
0.799834	1.7211
0.700514	1.6006
0.595025	1.4612
0.474396	1.2849
0.380097	1.1288
0.292462	0.9649
0.231158	0.8349
0.171498	0.6911
0.113757	0.5257
0.049101	0.2871
