Adsorption isotherm of Methane on Activated Carbon Norit RB3
DOI: 10.1021/ie401831u
Article source: Table SI3
Adsorbate Methane: InChIKey VNWKTOKETHGBQD-UHFFFAOYSA-N
Kind: experiment
Temperature: 303 K
Tabular data in the source: 0
pressure (bar)	uptake (mmol/g)
0.557	0.44
1.105	0.73
8.874	2.65
20.496	3.79
40.123	4.59
49.68	4.77
30.04	4.25
12.1	2.99
5.079	1.89
2.262	1.1
1.056	0.61
