Adsorption isotherm of Nitrogen on Activated Carbon Norit RB3
DOI: 10.1021/ie401831u
Article source: Table SI1
Adsorbate Nitrogen: InChIKey IJGRMHOSHXDMSA-UHFFFAOYSA-N
Kind: experiment
Temperature: 302 K
Tabular data in the source: 0
pressure (bar)	uptake (mmol/g)
0.005946	0.0016
0.0077	0.0021
0.008242	0.0023
0.010351	0.0029
0.014941	0.0041
0.02503	0.0069
0.040529	0.0109
0.060301	0.016
0.107888	0.0284
0.15028	0.0394
0.200275	0.052
0.243236	0.0627
0.296948	0.0757
0.368352	0.0927
0.442454	0.1096
0.539968	0.1319
0.659869	0.1581
0.804873	0.1889
0.876882	0.2038
0.949083	0.2185
1.02127	0.2332
1.2004	0.2677
1.12454	0.2532
1.00647	0.23
0.942414	0.2169
0.799939	0.1874
0.700276	0.1663
0.59493	0.1433
0.473523	0.1158
0.379445	0.0938
0.292091	0.073
0.231593	0.0583
0.171114	0.0434
0.110752	0.0281
0.050485	0.0123
