Adsorption isotherm of Nitrogen on Activated Carbon Norit RB3
DOI: 10.1021/ie401831u
Article source: Table SI3
Adsorbate Nitrogen: InChIKey IJGRMHOSHXDMSA-UHFFFAOYSA-N
Kind: experiment
Temperature: 303 K
Tabular data in the source: 0
pressure (bar)	uptake (mmol/g)
0.539	0.13
1.02	0.23
8.406	1.2
20.119	2.03
39.685	2.74
49.576	2.93
30.295	2.41
11.931	1.43
4.797	0.73
1.941	0.31
0.801	0.09
