Adsorption isotherm of Nitrogen on Activated Carbon Norit RB3
DOI: 10.1021/ie401831u
Article source: Table SI1
Adsorbate Nitrogen: InChIKey IJGRMHOSHXDMSA-UHFFFAOYSA-N
Kind: experiment
Temperature: 273 K
Tabular data in the source: 0
pressure (bar)	uptake (mmol/g)
0.005317	0.0029
0.007402	0.0041
0.007983	0.0046
0.010371	0.0059
0.014775	0.0082
0.024529	0.0137
0.04029	0.022
0.060275	0.0324
0.106908	0.056
0.150239	0.077
0.199991	0.1004
0.243173	0.1201
0.297054	0.1436
0.362683	0.1717
0.44267	0.2044
0.540007	0.2428
0.659608	0.2873
0.804938	0.3384
0.871954	0.3616
0.939195	0.3841
1.00653	0.4061
1.20031	0.4665
1.12698	0.4439
1.01074	0.4072
0.94501	0.3857
0.800142	0.3368
0.699991	0.3013
0.594444	0.2624
0.473617	0.2156
0.379617	0.1778
0.292283	0.1407
0.231364	0.1134
0.170947	0.0854
0.110998	0.0554
0.049745	0.0244
