Adsorption isotherm of Nitrogen, Methane on Activated Carbon Norit RB3
DOI: 10.1021/ie401831u
Article source: Table S15
Adsorbate Nitrogen: InChIKey IJGRMHOSHXDMSA-UHFFFAOYSA-N
Adsorbate Methane: InChIKey VNWKTOKETHGBQD-UHFFFAOYSA-N
Kind: experiment
Temperature: 302 K
Tabular data in the source: 0
pressure (bar)	Nitrogen fraction	Nitrogen uptake (mmol/g)	Methane fraction	Methane uptake (mmol/g)	total uptake (mmol/g)
1.077	0.51	0.12	0.49	0.42	
3.036	0.51	0.23	0.49	0.89	
5.042	0.5	0.32	0.5	1.22	
7.026	0.51	0.41	0.49	1.45	
9.028	0.51	0.46	0.49	1.67	
