Adsorption isotherm of Nitrogen, Methane on Activated Carbon Norit RB3
DOI: 10.1021/ie401831u
Article source: Table S15
Adsorbate Nitrogen: InChIKey IJGRMHOSHXDMSA-UHFFFAOYSA-N
Adsorbate Methane: InChIKey VNWKTOKETHGBQD-UHFFFAOYSA-N
Kind: experiment
Temperature: 243 K
Tabular data in the source: 0
pressure (bar)	Nitrogen fraction	Nitrogen uptake (mmol/g)	Methane fraction	Methane uptake (mmol/g)	total uptake (mmol/g)
1.066	0.52	0.28	0.48	1.28	
5.032	0.51	0.58	0.49	2.87	
9.028	0.51	0.66	0.49	3.74	
