Adsorption isotherm of Methane on Activated Carbon Norit RB3
DOI: 10.1021/ie401831u
Article source: Table SI2
Adsorbate Methane: InChIKey VNWKTOKETHGBQD-UHFFFAOYSA-N
Kind: experiment
Temperature: 273 K
Tabular data in the source: 0
pressure (bar)	uptake (mmol/g)
0.003125	0.0097
0.003695	0.0114
0.004989	0.0153
0.006803	0.0207
0.008488	0.0255
0.010003	0.03
0.015271	0.0448
0.024679	0.0699
0.040419	0.1088
0.060377	0.1544
0.110214	0.2548
0.149133	0.3237
0.199392	0.4045
0.24224	0.4676
0.296872	0.5421
0.348142	0.6072
0.400311	0.6692
0.442252	0.7168
0.53797	0.8177
0.659982	0.935
0.805127	1.0614
0.861817	1.1081
0.919089	1.1535
0.976665	1.1979
1.19421	1.3525
1.13292	1.3108
1.02366	1.2323
0.954658	1.1808
0.801793	1.0585
0.699905	0.9702
0.594197	0.8718
0.473951	0.7492
0.379586	0.643
0.292091	0.5338
0.231039	0.4493
0.171145	0.3578
0.111381	0.2543
0.05092	0.1306
