Adsorption isotherm of Nitrogen on Activated Carbon Norit RB3
DOI: 10.1021/ie401831u
Article source: Table SI3
Adsorbate Nitrogen: InChIKey IJGRMHOSHXDMSA-UHFFFAOYSA-N
Kind: experiment
Temperature: 243 K
Tabular data in the source: 0
pressure (bar)	uptake (mmol/g)
0.564	0.46
1.033	0.72
8.014	2.47
19.623	3.56
39.318	4.24
49.616	4.37
30.773	3.99
13.594	3.01
6.194	2.06
2.947	1.32
