Adsorption isotherm of Nitrogen, Methane on Activated Carbon Norit RB3
DOI: 10.1021/ie401831u
Article source: Table S15
Adsorbate Nitrogen: InChIKey IJGRMHOSHXDMSA-UHFFFAOYSA-N
Adsorbate Methane: InChIKey VNWKTOKETHGBQD-UHFFFAOYSA-N
Kind: experiment
Temperature: 273 K
Tabular data in the source: 0
pressure (bar)	Nitrogen fraction	Nitrogen uptake (mmol/g)	Methane fraction	Methane uptake (mmol/g)	total uptake (mmol/g)
1.079	0.51	0.18	0.49	0.7	
5.047	0.51	0.44	0.49	1.83	
9.032	0.52	0.61	0.48	2.41	
