Adsorption isotherm of Methane on Activated Carbon Norit RB3
DOI: 10.1021/ie401831u
Article source: Table SI3
Adsorbate Methane: InChIKey VNWKTOKETHGBQD-UHFFFAOYSA-N
Kind: experiment
Temperature: 243 K
Tabular data in the source: 0
pressure (bar)	uptake (mmol/g)
0.525	1.4
0.991	1.98
7.789	4.73
20.142	5.98
39.237	6.43
49.435	6.32
31.795	6.32
14.968	5.54
7.055	4.49
3.52	3.48
1.903	2.63
1.101	1.98
