Adsorption isotherm of Methane on Activated Carbon Norit RB3
DOI: 10.1021/ie401831u
Article source: Table SI2
Adsorbate Methane: InChIKey VNWKTOKETHGBQD-UHFFFAOYSA-N
Kind: experiment
Temperature: 302 K
Tabular data in the source: 0
pressure (bar)	uptake (mmol/g)
0.004622	0.0055
0.005451	0.0065
0.006778	0.008
0.008534	0.01
0.010362	0.0121
0.01453	0.0168
0.024076	0.0278
0.040017	0.0455
0.06059	0.0674
0.105405	0.1123
0.150297	0.1548
0.200488	0.1991
0.242604	0.2344
0.297157	0.2777
0.356686	0.323
0.443013	0.3849
0.540748	0.4499
0.659555	0.5235
0.805259	0.607
0.868148	0.6422
0.931165	0.6764
0.994644	0.709
1.20036	0.8082
1.13043	0.7762
1.01746	0.7209
0.94972	0.6873
0.801459	0.6084
0.699987	0.5502
0.594691	0.4868
0.474023	0.4087
0.379555	0.3428
0.292037	0.2768
0.231229	0.2276
0.171442	0.1762
0.111073	0.1197
0.050233	0.057
