Adsorption isotherm of Nitrogen, Methane on Activated Carbon Norit RB3
DOI: 10.1021/ie401831u
Article source: Table S15
Adsorbate Nitrogen: InChIKey IJGRMHOSHXDMSA-UHFFFAOYSA-N
Adsorbate Methane: InChIKey VNWKTOKETHGBQD-UHFFFAOYSA-N
Kind: experiment
Temperature: 303 K
Tabular data in the source: 0
pressure (bar)	Nitrogen fraction	Nitrogen uptake (mmol/g)	Methane fraction	Methane uptake (mmol/g)	total uptake (mmol/g)
4.85	0.572	0.39	0.428	1	
9.946	0.562	0.55	0.438	1.66	
14.972	0.562	0.55	0.438	2.24	
19.973	0.546	0.79	0.454	2.44	
25.026	0.539	0.92	0.461	2.7	
