Adsorption isotherm of Nitrogen on Activated Carbon Norit RB3
DOI: 10.1021/ie401831u
Article source: Table SI1
Adsorbate Nitrogen: InChIKey IJGRMHOSHXDMSA-UHFFFAOYSA-N
Kind: experiment
Temperature: 243 K
Tabular data in the source: 0
pressure (bar)	uptake (mmol/g)
0.004385	0.0052
0.005392	0.0064
0.006888	0.0081
0.008266	0.0099
0.010297	0.0124
0.014762	0.0176
0.024232	0.0283
0.040072	0.0457
0.060472	0.0672
0.105567	0.1119
0.150241	0.1533
0.199943	0.1968
0.243028	0.2327
0.296964	0.2748
0.3556	0.3183
0.414664	0.3601
0.442253	0.3785
0.539719	0.4411
0.660017	0.5132
0.805254	0.5932
0.867027	0.6263
0.928705	0.6595
0.990472	0.6921
1.19953	0.7933
1.12949	0.7622
1.01578	0.7085
0.948298	0.6761
0.80115	0.5997
0.699439	0.5436
0.594813	0.4825
0.474114	0.4052
0.379177	0.3403
0.292484	0.2755
0.231129	0.2256
0.170861	0.1735
0.110966	0.1174
0.050209	0.0554
