Adsorption isotherm of Nitrogen, Methane on Activated Carbon Norit RB3
DOI: 10.1021/ie401831u
Article source: Table S15
Adsorbate Nitrogen: InChIKey IJGRMHOSHXDMSA-UHFFFAOYSA-N
Adsorbate Methane: InChIKey VNWKTOKETHGBQD-UHFFFAOYSA-N
Kind: experiment
Temperature: 243 K
Tabular data in the source: 0
pressure (bar)	Nitrogen fraction	Nitrogen uptake (mmol/g)	Methane fraction	Methane uptake (mmol/g)	total uptake (mmol/g)
3.534	0.633	0.74	0.367	1.82	
8.722	0.607	0.89	0.393	3.06	
13.349	0.593	0.86	0.407	3.8	
19.771	0.576	0.83	0.424	4.5	
24.965	0.558	1.06	0.442	4.65	
