Adsorption isotherm of Methane on Activated Carbon Norit RB3
DOI: 10.1021/ie401831u
Article source: Table SI3
Adsorbate Methane: InChIKey VNWKTOKETHGBQD-UHFFFAOYSA-N
Kind: experiment
Temperature: 243 K
Tabular data in the source: 0
pressure (bar)	uptake (mmol/g)
0.525	1.4
0.991	1.99
7.789	4.82
20.142	6.29
39.237	7.16
49.435	7.31
31.795	6.87
14.968	5.75
7.055	4.57
3.52	3.51
1.903	2.65
1.101	1.99
