Adsorption isotherm of Methane on Activated Carbon Norit RB3
DOI: 10.1021/ie401831u
Article source: Table SI3
Adsorbate Methane: InChIKey VNWKTOKETHGBQD-UHFFFAOYSA-N
Kind: experiment
Temperature: 303 K
Tabular data in the source: 0
pressure (bar)	uptake (mmol/g)
0.557	0.44
1.105	0.74
8.874	2.7
20.496	3.94
40.123	4.97
49.68	5.28
30.04	4.51
12.1	3.06
5.079	1.9
2.262	1.11
1.056	0.61
