Adsorption isotherm of Nitrogen on Tx-COF-2 Catalyzed (10th cycle)
DOI: 10.1021/acs.macromol.1c00574
Article source: Figure S13/3b
Adsorbate Nitrogen: InChIKey IJGRMHOSHXDMSA-UHFFFAOYSA-N
Kind: experiment
Temperature: 77 K
Tabular data in the source: 0
pressure (bar)	uptake (cm3(STP)/g)
0.025331	226.703
0.050662	268.721
0.075994	336.29
0.101325	376.532
0.126656	386.674
0.151987	393.919
0.177319	402.612
0.20265	408.408
0.227981	411.306
0.253312	417.101
0.278644	421.448
0.303975	425.795
0.329306	428.693
0.354637	433.039
0.379969	435.937
0.4053	440.284
0.430631	443.182
0.455962	448.977
0.481294	453.324
0.506625	456.61
0.531956	460.957
0.557288	462.406
0.582619	468.201
0.60795	471.099
0.633281	473.997
0.658613	478.344
0.683944	482.69
0.709275	485.588
0.734606	491.384
0.759937	495.731
0.785269	501.526
0.8106	507.322
0.835931	514.566
0.861262	523.26
0.886594	537.749
0.911925	552.238
0.937256	571.073
0.962587	600.052
0.9862	650.56
1.00594	779.004
0.006875	185.538
0.004727	170.541
0.002578	157.686
0.00043	129.834
0.00043	93.4119
0.00043	82.6995
0.00043	67.7022
0.00043	48.4199
0.00043	26.9952
0.00043	14.1403
0.00043	3.42796
0.025331	236.377
0.050662	278.395
0.075994	353.738
0.101325	388.512
0.126656	398.654
0.151987	407.348
0.177319	413.143
0.20265	418.939
0.227981	423.286
0.253312	427.632
0.278644	433.428
0.303975	436.326
0.329306	440.672
0.354637	445.019
0.379969	447.917
0.4053	450.815
0.430631	455.161
0.455962	459.508
0.481294	472.548
0.506625	494.282
0.531956	497.18
0.557288	501.526
0.582619	504.424
0.60795	508.771
0.633281	513.117
0.658613	517.464
0.683944	523.26
0.709275	529.055
0.734606	534.851
0.759937	543.544
0.785269	549.34
0.8106	558.033
0.835931	566.727
0.861262	575.42
0.886594	585.562
0.911925	595.705
0.937256	611.643
0.962587	636.274
0.987919	704.372
1.0038	781.146
