Adsorption isotherm of Nitrogen on Tx-COF-2
DOI: 10.1021/acs.macromol.1c00574
Article source: Figure 2b/3b
Adsorbate Nitrogen: InChIKey IJGRMHOSHXDMSA-UHFFFAOYSA-N
Kind: experiment
Temperature: 77 K
Tabular data in the source: 0
pressure (bar)	uptake (cm3(STP)/g)
0.506625	564.262
0.531956	572.361
0.557288	572.361
0.582619	576.41
0.60795	580.459
0.633281	584.508
0.658613	588.558
0.683944	596.656
0.709275	600.706
0.734606	604.755
0.759937	612.853
0.785269	620.952
0.8106	625.001
0.835931	629.051
0.861262	641.198
0.886594	653.346
0.911925	669.543
0.937256	693.839
0.962587	734.332
0.987919	811.268
0.448115	556.148
0.421429	556.074
0.398847	550.409
0.378317	544.75
0.345471	539.057
0.322888	533.393
0.29415	536.114
0.271566	524.847
0.244879	521.972
0.22435	519.115
0.199714	510.643
0.170971	499.359
0.150442	496.501
0.117593	482.405
0.070358	420.65
0.095009	471.138
0.474804	564.625
0.048158	332.073
0.009943	236.169
0.003776	210.942
0.005823	191.34
0.00376	163.323
0.003334	118.504
0.001272	90.4867
0.001263	65.2766
0.001664	37.2665
0.001658	17.6587
0.001653	3.65304
0.098864	488.872
0.124195	501.02
0.149526	509.118
0.174857	517.217
0.200189	521.266
0.225522	532.038
0.253317	534.286
0.278651	539.888
0.303982	547.987
0.329311	549.362
0.354642	549.362
0.379973	557.461
0.405305	565.56
0.430633	565.815
0.455964	577.963
0.478006	582.514
0.504978	618.53
0.530309	626.628
0.55564	634.727
0.580972	638.776
0.606303	642.825
0.632459	649.983
0.655324	653.16
0.681479	656.956
0.70681	665.055
0.732141	669.104
0.759934	672.728
0.784443	684.441
0.808125	688.564
0.833459	703.385
0.859611	715.535
0.884124	722.256
0.909449	740.772
0.93478	765.068
0.960111	809.61
0.072418	440.263
0.045702	353.355
0.018997	297.258
0.98608	958.195
1.00261	1269.17
