Adsorption isotherm of Nitrogen on {Cu2[CuII(NO3)2(bcppm)2](DMF)2}*2DMF
DOI: 10.1039/C3ce41244j
Adsorbate Nitrogen: InChIKey IJGRMHOSHXDMSA-UHFFFAOYSA-N
Temperature: 273 K
Tabular data in the source: 0
pressure (bar)	uptake (mmol/g)
0.0130507	0.00107468
0.0919946	0.0165202
0.186384	0.0319658
0.260179	0.0422628
0.373447	0.0611407
0.471269	0.0731539
0.596549	0.0868833
0.675493	0.0954641
0.752721	0.102329
0.84711	0.112626
0.951797	0.122923
1.0685	0.129788
1.20751	0.134936
