Adsorption isotherm of Carbon Dioxide on {Cu2[CuII(NO3)2(bcppm)2](DMF)2}*2DMF
DOI: 10.1039/C3ce41244j
Adsorbate Carbon Dioxide: InChIKey CURLTUGMZLYLDI-UHFFFAOYSA-N
Temperature: 273 K
Tabular data in the source: 0
pressure (bar)	uptake (mmol/g)
0.0027537	0.15553
0.00446987	0.0268173
0.0164831	0.27223
0.0611035	0.426685
0.102292	0.524507
0.16579	0.606883
0.260179	0.715002
0.376879	0.809391
0.471269	0.869458
0.598265	0.936388
0.756153	1.01876
0.951797	1.09942
1.0685	1.14576
1.20064	1.19725
