Adsorption isotherm of Carbon Dioxide on {Cu2[CuII(NO3)2(bcppm)2](DMF)2}*2DMF
DOI: 10.1039/C3ce41244j
Adsorbate Carbon Dioxide: InChIKey CURLTUGMZLYLDI-UHFFFAOYSA-N
Temperature: 293 K
Tabular data in the source: 0
pressure (bar)	uptake (mmol/g)
0.00103753	0.0285334
0.0164831	0.13322
0.0439418	0.255068
0.0748329	0.335728
0.117737	0.409524
0.208694	0.519359
0.335691	0.634342
0.472985	0.725299
0.673777	0.826553
0.848826	0.8952
0.951797	0.934672
1.0685	0.970712
1.19893	1.00847
