Adsorption isotherm of Nitrogen on Mg-MOF-74
DOI: 10.1016/j.poly.2015.01.031
Article source: Figure 1a
Adsorbate Nitrogen: InChIKey IJGRMHOSHXDMSA-UHFFFAOYSA-N
Kind: experiment
Temperature: 77 K
Tabular data in the source: 0
pressure (bar)	uptake (cm3(STP)/g)
0	0
0.000779	195.764
0.000851	204.559
0.001336	264.167
0.003849	272.957
0.008796	280.765
0.011277	285.646
0.016184	288.568
0.038182	291.457
0.052847	293.383
0.060187	295.324
0.06752	296.287
0.074844	296.273
0.079743	298.218
0.084626	298.208
0.094392	298.189
0.101717	298.175
0.157888	300.021
0.199403	300.918
0.253124	301.792
0.304404	302.67
0.358149	306.475
0.399631	303.464
0.404546	307.363
0.46071	308.232
0.504609	302.284
0.507106	309.12
0.555945	310.003
0.604751	306.977
0.629175	307.907
0.65604	308.832
0.67313	308.799
0.714612	305.788
0.731727	308.686
0.765868	303.734
0.78544	308.583
0.812258	303.645
0.83183	308.493
0.856205	303.56
0.885535	307.412
0.914825	306.379
0.936855	313.177
0.966129	310.189
0.988238	326.758
1.00296	335.525
