Adsorption isotherm of Carbon monoxide on MOF-74-Co
DOI: 10.1016/j.poly.2015.01.031
Article source: Figure 5b
Adsorbate Carbon monoxide: InChIKey UGFAIRIUMAVXCW-UHFFFAOYSA-N
Kind: experiment
Temperature: 273 K
Tabular data in the source: 0
pressure (bar)	uptake (mmol/g)
0.001147	0.393758
0.00141	0.490968
0.002173	0.734589
0.004364	1.37106
0.006526	1.84515
0.008761	2.22134
0.01035	2.53265
0.011759	2.67976
0.012594	2.8273
0.015939	3.12167
0.017931	3.2853
0.023605	3.57939
0.026821	3.69361
0.028169	3.75905
0.034288	3.88922
0.036014	3.92177
0.038958	4.00344
0.044269	4.06832
0.050799	4.14957
0.055498	4.19828
0.060631	4.247
0.065591	4.29578
0.076765	4.36044
0.079844	4.37661
0.082234	4.39284
0.085532	4.40901
0.088963	4.42518
0.091625	4.44141
0.093443	4.45772
0.097192	4.47389
