Adsorption isotherm of Nitrogen on MOF-74-Co
DOI: 10.1016/j.poly.2015.01.031
Article source: Figure 1a
Adsorbate Nitrogen: InChIKey IJGRMHOSHXDMSA-UHFFFAOYSA-N
Kind: experiment
Temperature: 77 K
Tabular data in the source: 0
pressure (bar)	uptake (cm3(STP)/g)
0	0
0.004032	295.432
0.008971	302.263
0.009011	307.149
0.0115	313.007
0.018848	315.925
0.035963	318.823
0.060394	320.73
0.067735	322.671
0.082384	322.642
0.104366	323.577
0.158102	326.405
0.206941	327.288
0.253339	328.176
0.30461	328.077
0.353449	328.96
0.412045	328.847
0.458466	332.666
0.507265	328.663
0.509786	338.43
0.556183	339.318
0.607367	328.47
0.607456	339.219
0.629421	338.2
0.653836	338.153
0.678251	338.105
0.707534	336.095
0.709912	328.272
0.741715	336.029
0.756373	336.978
0.763626	328.169
0.788113	336.916
0.810086	336.874
0.812472	330.029
0.863768	332.862
0.888192	333.792
0.912607	333.745
0.92724	331.762
0.946772	331.724
0.968754	332.659
0.980962	332.636
1.00783	333.561
