Adsorption isotherm of Carbon Dioxide on Zn-MOF-74
DOI: 10.1016/j.poly.2015.01.031
Article source: Figure 5a
Adsorbate Carbon Dioxide: InChIKey CURLTUGMZLYLDI-UHFFFAOYSA-N
Kind: experiment
Temperature: 273 K
Tabular data in the source: 0
pressure (bar)	uptake (mmol/g)
0	0
0.017408	0.04918
0.039166	0.114754
0.052209	0.180328
0.063088	0.213115
0.076138	0.262295
0.089203	0.278689
0.106597	0.360656
0.121826	0.409836
0.137055	0.459016
0.163156	0.557377
0.187107	0.590164
0.226272	0.704918
0.271981	0.803279
0.317683	0.918033
0.361227	0.983607
0.439573	1.18033
0.480946	1.22951
0.565842	1.39344
0.646402	1.5082
0.72479	1.60656
0.809707	1.72131
0.885917	1.81967
0.951241	1.90164
