Adsorption isotherm of Carbon Dioxide on MOF-74-Co
DOI: 10.1016/j.poly.2015.01.031
Article source: Figure 5a
Adsorbate Carbon Dioxide: InChIKey CURLTUGMZLYLDI-UHFFFAOYSA-N
Kind: experiment
Temperature: 273 K
Tabular data in the source: 0
pressure (bar)	uptake (mmol/g)
0	0
0	0.081967
0.002183	0.704918
0.004367	1.34426
0.008734	2.22951
0.010917	2.68852
0.0131	2.83607
0.015284	3.2623
0.024018	3.55738
0.028384	3.7541
0.032751	3.90164
0.039301	3.98361
0.045852	4.08197
0.052402	4.16393
0.056769	4.22951
0.063319	4.31148
0.072052	4.36066
0.078603	4.39344
0.087336	4.44262
0.09607	4.47541
0.111354	4.52459
0.117904	4.55738
0.128821	4.55738
0.139738	4.59016
0.18559	4.67213
0.231441	4.7377
0.270742	4.77049
0.320961	4.80328
0.355895	4.83607
0.40393	4.90164
0.443231	4.91803
0.482533	4.95082
0.563319	5
0.646288	5.03279
0.724891	5.04918
0.810044	5.09836
0.893013	5.14754
0.951965	5.14754
0.9869	5.18033
0.997817	5.16393
