Adsorption isotherm of Nitrogen on Zn-MOF-74
DOI: 10.1016/j.poly.2015.01.031
Article source: Figure 1a
Adsorbate Nitrogen: InChIKey IJGRMHOSHXDMSA-UHFFFAOYSA-N
Kind: experiment
Temperature: 77 K
Tabular data in the source: 0
pressure (bar)	uptake (cm3(STP)/g)
0	0
0.00062	176.22
0.000835	202.604
0.001042	228.011
0.00109	233.874
0.001241	252.441
0.002609	120.516
0.002728	135.174
0.002815	145.923
0.003642	247.55
0.008597	256.335
0.018395	260.225
0.045284	264.082
0.05505	264.063
0.077055	267.93
0.103928	269.832
0.145418	267.798
0.145442	270.729
0.201605	271.598
0.211363	270.602
0.252869	270.522
0.255335	273.449
0.306598	272.373
0.313923	272.359
0.357887	274.228
0.396919	270.244
0.401842	275.121
0.460423	273.053
0.504394	275.9
0.514144	273.927
0.560557	276.769
0.604528	279.616
0.606923	273.748
0.636276	280.532
0.670457	280.466
0.694873	280.419
0.714413	281.358
0.716816	276.468
0.743719	282.279
0.755879	276.392
0.765694	282.236
0.790109	282.189
0.814508	280.188
0.834041	280.15
0.863347	281.071
0.880445	282.015
0.902419	281.973
0.919509	281.94
0.943924	281.893
0.965915	283.805
0.982997	282.795
1.00499	284.706
