Adsorption isotherm of Carbon Dioxide on Mg-MOF-74
DOI: 10.1016/j.poly.2015.01.031
Article source: Figure 5a
Adsorbate Carbon Dioxide: InChIKey CURLTUGMZLYLDI-UHFFFAOYSA-N
Kind: experiment
Temperature: 273 K
Tabular data in the source: 0
pressure (bar)	uptake (mmol/g)
0	0
0.006429	0.245902
0.012893	0.409836
0.017158	0.622951
0.023637	0.754098
0.030115	0.885246
0.038751	1.06557
0.047394	1.22951
0.051688	1.37705
0.062517	1.52459
0.071167	1.67213
0.082017	1.77049
0.088475	1.95082
0.097146	2.04918
0.105832	2.11475
0.114497	2.22951
0.127526	2.32787
0.138362	2.45902
0.18615	2.78689
0.229622	3.01639
0.27311	3.21311
0.314447	3.34426
0.362313	3.4918
0.405836	3.60656
0.445009	3.70492
0.482017	3.77049
0.56257	3.90164
0.636594	4.01639
0.723683	4.14754
0.804257	4.22951
0.884832	4.31148
0.95017	4.36066
0.982835	4.39344
0.998086	4.39344
