Adsorption isotherm of Carbon monoxide on Mg-MOF-74
DOI: 10.1016/j.poly.2015.01.031
Article source: Figure 5b
Adsorbate Carbon monoxide: InChIKey UGFAIRIUMAVXCW-UHFFFAOYSA-N
Kind: experiment
Temperature: 273 K
Tabular data in the source: 0
pressure (bar)	uptake (mmol/g)
0.001103	0.015745
0.001397	0.030505
0.002263	0.092852
0.004205	0.137766
0.006483	0.200464
0.008622	0.313559
0.010812	0.344837
0.012166	0.393337
0.013161	0.42567
0.016179	0.522879
0.018026	0.587896
0.022378	0.701483
0.025933	0.782667
0.028611	0.864202
0.034146	0.994517
0.036939	1.0433
0.039958	1.12497
0.044081	1.22296
0.050089	1.30428
0.055256	1.41871
0.060361	1.51676
0.065292	1.61489
0.076405	1.74534
0.080248	1.81078
0.087662	1.90884
0.092074	1.95783
0.097655	2.05609
