Adsorption isotherm of Carbon Dioxide on ELM-11
DOI: 10.1021/jp512870p
Article source: Figure 2
Adsorbate Carbon Dioxide: InChIKey CURLTUGMZLYLDI-UHFFFAOYSA-N
Kind: experiment
Temperature: 273 K
Tabular data in the source: 0
pressure (bar)	uptake (cm3(STP)/g)
0.049154	0.657
0.090913	0.719
0.135242	0.845
0.156625	0.779
0.17905	1.358
0.196996	1.647
0.211298	2.516
0.22258	4.287
0.234833	10.052
0.240561	16.172
0.245733	24.482
0.247781	34.693
0.248615	41.715
0.250524	48.963
0.252711	57.692
0.25639	66.711
0.263576	73.089
0.276246	75.15
0.291346	75.696
0.302211	75.953
0.310265	76.211
0.320436	76.5
0.331197	76.66
0.340708	76.982
0.351608	77.336
0.360043	77.657
0.37077	77.753
0.381114	77.946
0.38941	78.106
0.399199	78.267
0.409683	78.492
0.41975	78.556
0.430511	78.652
0.440577	78.941
0.456754	79.133
0.470222	79.39
0.528297	80.095
0.579325	80.833
0.589774	80.929
0.647606	81.602
0.696273	82.212
