Adsorption isotherm of Carbon Dioxide on PEI-C60
DOI: 10.1038/Srep07304
Adsorbate Carbon Dioxide: InChIKey CURLTUGMZLYLDI-UHFFFAOYSA-N
Temperature: 353 K
Tabular data in the source: 0
pressure (bar)	uptake (g/g)
0.00340909	0
0.0271945	0.0639344
0.0622355	0.109016
0.11867	0.136885
0.182727	0.15
0.253916	0.157377
0.325194	0.163115
0.393107	0.168033
0.464385	0.17377
0.54598	0.177869
0.614072	0.179508
0.688804	0.184426
0.770488	0.186885
0.828264	0.190164
0.967902	0.192623
1.03595	0.195082
1.11423	0.197541
