Adsorption isotherm of Carbon Dioxide on PEI-C60
DOI: 10.1038/Srep07304
Adsorbate Carbon Dioxide: InChIKey CURLTUGMZLYLDI-UHFFFAOYSA-N
Temperature: 343 K
Tabular data in the source: 0
pressure (bar)	uptake (g/g)
0.0198828	0.0419272
0.0908015	0.0912207
0.15202	0.10187
0.223488	0.110867
0.29499	0.117397
0.359696	0.122286
0.438039	0.127167
0.506143	0.132877
0.581098	0.136115
0.656065	0.138531
0.727623	0.140949
0.806	0.143362
0.874137	0.146605
0.942297	0.148203
1.01384	0.151443
1.07859	0.153044
