Adsorption isotherm of Methane on PEI-C60
DOI: 10.1038/Srep07304
Adsorbate Methane: InChIKey VNWKTOKETHGBQD-UHFFFAOYSA-N
Temperature: 363 K
Tabular data in the source: 0
pressure (bar)	uptake (g/g)
0.156745	-7.15188e-06
3.13431	0.000617446
6.26982	-0.000286075
9.24858	-0.00118244
12.2273	-0.00207881
15.2049	-0.00145422
18.1849	-0.00387155
21.0069	-0.00476077
24.2979	-0.00415048
27.2737	-0.00124443
30.2525	-0.0021408
33.7009	-0.00229814
36.9973	-0.0085322
40.2871	-0.00640093
43.2635	-0.00425537
46.5546	-0.00364508
49.8439	-0.000753332
52.9788	-0.000896369
