Adsorption isotherm of Carbon Dioxide on PEI-C60
DOI: 10.1038/Srep07304
Adsorbate Carbon Dioxide: InChIKey CURLTUGMZLYLDI-UHFFFAOYSA-N
Temperature: 363 K
Tabular data in the source: 0
pressure (bar)	uptake (g/g)
-0.00372276	0.00740897
0.0154759	0.0394419
0.0242823	0.0747856
0.0398932	0.110938
0.0661662	0.137199
0.0996148	0.155223
0.157537	0.160038
0.208452	0.168979
0.303444	0.186876
0.423281	0.182518
0.535605	0.194623
0.655273	0.194376
0.778057	0.201525
1.09298	0.191832
