Adsorption isotherm of Carbon Dioxide on PEI-C60
DOI: 10.1038/Srep07304
Adsorbate Carbon Dioxide: InChIKey CURLTUGMZLYLDI-UHFFFAOYSA-N
Temperature: 363 K
Tabular data in the source: 0
pressure (bar)	uptake (g/g)
-0.216791	0.0757576
-0.121498	0.154545
-0.108395	0.137879
-0.0869545	0.110606
-0.0303745	0.0386364
-0.00476463	0.00606061
0.00952925	0.187879
0.0250143	0.168182
0.0309701	0.160606
0.161402	0.194697
0.326973	0.184091
0.46872	0.203788
0.47408	0.19697
0.790333	0.194697
1.10361	0.196212
1.56875	0.204545
2.35789	0.200758
3.76525	0.210606
5.81285	0.206061
7.69606	0.210606
10.051	0.215152
12.721	0.218939
15.3921	0.221212
18.3778	0.223485
21.9894	0.229545
