Adsorption isotherm of Nitric oxide on CuBTC
DOI: 10.1517/17425247.2013.741583
Adsorbate Nitric oxide: InChIKey MWUXSHHQAYIFBG-UHFFFAOYSA-N
Temperature: 298 K
Tabular data in the source: 0
pressure (bar)	uptake (mmol/g)
0.0199005	0.239988
0.0422886	0.519876
0.0820896	0.920644
0.136816	1.36279
0.176617	1.72395
0.236318	1.92907
0.328358	2.37565
0.514925	2.91266
0.659204	3.32585
0.793532	3.69824
1.01244	4.08069
