Adsorption isotherm of Nitric oxide on CuBTC
DOI: 10.1517/17425247.2013.741583
Adsorbate Nitric oxide: InChIKey MWUXSHHQAYIFBG-UHFFFAOYSA-N
Temperature: 196 K
Tabular data in the source: 0
pressure (bar)	uptake (mmol/g)
32.3383	0.99266
67.1642	1.90631
104.478	2.97857
159.204	5.04231
223.881	5.83952
375.622	6.92084
517.413	7.52613
651.741	8.09123
786.07	8.69593
