Adsorption isotherm of Carbon Dioxide on NH2-MIL-53(Al) @ PSF 25 wt%
DOI: 10.1039/C1cc13431k
Adsorbate Carbon Dioxide: InChIKey CURLTUGMZLYLDI-UHFFFAOYSA-N
Temperature: 308 K
Tabular data in the source: 0
pressure (bar)	uptake (mmol/g)
1.57143	0.0634921
2.14286	0.0952381
2.78571	0.15873
3.42857	0.222222
4.71429	0.31746
6.14286	0.444444
7.5	0.539683
8.85714	0.698413
10.1429	0.888889
12.1429	1.20635
14.1429	1.61905
16.2143	2.09524
18.1429	2.63492
20.1429	3.26984
22.7857	4.19048
25.2143	6.47619
