Adsorption isotherm of Carbon Dioxide on NH2-MIL-53(Al)
DOI: 10.1039/C1cc13431k
Adsorbate Carbon Dioxide: InChIKey CURLTUGMZLYLDI-UHFFFAOYSA-N
Temperature: 308 K
Tabular data in the source: 0
pressure (bar)	uptake (mmol/g)
0.0714286	0.0714286
0.214286	1.65079
0.428571	1.71429
0.785714	1.74603
1.14286	1.84127
1.64286	1.90476
2.21429	1.93651
2.92857	1.96825
3.57143	2.03175
4.92857	2.06349
6.28571	2.15873
7.64286	2.22222
9	2.34921
10.2857	2.60317
11.7857	3.74603
13.1429	5.07937
14.7143	6.12698
16.4286	6.95238
18.1429	7.5873
20.0714	8.06349
22.5714	8.69841
25.1429	9.26984
