Adsorption isotherm of Carbon Dioxide on PSF
DOI: 10.1039/C1cc13431k
Adsorbate Carbon Dioxide: InChIKey CURLTUGMZLYLDI-UHFFFAOYSA-N
Temperature: 308 K
Tabular data in the source: 0
pressure (bar)	uptake (mmol/g)
0.34642	0.22503
0.923788	0.405325
2.30947	0.653761
3.00231	0.744272
4.38799	0.902821
5.71594	1.06132
7.10162	1.24234
8.42956	1.44578
9.75751	1.64922
11.2009	1.78535
13.164	2.05678
15.127	2.3282
17.1478	2.64463
19.0531	2.87106
21.0162	3.07507
23.7298	3.43706
26.3279	3.61917
