Adsorption isotherm of Carbon Dioxide on NH2-MIL-53(Al) @ PSF 40 Wt%
DOI: 10.1039/C1cc13431k
Adsorbate Carbon Dioxide: InChIKey CURLTUGMZLYLDI-UHFFFAOYSA-N
Temperature: 308 K
Tabular data in the source: 0
pressure (bar)	uptake (mmol/g)
1.27021	0.33822
2.42494	0.429146
3.17552	0.564652
4.38799	0.678102
5.77367	0.83665
7.10162	0.995148
8.42956	1.17612
9.81524	1.31219
11.2009	1.51569
13.1062	1.74212
15.0693	2.03602
17.1478	2.39744
19.0531	2.80364
20.9584	3.32221
23.5566	3.9987
25.3464	7.41604
