Adsorption isotherm of Nitrogen on TAPP(H2)-B18C6-COF
DOI: 10.1021/acsenergylett.1c01681
Article source: Figure 2b
Adsorbate Nitrogen: InChIKey IJGRMHOSHXDMSA-UHFFFAOYSA-N
Kind: experiment
Temperature: 77 K
Tabular data in the source: 0
pressure (bar)	uptake ()
0.04736	220.744
0.097763	236.903
0.122947	242.127
0.15729	249.44
0.19391	255.405
0.230531	261.369
0.267146	266.523
0.29918	270.325
0.335799	276.019
0.372403	279.283
0.404442	283.894
0.44105	287.968
0.477655	291.502
0.511974	295.035
0.546298	299.377
0.582903	302.911
0.619505	305.905
0.653827	309.978
0.688149	314.05
0.724759	318.394
0.761368	322.468
0.793414	328.16
0.830031	333.584
0.866655	340.089
0.903299	349.834
0.935397	363.628
0.972152	390.927
1.00953	516.258
0.012715	193.816
0.00719	179.374
0.004393	166.538
0.004301	152.099
0.004199	136.056
0.001381	120.012
0.004006	105.575
0.003904	89.5322
0.001107	76.6962
0.001015	62.2576
0.000913	46.2147
0.000822	31.7762
0.001976	18.9402
0.002037	9.31448
0.049815	247.325
0.0868	259.332
0.122338	266.306
0.159719	271.981
0.191766	277.861
0.230675	284.054
0.264003	285.998
0.301592	290.167
0.33135	295.527
0.372533	299.874
0.406843	302.011
0.438857	302.707
0.47774	304.786
0.512061	308.688
0.54866	311.336
0.582974	314.048
0.618434	317.297
0.656188	321.804
0.688216	324.621
0.724834	330.148
0.761448	335.123
0.793716	340.066
0.819558	344.465
0.856297	353.641
0.890969	361.754
0.933254	386.371
0.974794	447.011
