Adsorption isotherm of Carbon Dioxide on TAPP(H2)-B18C6-COF
DOI: 10.1021/acsenergylett.1c01681
Article source: Figure 2c
Adsorbate Carbon Dioxide: InChIKey CURLTUGMZLYLDI-UHFFFAOYSA-N
Kind: experiment
Temperature: 298 K
Tabular data in the source: 0
pressure (bar)	uptake (cm3(STP)/g)
0.124963	5.59531
0.162914	7.16146
0.198516	8.61097
0.236465	10.1433
0.274416	11.6925
0.313931	13.2801
0.345617	14.5348
0.383567	16.0502
0.419952	17.5442
0.457898	18.992
0.495848	20.5244
0.530663	21.8218
0.568609	23.2527
0.606555	24.7005
0.644501	26.1145
0.678529	27.283
0.716475	28.7139
0.752076	30.1343
0.790025	31.6497
0.827972	33.1145
0.865916	34.4777
0.902293	35.7598
0.940238	37.1779
0.977397	38.4631
1.01058	39.6682
0.092674	4.06898
0.075063	3.40229
0.065273	2.84592
0.041791	1.957
0.030047	1.40095
0.014394	0.84553
0.562582	29.2688
0.600519	30.4686
0.638448	31.4442
0.676377	32.4288
0.714308	33.4438
0.752234	34.3607
0.790162	35.3014
0.828088	36.1913
0.866013	37.0812
0.881383	37.53
0.914618	37.971
0.951768	38.6346
0.018562	7.76327
0.055783	10.3238
0.089063	11.9923
0.128212	13.8383
0.167339	15.1041
0.208431	16.6597
0.237804	18.3288
0.274975	19.5503
0.314113	21.1062
0.347377	22.3284
0.386903	23.8173
0.423678	24.8826
0.456945	26.2163
0.492159	27.3265
0.535175	28.1007
