Adsorption isotherm of Carbon Dioxide on TAPP(Co)-B18C6-COF
DOI: 10.1021/acsenergylett.1c01681
Article source: Figure 2c
Adsorbate Carbon Dioxide: InChIKey CURLTUGMZLYLDI-UHFFFAOYSA-N
Kind: experiment
Temperature: 298 K
Tabular data in the source: 0
pressure (bar)	uptake (cm3(STP)/g)
0.12364	7.62986
0.281138	16.0785
0.314361	17.8506
0.347579	19.5262
0.389414	21.6914
0.422638	23.5216
0.462118	25.4133
0.495332	26.973
0.531679	28.6973
0.569598	30.6579
0.602818	32.3722
0.721573	37.713
0.75479	39.35
0.788003	40.871
0.824911	42.6721
0.865999	44.1161
0.905141	45.7836
0.940375	47.4518
0.977555	48.8964
1.01279	50.6762
0.680054	35.6654
0.640916	34.1094
0.161281	9.86049
0.202389	11.8625
0.239586	13.7535
0.088833	5.85499
0.071218	5.07671
0.059461	4.1859
0.043787	3.07255
0.035955	2.62746
0.02616	1.95951
0.014415	1.40346
0.020474	6.64709
0.055737	9.09634
0.094913	11.6566
0.124306	13.8836
0.161519	16.2209
0.200678	18.3348
0.237871	20.1142
0.273117	22.1171
0.314214	23.7843
0.351406	25.5637
0.388602	27.4547
0.421883	29.1232
0.457117	30.7914
0.500163	32.3467
0.531485	33.9038
0.572573	35.3479
0.603895	36.9051
0.643024	38.2378
0.674346	39.795
0.719334	41.0152
0.756514	42.4599
0.783915	43.683
0.824999	45.0154
0.858275	46.5723
0.871961	46.7933
0.914986	47.7906
0.95412	49.235
