Adsorption isotherm of Nitrogen on TAPP(Co)-B18C6-COF
DOI: 10.1021/acsenergylett.1c01681
Article source: Figure 2b
Adsorbate Nitrogen: InChIKey IJGRMHOSHXDMSA-UHFFFAOYSA-N
Kind: experiment
Temperature: 77 K
Tabular data in the source: 0
pressure (bar)	uptake (cm3(STP)/g)
0.048608	211.473
0.097704	227.483
0.125169	231.866
0.159519	240.44
0.191562	245.591
0.228182	251.465
0.264796	256.47
0.29912	260.872
0.336168	268.654
0.368923	271.426
0.439024	277.538
0.475056	282.238
0.511907	284.412
0.546236	289.601
0.61715	295.101
0.659974	300.761
0.692657	303.829
0.724694	308.094
0.867731	329.557
0.900938	338.04
0.937959	355.65
0.97449	398.963
1.00771	589.712
0.755061	311.398
0.809412	314.641
0.831164	317.864
0.973317	459.13
0.926618	377.282
0.885697	349.984
0.045557	232.339
0.083669	245.198
0.116308	251.635
0.157116	261.287
0.189755	267.725
0.230523	270.959
0.263151	275.793
0.29578	280.626
0.344687	282.261
0.380022	285.492
0.407106	272.675
0.407197	287.114
0.434393	291.944
0.49147	296.793
0.548547	301.642
0.578357	290.431
0.597474	306.486
0.632809	309.717
0.668144	312.947
0.703489	317.783
0.736107	321.012
0.771442	324.243
0.809513	330.684
0.847595	338.73
0.012654	184.19
0.009866	172.958
0.007048	156.914
0.004271	147.286
0.001463	132.846
0.004088	118.409
0.003996	103.971
0.003904	89.5322
0.003813	75.0936
0.003732	62.2593
0.00365	49.425
0.003015	34.9861
0.000761	22.1505
0.003386	7.71364
