Adsorption isotherm of Lysozyme L8120 on Fe3O4@SiO2@AT
DOI: 10.1039/c6nj02755e
Article source: Figure 6
Adsorbate Lysozyme L8120: InChIKey NIST-ISODB-A8509374E494721B4FDB
Kind: experiment
Temperature: 298 K
Tabular data in the source: 0
pressure (bar)	uptake (g/g)
1.01325	4.1e-05
1.01325	0.007523
1.01325	0.015043
1.01325	0.020052
1.01325	0.022575
1.01325	0.023054
