Adsorption isotherm of Hemoglobin H8020 on Fe3O4@SiO2@AT
DOI: 10.1039/c6nj02755e
Article source: Figure 6
Adsorbate Hemoglobin H8020: InChIKey NIST-ISODB-18A52E199E53595FB412
Kind: experiment
Temperature: 298 K
Tabular data in the source: 0
pressure (bar)	uptake (g/g)
1.01325	0.06039
1.01325	0.26991
1.01325	0.52861
1.01325	1.28982
1.01325	1.64173
1.01325	1.78434
1.01325	1.91183
