Adsorption isotherm of Nitrogen on Zr-DTDC
DOI: 10.1039/c5ce00269a
Article source: Figure 3d- Zr-DTDC
Adsorbate Nitrogen: InChIKey IJGRMHOSHXDMSA-UHFFFAOYSA-N
Kind: experiment
Temperature: 77 K
Tabular data in the source: 0
pressure (bar)	uptake (cm3(STP)/g)
8.1e-05	142.66
8.1e-05	142.7
0.029364	263.25
0.047299	281.59
0.050227	282.71
0.07574	297.46
0.101629	304.53
0.126849	308.93
0.152626	310.02
0.176437	313.86
0.203228	316.82
0.227181	317.12
0.252522	319.78
0.277924	319.98
0.30435	323.62
0.329468	324.12
0.356117	327.86
0.380293	327.57
0.40527	330.72
0.4298	330.93
0.456885	334.08
0.481425	333.89
0.506686	336.35
0.531369	337.34
0.558301	339.41
0.582335	339.81
0.608467	342.57
0.63315	341.88
0.658775	344.54
0.683103	345.82
0.710106	347.8
0.734353	349.08
0.758387	349.77
0.784884	349.58
0.811745	353.91
0.83657	354.21
0.860381	356.78
0.886016	355.21
0.911418	358.85
0.93756	361.41
0.959558	365.06
0.963185	362.3
0.987361	365.46
1.0066	377.95
