Adsorption isotherm of Nitrogen on Zr-DTDC
DOI: 10.1039/c5ce00269a
Article source: Figure 3b- treated with 11NaOH
Adsorbate Nitrogen: InChIKey IJGRMHOSHXDMSA-UHFFFAOYSA-N
Kind: experiment
Temperature: 77 K
Tabular data in the source: 0
pressure (bar)	uptake (cm3(STP)/g)
0.002128	194.18
0.026588	251.03
0.050814	266.32
0.075923	278.86
0.101021	283.95
0.125542	286.79
0.151795	291.01
0.176609	292.28
0.203157	292.28
0.228326	294.92
0.253718	297.07
0.27991	297.07
0.304137	300.01
0.329377	297.75
0.354911	302.95
0.380516	302.06
0.405472	304.21
0.430935	304.6
0.456398	304.5
0.480919	305.68
0.506595	302.64
0.506888	306.46
0.53228	306.36
0.557743	309
0.582548	309.49
0.608011	310.37
0.608446	310.64
0.633616	309.88
0.65843	316.05
0.658785	316.17
0.684177	313.01
0.70891	312.22
0.709062	312.27
0.735032	310.85
0.76013	317.02
0.785228	315.65
0.810833	317.6
0.83586	317.7
0.86183	319.53
0.861972	319.56
0.886715	319.95
0.912026	321.91
0.936841	322.49
0.962446	324.55
0.962587	324.54
0.987767	326.8
1.00619	333.95
