Adsorption isotherm of Nitrogen on Zr-DTDC
DOI: 10.1039/c5ce00269a
Article source: Figure 2b- N2
Adsorbate Nitrogen: InChIKey IJGRMHOSHXDMSA-UHFFFAOYSA-N
Kind: experiment
Temperature: 77 K
Tabular data in the source: 0
pressure (bar)	uptake (cm3(STP)/g)
0.001489	30.947
0.002401	126.771
0.003435	156.264
0.003506	155.264
0.003759	163.199
0.003759	163.286
0.003891	178.896
0.004002	204.237
0.004083	204.96
0.007133	227.442
0.00765	219.501
0.008369	237.377
0.010436	240.455
0.026648	256.712
0.049214	273.007
0.074899	289.526
0.100443	297.095
0.126443	300.601
0.152575	304.741
0.176893	306.233
0.203157	310.559
0.225012	311.641
0.254711	314.849
0.278249	315.633
0.304705	318.878
0.32733	318.953
0.354952	320.968
0.355408	321.102
0.380435	322.162
0.406313	323.356
0.406637	323.466
0.429395	325.892
0.456631	325.968
0.457867	329.808
0.482824	328.392
0.506818	328.654
0.508054	333.352
0.532169	331.563
0.558301	337.261
0.558372	337.269
0.582943	333.206
0.607332	334.586
0.609146	339.023
0.633909	336.563
0.659393	338.056
0.660244	341.225
0.682738	339.697
0.710167	343.906
0.710369	343.911
0.734941	342.122
0.758995	344.575
0.759512	344.398
0.78539	344.921
0.811654	349.628
0.812627	350.067
0.838951	348.95
0.861252	352.604
0.886807	351.748
0.91157	353.346
0.911773	353.315
0.939526	356.224
0.961828	358.926
0.962932	358.835
0.988679	363.012
1.00741	374.683
