Adsorption isotherm of Nitrogen on Zr-DTDC
DOI: 10.1039/c5ce00269a
Article source: Figure 3d- treated with water
Adsorbate Nitrogen: InChIKey IJGRMHOSHXDMSA-UHFFFAOYSA-N
Kind: experiment
Temperature: 77 K
Tabular data in the source: 0
pressure (bar)	uptake (cm3(STP)/g)
0.001388	171.47
0.010011	232.07
0.0222	257.75
0.048109	264.15
0.074322	278.22
0.101325	282.94
0.125866	285.5
0.15142	289.14
0.176903	289.93
0.202164	291.31
0.227434	293.48
0.252988	294.76
0.278542	293.68
0.303225	295.75
0.32886	298.02
0.354921	297.72
0.379462	298.02
0.405594	300.48
0.429628	301.86
0.455476	302.06
0.481172	302.26
0.506149	303.05
0.531855	305.61
0.557622	307.09
0.582092	305.32
0.607362	306.6
0.632694	306.9
0.658258	308.48
0.683376	309.56
0.709001	310.74
0.734343	311.14
0.759674	313.21
0.784945	312.91
0.810934	315.38
0.835546	315.28
0.860959	316.36
0.886665	316.76
0.91076	319.32
0.936172	320.6
0.961513	322.08
0.987503	325.53
1.00834	332.81
