Adsorption isotherm of Nitrogen on Zr-DTDC
DOI: 10.1039/c5ce00269a
Article source: Figure 3b- treated with 8MHCl
Adsorbate Nitrogen: InChIKey IJGRMHOSHXDMSA-UHFFFAOYSA-N
Kind: experiment
Temperature: 77 K
Tabular data in the source: 0
pressure (bar)	uptake (cm3(STP)/g)
0.007285	276.42
0.026	294.47
0.05125	303.79
0.076642	313.6
0.101588	317.12
0.12691	322.42
0.152443	325.65
0.178342	329.37
0.202275	332.8
0.228032	334.66
0.252542	338.68
0.27837	339.36
0.302962	343.38
0.329722	343.57
0.354242	348.38
0.380506	346.41
0.403719	352.29
0.43208	351.99
0.456814	356.11
0.481476	353.75
0.506068	361.79
0.532321	357.17
0.557855	365.7
0.582811	360.5
0.60639	369.03
0.632643	362.45
0.659484	370.3
0.683133	368.92
0.709609	375.29
0.735721	373.72
0.760961	379.31
0.785259	379.59
0.811309	384.89
0.836043	384.1
0.860999	391.94
0.88704	394.1
0.912351	403.61
0.933679	407.04
0.963499	422.24
0.963651	422.55
0.988253	470.52
1.00588	683.64
