Adsorption isotherm of Nitrogen on Zr-DTDC
DOI: 10.1039/c5ce00269a
Article source: Figure 3b- treated with water
Adsorbate Nitrogen: InChIKey IJGRMHOSHXDMSA-UHFFFAOYSA-N
Kind: experiment
Temperature: 77 K
Tabular data in the source: 0
pressure (bar)	uptake (cm3(STP)/g)
0.000243	157.92
0.027733	253.75
0.04972	258.4
0.302192	308.27
0.518723	321.06
0.56816	329.46
0.62094	331.68
0.644741	332.29
0.671025	333.89
0.6936	333.91
0.722123	336.1
0.745215	337.79
0.771418	338.8
0.796242	340.2
0.823975	338.06
0.847209	340.44
0.871669	342.63
0.949709	341.13
0.987595	342.64
1.00675	357.31
