Adsorption isotherm of Nitrogen on Zr-DTDC
DOI: 10.1039/c5ce00269a
Article source: Figure 3d- treated with 1MHCl
Adsorbate Nitrogen: InChIKey IJGRMHOSHXDMSA-UHFFFAOYSA-N
Kind: experiment
Temperature: 77 K
Tabular data in the source: 0
pressure (bar)	uptake (cm3(STP)/g)
0.008836	257.07
0.025595	284.99
0.048241	303.85
0.049406	306.61
0.074595	319.57
0.100879	326.64
0.125278	330.37
0.150843	334.49
0.177055	337.72
0.201383	339.58
0.22709	342.22
0.251853	344.67
0.277701	346.63
0.30283	348.78
0.32883	349.07
0.353452	352.1
0.378145	353.27
0.404641	355.82
0.404722	357.29
0.430064	356.6
0.455334	359.44
0.480899	358.84
0.506463	362.47
0.530791	361.87
0.55751	365.89
0.582061	363.52
0.607626	365.28
0.607839	365.18
0.632319	366.25
0.658602	370.67
0.658825	370.57
0.682353	370.66
0.709731	374.87
0.709802	374.87
0.733552	373.19
0.759978	377.61
0.760201	377.69
0.784529	376.61
0.810448	382.81
0.810529	382.8
0.834786	381.02
0.85954	384.94
0.884962	385.91
0.910446	391.31
0.910527	391.33
0.936446	393.66
0.962517	411.7
0.962871	411.54
0.987118	424.02
1.00556	544.24
