Adsorption isotherm of Nitrogen on Zr-DTDC
DOI: 10.1039/c5ce00269a
Article source: Figure 3b- treated with 4MHCl
Adsorbate Nitrogen: InChIKey IJGRMHOSHXDMSA-UHFFFAOYSA-N
Kind: experiment
Temperature: 77 K
Tabular data in the source: 0
pressure (bar)	uptake (cm3(STP)/g)
0.022109	272.86
0.054391	284.44
0.080351	292.67
0.10632	299.24
0.129828	302.48
0.154136	306.1
0.182	306.29
0.205355	308.73
0.230899	310.2
0.254691	316.77
0.28066	315.39
0.30664	318.82
0.33725	324.01
0.365469	326.36
0.388693	328.9
0.433235	331.54
0.469874	333.79
0.495631	335.94
0.517832	337.31
0.544237	340.05
0.581737	338.89
0.634143	337.94
0.682819	339.51
0.734697	342.74
0.760383	342.73
0.783891	344.79
0.810874	353.71
0.835394	355.37
0.859479	359.78
0.886908	359.77
0.911793	365.36
0.937966	385.57
0.96046	383.21
1.00616	650.08
