Adsorption isotherm of Nitrogen on Zr-DTDC
DOI: 10.1039/c5ce00269a
Article source: Figure 3d- treated with 11NaOH
Adsorbate Nitrogen: InChIKey IJGRMHOSHXDMSA-UHFFFAOYSA-N
Kind: experiment
Temperature: 77 K
Tabular data in the source: 0
pressure (bar)	uptake (cm3(STP)/g)
0.000304	169.68
0.000507	209.62
0.000507	209.96
0.000517	210.24
0.006302	229.78
0.026466	242.86
0.049822	257.61
0.077534	273.63
0.100889	279.41
0.101112	279.43
0.126423	281.69
0.152109	284.83
0.177065	286.59
0.202964	290.12
0.22792	291.89
0.253383	294.14
0.279211	294.23
0.30359	296.19
0.329641	297.66
0.354597	298.44
0.380273	299.61
0.405746	300.79
0.430196	299.8
0.45653	302.44
0.481344	302.14
0.507314	303.63
0.507385	303.61
0.531764	304.19
0.558027	308.12
0.55824	308.14
0.582477	304.28
0.608163	308.81
0.608376	308.79
0.633768	306.23
0.659231	311.24
0.683751	308.38
0.709143	314.55
0.709873	314.47
0.734323	309.45
0.760292	313.37
0.760657	313.6
0.784742	311.89
0.810793	315.97
0.811299	315.92
0.835891	313.25
0.861212	316.29
0.861789	316.71
0.885884	315.3
0.91156	318.35
0.912361	320.9
0.936446	320.21
0.960531	324.23
0.962202	320.4
0.987159	325.21
1.00682	336.22
