Adsorption isotherm of Nitrogen on Zr-DTDC
DOI: 10.1039/c5ce00269a
Article source: Figure 3b- treated with 12NaOH
Adsorbate Nitrogen: InChIKey IJGRMHOSHXDMSA-UHFFFAOYSA-N
Kind: experiment
Temperature: 77 K
Tabular data in the source: 0
pressure (bar)	uptake (cm3(STP)/g)
0.001398	226.41
0.001834	229.92
0.00916	249.75
0.024835	260.35
0.050733	269.67
0.075112	276.53
0.101588	281.53
0.126261	286.24
0.151947	289.08
0.177481	293.88
0.202366	297.31
0.227687	298.97
0.254022	303.97
0.278188	304.16
0.303934	309.85
0.32882	309.84
0.354658	315.33
0.379533	313.36
0.405655	321.21
0.405807	321.22
0.430256	317.37
0.456084	317.66
0.457239	326.3
0.481111	322.26
0.50621	322.35
0.506574	322.72
0.530517	329.32
0.55751	328.94
0.557581	328.92
0.581595	334.51
0.608507	334.2
0.632673	338.22
0.657772	339
0.659302	346.46
0.683599	341.54
0.70813	351.16
0.70892	344.09
0.733522	346.64
0.759998	346.24
0.784884	350.84
0.808391	358.39
0.809769	352.8
0.834148	355.93
0.86027	362.99
0.886097	364.07
0.912361	372.89
0.936952	373.87
0.961331	396.34
0.962932	395.75
0.987524	422.45
1.00538	553.9
