Adsorption isotherm of Nitrogen on Zr-DTDC
DOI: 10.1039/c5ce00269a
Article source: Figure 3d- treated with boiling water
Adsorbate Nitrogen: InChIKey IJGRMHOSHXDMSA-UHFFFAOYSA-N
Kind: experiment
Temperature: 77 K
Tabular data in the source: 0
pressure (bar)	uptake (cm3(STP)/g)
0.00152	200.21
0.026973	259.99
0.050936	270.23
0.076359	279.08
0.099309	283.12
0.126028	287.45
0.15064	290.4
0.17591	293.65
0.2011	296.51
0.227464	299.26
0.253312	300.54
0.279444	302.71
0.303549	304.88
0.33035	305.67
0.355256	308.72
0.381823	311.18
0.404986	313.44
0.430763	313.74
0.457989	317.38
0.481952	315.41
0.506422	322.7
0.533142	320.63
0.55747	326.14
0.583966	323.98
0.606764	329.79
0.634862	325.85
0.659261	329.89
0.684602	330.38
0.709721	333.73
0.737089	334.81
0.761569	339.54
0.785593	338.06
0.810863	343.18
0.837005	344.95
0.86184	350.17
0.886016	351.84
0.912665	360.9
0.937064	362.37
0.961909	374.87
0.963297	393.07
0.987929	419.94
1.00796	607.18
