Adsorption isotherm of Nitrogen on Zr-DTDC
DOI: 10.1039/c5ce00269a
Article source: Figure 3b- treated with 1MHCl
Adsorbate Nitrogen: InChIKey IJGRMHOSHXDMSA-UHFFFAOYSA-N
Kind: experiment
Temperature: 77 K
Tabular data in the source: 0
pressure (bar)	uptake (cm3(STP)/g)
0.002989	178.1
0.004053	181.72
0.04891	287.45
0.101984	314.06
0.128308	318.87
0.152687	321.13
0.177714	322.21
0.203754	327.7
0.228934	327.12
0.254397	330.65
0.280072	331.83
0.332883	336.54
0.430834	336.74
0.481537	337.33
0.530659	339.49
0.580856	342.43
0.633383	345.57
0.684238	348.52
0.734079	351.76
0.761346	357.55
0.78689	353.62
0.835273	360.4
0.862762	364.03
0.88554	365.31
0.911803	370.61
0.936172	369.65
0.961118	380.91
0.987007	392.3
1.00542	465.54
