Adsorption isotherm of Nitrogen on Zr-DTDC
DOI: 10.1039/c5ce00269a
Article source: Figure 3b- treated with boiling water
Adsorbate Nitrogen: InChIKey IJGRMHOSHXDMSA-UHFFFAOYSA-N
Kind: experiment
Temperature: 77 K
Tabular data in the source: 0
pressure (bar)	uptake (cm3(STP)/g)
0.099238	278.92
0.126058	281.16
0.150498	282.41
0.17585	286.25
0.201292	286.64
0.227647	289.87
0.252178	292.97
0.278168	292.61
0.303154	293.74
0.328972	294.24
0.353685	295.62
0.405118	303.56
0.430196	304.31
0.455456	304.08
0.480534	303.84
0.506432	306.21
0.530416	307.46
0.55669	308.95
0.58039	308.59
0.606106	309.22
0.633109	309.24
0.657549	311.48
0.683447	312.36
0.709164	315.46
0.735893	317.58
0.759968	318.95
0.785046	324.03
0.809475	322.44
0.836114	323.93
0.860736	327.53
0.886543	329.28
0.910618	333.37
0.936334	339.45
0.961503	347.87
0.989317	380.3
