Adsorption isotherm of Nitrogen on Carbon
DOI: 10.1016/j.synthmet.2011.11.015
Adsorbate Nitrogen: InChIKey IJGRMHOSHXDMSA-UHFFFAOYSA-N
Temperature: 77 K
Tabular data in the source: 0
pressure (bar)	uptake (mmol/g)
0.0123058	104.294
0.0609306	109.442
0.100975	111.158
0.15961	114.019
0.245419	117.451
0.299764	120.025
0.34982	122.885
0.448499	126.318
0.498554	129.464
0.545749	132.324
0.642999	140.333
0.744539	150.344
0.821767	160.355
0.867531	166.648
0.920447	175.801
0.940469	180.949
0.970502	192.676
0.986233	203.259
