Adsorption isotherm of Nitrogen on Carbon
DOI: 10.1016/j.synthmet.2011.11.015
Adsorbate Nitrogen: InChIKey IJGRMHOSHXDMSA-UHFFFAOYSA-N
Temperature: 77 K
Tabular data in the source: 0
pressure (bar)	uptake (mmol/g)
0.0123058	58.5289
0.0595005	62.8194
0.0995445	64.5356
0.15675	65.6797
0.246849	67.9679
0.34982	71.9723
0.439919	73.6885
0.538598	77.9789
0.644429	83.4134
0.744539	91.4222
0.817476	98.0009
0.870392	102.577
0.920447	108.298
0.946189	110.872
0.971932	118.023
0.993384	125.46
