Adsorption isotherm of Nitrogen on Carbon
DOI: 10.1016/j.synthmet.2011.11.015
Adsorbate Nitrogen: InChIKey IJGRMHOSHXDMSA-UHFFFAOYSA-N
Temperature: 77 K
Tabular data in the source: 0
pressure (bar)	uptake (mmol/g)
0.00944547	13.6225
0.0609306	16.7688
0.0966842	17.9129
0.15675	19.343
0.242559	21.3452
0.34982	23.6335
0.447069	25.0636
0.542889	27.6379
0.642999	31.3562
0.744539	36.2187
0.813186	41.3672
0.864671	47.6599
0.891844	51.9503
0.920447	56.5267
0.943329	60.8172
0.970502	69.112
0.989093	75.4046
