Adsorption isotherm of Nitrogen on Carbon
DOI: 10.1016/j.synthmet.2011.11.015
Adsorbate Nitrogen: InChIKey IJGRMHOSHXDMSA-UHFFFAOYSA-N
Temperature: 77 K
Tabular data in the source: 0
pressure (bar)	uptake (mmol/g)
0.00944547	34.7886
0.0580703	39.079
0.0995445	41.9393
0.15818	44.5135
0.304055	50.5201
0.395584	54.8106
0.489974	59.6731
0.590084	65.9657
0.694484	75.1186
0.796024	87.1318
0.844649	93.1384
0.893274	100.575
0.919016	106.01
0.973362	127.748
0.989093	135.185
