Adsorption isotherm of Nitrogen on Carbon
DOI: 10.1016/j.synthmet.2011.11.015
Adsorbate Nitrogen: InChIKey IJGRMHOSHXDMSA-UHFFFAOYSA-N
Temperature: 77 K
Tabular data in the source: 0
pressure (bar)	uptake (mmol/g)
0.00801532	82.2693
0.0609306	86.2737
0.119566	89.134
0.178202	91.7083
0.294044	95.9987
0.402735	100.003
0.495694	104.58
0.594374	109.442
0.698774	116.879
0.788873	126.318
0.840359	131.752
0.893274	137.473
0.934748	143.479
0.964781	149.772
0.989093	159.497
