Adsorption isotherm of Nitrogen on CAU-9a
DOI: 10.1016/j.micromeso.2015.04.023
Article source: Figure 12
Adsorbate Nitrogen: InChIKey IJGRMHOSHXDMSA-UHFFFAOYSA-N
Kind: experiment
Temperature: 77 K
Tabular data in the source: 0
pressure (bar)	uptake (cm3(STP)/g)
0	0
0.000547	35.9621
0.001238	81.388
0.003146	56.7823
0.004067	117.35
0.004499	145.741
0.005507	211.987
0.007386	185.489
0.012498	221.451
0.019459	229.022
0.035549	236.593
0.058399	238.486
0.088181	246.057
0.104358	259.306
0.117934	251.735
0.122729	266.877
0.140784	253.628
0.150143	268.77
0.165917	255.521
0.172993	270.662
0.193358	259.306
0.195843	272.555
0.21852	263.091
0.220945	272.555
0.243651	264.984
0.24836	274.448
0.271066	266.877
0.27118	274.448
0.296197	268.77
0.300905	278.233
0.319047	270.662
0.323784	282.019
0.344207	274.448
0.348916	283.912
0.373875	274.448
0.373961	280.126
0.396725	276.341
0.396811	282.019
0.417407	285.804
0.421857	278.233
0.447017	282.019
0.449357	285.804
0.472149	283.912
0.499505	282.019
0.501874	287.697
0.524608	282.019
0.524724	289.59
0.549769	285.804
0.549855	291.483
0.57259	285.804
0.572647	289.59
0.597837	295.268
0.600032	289.59
0.622854	289.59
0.625222	295.268
0.650267	291.483
0.652607	295.268
0.675399	293.375
0.700618	300.946
0.702842	297.161
0.727974	299.054
0.732624	304.732
0.750853	302.839
0.760067	308.517
0.773703	304.732
0.785199	310.41
0.801116	306.625
0.814924	314.196
0.81943	310.41
0.835549	319.874
0.837745	314.196
0.869809	321.767
0.881363	331.23
0.890463	329.338
0.90895	344.479
0.920361	344.479
0.925098	355.836
0.934399	367.192
0.945695	359.621
0.945982	378.549
0.950748	391.798
0.952656	367.192
0.957767	403.155
0.961957	378.549
0.966694	389.905
0.969494	423.975
0.971373	397.476
0.974346	442.902
0.976139	410.726
0.980876	422.082
0.981394	456.151
0.98385	467.508
0.98567	437.224
0.988759	490.221
0.991358	511.041
0.992689	448.58
0.998608	537.539
0.999795	465.615
0.999997	478.864
1.00023	494.006
1.00138	569.716
1.00283	514.826
1.00762	529.968
1.00848	586.751
1.01013	545.11
1.01051	569.716
1.01322	598.107
1.01353	618.927
