Adsorption isotherm of Carbon Dioxide on CuBTC
DOI: 10.1260/0263-6174.33.2.223
Article source: Figure 10
Adsorbate Carbon Dioxide: InChIKey CURLTUGMZLYLDI-UHFFFAOYSA-N
Kind: experiment
Temperature: 298 K
Tabular data in the source: 0
pressure (bar)	uptake (mmol/g)
0.246693	1.21429
0.284303	1.43112
0.377599	1.82143
0.482473	2.34184
0.600774	2.81888
0.787697	3.64286
0.980837	4.33673
1.48207	5.85459
1.99398	7.06888
4.05362	9.84439
5.04755	10.5383
8.13512	11.7959
10.1298	12.3597
