Adsorption isotherm of Carbon Dioxide on CuBTC
DOI: 10.1260/0263-6174.33.2.223
Article source: Figure 8a
Adsorbate Carbon Dioxide: InChIKey CURLTUGMZLYLDI-UHFFFAOYSA-N
Kind: experiment
Temperature: 383 K
Tabular data in the source: 0
pressure (bar)	uptake (mmol/g)
0.275057	1.39925
0.299662	1.56241
0.362625	1.98709
0.456449	2.50983
0.559778	2.93431
0.741957	3.71933
0.919926	4.5053
1.40538	6.01158
1.8707	7.15818
3.7023	9.8772
4.59035	10.6632
7.36105	11.9057
9.26561	12.4285
