Adsorption isotherm of Carbon Dioxide on CuBTC
DOI: 10.1260/0263-6174.33.2.223
Article source: Figure 9c
Adsorbate Carbon Dioxide: InChIKey CURLTUGMZLYLDI-UHFFFAOYSA-N
Kind: experiment
Temperature: 298 K
Tabular data in the source: 0
pressure (bar)	uptake (mmol/g)
0.239473	1.23402
0.279225	1.35462
0.367605	1.87055
0.472349	2.30741
0.559843	2.78223
0.767566	3.61346
0.970641	4.36466
1.4551	5.94461
1.96338	7.09017
4.03607	9.77664
5.02232	10.6062
8.09541	11.8728
10.0714	12.3484
