Adsorption isotherm of Carbon Dioxide on CuBTC
DOI: 10.1260/0263-6174.33.2.223
Article source: Figure 8a
Adsorbate Carbon Dioxide: InChIKey CURLTUGMZLYLDI-UHFFFAOYSA-N
Kind: experiment
Temperature: 298 K
Tabular data in the source: 0
pressure (bar)	uptake (mmol/g)
0.257636	1.20293
0.366016	1.59243
0.461425	1.88502
0.605076	2.27567
0.75252	2.60132
0.947638	3.0583
1.42557	3.87439
1.90342	4.56067
3.79443	6.19466
4.74648	6.65174
7.63484	7.43399
9.4342	7.72686
