Adsorption isotherm of Carbon Dioxide on CuBTC
DOI: 10.1260/0263-6174.33.2.223
Article source: Figure 9a
Adsorbate Carbon Dioxide: InChIKey CURLTUGMZLYLDI-UHFFFAOYSA-N
Kind: experiment
Temperature: 298 K
Tabular data in the source: 0
pressure (bar)	uptake (mmol/g)
0.23643	1.22009
0.272889	1.45584
0.363542	1.96624
0.465393	2.43708
0.581709	3.10196
0.762699	3.80654
0.968633	4.62724
1.44268	6.18952
1.96842	7.4781
3.96841	10.3288
4.96023	11.1882
8.00044	12.5185
10	13.0278
