Adsorption isotherm of Carbon Dioxide on Cu-BTC-PF6-10%
DOI: 10.1260/0263-6174.33.2.223
Article source: Figure 9c
Adsorbate Carbon Dioxide: InChIKey CURLTUGMZLYLDI-UHFFFAOYSA-N
Kind: experiment
Temperature: 298 K
Tabular data in the source: 0
pressure (bar)	uptake (mmol/g)
0.235543	0.565194
0.274637	0.646468
0.364423	0.808602
0.464419	0.970047
0.559296	1.0912
0.760337	1.21442
0.976873	1.45466
1.45164	1.81535
1.97357	2.05655
3.95483	2.54034
4.95946	2.78016
7.92525	3.06344
10.0184	3.18542
