Adsorption isotherm of Carbon Dioxide on Cu-BTC-PF6-5%(exp)
DOI: 10.1260/0263-6174.33.2.223
Article source: Figure 14
Adsorbate Carbon Dioxide: InChIKey CURLTUGMZLYLDI-UHFFFAOYSA-N
Kind: experiment
Temperature: 298 K
Tabular data in the source: 0
pressure (bar)	uptake (mmol/g)
0.237745	1.23639
0.374685	1.88958
0.58017	2.77605
0.7878	3.63919
1.08851	4.68896
1.47779	5.87869
2.00625	7.09176
3.02471	8.7014
5.10921	10.5443
6.08503	11.0809
8.26354	11.7807
10.0161	12.2473
