Adsorption isotherm of Carbon Dioxide on CuBTC
DOI: 10.1260/0263-6174.33.2.223
Article source: Figure 8a
Adsorbate Carbon Dioxide: InChIKey CURLTUGMZLYLDI-UHFFFAOYSA-N
Kind: experiment
Temperature: 423 K
Tabular data in the source: 0
pressure (bar)	uptake (mmol/g)
0.232937	1.30299
0.274815	1.53077
0.365134	1.95411
0.456449	2.50983
0.578268	3.06535
0.74627	3.85075
0.931266	4.66951
1.40322	6.24174
1.86702	7.4541
3.66558	10.3705
4.57526	11.1564
9.1067	13.0205
