Adsorption isotherm of Carbon Dioxide on CuBTC
DOI: 10.1260/0263-6174.33.2.223
Article source: Figure 14
Adsorbate Carbon Dioxide: InChIKey CURLTUGMZLYLDI-UHFFFAOYSA-N
Kind: experiment
Temperature: 298 K
Tabular data in the source: 0
pressure (bar)	uptake (mmol/g)
0.244066	1.28305
0.28569	1.493
0.377969	1.93624
0.47861	2.47278
0.600766	3.00933
0.787715	3.82582
0.988614	4.61897
1.49046	6.25194
2.00571	7.55832
4.03393	10.4044
5.1074	11.1509
8.18793	12.5272
10.4597	12.9938
