Adsorption isotherm of Carbon Dioxide on Cu-BTC-Tf2N-5%
DOI: 10.1260/0263-6174.33.2.223
Article source: Figure 9a
Adsorbate Carbon Dioxide: InChIKey CURLTUGMZLYLDI-UHFFFAOYSA-N
Kind: experiment
Temperature: 298 K
Tabular data in the source: 0
pressure (bar)	uptake (mmol/g)
0.237609	1.08587
0.466623	2.09418
0.722139	3.14127
0.976462	4.07202
1.49921	5.46814
1.97948	6.5928
2.96766	8.18283
4.62932	9.73407
6.25968	10.6648
7.88047	11.2465
