Adsorption isotherm of Carbon Dioxide on Cu-BTC-PF6-5%
DOI: 10.1260/0263-6174.33.2.223
Article source: Figure 9a
Adsorbate Carbon Dioxide: InChIKey CURLTUGMZLYLDI-UHFFFAOYSA-N
Kind: experiment
Temperature: 298 K
Tabular data in the source: 0
pressure (bar)	uptake (mmol/g)
0.36772	1.8615
0.578188	2.86981
0.763412	3.60665
1.06558	4.7313
1.46392	5.89474
1.97948	7.01939
2.99131	8.72576
5.01187	10.5873
5.96846	11.0914
7.94328	11.8283
10.0798	12.2548
