Adsorption isotherm of Carbon Dioxide on CuBTC
DOI: 10.1260/0263-6174.33.2.223
Article source: Figure 8a
Adsorbate Carbon Dioxide: InChIKey CURLTUGMZLYLDI-UHFFFAOYSA-N
Kind: experiment
Temperature: 343 K
Tabular data in the source: 0
pressure (bar)	uptake (mmol/g)
0.313582	1.75902
0.360054	2.05294
0.456549	2.47695
0.601897	3.06478
0.752919	3.52186
0.946686	4.209
1.87811	6.56634
3.7243	8.98945
4.61864	9.74254
7.41455	10.8207
9.27697	11.2449
