Adsorption isotherm of Carbon Dioxide on Zn-MOF
DOI: 10.1007/s10450-011-9328-4
Adsorbate Carbon Dioxide: InChIKey CURLTUGMZLYLDI-UHFFFAOYSA-N
Temperature: 298 K
Tabular data in the source: 0
pressure (bar)	uptake (cm3(STP)/g)
0.669835	0.0408451
1.46289	0.0774648
1.82943	0.0901408
2.13462	0.102817
2.43999	0.114085
2.74518	0.126761
3.1119	0.138028
3.47861	0.149296
3.84533	0.160563
4.21205	0.171831
4.57876	0.183099
4.94565	0.192958
5.31236	0.204225
5.67925	0.214085
6.10749	0.223944
6.53573	0.233803
6.96414	0.242254
7.39238	0.252113
7.82062	0.261972
8.31038	0.270423
8.73879	0.278873
9.22855	0.287324
9.65679	0.297183
10.1465	0.305634
10.6363	0.314085
11.1262	0.321127
11.616	0.329577
12.1059	0.33662
12.6572	0.343662
13.147	0.352113
13.6369	0.359155
14.1882	0.366197
14.7395	0.373239
15.2294	0.380282
15.7809	0.385915
16.3322	0.392958
16.5772	0.395775
17.1287	0.401408
17.6799	0.408451
18.2314	0.414085
18.7829	0.419718
19.3343	0.425352
19.9471	0.430986
20.4986	0.43662
21.0502	0.440845
21.6017	0.446479
22.1533	0.450704
22.7047	0.456338
23.195	0.460563
23.7467	0.464789
24.3596	0.469014
24.9113	0.473239
25.7693	0.480282
