Adsorption isotherm of Methane on Zn-MOF
DOI: 10.1007/s10450-011-9328-4
Adsorbate Methane: InChIKey VNWKTOKETHGBQD-UHFFFAOYSA-N
Temperature: 273 K
Tabular data in the source: 0
pressure (bar)	uptake (cm3(STP)/g)
2.01624	0.0676056
3.11726	0.0943662
5.19831	0.133803
6.54523	0.156338
9.11691	0.197183
11.5671	0.228169
12.9761	0.24507
14.8753	0.266197
17.0198	0.288732
18.7357	0.304225
20.8807	0.322535
24.1289	0.349296
25.8452	0.361972
