Adsorption isotherm of Methane on Zn-MOF
DOI: 10.1007/s10450-011-9328-4
Adsorbate Methane: InChIKey VNWKTOKETHGBQD-UHFFFAOYSA-N
Temperature: 282 K
Tabular data in the source: 0
pressure (bar)	uptake (mmol/g)
0.427699	0.330789
0.916497	0.59542
1.89409	1.02545
3.05499	1.45547
5.13238	2.08397
6.47658	2.41476
9.10387	3.07634
11.6701	3.6056
13.0143	3.83715
14.8473	4.16794
17.0468	4.56489
18.7576	4.8626
20.9572	5.12723
24.2566	5.62341
25.9063	5.82188
