Adsorption isotherm of Carbon Dioxide on Zn-MOF
DOI: 10.1007/s10450-011-9328-4
Adsorbate Carbon Dioxide: InChIKey CURLTUGMZLYLDI-UHFFFAOYSA-N
Temperature: 318 K
Tabular data in the source: 0
pressure (bar)	uptake (cm3(STP)/g)
1.15942	0.0507042
1.5868	0.0676056
1.95369	0.0774648
2.32057	0.0873239
2.68729	0.0985915
3.35972	0.11831
3.72661	0.128169
4.15484	0.138028
4.58308	0.147887
5.31738	0.16338
5.74561	0.173239
6.17385	0.183099
6.84697	0.197183
7.27538	0.205634
7.76497	0.215493
8.25473	0.223944
8.74449	0.232394
8.98954	0.235211
9.41778	0.24507
9.90772	0.252113
10.3975	0.260563
10.8872	0.269014
11.377	0.277465
11.7446	0.28169
12.2345	0.288732
12.7243	0.297183
13.8267	0.312676
14.3166	0.319718
15.5415	0.33662
16.0928	0.343662
16.6443	0.349296
17.1344	0.35493
17.6243	0.361972
18.1756	0.369014
19.0333	0.378873
19.5847	0.384507
19.7684	0.387324
20.3199	0.392958
21.3001	0.404225
21.8516	0.409859
22.4028	0.416901
22.7092	0.419718
23.2607	0.425352
23.8121	0.430986
24.6088	0.438028
25.1603	0.443662
25.7119	0.447887
