Adsorption isotherm of Carbon Dioxide on Zn-MOF
DOI: 10.1007/s10450-011-9328-4
Adsorbate Carbon Dioxide: InChIKey CURLTUGMZLYLDI-UHFFFAOYSA-N
Temperature: 298 K
Tabular data in the source: 0
pressure (bar)	uptake (mmol/g)
0.916497	1.257
1.95519	2.15013
3.05499	3.01018
5.13238	4.2341
6.41548	4.96183
9.10387	6.21883
11.609	7.27735
12.9532	7.74046
14.9084	8.3028
17.0468	8.83206
18.7576	9.19593
21.0183	9.59288
24.1955	10.0891
25.8452	10.2875
