Adsorption isotherm of Carbon Dioxide on Zn-MOF
DOI: 10.1007/s10450-011-9328-4
Adsorbate Carbon Dioxide: InChIKey CURLTUGMZLYLDI-UHFFFAOYSA-N
Temperature: 308 K
Tabular data in the source: 0
pressure (bar)	uptake (mmol/g)
0.855397	1.0916
1.95519	1.85242
3.11609	2.61323
5.19348	3.73791
6.53768	4.39949
9.10387	5.49109
11.6701	6.48346
13.0143	6.94656
14.7862	7.50891
17.0468	8.10433
18.7576	8.46819
20.9572	8.89822
24.1955	9.49364
25.8452	9.65903
