Adsorption isotherm of Carbon Dioxide on Zn-MOF
DOI: 10.1007/s10450-011-9328-4
Adsorbate Carbon Dioxide: InChIKey CURLTUGMZLYLDI-UHFFFAOYSA-N
Temperature: 308 K
Tabular data in the source: 0
pressure (bar)	uptake (mmol/g)
0.916497	1.05852
1.89409	1.81934
2.26069	2.08397
2.62729	2.3486
2.87169	2.54707
3.29939	2.77863
3.72709	3.01018
4.09369	3.24173
4.58248	3.50636
5.01018	3.73791
5.43788	3.96947
5.86558	4.16794
6.35438	4.39949
6.78208	4.59796
7.27088	4.82952
7.75967	5.02799
8.18737	5.19338
8.67617	5.39186
9.16497	5.59033
9.65377	5.75573
10.4481	6.05344
11.0591	6.25191
11.5479	6.45038
12.2811	6.64885
12.831	6.81425
13.3198	6.97964
13.8697	7.11196
14.4196	7.27735
14.9695	7.44275
15.5193	7.57506
16.3136	7.80662
16.8635	7.93893
17.2301	8.03817
17.78	8.17048
18.0855	8.23664
18.6354	8.36896
19.1853	8.50127
19.4908	8.56743
20.0407	8.69975
20.6517	8.79898
21.2016	8.9313
21.7515	9.06361
22.3014	9.16285
22.8513	9.26209
23.4623	9.3944
24.0122	9.49364
24.501	9.59288
25.0509	9.69211
25.6619	9.79135
