Adsorption isotherm of Methane on Zn-MOF
DOI: 10.1007/s10450-011-9328-4
Adsorbate Methane: InChIKey VNWKTOKETHGBQD-UHFFFAOYSA-N
Temperature: 273 K
Tabular data in the source: 0
pressure (bar)	uptake (mmol/g)
0.916497	0.694656
0.977597	0.727735
1.83299	1.12468
2.26069	1.35623
2.74949	1.52163
3.05499	1.62087
3.54379	1.78626
4.03259	1.98473
4.52138	2.15013
5.07128	2.31552
5.56008	2.48092
6.10998	2.64631
6.65988	2.77863
7.20978	2.94402
7.75967	3.10941
8.06517	3.17557
8.61507	3.30789
9.16497	3.4402
9.71487	3.57252
10.3259	3.70483
10.8147	3.83715
11.3646	3.93639
11.9145	4.0687
12.2811	4.13486
12.831	4.2341
13.442	4.36641
14.1141	4.49873
14.664	4.59796
15.2138	4.6972
15.7637	4.79644
16.3747	4.89567
16.9246	4.99491
17.5356	5.09415
18.0855	5.19338
18.5132	5.25954
19.0631	5.35878
19.6741	5.42494
19.9796	5.49109
20.5906	5.55725
21.1405	5.65649
21.7515	5.72265
22.668	5.88804
23.279	5.9542
23.7678	6.05344
24.3788	6.08651
24.9287	6.18575
25.9063	6.31807
