Adsorption isotherm of Carbon Dioxide on Zn-MOF
DOI: 10.1007/s10450-011-9328-4
Adsorbate Carbon Dioxide: InChIKey CURLTUGMZLYLDI-UHFFFAOYSA-N
Temperature: 318 K
Tabular data in the source: 0
pressure (bar)	uptake (mmol/g)
1.89409	1.58779
3.05499	2.3486
5.19348	3.34097
6.47658	3.93639
9.04277	4.92875
11.609	5.85496
13.0143	6.25191
14.8473	6.81425
17.1079	7.37659
18.7576	7.83969
20.9572	8.26972
24.2566	8.9313
25.9063	9.26209
