Adsorption isotherm of Methane on Zn-MOF
DOI: 10.1007/s10450-011-9328-4
Adsorbate Methane: InChIKey VNWKTOKETHGBQD-UHFFFAOYSA-N
Temperature: 273 K
Tabular data in the source: 0
pressure (bar)	uptake (mmol/g)
0.916497	0.694656
1.89409	1.19084
3.05499	1.68702
5.19348	2.41476
6.47658	2.77863
9.10387	3.4402
11.609	4.03562
13.0143	4.26718
14.8473	4.66412
17.0468	5.02799
18.7576	5.29262
20.8961	5.65649
24.2566	6.15267
25.9063	6.31807
