Adsorption isotherm of Carbon Dioxide on Zn-MOF
DOI: 10.1007/s10450-011-9328-4
Adsorbate Carbon Dioxide: InChIKey CURLTUGMZLYLDI-UHFFFAOYSA-N
Temperature: 273 K
Tabular data in the source: 0
pressure (bar)	uptake (cm3(STP)/g)
2.55405	0.184507
2.79789	0.197183
3.10308	0.209859
3.34693	0.222535
3.71364	0.233803
4.01884	0.246479
4.3242	0.257746
4.69075	0.270423
5.05746	0.28169
5.42435	0.291549
5.79107	0.302817
6.21913	0.314085
6.64737	0.323944
7.01426	0.333803
7.4425	0.343662
7.93208	0.353521
8.36049	0.361972
8.85025	0.370423
9.34002	0.378873
9.82978	0.387324
10.3195	0.395775
10.8095	0.402817
11.2992	0.411268
11.8505	0.41831
12.3406	0.423944
12.8919	0.430986
14.1785	0.44507
14.73	0.450704
15.2816	0.45493
15.9556	0.461972
16.5072	0.466197
17.1202	0.470423
17.6716	0.476056
17.7942	0.477465
18.346	0.480282
18.9588	0.485915
19.5719	0.488732
20.4913	0.495775
21.1045	0.498592
21.9013	0.504225
22.5145	0.507042
23.5567	0.512676
24.1701	0.514085
24.7217	0.51831
25.335	0.519718
