Adsorption isotherm of Carbon Dioxide on Zn-MOF
DOI: 10.1007/s10450-011-9328-4
Adsorbate Carbon Dioxide: InChIKey CURLTUGMZLYLDI-UHFFFAOYSA-N
Temperature: 273 K
Tabular data in the source: 0
pressure (bar)	uptake (mmol/g)
0.244399	0.992366
0.488798	1.35623
0.733198	1.78626
0.916497	2.08397
1.95519	3.37405
3.05499	4.59796
5.13238	6.45038
6.41548	7.47583
9.16497	9.03053
11.6701	9.85751
13.0143	10.1883
14.9084	10.5191
17.1079	10.883
18.7576	11.1476
20.8961	11.4453
24.2566	11.8422
25.6008	11.9746
