Adsorption isotherm of Carbon Dioxide on Zn-MOF
DOI: 10.1007/s10450-011-9328-4
Adsorbate Carbon Dioxide: InChIKey CURLTUGMZLYLDI-UHFFFAOYSA-N
Temperature: 273 K
Tabular data in the source: 0
pressure (bar)	uptake (cm3(STP)/g)
0.363259	0.0394366
0.483539	0.0591549
0.788041	0.0774648
1.03188	0.0901408
2.00657	0.146479
3.10464	0.197183
5.11933	0.277465
6.46332	0.323944
9.03206	0.388732
11.6043	0.425352
12.891	0.438028
14.8522	0.45493
16.9975	0.470423
18.6526	0.48169
20.8598	0.492958
24.109	0.511268
25.5806	0.51831
