Adsorption isotherm of Carbon Dioxide on Zn-MOF
DOI: 10.1007/s10450-011-9328-4
Adsorbate Carbon Dioxide: InChIKey CURLTUGMZLYLDI-UHFFFAOYSA-N
Temperature: 282 K
Tabular data in the source: 0
pressure (bar)	uptake (mmol/g)
0.794297	1.38931
1.0387	1.68702
1.222	2.01781
1.4664	2.31552
1.71079	2.61323
1.95519	2.91094
2.13849	3.17557
2.44399	3.40712
2.74949	3.70483
2.81059	3.77099
3.11609	4.0687
3.48269	4.30025
3.78819	4.59796
4.15479	4.8626
4.46029	5.12723
4.82688	5.39186
5.19348	5.65649
5.62118	5.88804
5.98778	6.11959
6.35438	6.38422
6.78208	6.61578
7.20978	6.81425
7.69857	7.0458
8.12627	7.24427
8.55397	7.47583
9.04277	7.6743
9.53157	7.87277
10.0204	8.07125
10.5092	8.23664
10.998	8.40204
11.4868	8.56743
12.0367	8.7659
12.5866	8.89822
13.0754	9.06361
13.6253	9.22901
14.2974	9.3944
14.8473	9.52672
15.336	9.65903
15.947	9.79135
16.4969	9.92366
16.6802	9.95674
17.2301	10.056
17.8411	10.1552
18.391	10.2875
18.5132	10.3206
19.0631	10.4198
19.6741	10.5191
19.7963	10.5522
20.3462	10.6514
20.9572	10.7176
21.5071	10.8168
22.3014	10.9491
22.9124	11.0153
23.4012	11.1145
24.0122	11.1807
24.5621	11.2468
25.1731	11.3461
25.7841	11.4122
