Adsorption isotherm of Methane on Zn-MOF
DOI: 10.1007/s10450-011-9328-4
Adsorbate Methane: InChIKey VNWKTOKETHGBQD-UHFFFAOYSA-N
Temperature: 298 K
Tabular data in the source: 0
pressure (bar)	uptake (cm3(STP)/g)
1.34503	0.0380282
2.32386	0.0605634
3.0585	0.0732394
3.48725	0.0788732
3.97702	0.0873239
4.46678	0.0957746
4.89519	0.104225
5.38547	0.108451
5.75253	0.116901
6.24246	0.123944
6.73274	0.128169
7.2225	0.13662
7.71243	0.143662
8.26372	0.150704
8.815	0.157746
9.30528	0.161972
9.73386	0.169014
10.2853	0.174648
10.8366	0.18169
11.3881	0.187324
11.8783	0.191549
12.6132	0.202817
13.5324	0.211268
14.2062	0.219718
15.1867	0.228169
15.9832	0.23662
16.5349	0.240845
17.0863	0.246479
17.638	0.250704
18.1894	0.256338
18.6795	0.261972
19.2311	0.266197
20.5181	0.277465
21.0699	0.280282
21.56	0.285915
21.7439	0.287324
22.2953	0.292958
22.7244	0.295775
23.2761	0.3
24.5632	0.309859
25.5438	0.31831
