Adsorption isotherm of Methane on Zn-MOF
DOI: 10.1007/s10450-011-9328-4
Adsorbate Methane: InChIKey VNWKTOKETHGBQD-UHFFFAOYSA-N
Temperature: 298 K
Tabular data in the source: 0
pressure (bar)	uptake (mmol/g)
1.83299	0.793893
2.19959	0.992366
2.74949	1.15776
3.78819	1.42239
4.33809	1.55471
4.88798	1.7201
5.43788	1.78626
5.98778	1.98473
6.47658	2.11705
7.02648	2.21628
7.57637	2.3486
8.12627	2.48092
8.49287	2.54707
8.98167	2.67939
9.59267	2.74555
10.1426	2.87786
10.6925	2.9771
11.2424	3.07634
11.8534	3.14249
12.3422	3.27481
12.831	3.40712
13.3809	3.47328
13.8697	3.53944
14.4196	3.63868
15.0305	3.70483
15.5804	3.80407
16.1914	3.90331
16.3136	3.93639
16.8635	4.03562
17.4134	4.10178
17.5967	4.13486
18.2077	4.20102
18.6965	4.33333
19.3075	4.36641
19.8574	4.46565
21.446	4.6972
22.057	4.76336
23.0346	4.89567
23.6456	4.96183
24.1955	5.06107
24.8065	5.09415
25.3564	5.19338
25.9674	5.25954
