Adsorption isotherm of Carbon Dioxide on Zn-MOF
DOI: 10.1007/s10450-011-9328-4
Adsorbate Carbon Dioxide: InChIKey CURLTUGMZLYLDI-UHFFFAOYSA-N
Temperature: 308 K
Tabular data in the source: 0
pressure (bar)	uptake (cm3(STP)/g)
0.975201	0.0521127
2.01365	0.0887324
3.2365	0.122535
5.19312	0.176056
6.47784	0.205634
9.10931	0.259155
11.6191	0.304225
12.9662	0.325352
14.8034	0.352113
17.0084	0.38169
18.7241	0.398592
20.9303	0.41831
24.1782	0.447887
25.7722	0.456338
