Adsorption isotherm of Methane on Zn-MOF
DOI: 10.1007/s10450-011-9328-4
Adsorbate Methane: InChIKey VNWKTOKETHGBQD-UHFFFAOYSA-N
Temperature: 273 K
Tabular data in the source: 0
pressure (bar)	uptake (cm3(STP)/g)
1.34382	0.0478873
1.77188	0.0591549
2.26095	0.0732394
2.68919	0.0830986
3.11743	0.0929577
3.54584	0.101408
3.97408	0.111268
4.46367	0.121127
4.95343	0.129577
5.38201	0.13662
5.8716	0.146479
6.36153	0.153521
6.85129	0.161972
7.4024	0.170423
7.89216	0.178873
8.3821	0.185915
8.93338	0.192958
9.42331	0.2
9.9746	0.207042
10.4645	0.214085
11.0772	0.221127
11.6286	0.226761
12.1184	0.235211
12.3023	0.23662
12.8537	0.242254
13.3438	0.247887
13.8951	0.25493
15.2431	0.269014
15.7945	0.274648
16.3462	0.278873
16.8976	0.284507
17.3877	0.290141
17.9392	0.295775
18.4908	0.3
19.0423	0.305634
19.5937	0.311268
20.2067	0.315493
20.7583	0.319718
21.3098	0.325352
21.8001	0.329577
22.3517	0.333803
22.9647	0.338028
23.5161	0.343662
24.1293	0.346479
24.6194	0.352113
25.171	0.356338
25.784	0.360563
