Adsorption isotherm of Carbon Dioxide on Zn-MOF
DOI: 10.1007/s10450-011-9328-4
Adsorbate Carbon Dioxide: InChIKey CURLTUGMZLYLDI-UHFFFAOYSA-N
Temperature: 298 K
Tabular data in the source: 0
pressure (bar)	uptake (cm3(STP)/g)
0.974164	0.0605634
2.01262	0.0971831
3.17342	0.13662
5.12935	0.195775
6.41389	0.226761
9.0445	0.287324
11.6155	0.333803
12.9011	0.356338
14.7996	0.383099
17.0666	0.407042
18.7212	0.422535
20.9273	0.442254
24.1761	0.464789
25.7702	0.473239
