Adsorption isotherm of Carbon Dioxide on Zn-MOF
DOI: 10.1007/s10450-011-9328-4
Adsorbate Carbon Dioxide: InChIKey CURLTUGMZLYLDI-UHFFFAOYSA-N
Temperature: 318 K
Tabular data in the source: 0
pressure (bar)	uptake (cm3(STP)/g)
0.975719	0.0478873
1.95351	0.0788732
3.17653	0.111268
9.1119	0.238028
11.6221	0.280282
13.0307	0.3
14.8675	0.329577
16.9501	0.356338
18.6653	0.377465
20.9325	0.4
24.1187	0.432394
25.7733	0.447887
