Adsorption isotherm of Carbon Dioxide on Zn-MOF
DOI: 10.1007/s10450-011-9328-4
Adsorbate Carbon Dioxide: InChIKey CURLTUGMZLYLDI-UHFFFAOYSA-N
Temperature: 282 K
Tabular data in the source: 0
pressure (bar)	uptake (cm3(STP)/g)
0.607276	0.0507042
0.789424	0.0661972
1.03344	0.0774648
1.94816	0.122535
3.16927	0.170423
5.12434	0.23662
6.4692	0.276056
9.09894	0.343662
11.6089	0.387324
12.9564	0.405634
17.0006	0.44507
18.717	0.456338
20.8625	0.470423
24.2345	0.488732
25.8284	0.498592
