Adsorption isotherm of Carbon Dioxide on Zn-MOF
DOI: 10.1007/s10450-011-9328-4
Adsorbate Carbon Dioxide: InChIKey CURLTUGMZLYLDI-UHFFFAOYSA-N
Temperature: 282 K
Tabular data in the source: 0
pressure (bar)	uptake (cm3(STP)/g)
0.789424	0.0661972
1.27728	0.0901408
1.58196	0.107042
1.8258	0.119718
2.13099	0.132394
2.25266	0.140845
2.55785	0.153521
2.80169	0.166197
3.10706	0.177465
3.29007	0.185915
3.65679	0.197183
3.96198	0.209859
4.3287	0.221127
4.63406	0.232394
5.06213	0.243662
5.42884	0.25493
5.85708	0.264789
6.2238	0.276056
6.59069	0.285915
7.01892	0.295775
7.50868	0.304225
7.93692	0.314085
8.36533	0.322535
8.79374	0.330986
9.2835	0.339437
9.71192	0.347887
10.2017	0.356338
10.7528	0.364789
11.2425	0.373239
11.7325	0.380282
12.2224	0.387324
12.7737	0.394366
13.2636	0.401408
13.8149	0.408451
14.3664	0.414085
14.7951	0.419718
15.3466	0.425352
15.898	0.430986
16.3881	0.43662
16.9396	0.442254
17.4299	0.446479
17.9815	0.450704
18.2266	0.453521
18.778	0.459155
19.2071	0.461972
19.7587	0.466197
20.0038	0.469014
20.5556	0.471831
21.1684	0.477465
21.72	0.48169
22.333	0.485915
22.8848	0.488732
23.4978	0.492958
23.6203	0.494366
24.2335	0.497183
24.7851	0.501408
24.969	0.502817
25.5823	0.504225
