Adsorption isotherm of Carbon Dioxide on Zn-MOF
DOI: 10.1007/s10450-011-9328-4
Adsorbate Carbon Dioxide: InChIKey CURLTUGMZLYLDI-UHFFFAOYSA-N
Temperature: 308 K
Tabular data in the source: 0
pressure (bar)	uptake (cm3(STP)/g)
1.28091	0.0605634
1.58628	0.071831
2.01383	0.0873239
2.31919	0.0985915
2.68573	0.111268
3.05245	0.122535
3.41917	0.133803
3.78605	0.143662
4.21412	0.15493
4.58101	0.164789
5.00925	0.174648
5.37613	0.184507
5.80437	0.194366
6.23261	0.204225
6.66085	0.214085
7.15061	0.222535
7.57902	0.230986
8.00726	0.240845
8.49702	0.249296
8.92543	0.257746
9.41502	0.267606
9.90495	0.274648
10.3947	0.283099
10.8845	0.291549
11.3744	0.298592
11.8642	0.307042
12.3541	0.314085
12.9054	0.321127
13.3951	0.329577
13.8851	0.33662
14.4364	0.343662
14.5589	0.34507
15.0488	0.352113
15.6001	0.359155
16.1514	0.366197
16.3964	0.369014
16.9479	0.374648
17.4992	0.38169
17.8054	0.385915
18.3569	0.391549
18.9081	0.398592
19.3371	0.402817
19.8885	0.408451
20.1336	0.411268
20.685	0.416901
21.114	0.421127
21.788	0.428169
22.3394	0.433803
22.8297	0.438028
23.3811	0.443662
23.7489	0.446479
24.3005	0.450704
24.852	0.456338
25.71	0.46338
