Adsorption isotherm of Methane on Zn-MOF
DOI: 10.1007/s10450-011-9328-4
Adsorbate Methane: InChIKey VNWKTOKETHGBQD-UHFFFAOYSA-N
Temperature: 282 K
Tabular data in the source: 0
pressure (bar)	uptake (cm3(STP)/g)
0.977275	0.0352113
1.7114	0.0521127
2.07846	0.0605634
2.5067	0.0704225
3.05746	0.0816901
3.54722	0.0901408
3.97563	0.0985915
4.46539	0.107042
4.8938	0.115493
5.44491	0.123944
5.8735	0.130986
6.42461	0.139437
6.91437	0.147887
7.4043	0.15493
7.95559	0.161972
8.44552	0.169014
8.93545	0.176056
9.48674	0.183099
10.038	0.190141
10.5281	0.195775
11.0794	0.202817
11.6307	0.209859
12.1821	0.215493
12.4884	0.219718
13.0398	0.225352
13.4074	0.229577
13.9589	0.235211
14.5102	0.242254
15.0618	0.246479
15.5519	0.252113
16.1033	0.257746
16.655	0.261972
17.2064	0.267606
17.8192	0.273239
18.3707	0.278873
18.9221	0.284507
19.106	0.285915
19.6577	0.290141
20.2705	0.295775
20.8221	0.3
21.3737	0.304225
21.9252	0.309859
22.5381	0.314085
23.0896	0.319718
23.6412	0.323944
24.2542	0.328169
24.8058	0.332394
25.4188	0.33662
25.7252	0.339437
