Adsorption isotherm of Carbon Dioxide on Zn-MOF
DOI: 10.1007/s10450-011-9328-4
Adsorbate Carbon Dioxide: InChIKey CURLTUGMZLYLDI-UHFFFAOYSA-N
Temperature: 273 K
Tabular data in the source: 0
pressure (bar)	uptake (mmol/g)
0.427699	1.05852
0.733198	1.62087
0.916497	1.91858
1.0998	2.24936
1.2831	2.54707
1.77189	3.27481
2.01629	3.57252
2.19959	3.90331
2.44399	4.20102
2.74949	4.49873
2.81059	4.59796
3.11609	4.89567
3.42159	5.16031
3.72709	5.42494
4.03259	5.72265
4.33809	6.02036
4.70468	6.28499
5.07128	6.54962
5.37678	6.81425
5.80448	7.0458
6.17108	7.31043
6.59878	7.54198
6.96538	7.77354
7.39308	8.00509
7.88187	8.23664
8.30957	8.43511
8.79837	8.63359
9.28717	8.83206
9.77597	9.03053
10.2648	9.22901
10.7536	9.3944
11.3035	9.5598
11.7923	9.72519
12.7088	9.95674
13.2587	10.0891
13.8086	10.2545
14.2974	10.3537
14.8473	10.4529
15.2138	10.5522
15.7637	10.6514
16.1914	10.7506
16.7413	10.8499
17.1079	10.916
17.6578	11.0153
18.2688	11.1145
18.8187	11.1807
19.4297	11.2799
19.7963	11.3461
20.3462	11.4122
20.9572	11.5115
21.5682	11.5776
22.1181	11.6438
22.3014	11.6768
22.9124	11.7099
23.4623	11.8092
24.0733	11.8753
24.3788	11.9084
24.9898	11.9415
25.5397	12.0076
