Adsorption isotherm of Carbon Dioxide on Zn-MOF
DOI: 10.1007/s10450-011-9328-4
Adsorbate Carbon Dioxide: InChIKey CURLTUGMZLYLDI-UHFFFAOYSA-N
Temperature: 318 K
Tabular data in the source: 0
pressure (bar)	uptake (mmol/g)
0.977597	1.02545
1.58859	1.42239
2.19959	1.81934
2.62729	2.05089
3.29939	2.44784
3.72709	2.64631
4.21589	2.91094
4.64358	3.10941
5.37678	3.4402
5.80448	3.67176
6.65988	4.00254
7.14868	4.20102
7.57637	4.39949
8.06517	4.56489
8.55397	4.76336
9.22607	4.96183
9.65377	5.16031
10.2037	5.3257
10.6925	5.52417
11.2424	5.68957
13.3198	6.31807
13.8697	6.48346
15.2138	6.84733
15.7637	7.01272
17.4134	7.44275
17.9633	7.57506
18.8798	7.80662
19.4297	7.93893
19.9185	8.03817
20.4684	8.17048
21.2627	8.33588
21.8126	8.46819
22.2403	8.56743
22.7902	8.66667
23.4012	8.79898
25.112	9.16285
25.6619	9.26209
