Adsorption isotherm of Methane on Zn-MOF
DOI: 10.1007/s10450-011-9328-4
Adsorbate Methane: InChIKey VNWKTOKETHGBQD-UHFFFAOYSA-N
Temperature: 282 K
Tabular data in the source: 0
pressure (bar)	uptake (cm3(STP)/g)
0.732913	0.0267606
0.977448	0.0338028
1.9561	0.0577465
3.11864	0.0830986
5.19986	0.121127
6.48579	0.140845
9.11916	0.178873
11.6307	0.209859
12.9787	0.223944
14.8779	0.24507
17.0224	0.267606
18.6771	0.28169
20.8833	0.301408
24.1929	0.328169
25.8477	0.340845
