Adsorption isotherm of Methane on Zn-MOF
DOI: 10.1007/s10450-011-9328-4
Adsorbate Methane: InChIKey VNWKTOKETHGBQD-UHFFFAOYSA-N
Temperature: 298 K
Tabular data in the source: 0
pressure (bar)	uptake (cm3(STP)/g)
0.794435	0.0253521
1.03914	0.0309859
1.9568	0.0521127
3.18102	0.0746479
5.20142	0.108451
6.48734	0.128169
9.12123	0.161972
11.6331	0.190141
13.0423	0.205634
14.8803	0.225352
17.0863	0.246479
18.741	0.260563
20.9472	0.280282
24.1341	0.307042
25.789	0.319718
