Adsorption isotherm of Methane on Zn-MOF
DOI: 10.1007/s10450-011-9328-4
Adsorbate Methane: InChIKey VNWKTOKETHGBQD-UHFFFAOYSA-N
Temperature: 298 K
Tabular data in the source: 0
pressure (bar)	uptake (mmol/g)
0.916497	0.496183
1.95519	0.89313
3.11609	1.257
5.19348	1.78626
6.47658	2.08397
9.10387	2.67939
11.6701	3.14249
13.0143	3.40712
14.8473	3.70483
17.1079	4.0687
18.7576	4.26718
20.8961	4.59796
24.1955	4.99491
25.8452	5.25954
