Adsorption isotherm of Carbon Dioxide on Zn-MOF
DOI: 10.1007/s10450-011-9328-4
Adsorbate Carbon Dioxide: InChIKey CURLTUGMZLYLDI-UHFFFAOYSA-N
Temperature: 298 K
Tabular data in the source: 0
pressure (bar)	uptake (mmol/g)
0.977597	1.257
1.4664	1.68702
1.77189	1.95165
2.07739	2.24936
2.44399	2.51399
2.81059	2.8117
3.17719	3.07634
3.54379	3.30789
3.91039	3.57252
4.27699	3.80407
4.70468	4.0687
5.07128	4.30025
5.49898	4.53181
5.92668	4.76336
6.35438	4.99491
6.78208	5.22646
7.20978	5.45802
7.69857	5.65649
8.12627	5.85496
8.61507	6.08651
9.10387	6.25191
9.59267	6.45038
10.0815	6.64885
10.5703	6.81425
11.0591	7.01272
11.5479	7.17812
12.0978	7.34351
12.5866	7.50891
13.1365	7.64122
13.6253	7.83969
14.3585	8.03817
14.8473	8.17048
15.3971	8.33588
15.5804	8.36896
16.1303	8.50127
16.4969	8.60051
17.0468	8.69975
17.5967	8.86514
18.0855	8.96438
18.6354	9.09669
19.2464	9.19593
19.7963	9.32824
20.0407	9.3944
20.5906	9.49364
21.2016	9.59288
22.1181	9.79135
22.668	9.89059
23.0957	9.95674
23.6456	10.056
24.2566	10.1552
24.8065	10.2545
25.8452	10.3868
