Adsorption isotherm of Carbon Dioxide on Zn-MOF
DOI: 10.1007/s10450-011-9328-4
Adsorbate Carbon Dioxide: InChIKey CURLTUGMZLYLDI-UHFFFAOYSA-N
Temperature: 282 K
Tabular data in the source: 0
pressure (bar)	uptake (mmol/g)
0.488798	1.12468
0.916497	1.75318
1.83299	2.8117
3.05499	3.83715
5.19348	5.3257
6.47658	6.25191
9.16497	7.77354
11.609	8.83206
13.0143	9.19593
14.7862	9.62595
17.0468	10.0891
18.8187	10.3868
20.9572	10.6845
24.2566	11.0814
25.9063	11.2799
