Adsorption isotherm of Methane on Zn-MOF
DOI: 10.1007/s10450-011-9328-4
Adsorbate Methane: InChIKey VNWKTOKETHGBQD-UHFFFAOYSA-N
Temperature: 282 K
Tabular data in the source: 0
pressure (bar)	uptake (mmol/g)
1.0387	0.661578
1.95519	1.02545
2.44399	1.22392
3.29939	1.52163
3.84929	1.65394
4.33809	1.81934
4.88798	1.98473
5.43788	2.15013
5.98778	2.28244
6.47658	2.44784
6.90428	2.54707
7.45418	2.67939
8.00407	2.8117
8.67617	2.9771
9.22607	3.07634
9.59267	3.17557
10.1426	3.27481
10.7536	3.40712
11.3646	3.53944
11.9145	3.63868
12.5255	3.73791
13.0754	3.87023
13.442	3.93639
14.053	4.03562
14.5418	4.13486
15.0916	4.2341
15.7026	4.33333
16.2525	4.43257
16.8024	4.53181
17.3523	4.63104
17.8411	4.6972
18.4521	4.76336
19.002	4.8626
20.224	5.06107
20.835	5.12723
21.3849	5.22646
21.5682	5.25954
22.1792	5.3257
22.7291	5.39186
23.279	5.49109
23.89	5.55725
24.4399	5.62341
24.8065	5.68957
25.4175	5.75573
25.7841	5.82188
