Adsorption isotherm of Phosphate Ion, Water on magnetic zirconium-iron oxide nanoparticles (MZION), S4
DOI: 10.1016/j.apsusc.2016.11.214
Article source: Figure 8
Adsorbate Phosphate Ion: InChIKey NBIIXXVUZAFLBC-UHFFFAOYSA-K
Adsorbate Water: InChIKey XLYOFNOQVPJJNP-UHFFFAOYSA-N
Kind: experiment
Temperature: 298 K
Tabular data in the source: 0
pressure (bar)	Phosphate Ion fraction	Phosphate Ion uptake (mg/g)	Water fraction	Water uptake (mg/g)	total uptake (mg/g)
1.01325	0.05947	2.44107			
1.01325	0.372821	4.86217			
1.01325	7.96159	8.46603			
1.01325	25.8702	10.9461			
1.01325	56.4807	11.8198			
1.01325	129.152	11.3548			
1.01325	183.654	12.2039			
1.01325	269.34	11.6689			
1.01325	371.535	11.6705			
