Adsorption isotherm of Phosphate Ion, Water on magnetic zirconium-iron oxide nanoparticles (MZION), S2
DOI: 10.1016/j.apsusc.2016.11.214
Article source: Figure 8
Adsorbate Phosphate Ion: InChIKey NBIIXXVUZAFLBC-UHFFFAOYSA-K
Adsorbate Water: InChIKey XLYOFNOQVPJJNP-UHFFFAOYSA-N
Kind: experiment
Temperature: 298 K
Tabular data in the source: 0
pressure (bar)	Phosphate Ion fraction	Phosphate Ion uptake (mg/g)	Water fraction	Water uptake (mg/g)	total uptake (mg/g)
1.01325	0.012001	2.50058			
1.01325	0.170726	4.9488			
1.01325	1.19124	9.81341			
1.01325	8.58223	13.2761			
1.01325	23.5668	16.2619			
1.01325	69.8876	18.2058			
1.01325	132.954	18.3751			
1.01325	186.209	18.8804			
1.01325	290.335	18.7992			
