Adsorption isotherm of Nitrogen on magnetic zirconium-iron oxide nanoparticles (MZION), S4
DOI: 10.1016/j.apsusc.2016.11.214
Article source: Figure 5
Adsorbate Nitrogen: InChIKey IJGRMHOSHXDMSA-UHFFFAOYSA-N
Kind: experiment
Temperature: 77 K
Tabular data in the source: 0
pressure (bar)	uptake (cm3(STP)/g)
0.048118	10.97
0.048483	1.83
0.048828	8.03
0.048828	5.42
0.049	13.52
0.049182	15.8
0.052212	18.54
0.058088	20.89
0.067714	23.18
0.084463	25.6
0.098719	27.1
0.107453	28.21
0.121892	28.99
0.132764	29.19
0.143635	30.43
0.15932	30.63
0.193537	33.31
0.205655	33.57
0.225616	34.62
0.238454	34.75
0.25734	36.19
0.268394	37.63
0.290848	37.5
0.299045	38.68
0.325784	38.94
0.336473	39.6
0.358217	40.64
0.369626	42.34
0.400996	43.65
0.435567	45.61
0.469794	47.84
0.502359	49.64
0.536029	51.51
0.569415	52.55
0.57365	54.73
0.598272	55.15
0.607604	55.98
0.635336	58.16
0.660788	60.33
0.673808	60.85
0.697568	63.24
0.707468	65.42
0.729252	69.88
0.732656	65.73
0.770561	69.47
0.77197	74.85
0.802813	74.86
0.812995	81.39
0.83711	79.66
0.839795	88.37
0.868987	87.23
0.877062	102.19
0.902666	95.62
0.908036	115.19
0.93814	110.1
0.940358	133.12
0.971789	145.79
0.980341	130
1.00323	151.06
