Adsorption isotherm of Nitrogen on magnetic zirconium-iron oxide nanoparticles (MZION), S3
DOI: 10.1016/j.apsusc.2016.11.214
Article source: Figure 5
Adsorbate Nitrogen: InChIKey IJGRMHOSHXDMSA-UHFFFAOYSA-N
Kind: experiment
Temperature: 77 K
Tabular data in the source: 0
pressure (bar)	uptake (cm3(STP)/g)
0.044815	10.33
0.044998	16.38
0.045869	13.2
0.046213	1.8
0.046213	7.4
0.046406	18.8
0.04674	4.41
0.048159	21.03
0.056234	25.55
0.0666	29.44
0.084321	31.16
0.097837	32.82
0.109419	34.6
0.122054	35.37
0.134516	36.39
0.143281	36.77
0.161185	37.92
0.194469	39.35
0.203943	41.57
0.229568	41.98
0.234026	42.79
0.264666	44.21
0.29865	46.44
0.332086	49.68
0.364955	50.29
0.399496	52.92
0.437381	55.55
0.466349	57.17
0.50089	60.21
0.537103	63.04
0.566071	63.65
0.573873	66.69
0.601727	65.88
0.611768	70.33
0.636825	68.11
0.644637	72.36
0.672491	71.75
0.679178	75.8
0.703131	73.58
0.708146	78.63
0.732059	82.61
0.739131	78.44
0.768322	81.81
0.774513	88.55
0.805467	86.47
0.810341	94.49
0.834213	93.37
0.839968	99.79
0.868713	98.67
0.874914	112.31
0.904095	108.79
0.912961	126.6
0.934624	123.39
0.947026	145.22
0.972235	153.09
