Adsorption isotherm of Nitrogen on magnetic zirconium-iron oxide nanoparticles (MZION), S2
DOI: 10.1016/j.apsusc.2016.11.214
Article source: Figure 5
Adsorbate Nitrogen: InChIKey IJGRMHOSHXDMSA-UHFFFAOYSA-N
Kind: experiment
Temperature: 77 K
Tabular data in the source: 0
pressure (bar)	uptake (cm3(STP)/g)
0.046669	21.437
0.048676	1.513
0.048696	15.467
0.048706	26.76
0.048909	7.34
0.049618	29.997
0.053681	32.371
0.05976	34.242
0.068788	37.983
0.082315	41.941
0.094048	44.029
0.108243	45.901
0.127414	48.853
0.134172	49.717
0.144324	51.373
0.161002	52.814
0.168895	54.182
0.190092	55.911
0.22819	60.088
0.259306	62.394
0.292986	66.437
0.328053	69.981
0.363486	72.156
0.399983	75.244
0.431119	78.217
0.462256	82.903
0.462975	80.962
0.49554	86.105
0.498043	82.566
0.527751	91.019
0.537407	86.682
0.565757	91.416
0.571401	88.97
0.597005	96.858
0.606651	91.966
0.628821	98.132
0.638467	95.233
0.665337	102.085
0.67164	98.202
0.697801	104.68
0.705005	100.653
0.733427	108.569
0.738827	104.11
0.766792	112.889
0.772193	106.992
0.801516	117.498
0.804657	110.737
0.840738	116.209
0.842997	123.258
0.875005	122.975
0.875917	131.175
0.901633	138.947
0.905676	129.884
0.940409	141.11
0.944482	154.345
0.972903	164.275
