Adsorption isotherm of Phosphate Ion, Water on magnetic zirconium-iron oxide nanoparticles (MZION), S1
DOI: 10.1016/j.apsusc.2016.11.214
Article source: Figure 8
Adsorbate Phosphate Ion: InChIKey NBIIXXVUZAFLBC-UHFFFAOYSA-K
Adsorbate Water: InChIKey XLYOFNOQVPJJNP-UHFFFAOYSA-N
Kind: experiment
Temperature: 298 K
Tabular data in the source: 0
pressure (bar)	Phosphate Ion fraction	Phosphate Ion uptake (mg/g)	Water fraction	Water uptake (mg/g)	total uptake (mg/g)
1.01325	0.003073	2.51304			
1.01325	0.0831	5.01753			
1.01325	2.03095	9.55983			
1.01325	10.3586	13.0653			
1.01325	29.3495	15.406			
1.01325	62.2587	18.7923			
1.01325	118.823	19.6137			
1.01325	192.442	20.354			
1.01325	269.712	21.6661			
