Adsorption isotherm of Phosphate Ion, Water on magnetic zirconium-iron oxide nanoparticles (MZION), S3
DOI: 10.1016/j.apsusc.2016.11.214
Article source: Figure 8
Adsorbate Phosphate Ion: InChIKey NBIIXXVUZAFLBC-UHFFFAOYSA-K
Adsorbate Water: InChIKey XLYOFNOQVPJJNP-UHFFFAOYSA-N
Kind: experiment
Temperature: 298 K
Tabular data in the source: 0
pressure (bar)	Phosphate Ion fraction	Phosphate Ion uptake (mg/g)	Water fraction	Water uptake (mg/g)	total uptake (mg/g)
1.01325	0.016425	2.49528			
1.01325	0.228349	5.01672			
1.01325	5.77165	8.77526			
1.01325	20.8737	11.2954			
1.01325	46.2701	13.2853			
1.01325	109.069	13.9015			
1.01325	162.368	14.4784			
1.01325	261.096	14.0955			
1.01325	349.14	15.2862			
