Adsorption isotherm of Nitrogen on magnetic zirconium-iron oxide nanoparticles (MZION), S1
DOI: 10.1016/j.apsusc.2016.11.214
Article source: Figure 5
Adsorbate Nitrogen: InChIKey IJGRMHOSHXDMSA-UHFFFAOYSA-N
Kind: experiment
Temperature: 77 K
Tabular data in the source: 0
pressure (bar)	uptake (cm3(STP)/g)
0.043873	16.28
0.044663	9.935
0.045595	25.072
0.045616	28.063
0.046061	13.017
0.046112	19.362
0.046132	21.9
0.046193	30.601
0.046517	36.244
0.046568	6.853
0.047044	33.321
0.047754	38.471
0.04827	2.302
0.048645	40.869
0.053184	42.411
0.057025	43.838
0.061736	45.608
0.06664	50.176
0.087219	55.886
0.095244	58.513
0.107798	61.14
0.123138	63.995
0.132206	65.479
0.143352	67.192
0.161478	70.276
0.192493	74.501
0.202605	75.757
0.224897	78.384
0.261484	82.267
0.295286	86.721
0.330485	91.403
0.367073	96.428
0.398432	99.74
0.433277	103.851
0.467768	107.848
0.502967	112.188
0.533293	117.669
0.536748	113.901
0.567784	120.981
0.568442	116.642
0.599832	123.379
0.607107	119.154
0.631536	126.805
0.638467	122.58
0.666371	130.46
0.670171	125.321
0.702949	132.972
0.706049	128.404
0.732555	135.371
0.741593	133.201
0.770886	139.482
0.773642	136.17
0.8057	140.053
0.806784	145.078
0.840535	143.365
0.843017	149.075
0.874347	148.846
0.876819	153.643
0.909202	154.214
0.912018	159.239
0.936093	165.406
0.940936	161.18
0.9765	169.288
0.981425	175.684
0.999562	180.594
