Adsorption isotherm of Ethane on Silicalite-1
DOI: 10.1016/j.seppur.2017.03.036
Article source: Figure 1
Adsorbate Ethane: InChIKey OTMSDBZUPAUEDD-UHFFFAOYSA-N
Kind: experiment
Temperature: 408 K
Tabular data in the source: 0
pressure (bar)	uptake (mmol/g)
0.005	0.0085
0.1505	0.0652
0.2127	0.0921
0.3083	0.1358
0.3497	0.1515
0.4517	0.1908
0.533	0.2278
0.6207	0.2558
0.7179	0.2883
0.8167	0.3186
0.9586	0.3555
1.0877	0.4004
1.4957	0.4979
2.0057	0.5953
2.4966	0.6794
2.9986	0.7488
3.4959	0.8138
4.0011	0.8619
