Adsorption isotherm of Methane on Silicalite-1
DOI: 10.1016/j.seppur.2017.03.036
Article source: Figure 1
Adsorbate Methane: InChIKey VNWKTOKETHGBQD-UHFFFAOYSA-N
Kind: experiment
Temperature: 408 K
Tabular data in the source: 0
pressure (bar)	uptake (mmol/g)
0.0135	0.00439
0.3261	0.00925
0.4253	0.01496
0.5136	0.01936
0.6263	0.02902
0.7011	0.03254
0.7857	0.03825
0.8543	0.0466
0.9414	0.05539
1.0357	0.06286
1.1203	0.07384
1.4929	0.10591
2.0102	0.13712
2.5164	0.16701
3.0152	0.1969
3.5104	0.22064
4.0179	0.24922
4.5168	0.27735
5.0218	0.2932
