Adsorption isotherm of Ethane on Silicalite-1
DOI: 10.1016/j.seppur.2017.03.036
Article source: Figure 1
Adsorbate Ethane: InChIKey OTMSDBZUPAUEDD-UHFFFAOYSA-N
Kind: experiment
Temperature: 303 K
Tabular data in the source: 0
pressure (bar)	uptake (mmol/g)
0.005	0.0085
0.0191	0.1886
0.0331	0.3292
0.0382	0.4083
0.0683	0.539
0.0934	0.6662
0.1295	0.7644
0.1526	0.8385
0.1938	0.9459
0.2319	1.0356
0.3082	1.1578
0.3865	1.2553
0.4498	1.3062
0.5472	1.3768
0.6275	1.4255
0.7239	1.4686
0.8183	1.5018
0.9618	1.5505
1.1094	1.5879
1.511	1.6486
2.006	1.6952
2.503	1.7184
3.002	1.7296
3.5181	1.7507
4.0151	1.7633
