Adsorption isotherm of Ethane on Silicalite-1
DOI: 10.1016/j.seppur.2017.03.036
Article source: Figure 1
Adsorbate Ethane: InChIKey OTMSDBZUPAUEDD-UHFFFAOYSA-N
Kind: experiment
Temperature: 473 K
Tabular data in the source: 0
pressure (bar)	uptake (mmol/g)
0.008	0.0078
0.1286	0.0141
0.231	0.0205
0.3034	0.0318
0.3827	0.0453
0.4571	0.0559
0.5676	0.0644
0.6259	0.0679
0.7223	0.0806
0.8318	0.0941
0.9654	0.1089
1.094	0.121
1.4938	0.1627
2.0081	0.2256
2.4893	0.2702
3.0057	0.3155
3.4849	0.3495
4.0002	0.3842
