Adsorption isotherm of Ethane on Silicalite-1
DOI: 10.1016/j.seppur.2017.03.036
Article source: Figure 1
Adsorbate Ethane: InChIKey OTMSDBZUPAUEDD-UHFFFAOYSA-N
Kind: experiment
Temperature: 373 K
Tabular data in the source: 0
pressure (bar)	uptake (mmol/g)
0.005	0.0085
0.1014	0.0975
0.1376	0.1384
0.1938	0.1978
0.2902	0.2755
0.3665	0.3178
0.4287	0.3744
0.5311	0.4351
0.6034	0.4718
0.7179	0.5297
0.8102	0.5777
0.9608	0.6371
1.0934	0.702
1.501	0.8277
1.993	0.9449
2.493	1.0381
2.989	1.1114
3.497	1.1735
4.007	1.2144
