Adsorption isotherm of Ethane on Silicalite-1
DOI: 10.1016/j.seppur.2017.03.036
Article source: Figure 1
Adsorbate Ethane: InChIKey OTMSDBZUPAUEDD-UHFFFAOYSA-N
Kind: experiment
Temperature: 438 K
Tabular data in the source: 0
pressure (bar)	uptake (mmol/g)
0.005	0.0085
0.2318	0.0551
0.3226	0.0753
0.4167	0.1022
0.5075	0.1156
0.651	0.1414
0.7275	0.1694
0.796	0.1784
0.9617	0.1974
1.0813	0.2165
1.4925	0.2982
2.0009	0.3677
2.495	0.4326
2.9954	0.5043
3.4911	0.5513
4.0043	0.5983
