Adsorption isotherm of Ethane on Silicalite-1
DOI: 10.1016/j.seppur.2017.03.036
Article source: Figure 1
Adsorbate Ethane: InChIKey OTMSDBZUPAUEDD-UHFFFAOYSA-N
Kind: experiment
Temperature: 338 K
Tabular data in the source: 0
pressure (bar)	uptake (mmol/g)
0.005	0.0085
0.074	0.2278
0.1186	0.3153
0.1362	0.3759
0.1696	0.4185
0.2079	0.4723
0.2844	0.59
0.3545	0.6809
0.4231	0.747
0.5298	0.8479
0.6063	0.9006
0.7052	0.9645
0.8072	1.0127
0.941	1.0777
1.0988	1.145
1.502	1.2638
2.0041	1.3635
2.495	1.4195
2.9954	1.4676
3.5006	1.5012
4.0027	1.537
