Adsorption isotherm of Methane on Silicalite-1
DOI: 10.1016/j.seppur.2017.03.036
Article source: Figure 1
Adsorbate Methane: InChIKey VNWKTOKETHGBQD-UHFFFAOYSA-N
Kind: experiment
Temperature: 373 K
Tabular data in the source: 0
pressure (bar)	uptake (mmol/g)
0.0135	0.00439
0.2647	0.02855
0.3493	0.03822
0.4045	0.05095
0.5282	0.06457
0.6398	0.07511
0.7464	0.08917
0.8224	0.1041
0.8702	0.11244
0.956	0.11903
1.021	0.12474
1.0994	0.12958
1.5002	0.1757
2.0064	0.22402
2.5016	0.27103
3.0041	0.31277
3.5091	0.34705
4.0116	0.38792
4.5117	0.42439
5.013	0.45823
