Adsorption isotherm of Methane on Silicalite-1
DOI: 10.1016/j.seppur.2017.03.036
Article source: Figure 1
Adsorbate Methane: InChIKey VNWKTOKETHGBQD-UHFFFAOYSA-N
Kind: experiment
Temperature: 303 K
Tabular data in the source: 0
pressure (bar)	uptake (mmol/g)
0.0135	0.00439
0.0735	0.0439
0.1078	0.06409
0.1323	0.08077
0.1703	0.09877
0.2364	0.12731
0.3075	0.15716
0.3761	0.18657
0.4852	0.21775
0.5452	0.23662
0.6482	0.28272
0.707	0.30379
0.805	0.32838
0.8381	0.34726
0.8822	0.36482
0.9153	0.37579
0.9986	0.39994
1.0991	0.43506
1.5084	0.56195
2.001	0.68796
2.4875	0.80124
2.9974	0.89258
3.5084	0.97734
4.022	1.05375
4.5073	1.11656
4.9963	1.18025
