Adsorption isotherm of Methane on Silicalite-1
DOI: 10.1016/j.seppur.2017.03.036
Article source: Figure 1
Adsorbate Methane: InChIKey VNWKTOKETHGBQD-UHFFFAOYSA-N
Kind: experiment
Temperature: 338 K
Tabular data in the source: 0
pressure (bar)	uptake (mmol/g)
0.0135	0.00439
0.1654	0.0382
0.223	0.05357
0.3064	0.07245
0.3873	0.09484
0.5	0.12294
0.5858	0.1405
0.6667	0.15895
0.761	0.17212
0.8432	0.18354
0.924	0.20111
0.9988	0.21384
1.1067	0.23316
1.5001	0.29991
2.0038	0.38028
2.5051	0.45143
3.0063	0.51906
3.5174	0.57968
4.0126	0.63152
4.5102	0.68291
5.0225	0.7286
