Adsorption isotherm of Hydrogen on IRMOF-8
DOI: 10.1016/j.jpowsour.2013.12.072
Adsorbate Hydrogen: InChIKey UFHFLCQGNIYNRP-UHFFFAOYSA-N
Temperature: 298 K
Tabular data in the source: 0
pressure (bar)	uptake (wt%)
8.25336	0.017998
16.3148	0.0312855
24.3762	0.0430023
32.0537	0.0507954
40.1152	0.0585855
47.9846	0.0648064
55.4702	0.0804544
63.9155	0.0905975
71.5931	0.0928932
79.4626	0.0951875
87.1401	0.10141
95.0096	0.104489
