Adsorption isotherm of Hydrogen on MOFAC3+PMN
DOI: 10.1016/j.jpowsour.2013.12.072
Adsorbate Hydrogen: InChIKey UFHFLCQGNIYNRP-UHFFFAOYSA-N
Temperature: 298 K
Tabular data in the source: 0
pressure (bar)	uptake (wt%)
7.67754	0.03528
15.547	0.0682025
23.6084	0.101909
31.4779	0.125407
39.3474	0.152047
47.025	0.174762
54.8944	0.202972
62.7639	0.220188
85.9885	0.271838
93.858	0.282771
