Adsorption isotherm of Hydrogen on MOFAC3
DOI: 10.1016/j.jpowsour.2013.12.072
Adsorbate Hydrogen: InChIKey UFHFLCQGNIYNRP-UHFFFAOYSA-N
Temperature: 298 K
Tabular data in the source: 0
pressure (bar)	uptake (wt%)
7.86948	0.0329225
15.739	0.0556356
23.8004	0.0799178
31.8618	0.101844
39.9232	0.12377
47.6008	0.141773
55.2783	0.155063
63.3397	0.171492
71.0173	0.183212
78.6948	0.196502
86.7562	0.209005
94.2418	0.21837
