Adsorption isotherm of Hydrogen on MOFAC3+PMN
DOI: 10.1016/j.jpowsour.2013.12.072
Adsorbate Hydrogen: InChIKey UFHFLCQGNIYNRP-UHFFFAOYSA-N
Temperature: 298 K
Tabular data in the source: 0
pressure (bar)	uptake (wt%)
7.86948	0.0384199
15.739	0.0697717
23.8004	0.0995513
31.4779	0.13169
39.3474	0.159115
47.2169	0.181043
54.8944	0.203757
62.572	0.224116
70.4415	0.239761
78.119	0.257763
85.9885	0.271838
93.666	0.281987
