Adsorption isotherm of Hydrogen on IRMOF-8+PMN
DOI: 10.1016/j.jpowsour.2013.12.072
Adsorbate Hydrogen: InChIKey UFHFLCQGNIYNRP-UHFFFAOYSA-N
Temperature: 298 K
Tabular data in the source: 0
pressure (bar)	uptake (wt%)
8.06142	0.0125021
15.9309	0.0155817
24.3762	0.0194421
32.4376	0.0327295
40.1152	0.041308
47.9846	0.054597
55.8541	0.0663153
63.7236	0.0748922
71.5931	0.0818985
79.6545	0.0810498
87.524	0.0911975
95.3935	0.0974184
