Adsorption isotherm of Hydrogen on MOFAC1
DOI: 10.1016/j.jpowsour.2013.12.072
Adsorbate Hydrogen: InChIKey UFHFLCQGNIYNRP-UHFFFAOYSA-N
Temperature: 298 K
Tabular data in the source: 0
pressure (bar)	uptake (wt%)
7.86948	0.015645
15.739	0.0257926
23.8004	0.0359387
31.6699	0.0484424
39.5393	0.0593753
47.4088	0.069523
55.4702	0.0796691
62.9559	0.0890344
71.0173	0.0991805
78.8868	0.114825
86.7562	0.121046
94.2418	0.122558
