Adsorption isotherm of Hydrogen on MOFAC1+PMN
DOI: 10.1016/j.jpowsour.2013.12.072
Adsorbate Hydrogen: InChIKey UFHFLCQGNIYNRP-UHFFFAOYSA-N
Temperature: 298 K
Tabular data in the source: 0
pressure (bar)	uptake (wt%)
8.06142	0.0109315
15.739	0.0195099
23.9923	0.0280838
32.0537	0.0350886
39.9232	0.0444509
47.7927	0.0600959
55.4702	0.0671036
63.3397	0.0827486
71.4012	0.0936801
79.0787	0.0967612
86.9482	0.0998407
94.8177	0.0997789
