Adsorption isotherm of Copper(II) Ion, Water on Activated Biochar Fibres from Luffa cylindrica
DOI: 10.1007/s11270-017-3411-8
Article source: Figure 8b
Adsorbate Copper(II) Ion: InChIKey JPVYNHNXODAKFH-UHFFFAOYSA-N
Adsorbate Water: InChIKey XLYOFNOQVPJJNP-UHFFFAOYSA-N
Kind: experiment
Temperature: 296 K
Tabular data in the source: 0
pressure (bar)	Copper(II) Ion fraction	Copper(II) Ion uptake (mmol/g)	Water fraction	Water uptake (mmol/g)	total uptake (mmol/g)
1.01325	0	0.0195			
1.01325	0	0.1052			
1.01325	1e-06	0.1517			
1.01325	8e-06	0.7339			
1.01325	2.6e-05	4.4425			
