Adsorption isotherm of Copper(II) Ion, Water on Activated Biochar Fibres from Luffa cylindrica
DOI: 10.1007/s11270-017-3411-8
Article source: Figure 8a
Adsorbate Copper(II) Ion: InChIKey JPVYNHNXODAKFH-UHFFFAOYSA-N
Adsorbate Water: InChIKey XLYOFNOQVPJJNP-UHFFFAOYSA-N
Kind: experiment
Temperature: 296 K
Tabular data in the source: 0
pressure (bar)	Copper(II) Ion fraction	Copper(II) Ion uptake (mmol/g)	Water fraction	Water uptake (mmol/g)	total uptake (mmol/g)
1.01325	9e-06	0.0454			
1.01325	1.3e-05	0.1356			
1.01325	0.000109	1.3291			
1.01325	0.000118	0.5721			
1.01325	0.001172	2.7449			
1.01325	0.002604	3.5985			
1.01325	0.004705	3.4511			
