Adsorption isotherm of Carbon Dioxide on Zn(II)-MOF [Zn(HPylmDC)(DMA)]n
DOI: 10.1039/C4dt00307a
Adsorbate Carbon Dioxide: InChIKey CURLTUGMZLYLDI-UHFFFAOYSA-N
Temperature: 195 K
Tabular data in the source: 0
pressure (bar)	uptake (cm3(STP)/g)
0.00145201	5.60801
0.00247286	14.7473
0.00254895	14.1241
0.00287866	11.4237
0.00303084	10.1774
0.00323374	8.51565
0.00336056	7.47705
0.00384245	3.53036
0.00389317	3.11492
0.0039756	19.9398
0.00514863	27.8328
0.00535153	26.171
0.00552907	24.717
0.00698108	30.325
0.00710789	29.2864
0.00899107	31.3631
0.0170564	35.308
0.0172086	34.0617
0.0254515	36.5526
0.0295983	37.5903
0.0359072	38.4198
0.0401301	38.8344
0.0464137	39.8717
0.0632545	41.9453
0.0757964	44.2276
0.0758978	43.3967
0.0969616	45.8849
0.122451	47.1259
0.145753	48.7828
0.166994	49.8169
0.198894	51.0566
0.220135	52.0908
0.241427	52.7095
0.269079	53.7423
0.294619	54.5679
0.32016	55.3934
0.3457	56.219
0.369103	57.045
0.394719	57.2474
0.418148	57.8657
0.441577	58.4839
0.467117	59.3095
0.492734	59.5119
0.518274	60.3375
0.539591	60.7485
0.565157	61.3663
0.592884	61.776
0.616339	62.1865
0.639767	62.8048
0.665384	63.0072
0.693086	63.6246
0.716566	63.8274
0.742157	64.2375
0.767722	64.8554
0.793313	65.2655
0.818879	65.8833
0.840221	66.0866
0.870086	66.4958
0.889241	67.115
0.916969	67.5247
0.936175	67.7284
0.963903	68.1381
0.989494	68.5482
