Adsorption isotherm of Carbon Dioxide on Zn(II)-MOF [Zn(HPylmDC)(DMA)]n
DOI: 10.1039/C4dt00307a
Adsorbate Carbon Dioxide: InChIKey CURLTUGMZLYLDI-UHFFFAOYSA-N
Temperature: 273 K
Tabular data in the source: 0
pressure (bar)	uptake (cm3(STP)/g)
0.00551922	0.280735
0.00836476	0.633087
0.0139699	1.12581
0.0168728	1.61948
0.0169873	1.90212
0.025524	2.95918
0.0393793	3.80234
0.0450704	4.50704
0.0534925	5.28145
0.0672332	5.84197
0.0782144	6.26212
0.0864932	6.68322
0.0974743	7.10337
0.111158	7.52256
0.163132	9.05896
0.209472	10.032
0.261217	11.0031
0.312877	11.7622
0.359074	12.382
0.410733	13.1411
0.465008	13.6873
0.513965	14.4474
0.560134	14.9964
0.611678	15.4729
0.66328	16.0907
0.714853	16.6379
0.763695	17.1153
0.812509	17.5221
0.861351	17.9995
0.910193	18.477
0.967057	18.7396
1.01581	19.005
