Adsorption isotherm of Methanol on Zn(II)-MOF [Zn(HPylmDC)(DMA)]n
DOI: 10.1039/C4dt00307a
Adsorbate Methanol: InChIKey OKKJLVBELUTLKV-UHFFFAOYSA-N
Temperature: 298 K
Tabular data in the source: 0
pressure (bar)	uptake (cm3(STP)/g)
0.0508906	34.4137
0.101781	40.3028
0.155216	44.7159
0.195929	46.919
0.249364	48.6272
0.29771	50.3366
0.351145	51.3071
0.399491	52.5247
0.450382	53.2499
0.496183	54.2223
0.554707	54.9456
0.603053	55.6714
0.653944	56.3966
0.699746	56.8771
0.748092	57.6029
0.798982	58.0822
0.849873	58.8074
0.895674	58.7961
