Adsorption isotherm of 2-Propanol on Zn(II)-MOF [Zn(HPylmDC)(DMA)]n
DOI: 10.1039/C4dt00307a
Adsorbate 2-Propanol: InChIKey KFZMGEQAYNKOFK-UHFFFAOYSA-N
Temperature: 298 K
Tabular data in the source: 0
pressure (bar)	uptake (cm3(STP)/g)
0.015313	0.242136
0.030626	0.484272
0.043388	0.727036
0.053585	0.478627
0.06634	0.47549
0.081646	0.471726
0.09185	0.469217
0.107156	0.465453
0.147972	0.455417
0.196455	0.935298
0.247475	0.922752
0.303597	0.908952
0.349515	0.89766
0.392875	0.641096
0.454113	1.11784
0.494936	1.3537
0.545963	1.58706
0.59952	1.08209
0.653098	1.31481
0.704112	1.05637
0.750044	1.53687
0.798513	1.52496
0.846989	1.75894
0.90056	1.74576
0.954138	1.97849
