Adsorption isotherm of Water on Zn(II)-MOF [Zn(HPylmDC)(DMA)]n
DOI: 10.1039/C4dt00307a
Adsorbate Water: InChIKey XLYOFNOQVPJJNP-UHFFFAOYSA-N
Temperature: 298 K
Tabular data in the source: 0
pressure (bar)	uptake (cm3(STP)/g)
0.00763359	12.2932
0.0101781	14.0139
0.0152672	15.9799
0.0254453	19.42
0.0305344	21.8777
0.0407125	23.3506
0.0508906	25.0695
0.0585242	27.0348
0.0712468	28.753
0.0788804	30.2265
0.0916031	31.9447
0.0966921	33.1729
0.155216	39.3061
0.206107	43.9657
0.251908	47.643
0.29771	50.8284
0.348601	53.5208
0.396947	56.2139
0.447837	58.9063
0.496183	61.3534
0.541985	64.293
0.597964	66.4923
0.643766	68.4483
0.697201	72.1236
0.748092	74.3242
0.798982	77.0166
0.847328	79.7097
0.898219	82.8939
0.951654	87.0611
