Adsorption isotherm of Methanol on Zn(II)-MOF [Zn(HPylmDC)(DMA)]n
DOI: 10.1039/C4dt00307a
Adsorbate Methanol: InChIKey OKKJLVBELUTLKV-UHFFFAOYSA-N
Temperature: 298 K
Tabular data in the source: 0
pressure (bar)	uptake (cm3(STP)/g)
0.00763359	4.42435
0.0101781	10.3254
0.0203562	14.0114
0.0305344	15.7302
0.043257	17.9402
0.0508906	19.4137
0.0610687	21.1325
0.0712468	22.1136
0.0788804	23.5872
0.0916031	25.3053
0.101781	26.0405
0.152672	30.4543
0.198473	33.6397
0.249364	36.3321
0.300254	39.2704
0.348601	40.9799
0.396947	43.1811
0.450382	44.8893
0.498728	46.5987
0.552163	48.0609
0.597964	49.771
0.648855	50.988
0.70229	52.4503
0.753181	53.6673
0.796438	55.132
0.849873	55.8566
0.895674	57.0748
0.949109	59.5207
