Adsorption isotherm of Water on Zn(II)-MOF [Zn(HPylmDC)(DMA)]n
DOI: 10.1039/C4dt00307a
Adsorbate Water: InChIKey XLYOFNOQVPJJNP-UHFFFAOYSA-N
Temperature: 298 K
Tabular data in the source: 0
pressure (bar)	uptake (cm3(STP)/g)
0.0508906	42.0367
0.101781	50.6307
0.150127	57.2582
0.203562	60.9336
0.249364	64.3649
0.300254	67.3032
0.348601	69.9962
0.396947	72.1975
0.447837	74.1522
0.491094	74.8792
0.544529	76.0956
0.603053	77.3107
0.648855	79.0208
0.699746	80.7296
0.753181	82.1918
0.798982	83.656
0.847328	84.8736
0.900763	86.09
