Adsorption isotherm of Carbon Dioxide on Zn(II)-MOF [Zn(HPylmDC)(DMA)]n
DOI: 10.1039/C4dt00307a
Adsorbate Carbon Dioxide: InChIKey CURLTUGMZLYLDI-UHFFFAOYSA-N
Temperature: 195 K
Tabular data in the source: 0
pressure (bar)	uptake (cm3(STP)/g)
0.0499264	46.1024
0.0710155	48.3829
0.0963528	50.8702
0.121842	52.1112
0.147306	53.5599
0.168522	54.8018
0.194063	55.6273
0.219552	56.8683
0.249391	57.4853
0.268572	57.8967
0.29836	58.9291
0.319652	59.5478
0.343132	59.7507
0.362262	60.5776
0.389964	61.195
0.41553	61.8128
0.441095	62.4306
0.466686	62.8407
0.490166	63.0436
0.520005	63.6605
0.539236	63.6565
0.562665	64.2748
0.586119	64.6854
0.61812	65.0942
0.639438	65.5052
0.667165	65.9148
0.694893	66.3245
0.718347	66.7351
0.741827	66.9379
0.765281	67.3485
0.784512	67.3445
0.816539	67.5455
0.84213	67.9556
0.865609	68.1585
0.891226	68.3609
0.910406	68.7723
0.936048	68.767
