Adsorption isotherm of Ethanol on Zn(II)-MOF [Zn(HPylmDC)(DMA)]n
DOI: 10.1039/C4dt00307a
Adsorbate Ethanol: InChIKey LFQSCWFLJHTTHZ-UHFFFAOYSA-N
Temperature: 298 K
Tabular data in the source: 0
pressure (bar)	uptake (cm3(STP)/g)
0.0518629	12.5282
0.0903094	13.9942
0.146631	14.9639
0.195251	15.4438
0.241328	16.1702
0.300179	16.6475
0.34627	17.6198
0.392333	18.1002
0.453769	19.0687
0.497261	19.304
0.535651	19.7863
0.594502	20.2636
0.648224	20.4963
0.696816	20.4844
0.753124	21.2082
0.799173	21.4428
0.845222	21.6774
0.898929	21.6642
