Adsorption isotherm of 1-Propanol on Zn(II)-MOF [Zn(HPylmDC)(DMA)]n
DOI: 10.1039/C4dt00307a
Adsorbate 1-Propanol: InChIKey BDERNNFJNOPAEC-UHFFFAOYSA-N
Temperature: 298 K
Tabular data in the source: 0
pressure (bar)	uptake (cm3(STP)/g)
0.0564357	11.0517
0.0947286	12.0259
0.148314	12.5045
0.201885	12.4913
0.250368	12.9712
0.293735	12.9606
0.344762	13.1939
0.403442	13.4254
0.44936	13.4141
0.500401	14.1392
0.546319	14.128
0.592251	14.6085
0.64072	14.5965
0.696849	14.8286
0.75042	14.8155
0.801433	14.557
0.849909	14.791
0.890725	14.781
