Adsorption isotherm of 2-Propanol on Zn(II)-MOF [Zn(HPylmDC)(DMA)]n
DOI: 10.1039/C4dt00307a
Adsorbate 2-Propanol: InChIKey KFZMGEQAYNKOFK-UHFFFAOYSA-N
Temperature: 298 K
Tabular data in the source: 0
pressure (bar)	uptake (cm3(STP)/g)
0.0459668	1.71001
0.0969939	1.94336
0.142912	1.93207
0.193939	2.16542
0.247503	1.90635
0.295972	1.89443
0.34955	2.12716
0.392924	2.3624
0.443944	2.34985
0.489855	2.09266
0.512814	2.08701
0.591902	2.31347
0.640364	2.05565
0.678629	2.04624
0.744949	1.78403
0.793418	1.77211
0.836785	1.76145
0.90056	1.74576
