Adsorption isotherm of Nitrogen on Zn(II)-MOF [Zn(HPylmDC)(DMA)]n
DOI: 10.1039/C4dt00307a
Adsorbate Nitrogen: InChIKey IJGRMHOSHXDMSA-UHFFFAOYSA-N
Temperature: 273 K
Tabular data in the source: 0
pressure (bar)	uptake (cm3(STP)/g)
0.0243865	-0.00691815
0.0406826	0.0593808
0.0596499	0.054
0.0813267	0.0478506
0.108423	0.0401637
0.157234	0.0972385
0.206046	0.154313
0.252148	0.212157
0.306378	0.267694
0.355074	0.112036
0.403886	0.16911
0.452697	0.226185
0.50147	0.212349
0.555624	0.126064
0.607222	0.324192
0.661414	0.308819
0.707439	0.22484
0.750793	0.212541
0.805062	0.33899
0.853835	0.325153
0.905356	0.381459
0.954167	0.438534
0.997483	0.355324
