Adsorption isotherm of Ethanol on Zn(II)-MOF [Zn(HPylmDC)(DMA)]n
DOI: 10.1039/C4dt00307a
Adsorbate Ethanol: InChIKey LFQSCWFLJHTTHZ-UHFFFAOYSA-N
Temperature: 298 K
Tabular data in the source: 0
pressure (bar)	uptake (cm3(STP)/g)
0.0152672	8.111
0.0305344	8.59905
0.0483461	9.33237
0.0712468	10.0644
0.0916031	10.5512
0.152672	11.7657
0.246819	13.218
0.302799	14.4337
0.351145	14.9137
0.40458	16.6218
0.452926	17.3476
0.503817	17.581
0.552163	18.3068
0.605598	19.0314
0.653944	19.2654
0.697201	19.7466
0.753181	20.2246
0.798982	20.4593
0.852417	20.9379
0.900763	21.4178
0.954198	21.6506
