Adsorption isotherm of Methane on Zn(II)-MOF [Zn(HPylmDC)(DMA)]n
DOI: 10.1039/C4dt00307a
Adsorbate Methane: InChIKey VNWKTOKETHGBQD-UHFFFAOYSA-N
Temperature: 273 K
Tabular data in the source: 0
pressure (bar)	uptake (cm3(STP)/g)
0.20825	0.350442
0.259651	0.473621
0.308322	0.527095
0.359694	0.579613
0.408336	0.562425
0.457006	0.615899
0.50835	0.597756
0.556992	0.580568
0.608365	0.633087
0.654333	0.687515
0.703032	0.81165
0.75978	0.791597
0.805748	0.846025
0.851716	0.900454
0.903089	0.952972
0.957164	1.00454
1.00043	1.05992
