Adsorption isotherm of Carbon Dioxide on Zn(II)-MOF [Zn(HPylmDC)(DMA)]n
DOI: 10.1039/C4dt00307a
Adsorbate Carbon Dioxide: InChIKey CURLTUGMZLYLDI-UHFFFAOYSA-N
Temperature: 273 K
Tabular data in the source: 0
pressure (bar)	uptake (cm3(STP)/g)
0.0538935	6.27071
0.108828	8.44211
0.15534	9.8391
0.212519	10.879
0.264206	11.7088
0.305027	12.4011
0.364794	13.1573
0.408288	13.778
0.462564	14.3242
0.508732	14.8732
0.560334	15.491
0.611907	16.0382
0.66075	16.5156
0.709592	16.9931
0.758434	17.4705
0.815383	17.9451
0.856032	18.2134
0.910251	18.6183
