Adsorption isotherm of 1-Propanol on Zn(II)-MOF [Zn(HPylmDC)(DMA)]n
DOI: 10.1039/C4dt00307a
Adsorbate 1-Propanol: InChIKey BDERNNFJNOPAEC-UHFFFAOYSA-N
Temperature: 298 K
Tabular data in the source: 0
pressure (bar)	uptake (cm3(STP)/g)
0.00258546	0.491168
0.00268329	2.21245
0.00528272	2.94952
0.0207815	5.65063
0.0362244	7.36814
0.0464684	7.61152
0.0695	7.85176
0.0823015	8.09452
0.100204	8.09011
0.143696	8.32532
0.197417	8.55801
0.24348	9.03849
0.292073	9.02654
0.348366	9.5045
0.397001	10.2302
0.450737	10.7088
0.501915	11.1881
0.545434	11.9151
0.596612	12.3943
0.647763	12.3817
0.698927	12.615
0.757777	13.0923
0.801283	13.5735
0.847332	13.808
0.898496	14.0414
0.942002	14.5225
