Adsorption isotherm of Methane on Zn(II)-MOF [Zn(HPylmDC)(DMA)]n
DOI: 10.1039/C4dt00307a
Adsorbate Methane: InChIKey VNWKTOKETHGBQD-UHFFFAOYSA-N
Temperature: 273 K
Tabular data in the source: 0
pressure (bar)	uptake (cm3(STP)/g)
0.0597374	0.685605
0.108379	0.668417
0.157049	0.721891
0.20572	0.775364
0.251688	0.829792
0.305734	0.810695
0.357135	0.933874
0.405777	0.916687
0.45715	0.969205
0.503146	1.09429
0.551788	1.07711
0.605806	0.987348
0.654505	1.11148
0.708522	1.02172
0.754519	1.14681
0.800487	1.20124
0.849129	1.18405
0.900444	1.09525
0.954548	1.21747
