Adsorption isotherm of Methane on ACWW
DOI: 10.1007/s10450-022-00372-w
Article source: Figure 5
Adsorbate Methane: InChIKey VNWKTOKETHGBQD-UHFFFAOYSA-N
Kind: experiment
Temperature: 313 K
Tabular data in the source: 0
pressure (bar)	uptake (mmol/g)
1.44811	0.923351
4.42478	2.28758
7.24055	3.26084
10.1368	4.10101
13.4352	4.84967
16.5728	5.51515
20.1126	6.10576
30.0885	7.32858
39.1794	8.3268
59.7747	9.74926
88.2542	11.205
113.918	11.8705
145.937	12.4029
174.658	12.9352
204.586	13.3012
