Adsorption isotherm of Methane on ACWW
DOI: 10.1007/s10450-022-00372-w
Article source: Figure 5
Adsorbate Methane: InChIKey VNWKTOKETHGBQD-UHFFFAOYSA-N
Kind: experiment
Temperature: 293 K
Tabular data in the source: 0
pressure (bar)	uptake (mmol/g)
1.36766	0.299465
1.44811	0.399287
1.85036	0.806892
1.76991	1.25609
4.02253	2.81996
6.59694	3.93464
8.76911	4.76649
11.3435	5.39869
13.757	5.98099
16.4119	6.50505
20.5953	7.41177
30.4907	8.62626
40.1448	9.69103
59.7747	11.022
87.2888	12.1034
114.642	12.7855
147.064	13.4427
174.819	13.6173
201.85	13.9418
