Adsorption isotherm of Methane on ACWW
DOI: 10.1007/s10450-022-00372-w
Article source: Figure 5
Adsorbate Methane: InChIKey VNWKTOKETHGBQD-UHFFFAOYSA-N
Kind: experiment
Temperature: 333 K
Tabular data in the source: 0
pressure (bar)	uptake (mmol/g)
0.482703	0.174688
1.20676	0.390969
1.68946	0.590612
4.58568	1.85502
7.40145	2.77005
8.68866	3.04456
10.0563	3.41058
13.5961	4.03446
16.6533	4.53357
20.0322	4.89958
30.2494	6.19727
40.5471	7.22044
60.8206	8.54308
89.5414	10.1153
118.423	10.9554
148.351	11.754
174.578	12.3363
205.471	12.6025
