Adsorption isotherm of Nitrogen on ACWW
DOI: 10.1007/s10450-022-00372-w
Article source: Figure 4
Adsorbate Nitrogen: InChIKey IJGRMHOSHXDMSA-UHFFFAOYSA-N
Kind: experiment
Temperature: 77 K
Tabular data in the source: 0
pressure (bar)	uptake (mmol/g)
0	0
0.000913	11.7345
0.000913	12.1418
0.001826	12.5745
0.003651	12.8291
0.004564	13.0327
0.00639	13.4909
0.009128	13.7709
0.016431	14.4836
0.024647	14.9927
0.04838	16.1382
0.105889	17.5636
0.157008	18.2509
0.209953	18.6836
0.264723	18.9382
0.312191	19.1164
0.409864	19.3455
0.506625	19.4982
0.607037	19.5491
0.709275	19.6764
0.809687	19.7782
0.911012	19.9309
0.962131	20.1091
0.998645	20.7455
0.950264	20.2873
0.895494	20.0836
0.794169	19.9564
0.691931	19.8545
0.608863	19.8036
0.507538	19.6764
0.4053	19.32
0.302149	19.0655
0.18987	18.5055
0.104064	17.5127
