Adsorption isotherm of Methane on ACWW
DOI: 10.1007/s10450-022-00372-w
Article source: Figure 5
Adsorbate Methane: InChIKey VNWKTOKETHGBQD-UHFFFAOYSA-N
Kind: experiment
Temperature: 273 K
Tabular data in the source: 0
pressure (bar)	uptake (mmol/g)
1.36766	1.59715
4.50523	3.96791
7.07965	5.24896
11.2631	6.72133
14.1593	7.48663
16.8142	8.00238
19.8713	8.74272
29.7667	10.0487
40.3862	11.1717
58.8898	12.2115
86.7257	13.0766
