Adsorption isotherm of Carbon Dioxide on CPO-27-Mg(67%)
DOI: 10.1039/c5dt03137k
Article source: Figure 8
Adsorbate Carbon Dioxide: InChIKey CURLTUGMZLYLDI-UHFFFAOYSA-N
Kind: experiment
Temperature: 298 K
Tabular data in the source: 0
pressure (bar)	uptake (mmol/g)
0.003019	-4.4e-05
0.006022	0.046304
0.009018	0.115849
0.024089	0.185218
0.03916	0.254587
0.063295	0.300629
0.099499	0.369692
0.162825	0.577536
0.253314	0.808183
0.40113	1.13078
0.630433	1.52179
1.00161	1.95713
1.58711	2.43575
