Adsorption isotherm of Carbon Dioxide on CPO-27-Mg(67%)
DOI: 10.1039/c5dt03137k
Article source: Figure 8
Adsorbate Carbon Dioxide: InChIKey CURLTUGMZLYLDI-UHFFFAOYSA-N
Kind: experiment
Temperature: 298 K
Tabular data in the source: 0
pressure (bar)	uptake (mmol/g)
0.060219	0.206485
0.099363	0.34417
0.162567	0.48116
0.246869	0.756357
0.400375	1.1221
0.632083	1.50871
1.00217	1.98387
1.58881	2.52217
