Adsorption isotherm of Carbon Dioxide on CPO-27-Mg-c
DOI: 10.1039/c5dt03137k
Article source: Figure 2
Adsorbate Carbon Dioxide: InChIKey CURLTUGMZLYLDI-UHFFFAOYSA-N
Kind: experiment
Temperature: 298 K
Tabular data in the source: 0
pressure (bar)	uptake (mmol/g)
0	0
0.002294	1.67442
0.011468	1.92248
0.027523	2.2739
0.06422	2.70801
0.09633	2.95607
0.130734	3.20413
0.206422	3.53488
0.266055	3.76227
0.325688	3.92765
0.399083	4.09302
0.470183	4.23773
0.534404	4.36176
0.600917	4.42377
0.662844	4.50646
0.729358	4.60982
0.795872	4.71318
0.866972	4.79587
0.931193	4.81654
0.997706	4.94057
1.06651	4.96124
1.13073	5.04393
