Adsorption isotherm of Carbon Dioxide on Mg-MOF-74
DOI: 10.1039/c5dt03137k
Article source: Figure 4
Adsorbate Carbon Dioxide: InChIKey CURLTUGMZLYLDI-UHFFFAOYSA-N
Kind: experiment
Temperature: 298 K
Tabular data in the source: 0
pressure (bar)	uptake (mmol/g)
0.0035	0.0035
0.007	1.13174
0.0175	1.8024
0.035	2.4521
0.063	3.03892
0.1015	3.5
0.1435	3.7515
0.203	3.94012
0.2625	4.19162
0.3255	4.38024
0.399	4.56886
0.4655	4.71557
0.5285	4.86228
0.595	5.00898
0.6615	5.11377
0.728	5.26048
0.791	5.38623
0.861	5.51198
0.9275	5.63772
0.9905	5.74251
1.064	5.82635
1.1235	5.93114
1.197	6.07784
1.3265	6.24551
1.456	6.43413
