Adsorption isotherm of Carbon Dioxide on CPO-27-Mg(50%)
DOI: 10.1039/c5dt03137k
Article source: Figure 8
Adsorbate Carbon Dioxide: InChIKey CURLTUGMZLYLDI-UHFFFAOYSA-N
Kind: experiment
Temperature: 298 K
Tabular data in the source: 0
pressure (bar)	uptake (mmol/g)
0.150545	0.504644
0.2529	0.802455
0.400406	1.21464
0.629137	1.69389
0.999267	2.30786
1.58595	2.96185
