Adsorption isotherm of Carbon Dioxide on Mg-MOF-74
DOI: 10.1039/c5dt03137k
Article source: Figure 3
Adsorbate Carbon Dioxide: InChIKey CURLTUGMZLYLDI-UHFFFAOYSA-N
Kind: experiment
Temperature: 323 K
Tabular data in the source: 0
pressure (bar)	uptake (mmol/g)
0.002262	0.121429
0.004904	0.235714
0.009058	0.4
0.01321	0.571429
0.016988	0.707143
0.035518	1.22857
0.069213	1.87143
0.096117	2.19286
0.129855	2.49286
0.198873	2.90714
