Adsorption isotherm of Carbon Dioxide on CPO-27-Mg(100%)
DOI: 10.1039/c5dt03137k
Article source: Figure 8
Adsorbate Carbon Dioxide: InChIKey CURLTUGMZLYLDI-UHFFFAOYSA-N
Kind: experiment
Temperature: 298 K
Tabular data in the source: 0
pressure (bar)	uptake (mmol/g)
0.006015	-0.000174
0.027075	0.022353
0.04212	0.045054
0.063157	-0.001827
0.099255	0.020266
0.159405	0.018526
0.252645	0.038966
0.397004	0.034791
0.628573	0.004958
0.998502	0.017396
1.58496	0.000435
