Adsorption isotherm of Nitrogen on Mg-MOF-74
DOI: 10.1039/c5dt03137k
Article source: Figure 4
Adsorbate Nitrogen: InChIKey IJGRMHOSHXDMSA-UHFFFAOYSA-N
Kind: experiment
Temperature: 77 K
Tabular data in the source: 0
pressure (bar)	uptake (mmol/g)
0	3.69097
0	5.61229
0	6.77498
0	9.80887
0.000771	11.6293
0.000808	11.3259
0.000912	10.4664
0.005098	11.8825
0.009424	12.1358
0.020299	12.2886
0.035525	12.4924
0.057299	12.5957
0.079067	12.7496
0.103026	12.8026
0.11827	12.8547
0.137877	12.8566
0.157485	12.8586
0.17708	12.9617
0.196688	12.9637
0.222831	12.9664
0.248963	13.0701
0.270749	13.0723
0.299071	13.0752
0.325208	13.1284
0.344804	13.2315
0.394912	13.2366
0.445014	13.2922
0.499474	13.3483
0.549582	13.3533
0.599678	13.4595
0.64978	13.5151
0.699889	13.5202
0.752157	13.6772
0.802253	13.7834
0.843629	13.9392
0.902427	14.1474
0.948129	14.5566
0.976415	14.8628
0.985086	15.2176
