Adsorption isotherm of Carbon Dioxide on CPO-27-Mg-c
DOI: 10.1039/c5dt03137k
Article source: Figure 3
Adsorbate Carbon Dioxide: InChIKey CURLTUGMZLYLDI-UHFFFAOYSA-N
Kind: experiment
Temperature: 323 K
Tabular data in the source: 0
pressure (bar)	uptake (mmol/g)
0.00645	0.014286
0.010622	0.035714
0.014414	0.057143
0.019345	0.078571
0.032622	0.121429
0.064487	0.228571
0.099766	0.35
0.13239	0.457143
0.199159	0.65
