Adsorption isotherm of Carbon Dioxide on CPO-27-Mg(67%)
DOI: 10.1039/c5dt03137k
Article source: Figure 8
Adsorbate Carbon Dioxide: InChIKey CURLTUGMZLYLDI-UHFFFAOYSA-N
Kind: experiment
Temperature: 298 K
Tabular data in the source: 0
pressure (bar)	uptake (mmol/g)
0.002985	0
0.032836	0.114504
0.059701	0.160305
0.101493	0.274809
0.155224	0.435115
0.247761	0.641221
0.4	0.89313
0.626866	1.25954
1	1.67176
1.58806	2.10687
