Adsorption isotherm of Carbon Dioxide on CPO-27-Mg(50%)
DOI: 10.1039/c5dt03137k
Article source: Figure 8
Adsorbate Carbon Dioxide: InChIKey CURLTUGMZLYLDI-UHFFFAOYSA-N
Kind: experiment
Temperature: 298 K
Tabular data in the source: 0
pressure (bar)	uptake (mmol/g)
0.002985	0
0.161194	0.458015
0.253731	0.709924
0.4	1.12214
0.629851	1.67176
1.00299	2.40458
1.59104	3.22901
