Adsorption isotherm of Carbon Dioxide on CPO-27-Mg-b
DOI: 10.1039/c5dt03137k
Article source: Figure 2
Adsorbate Carbon Dioxide: InChIKey CURLTUGMZLYLDI-UHFFFAOYSA-N
Kind: experiment
Temperature: 298 K
Tabular data in the source: 0
pressure (bar)	uptake (mmol/g)
0	0.144703
0	0.434109
0.002294	0.578811
0.006881	0.764858
0.013761	1.13695
0.022936	1.34367
0.036697	1.83979
0.066514	2.50129
0.09633	2.81137
0.130734	2.99742
0.194954	3.34884
0.263761	3.63824
0.327982	3.86563
0.394495	4.03101
0.463303	4.17571
0.529817	4.34109
0.598624	4.50646
0.662844	4.63049
0.731651	4.77519
0.793578	4.87855
0.860092	5.00258
0.928899	5.08527
0.995413	5.2093
1.06422	5.29199
1.12844	5.39535
