Adsorption isotherm of Carbon Dioxide on Mg-MOF-74
DOI: 10.1039/c5dt03137k
Article source: Figure 4
Adsorbate Carbon Dioxide: InChIKey CURLTUGMZLYLDI-UHFFFAOYSA-N
Kind: experiment
Temperature: 298 K
Tabular data in the source: 0
pressure (bar)	uptake (mmol/g)
0.0035	0.0035
0.007	1.13174
0.0175	1.8024
0.035	2.4521
0.07	3.22754
0.1015	3.56287
0.1225	3.68862
0.196	4.06587
0.2625	4.33832
0.336	4.5479
0.399	4.71557
0.4655	4.86228
0.5355	5.00898
0.6055	5.13473
0.665	5.26048
0.735	5.38623
0.8015	5.51198
0.861	5.63772
0.924	5.78443
0.9905	5.86826
1.0605	5.97305
1.1235	6.07784
1.197	6.20359
1.3405	6.41317
1.4595	6.55988
