Adsorption isotherm of Carbon Dioxide on CPO-27-Mg(33%)
DOI: 10.1039/c5dt03137k
Article source: Figure 8
Adsorbate Carbon Dioxide: InChIKey CURLTUGMZLYLDI-UHFFFAOYSA-N
Kind: experiment
Temperature: 298 K
Tabular data in the source: 0
pressure (bar)	uptake (mmol/g)
0.003019	-4.4e-05
0.042155	0.324131
0.066268	0.439761
0.099397	0.671239
0.15664	1.01835
0.250046	1.5505
0.397777	2.12825
0.630021	2.75118
1.00112	3.41848
1.58355	4.03632
