Adsorption isotherm of Carbon Dioxide on CPO-27-Mg(16%)
DOI: 10.1039/c5dt03137k
Article source: Figure 8
Adsorbate Carbon Dioxide: InChIKey CURLTUGMZLYLDI-UHFFFAOYSA-N
Kind: experiment
Temperature: 298 K
Tabular data in the source: 0
pressure (bar)	uptake (mmol/g)
0.003019	-4.4e-05
0.156748	0.693604
0.253205	1.13293
0.403939	1.75703
1.00388	4.1839
1.58594	5.91515
