Adsorption isotherm of Nitrogen on Mg-MOF-74
DOI: 10.1039/c5dt03137k
Article source: Figure 4
Adsorbate Nitrogen: InChIKey IJGRMHOSHXDMSA-UHFFFAOYSA-N
Kind: experiment
Temperature: 77 K
Tabular data in the source: 0
pressure (bar)	uptake (mmol/g)
0	3.69097
0	10.7693
0	12.4381
0.002797	12.8935
0.007111	13.2479
0.011456	13.3495
0.013616	13.5014
0.017968	13.5524
0.026664	13.7049
0.037538	13.8577
0.061491	13.9613
0.085444	14.0648
0.10286	14.1677
0.120289	14.1695
0.142057	14.3234
0.157308	14.3249
0.179088	14.3777
0.200874	14.3799
0.222654	14.4326
0.248791	14.4858
0.272744	14.5894
0.294524	14.6421
0.320668	14.6448
0.346805	14.698
0.401258	14.8046
0.444825	14.8596
0.494921	14.9658
0.545017	15.072
0.601649	15.1788
0.647387	15.2846
0.69749	15.3402
0.749752	15.5477
0.799854	15.6034
0.845581	15.8102
0.895646	16.1692
0.9457	16.6293
0.978287	17.3911
