Adsorption isotherm of Carbon Dioxide on Mg-MOF-74
DOI: 10.1039/c5dt03137k
Article source: Figure 2
Adsorbate Carbon Dioxide: InChIKey CURLTUGMZLYLDI-UHFFFAOYSA-N
Kind: experiment
Temperature: 298 K
Tabular data in the source: 0
pressure (bar)	uptake (mmol/g)
0.002294	0.351421
0.004587	0.578811
0.006881	0.826873
0.009174	1.17829
0.013761	1.4677
0.03211	2.25323
0.066514	2.91473
0.103211	3.47287
0.139908	3.86563
0.197248	4.23773
0.261468	4.65116
0.327982	4.96124
0.396789	5.22997
0.463303	5.49871
0.529817	5.70543
0.59633	5.95349
0.662844	6.16021
0.731651	6.34625
0.800459	6.5323
0.860092	6.71835
0.933486	6.90439
1.00688	7.02842
1.06422	7.1938
1.1445	7.40052
