Adsorption isotherm of Carbon Dioxide on CPO-27-Mg-c
DOI: 10.1039/c5dt03137k
Article source: Figure 4
Adsorbate Carbon Dioxide: InChIKey CURLTUGMZLYLDI-UHFFFAOYSA-N
Kind: experiment
Temperature: 298 K
Tabular data in the source: 0
pressure (bar)	uptake (mmol/g)
0.000787	1.3353
0.000902	1.53115
0.008036	1.63788
0.00813	1.79812
0.01881	1.92261
0.026027	2.17178
0.061643	2.61643
0.097164	2.90084
0.129129	3.14969
0.200003	3.43366
0.26025	3.68215
0.331072	3.8771
0.391267	4.03657
0.462068	4.1959
0.532848	4.31963
0.596547	4.42565
0.667317	4.53157
0.731015	4.63759
0.794693	4.70799
0.858382	4.79621
0.925605	4.88437
0.992829	4.97254
1.06359	5.06066
1.1308	5.13102
1.19449	5.21923
1.32537	5.3422
1.45624	5.44736
