Adsorption isotherm of Carbon Dioxide on CPO-27-Mg(100%)
DOI: 10.1039/c5dt03137k
Article source: Figure 8
Adsorbate Carbon Dioxide: InChIKey CURLTUGMZLYLDI-UHFFFAOYSA-N
Kind: experiment
Temperature: 298 K
Tabular data in the source: 0
pressure (bar)	uptake (mmol/g)
0.003019	-4.4e-05
0.033184	0.069107
0.069388	0.138169
0.099561	0.184124
0.162926	0.275989
0.253438	0.437047
0.401301	0.620471
0.63062	0.965084
1.00484	1.33079
1.58736	1.67029
