Adsorption isotherm of Carbon Dioxide on CPO-27-Mg(16%)
DOI: 10.1039/c5dt03137k
Article source: Figure 8
Adsorbate Carbon Dioxide: InChIKey CURLTUGMZLYLDI-UHFFFAOYSA-N
Kind: experiment
Temperature: 298 K
Tabular data in the source: 0
pressure (bar)	uptake (mmol/g)
0.026816	0.114504
0.068529	0.183206
0.098324	0.320611
0.157914	0.503817
0.250279	0.847328
0.396276	1.39695
0.628678	2.26718
1.00112	3.54962
1.57914	5.33588
