Adsorption isotherm of Carbon Dioxide on CPO-27-Mg(50%)
DOI: 10.1039/c5dt03137k
Article source: Figure 8
Adsorbate Carbon Dioxide: InChIKey CURLTUGMZLYLDI-UHFFFAOYSA-N
Kind: experiment
Temperature: 298 K
Tabular data in the source: 0
pressure (bar)	uptake (mmol/g)
0.003019	-4.4e-05
0.036133	0.277827
0.048193	0.324044
0.07229	0.486065
0.102416	0.671196
0.159658	1.0183
0.250062	1.50411
0.400803	2.10501
0.630021	2.75118
1.00414	3.39524
1.58053	4.03636
