Adsorption isotherm of Carbon Dioxide on CPO-27-Mg(16%)
DOI: 10.1039/c5dt03137k
Article source: Figure 8
Adsorbate Carbon Dioxide: InChIKey CURLTUGMZLYLDI-UHFFFAOYSA-N
Kind: experiment
Temperature: 298 K
Tabular data in the source: 0
pressure (bar)	uptake (mmol/g)
0.093371	0.413752
0.15659	0.597014
0.249923	0.895086
0.400483	1.446
0.629354	2.3417
1.00873	3.62635
1.58674	5.32172
