Adsorption isotherm of Nitrogen on CPO-27-Mg-c
DOI: 10.1039/c5dt03137k
Article source: Figure 4
Adsorbate Nitrogen: InChIKey IJGRMHOSHXDMSA-UHFFFAOYSA-N
Kind: experiment
Temperature: 77 K
Tabular data in the source: 0
pressure (bar)	uptake (mmol/g)
0	-0.002183
0	3.46111
0.002183	3.90829
0.004367	4.08325
0.00655	4.27765
0.008734	4.3165
0.017467	4.41355
0.021834	4.45235
0.034935	4.52988
0.061135	4.60714
0.080786	4.6651
0.104803	4.70352
0.117904	4.74215
0.139738	4.80006
0.155022	4.83865
0.179039	4.85763
0.19869	4.85725
0.222707	4.85678
0.246725	4.91465
0.272926	4.93358
0.299127	4.93307
0.327511	4.99085
0.349345	4.99043
0.39083	5.0674
0.447598	5.0663
0.497817	5.08476
0.556769	5.14195
0.598253	5.14115
0.652838	5.19842
0.703057	5.19744
0.748908	5.23544
0.803493	5.27327
0.842795	5.35028
0.90393	5.32965
0.954148	5.387
0.9869	5.48359
