Adsorption isotherm of Carbon Dioxide on CPO-27-Mg-c
DOI: 10.1039/c5dt03137k
Article source: Figure 4
Adsorbate Carbon Dioxide: InChIKey CURLTUGMZLYLDI-UHFFFAOYSA-N
Kind: experiment
Temperature: 298 K
Tabular data in the source: 0
pressure (bar)	uptake (mmol/g)
0	0.605382
0.000241	0.409492
0.003976	0.747724
0.011099	0.836654
0.018233	0.943388
0.025387	1.08573
0.064454	1.3879
0.089317	1.58343
0.12124	1.76107
0.199206	2.08055
0.262967	2.29339
0.3338	2.50614
0.401055	2.64772
0.461229	2.77158
0.528474	2.89536
0.595708	3.00133
0.662953	3.1251
0.730187	3.23107
0.790329	3.30152
0.861088	3.38964
0.928322	3.49561
0.99199	3.54822
1.05568	3.63643
1.12289	3.70679
1.19364	3.77711
1.32805	3.88222
1.45892	3.98738
