Adsorption isotherm of Carbon Dioxide on CPO-27-Mg-c
DOI: 10.1039/c5dt03137k
Article source: Figure 3
Adsorbate Carbon Dioxide: InChIKey CURLTUGMZLYLDI-UHFFFAOYSA-N
Kind: experiment
Temperature: 323 K
Tabular data in the source: 0
pressure (bar)	uptake (mmol/g)
0.001429	0.7
0.005187	0.992857
0.011239	1.15714
0.017678	1.25714
0.032834	1.45
0.067716	1.70714
0.099571	1.89286
0.133326	2.05714
0.200466	2.31429
