Adsorption isotherm of Carbon Dioxide on CPO-27-Mg(33%)
DOI: 10.1039/c5dt03137k
Article source: Figure 8
Adsorbate Carbon Dioxide: InChIKey CURLTUGMZLYLDI-UHFFFAOYSA-N
Kind: experiment
Temperature: 298 K
Tabular data in the source: 0
pressure (bar)	uptake (mmol/g)
0.00298	0
0.151955	0.503817
0.250279	0.755725
0.399255	1.23664
0.625698	1.94656
0.998138	2.9542
1.5851	4.19084
