Adsorption isotherm of Carbon Dioxide on CPO-27-Mg(33%)
DOI: 10.1039/c5dt03137k
Article source: Figure 8
Adsorbate Carbon Dioxide: InChIKey CURLTUGMZLYLDI-UHFFFAOYSA-N
Kind: experiment
Temperature: 298 K
Tabular data in the source: 0
pressure (bar)	uptake (mmol/g)
0.060274	0.368437
0.102456	0.598579
0.162714	0.920744
0.253085	1.35772
0.400638	1.90872
0.629516	2.82755
1.00284	3.9967
1.58666	5.09036
