Adsorption isotherm of Nitrogen on CPO-27-Mg-c
DOI: 10.1039/c5dt03137k
Article source: Figure 4
Adsorbate Nitrogen: InChIKey IJGRMHOSHXDMSA-UHFFFAOYSA-N
Kind: experiment
Temperature: 77 K
Tabular data in the source: 0
pressure (bar)	uptake (mmol/g)
0	3.16944
0.002183	1.92496
0.00655	3.84987
0.008734	3.94705
0.017467	4.06355
0.019651	4.16073
0.028384	4.19945
0.045852	4.29633
0.061135	4.35437
0.078603	4.41236
0.093886	4.4704
0.10917	4.4701
0.122271	4.50873
0.141921	4.56668
0.157205	4.56639
0.179039	4.6243
0.19869	4.62391
0.229258	4.68165
0.251092	4.68123
0.279476	4.71957
0.296943	4.73867
0.325328	4.79645
0.349345	4.79598
0.399563	4.8339
0.451965	4.89121
0.5	4.92917
0.543668	4.98665
0.60262	5.04384
0.648472	5.08184
0.700873	5.15859
0.751092	5.17706
0.799127	5.25391
0.844978	5.27246
0.901747	5.40747
0.956332	5.56196
0.982533	5.77534
0.99345	6.04735
