Adsorption isotherm of Carbon Dioxide on CPO-27-Mg(83%)
DOI: 10.1039/c5dt03137k
Article source: Figure 8
Adsorbate Carbon Dioxide: InChIKey CURLTUGMZLYLDI-UHFFFAOYSA-N
Kind: experiment
Temperature: 298 K
Tabular data in the source: 0
pressure (bar)	uptake (mmol/g)
0.015076	0.115245
0.036144	0.160908
0.06625	0.252583
0.096356	0.344257
0.159575	0.527519
0.246862	0.733221
0.397329	1.0065
0.626006	1.3238
0.996059	1.70641
1.58867	2.10573
