Adsorption isotherm of Carbon Dioxide on CPO-27-Mg-a
DOI: 10.1039/c5dt03137k
Article source: Figure 2
Adsorbate Carbon Dioxide: InChIKey CURLTUGMZLYLDI-UHFFFAOYSA-N
Kind: experiment
Temperature: 298 K
Tabular data in the source: 0
pressure (bar)	uptake (mmol/g)
0	1.67442
0.004587	1.94315
0.006881	2.06718
0.011468	2.21189
0.018349	2.37726
0.03211	2.64599
0.06422	3.03876
0.100917	3.26615
0.133028	3.47287
0.199541	3.80362
0.263761	4.01034
0.330275	4.21705
0.396789	4.38243
0.463303	4.56848
0.534404	4.71318
0.59633	4.83721
0.665138	4.94057
0.729358	5.04393
0.798165	5.12661
0.864679	5.25065
0.928899	5.33333
0.995413	5.41602
1.06651	5.49871
1.13073	5.60207
