Adsorption isotherm of Carbon Dioxide on Mg-MOF-74
DOI: 10.1039/c5dt03137k
Article source: Figure 8
Adsorbate Carbon Dioxide: InChIKey CURLTUGMZLYLDI-UHFFFAOYSA-N
Kind: experiment
Temperature: 298 K
Tabular data in the source: 0
pressure (bar)	uptake (mmol/g)
0.018107	0.184566
0.036167	0.230317
0.060281	0.391573
0.096433	0.575617
0.156706	0.944054
0.25014	1.54289
0.397793	2.39467
0.632841	3.77604
1.00047	5.91708
1.59072	8.23677
