Adsorption isotherm of Carbon Dioxide on CPO-27-Mg(83%)
DOI: 10.1039/c5dt03137k
Article source: Figure 8
Adsorbate Carbon Dioxide: InChIKey CURLTUGMZLYLDI-UHFFFAOYSA-N
Kind: experiment
Temperature: 298 K
Tabular data in the source: 0
pressure (bar)	uptake (mmol/g)
0.002985	0
0.01791	0.068702
0.035821	0.068702
0.059701	0.091603
0.104478	0.183206
0.155224	0.206107
0.250746	0.29771
0.39403	0.480916
0.632836	0.641221
1	0.801527
1.58806	1.00763
