Adsorption isotherm of Nitrogen on CPO-27-Mg
DOI: 10.1039/c5dt03137k
Article source: Figure 3
Adsorbate Nitrogen: InChIKey IJGRMHOSHXDMSA-UHFFFAOYSA-N
Kind: experiment
Temperature: 323 K
Tabular data in the source: 0
pressure (bar)	uptake (mmol/g)
0.00645	0.014286
0.010622	0.035714
0.014414	0.057143
0.019345	0.078571
0.032622	0.121429
0.064104	0.257143
0.09938	0.4
0.132761	0.521429
0.198007	0.757143
