Adsorption isotherm of Argon on Desolvated C4H4N6Cu
DOI: 10.1039/C2dt12311h
Adsorbate Argon: InChIKey XKRFYHLGVUSROY-UHFFFAOYSA-N
Temperature: 77 K
Tabular data in the source: 0
pressure (bar)	uptake (cm3(STP)/g)
0.00273224	67.2938
0.00546448	117.853
0.0218579	119.711
0.0382514	121.569
0.057377	122.829
0.0819672	126.16
0.117486	127.102
0.191257	130.02
0.248634	132.169
0.300546	133.881
0.352459	135.592
0.398907	137.409
0.45082	140.209
0.480874	141.801
0.54918	143.737
0.595628	145.554
0.647541	147.266
0.699454	148.977
0.745902	150.25
0.797814	151.961
0.844262	153.778
0.896175	154.945
0.945355	157.254
