Adsorption isotherm of Carbon Dioxide on [Cu3(m-TATB)2Py(CH3OH)2]
DOI: 10.1039/B903932e
Adsorbate Carbon Dioxide: InChIKey CURLTUGMZLYLDI-UHFFFAOYSA-N
Temperature: 195 K
Tabular data in the source: 0
pressure (bar)	uptake (cm3(STP)/g)
0.00619484	4.49449
0.0127495	81.839
0.0324133	159.184
0.0520772	193.268
0.102329	214.898
0.205018	233.906
0.362329	248.326
0.530565	256.192
0.757791	265.368
1.0025	270.612
