Adsorption isotherm of Carbon Dioxide on [Cu3(m-TATB)2Py(CH3OH)2]
DOI: 10.1039/B903932e
Adsorbate Carbon Dioxide: InChIKey CURLTUGMZLYLDI-UHFFFAOYSA-N
Temperature: 273 K
Tabular data in the source: 0
pressure (bar)	uptake (cm3(STP)/g)
0.0171192	1.87264
0.0695562	4.49449
0.17006	10.3936
0.362329	18.9147
0.44317	19.5701
0.602665	23.5029
0.711909	25.4693
0.843002	26.7802
0.95006	29.4021
1.0025	29.4021
