Adsorption isotherm of Nitrogen on [Cu3(m-TATB)2Py(CH3OH)2]
DOI: 10.1039/B903932e
Adsorbate Nitrogen: InChIKey IJGRMHOSHXDMSA-UHFFFAOYSA-N
Temperature: 77 K
Tabular data in the source: 0
pressure (bar)	uptake (cm3(STP)/g)
0.00182509	2.5281
0.00400996	218.831
0.00837971	242.427
0.021489	255.536
0.0411528	264.713
0.119808	273.889
0.253086	279.133
0.51964	281.755
0.790565	283.066
0.991573	283.066
