Adsorption isotherm of Carbon Dioxide on Co(II)-doped MOF-5
DOI: 10.1016/j.jssc.2014.06.004
Adsorbate Carbon Dioxide: InChIKey CURLTUGMZLYLDI-UHFFFAOYSA-N
Temperature: 195 K
Tabular data in the source: 0
pressure (bar)	uptake (cm3(STP)/g)
0.171025	0.165138
0.173305	297.131
0.182427	363.823
0.184707	883.829
0.186987	837.168
0.189267	673.841
0.191548	453.847
0.209791	947.229
0.228033	970.612
0.264519	987.376
0.310126	1014.17
0.346611	1024.26
0.371694	1031
0.387657	1037.71
0.415021	1044.45
0.462907	1054.57
0.522196	1064.73
0.567803	1074.86
0.631652	1081.69
0.684099	1085.17
0.731987	1101.96
0.791276	1098.79
0.841443	1105.59
0.88933	1112.39
0.941778	1109.19
1.00107	1116.02
1.02843	1119.43
