Adsorption isotherm of Nitrogen on Co(II)-doped MOF-5
DOI: 10.1016/j.jssc.2014.06.004
Adsorbate Nitrogen: InChIKey IJGRMHOSHXDMSA-UHFFFAOYSA-N
Temperature: 77 K
Tabular data in the source: 0
pressure (bar)	uptake (cm3(STP)/g)
0.049683	593.895
0.0637951	603.863
0.0864343	611.364
0.140205	628.87
0.1969	633.96
0.24505	644
0.298891	651.569
0.344257	654.15
0.395262	661.712
0.443465	664.299
0.494505	666.892
0.554089	664.535
0.596619	667.11
0.79232	670.011
0.843377	670.12
0.95113	675.319
0.968114	680.324
