Adsorption isotherm of Nitrogen on Co(II)-doped MOF-5
DOI: 10.1016/j.jssc.2014.06.004
Adsorbate Nitrogen: InChIKey IJGRMHOSHXDMSA-UHFFFAOYSA-N
Temperature: 77 K
Tabular data in the source: 0
pressure (bar)	uptake (cm3(STP)/g)
0.00440452	578.891
0.0151692	660.902
0.0153454	636.058
0.0715999	703.258
0.125406	715.795
0.199049	730.859
0.230215	735.894
0.25851	745.893
0.332189	755.987
0.502345	761.319
0.553366	766.397
0.598751	766.493
0.649773	771.571
0.703649	774.17
0.746196	774.261
0.794417	774.364
0.890806	782.023
0.930464	789.561
0.94743	797.05
0.96718	811.999
