Adsorption isotherm of Nitrogen on Co(II)-doped MOF-5
DOI: 10.1016/j.jssc.2014.06.004
Adsorbate Nitrogen: InChIKey IJGRMHOSHXDMSA-UHFFFAOYSA-N
Temperature: 77 K
Tabular data in the source: 0
pressure (bar)	uptake (cm3(STP)/g)
0.00123327	626.09
0.00387598	653.424
0.0064306	693.181
0.00937283	678.281
0.0119979	708.1
0.0231677	732.969
0.0457013	755.377
0.0767796	772.834
0.0965823	780.33
0.116385	787.826
0.136205	792.837
0.156026	797.848
0.190028	802.889
0.260853	815.463
0.297675	822.995
0.34868	830.557
0.405374	835.646
0.462104	835.767
0.51029	840.839
0.558494	843.426
0.606697	846.013
0.657772	843.638
0.714484	846.243
0.757032	846.334
0.802398	848.915
0.856309	846.545
0.89884	849.12
0.949843	856.683
0.972501	861.7
