Adsorption isotherm of Carbon Dioxide on Co(II)-doped MOF-5
DOI: 10.1016/j.jssc.2014.06.004
Adsorbate Carbon Dioxide: InChIKey CURLTUGMZLYLDI-UHFFFAOYSA-N
Temperature: 195 K
Tabular data in the source: 0
pressure (bar)	uptake (cm3(STP)/g)
0.095774	116.924
0.111736	136.966
0.134539	163.694
0.166464	220.446
0.177866	603.81
0.180146	380.483
0.182427	550.489
0.184707	657.162
0.186987	807.168
0.189267	947.174
0.20523	973.884
0.248556	1007.33
0.27364	1017.4
0.335209	1040.9
0.364854	1054.31
0.401339	1064.41
0.442385	1074.52
0.487992	1077.98
0.540439	1088.12
0.602008	1098.28
0.654456	1105.09
0.709184	1115.24
0.814079	1118.85
0.921254	1125.8
0.975982	1135.95
1.03299	1129.44
