Adsorption isotherm of Nitrogen on Co(II)-doped MOF-5
DOI: 10.1016/j.jssc.2014.06.004
Adsorbate Nitrogen: InChIKey IJGRMHOSHXDMSA-UHFFFAOYSA-N
Temperature: 77 K
Tabular data in the source: 0
pressure (bar)	uptake (cm3(STP)/g)
0.0863463	623.786
0.126004	631.324
0.154335	636.354
0.191139	646.37
0.239307	653.926
0.304494	661.518
0.352679	666.59
0.423556	671.71
0.483106	674.321
0.528507	671.934
0.630569	679.605
0.681626	679.713
0.775231	679.913
0.863163	680.1
0.911366	682.688
0.94817	692.704
0.970774	705.174
