Adsorption isotherm of Carbon Dioxide on Co(II)-doped MOF-5
DOI: 10.1016/j.jssc.2014.06.004
Adsorbate Carbon Dioxide: InChIKey CURLTUGMZLYLDI-UHFFFAOYSA-N
Temperature: 195 K
Tabular data in the source: 0
pressure (bar)	uptake (cm3(STP)/g)
0.212071	903.902
0.264519	937.376
0.348891	970.936
0.380815	981.021
0.426422	991.144
0.465188	1004.58
0.524477	1011.41
0.574644	1021.54
0.627092	1028.35
0.68638	1035.17
0.734268	1041.97
0.793556	1048.8
0.946338	1059.2
1.00107	1062.69
1.02387	1062.75
