Adsorption isotherm of Carbon Dioxide on Co(II)-doped MOF-5
DOI: 10.1016/j.jssc.2014.06.004
Adsorbate Carbon Dioxide: InChIKey CURLTUGMZLYLDI-UHFFFAOYSA-N
Temperature: 195 K
Tabular data in the source: 0
pressure (bar)	uptake (cm3(STP)/g)
0.0524477	56.8073
0.102615	106.942
0.129979	150.349
0.141381	163.713
0.161903	197.101
0.173305	240.465
0.175585	803.804
0.180146	477.15
0.182427	917.156
0.184707	310.495
0.186987	1027.17
0.202949	1083.88
0.214351	1093.91
0.26908	1130.72
0.348891	1174.27
0.373975	1177.67
0.399058	1187.74
0.424142	1197.8
0.472029	1204.6
0.529038	1218.09
0.688661	1241.85
0.745669	1248.67
0.791276	1252.12
0.846004	1258.94
0.900732	1259.08
0.948618	1269.21
0.998786	1276.01
1.02387	1276.08
