Adsorption isotherm of Nitrogen on CuBTC
DOI: 10.1039/C2ta01125e
Adsorbate Nitrogen: InChIKey IJGRMHOSHXDMSA-UHFFFAOYSA-N
Temperature: 77 K
Tabular data in the source: 0
pressure (bar)	uptake (cm3(STP)/g)
0.0186115	132.558
0.0409453	136.047
0.0595568	138.663
0.0818906	139.535
0.0967798	139.535
0.115391	140.407
0.141447	142.151
0.163781	143.023
0.17867	143.023
0.204726	143.895
0.215893	143.895
0.234505	145.64
0.264284	146.512
0.279172	146.512
0.301506	146.512
0.32384	146.512
0.338729	146.512
0.353619	148.256
0.375952	148.256
0.394563	147.384
0.413175	148.256
0.431786	148.256
0.454121	148.256
0.476454	148.256
0.498788	149.128
0.517399	149.128
0.536011	150
0.5509	150
0.573234	150
0.59929	150
0.614179	150
0.629069	150
0.651402	150
0.673737	150
0.688625	150
0.710959	150.872
0.737015	150.872
0.751904	150.872
0.770515	150.872
0.789128	151.744
0.807739	151.744
0.826351	151.744
0.852407	151.744
0.87474	153.488
0.885907	153.488
0.904518	154.36
0.926852	155.233
0.949186	157.849
0.964075	162.209
