Adsorption isotherm of N-propane on Activated carbon Black Pearls I
DOI: 10.1021/ja01159a022
Article source: Table I
Adsorbate N-propane: InChIKey ATUOYWHBWRKTHZ-UHFFFAOYSA-N
Kind: experiment
Temperature: 298 K
Tabular data in the source: 0
pressure (bar)	uptake (mmol/g)
0.020932	0.791
0.058662	1.141
0.072261	1.223
0.111991	1.416
0.142655	1.532
0.185318	1.646
0.235981	1.769
0.28731	1.872
0.370636	2.006
0.441964	2.105
0.57262	2.254
0.714608	2.373
0.780869	2.454
0.854196	2.479
0.906859	2.51
