Adsorption isotherm of N-propane, Propene on Activated carbon Black Pearls I
DOI: 10.1021/ja01159a022
Article source: Table III
Adsorbate N-propane: InChIKey ATUOYWHBWRKTHZ-UHFFFAOYSA-N
Adsorbate Propene: InChIKey QQONPFPTGQHPMA-UHFFFAOYSA-N
Kind: experiment
Temperature: 298 K
Tabular data in the source: 0
pressure (bar)	N-propane fraction	N-propane uptake (mmol/g)	Propene fraction	Propene uptake (mmol/g)	total uptake (mmol/g)
1.01325	0.1104	0.279927	0.8896	2.53907	2.819
1.01325	0.1881	0.45664	0.8119	2.37436	2.831
1.01325	0.2816	0.732851	0.7184	2.09015	2.823
1.01325	0.3799	1.06832	0.6201	1.83868	2.907
1.01325	0.3959	1.0416	0.6041	1.7524	2.794
1.01325	0.4328	1.14955	0.5672	1.62245	2.772
1.01325	0.4351	1.15705	0.5649	1.68095	2.838
1.01325	0.491	1.3391	0.509	1.5879	2.927
1.01325	0.5188	1.36426	0.4812	1.46674	2.831
1.01325	0.522	1.39145	0.478	1.37155	2.763
1.01325	0.546	1.7088	0.454	0.8512	2.56
1.01325	0.5983	1.6381	0.4017	1.1549	2.793
1.01325	0.601	1.64537	0.399	1.13163	2.777
1.01325	0.6107	1.07118	0.3893	1.53382	2.605
1.01325	0.6736	1.88602	0.3264	0.933984	2.82
1.01325	0.7577	2.07113	0.2423	0.698871	2.77
1.01325	0.7695	2.01405	0.2305	0.710953	2.725
1.01325	0.841	2.30159	0.159	0.466408	2.768
1.01325	0.9158	2.4683	0.0842	0.276696	2.745
1.01325	0.9528	2.54104	0.0472	0.128961	2.67
