Adsorption isotherm of N-propane on Silica gel (Davison Chemical Company, 14/20 mesh)
DOI: 10.1021/ja01159a022
Article source: Table I
Adsorbate N-propane: InChIKey ATUOYWHBWRKTHZ-UHFFFAOYSA-N
Kind: experiment
Temperature: 298 K
Tabular data in the source: 0
pressure (bar)	uptake (mmol/g)
0.014799	0.0564
0.033331	0.1252
0.057995	0.198
0.095192	0.2986
0.133322	0.385
0.211849	0.5441
0.303308	0.702
0.405567	0.843
0.515958	1.01
0.623949	1.138
0.758604	1.288
0.903659	1.434
1.03325	1.562
