Adsorption isotherm of Propene on Silica gel (Davison Chemical Company, 14/20 mesh)
DOI: 10.1021/ja01159a022
Article source: Table II
Adsorbate Propene: InChIKey QQONPFPTGQHPMA-UHFFFAOYSA-N
Kind: experiment
Temperature: 298 K
Tabular data in the source: 0
pressure (bar)	uptake (mmol/g)
0.045596	0.3738
0.095192	0.7227
0.122123	0.7472
0.259045	1.129
0.264378	1.168
0.36197	1.401
0.337572	1.562
0.734206	1.918
0.740206	1.928
1.01405	2.184
