Adsorption isotherm of Propene on Activated carbon Black Pearls I
DOI: 10.1021/ja01159a022
Article source: Table II
Adsorbate Propene: InChIKey QQONPFPTGQHPMA-UHFFFAOYSA-N
Kind: experiment
Temperature: 298 K
Tabular data in the source: 0
pressure (bar)	uptake (mmol/g)
0.021998	0.567
0.047996	1.107
0.063595	1.171
0.094659	1.419
0.157987	1.648
0.174652	1.703
0.205316	1.786
0.255979	1.913
0.307975	2.041
0.391968	2.168
