Adsorption isotherm of N-propane, Propene on Silica gel (Davison Chemical Company, 14/20 mesh)
DOI: 10.1021/ja01159a022
Article source: Table III
Adsorbate N-propane: InChIKey ATUOYWHBWRKTHZ-UHFFFAOYSA-N
Adsorbate Propene: InChIKey QQONPFPTGQHPMA-UHFFFAOYSA-N
Kind: experiment
Temperature: 298 K
Tabular data in the source: 0
pressure (bar)	N-propane fraction	N-propane uptake (mmol/g)	Propene fraction	Propene uptake (mmol/g)	total uptake (mmol/g)
1.01325	0.2445	0.236837	0.7555	1.96016	2.197
1.01325	0.299	0.518549	0.701	1.49445	2.013
1.01325	0.404	0.606571	0.596	1.44543	2.052
1.01325	0.53	0.574746	0.47	1.46625	2.041
1.01325	0.5333	0.717476	0.4667	1.24552	1.963
1.01325	0.5356	0.613704	0.4644	1.3533	1.967
1.01325	0.614	0.708863	0.386	1.26514	1.974
1.01325	0.622	1.02731	0.378	0.823695	1.851
1.01325	0.6252	1.19189	0.3748	0.509109	1.701
1.01325	0.748	1.21898	0.252	0.467022	1.686
1.01325	0.671	0.20928	0.329	1.97072	2.18
1.01325	0.8964	0.504229	0.1036	1.48877	1.993
1.01325	0.921	0.571826	0.079	0.854174	1.426
