Adsorption isotherm of Nitrogen on C48H24N4O12Li0.06Zn2
DOI: 10.1021/Ja0740364
Adsorbate Nitrogen: InChIKey IJGRMHOSHXDMSA-UHFFFAOYSA-N
Temperature: 77 K
Tabular data in the source: 0
pressure (bar)	uptake (cm3(STP)/g)
0	90.3846
0.00252343	132.692
0.00504686	165.385
0.0302811	175
0.052992	182.692
0.0731794	186.538
0.100937	192.308
0.148882	200
0.191781	205.769
0.247296	215.385
0.295241	223.077
0.343186	230.769
0.391131	238.462
0.439077	246.154
0.487022	255.769
0.53749	290.385
0.580389	340.385
0.653568	409.615
0.681326	438.462
0.731794	463.462
0.777216	482.692
0.827685	501.923
0.873106	519.231
0.926098	536.538
