Adsorption isotherm of Nitrogen on C48H24N4O12Li0.06Zn2
DOI: 10.1021/Ja0740364
Adsorbate Nitrogen: InChIKey IJGRMHOSHXDMSA-UHFFFAOYSA-N
Temperature: 77 K
Tabular data in the source: 0
pressure (bar)	uptake (cm3(STP)/g)
0.0024796	97.7499
0.00445447	124.714
0.0187312	126.945
0.0580043	134.764
0.106182	141.45
0.152578	148.138
0.200748	153.7
0.24891	158.139
0.298862	163.699
0.348807	168.136
0.395202	174.824
0.443412	186.004
0.486323	203.932
0.534685	236.46
0.584846	271.234
0.627764	290.285
0.685032	321.68
0.72795	340.731
0.779757	356.402
0.824434	372.08
0.878032	388.872
0.928033	401.174
