Adsorption isotherm of Nitrogen on Zn2(NDC)2(diPyNI)
DOI: 10.1021/Ja0740364
Adsorbate Nitrogen: InChIKey IJGRMHOSHXDMSA-UHFFFAOYSA-N
Temperature: 77 K
Tabular data in the source: 0
pressure (bar)	uptake (cm3(STP)/g)
0.00270465	0.0271964
0.0107553	0.0706905
0.0508909	0.217414
0.10426	0.325971
0.154925	0.407331
0.210891	0.477779
0.261501	0.526487
0.309461	0.580651
0.362713	0.61846
0.415956	0.650827
0.466539	0.683208
0.517113	0.710148
0.570338	0.731631
0.618253	0.758584
0.671478	0.780067
0.719384	0.801578
0.772617	0.828503
0.823183	0.85
0.876398	0.866041
0.924313	0.892995
0.972201	0.903622
