Adsorption isotherm of Nitrogen on Zn2(NDC)2(diPyNI)
DOI: 10.1021/Ja0740364
Adsorbate Nitrogen: InChIKey IJGRMHOSHXDMSA-UHFFFAOYSA-N
Temperature: 77 K
Tabular data in the source: 0
pressure (bar)	uptake (cm3(STP)/g)
0	67.3077
0.00252343	169.231
0.0126171	180.769
0.0428983	188.462
0.0656091	192.308
0.08832	198.077
0.103461	200
0.148882	203.846
0.199351	211.538
0.244773	219.231
0.292718	225
0.343186	230.769
0.391131	234.615
0.436553	242.308
0.484498	248.077
0.53749	253.846
0.582912	263.462
0.633381	271.154
0.678802	280.769
0.724224	290.385
0.774693	294.231
0.825161	303.846
0.873106	309.615
0.921051	321.154
