Adsorption isotherm of Nitrogen on C48H24N4O12Li0.06Zn2
DOI: 10.1021/Ja0740364
Adsorbate Nitrogen: InChIKey IJGRMHOSHXDMSA-UHFFFAOYSA-N
Temperature: 77 K
Tabular data in the source: 0
pressure (bar)	uptake (cm3(STP)/g)
0.000721048	101.123
0.00443044	121.343
0.0115928	125.829
0.0544231	132.521
0.102609	140.331
0.15436	148.136
0.200756	154.824
0.250708	160.384
0.29708	163.701
0.348815	169.26
0.391621	172.581
0.443404	184.88
0.486307	201.685
0.534653	231.966
0.579346	249.892
0.633072	284.661
0.683233	319.435
0.726151	338.486
0.776192	356.406
0.826233	374.325
0.876266	391.121
0.924516	407.92
