Adsorption isotherm of Nitrogen on C48H24N4O12Li0.06Zn2
DOI: 10.1021/Ja0740364
Adsorbate Nitrogen: InChIKey IJGRMHOSHXDMSA-UHFFFAOYSA-N
Temperature: 77 K
Tabular data in the source: 0
pressure (bar)	uptake (cm3(STP)/g)
0.00544549	0.0761612
0.0108819	0.14688
0.0540117	0.494948
0.0995566	0.696064
0.155694	0.869912
0.206422	0.989367
0.262415	1.07614
0.31573	1.15205
0.363699	1.21165
0.414319	1.2658
0.467579	1.30905
0.518181	1.35232
0.571433	1.39013
0.622016	1.42251
0.669931	1.44946
0.723174	1.48183
0.773748	1.50877
0.826982	1.53569
0.877547	1.55719
0.928103	1.57325
0.978668	1.59474
1.02126	1.61628
