Adsorption isotherm of Hydrogen on C48H24N4O12Li0.06Zn2
DOI: 10.1021/Ja0740364
Adsorbate Hydrogen: InChIKey UFHFLCQGNIYNRP-UHFFFAOYSA-N
Temperature: 87 K
Tabular data in the source: 0
pressure (bar)	uptake (wt%)
0.00251334	0.0152866
0.0100296	0.0458599
0.0476029	0.193631
0.100121	0.346497
0.155074	0.463694
0.207513	0.565605
0.259929	0.652229
0.312321	0.723567
0.364704	0.789809
0.412093	0.84586
0.464461	0.901911
0.516821	0.952866
0.569173	0.998726
0.619028	1.03949
0.66889	1.08535
0.726214	1.12611
0.773563	1.15669
0.823401	1.18726
0.875722	1.21274
0.923063	1.23822
0.972894	1.26369
1.01523	1.27389
