Adsorption isotherm of Hydrogen on Zn2(NDC)2(diPyNI)
DOI: 10.1021/Ja0740364
Adsorbate Hydrogen: InChIKey UFHFLCQGNIYNRP-UHFFFAOYSA-N
Temperature: 87 K
Tabular data in the source: 0
pressure (bar)	uptake (wt%)
0.00248545	0.00900901
0.00745635	0.027027
0.0574064	0.111111
0.109895	0.183183
0.157397	0.243243
0.212453	0.291291
0.262494	0.339339
0.312549	0.381381
0.362604	0.423423
0.412683	0.456456
0.465261	0.492492
0.515339	0.525526
0.565417	0.558559
0.617996	0.594595
0.668096	0.618619
0.720705	0.642643
0.770813	0.663664
0.823445	0.678679
0.871067	0.690691
0.926214	0.702703
0.971306	0.723724
