Adsorption isotherm of Argon on Graphite
DOI: 10.1016/0008-6223(87)90210-7
Adsorbate Argon: InChIKey XKRFYHLGVUSROY-UHFFFAOYSA-N
Temperature: 90 K
Tabular data in the source: 0
pressure (bar)	uptake (cm3(STP)/g)
0.000237982	0.289878
0.000272473	0.345649
0.000283213	0.362966
0.000417959	0.404828
0.000592849	0.497586
0.000685668	0.559683
0.000712433	0.623076
0.00073376	0.599371
0.000882478	0.661307
0.000991411	0.722312
0.00107148	0.758656
0.0012637	0.845153
0.00143286	0.997942
0.00167342	1.12254
0.0019728	1.33872
0.0023047	1.43431
0.00279984	1.50742
0.00317529	1.72869
0.00363742	1.88836
0.00378202	1.88875
0.00433415	1.94613
0.00552795	2.06586
0.00823861	2.25981
0.00916925	2.3281
0.0101068	2.3751
0.0118109	2.4238
0.0140739	2.47375
0.015817	2.54864
0.0188466	2.62661
0.021602	2.62851
0.0235778	2.70767
0.0267574	2.78978
0.0318966	2.68572
0.0348116	2.79366
0.0376352	2.79481
0.0423013	2.8239
0.0444083	2.88017
0.0600653	2.94149
0.0675124	2.97211
0.0804551	3.00397
0.086118	3.09412
0.0930966	3.12568
0.112007	3.25298
0.119901	3.31814
0.140142	3.28871
0.182271	3.45756
0.219269	3.66914
0.311116	4.29556
0.33966	4.25592
0.424717	4.74262
0.463482	5.03023
0.481878	5.08049
0.546798	5.3375
0.590917	5.66091
0.657341	6.30437
0.75302	6.88667
0.82175	7.30431
