Adsorption isotherm of Nitrogen on Graphite
DOI: 10.1016/0008-6223(87)90210-7
Adsorbate Nitrogen: InChIKey IJGRMHOSHXDMSA-UHFFFAOYSA-N
Temperature: 77 K
Tabular data in the source: 0
pressure (bar)	uptake (cm3(STP)/g)
2.76e-05	0.0367367
3.56e-05	0.0546085
4.52e-05	0.080035
5.67e-05	0.114025
6.62e-05	0.145051
8.42e-05	0.200841
9.3e-05	0.238047
0.00010113	0.255447
0.000118043	0.294181
0.000130248	0.320175
0.00014989	0.358421
0.000167784	0.412875
0.000190411	0.462235
0.000207182	0.503122
0.000225482	0.563416
0.000259371	0.595861
0.000286182	0.648513
0.000315654	0.676354
0.000338541	0.695556
0.00041172	0.72498
0.000473655	0.777705
0.000529714	0.799578
0.000592614	0.857875
0.000644884	0.947125
0.000774304	1.13806
0.000830925	1.25656
0.000867045	1.36807
0.000956691	1.48895
0.00113212	1.66653
0.00126626	1.73792
0.00143636	1.83816
0.00195408	2.0266
0.00221632	2.11324
0.00265688	2.08109
0.00318604	2.1387
0.00366312	2.13685
0.00398301	2.13575
0.00484297	2.16371
0.00658312	2.15962
0.00726126	2.25233
0.0105884	2.37855
0.01217	2.2773
0.0141923	2.34074
0.0180004	2.47405
0.021588	2.57893
0.0269694	2.36486
0.029751	2.50169
0.0361653	2.46342
0.041014	2.53248
0.0565486	2.60035
0.0716955	2.63371
0.087195	2.74512
0.112067	2.66405
0.125317	2.70032
0.142135	2.81577
0.156774	2.93666
0.177895	3.24134
0.213377	3.42711
0.245443	3.62447
0.302834	3.99843
0.353319	4.35025
0.400783	4.60117
0.487644	5.07635
0.577198	5.84559
0.628038	6.36266
0.673964	7.02521
0.733412	7.75609
0.754602	8.32588
0.809969	9.45793
0.822011	10.4465
