Adsorption isotherm of Nitrogen on Graphite
DOI: 10.1016/0008-6223(87)90210-7
Adsorbate Nitrogen: InChIKey IJGRMHOSHXDMSA-UHFFFAOYSA-N
Temperature: 77 K
Tabular data in the source: 0
pressure (bar)	uptake (cm3(STP)/g)
0.00948571	2.31429
0.0262407	2.66014
0.040949	2.74848
0.0556382	2.92254
0.0766772	2.92629
0.110301	3.10372
0.129237	3.1071
0.148153	3.19619
0.160719	3.45558
0.179673	3.37324
0.196466	3.54767
0.236402	3.72623
0.263677	4.07396
0.290989	4.25027
0.316217	4.34048
0.339303	4.60175
0.368738	4.69272
0.425448	5.13142
0.46328	5.3096
0.47797	5.48365
0.513736	5.49003
0.555719	5.9261
0.593551	6.10428
0.620806	6.53773
0.646034	6.62795
0.666978	7.06027
0.677478	7.14786
0.704772	7.40988
0.742527	7.93092
0.786576	8.53879
0.805378	9.14217
0.832481	10.2613
0.861707	11.2952
0.898777	14.9019
0.941454	21.6812
0.943423	41.2252
0.94468	35.5681
0.94827	28.8827
0.94886	26.2256
