Adsorption isotherm of Argon on Graphite
DOI: 10.1016/0008-6223(87)90210-7
Adsorbate Argon: InChIKey XKRFYHLGVUSROY-UHFFFAOYSA-N
Temperature: 77 K
Tabular data in the source: 0
pressure (bar)	uptake (cm3(STP)/g)
4.76719e-05	0.233953
5.78779e-05	0.271018
6.37827e-05	0.284683
8.05309e-05	0.32036
9.13866e-05	0.333304
0.000138734	0.430265
0.000146982	0.483737
0.000187509	0.493883
0.000200499	0.600268
0.000231906	0.668636
0.000248172	0.716051
0.000338495	0.906017
0.000411162	0.970915
0.000499129	1.14685
0.000617921	1.32869
0.000674113	1.47956
0.000787178	1.69702
0.000851006	1.69772
0.000928523	1.85405
0.00169626	2.41918
0.00214206	2.64399
0.00231517	2.75012
0.00250278	2.77816
0.00265383	2.72544
0.00328801	2.78218
0.00444757	2.81388
0.00480643	2.98439
0.00656467	3.04808
0.00805513	3.08124
0.00969131	3.20673
0.0120081	3.24178
0.0131082	3.27501
0.0147344	3.27703
0.0165624	3.27906
0.0211268	3.41367
0.0251671	3.65781
0.028017	3.62442
0.0305855	3.62611
0.0330575	3.77166
0.0417587	3.92629
0.0483292	3.96777
0.0548369	4.20926
0.060443	4.29424
0.073415	4.64685
0.0816926	4.92917
0.0926814	5.332
0.100141	5.82268
0.114717	6.36048
0.13014	6.94759
0.147636	7.5889
0.1627	7.97157
0.179233	8.87722
0.197434	9.98249
0.219369	13.3761
0.239096	17.2373
0.248417	19.3772
0.257893	24.7224
