Adsorption isotherm of Nitrogen on Graphite
DOI: 10.1016/0008-6223(87)90210-7
Adsorbate Nitrogen: InChIKey IJGRMHOSHXDMSA-UHFFFAOYSA-N
Temperature: 90 K
Tabular data in the source: 0
pressure (bar)	uptake (cm3(STP)/g)
4.32242e-05	0.103031
4.76834e-05	0.112147
5.3343e-05	0.12206
5.96688e-05	0.130975
6.6757e-05	0.144593
7.46667e-05	0.152963
8.35213e-05	0.164135
9.47474e-05	0.178631
0.000113681	0.202817
0.000127162	0.21763
0.000152548	0.240172
0.000170654	0.261401
0.000412531	0.46604
0.000461484	0.507235
0.000664197	0.626597
0.000743014	0.681985
0.000842747	0.721415
0.00106919	0.818858
0.0011958	0.854038
0.00128265	0.903675
0.00145464	0.942431
0.00162715	1.01126
0.00184556	1.06973
0.00237398	1.18011
0.00269257	1.24833
0.00341521	1.3578
0.00471094	1.5188
0.00581081	1.65222
0.00736779	1.69779
0.0080134	1.77099
0.00896143	1.821
0.0105939	1.79376
0.0127045	1.87015
0.0161086	1.92173
0.0185228	1.94784
0.0210013	1.94658
0.025187	2.05853
0.0297815	2.08621
0.0410551	2.11257
0.0472038	2.11106
0.0566118	2.23247
0.0659929	2.16819
0.0802596	2.29273
0.0989298	2.22607
0.121985	2.28779
0.156844	2.35072
0.175383	2.383
0.20739	2.4496
0.24526	2.55411
0.274225	2.55264
0.35755	2.62266
0.357731	2.85613
0.405674	2.93659
0.486575	3.14993
0.551878	3.33205
0.626053	3.62632
0.662278	3.89229
0.751291	4.23604
0.783681	4.48288
