Adsorption isotherm of Nitrogen on C44H30O15Zn4
DOI: 10.1021/Cg201552g
Adsorbate Nitrogen: InChIKey IJGRMHOSHXDMSA-UHFFFAOYSA-N
Temperature: 77 K
Tabular data in the source: 0
pressure (bar)	uptake (cm3(STP)/g)
0.00245954	20.9709
0.00737863	21.9417
0.00983818	22.6214
0.0245954	23.6893
0.0467313	24.466
0.0664077	24.7573
0.081165	25.1456
0.0983818	25.3398
0.10822	25.3398
0.127896	25.534
0.137734	25.6311
0.189385	25.8252
0.233657	26.0194
0.285307	26.3107
0.334498	26.4078
0.37877	26.6019
0.425501	26.8932
0.477152	27.0874
0.523883	27.2816
0.568155	27.4757
0.617346	27.6699
0.664077	27.8641
0.710808	27.8641
0.75754	27.9612
0.80919	27.8641
0.860841	28.2524
0.902653	28.6408
0.937086	28.932
