Adsorption isotherm of Carbon Dioxide on Ni-DBM-BPY
DOI: 10.1002/anie.201104130
Adsorbate Carbon Dioxide: InChIKey CURLTUGMZLYLDI-UHFFFAOYSA-N
Temperature: 303 K
Tabular data in the source: 0
pressure (bar)	uptake (mmol/g)
0.647582	0.147925
1.21096	0.158489
1.74617	0.214827
3.07012	0.250038
4.4504	0.327503
4.92927	0.299334
6.0842	0.345109
7.23913	0.334545
8.30955	0.436658
9.23913	0.457785
9.91519	0.577503
10.4222	1.03525
11.1546	1.84863
12.056	2.07046
13.0983	2.14088
14.1124	2.16905
14.7039	2.20778
15.549	2.21483
16.3659	2.22187
17.5208	2.27469
18.0842	2.32046
18.6476	2.29933
