Adsorption isotherm of Nitrogen on Ni-DBM-BPY
DOI: 10.1002/anie.201104130
Adsorbate Nitrogen: InChIKey IJGRMHOSHXDMSA-UHFFFAOYSA-N
Temperature: 214 K
Tabular data in the source: 0
pressure (bar)	uptake (wt%)
2.62613	0.376676
7.43141	0.687017
9.74825	0.857204
13.5238	1.06744
18.4149	1.35775
22.4479	1.51793
24.9364	1.50792
26.6525	1.74818
30.5997	1.74818
33.174	1.95841
35.5766	1.86832
41.4116	2.16865
43.042	4.37107
44.9298	5.28207
46.9034	5.73256
49.1344	5.73256
50.5931	5.84268
52.6525	5.97283
56.8572	6.17305
