Adsorption isotherm of Nitrogen on Ni-DBM-BPY
DOI: 10.1002/anie.201104130
Adsorbate Nitrogen: InChIKey IJGRMHOSHXDMSA-UHFFFAOYSA-N
Temperature: 303 K
Tabular data in the source: 0
pressure (bar)	uptake (wt%)
0.223494	0.126401
2.02547	0.236522
3.91326	0.356654
5.2862	0.176456
6.48752	0.266555
10.4347	0.236522
15.3258	0.186467
18.9298	0.156434
23.0486	0.2165
26.0519	0.2165
26.1377	0.396698
27.9397	0.406709
30.3423	0.196478
31.5436	0.376676
34.0321	0.356654
34.8902	0.196478
36.3489	0.266555
36.5205	0.456764
40.1245	0.276566
44.3291	0.2165
46.4743	0.206489
50.1641	0.236522
