Adsorption isotherm of Nitrogen on Ni-DBM-BPY
DOI: 10.1002/anie.201104130
Adsorbate Nitrogen: InChIKey IJGRMHOSHXDMSA-UHFFFAOYSA-N
Temperature: 204 K
Tabular data in the source: 0
pressure (bar)	uptake (wt%)
5.11458	0.646973
9.66244	1.02739
13.3522	1.28768
17.9001	1.62805
20.5601	1.78823
22.3621	1.81826
24.6789	1.98845
26.2235	1.96843
28.5403	2.19868
30.2565	2.38889
32.6591	4.03069
34.6327	5.05181
36.6921	5.53234
40.6393	5.73256
43.9001	6.01287
46.6459	6.24312
50.3357	6.03289
54.2829	6.10297
55.9991	6.07294
57.8011	5.9528
