Adsorption isotherm of Carbon Dioxide on TPA-Activated at 180C
DOI: 10.1021/ie5046044
Article source: Figure 4
Adsorbate Carbon Dioxide: InChIKey CURLTUGMZLYLDI-UHFFFAOYSA-N
Kind: experiment
Temperature: 298 K
Tabular data in the source: 0
pressure (bar)	uptake (mmol/g)
0.002813	0.136531
0.009469	0.290157
0.052102	0.680362
0.113141	0.88434
0.221551	1.11241
0.39126	1.3105
0.709206	1.44591
0.992476	1.59532
2.39058	1.94203
3.52275	2.21409
4.22137	2.36409
5.46629	2.60838
6.72079	2.97379
