Adsorption isotherm of Methane on TBA-Activated at 120C
DOI: 10.1021/ie5046044
Article source: Figure 4
Adsorbate Methane: InChIKey VNWKTOKETHGBQD-UHFFFAOYSA-N
Kind: experiment
Temperature: 298 K
Tabular data in the source: 0
pressure (bar)	uptake (mmol/g)
0.008989	0.012349
0.013002	0.01821
0.020704	0.027979
0.041938	0.051158
0.082252	0.083612
0.162633	0.143801
0.321515	0.225649
0.650978	0.326395
0.987623	0.400718
1.318	0.462596
1.63644	0.507384
2.25484	0.56816
3.00935	0.683177
3.42096	0.704682
3.79668	0.741766
4.28162	0.772928
5.02598	0.822089
5.53338	0.856557
6.54735	0.892685
