Adsorption isotherm of Methane on TBA-Activated at 180C
DOI: 10.1021/ie5046044
Article source: Figure 4
Adsorbate Methane: InChIKey VNWKTOKETHGBQD-UHFFFAOYSA-N
Kind: experiment
Temperature: 298 K
Tabular data in the source: 0
pressure (bar)	uptake (mmol/g)
0.006773	0.001972
0.065462	0.023759
0.109342	0.040474
0.204329	0.068965
0.407117	0.12625
0.680021	0.192196
0.967607	0.238404
1.72326	0.341392
2.37467	0.406475
2.97221	0.455077
3.72011	0.49918
4.40213	0.553114
5.12634	0.60045
6.01773	0.638659
6.84122	0.693281
