Adsorption isotherm of Methane on TPA-Activated at 90C
DOI: 10.1021/ie5046044
Article source: Figure 4
Adsorbate Methane: InChIKey VNWKTOKETHGBQD-UHFFFAOYSA-N
Kind: experiment
Temperature: 298 K
Tabular data in the source: 0
pressure (bar)	uptake (mmol/g)
0.006734	0.001572
0.0627	0.019454
0.108115	0.030721
0.201516	0.059045
0.406007	0.102823
0.682159	0.147188
1.69142	0.25613
2.3699	0.311422
2.99323	0.343314
3.78049	0.378474
4.53336	0.431216
5.43618	0.460134
6.86598	0.507257
