Adsorption isotherm of Carbon Dioxide on TBA-Activated at 180C
DOI: 10.1021/ie5046044
Article source: Figure 4
Adsorbate Carbon Dioxide: InChIKey CURLTUGMZLYLDI-UHFFFAOYSA-N
Kind: experiment
Temperature: 298 K
Tabular data in the source: 0
pressure (bar)	uptake (mmol/g)
0.001393	0.120171
0.006641	0.274762
0.060879	0.675151
0.113362	0.862769
0.214566	0.985651
0.374982	1.11452
0.665827	1.28621
0.9087	1.39592
1.65272	1.5785
2.2379	1.66155
2.93514	1.73118
4.10213	1.97709
4.47808	2.03865
5.82639	2.14582
6.56598	2.28139
