Adsorption isotherm of Carbon Dioxide on TBA-Activated at 120C
DOI: 10.1021/ie5046044
Article source: Figure 4
Adsorbate Carbon Dioxide: InChIKey CURLTUGMZLYLDI-UHFFFAOYSA-N
Kind: experiment
Temperature: 298 K
Tabular data in the source: 0
pressure (bar)	uptake (mmol/g)
0.001729	0.1774
0.008475	0.410693
0.061999	0.91164
0.112264	1.12664
0.218475	1.36397
0.401941	1.60194
0.676936	1.75257
0.955728	1.89905
1.71616	2.05615
2.40354	2.2055
3.10669	2.29519
3.79654	2.4134
4.79061	2.51173
5.80793	2.69547
6.98452	2.80575
