Adsorption isotherm of Carbon Dioxide on TPA-Activated at 90C
DOI: 10.1021/ie5046044
Article source: Figure 4
Adsorbate Carbon Dioxide: InChIKey CURLTUGMZLYLDI-UHFFFAOYSA-N
Kind: experiment
Temperature: 298 K
Tabular data in the source: 0
pressure (bar)	uptake (mmol/g)
0.002361	0.271747
0.00865	0.416118
0.062267	0.855824
0.119187	1.07654
0.228034	1.14947
0.425229	1.35417
0.714785	1.59532
0.950865	1.59532
1.68332	1.8188
2.48462	1.94203
2.97999	2.07361
4.17613	2.21409
5.41364	2.28787
6.83878	2.44287
