Adsorption isotherm of Methane on TPA-Activated at 180C
DOI: 10.1021/ie5046044
Article source: Figure 4
Adsorbate Methane: InChIKey VNWKTOKETHGBQD-UHFFFAOYSA-N
Kind: experiment
Temperature: 298 K
Tabular data in the source: 0
pressure (bar)	uptake (mmol/g)
0.009405	0.003048
0.015779	0.005149
0.023264	0.007146
0.042178	0.013322
0.087036	0.027398
0.157822	0.047832
0.325791	0.086286
0.67259	0.150639
0.941779	0.189487
1.25214	0.230669
1.58117	0.246297
2.27261	0.290157
3.10125	0.341828
4.01913	0.364988
4.81865	0.389715
5.20821	0.4027
5.77615	0.444311
6.74846	0.459116
