Adsorption isotherm of Nitrogen on AH@BUT-51
DOI: 10.1039/c5ta00963d
Article source: Figure 7
Adsorbate Nitrogen: InChIKey IJGRMHOSHXDMSA-UHFFFAOYSA-N
Kind: experiment
Temperature: 77 K
Tabular data in the source: 0
pressure (bar)	uptake (cm3(STP)/g)
0	0
0.002273	23.0653
0.002566	49.2965
0.004869	75.0754
0.009146	97.2362
0.039473	107.186
0.049556	108.09
0.077768	108.995
0.08784	108.995
0.10598	109.899
0.130162	110.804
0.144243	108.995
0.15434	111.256
0.178513	111.256
0.194609	109.447
0.204706	111.709
0.22687	112.161
0.244973	109.899
0.255077	112.613
0.27925	112.613
0.293325	110.352
0.305447	113.518
0.345705	110.804
0.357821	113.518
0.392047	111.709
0.408182	113.518
0.446441	112.161
0.458547	113.97
0.494796	113.065
0.510932	114.874
0.547197	115.327
0.561298	115.327
0.595568	117.588
0.611668	116.231
0.647968	119.849
0.664058	117.588
0.696334	121.658
0.7104	118.492
0.750758	124.824
0.7628	120.754
0.80116	128.442
0.809156	123.015
0.851571	132.965
0.859547	125.729
0.899967	137.487
0.909943	128.894
0.928219	142.01
0.960349	132.965
0.968564	146.985
0.998714	141.106
1.00698	160.101
