Adsorption isotherm of Nitrogen on mixed monomer FLT polymers 90:10
DOI: 10.1021/jacs.7b05555
Article source: Figure 5
Adsorbate Nitrogen: InChIKey IJGRMHOSHXDMSA-UHFFFAOYSA-N
Kind: experiment
Temperature: 77 K
Tabular data in the source: 0
pressure (bar)	uptake (cm3(STP)/g)
0	178.151
0.004503	191.597
0.024768	233.613
0.056292	272.269
0.076557	289.076
0.099073	305.882
0.117087	319.328
0.139603	332.773
0.159868	347.899
0.177882	361.345
0.195895	376.471
0.247683	411.765
0.29722	458.824
0.353512	529.412
0.423313	546.219
0.47285	551.26
0.504373	552.941
0.556162	559.664
0.60795	561.345
0.657487	564.706
0.709275	568.067
0.752057	571.429
0.781328	573.109
0.815103	578.151
0.830865	578.151
0.85113	579.832
0.873647	581.513
0.887157	583.193
0.900667	584.874
0.91868	588.235
0.927687	588.235
0.941197	591.597
0.950203	593.277
0.965965	598.319
0.977223	603.361
0.98623	610.084
0.997488	620.168
1.0155	652.101
1.01325	658.824
0.988482	635.294
0.970468	620.168
0.947952	610.084
0.9457	608.403
0.934442	601.681
0.909673	598.319
0.880402	593.277
0.873647	593.277
0.848878	588.235
0.833117	588.235
0.808348	586.555
0.779077	583.193
0.745302	581.513
0.709275	579.832
0.657487	578.151
0.605698	574.79
0.55391	571.429
0.502122	566.387
0.452585	563.025
0.400797	559.664
0.353512	546.219
0.306227	504.202
