Adsorption isotherm of Nitrogen on FLT-COF-2
DOI: 10.1021/jacs.7b05555
Article source: Figure 2
Adsorbate Nitrogen: InChIKey IJGRMHOSHXDMSA-UHFFFAOYSA-N
Kind: experiment
Temperature: 77 K
Tabular data in the source: 0
pressure (bar)	uptake (cm3(STP)/g)
0	103.349
0.007855	116.746
0.027491	120.574
0.054983	130.144
0.078547	133.971
0.106038	139.713
0.121747	139.713
0.141384	143.541
0.164948	149.282
0.188512	149.282
0.204221	149.282
0.251349	153.11
0.306331	156.938
0.357387	160.766
0.408442	164.593
0.463424	166.507
0.51448	166.507
0.549826	170.335
0.608735	174.163
0.663718	176.077
0.714773	177.99
0.754047	177.99
0.781538	181.818
0.812956	181.818
0.840448	185.646
0.860084	185.646
0.879721	187.56
0.903285	187.56
0.938631	191.388
0.962195	193.301
0.981831	199.043
0.989686	206.699
1.00147	218.182
0.942558	200.957
0.915067	199.043
0.899358	197.129
0.883648	197.129
0.871866	195.215
0.85223	195.215
0.83652	195.215
0.812956	195.215
0.781538	193.301
0.750119	193.301
0.706919	193.301
0.655863	193.301
0.608735	191.388
0.55768	191.388
0.510552	187.56
0.45557	185.646
0.404515	183.732
0.353459	179.904
0.306331	179.904
0.259203	174.163
0.204221	174.163
0.141384	166.507
