Adsorption isotherm of Nitrogen on FLT-COF-1
DOI: 10.1021/jacs.7b05555
Article source: Figure 2
Adsorbate Nitrogen: InChIKey IJGRMHOSHXDMSA-UHFFFAOYSA-N
Kind: experiment
Temperature: 77 K
Tabular data in the source: 0
pressure (bar)	uptake (cm3(STP)/g)
0	132.057
0.003927	141.627
0.003927	149.282
0.007855	158.852
0.011782	164.593
0.011782	171.292
0.031419	215.311
0.070692	256.459
0.078547	266.029
0.10211	283.254
0.125674	300.478
0.133529	304.306
0.137456	310.048
0.164948	321.531
0.180657	334.928
0.204221	350.239
0.208148	355.981
0.247422	382.775
0.306331	428.708
0.361314	543.541
0.435933	556.938
0.483061	558.852
0.506625	564.593
0.561608	566.507
0.612663	570.335
0.667645	574.163
0.714773	579.904
0.757974	581.818
0.789392	587.56
0.809029	587.56
0.83652	591.388
0.860084	593.301
0.887576	597.129
0.91114	600.957
0.930776	604.785
0.95434	608.612
0.966122	614.354
0.981831	622.01
0.985759	629.665
0.993613	637.321
0.993613	646.89
0.997541	656.459
1.01325	715.789
0.989686	683.254
0.977904	652.632
0.962195	633.493
0.938631	622.01
0.915067	612.44
0.887576	604.785
0.871866	602.871
0.85223	599.043
0.832593	597.129
0.809029	593.301
0.789392	593.301
0.754047	587.56
0.706919	585.646
0.659791	581.818
0.608735	577.99
0.553753	574.163
0.510552	570.335
0.45557	564.593
0.404515	560.766
0.353459	547.368
0.306331	445.933
0.251349	390.431
0.208148	359.809
