Adsorption isotherm of Nitrogen on mixed monomer FLT polymers 50:50
DOI: 10.1021/jacs.7b05555
Article source: Figure 5
Adsorbate Nitrogen: InChIKey IJGRMHOSHXDMSA-UHFFFAOYSA-N
Kind: experiment
Temperature: 77 K
Tabular data in the source: 0
pressure (bar)	uptake (cm3(STP)/g)
-0.004503	67.2269
0.004503	73.9496
0.024768	84.0336
0.063047	90.7563
0.076557	94.1176
0.096822	97.479
0.119338	99.1597
0.139603	100.84
0.157617	104.202
0.180133	104.202
0.198147	107.563
0.249935	110.924
0.301723	112.605
0.353512	115.966
0.4053	117.647
0.454837	121.008
0.504373	124.37
0.556162	124.37
0.610202	126.05
0.66199	129.412
0.711527	131.092
0.749805	132.773
0.779077	134.454
0.8106	136.134
0.830865	137.815
0.853382	139.496
0.873647	142.857
0.887157	144.538
0.90517	144.538
0.91868	147.899
0.93219	151.26
0.9457	152.941
0.954707	157.983
0.963713	161.345
0.97272	166.387
0.983978	171.429
0.990733	176.471
0.997488	184.874
1.00199	191.597
1.00424	211.765
1.0155	248.74
0.995237	203.361
0.977223	184.874
0.95921	174.79
0.93219	161.345
0.923183	157.983
0.914177	157.983
0.900667	154.622
0.887157	154.622
0.873647	151.26
0.85113	149.58
0.830865	149.58
0.808348	147.899
0.779077	146.218
0.745302	144.538
0.709275	144.538
0.655235	144.538
0.605698	141.176
0.55391	139.496
0.502122	137.815
0.452585	136.134
0.400797	134.454
0.349008	134.454
0.299472	132.773
0.247683	127.731
0.198147	124.37
0.139603	121.008
