Adsorption isotherm of Nitrogen on mixed monomer FLT polymers 75:25
DOI: 10.1021/jacs.7b05555
Article source: Figure 5
Adsorbate Nitrogen: InChIKey IJGRMHOSHXDMSA-UHFFFAOYSA-N
Kind: experiment
Temperature: 77 K
Tabular data in the source: 0
pressure (bar)	uptake (cm3(STP)/g)
0.004503	198.319
0.022517	252.101
0.05404	282.353
0.076557	305.882
0.099073	321.008
0.117087	336.134
0.1351	349.58
0.157617	363.025
0.180133	376.471
0.198147	393.277
0.247683	426.891
0.29722	473.95
0.35126	522.689
0.409803	531.092
0.47285	541.176
0.504373	544.538
0.556162	549.58
0.60795	554.622
0.657487	557.983
0.711527	564.706
0.754308	566.387
0.78358	568.067
0.8106	574.79
0.869143	581.513
0.93219	591.597
0.977223	608.403
1.00424	631.933
1.011	648.74
0.977223	621.849
0.91868	601.681
0.819607	584.874
0.752057	578.151
0.707023	576.471
0.657487	573.109
0.603447	568.067
0.556162	566.387
0.502122	557.983
0.450333	554.622
0.400797	549.58
0.35126	539.496
0.303975	504.202
0.252187	447.059
0.195895	405.042
0.141855	363.025
