Adsorption isotherm of Nitrogen on FLT-COF-3
DOI: 10.1021/jacs.7b05555
Article source: Figure 2
Adsorbate Nitrogen: InChIKey IJGRMHOSHXDMSA-UHFFFAOYSA-N
Kind: experiment
Temperature: 77 K
Tabular data in the source: 0
pressure (bar)	uptake (cm3(STP)/g)
0	88.0383
0.007855	101.435
0.011782	109.091
0.027491	114.833
0.066765	120.574
0.086401	125.359
0.106038	128.23
0.127638	131.1
0.149238	132.057
0.168875	133.971
0.180657	135.885
0.200294	137.799
0.255276	141.627
0.306331	145.455
0.353459	147.368
0.404515	151.196
0.45557	153.11
0.510552	155.024
0.55768	156.938
0.608735	158.852
0.659791	162.679
0.710846	164.593
0.754047	166.507
0.785465	168.421
0.816884	172.249
0.828666	174.163
0.844375	176.077
0.856157	176.077
0.875794	177.99
0.891503	179.904
0.91114	181.818
0.934703	185.646
0.95434	193.301
0.966122	197.129
0.977904	206.699
0.985759	214.354
0.989686	225.837
0.997541	237.321
0.997541	246.89
0.993613	260.287
0.977904	237.321
0.962195	218.182
0.930776	200.957
0.89543	191.388
0.860084	187.56
0.828666	183.732
0.809029	181.818
0.781538	181.818
0.742265	179.904
0.710846	177.99
0.659791	176.077
0.608735	174.163
0.55768	174.163
0.510552	172.249
0.451642	168.421
0.404515	166.507
0.353459	162.679
0.302404	162.679
0.251349	160.766
0.204221	156.938
0.180657	153.11
0.157093	153.11
0.137456	149.282
