Adsorption isotherm of Nitrogen on mixed monomer FLT polymers 25:75
DOI: 10.1021/jacs.7b05555
Article source: Figure 5
Adsorbate Nitrogen: InChIKey IJGRMHOSHXDMSA-UHFFFAOYSA-N
Kind: experiment
Temperature: 77 K
Tabular data in the source: 0
pressure (bar)	uptake (cm3(STP)/g)
-0.004503	94.1176
0.006755	107.563
0.024768	115.966
0.056292	127.731
0.076557	129.412
0.099073	132.773
0.117087	134.454
0.137352	137.815
0.157617	141.176
0.180133	144.538
0.200398	144.538
0.252187	147.899
0.301723	149.58
0.353512	152.941
0.403048	157.983
0.454837	156.303
0.504373	157.983
0.556162	164.706
0.605698	164.706
0.657487	166.387
0.709275	168.067
0.749805	171.429
0.781328	171.429
0.8106	173.109
0.830865	173.109
0.85113	176.471
0.871395	178.151
0.889408	179.832
0.902918	181.513
0.91868	183.193
0.927687	184.874
0.938945	186.555
0.952455	189.916
0.961462	193.277
0.974972	198.319
0.981727	201.681
0.988482	208.403
0.995237	215.126
0.997488	221.849
1.00199	230.252
0.988482	215.126
0.963713	201.681
0.947952	194.958
0.925435	189.916
0.91868	188.235
0.902918	186.555
0.887157	184.874
0.871395	184.874
0.85113	183.193
0.828613	181.513
0.8106	181.513
0.776825	179.832
0.749805	179.832
0.707023	178.151
0.657487	178.151
0.603447	178.151
0.55391	174.79
0.502122	173.109
0.450333	171.429
0.403048	169.748
0.35126	168.067
0.299472	166.387
0.247683	163.025
0.198147	159.664
0.137352	154.622
