Adsorption isotherm of Carbon Dioxide on Zn(OPE) 2H2O
DOI: 10.1002/adfm.201301178
Adsorbate Carbon Dioxide: InChIKey CURLTUGMZLYLDI-UHFFFAOYSA-N
Temperature: 195 K
Tabular data in the source: 0
pressure (bar)	uptake (ml/g)
0.011591	0.0231558
0.0125803	1.8872
0.0222627	3.76861
0.0260398	5.43133
0.0421772	8.56702
0.0580949	11.2885
0.0944067	14.2576
0.121366	15.9666
0.161455	20.5984
0.226743	23.6254
0.274098	25.5821
0.336599	28.8104
0.377607	29.7199
0.445684	32.5455
0.49003	34.2893
0.554769	36.2807
0.593319	38.0129
0.634658	39.5437
0.702185	41.3338
0.737617	42.646
0.81138	45.2761
0.952231	48.8678
0.972515	48.9084
1.01965	50.4508
