Adsorption isotherm of Nitrogen on Zn(OPE) 2H2O
DOI: 10.1002/adfm.201301178
Adsorbate Nitrogen: InChIKey IJGRMHOSHXDMSA-UHFFFAOYSA-N
Temperature: 77 K
Tabular data in the source: 0
pressure (bar)	uptake (ml/g)
0.0045669	2.67798
0.00595957	1.68143
0.026818	7.56645
0.0378714	9.92718
0.0700656	10.6736
0.114417	12.4502
0.172608	14.5944
0.202688	15.5023
0.2431	17.9357
0.275005	18.3481
0.325267	19.1393
0.36438	20.0696
0.406185	21.5065
0.458993	22.6374
0.514925	24.776
0.57225	25.918
0.588491	26.4583
0.66052	28.9701
0.716308	30.9417
0.754462	33.3695
0.822457	39.038
0.861621	42.6351
