Adsorption isotherm of Nitrogen on Zn(NO3)2*6H2O
DOI: 10.1021/Ja909629f
Adsorbate Nitrogen: InChIKey IJGRMHOSHXDMSA-UHFFFAOYSA-N
Temperature: 77 K
Tabular data in the source: 0
pressure (bar)	uptake (cm3(STP)/g)
5.55e-17	5.55e-17
0.00363865	120.879
0.010916	173.317
0.0254706	180.621
0.0545798	185.033
0.0654957	187.962
0.0764117	189.435
0.0982436	192.38
0.149185	196.826
0.200126	201.271
0.24379	204.249
0.294731	208.694
0.342033	211.678
0.392974	214.667
0.443916	219.112
0.487579	223.546
0.527604	223.606
0.585823	226.606
0.633125	231.046
0.680428	234.03
0.731369	235.562
0.78231	240.008
0.825974	242.986
0.880554	245.98
0.927856	254.789
0.97152	276.699
