Adsorption isotherm of Lead(II) Ion, Water on PAMAM/CNT nanocomposite
DOI: 10.1016/j.jhazmat.2017.02.059
Article source: Figure 11
Adsorbate Lead(II) Ion: InChIKey RVPVRDXYQKGNMQ-UHFFFAOYSA-N
Adsorbate Water: InChIKey XLYOFNOQVPJJNP-UHFFFAOYSA-N
Kind: experiment
Temperature: 298 K
Tabular data in the source: 0
pressure (bar)	Lead(II) Ion fraction	Lead(II) Ion uptake (mg/g)	Water fraction	Water uptake (mg/g)	total uptake (mg/g)
1.01325	0.555	678.401			
1.01325	4.633	2268.63			
1.01325	30.565	3901.53			
1.01325	80.342	3994.55			
