Adsorption isotherm of Copper(II) Ion, Lead(II) Ion, Water on PAMAM/CNT nanocomposite
DOI: 10.1016/j.jhazmat.2017.02.059
Article source: Figure 11
Adsorbate Copper(II) Ion: InChIKey JPVYNHNXODAKFH-UHFFFAOYSA-N
Adsorbate Lead(II) Ion: InChIKey RVPVRDXYQKGNMQ-UHFFFAOYSA-N
Adsorbate Water: InChIKey XLYOFNOQVPJJNP-UHFFFAOYSA-N
Kind: experiment
Temperature: 298 K
Tabular data in the source: 0
pressure (bar)	Copper(II) Ion fraction	Copper(II) Ion uptake (mg/g)	Lead(II) Ion fraction	Lead(II) Ion uptake (mg/g)	Water fraction	Water uptake (mg/g)	total uptake (mg/g)
1.01325	3.863	4277.49	1.268	1571.45			
1.01325	9.954	4587.1	6.461	3201.05			
1.01325	34.431	4312.77	31.293	3969.63			
1.01325	84.822	4058.14	79.887	3973.11			
