Adsorption isotherm of Copper(II) Ion, Water on PAMAM/CNT nanocomposite
DOI: 10.1016/j.jhazmat.2017.02.059
Article source: Figure 11
Adsorbate Copper(II) Ion: InChIKey JPVYNHNXODAKFH-UHFFFAOYSA-N
Adsorbate Water: InChIKey XLYOFNOQVPJJNP-UHFFFAOYSA-N
Kind: experiment
Temperature: 298 K
Tabular data in the source: 0
pressure (bar)	Copper(II) Ion fraction	Copper(II) Ion uptake (mg/g)	Water fraction	Water uptake (mg/g)	total uptake (mg/g)
1.01325	2.555	2981.33			
1.01325	9.204	4227.84			
1.01325	33.951	4210.19			
1.01325	83.193	4013.75			
