Adsorption isotherm of Methane on Carbon
DOI: 10.1016/j.carbon.2011.05.005
Adsorbate Methane: InChIKey VNWKTOKETHGBQD-UHFFFAOYSA-N
Temperature: 275 K
Tabular data in the source: 0
pressure (bar)	uptake (wt%)
24.9042	0.27972
45.5939	0.559441
50.1916	9.23077
54.023	17.3427
55.9387	20.979
57.8544	26.014
59.7701	30.4895
62.8352	36.9231
65.9004	44.4755
78.5441	50.6294
90.4215	52.028
