Adsorption isotherm of Methane on Carbon
DOI: 10.1016/j.carbon.2011.05.005
Adsorbate Methane: InChIKey VNWKTOKETHGBQD-UHFFFAOYSA-N
Temperature: 275 K
Tabular data in the source: 0
pressure (bar)	uptake (wt%)
41.3793	0.839161
47.8927	2.23776
53.6398	12.8671
61.6858	29.9301
67.0498	40
68.9655	43.9161
73.9464	45.3147
83.5249	45.8741
90.8046	45.8741
