Adsorption isotherm of Methane on Carbon
DOI: 10.1016/j.carbon.2011.05.005
Adsorbate Methane: InChIKey VNWKTOKETHGBQD-UHFFFAOYSA-N
Temperature: 275 K
Tabular data in the source: 0
pressure (bar)	uptake (wt%)
0.383142	1.11888
2.29885	4.47552
3.83142	6.43357
5.74713	8.95105
8.42912	10.3497
10.728	12.5874
13.41	14.2657
16.092	15.3846
19.5402	16.7832
27.5862	19.021
31.8008	19.8601
35.249	20.6993
38.6973	21.5385
42.5287	21.8182
45.977	22.3776
49.8084	22.6573
59.387	23.2168
63.2184	23.2168
67.0498	23.4965
70.8812	23.4965
74.7126	23.4965
78.5441	23.4965
82.3755	23.4965
86.2069	23.4965
90.0383	23.4965
