Adsorption isotherm of Methane on Carbon
DOI: 10.1016/j.carbon.2011.05.005
Adsorbate Methane: InChIKey VNWKTOKETHGBQD-UHFFFAOYSA-N
Temperature: 275 K
Tabular data in the source: 0
pressure (bar)	uptake (wt%)
15.7088	0.27972
40.9962	0.559441
48.659	18.1818
51.7241	23.7762
55.1724	29.9301
60.5364	39.1608
63.6015	43.9161
66.6667	48.951
73.9464	52.8671
85.4406	57.0629
92.7203	58.4615
95.0192	58.4615
