Adsorption isotherm of Methane on Carbon
DOI: 10.1016/j.carbon.2011.05.005
Adsorbate Methane: InChIKey VNWKTOKETHGBQD-UHFFFAOYSA-N
Temperature: 275 K
Tabular data in the source: 0
pressure (bar)	uptake (wt%)
15.7088	0.27972
40.9962	0.559441
58.2375	35.8042
67.433	46.1538
82.3755	60.6993
94.2529	63.2168
