Adsorption isotherm of Nitrogen on Carbon
DOI: 10.1016/j.carbon.2011.05.005
Adsorbate Nitrogen: InChIKey IJGRMHOSHXDMSA-UHFFFAOYSA-N
Temperature: 77 K
Tabular data in the source: 0
pressure (bar)	uptake (mmol/g)
0.00290154	9.79021
0.00319641	3.67133
0.00595641	16.3986
0.0123728	23.2517
0.0290979	26.1888
0.0559431	29.1259
0.0794503	31.3287
0.0962462	32.7972
0.11303	34.5105
0.133188	36.2238
0.153345	37.9371
0.170141	39.4056
0.190287	41.3636
0.217191	43.0769
0.237348	44.7902
0.291145	48.4615
0.348338	51.6434
0.382012	52.8671
0.43253	54.5804
0.479709	55.5594
0.530274	56.2937
0.577453	57.2727
0.62803	57.7622
0.675233	58.2517
0.722436	58.7413
0.769663	58.7413
0.820239	59.2308
0.870827	59.4755
0.918042	59.7203
0.958487	60.4545
