Adsorption isotherm of Methane on Carbon
DOI: 10.1016/j.carbon.2011.05.005
Adsorbate Methane: InChIKey VNWKTOKETHGBQD-UHFFFAOYSA-N
Temperature: 275 K
Tabular data in the source: 0
pressure (bar)	uptake (volume/volume)
70.0707	154.954
70.9541	157.734
71.6608	159.658
72.1908	161.796
72.8975	163.721
73.4276	165.645
74.1343	167.783
74.841	169.708
75.5477	171.632
76.4311	173.558
77.1378	175.482
78.0212	177.408
78.7279	179.333
80.1413	182.114
81.0247	183.613
82.0848	185.326
83.1449	187.038
84.2049	188.751
85.265	190.464
86.5018	191.964
87.7385	193.677
89.8587	196.462
91.0954	197.108
92.5088	198.395
93.9223	199.682
95.3357	200.756
96.9258	202.044
98.3392	203.117
99.9293	204.619
