Adsorption isotherm of Methane on Carbon
DOI: 10.1016/j.carbon.2011.05.005
Adsorbate Methane: InChIKey VNWKTOKETHGBQD-UHFFFAOYSA-N
Temperature: 275 K
Tabular data in the source: 0
pressure (bar)	uptake (wt%)
11.8774	0.839161
17.2414	1.67832
24.9042	2.51748
31.4176	3.35664
37.5479	4.1958
43.6782	4.47552
55.5556	27.6923
69.7318	41.6783
79.3103	42.2378
90.4215	42.7972
