Adsorption isotherm of Nitrogen on Zeolite Li-LSX
DOI: 10.1016/S1387-1811(01)00355-9
Adsorbate Nitrogen: InChIKey IJGRMHOSHXDMSA-UHFFFAOYSA-N
Temperature: 298 K
Tabular data in the source: 0
pressure (bar)	uptake (mmol/g)
0.0445434	0.14876
0.18931	0.380165
0.300668	0.578512
0.657016	1.09091
0.991091	1.38843
1.4588	1.66942
1.99332	1.99174
2.80624	2.24793
3.16258	2.36364
3.67483	2.52893
4.00891	2.64463
