Adsorption isotherm of Nitrogen on Zeolite Li-LSX
DOI: 10.1016/S1387-1811(01)00355-9
Adsorbate Nitrogen: InChIKey IJGRMHOSHXDMSA-UHFFFAOYSA-N
Temperature: 298 K
Tabular data in the source: 0
pressure (bar)	uptake (mmol/g)
0.0556793	0.123967
0.18931	0.363636
0.244989	0.46281
0.311804	0.561983
0.489978	0.785124
0.657016	0.966942
1.01336	1.28926
1.38085	1.5124
1.73719	1.73554
2.00445	1.90083
2.66147	2.09917
3.36303	2.31405
3.99777	2.52066
