Adsorption isotherm of Oxygen on Zeolite CaA
DOI: 10.1016/S1387-1811(01)00355-9
Adsorbate Oxygen: InChIKey MYMOFIZGZYHOMD-UHFFFAOYSA-N
Temperature: 298 K
Tabular data in the source: 0
pressure (bar)	uptake (mmol/g)
0.243478	0.0606936
0.405718	0.0809249
0.62209	0.121387
1.06847	0.232659
1.52835	0.343931
2.36697	0.546243
3.62455	0.758671
5.67982	1.07225
