Adsorption isotherm of Nitrogen on Zeolite Li-LSX
DOI: 10.1016/S1387-1811(01)00355-9
Adsorbate Nitrogen: InChIKey IJGRMHOSHXDMSA-UHFFFAOYSA-N
Temperature: 298 K
Tabular data in the source: 0
pressure (bar)	uptake (mmol/g)
0.0413217	0.202312
0.0687002	0.293353
0.136776	0.424855
0.204968	0.586705
0.286596	0.728324
0.381737	0.869942
0.490392	1.01156
0.626074	1.15318
0.734807	1.31503
0.897633	1.48699
1.08745	1.64884
1.35834	1.81069
2.77898	2.25578
5.59186	2.79191
