Adsorption isotherm of Oxygen on Zeolite Li-LSX
DOI: 10.1016/S1387-1811(01)00355-9
Adsorbate Oxygen: InChIKey MYMOFIZGZYHOMD-UHFFFAOYSA-N
Temperature: 298 K
Tabular data in the source: 0
pressure (bar)	uptake (mmol/g)
0.0556793	0.0165289
0.657016	0.123967
1.00223	0.165289
1.99332	0.297521
3.99777	0.586777
4.98886	0.768595
