Adsorption isotherm of Oxygen on Zeolite Li-LSX
DOI: 10.1016/S1387-1811(01)00355-9
Adsorbate Oxygen: InChIKey MYMOFIZGZYHOMD-UHFFFAOYSA-N
Temperature: 298 K
Tabular data in the source: 0
pressure (bar)	uptake (mmol/g)
0.0556793	0.0165289
0.300668	0.0578512
0.746102	0.14876
1.00223	0.198347
2.00445	0.363636
2.75056	0.479339
3.3853	0.561983
4.00891	0.661157
