Adsorption isotherm of Nitrogen on Zeolite CaA
DOI: 10.1016/S1387-1811(01)00355-9
Adsorbate Nitrogen: InChIKey IJGRMHOSHXDMSA-UHFFFAOYSA-N
Temperature: 298 K
Tabular data in the source: 0
pressure (bar)	uptake (mmol/g)
0.0274957	0.121387
0.0818622	0.202312
0.203913	0.313584
0.529058	0.526012
0.962232	0.718208
1.27339	0.809249
1.67935	0.950867
2.53148	1.15318
3.39697	1.31503
4.14068	1.43642
4.62748	1.51734
5.20883	1.58815
5.97946	1.67919
