Adsorption isotherm of Nitrogen on Zeolite Li-LSX
DOI: 10.1016/S1387-1811(01)00355-9
Adsorbate Nitrogen: InChIKey IJGRMHOSHXDMSA-UHFFFAOYSA-N
Temperature: 298 K
Tabular data in the source: 0
pressure (bar)	uptake (mmol/g)
0.0222717	0.0826446
0.0445434	0.206612
0.100223	0.305785
0.155902	0.429752
0.222717	0.595041
0.289532	0.735537
0.400891	0.876033
0.512249	1.01653
0.623608	1.18182
0.757238	1.32231
0.890869	1.4876
1.11359	1.64463
1.35857	1.81818
1.73719	1.91736
2.26058	2.09091
2.58352	2.19008
2.7951	2.24793
3.14031	2.33058
4.2539	2.53719
4.6882	2.61983
4.98886	2.67769
