Adsorption isotherm of Oxygen on Zeolite Li-LSX
DOI: 10.1016/S1387-1811(01)00355-9
Adsorbate Oxygen: InChIKey MYMOFIZGZYHOMD-UHFFFAOYSA-N
Temperature: 298 K
Tabular data in the source: 0
pressure (bar)	uptake (mmol/g)
0.310967	0.0404624
0.960006	0.141618
1.39275	0.222543
1.79835	0.273121
2.43384	0.364162
3.00176	0.455202
3.44786	0.495665
4.43505	0.677746
4.98942	0.758671
5.35455	0.82948
