Adsorption isotherm of Acetylene on ZJNU-54a
DOI: 10.1039/c6dt02150f
Article source: Figure 2b
Adsorbate Acetylene: InChIKey HSFWRNGVRCDJHI-UHFFFAOYSA-N
Kind: experiment
Temperature: 298 K
Tabular data in the source: 0
pressure (bar)	uptake (cm3(STP)/g)
0.032531	33.2
0.064661	52.7
0.094526	67.6
0.126123	80.4
0.15732	91.5
0.189318	100
0.221315	109
0.251979	116
0.282643	123
0.314641	128
0.346638	134
0.377302	139
0.407966	144
0.439964	148
0.470628	152
0.501292	156
0.533289	160
0.563954	163
0.595951	167
0.627948	170
0.658612	173
0.69061	176
0.721274	178
0.751938	181
0.783936	183
0.8146	185
0.846597	187
0.877261	190
0.909259	192
0.939923	193
0.970587	195
1.00258	197
1.03458	198
