Adsorption isotherm of Methane on ZJNU-54a
DOI: 10.1039/c6dt02150f
Article source: Figure 2d
Adsorbate Methane: InChIKey VNWKTOKETHGBQD-UHFFFAOYSA-N
Kind: experiment
Temperature: 298 K
Tabular data in the source: 0
pressure (bar)	uptake (cm3(STP)/g)
0.031064	0.725
0.062262	1.65
0.095859	2.41
0.128123	3.13
0.158654	3.86
0.189318	4.67
0.221315	5.37
0.251979	6.15
0.283977	6.84
0.315974	7.51
0.346638	8.24
0.378636	8.93
0.4093	9.63
0.439964	10.4
0.471961	11
0.502625	11.7
0.533289	12.4
0.565287	13
0.597284	13.8
0.627948	14.5
0.659946	15.2
0.691943	15.8
0.722607	16.5
0.753271	17.2
0.785269	17.9
0.815933	18.6
0.84793	19.2
0.878594	19.9
0.910592	20.6
0.941256	21.3
0.973253	21.9
1.00392	22.5
1.03592	23.1
