Adsorption isotherm of Carbon Dioxide on ZJNU-54a
DOI: 10.1039/c6dt02150f
Article source: Figure 2c
Adsorbate Carbon Dioxide: InChIKey CURLTUGMZLYLDI-UHFFFAOYSA-N
Kind: experiment
Temperature: 298 K
Tabular data in the source: 0
pressure (bar)	uptake (cm3(STP)/g)
0.03853	6.81
0.063061	8.68
0.095459	13.2
0.127323	17
0.159987	20.7
0.190651	24.3
0.221315	28.2
0.251979	32
0.283977	35.6
0.315974	39.6
0.346638	43.2
0.377302	46.6
0.4093	50.2
0.439964	53.7
0.471961	57
0.502625	60.6
0.533289	64.1
0.565287	67.1
0.595951	70.5
0.627948	73.7
0.659946	76.7
0.69061	80.1
0.722607	83
0.753271	85.9
0.783936	89.1
0.815933	92.1
0.846597	95
0.878594	97.8
0.910592	101
0.941256	104
0.97192	106
1.00392	109
1.03458	112
