Adsorption isotherm of Acetylene, Methane on ZJNU-54a
DOI: 10.1039/c6dt02150f
Article source: Figure 3 (text)
Adsorbate Acetylene: InChIKey HSFWRNGVRCDJHI-UHFFFAOYSA-N
Adsorbate Methane: InChIKey VNWKTOKETHGBQD-UHFFFAOYSA-N
Kind: experiment
Temperature: 298 K
Tabular data in the source: 0
pressure (bar)	Acetylene fraction	Acetylene uptake (mmol/g)	Methane fraction	Methane uptake (mmol/g)	total uptake (mmol/g)
1.01325	0.5	6.16	0.5	0.155949	
