Adsorption isotherm of Nitrogen on Cu-BTEC
DOI: 10.1039/C4dt02516d
Adsorbate Nitrogen: InChIKey IJGRMHOSHXDMSA-UHFFFAOYSA-N
Temperature: 77 K
Tabular data in the source: 0
pressure (bar)	uptake (cm3(STP)/g)
1.0786e-16	21.7678
0.00231314	25.7225
0.00693943	29.674
0.0185051	34.9353
0.0300709	38.8774
0.048576	42.1504
0.0717074	44.7575
0.0925257	47.3678
0.115658	51.2941
0.141102	55.2174
0.16886	57.1586
0.194304	60.4222
0.21281	62.3759
0.238254	64.9799
0.261386	68.2466
0.289143	70.1878
0.314588	72.7918
0.335406	76.0617
0.367789	79.3159
0.388608	81.9261
0.409427	85.196
0.427931	87.8094
0.458003	93.0456
0.490386	96.9594
0.513517	100.886
0.532023	104.818
0.552841	110.067
0.587538	117.276
0.603731	123.85
0.631488	129.749
0.64768	136.983
0.680064	148.813
0.696256	158.026
0.726327	168.539
0.73558	174.463
0.751772	183.016
0.777216	194.195
0.784156	198.144
0.795722	204.065
0.807287	209.986
0.814226	215.253
0.823479	219.198
0.828105	222.49
0.837358	225.116
0.841984	228.408
0.848924	231.697
0.855862	235.645
0.862802	240.253
0.876681	242.213
0.895187	245.486
0.913691	247.44
0.929884	246.758
0.955328	248.043
0.966894	248.687
