Adsorption isotherm of Nitrogen on Cu-BDC
DOI: 10.1039/C4dt02516d
Adsorbate Nitrogen: InChIKey IJGRMHOSHXDMSA-UHFFFAOYSA-N
Temperature: 77 K
Tabular data in the source: 0
pressure (bar)	uptake (cm3(STP)/g)
-0.00231314	9.8976
0.0231314	18.4382
0.0393234	20.3952
0.0555155	21.6924
0.0786469	23.6399
0.0994652	24.9309
0.117971	25.5654
0.134162	26.8627
0.152668	27.4972
0.171172	27.472
0.194304	27.4406
0.215123	28.7316
0.238254	29.3598
0.268324	29.9786
0.298396	32.5763
0.314588	33.214
0.342345	34.4955
0.381668	35.1018
0.414052	36.3771
0.439497	37.6618
0.467254	38.2837
0.495013	40.2249
0.520457	40.85
0.538962	42.8037
0.564407	44.7481
0.580599	47.3646
0.603731	49.3121
0.619922	51.9286
0.638428	54.542
0.65462	57.1586
0.673124	60.4316
0.687004	61.732
0.700883	64.3517
0.714761	67.631
0.724014	69.5973
0.73558	72.8798
0.751772	77.4752
0.76565	80.7545
0.777216	84.0369
0.788782	87.979
0.793408	90.6113
0.80266	97.8546
0.814226	102.456
0.821166	105.085
0.832732	109.687
0.839671	114.295
0.848924	119.56
0.869742	130.085
0.895187	139.286
0.92757	142.54
0.959954	142.496
0.980769	147.745
