Adsorption isotherm of Nitrogen on Cu-BDC
DOI: 10.1039/C4dt02516d
Adsorbate Nitrogen: InChIKey IJGRMHOSHXDMSA-UHFFFAOYSA-N
Temperature: 77 K
Tabular data in the source: 0
pressure (bar)	uptake (cm3(STP)/g)
0.474194	44.211
0.499639	46.1553
0.52971	50.0722
0.548215	52.026
0.56672	55.299
0.587538	57.9093
0.608356	62.4984
0.622235	69.7355
0.643054	80.2613
0.666185	90.784
0.677751	98.0242
0.703196	108.544
0.7217	120.392
0.742519	129.599
0.763337	136.167
0.777216	139.446
0.80266	141.39
0.825792	142.678
0.844298	141.993
0.883621	142.6
0.904438	142.571
