Adsorption isotherm of Nitrogen on IRMOF-3
DOI: 10.1039/C4dt02516d
Adsorbate Nitrogen: InChIKey IJGRMHOSHXDMSA-UHFFFAOYSA-N
Temperature: 77 K
Tabular data in the source: 0
pressure (bar)	uptake (cm3(STP)/g)
-0.00925257	39.5904
1.0786e-16	44.8549
0.016192	51.4292
0.0300709	55.3681
0.048576	57.9815
0.064768	61.2577
0.0855862	62.5487
0.106405	63.8397
0.127222	65.1307
0.145728	67.0844
0.166547	68.3754
0.189678	69.6633
0.222061	72.2578
0.24288	74.2084
0.266012	74.8367
0.296082	76.1151
0.319213	78.7222
0.337719	79.3567
0.363164	75.3644
0.393234	75.3235
0.414052	77.2742
0.437184	78.562
0.471881	81.1534
0.506579	83.0852
0.527396	83.7165
0.557468	86.3142
0.603731	90.8688
0.631488	94.1293
0.663872	98.7027
0.710135	106.555
0.72864	111.148
0.754084	117.71
0.781842	125.587
0.795722	130.186
0.807287	136.107
0.816539	140.712
0.825792	146.636
0.828105	149.931
0.835045	154.539
0.839671	159.15
0.846611	161.779
0.865115	168.35
0.869742	174.281
0.872055	178.895
0.874368	184.828
0.881308	192.735
0.895187	199.972
0.904438	210.513
0.909065	215.784
0.913691	221.714
0.918318	226.985
0.939136	237.511
0.953014	245.408
0.959954	252.654
0.962267	255.29
0.96458	262.542
0.966894	265.178
