Adsorption isotherm of Nitrogen on IRMOF-3
DOI: 10.1039/C4dt02516d
Adsorbate Nitrogen: InChIKey IJGRMHOSHXDMSA-UHFFFAOYSA-N
Temperature: 77 K
Tabular data in the source: 0
pressure (bar)	uptake (cm3(STP)/g)
0.474194	87.0869
0.499639	89.0313
0.536649	91.6196
0.573659	94.2078
0.599104	96.1522
0.629175	98.7498
0.659245	102.007
0.693943	108.556
0.700883	112.505
0.730953	118.401
0.747146	123.656
0.76565	128.248
0.774903	136.811
0.795722	147.996
0.8096	154.573
0.816539	159.841
0.821166	169.729
0.830418	178.952
0.841984	188.171
0.853549	200.028
0.874368	218.47
0.895187	226.357
0.911378	238.868
0.946076	255.312
0.96458	264.521
