Adsorption isotherm of Nitrogen on Cu-BTEC
DOI: 10.1039/C4dt02516d
Adsorbate Nitrogen: InChIKey IJGRMHOSHXDMSA-UHFFFAOYSA-N
Temperature: 77 K
Tabular data in the source: 0
pressure (bar)	uptake (cm3(STP)/g)
0.451063	98.9917
0.483447	111.481
0.499639	118.055
0.525083	127.255
0.541276	135.149
0.55978	144.359
0.582912	152.243
0.601418	163.431
0.619922	177.258
0.643054	185.802
0.656932	195.678
0.677751	204.225
0.705508	220.018
0.719387	232.532
0.730953	239.773
0.754084	244.359
0.76565	245.003
0.786469	245.634
0.811913	245.599
0.825792	245.58
0.855862	246.199
0.89056	247.471
0.92757	247.421
