Adsorption isotherm of Nitrogen on C67.50H78.25Cd1N1.75Na0.25O19
DOI: 10.1002/asia.201300615
Adsorbate Nitrogen: InChIKey IJGRMHOSHXDMSA-UHFFFAOYSA-N
Temperature: 77 K
Tabular data in the source: 0
pressure (bar)	uptake (cm3(STP)/g)
0.0127495	0.0299582
0.0608167	0.484412
0.108884	0.973824
0.176615	1.53315
0.26401	2.47702
0.355775	3.45584
0.419136	4.155
0.510901	5.20374
0.565523	5.83298
0.661657	7.09147
0.707539	7.82559
0.757791	8.45483
0.812413	9.22391
0.856111	10.0279
0.906363	10.797
0.952245	11.9856
0.978464	12.8246
0.991573	13.3489
