Adsorption isotherm of Carbon Dioxide on C67.50H78.25Cd1N1.75Na0.25O19
DOI: 10.1002/asia.201300615
Adsorbate Carbon Dioxide: InChIKey CURLTUGMZLYLDI-UHFFFAOYSA-N
Temperature: 298 K
Tabular data in the source: 0
pressure (bar)	uptake (cm3(STP)/g)
0.03003	0.192
0.0810811	0.48
0.12012	0.864
0.183183	1.344
0.237237	1.824
0.285285	2.304
0.333333	2.832
0.381381	3.456
0.441441	3.984
0.492492	4.512
0.54955	5.28
0.591592	5.76
0.651652	6.528
0.705706	7.104
0.750751	7.68
0.804805	8.256
0.858859	8.88
0.90991	9.504
0.957958	10.224
0.984985	10.608
1.00601	11.136
1.02703	11.52
