Adsorption isotherm of Hydrogen on MOF-5-2h in humid air
DOI: 10.1021/acs.langmuir.5b00833
Article source: Figure 3a
Adsorbate Hydrogen: InChIKey UFHFLCQGNIYNRP-UHFFFAOYSA-N
Kind: experiment
Isotherm type: excess
Temperature: 295 K
Tabular data in the source: 0
pressure (bar)	uptake (g/g)
0	0
2.63158	2.17476
9.47368	4.23301
16.3158	4.91262
26.5789	5.35922
36.5789	5.51456
47.1053	5.51456
58.4211	5.45631
72.8947	5.37864
95.2632	5.18447
