Adsorption isotherm of Hydrogen on MOF-5-61% humidity-exposedtoair.5h
DOI: 10.1021/acs.langmuir.5b00833
Article source: Figure 3b
Adsorbate Hydrogen: InChIKey UFHFLCQGNIYNRP-UHFFFAOYSA-N
Kind: experiment
Isotherm type: excess
Temperature: 295 K
Tabular data in the source: 0
pressure (bar)	uptake (g/g)
0	0
2.04878	2.10596
6.14634	3.71523
15.5122	4.98675
25.7561	5.42384
36	5.64238
46.2439	5.62252
56.4878	5.58278
67.3171	5.46358
78.7317	5.34437
89.8537	5.16556
100.683	5.00662
112.683	4.86755
