Adsorption isotherm of Hydrogen on MOF-5-61% humidity
DOI: 10.1021/acs.langmuir.5b00833
Article source: Figure 3b
Adsorbate Hydrogen: InChIKey UFHFLCQGNIYNRP-UHFFFAOYSA-N
Kind: experiment
Isotherm type: excess
Temperature: 295 K
Tabular data in the source: 0
pressure (bar)	uptake (g/g)
0	0
0.292683	0
1.12712	0.89404
2.52754	2.18543
7.42077	3.87417
17.6017	5.16556
27.2408	5.56291
38.0633	5.70199
48.3063	5.72185
59.1375	5.68212
74.9482	5.56291
97.2056	5.28477
