Adsorption isotherm of Hydrogen on MOF-5-61% humidity-exposedtoair48h
DOI: 10.1021/acs.langmuir.5b00833
Article source: Figure 3b
Adsorbate Hydrogen: InChIKey UFHFLCQGNIYNRP-UHFFFAOYSA-N
Kind: experiment
Isotherm type: excess
Temperature: 295 K
Tabular data in the source: 0
pressure (bar)	uptake (g/g)
0	0
32.3529	0.059801
64.7059	0.099668
76.1765	0.119601
92.0588	0.219269
108.824	0.239203
