Adsorption isotherm of Hydrogen on MOF-5-.5h in humid air
DOI: 10.1021/acs.langmuir.5b00833
Article source: Figure 3a
Adsorbate Hydrogen: InChIKey UFHFLCQGNIYNRP-UHFFFAOYSA-N
Kind: experiment
Isotherm type: excess
Temperature: 295 K
Tabular data in the source: 0
pressure (bar)	uptake (g/g)
0	0
2.36842	2.1039
6.84211	3.7013
16.0526	5.04545
26.0526	5.45455
36.5789	5.64935
46.8421	5.66883
57.8947	5.59091
73.6842	5.47403
95.7895	5.2987
