Adsorption isotherm of Hydrogen on IRMOF-1
DOI: 10.1021/acs.langmuir.5b00833
Article source: Figure 3a
Adsorbate Hydrogen: InChIKey UFHFLCQGNIYNRP-UHFFFAOYSA-N
Kind: experiment
Isotherm type: excess
Temperature: 295 K
Tabular data in the source: 0
pressure (bar)	uptake (g/g)
0	0
2.27561	2.24026
7.21566	3.87662
17.4469	5.16234
27.1882	5.59091
38.2614	5.72727
48.8129	5.72727
59.63	5.68831
74.9366	5.53247
97.369	5.2987
