Adsorption isotherm of Hydrogen on MOF-5-48h in humid air
DOI: 10.1021/acs.langmuir.5b00833
Article source: Figure 3a
Adsorbate Hydrogen: InChIKey UFHFLCQGNIYNRP-UHFFFAOYSA-N
Kind: experiment
Isotherm type: excess
Temperature: 295 K
Tabular data in the source: 0
pressure (bar)	uptake (g/g)
0	0
2.11031	1.90909
6.59472	3.35065
16.3549	4.48052
24.7962	4.83117
35.3477	5.00649
42.7338	4.96753
53.8129	4.90909
69.3765	4.73377
91.5348	4.44156
