Adsorption isotherm of Hydrogen on MOF-5-61% humidity-exposedtoair24h
DOI: 10.1021/acs.langmuir.5b00833
Article source: Figure 3b
Adsorbate Hydrogen: InChIKey UFHFLCQGNIYNRP-UHFFFAOYSA-N
Kind: experiment
Isotherm type: excess
Temperature: 295 K
Tabular data in the source: 0
pressure (bar)	uptake (g/g)
0	0.019802
2.41691	1.42574
5.37607	1.94059
8.33039	2.35644
14.8036	2.73267
24.4973	2.9703
35.355	3.0099
45.9144	2.9505
56.7683	2.91089
67.0324	2.81188
77.5899	2.71287
89.321	2.61386
100.464	2.49505
112.198	2.45545
