Adsorption isotherm of Hydrogen on MOF-5-66h in humid air
DOI: 10.1021/acs.langmuir.5b00833
Article source: Figure 3a
Adsorbate Hydrogen: InChIKey UFHFLCQGNIYNRP-UHFFFAOYSA-N
Kind: experiment
Isotherm type: excess
Temperature: 295 K
Tabular data in the source: 0
pressure (bar)	uptake (g/g)
0	0
0.527578	0.601942
2.3741	1.37864
7.91367	2.15534
18.2014	2.67961
28.4892	2.87379
39.5683	2.97087
50.1199	2.97087
61.199	2.95146
72.2782	2.8932
88.3693	2.73786
104.988	2.62136
