Adsorption isotherm of Hydrogen on MOF-5-61% humidity-exposedtoair2h
DOI: 10.1021/acs.langmuir.5b00833
Article source: Figure 3b
Adsorbate Hydrogen: InChIKey UFHFLCQGNIYNRP-UHFFFAOYSA-N
Kind: experiment
Isotherm type: excess
Temperature: 295 K
Tabular data in the source: 0
pressure (bar)	uptake (g/g)
0.000971	0.019802
0.924092	0.851485
2.15492	1.9604
6.63463	3.34653
9.30887	3.90099
15.5125	4.45545
25.53	4.81188
36.1241	4.93069
46.1231	4.91089
57.2937	4.79208
67.582	4.67327
78.7498	4.49505
89.9204	4.37624
101.086	4.15842
113.14	4.05941
