Adsorption isotherm of Nitrogen on gamma-MnO2
DOI: 10.1016/j.cej.2016.05.005
Article source: Figure 3a- N2
Adsorbate Nitrogen: InChIKey IJGRMHOSHXDMSA-UHFFFAOYSA-N
Kind: experiment
Temperature: 77 K
Tabular data in the source: 0
pressure (bar)	uptake (cm3(STP)/g)
0.023923	7.926
0.026628	8.028
0.053723	7.801
0.077048	8.509
0.101436	9.039
0.12691	9.747
0.152018	10.188
0.17821	10.542
0.202599	10.718
0.228072	11.248
0.254255	11.602
0.278654	11.689
0.304117	12.308
0.328871	12.573
0.355063	12.926
0.380171	13.014
0.405634	13.367
0.430753	14.075
0.456935	14.251
0.481689	14.339
0.507517	14.338
0.534064	15.222
0.558453	15.399
0.582852	15.663
0.609034	16.548
0.634507	16.547
0.659616	17.077
0.684015	18.411
0.684369	18.405
0.710916	17.43
0.712355	19.82
0.736025	18.491
0.736744	18.521
0.758985	21.59
0.760778	18.845
0.785532	19.906
0.785887	19.981
0.810286	24.421
0.812434	20.88
0.837552	22.65
0.839346	26.9
0.861222	29.29
0.861941	24.243
0.88706	27.681
0.888134	26.632
0.911449	38.143
0.912168	38.939
0.937641	46.199
0.939789	33.98
0.96275	42.568
0.963114	43.142
0.973156	47.792
0.97352	48.534
0.982488	55.052
0.984291	85.069
0.994333	69.484
0.995062	74.355
0.997565	80.907
0.998305	135.096
1.00224	104.814
1.00549	163.43
1.00621	170.514
