Adsorption isotherm of Nitrogen on Fe-containing gamma-MnO2
DOI: 10.1016/j.cej.2016.05.005
Article source: Figure 3b- N2
Adsorbate Nitrogen: InChIKey IJGRMHOSHXDMSA-UHFFFAOYSA-N
Kind: experiment
Temperature: 77 K
Tabular data in the source: 0
pressure (bar)	uptake (cm3(STP)/g)
0.02446	42.126
0.025595	42.429
0.050875	51.295
0.051108	45.824
0.076612	55.018
0.100525	53.599
0.101092	53.677
0.12695	60.824
0.127284	60.744
0.150194	58.176
0.15291	64.342
0.177673	67.038
0.177856	66.966
0.202974	70.428
0.205143	64.436
0.22865	66.35
0.22865	66.351
0.252867	72.519
0.279799	75.736
0.302941	78.691
0.328789	81.387
0.355722	83.648
0.380131	86.17
0.405614	88.345
0.431107	89.331
0.431644	89.477
0.456955	101.812
0.458212	92.781
0.480807	95.736
0.482266	116.231
0.506666	119.673
0.506848	120.055
0.532331	123.532
0.533415	101.475
0.557825	126.227
0.558544	126.399
0.581676	129.764
0.582943	130.225
0.608426	133.392
0.608801	134.397
0.631934	137.961
0.634821	115.122
0.658329	122.183
0.659231	119.728
0.682728	123.726
0.684177	146.478
0.708758	127.811
0.709488	150.042
0.734069	132.859
0.734241	132.938
0.759917	158.733
0.761001	158.888
0.784499	141.629
0.786495	164.121
0.809627	146.93
0.810174	168.987
0.836195	152.665
0.837644	154.294
0.860776	178.557
0.86187	180.109
0.886087	166.653
0.888083	184.629
0.911945	192.708
0.912482	192.011
0.937429	200.911
0.937793	201.048
0.96201	198.533
0.962922	199.345
0.971778	207.826
0.974493	226.931
0.983349	218.509
0.983714	240.74
0.992387	233.099
0.992934	257.328
0.998355	241.784
0.99872	273.394
1.00287	253.161
1.00487	297.015
