Adsorption isotherm of Methanol on ZIF-8
DOI: 10.1021/Cm302610z
Adsorbate Methanol: InChIKey OKKJLVBELUTLKV-UHFFFAOYSA-N
Temperature: 293 K
Tabular data in the source: 0
pressure (bar)	uptake (% Volume Adsorbed)
0.00619484	0.0374478
0.0345982	0.0374478
0.0935898	0.0374478
0.126363	0.255935
0.189724	10.3064
0.239976	18.1282
0.303338	13.9332
0.368884	14.8509
0.425691	18.1719
0.486867	16.7736
0.545859	17.298
0.60922	16.6425
0.668212	15.987
0.722834	16.1618
0.78401	15.419
0.843002	15.5938
0.891069	16.2492
0.95006	16.1181
