Adsorption isotherm of Toluene on ZIF-8
DOI: 10.1021/Cm302610z
Adsorbate Toluene: InChIKey YXFVVABEGXRONW-UHFFFAOYSA-N
Temperature: 293 K
Tabular data in the source: 0
pressure (bar)	uptake (% Volume Adsorbed)
0.00139321	0.521279
0.0957594	0.49311
0.209844	0.507195
0.245055	0.507195
0.309844	0.521279
0.376041	0.535364
0.450689	0.549448
0.523928	0.605786
0.583083	0.619871
0.652097	0.662124
0.723928	0.732547
0.809844	0.859307
0.85914	1.01424
0.884492	1.05649
0.925337	1.39452
0.961957	1.84522
0.988717	2.08466
