Adsorption isotherm of Water on ZIF-8
DOI: 10.1021/Cm302610z
Adsorbate Water: InChIKey XLYOFNOQVPJJNP-UHFFFAOYSA-N
Temperature: 293 K
Tabular data in the source: 0
pressure (bar)	uptake (% Volume Adsorbed)
0.00801532	0.0232571
0.103835	0.0232571
0.193934	-0.00534575
0.306915	0.25208
0.366981	0.380793
0.428477	0.523807
0.548609	0.75263
0.667311	1.18167
0.727377	1.91105
0.791734	2.68332
0.85466	3.94185
0.921877	7.51721
0.973362	8.73283
