Adsorption isotherm of Isobutane on Y-ftw-MOF-2
DOI: 10.1039/c5sc00614g
Article source: Figure 7
Adsorbate Isobutane: InChIKey NNPPMTNAJDCUHE-UHFFFAOYSA-N
Kind: experiment
Temperature: 298 K
Tabular data in the source: 0
pressure (bar)	uptake (mmol/g)
0	0
0.03825	3.61165
0.238133	9.32039
0.41656	10.0777
0.612471	10.4272
0.915058	10.7184
1.28888	11.1262
1.80486	11.3592
