Adsorption isotherm of Methane on Y-ftw-MOF-2
DOI: 10.1039/c5sc00614g
Article source: Figure 7
Adsorbate Methane: InChIKey VNWKTOKETHGBQD-UHFFFAOYSA-N
Kind: experiment
Temperature: 298 K
Tabular data in the source: 0
pressure (bar)	uptake (mmol/g)
0	0
0.408628	0.232446
0.621732	0.290557
0.923851	0.523002
1.3679	0.697337
1.86528	0.929782
3.87249	1.80145
5.86194	2.67312
7.83347	3.42857
