Adsorption isotherm of Carbon Dioxide on Y-ftw-MOF-2
DOI: 10.1039/c5sc00614g
Article source: Figure 7
Adsorbate Carbon Dioxide: InChIKey CURLTUGMZLYLDI-UHFFFAOYSA-N
Kind: experiment
Temperature: 298 K
Tabular data in the source: 0
pressure (bar)	uptake (mmol/g)
0	0
0.017708	0.058252
0.053341	0.116505
0.284196	0.23301
0.408629	0.466019
0.675073	0.699029
0.959355	1.04854
1.3679	1.39806
1.88312	1.98058
3.85504	4.01942
5.88057	6.52427
7.88821	8.85437
