Adsorption isotherm of N-Butane on Y-ftw-MOF-2
DOI: 10.1039/c5sc00614g
Article source: Figure 7
Adsorbate N-Butane: InChIKey IJDNQMDRQITEOD-UHFFFAOYSA-N
Kind: experiment
Temperature: 298 K
Tabular data in the source: 0
pressure (bar)	uptake (mmol/g)
0	0
0.035573	6.49779
0.266798	10.1871
0.462451	10.7152
0.711462	11.068
0.978261	11.1869
1.26285	11.4228
1.38735	11.4237
