Adsorption isotherm of Ethane on Y-ftw-MOF-2
DOI: 10.1039/c5sc00614g
Article source: Figure 7
Adsorbate Ethane: InChIKey OTMSDBZUPAUEDD-UHFFFAOYSA-N
Kind: experiment
Temperature: 298 K
Tabular data in the source: 0
pressure (bar)	uptake (mmol/g)
0	0
0.125413	0.407767
0.4653	1.28155
0.823751	2.50485
1.86224	5.59223
3.8643	10.0777
5.86158	12.4078
7.89184	13.5728
