Adsorption isotherm of N-propane on Y-ftw-MOF-2
DOI: 10.1039/c5sc00614g
Article source: Figure 7
Adsorbate N-propane: InChIKey ATUOYWHBWRKTHZ-UHFFFAOYSA-N
Kind: experiment
Temperature: 298 K
Tabular data in the source: 0
pressure (bar)	uptake (mmol/g)
0	0
0.131413	2.3301
0.338635	6.23301
0.669155	9.72816
1.2979	11.8252
1.81475	12.1748
2.88367	12.7573
3.88041	12.9903
4.87714	13.2233
5.87336	13.2816
6.88737	13.3398
7.79483	13.4563
