Adsorption isotherm of Nitrogen on Ag@COF
DOI: 10.1002/asia.201901157
Article source: Figure S9a
Adsorbate Nitrogen: InChIKey IJGRMHOSHXDMSA-UHFFFAOYSA-N
Kind: experiment
Temperature: 77 K
Tabular data in the source: 0
pressure (bar)	uptake (mmol/g)
0.965782	2.1672
0.974359	2.61736
0.984161	2.90675
0.989062	3.19614
0.990288	3.80707
0.970683	3.13183
0.941276	2.32797
0.913095	1.7492
0.91432	1.23473
0.878787	1.49196
0.850605	1.23473
0.832226	1.13826
0.817523	0.688103
0.80527	0.977492
0.770962	0.945338
0.734203	0.784566
0.703571	0.688103
0.713374	0.334405
0.681516	0.59164
0.666813	0.655949
0.650884	0.623794
0.607999	0.302251
0.581043	0.655949
0.551636	0.559486
0.516103	0.655949
0.48302	0.59164
0.456064	0.495177
0.511202	0.302251
0.411954	0.430868
0.300453	0.463023
0.214683	0.752412
0.207332	0.59164
0.097056	0.784566
0.104408	0.59164
0.082353	0.623794
0.067649	0.59164
0.051721	0.752412
0.037017	0.559486
0.02844	0.913183
0.017413	0.913183
0.008836	0.881029
0.00516	0.784566
0.003935	0.527331
0.003935	0.141479
0.014962	0.366559
