Adsorption isotherm of Carbon Dioxide on Ag@COF
DOI: 10.1002/asia.201901157
Article source: Figure S9b
Adsorbate Carbon Dioxide: InChIKey CURLTUGMZLYLDI-UHFFFAOYSA-N
Kind: experiment
Temperature: 298 K
Tabular data in the source: 0
pressure (bar)	uptake (mmol/g)
0.351971	0.573459
0.410633	0.624542
0.469295	0.682922
0.527957	0.730356
0.586618	0.777789
0.64528	0.825223
0.703942	0.876306
1.02658	1.16456
1.08524	1.21564
1.14391	1.26307
0.75068	0.9214
0.809983	0.988294
0.864344	1.03512
0.926118	1.07526
0.978009	1.12877
0.300964	0.533416
0.241661	0.459833
0.187299	0.399628
0.135409	0.319356
0.078577	0.232394
0.043983	0.145432
0.029157	0.105296
0.016803	0.071849
0.00939	0.045091
0.004448	0.004955
