Adsorption isotherm of Nitrogen on IISERP-COF15 6N H2SO4
DOI: 10.1002/asia.201901157
Article source: Figure 2c
Adsorbate Nitrogen: InChIKey IJGRMHOSHXDMSA-UHFFFAOYSA-N
Kind: experiment
Temperature: 77 K
Tabular data in the source: 0
pressure (bar)	uptake (mmol/g)
0.8106	10.037
0.861262	10.3099
0.905452	10.9675
0.918511	11.2155
0.930265	11.6288
0.939406	11.9595
0.953772	12.6209
0.966831	13.3649
0.977279	14.5224
0.987727	15.6798
0.991644	16.5892
1.00862	21.6321
0.991644	19.4827
0.763103	10.0581
0.721313	9.89272
0.670381	9.64471
0.620755	9.56204
0.577658	9.39669
0.528032	9.47937
0.482324	9.23135
0.434004	9.31402
0.381766	9.14868
0.345199	8.90066
0.292961	8.90066
0.239417	8.81799
0.200239	8.65265
0.149307	8.4873
0.1258	8.4873
0.095763	8.32196
0.080091	8.15661
0.053972	8.07394
0.031771	7.82593
0.006958	6.66852
0.000428	5.34577
0.000428	4.10569
0.000428	2.94828
0.000428	1.7082
0.001734	0.964153
