Adsorption isotherm of Nitrogen on IISERP-COF15 6N NaOH
DOI: 10.1002/asia.201901157
Article source: Figure 2c
Adsorbate Nitrogen: InChIKey IJGRMHOSHXDMSA-UHFFFAOYSA-N
Kind: experiment
Temperature: 77 K
Tabular data in the source: 0
pressure (bar)	uptake (mmol/g)
0.033077	10.6368
0.05789	10.9675
0.076173	11.1328
0.094457	11.2981
0.128411	11.5462
0.151919	11.6288
0.201545	11.7942
0.249865	11.7942
0.291655	11.8769
0.338669	12.1249
0.385684	12.2075
0.431392	12.2902
0.4771	11.9595
0.530644	12.5382
0.577658	12.4556
0.625978	12.4556
0.672993	12.6209
0.723925	12.7862
0.772245	13.0343
0.811423	13.5303
0.859743	13.6956
0.904146	14.357
0.922429	14.6877
0.934183	14.9357
0.945936	15.4317
0.95769	16.0931
0.966831	16.9198
0.978585	18.1599
0.991644	19.896
0.982503	20.8881
1.0034	22.5415
0.0161	9.9754
0.00957	8.98333
0.002257	7.66058
0.002257	6.17249
0.000951	4.76706
0.000355	3.60966
0.000951	2.45225
0.000951	1.46019
