Adsorption isotherm of Nitrogen on IISERP-COF15
DOI: 10.1002/asia.201901157
Article source: Figure 2b/2c/S9a
Adsorbate Nitrogen: InChIKey IJGRMHOSHXDMSA-UHFFFAOYSA-N
Kind: experiment
Temperature: 77 K
Tabular data in the source: 0
pressure (bar)	uptake (mmol/g)
0.992404	19.2832
0.971851	18.7823
0.951298	17.896
0.989468	18.7052
0.983595	18.3969
0.974787	17.973
0.965979	17.3565
0.908725	16.316
0.919001	17.0482
0.899916	16.894
0.866151	16.3931
0.832386	16.2004
0.814769	15.6609
0.800089	16.0848
0.767792	16.0462
0.739899	16.0077
0.717878	15.4297
0.706133	15.6609
0.67824	15.815
0.662092	15.738
0.648879	15.738
0.612178	15.3911
0.575477	15.6609
0.544648	15.6224
0.518223	15.5838
0.488862	15.5453
0.456564	15.237
0.502074	15.0058
0.406651	15.0443
0.309759	14.8902
0.202591	14.4277
0.217272	14.9672
0.09836	14.5048
0.104232	14.1965
0.082211	13.8882
0.057254	13.6185
0.044042	13.7726
0.042574	13.3873
0.024957	13.0019
0.01791	12.5395
0.012038	11.7303
0.014974	11.3449
0.012038	10.8825
0.008221	10.42
0.008221	10.1118
0.006753	9.61079
0.005285	9.41811
0.005285	8.41619
0.002349	8.06936
0.006753	7.64547
0.002349	7.18304
0.005285	6.68208
0.002349	6.4894
0.003817	6.10405
0.002349	5.60308
0.000587	5.10212
0.002349	4.63969
0.000881	4.06166
0.002349	3.56069
0.002349	3.09827
0.000881	2.5973
0.002349	2.09634
0.002349	1.59538
0.000881	1.09441
