Adsorption isotherm of Carbon Dioxide on IISERP-COF15
DOI: 10.1002/asia.201901157
Article source: Figure S7a/2d
Adsorbate Carbon Dioxide: InChIKey CURLTUGMZLYLDI-UHFFFAOYSA-N
Kind: experiment
Temperature: 248 K
Tabular data in the source: 0
pressure (bar)	uptake (mmol/g)
0.00323	0.394952
0.021019	0.637439
0.190713	2.13687
0.253818	2.47291
0.285037	2.61287
0.375124	2.96102
0.464422	3.28126
0.580718	3.62029
0.666792	3.87579
0.785803	4.16294
0.874106	4.36727
0.963365	4.57443
1.08133	4.86245
1.20352	5.1145
0.032164	0.938522
0.040936	1.09645
0.055556	1.11901
0.064327	1.18669
0.073099	1.27693
0.078947	1.38973
0.087719	1.47998
0.108187	1.6379
0.093567	1.59278
0.114035	1.72814
0.131579	1.84095
