Adsorption isotherm of Carbon Dioxide on IISERP-COF15
DOI: 10.1002/asia.201901157
Article source: Figure S7a/S8a/S8b/2d
Adsorbate Carbon Dioxide: InChIKey CURLTUGMZLYLDI-UHFFFAOYSA-N
Kind: experiment
Temperature: 273 K
Tabular data in the source: 0
pressure (bar)	uptake (mmol/g)
0.130665	1.07281
0.187368	1.43357
0.251588	1.68245
0.283699	1.79021
0.370664	2.07722
0.460305	2.34676
0.578042	2.64118
0.666346	2.86726
0.784083	3.13949
0.872386	3.34209
0.962696	3.49844
1.08094	3.6603
1.19884	3.90305
0.008772	0.194021
0.017544	0.284264
0.02924	0.397067
0.04386	0.48731
0.067251	0.600113
0.078947	0.735477
0.093567	0.84828
0.108187	0.938522
0.116959	0.983644
