Adsorption isotherm of Nitrogen on IISERP-COF15 Water
DOI: 10.1002/asia.201901157
Article source: Figure 2c
Adsorbate Nitrogen: InChIKey IJGRMHOSHXDMSA-UHFFFAOYSA-N
Kind: experiment
Temperature: 77 K
Tabular data in the source: 0
pressure (bar)	uptake (mmol/g)
0.003134	10.037
0.101325	12.2206
0.20265	12.2206
0.303975	12.2206
0.404255	12.5393
0.50558	12.6758
0.606905	12.6758
0.709275	12.4936
0.8106	12.7666
0.911925	13.3125
0.076173	12.0422
0.055278	11.7942
0.033077	11.5462
0.010092	8.90066
0.004869	8.23929
-0.000355	7.24722
0.000951	6.25516
0.002257	5.26309
0.000951	4.3537
0.002257	3.52698
0.002257	2.61759
0.002257	1.54286
0.002257	0.633466
0.958996	13.6956
0.966831	14.0263
0.981197	14.7704
0.99295	15.8451
