Adsorption isotherm of Nitrogen on IISERP-COF15
DOI: 10.1002/asia.201901157
Article source: Figure S8a
Adsorbate Nitrogen: InChIKey IJGRMHOSHXDMSA-UHFFFAOYSA-N
Kind: experiment
Temperature: 273 K
Tabular data in the source: 0
pressure (bar)	uptake (mmol/g)
0.321031	0.053918
0.365976	0.065786
0.414714	0.036843
0.457134	0.027634
0.499268	0.040518
0.54936	0.053152
0.591309	0.036245
0.635043	0.047149
0.770874	0.05629
0.906083	0.067438
0.993218	0.07056
1.19877	0.095916
1.06156	0.121037
1.13442	0.100865
0.700047	0.121037
0.840168	0.14121
0.285287	0.040346
0.251658	0.040346
0.218029	0.040346
0.159178	0.020173
0.128351	0.020173
0.114339	0.020173
0.08071	0.020173
0.052686	0.020173
0.016254	0.020173
0.002242	0.020173
