Adsorption isotherm of Methane on IISERP-COF15
DOI: 10.1002/asia.201901157
Article source: Figure S8b
Adsorbate Methane: InChIKey VNWKTOKETHGBQD-UHFFFAOYSA-N
Kind: experiment
Temperature: 273 K
Tabular data in the source: 0
pressure (bar)	uptake (mmol/g)
0.286122	0.238342
0.330982	0.25589
0.421069	0.326243
0.465514	0.34009
0.557812	0.398293
0.600903	0.420658
0.692446	0.477132
0.915041	0.56805
0.965582	0.596566
1.05206	0.642436
1.10152	0.652306
1.1815	0.669776
0.628411	0.495066
0.774684	0.533443
0.839381	0.552632
0.251477	0.245614
0.220534	0.207237
0.496203	0.379934
0.355556	0.30318
0.147398	0.149671
0.136146	0.149671
0.119269	0.111294
0.0827	0.092105
0.051758	0.072917
0.026442	0.015351
0.01519	0.015351
0.001125	0.003838
