Adsorption isotherm of Nitrogen on IISERP-COF15
DOI: 10.1002/asia.201901157
Article source: Figure S8a
Adsorbate Nitrogen: InChIKey IJGRMHOSHXDMSA-UHFFFAOYSA-N
Kind: experiment
Temperature: 298 K
Tabular data in the source: 0
pressure (bar)	uptake (mmol/g)
1.18206	0.076657
1.1064	0.056484
1.03914	0.076657
0.971882	0.056484
0.901822	0.076657
0.840168	0.056484
0.77291	0.076657
0.697244	0.076657
0.492667	0.056484
0.459038	0.036311
0.431014	0.004035
0.559925	0.09683
0.601962	0.056484
0.638393	0.056484
0.360953	0.056484
0.321719	0.016138
0.285287	0.036311
0.248856	0.036311
0.218029	0.036311
0.147968	0.016138
0.136759	0.016138
0.108734	0.004035
0.075105	0.004035
0.044278	0.024207
0.019057	0.024207
0.002242	0.004035
