Adsorption isotherm of Carbon Dioxide on IISERP-COF15
DOI: 10.1002/asia.201901157
Article source: Figure 2d
Adsorbate Carbon Dioxide: InChIKey CURLTUGMZLYLDI-UHFFFAOYSA-N
Kind: experiment
Temperature: 195 K
Tabular data in the source: 0
pressure (bar)	uptake (mmol/g)
0.921928	14.8648
0.942592	14.8889
0.908644	14.8648
0.887979	14.8406
0.861411	14.6958
0.846651	14.6958
0.821558	14.5509
0.806798	14.575
0.783181	14.4543
0.765469	14.4543
0.743328	14.3094
0.722664	14.3094
0.706428	14.1645
0.685763	14.1645
0.662147	13.9713
0.641482	14.0438
0.626722	13.8506
0.597202	13.8748
0.594249	13.7057
0.558825	13.754
0.554397	13.585
0.5234	13.6091
0.517496	13.416
0.476167	13.4884
0.480595	13.2469
0.458455	13.2469
0.442218	13.0779
0.434838	13.3194
0.394986	13.1986
0.403842	12.9089
0.366941	12.6916
0.352181	12.9572
0.316756	12.6916
0.327088	12.4742
0.3079	12.4501
0.287235	12.2569
0.275427	12.426
0.251811	12.4018
0.270999	12.112
0.250335	11.9672
0.234098	12.1603
0.228194	11.7981
0.21491	11.7498
0.191293	11.7498
0.186865	11.5325
0.167677	11.4842
0.154393	11.1703
0.138156	10.8564
0.12192	10.4218
0.108636	9.86639
0.10716	9.52833
0.092399	9.09369
0.064355	7.69317
0.049595	6.94462
0.027454	5.80972
0.020074	5.20605
0.011218	4.14359
0.003838	3.29845
0.002362	2.42917
