Adsorption isotherm of Carbon Dioxide on IISERP-COF15
DOI: 10.1002/asia.201901157
Article source: Figure S7a/S8a/S8b/S9b/2d
Adsorbate Carbon Dioxide: InChIKey CURLTUGMZLYLDI-UHFFFAOYSA-N
Kind: experiment
Temperature: 298 K
Tabular data in the source: 0
pressure (bar)	uptake (mmol/g)
0.133494	0.505394
0.190044	0.676386
0.245292	0.816011
0.296696	0.952973
0.359292	1.09743
0.414369	1.19017
0.46967	1.31905
0.525863	1.42143
0.582056	1.52016
0.638249	1.60385
0.694836	1.7073
0.749719	1.78438
0.805992	1.88233
0.863021	1.96982
0.91819	2.05288
0.975406	2.1264
1.02976	2.21055
1.08645	2.30336
1.14934	2.4108
1.19483	2.47555
0.081871	0.397067
0.049708	0.239143
0.02924	0.1489
0.017544	0.058658
0.005848	0.013536
