Adsorption isotherm of Methane on IISERP-COF15
DOI: 10.1002/asia.201901157
Article source: Figure S8b
Adsorbate Methane: InChIKey VNWKTOKETHGBQD-UHFFFAOYSA-N
Kind: experiment
Temperature: 298 K
Tabular data in the source: 0
pressure (bar)	uptake (mmol/g)
0.421209	0.12299
0.466322	0.149099
0.556548	0.174443
0.601661	0.175215
0.637486	0.189826
0.699849	0.204941
0.980148	0.266457
1.11515	0.291417
0.029255	0.023026
0.048945	0.015351
0.085513	0.034539
0.108017	0.034539
0.127707	0.053728
0.153024	0.072917
0.217722	0.092105
0.248664	0.092105
0.288045	0.092105
0.3218	0.111294
0.352743	0.111294
0.49339	0.16886
0.771871	0.226425
0.833755	0.264803
0.906892	0.245614
1.04473	0.30318
1.18256	0.322368
