Adsorption isotherm of Nitrogen on IISERP-COF15 6N HCl
DOI: 10.1002/asia.201901157
Article source: Figure 2c
Adsorbate Nitrogen: InChIKey IJGRMHOSHXDMSA-UHFFFAOYSA-N
Kind: experiment
Temperature: 77 K
Tabular data in the source: 0
pressure (bar)	uptake (mmol/g)
1.00422	26.1143
0.983913	20.8286
0.974886	18.8286
0.961346	17.5429
0.943293	15.6857
0.916213	15.1143
0.902673	14.6857
0.862052	14.1143
0.812405	13.6857
0.769528	13.5429
0.726651	13.4
0.663464	13.1143
0.620587	12.9714
0.575454	12.9714
0.528063	12.8286
0.48293	12.8286
0.433283	12.6857
0.388149	12.5429
0.340759	12.2571
0.295625	12.2571
0.243722	12.1143
0.198588	12.1143
0.148941	12.1143
0.117347	11.9714
0.094329	12.0286
0.062736	11.8857
0.035656	11.4571
0.022115	10.6
0.010832	10.0286
0.004965	8.74286
0.004062	7.74286
0.004062	6.31429
0.001354	5.17143
0.001354	3.6
0.001354	2.17143
0.001354	0.885714
