Adsorption isotherm of Nitrogen on CPM-5
DOI: 10.1002/ceat.201100626
Adsorbate Nitrogen: InChIKey IJGRMHOSHXDMSA-UHFFFAOYSA-N
Temperature: 77 K
Tabular data in the source: 0
pressure (bar)	uptake (cm3(STP)/g)
0.0128395	341.667
0.0299588	391.667
0.0449381	412.5
0.0620574	445.833
0.0770368	479.167
0.0984359	500
0.111275	516.667
0.128395	537.5
0.143374	550
0.169053	558.333
0.199012	562.5
0.23753	570.833
0.293168	579.167
0.406583	591.667
0.48576	591.667
0.567077	600
0.639834	604.167
0.72329	608.333
0.815306	612.5
0.911602	625
0.96082	633.333
