Adsorption isotherm of Nitrogen on CPM-5
DOI: 10.1002/ceat.201100626
Adsorbate Nitrogen: InChIKey IJGRMHOSHXDMSA-UHFFFAOYSA-N
Temperature: 77 K
Tabular data in the source: 0
pressure (bar)	uptake (cm3(STP)/g)
0.010608	208.557
0.0190307	221.36
0.0337362	246.956
0.0547701	281.091
0.0738463	298.196
0.0929225	315.301
0.10781	323.876
0.124792	336.717
0.146054	349.576
0.210157	358.367
0.314917	367.337
0.434746	367.862
0.582347	372.763
0.736414	373.438
0.941699	387.103
