Adsorption isotherm of Nitrogen on CPM-5
DOI: 10.1002/ceat.201100626
Adsorbate Nitrogen: InChIKey IJGRMHOSHXDMSA-UHFFFAOYSA-N
Temperature: 77 K
Tabular data in the source: 0
pressure (bar)	uptake (cm3(STP)/g)
0.0256225	225.644
0.0427042	255.506
0.0597858	281.113
0.0768675	289.698
0.0982196	306.813
0.117436	328.174
0.138789	341.033
0.166546	345.41
0.226332	354.183
0.3032	358.775
0.401419	367.716
0.497504	368.137
0.585047	372.775
0.683267	373.206
0.794298	377.947
0.892517	382.633
0.958709	387.178
