Adsorption isotherm of Nitrogen on CPM-5
DOI: 10.1002/ceat.201100626
Adsorbate Nitrogen: InChIKey IJGRMHOSHXDMSA-UHFFFAOYSA-N
Temperature: 77 K
Tabular data in the source: 0
pressure (bar)	uptake (cm3(STP)/g)
0.00643391	344.681
0.0193017	387.234
0.0343142	421.277
0.0514713	463.83
0.0686283	502.128
0.0922193	531.915
0.109376	548.936
0.126534	578.723
0.373167	625.532
0.437506	629.787
0.491122	629.787
0.561895	634.043
0.6198	638.298
0.681994	638.298
0.744189	646.809
0.806383	646.809
0.859999	655.319
0.922193	659.574
0.962941	668.085
