Adsorption isotherm of Nitrogen on CPM-5
DOI: 10.1002/ceat.201100626
Adsorbate Nitrogen: InChIKey IJGRMHOSHXDMSA-UHFFFAOYSA-N
Temperature: 77 K
Tabular data in the source: 0
pressure (bar)	uptake (cm3(STP)/g)
0.0254655	169.565
0.0685465	178.261
0.10303	186.957
0.141812	195.652
0.186996	200
0.229984	200
0.285914	204.348
0.337546	208.696
0.39343	208.696
0.460108	213.043
0.571922	217.391
0.679438	221.739
0.825596	221.739
0.911618	226.087
0.965352	226.087
