Adsorption isotherm of Nitrogen on ZIF-8 (Microwave)
DOI: 10.1016/j.memsci.2015.05.015
Article source: Figure S2
Adsorbate Nitrogen: InChIKey IJGRMHOSHXDMSA-UHFFFAOYSA-N
Kind: experiment
Temperature: 77 K
Tabular data in the source: 0
pressure (bar)	uptake (cm3(STP)/g)
0	0
0.002283	235.523
0.004566	291.606
0.006849	325.259
0.009132	385.081
0.013699	441.173
0.015982	452.396
0.020548	463.628
0.022831	478.59
0.025114	486.075
0.027397	497.299
0.045662	508.582
0.061644	512.38
0.09589	519.985
0.136986	523.877
0.175799	524.022
0.219178	527.922
0.267123	531.84
0.317352	532.027
0.372146	535.971
0.420091	539.888
0.472603	540.084
0.497717	543.917
0.522831	547.749
0.547945	547.843
0.573059	547.937
0.598174	544.292
0.621005	544.378
0.648402	551.957
0.671233	548.304
0.696347	548.398
0.726027	555.985
0.748858	556.07
0.776256	556.173
0.796804	563.726
0.817352	563.803
0.8379	560.142
0.858447	563.957
0.876712	564.025
0.89726	571.579
0.908676	582.836
0.922374	590.364
0.936073	601.63
0.947489	609.149
0.952055	627.858
0.958904	639.099
0.961187	657.799
0.974886	852.243
0.977169	956.924
