Adsorption isotherm of Carbon Dioxide on Matrimid
DOI: 10.1016/j.memsci.2015.05.015
Article source: Figure S13
Adsorbate Carbon Dioxide: InChIKey CURLTUGMZLYLDI-UHFFFAOYSA-N
Kind: experiment
Temperature: 308 K
Tabular data in the source: 0
pressure (bar)	uptake (cm3(STP)/cm3)
0	0
0.995423	0.747664
1.99085	1.30841
5.01144	2.99065
9.98856	5.23364
