Adsorption isotherm of Carbon Dioxide on Matrimid-20% ZIF-8
DOI: 10.1016/j.memsci.2015.05.015
Article source: Figure S13
Adsorbate Carbon Dioxide: InChIKey CURLTUGMZLYLDI-UHFFFAOYSA-N
Kind: experiment
Temperature: 308 K
Tabular data in the source: 0
pressure (bar)	uptake (cm3(STP)/cm3)
0	0
0.995423	8.59813
1.99085	14.3925
5.01144	22.8037
9.98856	37.0093
