Adsorption isotherm of Methane on ZIF-8
DOI: 10.1016/j.memsci.2015.05.015
Article source: Figure S12
Adsorbate Methane: InChIKey VNWKTOKETHGBQD-UHFFFAOYSA-N
Kind: experiment
Temperature: 308 K
Tabular data in the source: 0
pressure (bar)	uptake (cm3(STP)/cm3)
1.02548	11.215
2.01692	21.1838
4.99285	41.7445
9.98933	62.3053
