Adsorption isotherm of Nitrogen on ZIF-8 (Room Temperature)
DOI: 10.1016/j.memsci.2015.05.015
Article source: Figure S2
Adsorbate Nitrogen: InChIKey IJGRMHOSHXDMSA-UHFFFAOYSA-N
Kind: experiment
Temperature: 77 K
Tabular data in the source: 0
pressure (bar)	uptake (cm3(STP)/g)
0	18.6916
0.002283	157.018
0.004566	228.054
0.006849	351.427
0.011416	400.043
0.015982	418.751
0.018265	426.237
0.020548	437.46
0.06621	456.322
0.09589	460.172
0.13242	460.308
0.175799	467.947
0.216895	468.101
0.278539	468.331
0.333333	472.274
0.392694	472.496
0.440639	476.414
0.493151	476.61
0.518265	480.442
0.541096	480.527
0.568493	484.368
0.593607	484.462
0.616438	484.547
0.641553	484.641
0.666667	484.735
0.691781	484.829
0.716895	484.923
0.742009	488.755
0.767123	488.849
0.792237	488.943
0.817352	489.037
0.8379	489.114
0.856164	492.92
0.894977	496.804
0.908676	504.331
0.917808	511.842
0.929224	519.362
0.938356	519.396
0.947489	530.645
0.958904	530.687
0.968037	556.89
0.972603	654.103
0.977169	755.055
