Adsorption isotherm of Carbon Dioxide on Modified Matrimid
DOI: 10.1016/j.memsci.2015.05.015
Article source: Figure S12
Adsorbate Carbon Dioxide: InChIKey CURLTUGMZLYLDI-UHFFFAOYSA-N
Kind: experiment
Temperature: 308 K
Tabular data in the source: 0
pressure (bar)	uptake (cm3(STP)/cm3)
1.02729	0.623053
2.02033	1.24611
5.03361	3.73832
10.0675	5.60748
