Adsorption isotherm of Carbon Dioxide on Modified Matrimid
DOI: 10.1016/j.memsci.2015.05.015
Article source: Figure S13
Adsorbate Carbon Dioxide: InChIKey CURLTUGMZLYLDI-UHFFFAOYSA-N
Kind: experiment
Temperature: 308 K
Tabular data in the source: 0
pressure (bar)	uptake (cm3(STP)/cm3)
0	0
0.995423	0.747664
1.99085	1.49533
4.97712	2.99065
10.0229	5.42056
