Adsorption isotherm of Carbon Dioxide on Matrimid-30% ZIF-8
DOI: 10.1016/j.memsci.2015.05.015
Article source: Figure S13
Adsorbate Carbon Dioxide: InChIKey CURLTUGMZLYLDI-UHFFFAOYSA-N
Kind: experiment
Temperature: 308 K
Tabular data in the source: 0
pressure (bar)	uptake (cm3(STP)/cm3)
0	0
0.995423	0.747664
2.0595	1.68224
5.01144	3.92523
10.0229	7.1028
