Adsorption isotherm of Methane on Matrimid
DOI: 10.1016/j.memsci.2015.05.015
Article source: Figure S12
Adsorbate Methane: InChIKey VNWKTOKETHGBQD-UHFFFAOYSA-N
Kind: experiment
Temperature: 308 K
Tabular data in the source: 0
pressure (bar)	uptake (cm3(STP)/cm3)
0.992191	5.60748
2.01895	9.34579
4.99701	17.4455
10.0297	26.7913
