Adsorption isotherm of Carbon Dioxide on Matrimid-10% ZIF-8
DOI: 10.1016/j.memsci.2015.05.015
Article source: Figure S13
Adsorbate Carbon Dioxide: InChIKey CURLTUGMZLYLDI-UHFFFAOYSA-N
Kind: experiment
Temperature: 308 K
Tabular data in the source: 0
pressure (bar)	uptake (cm3(STP)/cm3)
0	0
0.995423	7.66355
1.99085	12.5234
4.97712	21.4953
10.0229	32.7103
