Adsorption isotherm of Carbon Dioxide on Matrimid
DOI: 10.1016/j.memsci.2015.05.015
Article source: Figure S12
Adsorbate Carbon Dioxide: InChIKey CURLTUGMZLYLDI-UHFFFAOYSA-N
Kind: experiment
Temperature: 308 K
Tabular data in the source: 0
pressure (bar)	uptake (cm3(STP)/cm3)
1.02633	6.23053
2.01873	10.5919
4.9968	18.6916
10.0292	29.2835
