Adsorption isotherm of Carbon Dioxide on Modified Matrimid
DOI: 10.1016/j.memsci.2015.05.015
Article source: Figure S13
Adsorbate Carbon Dioxide: InChIKey CURLTUGMZLYLDI-UHFFFAOYSA-N
Kind: experiment
Temperature: 308 K
Tabular data in the source: 0
pressure (bar)	uptake (cm3(STP)/cm3)
0	0
0.995423	6.35514
1.99085	10.2804
5.01144	18.5047
9.98856	28.972
