Adsorption isotherm of Carbon Dioxide on ZIF-8
DOI: 10.1016/j.memsci.2015.05.015
Article source: Figure S12
Adsorbate Carbon Dioxide: InChIKey CURLTUGMZLYLDI-UHFFFAOYSA-N
Kind: experiment
Temperature: 308 K
Tabular data in the source: 0
pressure (bar)	uptake (cm3(STP)/cm3)
1.02121	36.1371
2.00753	76.0125
5.01099	135.826
9.96735	190.65
