Adsorption isotherm of Carbon Dioxide on Matrimid-40% ZIF-8
DOI: 10.1016/j.memsci.2015.05.015
Article source: Figure S13
Adsorbate Carbon Dioxide: InChIKey CURLTUGMZLYLDI-UHFFFAOYSA-N
Kind: experiment
Temperature: 308 K
Tabular data in the source: 0
pressure (bar)	uptake (cm3(STP)/cm3)
0	0
1.02975	12.7103
1.99085	19.8131
5.01144	33.6449
10.0572	48.2243
