Adsorption isotherm of Methane on brown coal
DOI: 10.1016/j.apsusc.2017.06.143
Article source: Figure 2
Adsorbate Methane: InChIKey VNWKTOKETHGBQD-UHFFFAOYSA-N
Kind: experiment
Isotherm type: absolute
Temperature: 373 K
Tabular data in the source: 0
pressure (bar)	uptake (mmol/g)
0.443	0.0241
1.197	0.0681
2.195	0.1262
5.299	0.249
10.242	0.3877
15.23	0.4823
20.173	0.552
25.137	0.6068
30.213	0.655
35.001	0.6906
40.098	0.7263
45.085	0.7595
49.984	0.7844
55.059	0.8085
59.957	0.8284
64.922	0.8417
69.997	0.8567
74.94	0.8874
79.882	0.894
84.891	0.9081
89.923	0.9214
94.843	0.9322
99.785	0.948
