Adsorption isotherm of Methane on brown coal
DOI: 10.1016/j.apsusc.2017.06.143
Article source: Figure 2
Adsorbate Methane: InChIKey VNWKTOKETHGBQD-UHFFFAOYSA-N
Kind: experiment
Isotherm type: absolute
Temperature: 298 K
Tabular data in the source: 0
pressure (bar)	uptake (mmol/g)
0.178	0.0955
0.6	0.1884
1.066	0.3013
2.175	0.4541
5.236	0.679
10.268	0.8558
15.167	0.9555
20.021	1.0277
25.185	1.0692
30.239	1.109
35.093	1.1497
40.013	1.1763
45.089	1.1904
49.965	1.2136
55.018	1.2344
60.094	1.2684
64.992	1.2792
70.023	1.295
74.943	1.3091
79.863	1.3215
84.939	1.3265
89.881	1.3456
94.89	1.3597
99.788	1.3597
