Adsorption isotherm of Methane on brown coal
DOI: 10.1016/j.apsusc.2017.06.143
Article source: Figure 2
Adsorbate Methane: InChIKey VNWKTOKETHGBQD-UHFFFAOYSA-N
Kind: experiment
Isotherm type: absolute
Temperature: 313 K
Tabular data in the source: 0
pressure (bar)	uptake (mmol/g)
0.288	0.0415
0.754	0.117
1.265	0.2208
2.263	0.3536
5.301	0.5653
10.223	0.7396
15.121	0.845
20.153	0.9148
25.118	0.9579
30.105	1.0111
35.114	1.0459
40.035	1.0758
45.11	1.1024
50.031	1.1314
55.128	1.1472
59.96	1.1605
65.057	1.1796
70.044	1.2003
74.898	1.2095
79.951	1.2203
84.872	1.2269
89.881	1.241
94.912	1.2667
99.788	1.2676
