Adsorption isotherm of Carbon Dioxide on brown coal
DOI: 10.1016/j.apsusc.2017.06.143
Article source: Figure 2
Adsorbate Carbon Dioxide: InChIKey CURLTUGMZLYLDI-UHFFFAOYSA-N
Kind: experiment
Isotherm type: absolute
Temperature: 313 K
Tabular data in the source: 0
pressure (bar)	uptake (mmol/g)
0.138	0.7046
0.206	0.9226
0.406	1.1514
0.695	1.4142
1.094	1.6181
2.001	1.7947
5.05	2.0219
10.065	2.1827
15.012	2.2764
20.092	2.3486
25.018	2.3826
30.164	2.4133
35.133	2.4615
40.058	2.4441
45.071	2.4682
50.062	2.4773
55.054	2.528
60.089	2.5205
64.926	2.5446
70.006	2.5612
74.996	2.5157
80.032	2.5422
85.045	2.5788
90.014	2.5689
95.05	2.5581
99.931	2.5689
