Adsorption isotherm of Carbon Dioxide on brown coal
DOI: 10.1016/j.apsusc.2017.06.143
Article source: Figure 2
Adsorbate Carbon Dioxide: InChIKey CURLTUGMZLYLDI-UHFFFAOYSA-N
Kind: experiment
Isotherm type: absolute
Temperature: 373 K
Tabular data in the source: 0
pressure (bar)	uptake (mmol/g)
0.156	0.1898
0.157	0.2827
0.378	0.4029
0.645	0.6118
1.177	0.8439
2.172	1.076
5.156	1.357
10.193	1.5743
15.118	1.6837
20.132	1.7708
25.058	1.8189
30.027	1.8637
35.041	1.9052
40.054	1.9467
45.046	1.9882
50.103	2.0164
54.984	2.0173
60.041	2.0364
64.922	2.0704
70.068	2.092
74.839	2.1037
80.051	2.0988
84.998	2.1204
90.011	2.1312
95.091	2.1279
99.994	2.1445
