Adsorption isotherm of Carbon Dioxide on brown coal
DOI: 10.1016/j.apsusc.2017.06.143
Article source: Figure 2
Adsorbate Carbon Dioxide: InChIKey CURLTUGMZLYLDI-UHFFFAOYSA-N
Kind: experiment
Isotherm type: absolute
Temperature: 298 K
Tabular data in the source: 0
pressure (bar)	uptake (mmol/g)
0.051	0.9425
0.296	1.1879
0.297	1.3893
0.476	1.6223
1.118	1.8129
2.201	1.9829
4.985	2.2001
10.066	2.3427
15.036	2.448
20.027	2.4796
24.93	2.5136
30.032	2.5195
35.156	2.6065
40.147	2.5809
45.028	2.5867
49.953	2.6473
54.944	2.6249
60.134	2.615
64.993	2.6151
70.161	2.645
74.909	2.6143
79.9	2.6434
84.958	2.6617
89.927	2.6542
95.006	2.6477
99.865	2.6187
