Adsorption isotherm of Carbon Dioxide on UPC-15
DOI: 10.1002/asia.201500234
Article source: Figure 4(c)- UPC 15 at 273 K
Adsorbate Carbon Dioxide: InChIKey CURLTUGMZLYLDI-UHFFFAOYSA-N
Kind: experiment
Temperature: 273 K
Tabular data in the source: 0
pressure (bar)	uptake (cm3(STP)/g)
0.013364	2.3711
0.040106	4.2894
0.066312	6.0163
0.09367	7.7479
0.119645	9.3768
0.146772	11.0477
0.173055	12.5693
0.19949	14.1655
0.226619	15.5983
0.252902	17.0919
0.280261	18.6181
0.306237	19.9623
0.332213	21.3578
0.359804	22.6366
0.38624	23.9761
0.412371	25.2269
0.439501	26.4124
0.466015	27.6819
0.492838	28.8813
0.520583	30.0715
0.547251	31.2803
0.573766	32.4191
0.600359	33.3852
0.627258	34.6266
0.653236	35.5647
0.680367	36.6335
0.707035	37.5903
0.733782	38.6217
0.760144	39.5504
0.786661	40.4699
0.813253	41.3239
0.839692	42.234
0.866978	43.1581
0.89334	44.0448
0.920088	44.7729
0.947297	45.5662
0.97266	46.4296
0.981575	46.6677
1.0074	47.3864
1.03007	47.8857
1.03484	48.1191
1.05321	48.5344
1.07965	49.2951
