Adsorption isotherm of Nitrogen on UPC-15
DOI: 10.1002/asia.201500234
Article source: Figure 3a- activation temperature 313 K
Adsorbate Nitrogen: InChIKey IJGRMHOSHXDMSA-UHFFFAOYSA-N
Kind: experiment
Temperature: 77 K
Tabular data in the source: 0
pressure (bar)	uptake (cm3(STP)/g)
0.000132	48.22
0.000142	40.418
0.000223	20.619
0.000355	80.549
0.000507	100.635
0.00073	139.906
0.00073	140.028
0.001104	158.926
0.003283	177.659
0.004296	196.31
0.0046	215.289
0.006546	233.899
0.008177	252.345
0.011207	270.34
0.014712	291.286
0.023761	309.649
0.030316	316.698
0.052314	328.048
0.071667	333.906
0.092652	337.96
0.10093	340.821
0.101001	340.828
0.119422	344.022
0.119736	344.35
0.136434	346.359
0.136667	346.355
0.156334	348.236
0.156405	348.248
0.172638	350.611
0.174046	350.692
0.193004	352.164
0.211273	353.636
0.229298	354.985
0.247871	356.498
0.265968	357.847
0.283923	359.238
0.302567	360.341
0.321069	361.731
0.338699	362.916
0.357272	363.691
0.37546	364.876
0.376544	365.163
0.395279	366.594
0.397387	366.101
0.415412	366.917
0.418381	368.229
0.432425	369.906
0.434218	367.815
0.450136	373.182
0.457006	368.795
0.471749	380.597
0.476592	369.815
0.487515	386.989
0.496411	371.492
0.505774	387.026
0.51694	372.308
0.524033	387.678
0.537225	373.82
0.542372	387.716
0.557044	375.169
0.560631	388.286
0.577259	375.001
0.578971	388.528
0.597544	389.016
0.598334	375.981
0.615884	389.095
0.617292	379.01
0.634143	389.296
0.635713	379.58
0.652563	389.415
0.659585	379.699
0.670822	389.657
0.678938	380.76
0.689476	390.104
0.699781	381.371
0.707654	390.388
0.719752	382.966
0.725609	390.753
0.739267	383.536
0.744566	391.036
0.76088	384.843
0.762906	391.196
0.780314	386.479
0.781398	391.316
0.799191	391.681
0.800994	387.909
0.818159	392.087
0.820347	389.012
0.837198	392.452
0.84118	391.14
0.855619	392.407
0.862326	391.75
0.873796	392.773
0.881994	392.033
0.892288	393.015
0.901347	392.603
0.910395	393.011
0.922341	393.009
0.928897	393.376
0.941765	393.374
0.946061	393.783
0.960186	393.534
0.968383	394.065
0.985781	394.349
0.987888	394.881
1.00241	395.165
