Adsorption isotherm of Methane on UPC-15
DOI: 10.1002/asia.201500234
Article source: Figure 4e- UPC 15 at 295 K
Adsorbate Methane: InChIKey VNWKTOKETHGBQD-UHFFFAOYSA-N
Kind: experiment
Temperature: 295 K
Tabular data in the source: 0
pressure (bar)	uptake (cm3(STP)/g)
0.044711	0.4575
0.06636	0.6464
0.09344	0.8618
0.120222	1.1006
0.147452	1.3504
0.173564	1.5783
0.199228	1.8077
0.200421	1.8031
0.226755	2.4686
0.226831	2.0451
0.253314	2.6543
0.253836	2.6554
0.279278	2.9119
0.28062	2.4587
0.306729	3.1429
0.308517	2.6788
0.332619	3.3693
0.334035	2.9255
0.360369	3.1378
0.360372	3.1378
0.38678	3.8111
0.386931	3.8133
0.413043	3.5717
0.413339	4.0358
0.439824	3.7869
0.440272	3.7762
0.46698	3.9838
0.467052	4.4807
0.493091	4.6821
0.493242	4.6774
0.519799	4.8788
0.520323	4.8783
0.546804	4.6217
0.546882	4.6222
0.573066	4.846
0.573813	4.8439
0.5997	5.0788
0.599851	5.0796
0.626334	5.7029
0.626856	5.7047
0.65334	5.9214
0.653788	5.5011
0.679229	5.7266
0.679455	5.7274
0.706533	6.321
0.706981	5.9241
0.732945	6.127
0.733613	6.1522
0.759578	6.6987
0.759951	6.6892
0.786359	6.5375
0.786361	6.5375
0.812918	6.7761
0.813738	6.7764
0.839627	6.9336
0.84	6.9355
0.865814	7.4604
0.866187	7.4624
0.892448	7.6242
0.892599	7.3304
0.919306	7.6065
0.919752	7.6068
0.945865	7.9628
0.946758	7.8081
0.972499	8.1548
0.97302	8.1565
0.981203	8.2188
0.998985	8.1452
1.00598	8.3623
1.02547	8.3231
1.03306	8.5184
1.05285	8.5541
1.08015	8.7586
