Adsorption isotherm of Hydrogen on UPC-15
DOI: 10.1002/asia.201500234
Article source: Figure 4(a)- UPC 15 at 87 K
Adsorbate Hydrogen: InChIKey UFHFLCQGNIYNRP-UHFFFAOYSA-N
Kind: experiment
Temperature: 87 K
Tabular data in the source: 0
pressure (bar)	uptake (cm3(STP)/g)
0.013343	2.818
0.039173	7.974
0.06664	12.137
0.093796	16.075
0.120329	19.474
0.14686	22.604
0.173236	25.592
0.19969	27.668
0.199769	27.674
0.226224	30.507
0.226301	30.515
0.253302	32.873
0.256424	32.773
0.280069	35.238
0.284986	35.096
0.306913	36.938
0.310894	36.612
0.3361	39.261
0.340627	39.515
0.360292	41.074
0.362477	40.875
0.39018	42.123
0.390259	42.122
0.416402	43.765
0.41843	44.615
0.444417	45.536
0.445977	46.584
0.471105	47.816
0.498731	49.037
0.498887	49.034
0.524016	50.667
0.524249	50.691
0.550471	52.179
0.551719	51.442
0.576535	52.916
0.576613	52.923
0.604785	54.043
0.605098	54.063
0.629602	55.261
0.629836	55.267
0.655978	57.009
0.65715	56.23
0.682435	57.307
0.685009	58.185
0.710059	58.45
0.710138	58.454
0.735734	59.41
0.736359	59.418
0.76414	61.33
0.776003	60.877
0.78958	61.553
0.79122	61.557
0.816349	62.161
0.816505	62.152
0.84218	64.179
0.842492	64.22
0.869103	65.028
0.881512	64.419
0.894621	65.028
0.895949	65.056
0.921388	67.025
0.922483	65.397
0.948937	67.719
0.959005	66.728
0.975001	68.584
0.985303	67.72
1.00216	69.264
1.01301	68.301
1.02963	70.227
1.03657	69.236
1.05601	70.511
1.06288	69.817
1.08863	70.568
