Adsorption isotherm of Carbon Dioxide on UPC-15
DOI: 10.1002/asia.201500234
Article source: Figure 4c- UPC 15 at 273 K
Adsorbate Carbon Dioxide: InChIKey CURLTUGMZLYLDI-UHFFFAOYSA-N
Kind: experiment
Temperature: 295 K
Tabular data in the source: 0
pressure (bar)	uptake (cm3(STP)/g)
0.044208	1.1741
0.065889	1.8498
0.093952	2.5766
0.120554	3.3827
0.147617	4.0676
0.172678	4.7238
0.172912	4.7292
0.198357	7.3534
0.200129	5.3862
0.225883	7.973
0.226269	7.9965
0.252871	6.7886
0.25333	6.8564
0.279317	7.3777
0.280242	7.4082
0.306072	10.023
0.30646	8.0745
0.332598	10.7126
0.332601	10.7127
0.35943	11.3276
0.359664	11.3313
0.38611	9.9122
0.38642	9.9148
0.41225	12.5342
0.413714	10.6556
0.438699	13.1212
0.440546	11.2193
0.467146	13.7735
0.467763	13.7706
0.492671	12.3452
0.493519	12.3234
0.51912	14.8729
0.520276	12.9477
0.54672	15.432
0.547108	15.4373
0.573246	16.0143
0.574094	16.0498
0.600312	16.515
0.600848	16.5174
0.627376	16.918
0.627835	16.9972
0.653668	17.5003
0.653824	17.4856
0.680272	16.4604
0.680577	16.4974
0.707564	16.928
0.70772	16.9355
0.733705	17.4683
0.734477	17.4619
0.760307	19.4521
0.760617	19.4567
0.78691	19.8713
0.787219	19.8864
0.813514	20.1997
0.814204	20.2672
0.840883	19.6607
0.840886	19.6608
0.866563	21.0776
0.866949	20.1266
0.893165	21.5294
0.894166	21.5415
0.920075	21.9393
0.921383	21.3286
0.946754	21.7763
0.947447	21.7804
0.97328	22.6471
0.973281	22.6471
0.983275	22.6983
1.00019	22.4929
1.00803	23.0755
1.02618	22.8842
1.03379	23.4248
1.05355	23.5225
1.08046	23.9649
