Adsorption isotherm of Nitrogen on UPC-16
DOI: 10.1002/asia.201500234
Article source: Figure 3b- activation temperature 383 K
Adsorbate Nitrogen: InChIKey IJGRMHOSHXDMSA-UHFFFAOYSA-N
Kind: experiment
Temperature: 77 K
Tabular data in the source: 0
pressure (bar)	uptake (cm3(STP)/g)
3e-05	75.699
5.1e-05	81.058
0.000101	20.313
0.000284	40.375
0.000821	100.944
0.000831	102.22
0.000841	103.549
0.00154	158.86
0.002665	178.226
0.003435	196.816
0.004975	216.145
0.0061	235.586
0.007569	254.175
0.009798	272.172
0.013355	293.057
0.020721	311.573
0.031431	324.83
0.051585	337.014
0.071596	343.495
0.092439	349.346
0.101051	352.383
0.120364	355.679
0.138633	356.929
0.138917	356.976
0.15677	360.532
0.158229	358.532
0.174968	362.125
0.176356	360.273
0.193379	364.495
0.195111	362.125
0.212479	366.384
0.213938	365.644
0.230545	367.829
0.23555	366.089
0.247699	368.496
0.256869	368.386
0.266596	370.571
0.27605	369.905
0.285291	371.386
0.296751	371.053
0.303144	373.164
0.315577	373.276
0.321687	373.98
0.340097	373.247
0.340584	373.314
0.358295	376.388
0.360109	373.685
0.37699	377.611
0.378996	374.537
0.399008	375.945
0.39998	376.267
0.41221	379.797
0.41603	376.649
0.43208	382.686
0.43666	377.094
0.452852	388.5
0.458546	380.428
0.469044	392.241
0.477089	382.058
0.487931	393.167
0.497171	383.095
0.506139	393.279
0.517872	384.207
0.524752	393.65
0.5376	385.689
0.543163	393.947
0.561361	393.799
0.562465	385.69
0.579427	393.948
0.580805	386.579
0.598385	394.208
0.600959	387.543
0.615752	394.32
0.619856	388.654
0.635419	394.172
0.641043	389.581
0.653891	395.062
0.657022	391.063
0.6714	394.951
0.67445	392.508
0.691057	394.767
0.709052	395.064
0.726906	395.027
0.739966	395.398
0.746218	394.51
0.76393	395.806
0.764345	395.849
0.782411	395.77
0.800751	395.697
0.819223	395.92
0.838535	395.809
0.856247	396.254
0.864586	396.292
0.8748	396.07
0.883341	397.218
0.893068	396.515
0.902096	397.774
0.911266	396.627
0.921764	396.886
0.930376	396.627
0.944339	396.665
0.963165	397.406
0.967613	396.703
0.980461	397.333
1.00464	397.815
