Adsorption isotherm of Hydrogen on UPC-15
DOI: 10.1002/asia.201500234
Article source: Figure 4(a)- UPC 15 at 77 K
Adsorbate Hydrogen: InChIKey UFHFLCQGNIYNRP-UHFFFAOYSA-N
Kind: experiment
Temperature: 77 K
Tabular data in the source: 0
pressure (bar)	uptake (cm3(STP)/g)
0.040002	19.954
0.040002	19.955
0.066676	28.133
0.067142	28.345
0.092492	36.595
0.093583	36.835
0.120494	41.262
0.120727	41.315
0.146703	46.793
0.147325	48.011
0.173534	51.42
0.173614	51.433
0.199978	56.709
0.200136	56.732
0.2265	59.386
0.226813	59.423
0.253412	64.36
0.25708	63.51
0.28009	67.612
0.283993	66.62
0.309191	70.714
0.309968	70.92
0.333215	73.408
0.336259	72.615
0.363326	76.532
0.363795	76.589
0.390944	77.095
0.393282	79.189
0.416766	79.837
0.419182	81.691
0.442274	82.636
0.443521	83.67
0.470203	84.274
0.472152	86.044
0.497116	86.536
0.498675	88.078
0.523094	88.372
0.524886	90.141
0.550788	90.746
0.551723	91.85
0.57505	92.541
0.577389	93.772
0.602198	94.193
0.605629	95.594
0.630048	97.108
0.630126	97.119
0.656182	98.658
0.657509	98.58
0.683798	100.523
0.684188	100.537
0.710167	101.901
0.710479	101.921
0.736614	102.497
0.737159	102.52
0.763059	104.306
0.763295	104.319
0.789584	106.269
0.789819	106.283
0.815329	106.917
0.815485	107.554
0.841463	108.03
0.84162	108.031
0.86986	109.584
0.870015	109.603
0.895605	111.47
0.895761	111.492
0.922519	112.804
0.926264	112.294
0.948342	113.834
0.954817	113.55
0.975257	115.132
0.980639	114.933
1.00131	116.162
1.00755	116.062
1.02472	116.994
1.03275	117.148
1.05624	118.221
1.0592	118.249
1.08432	118.896
