Adsorption isotherm of Hydrogen on UPC-16
DOI: 10.1002/asia.201500234
Article source: Figure 4(a)- UPC 16 at 87 K
Adsorbate Hydrogen: InChIKey UFHFLCQGNIYNRP-UHFFFAOYSA-N
Kind: experiment
Temperature: 87 K
Tabular data in the source: 0
pressure (bar)	uptake (cm3(STP)/g)
0.01181	10.795
0.012742	11.119
0.038054	24.18
0.039154	28.727
0.064689	33.898
0.066571	38.671
0.092414	41.902
0.093046	42.151
0.119746	52.707
0.119753	52.71
0.146303	53.842
0.146844	53.972
0.172306	62.939
0.173392	58.916
0.20026	67.331
0.201111	63.337
0.226885	71.241
0.227269	71.297
0.253198	71.07
0.253895	71.087
0.279433	74.916
0.280676	74.501
0.307067	77.746
0.307072	77.748
0.333071	84.362
0.334315	80.877
0.36032	87.097
0.36094	87.118
0.386866	86.41
0.387251	86.432
0.413958	88.885
0.414343	88.912
0.440269	94.734
0.440966	91.42
0.46697	96.86
0.467511	93.815
0.493983	99.141
0.494134	99.165
0.520523	101.111
0.520528	101.111
0.547302	100.121
0.547384	103.081
0.574003	102.204
0.574163	104.966
0.600548	104.188
0.600864	106.823
0.627408	108.538
0.627482	108.527
0.653874	107.684
0.653949	107.689
0.680496	111.868
0.680883	109.333
0.706573	113.442
0.707271	110.949
0.733893	112.621
0.734209	114.93
0.760596	116.348
0.760905	116.311
0.787062	115.933
0.787839	115.825
0.814072	119.185
0.81423	119.211
0.840227	120.6
0.84085	118.759
0.867162	121.933
0.867471	120.219
0.893549	123.237
0.894796	123.339
0.920559	124.513
0.921107	124.527
0.947415	125.689
0.947417	125.689
0.973803	126.285
0.973881	126.288
0.999722	127.405
1.0055	128.071
1.02783	128.752
1.0304	129.135
1.05367	129.943
1.05484	130.155
1.08146	131.049
