Adsorption isotherm of Nitrogen on UPC-16
DOI: 10.1002/asia.201500234
Article source: Figure 3b- activation temperature 313 K
Adsorbate Nitrogen: InChIKey IJGRMHOSHXDMSA-UHFFFAOYSA-N
Kind: experiment
Temperature: 77 K
Tabular data in the source: 0
pressure (bar)	uptake (cm3(STP)/g)
0.000223	99.852
0.000233	54.849
0.000243	61.63
0.000334	159.296
0.000345	164.544
0.000355	121.148
0.000537	20.577
0.000547	21.482
0.002543	179.038
0.003506	197.816
0.003708	217.038
0.004671	236.335
0.00765	254.595
0.009788	272.299
0.011521	288.373
0.017063	309.041
0.028158	327.637
0.049609	342.235
0.075021	350.501
0.092246	354.394
0.100859	356.544
0.118216	360.215
0.139666	362.962
0.157104	365.114
0.174461	366.711
0.191889	369.012
0.212377	370.721
0.231467	371.615
0.248702	372.851
0.267782	374.116
0.285625	375.52
0.304522	376.925
0.321676	378.796
0.339783	378.847
0.359116	379.319
0.378459	380.397
0.394033	381.661
0.413973	383.392
0.433195	382.778
0.455	382.19
0.477575	379.678
0.497435	380.794
0.517436	381.614
0.537428	382.397
0.557845	383.143
0.578262	383.778
0.587574	384.373
0.599094	384.783
0.606531	384.674
0.619511	384.936
0.629026	384.939
0.640627	384.831
0.657295	385.279
0.668745	385.467
0.678259	385.248
0.696245	385.252
0.705344	385.477
0.712224	385.293
0.730766	385.187
0.741111	385.041
0.74868	385.34
0.767223	385.27
0.778672	385.31
0.785826	385.942
0.804652	385.724
0.813812	385.282
0.821381	385.469
0.840207	385.511
0.850269	385.44
0.859023	385.738
0.876593	385.632
0.88555	385.634
0.894092	385.525
0.906524	385.195
0.912219	386.011
0.921389	385.384
0.930832	385.534
0.946173	385.39
0.964928	384.802
0.965901	385.284
0.979924	385.547
0.990898	385.809
1.00423	385.664
