Adsorption isotherm of Carbon Dioxide on UPC-16
DOI: 10.1002/asia.201500234
Article source: Figure 4c- UPC 16 at 273 K
Adsorbate Carbon Dioxide: InChIKey CURLTUGMZLYLDI-UHFFFAOYSA-N
Kind: experiment
Temperature: 273 K
Tabular data in the source: 0
pressure (bar)	uptake (cm3(STP)/g)
0.039975	4.0369
0.066575	5.8037
0.066728	5.7834
0.092943	5.9967
0.093327	6.0181
0.119619	9.1413
0.120003	9.1588
0.146603	10.7263
0.14668	10.7336
0.173202	12.2594
0.173355	12.2646
0.199262	12.1201
0.199801	12.1438
0.2264	15.2107
0.226477	15.2071
0.252769	16.6175
0.253383	16.6418
0.279752	16.2782
0.279982	16.2848
0.306044	19.476
0.306659	19.3969
0.332566	18.9046
0.332719	18.912
0.359242	22.0725
0.360472	20.2965
0.385995	23.2892
0.387763	21.5598
0.412747	22.7465
0.412978	22.7252
0.440577	24.0071
0.44073	24.0311
0.466176	26.8973
0.467714	25.2331
0.494237	26.4299
0.494467	26.4078
0.520912	27.5732
0.521142	29.312
0.547204	30.4214
0.547511	30.3895
0.574034	29.8611
0.574187	29.8667
0.601248	32.5564
0.601479	32.5639
0.627078	33.5959
0.628308	33.5673
0.654599	33.1484
0.6802	35.5911
0.681045	34.1926
0.70703	35.2088
0.707336	35.2516
0.734166	36.2607
0.734244	36.2577
0.760073	38.4268
0.760228	38.444
0.78675	39.3856
0.787211	39.3549
0.813657	39.1572
0.840256	40.1455
0.840718	40.1175
0.867086	41.1197
0.867393	41.1579
0.893916	42.8567
0.894146	42.8818
0.919899	42.8496
0.920438	42.8678
0.947037	44.5273
0.947651	44.556
0.973483	44.7231
0.974404	44.7823
0.982707	45.4783
1.00093	45.6601
1.00746	46.2661
1.02691	46.6017
1.03591	47.0632
1.05397	47.4128
1.08026	48.3172
