Adsorption isotherm of Methane on UPC-16
DOI: 10.1002/asia.201500234
Article source: Figure 4e- UPC 16 at 295 K
Adsorbate Methane: InChIKey VNWKTOKETHGBQD-UHFFFAOYSA-N
Kind: experiment
Temperature: 295 K
Tabular data in the source: 0
pressure (bar)	uptake (cm3(STP)/g)
0.01303	0.2331
0.014957	0.2549
0.039225	1.2836
0.066385	1.7464
0.067269	1.154
0.092876	2.2343
0.119368	2.6768
0.119803	2.0031
0.146293	2.4081
0.146304	2.4087
0.17287	2.8076
0.17323	2.8178
0.199434	4.0028
0.200018	3.2385
0.226223	4.4579
0.227252	3.6466
0.252713	4.0501
0.253222	4.0532
0.279352	5.282
0.280232	4.4644
0.305694	5.7167
0.306499	4.8741
0.332705	5.2453
0.333213	5.2495
0.359418	6.5611
0.359628	6.5637
0.386131	6.9661
0.386415	6.9687
0.413067	6.4633
0.413426	6.4661
0.439335	7.7542
0.439396	7.7552
0.466122	8.1577
0.46648	7.2776
0.492761	7.6722
0.493194	7.6748
0.519399	8.9365
0.519759	8.9399
0.546559	9.3086
0.546768	8.4473
0.572825	9.6761
0.573779	8.8148
0.59924	10.0483
0.5996	10.0519
0.62625	10.3924
0.626982	9.5733
0.652665	10.0313
0.653472	9.9736
0.678993	10.3255
0.6796	10.37
0.706015	11.4573
0.706973	10.7305
0.733174	11.1193
0.733313	11.1136
0.759356	11.4764
0.759515	11.4856
0.786003	11.8273
0.786515	11.8377
0.81279	12.1796
0.812856	12.1802
0.839428	13.1244
0.839568	13.128
0.866058	13.4384
0.866438	13.4544
0.892777	13.7703
0.893292	13.2998
0.919855	13.6517
0.920084	13.6629
0.946567	14.399
0.946722	14.4053
0.972988	14.3948
0.973057	14.3945
0.999844	14.7479
1.00654	15.0684
1.02604	15.1217
1.0337	15.3437
1.05319	15.4642
1.08021	15.8473
