Adsorption isotherm of Methane on UPC-15
DOI: 10.1002/asia.201500234
Article source: Figure 4e- UPC 15 at 273 K
Adsorbate Methane: InChIKey VNWKTOKETHGBQD-UHFFFAOYSA-N
Kind: experiment
Temperature: 273 K
Tabular data in the source: 0
pressure (bar)	uptake (cm3(STP)/g)
0.093596	1.8908
0.120009	2.3439
0.147313	2.7565
0.173203	3.1424
0.199392	3.5644
0.226399	3.9816
0.226544	3.2581
0.252885	4.3535
0.253626	3.6347
0.279594	3.991
0.279813	3.9926
0.306229	4.3955
0.306672	4.3723
0.333158	4.763
0.333534	5.5396
0.35987	5.8927
0.359941	5.8895
0.386506	6.2474
0.387022	6.2582
0.413507	5.8662
0.413809	5.8851
0.439922	6.1944
0.440217	6.2006
0.467079	6.5821
0.467372	6.5663
0.493709	7.6598
0.493787	7.6601
0.519749	7.3133
0.520051	8.0336
0.546239	8.4258
0.547202	8.3754
0.573762	8.0212
0.573989	8.034
0.600028	9.0837
0.600248	9.0735
0.626738	9.415
0.627403	8.7103
0.65285	9.0654
0.653814	9.0603
0.679857	9.3862
0.680375	9.3885
0.706641	10.387
0.707233	9.7401
0.733126	10.7042
0.733272	10.7061
0.75991	11.0433
0.760352	11.0466
0.78647	11.3465
0.787062	11.3601
0.81325	11.6558
0.813253	11.6559
0.839962	11.4335
0.840554	11.42
0.86637	12.2377
0.866521	12.2435
0.893156	12.0976
0.893228	12.0966
0.920011	12.4201
0.920087	12.423
0.946498	13.1529
0.946719	13.1497
0.973205	13.0827
0.973728	13.0973
0.981167	13.4889
0.998575	13.4093
1.00773	13.7249
1.02633	13.7062
1.03362	13.964
1.05348	14.0734
1.08049	14.3906
