Adsorption isotherm of Nitrogen on UPC-15
DOI: 10.1002/asia.201500234
Article source: Figure 3a- activation temperature 333 K
Adsorbate Nitrogen: InChIKey IJGRMHOSHXDMSA-UHFFFAOYSA-N
Kind: experiment
Temperature: 77 K
Tabular data in the source: 0
pressure (bar)	uptake (cm3(STP)/g)
0.000324	80.681
0.000375	20.221
0.000385	100.615
0.000426	60.623
0.000436	40.525
0.000689	120.016
0.001277	138.915
0.001297	139.007
0.003212	177.153
0.004762	195.611
0.005684	214.315
0.00692	232.322
0.00917	250.246
0.011409	268.253
0.015847	288.228
0.028695	309.229
0.051078	321.657
0.070887	327.358
0.091871	331.337
0.101933	333.962
0.113788	334.249
0.119949	336.013
0.136951	337.654
0.13843	338.351
0.15521	338.72
0.156527	340.238
0.173924	340.566
0.175019	341.427
0.19351	342.415
0.193744	342.453
0.212772	343.888
0.214961	343.232
0.23095	344.75
0.233129	344.258
0.248966	345.898
0.251539	345.898
0.266748	346.678
0.276506	347.252
0.285159	347.621
0.295616	347.293
0.303651	347.867
0.314026	347.498
0.322295	348.687
0.332589	348.975
0.340705	349.672
0.353888	348.605
0.358569	350
0.37698	350.574
0.395076	350.984
0.415047	350.902
0.419252	352.83
0.431736	354.102
0.436731	350.41
0.450065	357.096
0.456226	351.846
0.47182	364.274
0.475498	353.158
0.487424	369.36
0.495854	353.281
0.507628	369.442
0.516139	353.897
0.521196	369.688
0.536962	354.717
0.543902	369.647
0.556315	355.168
0.567146	369.196
0.577137	355.742
0.580015	369.114
0.597341	355.824
0.602245	369.073
0.615276	368.868
0.617708	357.26
0.63704	368.335
0.637831	368.051
0.650142	367.925
0.659048	358.08
0.671835	368.294
0.678624	358.614
0.693985	367.596
0.698909	358.368
0.707248	367.842
0.718648	359.516
0.729013	367.473
0.739237	359.721
0.741415	367.227
0.759289	360.254
0.762947	366.94
0.780425	360.049
0.786272	366.448
0.799535	361.947
0.800082	361.772
0.820135	361.895
0.820834	362.26
0.839245	363.372
0.842902	365.833
0.856095	365.792
0.860614	364.274
0.87786	365.012
0.889867	364.848
0.903444	363.823
0.91233	364.684
0.915299	364.643
0.934723	364.028
0.94674	364.151
0.963743	363.084
0.968809	363.864
0.98036	363.618
0.984727	363.454
1.00291	363.741
