Adsorption isotherm of Carbon Dioxide on UPC-16
DOI: 10.1002/asia.201500234
Article source: Figure 4c- UPC 16 at 295 K
Adsorbate Carbon Dioxide: InChIKey CURLTUGMZLYLDI-UHFFFAOYSA-N
Kind: experiment
Temperature: 295 K
Tabular data in the source: 0
pressure (bar)	uptake (cm3(STP)/g)
0.012847	0.5404
0.015073	0.6686
0.040301	3.0067
0.044758	1.7745
0.065909	4.0006
0.066136	2.7032
0.093287	5.0786
0.093512	5.0844
0.120125	4.6882
0.120429	4.6584
0.146652	7.0805
0.146656	7.0805
0.172951	8.0742
0.172956	8.0744
0.19979	7.4022
0.200026	9.003
0.225249	9.8803
0.225936	9.7861
0.252395	9.3138
0.252467	9.3154
0.279388	10.1247
0.27946	10.118
0.304836	11.014
0.306072	12.5494
0.332449	13.408
0.332674	11.8586
0.359286	14.2013
0.359436	14.2094
0.385735	15.0045
0.386048	15.0459
0.411733	14.3236
0.412727	14.229
0.43872	15.1203
0.440338	16.6604
0.465715	17.337
0.466019	15.8295
0.492477	18.0742
0.492549	18.0763
0.520007	18.8955
0.52131	17.57
0.546075	19.5768
0.547916	18.2046
0.573605	18.9989
0.573909	19.0025
0.600673	20.9859
0.600824	19.7771
0.627896	21.6625
0.628046	21.6693
0.654114	22.2631
0.654733	22.3391
0.680264	21.7739
0.681029	21.7929
0.707178	23.6082
0.707328	22.4601
0.733628	23.076
0.73463	24.2428
0.760541	23.7573
0.760699	23.7622
0.787073	25.3558
0.78769	25.4373
0.813374	25.0719
0.813833	25.0871
0.840058	26.6318
0.840978	25.6237
0.866201	26.2116
0.866818	27.117
0.893499	26.8695
0.894193	26.8944
0.920259	28.1849
0.920954	28.2181
0.947097	28.1527
0.948175	28.7127
0.973705	29.2213
0.974319	29.2115
0.982702	29.3332
1.00116	29.3331
1.008	29.7671
1.02699	29.9584
1.03453	30.1964
1.05499	30.5136
1.08105	31.0548
