Adsorption isotherm of Nitrogen on UPC-16
DOI: 10.1002/asia.201500234
Article source: Figure 3b- activation temperature 353 K
Adsorbate Nitrogen: InChIKey IJGRMHOSHXDMSA-UHFFFAOYSA-N
Kind: experiment
Temperature: 77 K
Tabular data in the source: 0
pressure (bar)	uptake (cm3(STP)/g)
3e-05	40.707
4.1e-05	72.096
6.1e-05	80.341
0.000142	101.491
0.000152	109.806
0.000162	139.717
0.000182	158.83
0.000193	226.076
0.000203	221.19
0.000223	216.168
0.000223	215.089
0.000233	211.044
0.009079	269.917
0.011521	287.031
0.016749	307.072
0.026	328.077
0.050318	341.494
0.09173	353.622
0.110414	358.259
0.133688	361.119
0.151684	363.385
0.171827	364.689
0.19197	366.919
0.215032	369.298
0.238651	370.677
0.258592	372.722
0.267761	373.947
0.284358	375.176
0.303235	376.135
0.322315	378.242
0.340341	378.342
0.358893	380.029
0.377537	381.109
0.396616	382.469
0.412281	383.595
0.432769	385.277
0.450248	388.645
0.679263	389.581
0.699963	390.408
0.720107	390.67
0.739703	390.455
0.759431	391.24
0.780405	391.284
0.801379	391.366
0.821523	391.559
0.841119	391.899
0.861607	391.722
0.881821	391.988
0.901762	392.181
0.922037	393.077
0.941694	392.825
0.962537	392.87
0.982336	393.21
1.0038	393.366
