Adsorption isotherm of Methane on UPC-16
DOI: 10.1002/asia.201500234
Article source: Figure 4e- UPC 16 at 273 K
Adsorbate Methane: InChIKey VNWKTOKETHGBQD-UHFFFAOYSA-N
Kind: experiment
Temperature: 273 K
Tabular data in the source: 0
pressure (bar)	uptake (cm3(STP)/g)
0.014431	0.2967
0.038385	1.0089
0.046344	0.6385
0.065833	0.8407
0.067768	0.8086
0.093283	1.1964
0.094399	1.1895
0.119393	1.847
0.120733	1.3939
0.147363	2.0498
0.147809	1.7249
0.173622	2.4292
0.199361	2.3268
0.199881	2.3305
0.225099	3.063
0.226809	2.6521
0.252921	3.3283
0.253293	2.9268
0.279552	3.6311
0.280369	3.1827
0.304992	3.9371
0.306852	3.4856
0.332143	3.8026
0.332887	3.7806
0.359668	4.5023
0.359741	4.5052
0.385331	4.7924
0.386	4.3534
0.413673	5.0749
0.413971	4.6484
0.440156	4.9012
0.440378	4.91
0.466043	5.1621
0.466488	5.1541
0.492674	5.8925
0.492971	5.9037
0.519751	6.1581
0.520197	5.7347
0.546307	6.4078
0.547348	6
0.572864	6.6856
0.57331	6.6886
0.599495	6.5333
0.600016	6.5354
0.62635	6.7691
0.626572	6.771
0.652757	7.4707
0.65298	7.0551
0.678719	7.7001
0.680355	7.311
0.706019	7.956
0.706466	7.9638
0.733096	8.2108
0.73332	8.2119
0.759058	8.4423
0.759504	8.4585
0.786358	8.6832
0.786507	8.3786
0.812989	8.6048
0.813138	8.6096
0.839398	8.8608
0.839695	8.8621
0.866177	9.1282
0.866251	9.1292
0.892808	9.3819
0.893403	9.3836
0.919662	9.6536
0.946442	9.8643
0.947037	10.0564
0.973221	10.2827
0.973891	10.2803
0.980735	10.3482
0.991074	10.3278
1.0003	10.3793
1.00766	10.5386
1.02656	10.6384
1.03392	10.7617
1.0543	10.8896
1.08056	11.1065
