Adsorption isotherm of Hydrogen on UPC-16
DOI: 10.1002/asia.201500234
Article source: Figure 4(a)- UPC 16 at 77 K
Adsorbate Hydrogen: InChIKey UFHFLCQGNIYNRP-UHFFFAOYSA-N
Kind: experiment
Temperature: 77 K
Tabular data in the source: 0
pressure (bar)	uptake (cm3(STP)/g)
0.012568	6.463
0.012806	6.541
0.040205	13.082
0.041373	10.477
0.066195	18.444
0.066665	18.504
0.092967	19.665
0.093204	22.893
0.119508	26.928
0.119739	26.905
0.146045	27.542
0.146199	27.522
0.173282	30.849
0.173519	30.937
0.200053	33.978
0.200602	34.026
0.226515	36.622
0.227371	36.725
0.252739	42.062
0.252893	42.074
0.279041	44.384
0.280053	41.708
0.306279	44.247
0.306511	44.257
0.333595	48.801
0.33375	48.823
0.360364	48.589
0.360444	48.606
0.386043	50.606
0.38651	50.642
0.413437	54.648
0.413513	54.656
0.44075	54.252
0.440832	54.272
0.466818	58.119
0.466976	58.131
0.492807	57.636
0.493746	57.731
0.519889	61.068
0.520047	61.104
0.546895	60.552
0.547048	60.538
0.573583	61.911
0.574054	62.021
0.599963	65.446
0.600043	65.451
0.62681	66.891
0.626891	66.909
0.653036	67.914
0.653813	67.759
0.679727	67.139
0.67988	67.121
0.707352	70.486
0.70751	70.491
0.733965	70.151
0.734124	70.158
0.75972	72.648
0.760033	72.685
0.786881	72.797
0.787191	72.813
0.81326	74.766
0.813414	74.775
0.83995	75.234
0.840106	75.234
0.866875	76.771
0.866953	76.777
0.892864	77.782
0.893019	77.78
0.920022	78.54
0.920256	78.546
0.946869	79.597
0.947026	79.608
0.973795	80.26
0.973949	80.256
0.999939	80.882
1.02679	81.704
1.05332	82.482
1.08087	83.19
