Adsorption isotherm of Carbon Dioxide on MWCNT@MIL-101
DOI: 10.1016/j.cej.2012.03.025
Adsorbate Carbon Dioxide: InChIKey CURLTUGMZLYLDI-UHFFFAOYSA-N
Temperature: 298 K
Tabular data in the source: 0
pressure (bar)	uptake (mmol/g)
0.316206	0.0451093
1.02767	0.153382
1.81818	0.27971
3.00395	0.469201
3.63636	0.568456
4.26877	0.658674
4.82213	0.721802
5.37549	0.793966
5.92885	0.857094
6.40316	0.92024
6.95652	0.983368
7.50988	1.0465
7.98419	1.10964
8.53755	1.18181
9.09091	1.2359
9.64427	1.30806
10.3557	1.39826
11.6996	1.51543
12.332	1.56047
12.9644	1.61454
13.5968	1.66862
14.1502	1.72271
14.7826	1.76774
15.8103	1.8398
16.996	1.92086
18.1818	1.99288
18.8933	2.0379
19.5257	2.0739
20.2372	2.11892
21.1858	2.16389
22.3715	2.22687
23.1621	2.2538
23.8735	2.28979
24.7431	2.33477
25.7708	2.37068
26.4032	2.40669
27.1146	2.44267
27.8261	2.46962
29.3281	2.5235
30.1186	2.54139
30.83	2.55026
31.6206	2.56816
32.4111	2.58605
33.1225	2.613
