Adsorption isotherm of Nitrogen on MIL-101
DOI: 10.1016/j.cej.2012.03.025
Adsorbate Nitrogen: InChIKey IJGRMHOSHXDMSA-UHFFFAOYSA-N
Temperature: 77 K
Tabular data in the source: 0
pressure (bar)	uptake (cm3(STP)/g)
0.00197866	0.00197866
0.00593597	216.641
0.0138506	254.107
0.0277012	287.381
0.0474877	320.63
0.0811249	349.652
0.0989328	362.076
0.122677	374.474
0.148399	382.697
0.170164	386.77
0.195887	399.16
0.269097	411.346
0.30867	419.51
0.358137	423.464
0.399688	427.452
0.451134	431.399
0.5006	439.52
0.550066	439.308
0.597554	451.604
0.643063	455.575
0.69253	463.697
0.785526	475.798
0.846865	496.368
0.86863	504.608
0.890395	529.515
0.918096	566.896
0.935904	620.986
0.951733	704.252
0.965584	1062.53
