Adsorption isotherm of Carbon Dioxide on MIL-101
DOI: 10.1016/j.cej.2012.03.025
Adsorbate Carbon Dioxide: InChIKey CURLTUGMZLYLDI-UHFFFAOYSA-N
Temperature: 298 K
Tabular data in the source: 0
pressure (bar)	uptake (mmol/g)
1.34387	0.10813
1.89723	0.162222
2.6087	0.225314
3.47826	0.306443
4.34783	0.3695
4.98024	0.414538
6.40316	0.540722
7.35178	0.603761
7.98419	0.648799
9.16996	0.729856
9.80237	0.774894
11.0672	0.86497
11.6996	0.919044
12.9644	1.00912
13.5968	1.05416
14.3083	1.09918
14.9407	1.14422
15.5731	1.19829
16.1265	1.23431
17.3913	1.32438
18.0237	1.36942
18.8142	1.42346
19.4466	1.4685
20.3162	1.54059
21.3439	1.60361
22.4506	1.65758
23.1621	1.69356
23.7945	1.72053
24.9802	1.77448
26.087	1.80134
26.8775	1.81923
28.8538	1.873
29.7233	1.89088
30.6719	1.90873
31.5415	1.92661
32.253	1.92645
33.7549	1.95322
