Adsorption isotherm of Nitrogen on MWCNT@MIL-101
DOI: 10.1016/j.cej.2012.03.025
Adsorbate Nitrogen: InChIKey IJGRMHOSHXDMSA-UHFFFAOYSA-N
Temperature: 77 K
Tabular data in the source: 0
pressure (bar)	uptake (cm3(STP)/g)
0.00197866	41.6582
0.00395731	87.483
0.0118719	145.782
0.0178079	179.09
0.0296798	195.706
0.0494664	220.621
0.0850822	245.468
0.100911	257.901
0.124655	270.299
0.148399	282.697
0.172143	278.428
0.199844	274.143
0.271076	290.504
0.312628	298.659
0.362094	298.447
0.403646	310.769
0.453112	314.723
0.502579	318.678
0.548088	322.649
0.597554	326.604
0.645042	330.567
0.69253	334.53
0.740017	346.826
0.787505	346.623
0.831035	354.769
0.86863	354.608
0.890395	362.848
0.92799	383.52
0.947776	412.602
0.963605	466.701
