Adsorption isotherm of Nitrogen on 4PE-TT COF
DOI: 10.1038/nchem.2444
Article source: Figure 5
Adsorbate Nitrogen: InChIKey IJGRMHOSHXDMSA-UHFFFAOYSA-N
Kind: experiment
Temperature: 77 K
Tabular data in the source: 0
pressure (bar)	uptake (cm3(STP)/g)
0.01608	359.229
0.025017	376.859
0.050926	409.917
0.071485	429.752
0.091142	451.791
0.103645	460.606
0.112582	469.421
0.123302	478.237
0.132239	484.848
0.142959	493.664
0.15369	502.479
0.16441	511.295
0.173347	522.314
0.183175	533.333
0.193004	544.353
0.201931	559.78
0.209084	570.799
0.214444	581.818
0.218021	590.634
0.222489	617.08
0.228741	641.322
0.230525	680.992
0.232318	698.623
0.246615	720.661
0.257335	722.865
0.276992	725.069
0.292181	728.375
0.307369	731.68
0.332387	736.088
0.357404	738.292
0.382431	744.904
0.40834	749.311
0.433357	752.617
0.458374	757.025
0.484283	761.432
0.50931	764.738
0.535219	766.942
0.560236	770.248
0.585253	773.554
0.611162	774.656
0.636189	777.961
0.661206	779.063
0.686224	784.573
0.712132	785.675
0.73715	787.879
0.763068	790.083
0.788086	793.388
0.812211	796.694
0.83812	801.102
0.863137	802.204
0.889948	806.612
0.913171	808.815
0.939982	811.019
0.961422	817.631
0.001783	218.182
0.003577	279.89
0.00536	301.928
0.01072	339.394
0.019657	370.248
0.028594	387.879
0.037531	398.898
0.049143	416.529
0.056296	425.344
0.067908	434.16
0.078628	445.179
0.089348	453.994
0.101862	467.218
0.114366	477.135
0.126879	488.154
0.140284	501.377
0.152788	514.601
0.167085	525.62
0.178707	538.843
0.19121	554.27
0.201931	570.799
0.207301	579.614
0.210867	590.634
0.214444	599.449
0.221588	630.303
0.226958	650.138
0.228741	683.196
0.234101	718.457
0.239461	727.273
0.251975	729.477
0.271632	736.088
0.285929	738.292
0.303793	740.496
0.32881	747.107
0.353837	751.515
0.380637	754.821
0.405655	760.331
0.430672	764.738
0.456591	762.534
0.480716	771.35
0.50394	773.554
0.53075	777.961
0.557551	780.165
0.580785	784.573
0.608487	786.777
0.633504	788.981
0.65763	791.185
0.68444	795.592
0.709457	797.796
0.734475	800
0.759492	800
0.786292	802.204
0.811319	804.408
0.836337	806.612
0.863137	811.019
0.886371	811.019
0.914965	811.019
0.939982	815.427
0.963216	824.242
0.996278	840.771
