Adsorption isotherm of Nitrogen on 4PE-3P COF
DOI: 10.1038/nchem.2444
Article source: Figure 5
Adsorbate Nitrogen: InChIKey IJGRMHOSHXDMSA-UHFFFAOYSA-N
Kind: experiment
Temperature: 77 K
Tabular data in the source: 0
pressure (bar)	uptake (cm3(STP)/g)
0.001783	81.5427
0.00536	141.047
0.01072	169.697
0.020549	193.939
0.026811	211.57
0.050034	225.895
0.071485	238.017
0.089348	246.832
0.112582	255.647
0.132239	264.463
0.151896	271.074
0.171553	277.686
0.193004	284.298
0.212661	293.113
0.232318	297.521
0.252867	305.234
0.273415	312.948
0.290397	320.661
0.303793	326.171
0.314523	330.579
0.32345	332.782
0.332387	337.19
0.35562	346.006
0.381529	359.229
0.405655	372.452
0.431574	420.937
0.461059	510.193
0.484283	511.295
0.50931	513.499
0.536111	515.702
0.559344	517.906
0.584362	520.11
0.611162	520.11
0.634396	524.518
0.66299	524.518
0.686224	526.722
0.713024	528.926
0.736258	531.129
0.762167	533.333
0.788086	535.537
0.813103	537.741
0.83812	539.945
0.863137	543.251
0.888154	544.353
0.913171	546.556
0.939982	553.168
0.963216	555.372
0.01072	182.92
0.02144	209.366
0.033954	224.793
0.050034	238.017
0.061656	244.628
0.082205	253.444
0.099177	262.259
0.128662	273.278
0.152788	282.094
0.178707	293.113
0.204616	301.928
0.229633	308.54
0.253758	319.559
0.273415	326.171
0.289496	330.579
0.303793	334.986
0.312729	339.394
0.321666	341.598
0.32881	346.006
0.354729	358.127
0.380637	370.248
0.407448	425.344
0.430672	514.601
0.455699	517.906
0.480716	522.314
0.505733	525.62
0.53075	528.926
0.555768	528.926
0.581676	531.129
0.607595	533.333
0.632613	535.537
0.65763	535.537
0.68444	537.741
0.709457	539.945
0.734475	539.945
0.759492	539.945
0.784509	542.149
0.810418	543.251
0.836337	546.556
0.863137	546.556
0.887262	548.76
0.913171	550.964
0.938199	553.168
0.963216	557.576
0.995376	566.391
