Adsorption isotherm of Nitrogen on 4PE-2P COF
DOI: 10.1038/nchem.2444
Article source: Figure 5
Adsorbate Nitrogen: InChIKey IJGRMHOSHXDMSA-UHFFFAOYSA-N
Kind: experiment
Temperature: 77 K
Tabular data in the source: 0
pressure (bar)	uptake (cm3(STP)/g)
0.001783	187.328
0.016972	381.267
0.026811	403.306
0.033954	414.325
0.042891	427.548
0.053611	440.771
0.062548	449.587
0.073268	460.606
0.085782	473.829
0.094708	482.645
0.110799	493.664
0.132239	513.499
0.151896	531.129
0.173347	546.556
0.193004	566.391
0.218021	579.614
0.234993	599.449
0.255542	619.284
0.275199	641.322
0.289496	663.361
0.305586	703.03
0.312729	749.311
0.319883	848.485
0.331495	892.562
0.357404	901.377
0.380637	905.785
0.407448	911.295
0.431574	915.702
0.456591	920.11
0.4825	921.212
0.507517	927.824
0.533436	930.028
0.559344	934.435
0.584362	938.843
0.61027	941.047
0.635287	945.455
0.659413	947.658
0.687115	950.964
0.711241	955.372
0.736258	957.576
0.761275	960.882
0.788086	963.085
0.811319	965.289
0.83812	969.697
0.863137	971.901
0.888154	975.207
0.914965	978.512
0.939982	980.716
0.964999	985.124
0.00536	315.152
0.01072	352.617
0.019657	392.286
0.035737	423.141
0.050034	445.179
0.060754	458.402
0.081313	481.543
0.101862	500.275
0.127771	524.518
0.152788	545.455
0.178707	567.493
0.201931	588.43
0.230525	612.672
0.253758	632.507
0.275199	658.953
0.287712	676.584
0.314523	826.446
0.322558	895.868
0.330603	912.397
0.35562	919.008
0.380637	924.518
0.405655	928.926
0.430672	933.333
0.456591	938.843
0.481608	943.251
0.506625	945.455
0.532534	947.658
0.557551	952.066
0.58347	954.27
0.608487	958.678
0.632613	959.78
0.659413	963.085
0.68444	965.289
0.709457	967.493
0.735366	968.595
0.760383	970.799
0.7854	974.105
0.810418	974.105
0.836337	976.309
0.861354	978.512
0.885479	980.716
0.91228	982.92
0.939982	982.92
0.964999	985.124
0.996278	991.736
