Adsorption isotherm of Nitrogen on 4PE-1P COF
DOI: 10.1038/nchem.2444
Article source: Figure 5
Adsorbate Nitrogen: InChIKey IJGRMHOSHXDMSA-UHFFFAOYSA-N
Kind: experiment
Temperature: 77 K
Tabular data in the source: 0
pressure (bar)	uptake (cm3(STP)/g)
0.001783	211.57
0.003577	231.405
0.003577	262.259
0.00536	288.705
0.012514	328.375
0.019657	352.617
0.028594	376.859
0.042891	412.121
0.067908	445.179
0.089348	467.218
0.109005	480.441
0.125096	498.072
0.135816	515.702
0.139393	528.926
0.151896	559.78
0.162616	588.43
0.173347	630.303
0.182274	669.972
0.193004	700.826
0.203724	707.438
0.214444	718.457
0.226958	725.069
0.255542	733.884
0.302009	747.107
0.332387	747.107
0.357404	751.515
0.380637	760.331
0.40834	765.84
0.432465	768.044
0.459266	776.859
0.483391	781.267
0.510202	784.573
0.534327	791.185
0.559344	797.796
0.585253	797.796
0.609379	803.306
0.636189	806.612
0.661206	811.019
0.687115	815.427
0.711241	819.835
0.735366	826.446
0.762167	830.854
0.786292	835.262
0.813103	840.771
0.837228	844.077
0.864029	847.383
0.891731	857.3
0.915856	862.81
0.93909	869.422
0.967684	879.339
0.012514	330.579
0.017874	357.025
0.117942	511.295
0.130456	522.314
0.140284	544.353
0.151896	566.391
0.165302	621.488
0.178707	678.788
0.19121	714.05
0.201931	725.069
0.209084	729.477
0.218021	733.884
0.225164	736.088
0.234101	738.292
0.243038	740.496
0.251975	744.904
0.271632	750.413
0.288604	754.821
0.303793	760.331
0.329712	766.942
0.354729	771.35
0.380637	775.758
0.405655	782.369
0.431574	788.981
0.455699	793.388
0.480716	800
0.504842	806.612
0.532534	806.612
0.557551	811.019
0.582578	815.427
0.609379	819.835
0.632613	826.446
0.659413	830.854
0.68444	835.262
0.710349	834.16
0.735366	839.669
0.761275	844.077
0.786292	847.383
0.810418	851.791
0.834543	857.3
0.861354	857.3
0.888154	861.708
0.91228	868.32
0.936405	874.931
0.963216	883.747
0.995376	896.97
