Adsorption isotherm of Methyl ethyl ketone on Zeolite Beta
DOI: 10.1080/08927020701275068
Adsorbate Methyl ethyl ketone: InChIKey ZWEHNKRNPOVVGH-UHFFFAOYSA-N
Temperature: 298 K
Tabular data in the source: 0
pressure (bar)	uptake (mmol/g)
0.00172438	2.15851
0.00388479	2.39181
0.00680197	2.55023
0.00996958	2.63384
0.0299691	2.62138
0.049969	2.61827
