Adsorption isotherm of Methyl ethyl ketone on Silicalite MFI
DOI: 10.1080/08927020701275068
Adsorbate Methyl ethyl ketone: InChIKey ZWEHNKRNPOVVGH-UHFFFAOYSA-N
Temperature: 298 K
Tabular data in the source: 0
pressure (bar)	uptake (mmol/g)
9.68e-05	1.90552
0.000104439	2.0553
0.000106976	2.10523
0.000996187	2.13007
0.00150401	2.13832
0.0027725	2.13814
0.00404099	2.13797
0.00530948	2.13779
0.00657797	2.13761
0.00784688	2.14576
0.00911537	2.14558
0.0105111	2.15371
0.01178	2.16186
0.013049	2.17
0.0143174	2.16983
0.0154595	2.17799
0.0167284	2.18613
0.0179973	2.19428
0.0192662	2.20242
0.0205347	2.20225
0.0216768	2.21041
0.0229457	2.21856
0.0242142	2.21838
0.0254827	2.2182
0.0267512	2.21803
0.0280201	2.22617
0.0292886	2.226
0.0304307	2.23416
0.0316991	2.23398
0.0329676	2.23381
0.0342365	2.24195
0.035505	2.24178
0.0367735	2.2416
0.038042	2.24143
0.0393109	2.24957
0.0405794	2.2494
0.0418479	2.24922
0.0431164	2.24904
0.0443849	2.24887
0.045527	2.25703
0.0467954	2.25685
0.0480639	2.25668
0.0493324	2.2565
0.0500939	2.26472
