Adsorption isotherm of Methyl ethyl ketone on Zeolite Beta
DOI: 10.1080/08927020701275068
Adsorbate Methyl ethyl ketone: InChIKey ZWEHNKRNPOVVGH-UHFFFAOYSA-N
Temperature: 298 K
Tabular data in the source: 0
pressure (bar)	uptake (mmol/g)
0.00108498	1.98105
0.002229	2.11171
0.00387899	2.23294
0.00667334	2.49417
0.00819471	2.55936
0.00996821	2.59646
0.030096	2.63071
0.0500983	2.69301
