Adsorption isotherm of Methyl ethyl ketone on Mordenite
DOI: 10.1080/08927020701275068
Adsorbate Methyl ethyl ketone: InChIKey ZWEHNKRNPOVVGH-UHFFFAOYSA-N
Temperature: 298 K
Tabular data in the source: 0
pressure (bar)	uptake (mmol/g)
2.92e-05	0.574153
3.89e-05	0.765537
0.000931917	0.865267
0.00296658	0.964838
0.00601518	1.04763
0.00995215	1.13861
0.0112219	1.1634
0.0143952	1.20457
0.0174417	1.24575
0.0198527	1.26206
0.0230256	1.2949
0.0248032	1.32794
0.0286095	1.34405
0.0305131	1.36043
0.0317816	1.36026
0.0330505	1.3684
0.034319	1.36822
0.0355879	1.37637
0.0368564	1.37619
0.0381249	1.37602
0.0393934	1.37584
0.0406619	1.37567
0.0418031	1.36719
0.0430716	1.36701
0.0443401	1.36684
0.0456086	1.36666
0.046877	1.36648
0.0481455	1.36631
0.049414	1.36613
