Adsorption isotherm of Methyl ethyl ketone on Zeolite Beta
DOI: 10.1080/08927020701275068
Adsorbate Methyl ethyl ketone: InChIKey ZWEHNKRNPOVVGH-UHFFFAOYSA-N
Temperature: 298 K
Tabular data in the source: 0
pressure (bar)	uptake (mmol/g)
0.000396804	0.467206
0.00115936	0.551196
0.00217372	0.597765
0.00318876	0.663024
0.00458389	0.73757
0.00559825	0.784139
0.00673919	0.830688
0.00787979	0.867892
0.00914594	0.87704
0.0116793	0.923372
0.0129454	0.93252
0.0140854	0.951033
0.0153515	0.960181
0.016618	0.978675
0.0178838	0.978478
0.0182639	0.987764
0.0195297	0.987567
0.0207959	0.996715
0.0213026	1.00598
0.0225684	1.00578
0.0238345	1.01493
0.0252276	1.03341
0.0264938	1.04255
0.0285194	1.05158
0.0300384	1.05135
0.030672	1.06994
0.0319378	1.06974
0.0321913	1.07905
0.0334571	1.07885
0.0339638	1.08812
0.0352296	1.08792
0.0364957	1.09707
0.0377616	1.09687
0.0390274	1.09667
0.0394071	1.09662
0.0406733	1.10576
0.0419391	1.10557
0.0432049	1.10537
0.0444707	1.10517
0.0457365	1.10497
0.0470027	1.11412
0.0482685	1.11393
0.0495343	1.11373
0.0499144	1.12301
