Adsorption isotherm of Methyl ethyl ketone on Mordenite
DOI: 10.1080/08927020701275068
Adsorbate Methyl ethyl ketone: InChIKey ZWEHNKRNPOVVGH-UHFFFAOYSA-N
Temperature: 298 K
Tabular data in the source: 0
pressure (bar)	uptake (mmol/g)
3.89e-05	0.765537
0.000804223	0.848642
0.001441	0.898481
0.00283973	0.964856
0.004745	1.01452
0.00703166	1.08077
0.00995215	1.13861
0.0127449	1.17983
0.0154105	1.21275
0.0188371	1.24556
0.0227711	1.27829
0.0249288	1.30296
0.0287355	1.32739
0.0305118	1.33547
0.0317807	1.34361
0.0329224	1.34346
0.0341909	1.34328
0.0354594	1.3431
0.0367279	1.34293
0.0379963	1.34275
0.0392648	1.34258
0.0405333	1.3424
0.0418018	1.34222
0.042943	1.33374
0.0442115	1.33357
0.04548	1.33339
0.0467485	1.33322
0.048017	1.33304
0.0492855	1.33286
0.0501734	1.33274
