Adsorption isotherm of Hydrogen cyanide on Silicalite MFI
DOI: 10.1080/08927020701275068
Adsorbate Hydrogen cyanide: InChIKey LELOWRISYMNNSU-UHFFFAOYSA-N
Temperature: 298 K
Tabular data in the source: 0
pressure (bar)	uptake (mmol/g)
0.00204499	2.86883
0.00408998	3.6911
0.0122699	4.23928
0.0163599	4.38547
0.0224949	4.54992
0.0286299	4.73265
0.0388548	4.8971
0.0511247	5.02501
0.0593047	5.11638
0.0858896	5.1712
0.120654	5.24429
0.141104	5.26256
0.159509	5.31738
0.179959	5.33565
0.200409	5.35392
0.220859	5.3722
0.239264	5.39047
0.259714	5.40874
0.280164	5.42701
0.306748	5.42701
0.327198	5.44529
0.347648	5.46356
0.368098	5.46356
0.386503	5.48183
0.406953	5.48183
0.427403	5.48183
0.447853	5.48183
0.468303	5.48183
0.488753	5.50011
0.509202	5.50011
0.529652	5.50011
0.550102	5.51838
0.570552	5.51838
0.591002	5.51838
0.611452	5.51838
0.631902	5.51838
0.652352	5.53665
0.672802	5.53665
0.693252	5.53665
0.713701	5.53665
0.734151	5.53665
0.754601	5.53665
0.773006	5.55492
0.793456	5.55492
