Adsorption isotherm of Hydrogen cyanide on Silicalite MFI
DOI: 10.1080/08927020701275068
Adsorbate Hydrogen cyanide: InChIKey LELOWRISYMNNSU-UHFFFAOYSA-N
Temperature: 298 K
Tabular data in the source: 0
pressure (bar)	uptake (mmol/g)
2.78e-17	4.65956
0.00204499	2.57646
0.00408998	4.86056
0.0184049	5.04329
0.0368098	5.09811
0.0593047	5.11638
0.0777096	5.15292
0.120654	5.20774
0.141104	5.20774
0.161554	5.20774
0.182004	5.20774
0.202454	5.20774
0.222904	5.20774
0.243354	5.20774
0.263804	5.20774
0.284254	5.20774
0.304703	5.20774
0.325153	5.20774
0.345603	5.20774
0.366053	5.20774
0.386503	5.22601
0.406953	5.22601
0.427403	5.22601
0.447853	5.22601
0.468303	5.22601
0.488753	5.22601
0.509202	5.22601
0.529652	5.22601
0.550102	5.22601
0.570552	5.24429
0.591002	5.24429
0.609407	5.26256
0.629857	5.26256
0.650307	5.26256
0.670757	5.26256
0.691207	5.26256
0.711656	5.26256
0.732106	5.28083
0.752556	5.28083
0.773006	5.28083
0.793456	5.28083
0.801636	5.28083
