Adsorption isotherm of Methyl ethyl ketone on Mordenite
DOI: 10.1080/08927020701275068
Adsorbate Methyl ethyl ketone: InChIKey ZWEHNKRNPOVVGH-UHFFFAOYSA-N
Temperature: 298 K
Tabular data in the source: 0
pressure (bar)	uptake (mmol/g)
0.000294713	0.807108
0.000931494	0.856946
0.00144143	0.906802
0.00271372	0.981516
0.00360463	1.03964
0.00462195	1.08943
0.00563928	1.13921
0.00678262	1.17234
0.00779995	1.22212
0.00894328	1.25525
0.0104667	1.28
0.0116101	1.31313
0.012753	1.33793
0.0140227	1.36272
0.0151656	1.38752
0.0164354	1.41231
0.0175779	1.42879
0.0188472	1.44526
0.0199897	1.46174
0.0211326	1.48655
0.022402	1.50302
0.0235444	1.5195
0.0248138	1.53597
0.0260827	1.54411
0.0272252	1.56059
0.0284945	1.57706
0.0296366	1.58522
0.0303981	1.59344
0.031667	1.60158
0.0329355	1.60141
0.0342044	1.60955
0.0354729	1.60938
0.0367414	1.6092
0.0380099	1.60903
0.0392784	1.60885
0.0405469	1.60867
0.0418154	1.6085
0.0430838	1.60832
0.0443523	1.60815
0.0456208	1.60797
0.0468893	1.60779
0.0481578	1.60762
0.0494263	1.60744
0.050061	1.61568
