Adsorption isotherm of Hydrogen cyanide on Mordenite
DOI: 10.1080/08927020701275068
Adsorbate Hydrogen cyanide: InChIKey LELOWRISYMNNSU-UHFFFAOYSA-N
Temperature: 298 K
Tabular data in the source: 0
pressure (bar)	uptake (mmol/g)
2.78e-17	0.931912
0.00408998	1.18773
0.0143149	1.42528
0.0245399	1.58973
0.0633947	1.8821
0.0817996	1.93691
0.108384	2.01001
0.128834	2.04655
0.147239	2.0831
0.167689	2.10137
0.186094	2.13792
0.206544	2.15619
0.226994	2.19273
0.245399	2.21101
0.263804	2.22928
0.284254	2.24755
0.306748	2.24755
0.327198	2.24755
0.347648	2.26582
0.368098	2.26582
0.388548	2.26582
0.408998	2.2841
0.429448	2.2841
0.447853	2.30237
0.468303	2.30237
0.488753	2.30237
0.509202	2.30237
0.529652	2.30237
0.550102	2.30237
0.570552	2.32064
0.591002	2.32064
0.611452	2.32064
0.631902	2.32064
0.652352	2.32064
0.672802	2.32064
0.693252	2.33892
0.713701	2.33892
0.734151	2.35719
0.754601	2.35719
0.775051	2.35719
0.799591	2.33892
