Adsorption isotherm of Methyl ethyl ketone on Zeolite Beta
DOI: 10.1080/08927020701275068
Adsorbate Methyl ethyl ketone: InChIKey ZWEHNKRNPOVVGH-UHFFFAOYSA-N
Temperature: 298 K
Tabular data in the source: 0
pressure (bar)	uptake (mmol/g)
0.000575588	1.89702
0.00387865	2.22359
0.006673	2.48483
0.010221	2.58708
0.0299698	2.64007
0.0370601	2.68569
0.0431377	2.73147
0.0468092	2.74959
0.050101	2.76777
