Adsorption isotherm of Methyl ethyl ketone on Zeolite Beta
DOI: 10.1080/08927020701275068
Adsorbate Methyl ethyl ketone: InChIKey ZWEHNKRNPOVVGH-UHFFFAOYSA-N
Temperature: 298 K
Tabular data in the source: 0
pressure (bar)	uptake (mmol/g)
3.14e-05	0.859769
4.54e-05	1.24293
6.65e-05	1.82234
0.00413523	2.31701
0.00641915	2.46618
0.00781462	2.55007
0.0100958	2.62448
0.0160458	2.64224
0.0252856	2.62211
0.0287033	2.62158
0.03364	2.62081
0.0408551	2.61969
0.0457918	2.61892
0.0500956	2.61825
