Adsorption isotherm of Hydrogen cyanide on Mordenite
DOI: 10.1080/08927020701275068
Adsorbate Hydrogen cyanide: InChIKey LELOWRISYMNNSU-UHFFFAOYSA-N
Temperature: 298 K
Tabular data in the source: 0
pressure (bar)	uptake (mmol/g)
2.78e-17	0.98673
0.00204499	1.38873
0.0143149	1.55319
0.0245399	1.6811
0.0368098	1.809
0.0633947	1.93691
0.0797546	2.04655
0.114519	2.13792
0.132924	2.21101
0.153374	2.26582
0.171779	2.33892
0.190184	2.37546
0.210634	2.43028
0.229039	2.4851
0.249489	2.50337
0.269939	2.53992
0.312883	2.57646
0.333333	2.59473
0.353783	2.61301
0.372188	2.63128
0.392638	2.64955
0.413088	2.66783
0.433538	2.66783
0.453988	2.6861
0.474438	2.6861
0.492843	2.70437
0.513292	2.70437
0.533742	2.70437
0.552147	2.72264
0.572597	2.74092
0.593047	2.75919
0.613497	2.75919
0.633947	2.77746
0.676892	2.79574
0.732106	2.79574
0.775051	2.83228
0.801636	2.85055
