Adsorption isotherm of Hydrogen cyanide on Mordenite
DOI: 10.1080/08927020701275068
Adsorbate Hydrogen cyanide: InChIKey LELOWRISYMNNSU-UHFFFAOYSA-N
Temperature: 298 K
Tabular data in the source: 0
pressure (bar)	uptake (mmol/g)
0.00408998	1.31564
0.0204499	1.57146
0.0327198	1.66282
0.0490798	1.809
0.0633947	1.93691
0.0797546	2.04655
0.112474	2.21101
0.130879	2.2841
0.149284	2.37546
0.167689	2.44855
0.186094	2.52164
0.204499	2.59473
0.224949	2.63128
0.245399	2.66783
0.263804	2.70437
0.284254	2.74092
0.306748	2.77746
0.327198	2.79574
0.347648	2.79574
0.368098	2.79574
0.388548	2.81401
0.408998	2.81401
0.429448	2.81401
0.449898	2.81401
0.470348	2.81401
0.490798	2.81401
0.511247	2.81401
0.531697	2.81401
0.552147	2.81401
0.572597	2.81401
0.593047	2.81401
0.613497	2.81401
0.633947	2.81401
0.670757	2.79574
0.709611	2.79574
0.748466	2.81401
0.775051	2.81401
0.799591	2.83228
