Adsorption isotherm of Methyl ethyl ketone on Silicalite MFI
DOI: 10.1080/08927020701275068
Adsorbate Methyl ethyl ketone: InChIKey ZWEHNKRNPOVVGH-UHFFFAOYSA-N
Temperature: 298 K
Tabular data in the source: 0
pressure (bar)	uptake (mmol/g)
6.89e-05	1.35633
8.12e-05	1.59764
0.00033911	1.68082
0.00160845	1.69728
0.00287778	1.71375
0.00402027	1.73023
0.0052896	1.7467
0.00655852	1.75485
0.00770058	1.76301
0.00896949	1.77115
0.00998471	1.77933
0.0107454	1.77091
0.0120143	1.77905
0.0132828	1.77888
0.0145517	1.78702
0.0158202	1.78685
0.0169622	1.79501
0.0182312	1.80315
0.0195001	1.8113
0.020769	1.81944
0.0220375	1.81927
0.0231795	1.82743
0.0244485	1.83558
0.0257169	1.8354
0.0269854	1.83522
0.0282539	1.83505
0.0300298	1.8348
0.0307913	1.84302
0.0320598	1.84284
0.0333287	1.85099
0.0345972	1.85081
0.0358657	1.85064
0.0371342	1.85046
0.0384023	1.84196
0.0396708	1.84179
0.0409392	1.84161
0.0422077	1.84143
0.0434762	1.84126
0.0447447	1.84108
0.0460132	1.84091
0.0472817	1.84073
0.0485502	1.84055
0.0500724	1.84034
