Adsorption isotherm of Oxygen on MCM-41-A
DOI: 10.1007/s10450-021-00339-3
Article source: Figure 1(c)
Adsorbate Oxygen: InChIKey MYMOFIZGZYHOMD-UHFFFAOYSA-N
Kind: experiment
Temperature: 77 K
Tabular data in the source: 0
pressure (bar)	uptake (mmol/g)
1.06508	6.84039
1.49121	7.73616
2.02376	8.46906
2.44938	9.09338
2.98193	9.74484
3.46151	10.2334
4.10046	10.8035
4.47314	11.2106
5.37836	12.215
6.23063	13.2736
6.97598	14.2237
7.40211	14.9837
8.04106	16.0966
8.4672	17.0195
8.89333	17.9153
9.42587	19.0825
9.95841	19.9511
10.384	20.6569
11.3427	21.3626
12.6206	21.8241
14.538	22.1498
16.8809	22.367
18.6384	22.5027
19.3308	22.5027
20.7151	22.5842
21.993	22.6927
23.3778	22.7199
24.6028	22.8013
33.6555	23.1813
36.1583	23.2628
38.821	23.3442
41.3239	23.4256
43.9331	23.5342
46.4359	23.6428
47.7673	23.8057
48.9388	23.9685
49.8975	24.4028
5.16554	11.9164
6.6033	13.6536
8.14747	16.3681
8.62706	17.4538
9.10614	18.6211
9.69214	19.8697
10.2247	21.0098
10.5974	21.4712
11.0235	21.7427
11.5026	21.8784
11.8753	21.9598
12.4613	22.0684
12.9403	22.1498
13.4729	22.2313
14.0054	22.2584
14.538	22.3127
15.017	22.3398
15.5496	22.367
16.7745	22.4484
18.1588	22.5299
20.7151	22.6927
23.2714	22.8284
25.8807	22.9099
28.3835	23.0185
31.0992	23.127
31.7916	23.127
37.0106	23.2899
42.5488	23.5071
47.3412	23.7514
49.7376	24.4843
