Adsorption isotherm of Argon on SBA-16-B
DOI: 10.1007/s10450-021-00339-3
Article source: Figure 4(b)
Adsorbate Argon: InChIKey XKRFYHLGVUSROY-UHFFFAOYSA-N
Kind: experiment
Temperature: 77 K
Tabular data in the source: 0
pressure (bar)	uptake (mmol/g)
0.000758	3.11015
0.00038	3.7581
0.000568	4.10367
0.001519	4.40605
0.001897	4.81641
0.002467	5.18359
0.003415	5.80994
0.005312	6.56587
0.006831	7.04104
0.008728	7.4946
0.012332	8.16415
0.015557	8.63931
0.019353	9.07127
0.023906	9.56803
0.026562	9.76242
0.030736	10.0864
0.036048	10.4104
0.04136	10.6911
0.055781	11.3175
0.063368	11.5983
0.072666	11.9007
0.07627	12.0518
0.080255	12.1598
0.084239	12.2894
0.087465	12.419
0.091448	12.5702
0.094674	12.6998
0.098658	12.8726
0.101883	13.0238
0.105489	13.2181
0.109282	13.4341
0.112698	13.7797
0.115923	14.2333
0.119149	14.7732
0.124461	15.2052
0.135466	15.4212
0.148936	15.5076
0.162786	15.5508
0.176826	15.594
0.028459	9.91361
0.037377	10.4752
0.046294	10.9287
0.04876	11.0367
0.052365	11.1879
0.058056	11.5335
0.061851	14.8164
0.063938	14.8812
0.067544	14.946
0.071147	14.9676
0.074943	14.9892
0.078547	15.0324
0.082152	15.0756
0.086516	15.1188
0.091068	15.162
0.100556	15.2052
0.109662	15.2916
0.118769	15.3348
0.127496	15.378
0.136794	15.4428
0.143623	15.4644
0.161269	15.5508
0.174929	15.594
0.18062	15.6371
0.181	15.8747
