Adsorption isotherm of Methane on SBA-16-B
DOI: 10.1007/s10450-021-00339-3
Article source: Figure 4(d)
Adsorbate Methane: InChIKey VNWKTOKETHGBQD-UHFFFAOYSA-N
Kind: experiment
Temperature: 77 K
Tabular data in the source: 0
pressure (bar)	uptake (mmol/g)
0.52762	4.50161
0.76728	5.85209
1.3432	6.79528
1.87082	7.22401
2.44628	7.58842
3.50152	8.06002
4.70074	8.38156
5.65984	8.61736
6.76338	8.83173
8.10658	9.04609
9.20966	9.19614
10.5529	9.36763
11.0805	9.43194
13.5746	9.71061
15.4454	9.92497
16.5007	10.0536
18.1314	10.2036
18.7068	10.2894
20.0022	10.4394
20.338	10.4609
21.3932	10.6109
22.4485	10.8253
23.0718	10.911
23.8873	11.1254
24.9426	11.4684
25.9978	11.7899
26.7656	12.0472
27.3889	12.2186
28.9717	12.3687
29.8834	12.4116
30.8904	12.4544
32.5215	12.4973
33.241	12.4973
34.3919	12.4973
36.2627	12.4973
37.8934	12.5402
39.8121	12.5402
41.9709	12.5831
43.0739	12.5831
44.1775	12.6045
0.57546	4.73741
1.05524	5.89496
1.39104	6.36656
1.91866	6.70954
2.39844	7.05252
3.6455	7.67417
4.70074	7.99571
5.75598	8.29582
7.09918	8.6388
8.20226	8.85316
9.2575	9.1104
11.6081	9.53912
14.1979	9.96785
16.2605	10.3108
17.6516	10.5037
18.4672	10.6324
19.4746	10.8253
20.2897	10.9325
21.2971	11.1254
22.3523	11.3183
23.1201	11.4898
23.8873	11.6827
25.0387	11.9829
25.9978	12.1972
26.7656	12.3901
27.6768	12.4759
28.6842	12.5831
29.7395	12.7546
31.0344	12.9261
31.3223	13.0332
32.809	13.1833
33.1448	13.269
33.9126	13.3548
35.2553	13.462
36.0231	13.5691
38.0857	13.6978
39.9561	13.8478
41.5872	13.955
43.1701	14.0407
44.4171	14.1265
45.8082	14.1908
