Adsorption isotherm of Methane on SBA-16-A
DOI: 10.1007/s10450-021-00339-3
Article source: Figure 4(d)
Adsorbate Methane: InChIKey VNWKTOKETHGBQD-UHFFFAOYSA-N
Kind: experiment
Temperature: 77 K
Tabular data in the source: 0
pressure (bar)	uptake (mmol/g)
0.57546	4.73741
1.05524	5.89496
1.39104	6.36656
1.91866	6.70954
2.39844	7.05252
3.6455	7.67417
4.70074	7.99571
5.75598	8.29582
7.09918	8.6388
8.20226	8.85316
9.2575	9.1104
11.6081	9.53912
14.1979	9.96785
16.2605	10.3108
17.6516	10.5037
18.4672	10.6324
19.4746	10.8253
20.2897	10.9325
21.2971	11.1254
22.3523	11.3183
23.1201	11.4898
23.8873	11.6827
25.0387	11.9829
25.9978	12.1972
26.7656	12.3901
27.6768	12.4759
28.6842	12.5831
29.7395	12.7546
31.0344	12.9261
31.3223	13.0332
32.809	13.1833
33.1448	13.269
33.9126	13.3548
35.2553	13.462
36.0231	13.5691
38.0857	13.6978
39.9561	13.8478
41.5872	13.955
43.1701	14.0407
44.4171	14.1265
45.8082	14.1908
4.6046	7.90997
5.42018	8.25295
5.9478	9.1104
6.33144	10.0965
6.85906	10.2251
8.15442	10.5252
9.20966	10.7824
10.5046	11.1254
11.6081	11.4469
12.903	11.94
13.9104	12.283
15.2536	12.6259
16.2605	12.8189
17.6516	13.0332
18.9469	13.1833
20.05	13.269
21.1053	13.3333
22.6403	13.4405
23.8395	13.5263
25.2305	13.5691
26.5737	13.6549
27.629	13.6978
29.7395	13.7835
32.1374	13.8907
35.2075	13.9979
36.8382	14.0407
40.4358	14.1265
42.8821	14.1908
44.465	14.2337
45.5202	14.2765
