Adsorption isotherm of Methane on SBA-15-A
DOI: 10.1007/s10450-021-00339-3
Article source: Figure 3(d)
Adsorbate Methane: InChIKey VNWKTOKETHGBQD-UHFFFAOYSA-N
Kind: experiment
Temperature: 77 K
Tabular data in the source: 0
pressure (bar)	uptake (mmol/g)
1.25534	5.32598
1.70384	5.68706
2.33128	6.04814
2.77978	6.31896
3.22828	6.54463
4.30422	6.86058
5.11106	7.13139
6.05268	7.35707
6.9943	7.58275
8.33934	7.94383
9.3702	8.12437
10.5358	8.35005
11.926	8.666
14.4813	9.11735
16.3645	9.4333
18.8752	9.88465
21.0721	10.2909
23.0446	10.6971
24.2107	10.9228
25.7347	11.2838
26.542	11.4193
27.0797	11.5998
27.7076	11.8255
27.9767	12.006
28.5145	12.0512
28.8733	12.2768
29.0527	12.6379
29.5904	13.7212
30.1737	16.3841
30.4423	18.2347
31.3393	20.2207
31.5634	20.4012
32.3702	20.7623
34.3878	20.9428
35.4642	21.0331
35.9573	21.0782
36.3156	21.1234
37.392	21.1234
39.3645	21.2136
40.9786	21.3491
44.3412	21.5296
15.2435	9.38816
17.7542	9.83952
18.8306	10.0652
20.2202	10.336
20.7584	10.4714
21.3412	10.652
21.8344	11.1484
22.1481	11.5547
22.776	13.1344
23.2691	15.4814
23.7622	17.5125
24.345	18.8215
24.9279	19.5436
25.197	19.8596
25.4661	20.0401
25.7347	20.1304
26.0935	20.3109
26.5866	20.3561
27.0351	20.4463
27.4385	20.5366
27.9317	20.5818
28.2905	20.5818
28.7836	20.6269
30.7565	20.8074
31.7874	20.8526
34.6122	21.0331
36.271	21.1234
40.4404	21.3039
42.5477	21.4393
45.9103	21.6199
45.9554	22.0261
