Adsorption isotherm of Argon on MCM-48-A
DOI: 10.1007/s10450-021-00339-3
Article source: Figure 2(b)
Adsorbate Argon: InChIKey XKRFYHLGVUSROY-UHFFFAOYSA-N
Kind: experiment
Temperature: 77 K
Tabular data in the source: 0
pressure (bar)	uptake (mmol/g)
0.002091	5.70194
0.003233	6.47948
0.005323	7.34341
0.006845	7.94816
0.009126	8.59611
0.012739	9.54644
0.016161	10.2808
0.019202	10.8855
0.022245	11.4471
0.025097	12.0086
0.027758	12.4838
0.030611	13.0454
0.035364	14.0821
0.038405	14.9892
0.041067	15.9395
0.04582	18.5313
0.047341	19.6976
0.049053	22.1166
0.052856	28.3801
0.055326	29.5464
0.071298	30.324
0.081374	30.54
0.09221	30.7559
0.100956	30.9287
0.110082	31.1015
0.119398	31.2743
0.128334	31.3175
0.146777	31.5767
0.155903	31.7063
0.165029	31.8358
0.169783	31.9223
0.174346	32.0086
0.178909	32.095
0.032321	13.3045
0.037834	14.6436
0.040117	15.4644
0.04373	17.2786
0.04563	18.7041
0.047913	20.8207
0.050003	25.4428
0.051714	28.6393
0.052285	29.2441
0.053616	29.5464
0.055326	29.7192
0.058369	29.892
0.060459	30.0216
0.062362	30.1512
0.064452	30.2376
0.073388	30.4536
0.082704	30.6695
0.09183	30.8423
0.100956	31.0151
0.110082	31.1015
0.119398	31.2743
0.128334	31.3607
0.137841	31.5335
0.143736	31.5767
0.157425	31.7927
0.170164	31.9654
0.18081	32.2246
