Adsorption isotherm of Argon on SBA-16-A
DOI: 10.1007/s10450-021-00339-3
Article source: Figure 4(b)
Adsorbate Argon: InChIKey XKRFYHLGVUSROY-UHFFFAOYSA-N
Kind: experiment
Temperature: 77 K
Tabular data in the source: 0
pressure (bar)	uptake (mmol/g)
0.001519	3.84449
0.001897	4.19006
0.002277	4.53564
0.003794	5.18359
0.005312	5.74514
0.007019	6.2419
0.008728	6.65227
0.012522	7.30022
0.015557	7.73218
0.019921	8.22894
0.023906	8.63931
0.026562	8.87689
0.03529	9.63283
0.040792	9.9568
0.046104	10.3024
0.054262	10.7991
0.063558	11.2959
0.073044	11.8142
0.077408	12.0734
0.080824	12.2462
0.084619	12.4406
0.088413	12.6782
0.091829	12.8294
0.096002	13.0885
0.099228	13.3045
0.103022	13.5205
0.106627	13.7797
0.110231	14.0605
0.114026	14.3844
0.11782	14.7516
0.121994	15.1404
0.12579	15.4428
0.128635	15.5508
0.13243	15.8099
0.137931	16.0691
0.142675	16.2851
0.147229	16.5011
0.151971	16.7171
0.156715	16.8899
0.161269	17.0626
0.165443	17.1922
0.170375	17.3434
0.174549	17.4298
0.179481	17.5162
0.036806	9.71922
0.047053	10.4104
0.049708	10.5831
0.055781	11.0151
0.061471	12.6782
0.064697	12.8942
0.067544	13.0454
0.072856	13.3477
0.076082	13.5853
0.078737	13.7581
0.083859	14.1685
0.088793	14.7084
0.094106	15.2916
0.102263	15.9179
0.111181	16.3067
0.120097	16.5875
0.129015	16.7603
0.138311	16.9331
0.147039	17.1058
0.148746	17.1274
0.160699	17.2786
0.169995	17.4082
0.18119	17.5378
