Adsorption isotherm of Oxygen on MCM-48-C
DOI: 10.1007/s10450-021-00339-3
Article source: Figure 2(c)
Adsorbate Oxygen: InChIKey MYMOFIZGZYHOMD-UHFFFAOYSA-N
Kind: experiment
Temperature: 77 K
Tabular data in the source: 0
pressure (bar)	uptake (mmol/g)
0.104894	1.75027
0.104894	2.26254
0.104894	2.86019
0.104894	3.6286
0.157342	4.26894
0.366626	4.78122
0.471521	5.2508
1.04743	6.57417
1.51845	7.29989
1.98997	7.89755
2.46149	8.36713
3.0374	8.83671
3.56086	9.26361
3.87504	9.51974
4.45146	9.81857
5.60328	10.5016
6.23164	10.8431
6.96489	11.3127
7.59325	11.6542
8.58823	12.2092
9.47832	12.8068
9.89739	13.1483
10.4733	14.2156
10.8924	16.222
11.3639	19.8933
11.9398	22.0278
12.4113	22.4546
15.8148	23.095
18.119	23.3084
21.1039	23.5646
21.8896	23.6073
23.3561	23.7353
24.6653	23.778
25.9745	23.9061
28.4879	24.0341
31.1587	24.1195
33.7246	24.2903
36.2909	24.4611
38.9093	24.5464
41.4751	24.7172
44.0935	24.8879
46.555	25.0587
47.9166	25.2295
49.0684	25.5283
49.9585	26.0832
50.3776	26.937
5.23665	10.3308
6.7556	11.1846
8.01232	11.9103
8.37894	12.0811
9.1122	12.5507
9.68811	13.063
10.264	14.2156
10.7875	18.6126
11.4163	21.7289
11.6256	22.1985
12.0447	22.6681
12.6206	22.8815
13.0921	23.0523
13.4583	23.1377
13.9822	23.223
14.5581	23.2657
15.0821	23.3084
15.5531	23.3511
16.8098	23.4792
18.1714	23.5646
20.7898	23.7353
23.3561	23.8634
25.9745	23.9915
28.4879	24.1195
30.0588	24.1622
35.0862	24.4184
40.3228	24.6318
44.5125	24.8879
48.5449	25.4002
50.0109	26.3821
50.3776	27.4066
50.4824	28.175
