Adsorption isotherm of Oxygen on SBA-16-B
DOI: 10.1007/s10450-021-00339-3
Article source: Figure 4(c)
Adsorbate Oxygen: InChIKey MYMOFIZGZYHOMD-UHFFFAOYSA-N
Kind: experiment
Temperature: 77 K
Tabular data in the source: 0
pressure (bar)	uptake (mmol/g)
0.101869	2.12058
0.101869	2.9106
0.203737	3.84615
0.305606	5.11435
0.560277	5.48857
0.611212	5.92516
1.01869	6.73597
1.83363	7.90021
2.44485	8.52391
3.76964	9.39709
4.8902	9.97921
6.16356	10.4782
7.79396	10.9771
8.76171	11.2266
10.0351	11.5385
11.5122	11.7879
12.9898	12.0582
15.1799	12.3909
17.7781	12.8067
19.3571	13.0353
20.5795	13.264
21.7	13.4304
22.7192	13.6175
23.7379	13.8254
24.7057	14.0541
25.6734	14.3867
26.4374	14.8025
27.2014	15.2599
27.966	15.7588
30.0543	16.2578
34.0276	16.3825
42.3304	16.5489
46.6604	16.5904
47.7809	16.632
49.1057	16.6736
50.1753	16.736
5.29767	10.1455
6.57103	10.6237
7.99769	11.0395
9.27105	11.3513
10.086	11.5592
11.9196	11.975
12.9898	15.6341
14.2631	15.7381
15.4855	15.7796
16.8608	15.8628
18.1346	15.9252
19.3571	15.9667
20.6813	16.0083
22.0056	16.0707
23.2286	16.0915
24.451	16.1331
25.8771	16.1746
27.0996	16.2162
28.4753	16.2578
31.0729	16.2994
33.6202	16.3617
36.3197	16.4241
37.8482	16.4449
43.859	16.5489
48.087	16.6528
50.4809	16.8399
