Adsorption isotherm of Methane on MCM-48-A
DOI: 10.1007/s10450-021-00339-3
Article source: Figure 2(d)
Adsorbate Methane: InChIKey VNWKTOKETHGBQD-UHFFFAOYSA-N
Kind: experiment
Temperature: 77 K
Tabular data in the source: 0
pressure (bar)	uptake (mmol/g)
0.80638	7.26695
1.18542	8.00847
1.56492	8.56462
3.08246	10.0477
3.88884	10.9004
4.41048	11.4195
4.78952	12.0127
5.16902	12.7913
5.64328	13.8294
6.07016	15.1271
6.54442	17.9449
7.06606	22.0233
7.8246	24.3962
8.8205	24.7299
10.0064	24.8411
11.4761	24.9894
12.472	25.1006
13.5153	25.1748
14.8907	25.2489
16.2661	25.286
17.9257	25.3602
19.3959	25.4714
21.5298	25.5826
23.4743	25.6568
25.3713	25.6939
29.2123	25.8422
31.4415	25.9163
34.4287	26.0275
35.5672	26.0646
39.6456	26.25
40.7362	26.2871
43.5339	26.3612
44.6246	26.4354
45.7631	26.6208
5.35854	13.1992
6.11754	19.3909
6.68656	24.1367
7.16082	24.6186
7.72984	24.767
8.25148	24.804
8.8205	24.8782
9.34214	24.9523
9.86378	25.0265
10.4806	25.0636
11.5713	25.1748
12.9462	25.286
13.8	25.3231
14.8907	25.3602
18.4948	25.5455
20.1544	25.6568
22.0515	25.6939
24.2328	25.8051
26.9836	25.8792
28.3585	25.9163
31.1567	25.9905
34.4287	26.1388
36.0415	26.1758
40.4989	26.3242
44.862	26.4354
45.7631	26.6578
