Adsorption isotherm of Argon on MCM-48-B
DOI: 10.1007/s10450-021-00339-3
Article source: Figure 2(b)
Adsorbate Argon: InChIKey XKRFYHLGVUSROY-UHFFFAOYSA-N
Kind: experiment
Temperature: 77 K
Tabular data in the source: 0
pressure (bar)	uptake (mmol/g)
0.002091	5.35637
0.003803	6.2203
0.005323	6.95464
0.007416	7.60259
0.009316	8.16415
0.012739	9.07127
0.015971	9.80562
0.020343	10.6695
0.022625	11.1447
0.025288	11.7495
0.027948	12.3542
0.030611	12.8726
0.036504	14.514
0.038405	15.162
0.040117	15.7235
0.041827	16.5011
0.0443	17.6674
0.04696	19.0065
0.048293	20.2592
0.049623	21.7711
0.051904	25.2268
0.053046	26.1339
0.060649	27.3866
0.069205	27.689
0.076811	27.9482
0.087457	28.1642
0.098676	28.3369
0.101908	28.3801
0.111985	28.5529
0.121301	28.7257
0.130427	28.8553
0.139743	28.9849
0.149249	29.1577
0.158565	29.3305
0.167501	29.5032
0.172634	29.6328
0.177197	29.7624
0.019012	10.3672
0.024145	11.4039
0.028518	12.4406
0.032891	13.5205
0.038977	15.4644
0.040877	16.2419
0.042587	17.0194
0.04392	17.797
0.04696	19.6112
0.048483	21.5551
0.050193	24.6652
0.051904	26.3499
0.053236	26.9114
0.054946	27.2138
0.056848	27.3434
0.059319	27.473
0.061982	27.6458
0.063312	27.8186
0.065593	27.905
0.07491	28.1642
0.084036	28.3369
0.093353	28.5097
0.102479	28.6825
0.111985	28.8121
0.121491	28.9417
0.130427	29.0281
0.140313	29.2009
0.147158	29.2873
0.161038	29.5032
0.173584	29.676
0.18081	29.892
