Adsorption isotherm of Nitrogen on MCM-41-C
DOI: 10.1007/s10450-021-00339-3
Article source: Figure 1 (a)
Adsorbate Nitrogen: InChIKey IJGRMHOSHXDMSA-UHFFFAOYSA-N
Kind: experiment
Temperature: 77 K
Tabular data in the source: 0
pressure (bar)	uptake (mmol/g)
0.003212	2.71444
0.003212	3.58306
0.003212	3.96308
0.003212	4.18024
0.003212	4.45168
0.003212	5.04886
0.003212	5.59175
0.003212	6.02606
0.007498	6.2975
0.007498	6.51466
0.009636	7.00326
0.013922	7.2747
0.020346	7.87188
0.028918	8.41477
0.039628	8.90337
0.050338	9.33768
0.070694	9.98914
0.086754	10.5049
0.110323	11.2106
0.141379	12.1335
0.155311	12.6493
0.170307	13.1379
0.185303	13.6808
0.198151	14.2237
0.209935	14.6308
0.221719	15.0109
0.232429	15.3637
0.258136	16.0695
0.290266	16.5581
0.31811	16.8295
0.370596	17.1824
0.384518	17.2096
0.402726	17.291
0.416659	17.3181
0.438079	17.3724
0.913637	17.9153
0.939344	17.9153
0.96505	17.9696
0.988618	18.0239
0.102825	10.9663
0.126393	11.6992
0.151025	12.5136
0.181017	13.6265
0.202437	14.4137
0.213147	14.7937
0.221719	15.0923
0.233493	15.418
0.243139	15.7166
0.25385	15.9609
0.263486	16.1509
0.274196	16.3138
0.283842	16.4767
0.294552	16.6124
0.304188	16.721
0.314898	16.8024
0.324544	16.911
0.335254	16.9924
0.343816	17.0467
0.354526	17.101
0.380232	17.1824
0.404874	17.291
0.431644	17.3453
0.456287	17.3996
0.481993	17.4538
0.507699	17.5081
0.532331	17.5353
0.558037	17.5624
0.608376	17.6439
0.658724	17.6982
0.7112	17.7253
0.760475	17.7524
0.810813	17.8067
0.862225	17.861
0.893291	17.8882
0.917923	17.9153
0.942556	17.9153
0.969336	17.9696
0.998254	18.051
