Adsorption isotherm of Oxygen on MCM-48-B
DOI: 10.1007/s10450-021-00339-3
Article source: Figure 2(c)
Adsorbate Oxygen: InChIKey MYMOFIZGZYHOMD-UHFFFAOYSA-N
Kind: experiment
Temperature: 77 K
Tabular data in the source: 0
pressure (bar)	uptake (mmol/g)
0.523463	5.50694
0.942537	6.873
1.4665	7.81217
1.88507	8.4952
2.46149	9.13554
2.98495	9.6905
3.40403	10.1601
3.97994	10.8004
4.5034	11.3127
5.34155	12.1665
6.0748	12.9349
6.96489	13.8741
7.64569	14.6852
8.2216	15.5389
9.0073	16.8623
9.74055	18.3138
10.3165	19.5518
10.7875	20.9605
11.3114	23.778
11.8349	26.9797
12.3064	27.8762
13.7205	28.6446
15.3963	28.9861
17.8048	29.285
19.6904	29.4984
20.3188	29.5411
21.9421	29.6265
23.1464	29.7545
24.4031	29.8399
25.7647	29.968
28.1213	30.0961
30.8969	30.2668
33.3579	30.3949
35.9768	30.6083
38.4377	30.7791
41.1085	31.0352
43.6225	31.3767
46.1883	31.7183
47.5499	31.9317
48.7018	32.2732
49.6443	32.8282
50.2727	33.682
5.2891	12.0384
6.54581	13.4045
8.01232	15.1121
9.21659	17.46
10.7355	22.4973
11.7825	28.175
13.0397	28.8581
13.4063	29.0715
13.8773	29.1569
14.4532	29.2423
14.8723	29.285
15.3963	29.3276
15.9197	29.4557
16.4957	29.4984
16.9672	29.4984
17.3862	29.5838
18.0146	29.6265
20.5805	29.8399
23.1988	30.0534
25.7647	30.2241
28.5928	30.3949
30.1637	30.5229
35.5052	30.7791
41.0561	31.1633
45.4551	31.6329
48.3351	32.1878
49.6443	33.0416
50.3776	33.9381
50.4824	34.7919
