Adsorption isotherm of Argon on MCM-48-C
DOI: 10.1007/s10450-021-00339-3
Article source: Figure 2(b)
Adsorbate Argon: InChIKey XKRFYHLGVUSROY-UHFFFAOYSA-N
Kind: experiment
Temperature: 77 K
Tabular data in the source: 0
pressure (bar)	uptake (mmol/g)
0.00057	1.90065
0.00057	2.33261
0.00057	2.85097
0.00095	3.54212
0.00095	3.88769
0.00133	4.31965
0.00171	4.66523
0.002091	5.09719
0.003423	5.78834
0.005323	6.52268
0.007416	7.12743
0.009126	7.5594
0.012739	8.33693
0.016542	8.94168
0.019772	9.37365
0.025858	10.1944
0.031371	10.8423
0.034223	11.1879
0.036884	11.5335
0.040117	11.9654
0.04449	12.8726
0.04639	13.8229
0.047722	15.0324
0.049243	17.4946
0.051143	20.1296
0.053046	21.0799
0.063502	21.9438
0.074339	22.203
0.086697	22.4622
0.098296	22.6782
0.101717	22.7214
0.111415	22.8078
0.120541	22.9806
0.138983	23.1534
0.148679	23.2829
0.157615	23.3693
0.166741	23.4989
0.171874	23.4989
0.176247	23.6285
0.018632	9.24406
0.023385	9.84881
0.028328	10.54
0.033271	11.0583
0.037644	11.6199
0.039167	11.8791
0.041637	12.2246
0.04354	12.6566
0.04639	14.2549
0.048293	17.2786
0.050383	20.0432
0.051143	20.8207
0.052666	21.3391
0.054376	21.6415
0.056086	21.8143
0.059509	21.987
0.061602	22.1598
0.063122	22.203
0.065403	22.2894
0.074339	22.419
0.083465	22.5918
0.092782	22.7214
0.102098	22.8078
0.111415	22.9374
0.120541	23.0238
0.129857	23.1534
0.139743	23.2397
0.146016	23.2829
0.164268	23.4557
0.177387	23.6285
0.18081	23.6717
