Adsorption isotherm of Methane on MCM-41-C
DOI: 10.1007/s10450-021-00339-3
Article source: Figure 1(d)
Adsorbate Methane: InChIKey VNWKTOKETHGBQD-UHFFFAOYSA-N
Kind: experiment
Temperature: 77 K
Tabular data in the source: 0
pressure (bar)	uptake (mmol/g)
0.40664	5.90238
0.76222	6.92395
1.27052	7.69012
1.67716	8.22928
2.18546	9.02384
3.0498	10.4427
4.01534	11.8331
4.47304	12.8547
4.87968	13.6209
5.33692	14.3871
5.84522	14.983
6.1502	15.3802
6.70956	15.7208
7.37012	16.0613
7.6751	16.1748
8.1834	16.4018
8.59004	16.5437
8.99668	16.6288
10.2672	16.8559
11.4871	16.9694
13.2153	17.1112
14.893	17.168
17.0784	17.2531
18.9589	17.3099
19.4672	17.3099
22.1614	17.395
24.6013	17.4518
27.0411	17.5085
32.5813	17.622
33.9535	17.6504
37.3083	17.7071
38.9855	17.7355
41.8319	17.7923
45.1867	17.8207
5.28632	14.1884
5.94688	16.118
6.25186	16.4586
6.76016	16.6856
7.31952	16.7707
7.92948	16.8275
8.48838	16.8559
9.04774	16.8842
10.1149	16.9694
10.7249	17.0261
11.5888	17.0545
12.4021	17.1112
13.5203	17.1396
14.6896	17.1964
17.9934	17.3099
20.1282	17.3666
22.7714	17.4234
23.9402	17.4518
27.2444	17.5369
29.5315	17.5936
30.0904	17.5936
35.6817	17.6788
39.2398	17.7639
45.7967	17.9342
