Adsorption isotherm of Oxygen on MCM-41-B
DOI: 10.1007/s10450-021-00339-3
Article source: Figure 1(c)
Adsorbate Oxygen: InChIKey MYMOFIZGZYHOMD-UHFFFAOYSA-N
Kind: experiment
Temperature: 77 K
Tabular data in the source: 0
pressure (bar)	uptake (mmol/g)
1.11854	6.65038
1.54417	7.519
1.9703	8.2519
2.50284	8.76764
3.03538	9.36482
3.51447	9.85342
3.99406	10.2063
4.5266	10.8035
6.33703	12.595
6.97598	13.4365
7.45557	14.1965
7.8812	14.9023
8.4672	15.608
8.99974	16.6938
9.53228	17.291
9.8515	17.8067
10.491	18.5396
11.3962	19.1639
12.5142	19.6254
13.952	20.0054
15.9223	20.2497
17.7862	20.4397
19.7035	20.5755
21.9401	20.6569
24.6557	20.7926
36.2118	21.1726
38.8745	21.2541
41.2704	21.3084
43.9331	21.3898
46.4894	21.4712
47.8208	21.4712
49.0452	21.5527
50.43	22.0684
5.43182	11.5907
6.65676	13.0022
8.04106	15.1737
8.25388	15.7166
9.05269	16.8567
9.42587	17.4538
10.2776	18.6482
10.8102	19.2997
11.1829	19.7068
11.5026	19.924
11.8753	20.0054
12.5142	20.114
12.9403	20.2226
13.4729	20.2226
13.952	20.2769
14.4845	20.304
15.0705	20.3312
15.603	20.3855
16.7745	20.4397
18.1588	20.5212
20.6617	20.6297
23.2714	20.7926
25.9341	20.8741
28.5434	20.9826
30.9398	21.0369
33.602	21.1183
34.1346	21.1455
39.4065	21.2541
45.4778	21.4169
50.2172	21.797
50.43	22.6927
