Adsorption isotherm of Oxygen on SBA-16-A
DOI: 10.1007/s10450-021-00339-3
Article source: Figure 4(c)
Adsorbate Oxygen: InChIKey MYMOFIZGZYHOMD-UHFFFAOYSA-N
Kind: experiment
Temperature: 77 K
Tabular data in the source: 0
pressure (bar)	uptake (mmol/g)
0.203737	3.47193
0.305606	4.07484
0.407474	4.49064
0.611212	4.86486
0.611212	5.23909
1.01869	5.98753
1.83363	7.02703
2.44485	7.58836
3.66777	8.39917
5.09393	9.10603
6.21449	9.64657
7.53878	10.1455
9.9332	10.894
11.2575	11.2266
12.5308	11.5592
15.6893	12.3493
17.421	12.8067
18.9496	13.1601
20.3757	13.5135
21.5982	13.8254
22.6168	14.0956
23.636	14.3659
24.6038	14.657
25.6734	15.0104
26.5902	15.3846
27.558	15.842
28.9337	16.2994
29.9524	16.5489
30.5127	16.6736
31.5823	16.9231
33.1618	17.2557
34.0276	17.422
34.8426	17.5676
36.065	17.7963
37.0837	17.9418
38.001	18.0457
39.1725	18.2121
40.0384	18.2952
41.0571	18.3992
42.4323	18.5447
43.6552	18.6279
45.8454	18.8358
47.4753	19.0021
48.8001	19.2308
49.8188	19.4595
5.29767	9.27235
6.52009	9.81289
7.89582	10.2495
9.16918	10.6861
10.2897	11.0187
12.1234	11.7256
13.1426	13.3472
14.2122	13.5967
16.1477	14.0956
16.5042	14.1788
18.6949	14.9064
19.5099	15.343
21.0888	16.1331
22.0566	16.5281
23.2286	16.8607
24.5019	17.131
25.7753	17.3181
26.8449	17.4636
28.3734	17.6507
30.9711	17.8794
33.5183	18.0873
36.065	18.2536
38.4594	18.42
41.3627	18.6071
44.3174	18.815
45.3361	18.9189
47.5772	19.1268
49.5132	19.4179
50.4809	19.6882
