Adsorption isotherm of Argon on MCM-41-B
DOI: 10.1007/s10450-021-00339-3
Article source: Figure 1(b)
Adsorbate Argon: InChIKey XKRFYHLGVUSROY-UHFFFAOYSA-N
Kind: experiment
Temperature: 77 K
Tabular data in the source: 0
pressure (bar)	uptake (mmol/g)
0.003546	5.82627
0.005225	6.72669
0.007092	7.25636
0.008769	7.78602
0.012502	8.68644
0.016234	9.48093
0.022392	10.6727
0.024817	11.1758
0.027056	11.7585
0.02967	12.3411
0.033027	13.4004
0.035641	14.2479
0.03788	14.9364
0.040119	15.8369
0.045344	17.3199
0.048702	17.9555
0.052061	18.3528
0.057285	18.803
0.064003	19.0678
0.071468	19.3326
0.08229	19.4915
0.093673	19.6504
0.100763	19.7564
0.147412	20.1271
0.165698	20.233
0.170364	20.233
0.175215	20.286
0.179507	20.339
0.018473	9.95763
0.023885	11.0434
0.02799	12.1027
0.032654	13.3475
0.036946	14.8305
0.038625	15.4131
0.042358	16.5784
0.044224	17.108
0.045717	17.4788
0.047956	18.0085
0.050381	18.4587
0.052247	18.803
0.054114	19.0148
0.055607	19.1208
0.059339	19.2532
0.061017	19.3061
0.062697	19.3326
0.064563	19.3591
0.073707	19.4915
0.083036	19.6239
0.092366	19.7299
0.101322	19.8093
0.110839	19.8888
0.119797	19.9417
0.128939	20.0212
0.13827	20.0742
0.14312	20.1271
0.156742	20.2066
0.17111	20.2595
0.180814	20.339
