Adsorption isotherm of Argon on MCM-41-A
DOI: 10.1007/s10450-021-00339-3
Article source: Figure 1(b)
Adsorbate Argon: InChIKey XKRFYHLGVUSROY-UHFFFAOYSA-N
Kind: experiment
Temperature: 77 K
Tabular data in the source: 0
pressure (bar)	uptake (mmol/g)
0.003919	6.0911
0.005785	6.88559
0.007092	7.46822
0.009144	8.1303
0.012875	9.0572
0.01642	9.85169
0.019966	10.6462
0.022392	11.2023
0.025378	11.8114
0.027431	12.4206
0.031161	13.5064
0.033775	14.3538
0.036014	15.3072
0.037507	16.0487
0.039185	16.8167
0.041612	17.8496
0.042917	18.3792
0.045344	19.2797
0.048702	20.1271
0.05318	20.6568
0.060271	20.9746
0.069227	21.1864
0.078371	21.3453
0.089193	21.5307
0.093298	21.5572
0.102629	21.6896
0.112146	21.7691
0.140136	22.0339
0.149464	22.0869
0.158795	22.1928
0.167939	22.2458
0.172603	22.2987
0.177454	22.3517
0.018846	10.3814
0.023512	11.3877
0.029108	12.8443
0.033027	14.1419
0.038066	16.446
0.039932	17.214
0.041612	17.982
0.043292	18.6705
0.045344	19.4121
0.047397	20.0477
0.048888	20.392
0.050568	20.6833
0.052434	20.8157
0.0543	20.8951
0.056539	20.9746
0.059898	21.0805
0.061764	21.16
0.063444	21.2129
0.065497	21.2394
0.074825	21.3983
0.084156	21.5042
0.093485	21.6367
0.102815	21.7161
0.112146	21.7955
0.121475	21.875
0.130619	21.9545
0.13659	22.0339
0.155063	22.1663
0.170924	22.2722
0.181186	22.4311
