Adsorption isotherm of Methane on MCM-48-B
DOI: 10.1007/s10450-021-00339-3
Article source: Figure 2(d)
Adsorbate Methane: InChIKey VNWKTOKETHGBQD-UHFFFAOYSA-N
Kind: experiment
Temperature: 77 K
Tabular data in the source: 0
pressure (bar)	uptake (mmol/g)
0.80638	7.00742
1.2328	7.86017
1.65968	8.37924
2.2287	9.19492
3.08246	10.2701
3.9836	11.4936
4.3631	12.2352
4.8369	13.0879
5.31116	13.9407
5.73804	14.9047
6.16492	16.054
6.63918	18.3157
7.06606	20.7998
7.54032	21.875
8.06196	22.2458
8.53622	22.3941
9.01048	22.5424
10.2433	22.7278
11.2866	22.8761
12.5194	22.9873
13.6579	23.0244
14.938	23.1356
16.2187	23.2468
17.6415	23.321
18.2579	23.358
19.6806	23.3951
22.1462	23.4322
22.5257	23.4693
25.5608	23.6547
28.6433	23.7659
32.2474	23.8771
33.7175	23.9513
37.3216	24.1367
39.2187	24.2108
41.8269	24.3591
44.5772	24.5074
45.2415	24.5816
5.45376	14.2744
6.02278	15.6091
6.40228	16.8326
6.87608	19.947
7.39772	22.3199
7.9672	22.6907
8.5836	22.839
9.05786	22.9131
9.62688	22.9502
10.1959	23.0244
11.8556	23.2097
12.7567	23.2468
14.1321	23.321
15.5071	23.3951
18.5895	23.5805
21.3877	23.6917
23.0474	23.7659
25.0392	23.84
27.2679	23.9142
29.7813	23.9883
32.5795	24.0625
33.7175	24.1367
36.5153	24.2108
39.5977	24.322
42.9175	24.4703
45.9526	24.804
