Adsorption isotherm of Nitrogen on MCM-41-B
DOI: 10.1007/s10450-021-00339-3
Article source: Figure 1 (a)
Adsorbate Nitrogen: InChIKey IJGRMHOSHXDMSA-UHFFFAOYSA-N
Kind: experiment
Temperature: 77 K
Tabular data in the source: 0
pressure (bar)	uptake (mmol/g)
0.00536	4.37025
0.00536	4.94028
0.003212	5.48317
0.00536	5.97177
0.007498	6.2975
0.007498	6.62324
0.009636	6.89468
0.013922	7.11183
0.018208	7.65472
0.031066	8.36048
0.039628	8.7405
0.050338	9.12052
0.071758	9.82628
0.086754	10.2606
0.110323	10.9121
0.140315	11.7807
0.155311	12.2693
0.169233	12.7036
0.185303	13.1922
0.198151	13.6808
0.208861	14.0337
0.219571	14.3865
0.232429	14.658
0.279556	15.5809
0.290266	15.6895
0.356674	16.1238
0.369522	16.1781
0.385592	16.2052
0.400588	16.2324
0.41451	16.3138
0.434867	16.3138
0.910425	16.7481
0.937206	16.7481
0.962912	16.8024
0.988618	16.8295
0.102825	10.6406
0.126393	11.3464
0.151025	12.1064
0.181017	13.1379
0.202437	13.8708
0.213147	14.2237
0.223857	14.4951
0.232429	14.7666
0.244203	15.0109
0.25385	15.2009
0.26456	15.418
0.27527	15.5266
0.28598	15.6352
0.29669	15.7438
0.305262	15.798
0.315972	15.9066
0.324544	15.9609
0.335254	16.0152
0.343816	16.0695
0.3556	16.0966
0.380232	16.1781
0.405938	16.2595
0.431644	16.3138
0.456287	16.3681
0.481993	16.4224
0.506625	16.4495
0.532331	16.4767
0.558037	16.5038
0.608376	16.5309
0.658724	16.6124
0.710136	16.6395
0.761549	16.6667
0.810813	16.6938
0.862225	16.7481
0.893291	16.721
0.917923	16.7752
0.942556	16.7752
0.969336	16.8024
0.998254	16.911
