Adsorption isotherm of Nitrogen on MCM-48-A
DOI: 10.1007/s10450-021-00339-3
Article source: Figure 2(a)
Adsorbate Nitrogen: InChIKey IJGRMHOSHXDMSA-UHFFFAOYSA-N
Kind: experiment
Temperature: 77 K
Tabular data in the source: 0
pressure (bar)	uptake (mmol/g)
0.012422	8.35257
0.018634	9.02413
0.030012	9.6957
0.038291	10.2413
0.048646	10.6611
0.069347	11.5425
0.185263	15.0262
0.232875	17.9643
0.242187	19.2235
0.313601	24.554
0.338436	24.68
0.343613	24.7639
0.369492	24.8479
0.385015	24.9738
0.400538	25.0157
0.416061	25.0577
0.435728	25.0997
0.556821	25.5194
0.91079	26.3169
0.937692	26.4428
0.962537	26.6107
0.986338	26.7786
0.226664	17.4187
0.259777	21.8258
0.282555	23.9664
0.305323	24.4701
0.329124	24.638
0.352925	24.7639
0.379837	24.8898
0.406749	25.0157
0.429517	25.0577
0.456429	25.1417
0.481263	25.3515
0.506108	25.3935
0.531987	25.4355
0.557855	25.5614
0.608568	25.6453
0.659281	25.7712
0.710005	25.8552
0.760718	25.9811
0.811431	26.0651
0.862144	26.191
0.894224	26.2749
0.920102	26.3589
0.947014	26.4848
0.973916	26.6947
0.997727	26.9885
