Adsorption isotherm of Argon on SBA-15-B
DOI: 10.1007/s10450-021-00339-3
Article source: Figure 3(b)
Adsorbate Argon: InChIKey XKRFYHLGVUSROY-UHFFFAOYSA-N
Kind: experiment
Temperature: 77 K
Tabular data in the source: 0
pressure (bar)	uptake (mmol/g)
0.008688	6.01233
0.01267	6.65982
0.01629	7.2148
0.020453	7.67729
0.023892	7.95478
0.03258	8.74101
0.041992	9.52724
0.04706	9.85098
0.055386	10.4985
0.066246	11.2384
0.083622	12.3947
0.093034	13.0421
0.102084	13.6896
0.111134	14.3834
0.120546	15.1233
0.129234	16.0021
0.13213	16.2796
0.133759	16.4645
0.135388	16.742
0.137198	16.927
0.139008	17.2045
0.140818	17.3895
0.142266	17.8058
0.144076	18.3607
0.145524	19.332
0.14661	20.9507
0.147515	23.0319
0.148058	25.4368
0.149144	28.1192
0.151497	30.8479
0.161271	31.8191
0.027874	8.41727
0.037105	9.15725
0.046336	9.85098
0.055929	10.591
0.06516	11.2384
0.07421	11.8397
0.083984	12.4872
0.093396	13.1346
0.098645	13.5509
0.111134	14.5683
0.119822	15.3546
0.12489	17.667
0.126881	20.3957
0.128329	22.9856
0.129415	25.4368
0.13032	27.5642
0.131406	29.0442
0.132492	29.9229
0.13394	30.4317
0.13575	30.7092
0.137198	30.8941
0.13937	30.9866
0.143714	31.2641
0.148963	31.4491
0.156927	31.7729
0.167968	32.1891
0.17195	32.3741
0.181181	33.2991
