Adsorption isotherm of Methane on SBA-15-C
DOI: 10.1007/s10450-021-00339-3
Article source: Figure 3(d)
Adsorbate Methane: InChIKey VNWKTOKETHGBQD-UHFFFAOYSA-N
Kind: experiment
Temperature: 77 K
Tabular data in the source: 0
pressure (bar)	uptake (mmol/g)
0.5382	4.87462
0.80684	5.32598
1.30042	6.00301
1.61414	6.22869
2.33128	6.72518
2.77978	7.04112
3.22828	7.31194
4.21452	7.67302
5.24584	8.12437
6.187	8.44032
6.9943	8.75627
8.33934	9.20762
9.4599	9.56871
10.8049	9.97492
11.7916	10.2457
14.4813	10.9679
16.3645	11.4193
18.7409	12.0963
21.3412	12.7282
23.5828	13.3601
24.7485	13.8114
25.8695	14.1725
26.3626	14.3531
27.1694	14.5336
27.4836	14.7593
28.1561	14.985
28.3351	15.1204
28.6042	15.3009
28.9179	15.5266
29.4115	15.8877
29.9943	16.655
30.308	17.1063
30.8908	20.2207
31.429	23.4704
31.7428	24.6439
32.505	25.5466
33.0878	26.0431
33.9397	26.2237
34.7466	26.3139
35.5985	26.4494
35.9573	26.4945
37.0332	26.6299
37.571	26.7202
38.9611	26.9007
40.6649	27.1264
42.9065	27.3521
44.879	27.5326
45.8206	27.8034
15.1989	11.2838
18.0233	12.1866
19.0992	12.6379
20.579	13.3149
21.0275	13.676
21.3412	13.9468
21.879	14.6239
22.5966	16.339
23.0897	19.4985
23.5828	22.342
24.121	23.9218
24.3897	24.3731
25.0176	25.005
25.197	25.1856
25.5558	25.2758
26.0935	25.4112
26.5866	25.5466
27.2145	25.6821
27.6179	25.7272
28.0664	25.8626
28.3351	25.9077
29.187	25.9529
30.0389	26.1785
31.4737	26.3139
33.0878	26.4945
34.7916	26.675
38.4229	27.0812
40.3958	27.3069
42.0546	27.5326
44.879	27.8937
46.0446	28.2548
