Adsorption isotherm of Nitrogen on SBA-16-A
DOI: 10.1007/s10450-021-00339-3
Article source: Figure 4(a)
Adsorbate Nitrogen: InChIKey IJGRMHOSHXDMSA-UHFFFAOYSA-N
Kind: experiment
Temperature: 77 K
Tabular data in the source: 0
pressure (bar)	uptake (mmol/g)
0.00308	3.83333
0.00615	4.83333
0.008207	5.375
0.008207	5.54167
0.012311	5.875
0.014358	6.04167
0.019485	6.45833
0.028716	6.83333
0.03897	7.125
0.049224	7.375
0.071789	7.8125
0.08717	8.0625
0.1323	8.66667
0.153832	8.875
0.179477	9.125
0.207159	9.375
0.233828	9.60417
0.260496	9.83333
0.446114	11.2292
0.465599	11.3542
0.486117	11.5
0.506625	11.6667
0.52611	11.8542
0.546618	12.0625
0.566103	12.2708
0.586621	12.5208
0.608153	12.8125
0.628671	13.0625
0.648156	13.25
0.666607	13.4167
0.687125	13.5417
0.708657	13.6875
0.734302	13.875
0.763018	14.0833
0.785573	14.2083
0.810195	14.3333
0.862489	14.5625
0.910699	14.75
0.936334	14.8333
0.961969	14.9583
0.987615	15.125
0.30357	10.1667
0.329205	10.3333
0.35484	10.5
0.373302	10.6667
0.402017	10.9167
0.419455	11.0625
0.447147	11.6458
0.469702	12.4167
0.508672	13.25
0.531237	13.5
0.559952	13.7083
0.609176	13.9583
0.660457	14.1667
0.70968	14.3125
0.760961	14.4167
0.811218	14.5417
0.862489	14.6875
0.912746	14.8333
0.923	14.875
0.948635	14.9792
0.975304	15.0833
0.998892	15.2083
