Adsorption isotherm of Methane on MCM-41-B
DOI: 10.1007/s10450-021-00339-3
Article source: Figure 1(d)
Adsorbate Methane: InChIKey VNWKTOKETHGBQD-UHFFFAOYSA-N
Kind: experiment
Temperature: 77 K
Tabular data in the source: 0
pressure (bar)	uptake (mmol/g)
1.21992	7.57662
1.5755	8.11578
2.13486	8.79682
3.0498	10.0738
3.96474	11.4926
4.42198	12.3439
4.93028	13.0534
5.28632	13.6209
5.69296	14.1601
6.0996	14.5289
6.6585	14.8695
7.26846	15.1816
7.6751	15.2951
8.1328	15.437
8.59004	15.5505
9.09834	15.6356
9.65724	15.7492
11.4365	15.9478
13.1137	16.0329
15.0963	16.118
17.1801	16.2316
17.9428	16.2599
19.6705	16.3167
21.907	16.3451
24.3469	16.4302
26.8378	16.4869
29.6332	16.5437
32.1236	16.6005
34.9195	16.6572
36.0378	16.6572
40.1548	16.7423
45.7967	16.8842
5.54024	13.9898
7.31952	15.8627
7.92948	15.9194
8.43778	15.9762
8.79336	16.0045
9.55558	16.0045
10.0639	16.0329
10.4199	16.0613
11.2332	16.0897
13.1647	16.2032
14.283	16.2032
15.6552	16.2883
17.5361	16.3167
19.5689	16.3734
22.3647	16.4586
23.4319	16.4869
27.3967	16.5721
30.7004	16.6288
33.1402	16.6572
34.3602	16.6856
35.4278	16.714
38.0705	16.7423
45.4411	16.8275
