Adsorption isotherm of Nitrogen on SBA-15-A
DOI: 10.1007/s10450-021-00339-3
Article source: Figure 3(a)
Adsorbate Nitrogen: InChIKey IJGRMHOSHXDMSA-UHFFFAOYSA-N
Kind: experiment
Temperature: 77 K
Tabular data in the source: 0
pressure (bar)	uptake (mmol/g)
0.030397	6.57407
0.04053	6.85185
0.052689	7.22222
0.067888	7.5
0.091192	7.82407
0.112471	8.10185
0.132736	8.33333
0.154014	8.56481
0.178332	8.7963
0.203663	9.07407
0.230008	9.30556
0.255339	9.53704
0.48636	11.4352
0.557288	12.1759
0.608963	12.6852
0.634294	13.0093
0.658613	13.4259
0.670772	13.6111
0.679891	13.7963
0.68901	13.9815
0.698129	14.4907
0.705222	15.463
0.715355	19.8611
0.755884	21.2963
0.779189	21.3889
0.800467	21.4815
0.820733	21.5741
0.835931	21.6667
0.911925	21.9444
0.938269	22.1296
0.962587	22.3611
0.985892	22.7778
0.306001	9.81481
0.356664	10.2778
0.379969	10.463
0.406313	10.6944
0.430631	10.9259
0.456976	11.1574
0.506625	11.6667
0.539049	11.9907
0.561341	12.2222
0.584645	12.4537
0.603897	12.8704
0.624162	15
0.634294	17.7315
0.641387	19.3519
0.650506	20.1389
0.660639	20.5556
0.670772	20.787
0.678878	20.9259
0.68901	21.0648
0.700156	21.1111
0.710288	21.1574
0.760951	21.3889
0.8106	21.5741
0.862276	21.7593
0.8947	21.8981
0.921044	22.0833
0.947389	22.2222
0.976773	22.6389
0.997038	23.3333
