Adsorption isotherm of Methane on MCM-41-A
DOI: 10.1007/s10450-021-00339-3
Article source: Figure 1(d)
Adsorbate Methane: InChIKey VNWKTOKETHGBQD-UHFFFAOYSA-N
Kind: experiment
Temperature: 77 K
Tabular data in the source: 0
pressure (bar)	uptake (mmol/g)
0.81328	7.09421
1.27052	7.94552
1.5755	8.48468
2.23652	9.33598
3.1004	10.6129
4.01534	12.4007
4.47304	13.5074
4.87968	14.4722
5.33692	15.4086
6.76016	16.7991
7.1162	16.9694
7.6751	17.1396
8.33612	17.2531
8.99668	17.3099
9.7083	17.3666
10.7755	17.4801
11.9954	17.5369
13.1647	17.622
14.5369	17.6788
15.9096	17.7355
17.2817	17.8207
18.4	17.849
19.6705	17.8774
21.9581	17.9625
24.4996	18.0477
29.9382	18.1612
33.9029	18.2747
44.0179	18.445
45.39	18.5017
5.48964	15.6924
5.84522	16.6005
6.30292	17.168
6.86182	17.3666
7.47178	17.395
8.08174	17.4234
8.59004	17.4801
9.1494	17.5085
9.45392	17.5369
9.91162	17.5653
11.6398	17.6504
12.5548	17.7071
14.7402	17.8207
16.1635	17.849
17.8917	17.9058
19.7722	17.9909
22.3647	18.0477
25.4651	18.1044
26.8884	18.1328
28.2606	18.1612
32.7336	18.2463
38.3755	18.3598
45.8983	18.6152
