Adsorption isotherm of Oxygen on MCM-41-C
DOI: 10.1007/s10450-021-00339-3
Article source: Figure 1(c)
Adsorbate Oxygen: InChIKey MYMOFIZGZYHOMD-UHFFFAOYSA-N
Kind: experiment
Temperature: 77 K
Tabular data in the source: 0
pressure (bar)	uptake (mmol/g)
0.159863	1.79153
0.159863	2.30727
0.106407	2.85016
0.159863	3.55592
0.26627	4.39739
0.372678	4.85885
0.585997	5.37459
0.958674	6.73181
1.49121	7.57329
2.02376	8.38762
2.5563	8.95765
3.14179	9.52769
3.56792	10.0163
3.9406	10.3963
4.57955	11.0206
5.48477	11.8892
6.33703	12.9207
7.02944	13.7894
7.56198	14.5765
7.93466	15.3909
8.62706	16.4224
9.53228	17.9696
9.95841	18.5396
10.5439	19.354
11.3427	20.0597
12.4078	20.6569
13.3665	21.0098
14.6444	21.3626
16.3484	21.607
19.3308	21.8784
22.2063	22.0413
24.8156	22.1498
33.9217	22.5027
36.5844	22.557
39.1937	22.6384
41.75	22.7199
46.9155	22.8556
48.1934	22.937
50.2172	23.2628
50.3236	23.8599
5.16554	11.4821
6.70971	13.3008
8.14747	15.608
8.4672	16.1509
9.10614	17.291
9.74509	18.5396
10.1712	19.2454
10.5974	19.924
11.3427	20.9826
11.609	21.2541
11.9817	21.3626
12.5677	21.4441
13.1002	21.4712
13.6327	21.5255
14.1653	21.5798
14.5909	21.607
15.1769	21.6341
15.603	21.6341
16.9873	21.7698
18.2657	21.8241
20.875	21.987
23.4842	22.1227
26.1469	22.2313
28.7032	22.3127
31.3125	22.3941
31.898	22.4213
37.3298	22.6113
44.1994	22.8013
49.5777	23.0456
50.3765	24.1857
