Adsorption isotherm of Nitrogen on MCM-41-A
DOI: 10.1007/s10450-021-00339-3
Article source: Figure 1 (a)
Adsorbate Nitrogen: InChIKey IJGRMHOSHXDMSA-UHFFFAOYSA-N
Kind: experiment
Temperature: 77 K
Tabular data in the source: 0
pressure (bar)	uptake (mmol/g)
0.003212	2.98588
0.003212	5.13029
0.00536	6.84039
0.012848	7.41042
0.018208	8.03474
0.028918	8.68621
0.039628	9.17481
0.050338	9.60912
0.071758	10.3692
0.097465	11.2378
0.110323	11.5635
0.139241	12.4864
0.155311	12.975
0.169233	13.5451
0.196013	14.7666
0.206723	15.1466
0.217433	15.6352
0.230281	16.1238
0.240991	16.5038
0.254924	16.8567
0.266698	17.101
0.278482	17.2367
0.290266	17.3724
0.369522	17.7253
0.384518	17.7524
0.399514	17.7796
0.41451	17.8067
0.438079	17.861
0.911499	18.5125
0.939344	18.5668
0.962912	18.6754
0.98647	18.7839
0.103899	11.2921
0.127457	11.9978
0.152099	12.8393
0.183155	14.1151
0.202437	15.0109
0.213147	15.4723
0.222783	15.9066
0.233493	16.2595
0.243139	16.5852
0.25385	16.8295
0.26456	17.0738
0.274196	17.1824
0.283842	17.3181
0.292404	17.3724
0.303114	17.4538
0.313834	17.481
0.324544	17.5353
0.33418	17.5624
0.34489	17.5896
0.3556	17.6439
0.381306	17.7253
0.405938	17.7796
0.431644	17.861
0.456287	17.9153
0.481993	17.9696
0.506625	18.0239
0.532331	18.0782
0.556963	18.1053
0.607312	18.1596
0.658724	18.2139
0.709062	18.2682
0.7594	18.3496
0.810813	18.4039
0.861151	18.4582
0.892217	18.4853
0.917923	18.5125
0.944704	18.5939
0.971474	18.7025
0.99718	18.9468
