Adsorption isotherm of Argon on SBA-15-A
DOI: 10.1007/s10450-021-00339-3
Article source: Figure 3(b)
Adsorbate Argon: InChIKey XKRFYHLGVUSROY-UHFFFAOYSA-N
Kind: experiment
Temperature: 77 K
Tabular data in the source: 0
pressure (bar)	uptake (mmol/g)
0.005792	5.13361
0.007421	5.54985
0.00905	5.87359
0.013213	6.47482
0.017014	6.93731
0.020634	7.3073
0.024254	7.63104
0.032942	8.23227
0.042716	8.97225
0.047241	9.24974
0.055929	9.75848
0.067151	10.406
0.093396	11.9322
0.102808	12.4872
0.11222	13.0884
0.12127	13.7821
0.130682	14.5683
0.133216	14.8921
0.134664	15.0308
0.136474	15.3083
0.137922	15.6321
0.139008	16.2796
0.139551	17.5745
0.140818	19.7945
0.141542	22.3844
0.144257	25.1131
0.155479	25.9455
0.168873	26.3155
0.028598	7.90853
0.037648	8.55601
0.045974	9.111
0.056653	9.80473
0.065703	10.3597
0.074934	10.9147
0.084346	11.4697
0.094482	12.0709
0.104799	12.7184
0.114392	13.5046
0.118736	15.4471
0.120727	17.9907
0.122175	20.2569
0.12308	22.2456
0.124528	23.4944
0.125795	24.2806
0.127424	24.7431
0.131044	25.1593
0.132854	25.2518
0.134664	25.3905
0.136655	25.483
0.138465	25.5755
0.140456	25.5755
0.145886	25.7605
0.14842	25.8068
0.165434	26.1768
0.174846	26.4543
0.181	26.963
