Adsorption isotherm of Nitrogen on SBA-16-B
DOI: 10.1007/s10450-021-00339-3
Article source: Figure 4(a)
Adsorbate Nitrogen: InChIKey IJGRMHOSHXDMSA-UHFFFAOYSA-N
Kind: experiment
Temperature: 77 K
Tabular data in the source: 0
pressure (bar)	uptake (mmol/g)
0.002047	2.91667
0.002047	3.625
0.002047	4.45833
0.00615	6.16667
0.010254	6.5
0.012311	6.70833
0.020508	7.10417
0.029739	7.5
0.037946	7.77083
0.049224	8.04167
0.071789	8.45833
0.088193	8.6875
0.111782	9.02083
0.133323	9.20833
0.154855	9.41667
0.182547	9.66667
0.209216	9.83333
0.235874	10
0.262543	10.1458
0.404074	10.8542
0.424582	10.9583
0.44509	11.0833
0.465599	11.1458
0.486117	11.2917
0.506625	11.375
0.52611	11.5208
0.546618	11.6667
0.566103	11.8542
0.586621	12.1042
0.607129	12.5
0.629694	12.9583
0.686102	13.1458
0.728142	13.1667
0.734302	13.1875
0.784549	13.1875
0.935311	13.2917
0.961969	13.3333
0.986581	13.3333
0.304593	10.375
0.329205	10.5
0.35484	10.625
0.381509	10.75
0.391763	10.8125
0.412271	10.9167
0.430733	11.0625
0.451241	11.9167
0.466632	12.9375
0.486117	12.9583
0.506625	12.9792
0.53226	13.0208
0.556882	13.0417
0.608153	13.0833
0.65841	13.125
0.70968	13.1667
0.759937	13.2083
0.810195	13.2292
0.861465	13.25
0.912746	13.2917
0.918896	13.2917
0.943508	13.2917
0.96813	13.3333
0.996845	13.375
