Adsorption isotherm of Argon on SBA-16-C
DOI: 10.1007/s10450-021-00339-3
Article source: Figure 4(b)
Adsorbate Argon: InChIKey XKRFYHLGVUSROY-UHFFFAOYSA-N
Kind: experiment
Temperature: 77 K
Tabular data in the source: 0
pressure (bar)	uptake (mmol/g)
0.00038	2.28942
0.000758	3.54212
0.001329	4.21166
0.001707	4.57883
0.002277	4.9676
0.003225	5.57235
0.005122	6.2203
0.006831	6.65227
0.008538	7.01944
0.012522	7.64579
0.015557	8.05616
0.019543	8.40173
0.023716	8.7689
0.026182	8.94168
0.030736	9.20086
0.03548	9.48164
0.040602	9.71922
0.054072	10.3024
0.06299	10.6695
0.072666	11.0583
0.07684	11.1879
0.080634	11.3607
0.084429	11.5119
0.088033	11.6631
0.091448	11.7927
0.095244	11.987
0.098848	12.1382
0.102643	12.3758
0.105869	12.5702
0.110043	12.8726
0.113078	13.1749
0.115733	13.5853
0.1182	13.9957
0.119907	14.5356
0.124081	15.6371
0.128257	16.3931
0.146469	16.6739
0.158612	16.7603
0.171894	16.8035
0.174169	16.8466
0.178723	16.8899
0.02808	9.02808
0.036996	9.52484
0.046673	9.9784
0.050088	10.108
0.053123	10.2376
0.059194	11.0151
0.061851	15.9827
0.064128	16.0475
0.067922	16.1123
0.071528	16.1339
0.075321	16.1987
0.078547	16.2419
0.082531	16.2419
0.086894	16.3067
0.091829	16.3283
0.100935	16.4147
0.110231	16.5011
0.119149	16.5443
0.128067	16.6091
0.136983	16.6523
0.154058	16.7387
0.168098	16.8035
0.179671	16.8899
