Adsorption isotherm of Nitrogen on SBA-15-C
DOI: 10.1007/s10450-021-00339-3
Article source: Figure 3(a)
Adsorbate Nitrogen: InChIKey IJGRMHOSHXDMSA-UHFFFAOYSA-N
Kind: experiment
Temperature: 77 K
Tabular data in the source: 0
pressure (bar)	uptake (mmol/g)
0.002027	2.63889
0.002027	3.14815
0.004053	3.98148
0.004053	4.90741
0.006079	5.55556
0.012159	6.2037
0.020265	6.85185
0.029384	7.31481
0.038503	7.68519
0.050662	7.96296
0.070928	8.47222
0.089166	8.7963
0.110444	9.21296
0.131722	9.53704
0.151987	9.81481
0.178332	10.1852
0.203663	10.463
0.228994	10.8333
0.255339	11.1574
0.48636	13.9815
0.555261	14.9537
0.60795	15.787
0.634294	16.25
0.658613	16.7593
0.668745	17.0833
0.679891	17.4074
0.68901	17.7778
0.698129	18.287
0.705222	19.537
0.718394	24.3056
0.746765	26.4815
0.768043	26.7593
0.788308	26.8981
0.837958	27.3611
0.911925	28.0556
0.938269	28.4259
0.963601	28.7963
0.987919	29.4907
0.306001	11.713
0.354637	12.2222
0.379969	12.5463
0.4053	12.8704
0.432658	13.1944
0.456976	13.5648
0.507638	14.2593
0.543102	14.8611
0.566407	15.2778
0.586672	15.8333
0.60187	16.4352
0.618082	17.5
0.634294	20.1852
0.644427	22.8241
0.652533	24.4444
0.659626	25.3241
0.669758	25.6944
0.679891	25.9722
0.68901	26.1111
0.699142	26.2037
0.710288	26.2963
0.759937	26.8056
0.811613	27.1759
0.862276	27.5926
0.895713	27.963
0.923071	28.287
0.952455	28.6574
0.980826	29.3519
0.998051	30.2315
