Adsorption isotherm of Nitrogen on MCM-48-C
DOI: 10.1007/s10450-021-00339-3
Article source: Figure 2(a)
Adsorbate Nitrogen: InChIKey IJGRMHOSHXDMSA-UHFFFAOYSA-N
Kind: experiment
Temperature: 77 K
Tabular data in the source: 0
pressure (bar)	uptake (mmol/g)
0.001034	3.18993
0.001034	4.02938
0.002067	4.44911
0.002067	5.12067
0.003101	5.79224
0.005178	6.37985
0.007245	6.79958
0.011389	7.30325
0.018634	7.89087
0.027945	8.39454
0.038291	8.81427
0.04968	9.19203
0.069347	9.73767
0.085903	10.1574
0.109705	10.6611
0.156284	11.5425
0.185263	12.0881
0.212175	12.9276
0.244254	15.1941
0.262888	17.2508
0.315668	18.468
0.335335	18.51
0.341546	18.5519
0.370525	18.6779
0.382948	18.7198
0.398471	18.8038
0.416061	18.8458
0.436761	18.8877
0.507142	19.0976
0.911824	19.8951
0.937692	19.979
0.962537	20.1049
0.986338	20.3568
0.101426	10.4512
0.127305	10.9969
0.142828	11.2487
0.171807	11.8363
0.201819	12.4659
0.233909	14.1868
0.255643	16.5792
0.280478	18.0483
0.304289	18.3421
0.329124	18.51
0.355002	18.6359
0.379837	18.7198
0.404682	18.8038
0.429517	18.8458
0.457462	18.9717
0.481263	19.1396
0.506108	19.1396
0.531987	19.2235
0.557855	19.2655
0.608568	19.3494
0.659281	19.4334
0.710005	19.5173
0.760718	19.6013
0.811431	19.6852
0.862144	19.7691
0.894224	19.8531
0.920102	19.937
0.947014	20.063
0.974959	20.2728
0.997727	20.6086
