Adsorption isotherm of Argon on MCM-41-C
DOI: 10.1007/s10450-021-00339-3
Article source: Figure 1(b)
Adsorbate Argon: InChIKey XKRFYHLGVUSROY-UHFFFAOYSA-N
Kind: experiment
Temperature: 77 K
Tabular data in the source: 0
pressure (bar)	uptake (mmol/g)
0.000186	1.80085
0.000373	2.25106
0.000559	2.91314
0.000559	3.60169
0.000932	3.97246
0.001307	4.29025
0.001866	4.76695
0.002425	5.21716
0.003546	5.9322
0.005412	6.77966
0.007092	7.38877
0.008956	7.86547
0.012875	8.81886
0.016607	9.58686
0.019966	10.2225
0.022578	10.8581
0.025192	11.3877
0.027617	11.9703
0.031161	13.0032
0.033775	13.7977
0.0362	14.6451
0.040119	16.0487
0.040492	16.2606
0.043103	17.108
0.045717	17.9025
0.048702	18.5911
0.052061	19.1737
0.0543	19.5445
0.059712	19.9947
0.066242	20.339
0.076132	20.6833
0.088447	20.8686
0.104495	21.054
0.110839	21.107
0.148719	21.4248
0.158049	21.4778
0.167378	21.5572
0.171856	21.5837
0.176708	21.6102
0.019593	10.143
0.022951	10.8845
0.028922	12.3676
0.033215	13.6917
0.037507	15.2277
0.039373	15.8898
0.040864	16.4989
0.04273	17.161
0.044597	17.7436
0.046276	18.2733
0.048142	18.803
0.050754	19.465
0.052993	19.9417
0.054673	20.2066
0.056353	20.3655
0.059525	20.4449
0.061392	20.4979
0.063069	20.5508
0.065122	20.5508
0.074453	20.7097
0.083597	20.8422
0.093112	20.9746
0.102256	21.054
0.111398	21.1335
0.120915	21.2129
0.130059	21.2924
0.139388	21.3453
0.144614	21.3983
0.163086	21.5307
0.178388	21.6367
