Adsorption isotherm of Argon on SBA-15-C
DOI: 10.1007/s10450-021-00339-3
Article source: Figure 3(b)
Adsorbate Argon: InChIKey XKRFYHLGVUSROY-UHFFFAOYSA-N
Kind: experiment
Temperature: 77 K
Tabular data in the source: 0
pressure (bar)	uptake (mmol/g)
0.000724	2.49743
0.000724	3.05242
0.001267	3.6999
0.002172	4.25488
0.00362	4.90236
0.005611	5.54985
0.006878	5.91984
0.008869	6.38232
0.012308	6.98356
0.01629	7.58479
0.020272	8.13977
0.023892	8.55601
0.027512	8.97225
0.032218	9.34224
0.036924	9.80473
0.04163	10.221
0.045974	10.6372
0.054662	11.3772
0.065522	12.3022
0.091948	14.4296
0.100998	15.3546
0.110229	16.0945
0.11946	17.112
0.12851	18.222
0.131044	18.6382
0.132492	18.8695
0.134302	19.147
0.136112	19.517
0.13756	20.1182
0.138827	21.0894
0.139913	22.6619
0.140818	24.9743
0.141904	27.4717
0.143714	30.1542
0.151497	32.4666
0.161814	32.9753
0.174303	33.6691
0.17919	33.9466
0.028055	8.87975
0.037467	9.71223
0.045793	10.4985
0.055205	11.3309
0.064798	12.1172
0.073486	12.9034
0.08326	13.6896
0.093396	14.6146
0.09593	14.8921
0.10498	15.8633
0.111315	16.7883
0.116564	18.0833
0.120184	20.4882
0.122175	22.9856
0.123442	25.483
0.12489	27.6567
0.125976	29.2292
0.127424	30.2004
0.128872	30.8016
0.130501	31.1716
0.132311	31.4029
0.134302	31.6341
0.13575	31.7266
0.137922	31.8654
0.142447	32.0504
0.147334	32.3741
0.161271	33.0216
0.173036	33.6228
0.181181	34.2703
