Adsorption isotherm of Nitrogen on MCM-48-B
DOI: 10.1007/s10450-021-00339-3
Article source: Figure 2(a)
Adsorbate Nitrogen: InChIKey IJGRMHOSHXDMSA-UHFFFAOYSA-N
Kind: experiment
Temperature: 77 K
Tabular data in the source: 0
pressure (bar)	uptake (mmol/g)
0.009312	7.72298
0.011389	8.14271
0.018634	8.81427
0.027945	9.48583
0.038291	10.0735
0.048646	10.6191
0.07038	11.3746
0.096249	12.256
0.109705	12.7597
0.139727	13.6831
0.168706	14.6485
0.182162	15.1522
0.197685	15.7398
0.211141	16.4113
0.245288	18.9717
0.272199	21.8258
0.315668	22.9171
0.344647	23.1689
0.361213	23.2529
0.370525	23.2949
0.386048	23.4208
0.399504	23.4208
0.416061	23.4627
0.435728	23.5467
0.456429	23.6726
0.481263	23.7146
0.506108	23.7566
0.556821	23.9664
0.608568	24.0504
0.659281	24.1763
0.710005	24.2602
0.760718	24.3442
0.811431	24.554
0.861111	24.7219
0.912857	25.0157
0.937692	25.1417
0.96357	25.3515
0.986338	25.6453
0.101426	12.4239
0.127305	13.2634
0.15525	14.1448
0.176984	14.9003
0.198719	15.8657
0.231832	17.8804
0.255643	20.3568
0.280478	22.3715
0.305323	22.8332
0.32809	23.043
0.355002	23.2109
0.379837	23.3368
0.388115	23.3788
0.429517	23.5047
0.458496	23.6726
0.481263	23.9244
0.506108	23.9664
0.531987	24.0504
0.557855	24.0923
0.607535	24.2183
0.659281	24.3022
0.710005	24.4701
0.760718	24.554
0.810397	24.68
0.862144	24.8479
0.895257	25.0157
0.921135	25.1417
0.949081	25.2676
0.977026	25.5614
0.997727	25.9391
