Adsorption isotherm of Oxygen on SBA-16-C
DOI: 10.1007/s10450-021-00339-3
Article source: Figure 4(c)
Adsorbate Oxygen: InChIKey MYMOFIZGZYHOMD-UHFFFAOYSA-N
Kind: experiment
Temperature: 77 K
Tabular data in the source: 0
pressure (bar)	uptake (mmol/g)
0.203737	3.24324
0.305606	4.65696
0.35654	4.86486
0.509343	5.32225
0.611212	5.69647
0.967752	6.38254
1.83363	7.46362
2.34298	7.90021
3.61684	8.62786
4.83926	9.18919
6.01075	9.56341
8.35423	10.1871
10.7991	10.7069
12.1234	10.9355
15.4855	11.5177
17.1154	11.8295
18.644	12.0998
20.0192	12.3493
21.1907	12.5572
22.2094	12.7235
23.1776	12.973
24.1963	13.2225
25.0622	13.4719
25.8771	13.763
26.5902	14.0956
27.0996	14.4698
27.6089	14.8856
27.915	15.343
28.4244	15.7588
28.7809	16.2162
29.8505	17.2141
35.1482	17.6715
38.9688	17.7547
42.9931	17.8378
45.387	17.8794
46.7113	17.9418
47.9342	17.9626
49.1057	17.9834
5.1958	9.31393
6.52009	9.70894
7.59022	10.0208
9.06731	10.3534
9.88226	10.499
11.8178	10.894
12.9898	16.8191
13.8556	16.9231
15.129	16.9855
16.4533	17.0686
17.6762	17.131
18.9496	17.1933
20.2229	17.2349
21.4963	17.2973
22.7192	17.3389
23.9416	17.3805
25.2659	17.422
26.4884	17.4428
27.7622	17.5052
30.258	17.5676
32.9071	17.6091
35.3519	17.6715
37.1856	17.7339
41.9739	17.8171
46.3038	17.9002
49.6151	18.025
