Adsorption isotherm of Methane on SBA-15-B
DOI: 10.1007/s10450-021-00339-3
Article source: Figure 3(d)
Adsorbate Methane: InChIKey VNWKTOKETHGBQD-UHFFFAOYSA-N
Kind: experiment
Temperature: 77 K
Tabular data in the source: 0
pressure (bar)	uptake (mmol/g)
0.4485	4.51354
0.80684	5.05517
1.34504	5.68706
2.33128	6.45436
2.77978	6.77031
3.31752	6.99599
4.21452	7.44734
5.11106	7.80843
6.0973	8.0341
6.9943	8.30491
8.15994	8.666
9.4599	9.02708
10.5358	9.29789
11.8363	9.52357
14.0332	10.0652
16.3199	10.5617
19.01	11.1033
20.8927	11.5547
22.0138	11.7352
23.5382	12.1414
24.0313	12.2768
24.4794	12.3671
24.9279	12.4574
25.3764	12.5476
25.7347	12.6831
26.2283	12.8636
26.8111	12.999
27.3939	13.1795
27.9767	13.3149
28.2458	13.4503
28.7836	13.6309
29.2321	13.8114
29.5904	14.0822
30.2183	14.4885
30.6668	15.2558
30.9355	15.6168
31.5187	17.1966
32.1016	20.6269
32.3702	22.9288
33.7603	25.321
35.9573	25.8174
37.392	25.998
40.4404	26.2688
43.2202	26.4494
44.655	26.5396
45.7309	26.675
10.1324	9.11735
14.8851	10.2006
17.3507	10.6971
18.7409	11.0582
20.0859	11.3741
20.3996	11.4193
21.4309	11.7803
21.8344	11.9609
22.3721	12.0963
22.9103	12.322
23.4931	12.6379
23.9416	12.9087
24.4347	13.9468
24.8832	15.9328
25.421	18.8215
26.0038	21.5296
26.542	23.335
26.8557	23.9669
27.3488	24.5988
27.6626	24.7342
28.2008	24.9147
28.5145	25.005
29.0076	25.1404
29.5904	25.2307
30.6668	25.3661
32.1016	25.5015
35.7779	25.8174
37.6607	26.0431
40.1267	26.2688
42.9962	26.4042
45.5515	26.5396
45.7309	27.0812
