Adsorption isotherm of Oxygen on MCM-48-A
DOI: 10.1007/s10450-021-00339-3
Article source: Figure 2(c)
Adsorbate Oxygen: InChIKey MYMOFIZGZYHOMD-UHFFFAOYSA-N
Kind: experiment
Temperature: 77 K
Tabular data in the source: 0
pressure (bar)	uptake (mmol/g)
0.942537	7.17182
1.4665	7.98292
1.98997	8.79402
2.46149	9.39168
2.98495	9.98933
3.50841	10.4589
4.08483	11.0139
7.01733	13.7033
7.59325	14.301
8.37894	15.1974
9.16414	16.4781
9.94984	18.3992
10.3689	19.6798
10.8924	21.9851
11.3114	25.7417
11.8349	29.7118
12.3064	30.7791
14.9248	31.3767
17.2289	31.6756
19.8997	32.0171
20.528	32.0598
21.9945	32.1025
23.3561	32.2305
24.6653	32.2732
33.6726	32.7855
36.3429	32.9989
38.8568	33.127
41.4751	33.3405
46.6074	33.8527
47.9166	34.0235
49.1208	34.365
49.9065	34.8773
50.3776	35.8591
6.59826	13.191
8.06477	14.8132
9.42638	17.2465
10.7875	22.9242
11.8874	30.6083
13.0397	31.206
13.5107	31.3767
13.9822	31.4194
14.5581	31.5475
15.0297	31.5902
15.5007	31.6329
16.0771	31.7183
16.9672	31.7609
20.2139	32.0598
23.6703	32.2305
25.9745	32.444
28.5928	32.572
31.1587	32.7428
33.9868	32.9136
35.0862	32.9562
40.2184	33.2551
44.0935	33.5539
48.2307	34.0662
50.0109	35.1334
50.3776	36.3287
50.3776	37.1825
