Adsorption isotherm of Methane on SBA-16-C
DOI: 10.1007/s10450-021-00339-3
Article source: Figure 4(d)
Adsorbate Methane: InChIKey VNWKTOKETHGBQD-UHFFFAOYSA-N
Kind: experiment
Temperature: 77 K
Tabular data in the source: 0
pressure (bar)	uptake (mmol/g)
1.0074	5.27331
1.3432	6.28081
1.72684	6.75241
2.20662	7.13826
3.50152	7.48124
5.51632	7.9314
6.81122	8.12433
7.77078	8.25295
8.72988	8.42444
10.2649	8.57449
11.2723	8.72454
13.1427	8.93891
15.0135	9.19614
16.2605	9.32476
17.6037	9.47481
18.4193	9.56056
18.9469	9.6463
19.9543	9.75348
20.8173	9.8821
21.8247	10.0107
22.3523	10.0965
23.4076	10.268
24.2231	10.4609
25.0387	10.6967
25.9978	10.9754
26.5254	11.3183
27.629	12.09
28.6359	12.776
29.1635	13.0547
30.2188	13.3119
31.0822	13.5477
34.4402	13.6549
35.7829	13.6549
37.7977	13.6978
38.4693	13.6978
40.2919	13.7406
42.3545	13.7192
43.9852	13.7621
4.46108	7.69561
5.13222	7.99571
5.56416	9.66774
5.85212	12.7974
6.81122	12.9261
8.15442	13.0547
8.96954	13.119
10.2649	13.1618
11.3201	13.2261
13.047	13.269
13.6224	13.2905
15.2536	13.3333
16.2605	13.3976
17.3641	13.3976
18.4672	13.4191
19.6664	13.4405
20.8173	13.4834
22.3523	13.5263
23.2157	13.5263
24.4628	13.5263
25.7582	13.5691
28.1566	13.5906
30.1231	13.612
32.3776	13.6334
34.7277	13.6978
37.1261	13.7192
38.9491	13.7406
39.9561	13.7406
41.5389	13.7406
43.1701	13.7621
44.9926	13.7835
