Adsorption isotherm of Nitrogen on SBA-15-B
DOI: 10.1007/s10450-021-00339-3
Article source: Figure 3(a)
Adsorbate Nitrogen: InChIKey IJGRMHOSHXDMSA-UHFFFAOYSA-N
Kind: experiment
Temperature: 77 K
Tabular data in the source: 0
pressure (bar)	uptake (mmol/g)
0.020265	6.38889
0.030397	6.85185
0.04053	7.12963
0.050662	7.40741
0.070928	7.77778
0.089166	8.14815
0.110444	8.51852
0.131722	8.7963
0.151987	9.02778
0.178332	9.30556
0.204677	9.58333
0.230008	9.90741
0.255339	10.1852
0.48636	12.4537
0.507638	12.7315
0.606937	13.8889
0.633281	14.3518
0.658613	14.7222
0.669758	14.9537
0.679891	15.1389
0.68901	15.3704
0.700156	15.6018
0.708262	15.8333
0.718394	16.1111
0.7265	16.6667
0.735619	20.0926
0.756898	25.3704
0.778176	25.6944
0.799454	25.8333
0.818706	26.0185
0.835931	26.1111
0.911925	26.4815
0.938269	26.6667
0.962587	26.8519
0.986905	27.2685
0.306001	10.6482
0.355651	11.0648
0.380982	11.2963
0.407327	11.6204
0.431644	11.8518
0.455962	12.1296
0.511691	12.7778
0.557288	13.287
0.569447	13.4722
0.593764	13.7963
0.615043	14.1204
0.634294	14.5833
0.650506	15.9722
0.661652	18.5648
0.674825	22.963
0.680904	24.2593
0.691037	24.8148
0.699142	25.0926
0.710288	25.2778
0.759937	25.6481
0.811613	25.9722
0.862276	26.2963
0.893686	26.4352
0.920031	26.5741
0.948402	26.8056
0.97576	27.0833
0.998051	27.5926
