Adsorption isotherm of Methane on MCM-48-C
DOI: 10.1007/s10450-021-00339-3
Article source: Figure 2(d)
Adsorbate Methane: InChIKey VNWKTOKETHGBQD-UHFFFAOYSA-N
Kind: experiment
Temperature: 77 K
Tabular data in the source: 0
pressure (bar)	uptake (mmol/g)
0.52164	5.85805
0.80638	6.52542
1.2328	7.15572
1.56492	7.48941
2.18132	7.9714
3.03508	8.52754
3.93622	9.04661
4.45786	9.30614
4.8369	9.56568
5.2164	9.93644
6.54442	15.3496
7.01868	17.1292
7.44556	17.6483
8.25148	18.0191
9.2	18.0932
10.3854	18.1674
11.4287	18.2786
12.2825	18.3157
13.0888	18.3898
14.0369	18.464
15.0328	18.5011
16.2187	18.5381
17.6415	18.6494
18.1153	18.6864
19.538	18.7235
21.4825	18.8347
23.3321	18.8718
25.1339	18.983
29.0228	19.0572
31.7731	19.1684
34.2866	19.2055
36.8474	19.2797
39.3608	19.3538
41.5421	19.428
44.0556	19.5021
44.9093	19.5021
5.69066	10.6409
6.07016	12.3835
6.25968	13.5328
6.78132	16.4619
7.39772	17.9449
7.9672	18.1674
8.48884	18.2415
9.01048	18.3157
9.5795	18.3898
10.1485	18.4269
11.7608	18.5011
12.9462	18.5752
14.6538	18.6864
15.697	18.7235
18.4948	18.8347
20.1071	18.8347
22.0989	18.946
24.3754	18.983
26.5093	19.0572
29.5918	19.1314
31.0146	19.1684
34.6187	19.2797
39.0287	19.3538
43.5339	19.5021
46	19.6133
