Adsorption isotherm of Nitrogen on SBA-16-C
DOI: 10.1007/s10450-021-00339-3
Article source: Figure 4(a)
Adsorbate Nitrogen: InChIKey IJGRMHOSHXDMSA-UHFFFAOYSA-N
Kind: experiment
Temperature: 77 K
Tabular data in the source: 0
pressure (bar)	uptake (mmol/g)
0.00308	3.41667
0.002047	4.04167
0.002047	4.75
0.00308	5.125
0.004104	5.41667
0.008207	5.875
0.010254	6.08333
0.012311	6.3125
0.018461	6.66667
0.029739	7.0625
0.039993	7.35417
0.049224	7.54167
0.069742	7.89583
0.088193	8.125
0.112815	8.39583
0.1323	8.60417
0.153832	8.75
0.182547	8.95833
0.209216	9.14583
0.236908	9.3125
0.262543	9.45833
0.305616	9.6875
0.35484	9.95833
0.404074	10.2083
0.424582	10.3333
0.446114	10.4792
0.466632	10.6042
0.48714	10.7292
0.506625	10.8542
0.527133	11.0208
0.546618	11.1875
0.567136	11.375
0.586621	11.625
0.605083	12
0.625591	12.5833
0.644052	13.25
0.671744	13.875
0.701483	14
0.728142	14.0208
0.75481	14.0208
0.779422	14.0417
0.785573	14.0417
0.937358	14.125
0.964026	14.1667
0.304593	9.625
0.329205	9.77083
0.358944	9.91667
0.381509	10.0417
0.391763	10.1042
0.406121	10.2083
0.428686	10.3542
0.449194	10.9792
0.465599	13.7083
0.48714	13.75
0.507648	13.7708
0.53226	13.7917
0.557906	13.8333
0.608153	13.8958
0.660457	13.9583
0.710714	13.9792
0.760961	14.0417
0.812241	14.0417
0.861465	14.0833
0.912746	14.0833
0.918896	14.125
0.943508	14.125
0.970177	14.1667
0.998892	14.2083
