Adsorption isotherm of Oxygen on SBA-15-A
DOI: 10.1007/s10450-021-00339-3
Article source: Figure 3(c)
Adsorbate Oxygen: InChIKey MYMOFIZGZYHOMD-UHFFFAOYSA-N
Kind: experiment
Temperature: 77 K
Tabular data in the source: 0
pressure (bar)	uptake (mmol/g)
1.93954	6.29179
2.53663	6.65653
3.43176	7.24924
4.57551	7.75076
5.71927	8.25228
6.76367	8.57143
7.80808	8.93617
9.15103	9.3465
10.494	9.75684
11.8364	10.1216
13.2293	10.4863
15.5667	11.0334
18.7494	11.8541
20.8382	12.4012
23.3249	13.0395
26.0108	13.769
27.3537	14.1793
28.6468	14.5897
29.1939	14.772
29.6912	14.9544
30.1385	15.1368
30.6856	15.3191
31.1829	15.5927
31.6806	15.8663
32.1779	16.1854
32.5258	16.7781
32.725	17.8267
32.8738	19.6961
33.1224	22.0669
33.3715	24.6656
35.4604	27.0821
39.5381	27.4924
44.1136	27.9939
46.7995	28.3587
48.0426	28.7234
49.087	29.3161
49.8334	30.5471
15.9646	11.2614
18.2521	11.8541
19.5452	12.1733
20.5896	12.4468
22.3304	12.9027
24.2699	13.4043
27.0053	14.5897
27.8011	18.1459
28.0996	20.3344
28.3981	22.2036
28.6962	23.8906
29.0447	25.0304
29.3427	25.7143
29.7406	26.079
30.1884	26.3526
30.5364	26.4438
31.1829	26.535
35.8083	27.1733
41.5276	27.7204
46.5509	28.4499
49.2363	29.8176
49.9822	31.5501
50.43	33.0547
50.4799	34.2857
