Adsorption isotherm of Oxygen on SBA-15-B
DOI: 10.1007/s10450-021-00339-3
Article source: Figure 3(c)
Adsorbate Oxygen: InChIKey MYMOFIZGZYHOMD-UHFFFAOYSA-N
Kind: experiment
Temperature: 77 K
Tabular data in the source: 0
pressure (bar)	uptake (mmol/g)
1.0444	5.28875
1.49222	5.88146
1.98946	6.42857
2.4867	6.83891
3.63046	7.56839
4.52559	8.02432
5.66985	8.57143
6.71425	9.02736
7.75866	9.3921
9.1011	9.93921
10.494	10.3495
11.787	10.7599
13.0301	11.2158
15.4674	11.8997
18.65	12.8571
25.9114	15.0456
27.4032	15.5927
28.6468	16.0486
29.144	16.231
29.5918	16.4134
30.1385	16.6413
30.6856	16.9149
31.1829	17.1429
31.6806	17.462
32.2772	17.7356
32.725	18.0547
33.1724	18.3283
33.6202	18.8298
33.9182	19.6505
34.2168	21.1094
34.416	23.0699
34.714	25.2584
34.8633	27.8116
35.1119	30.4559
36.5048	32.8723
40.4832	33.6474
44.6608	34.2857
46.3023	34.4681
47.8934	34.8328
49.2862	35.2887
49.8828	36.2462
50.4799	37.7508
15.8653	12.0365
18.2521	12.766
19.4458	13.1307
20.8382	13.541
22.4298	14.0426
23.4247	14.3161
23.922	14.4985
25.7122	15.1368
27.5524	15.8663
28.9947	17.2796
29.8404	22.1581
30.2878	26.3982
30.487	28.3587
30.7356	30.0456
30.9842	31.0942
31.2827	31.7325
31.7301	32.0517
32.1779	32.2796
32.725	32.462
33.2717	32.5532
33.8688	32.69
36.1563	33.0547
36.4548	33.1003
41.0304	33.7842
45.208	34.3769
48.8884	35.2887
49.9822	36.8389
50.4799	38.3435
50.4799	39.4833
