Adsorption isotherm of Oxygen on SBA-15-C
DOI: 10.1007/s10450-021-00339-3
Article source: Figure 3(c)
Adsorbate Oxygen: InChIKey MYMOFIZGZYHOMD-UHFFFAOYSA-N
Kind: experiment
Temperature: 77 K
Tabular data in the source: 0
pressure (bar)	uptake (mmol/g)
0.149273	2.09726
0.149273	2.73556
0.149273	3.37386
0.24862	3.82979
0.447818	4.46809
0.547165	4.92401
0.945058	5.56231
1.49222	6.2462
2.03889	6.74772
2.58605	7.29483
3.63046	8.02432
4.52559	8.57143
5.66985	9.20973
6.71425	9.62006
7.75866	10.076
9.00175	10.6231
10.3941	11.1246
11.6877	11.5806
13.0301	12.1277
15.3675	12.9483
18.5507	14.1337
20.7888	14.9088
23.3249	15.8663
25.9609	17.0061
27.3038	17.5988
28.5469	18.1459
29.0941	18.5106
29.6412	18.7386
30.1385	19.0122
30.5863	19.3313
31.1335	19.6961
31.6307	20.0608
32.1779	20.6991
32.4265	21.5653
32.6751	23.0699
32.9737	25.1216
33.073	27.538
33.421	30.1824
34.1174	33.0091
36.8527	34.1945
40.1352	34.924
43.1192	35.5623
44.1136	35.8359
47.9433	37.1581
49.087	38.1155
49.8828	39.5745
50.4799	41.535
15.9646	13.2219
18.2521	14.1337
19.4957	14.5897
20.8382	15.1368
22.2805	15.7295
23.7228	16.3222
24.9664	17.0517
26.2594	17.9635
27.2045	19.1489
28.2983	23.6626
28.5968	25.8967
28.8954	27.9483
29.1939	29.772
29.492	31.1398
29.7905	31.9605
30.1884	32.5076
30.5863	32.7812
31.1829	33.0091
31.6806	33.1459
32.2273	33.3739
32.7745	33.465
33.2717	33.6018
33.8189	33.6474
35.9077	34.1489
38.9915	34.7872
42.572	35.5167
46.5509	36.6109
49.2862	38.617
49.9822	40.4863
50.43	42.1732
50.5293	43.4043
