Adsorption isotherm of Nitrogen on SBA-15
DOI: 10.1016/j.micromeso.2014.09.014
Article source: Figure 5a
Adsorbate Nitrogen: InChIKey IJGRMHOSHXDMSA-UHFFFAOYSA-N
Kind: experiment
Temperature: 77 K
Tabular data in the source: 0
pressure (bar)	uptake (mmol/g)
0	84.1751
0.002695	141.414
0.013477	168.35
0.03504	188.552
0.059299	212.121
0.097035	225.589
0.142857	239.057
0.191375	252.525
0.239892	265.993
0.293801	282.828
0.342318	292.929
0.377358	299.663
0.420485	313.131
0.458221	316.498
0.498652	329.966
0.541779	343.434
0.576819	353.535
0.617251	363.636
0.630728	373.737
0.649596	410.774
0.657682	444.444
0.665768	501.684
0.671159	380.471
0.679245	582.492
0.695418	595.96
0.703504	397.306
0.716981	424.242
0.719677	612.795
0.727763	454.545
0.735849	521.886
0.749326	599.327
0.762803	616.162
0.795148	626.263
0.827493	629.63
0.865229	639.731
0.90566	643.098
0.948787	653.199
0.975741	663.3
0.989218	676.768
