Adsorption isotherm of Nitrogen on SBA-15
DOI: 10.1016/j.micromeso.2014.09.014
Article source: Figure 5a
Adsorbate Nitrogen: InChIKey IJGRMHOSHXDMSA-UHFFFAOYSA-N
Kind: experiment
Temperature: 77 K
Tabular data in the source: 0
pressure (bar)	uptake (mmol/g)
0.002695	104.377
0.005391	158.249
0.016172	185.185
0.03504	208.754
0.075472	232.323
0.107817	249.158
0.140162	262.626
0.177898	272.727
0.204852	282.828
0.256065	296.296
0.299191	313.131
0.355795	326.599
0.41779	343.434
0.460916	356.902
0.51752	367.003
0.557951	380.471
0.609164	397.306
0.633423	427.609
0.6469	471.38
0.652291	518.519
0.657682	410.774
0.660377	558.923
0.668464	599.327
0.681941	646.465
0.687332	427.609
0.703504	437.71
0.708895	663.3
0.722372	468.013
0.727763	511.785
0.733154	552.189
0.738544	632.997
0.746631	653.199
0.77628	673.401
0.849057	683.502
0.913747	693.603
0.962264	703.704
0.991914	720.539
