Adsorption isotherm of Nitrogen on SBA-15
DOI: 10.1016/j.micromeso.2014.09.014
Article source: Figure 5a
Adsorbate Nitrogen: InChIKey IJGRMHOSHXDMSA-UHFFFAOYSA-N
Kind: experiment
Temperature: 77 K
Tabular data in the source: 0
pressure (bar)	uptake (mmol/g)
0	0
0.008086	124.579
0.021563	148.148
0.051213	171.717
0.09973	191.919
0.145553	205.387
0.202156	225.589
0.239892	235.69
0.28841	249.158
0.342318	262.626
0.398922	272.727
0.447439	286.195
0.495957	303.03
0.539084	313.131
0.584906	329.966
0.61186	346.801
0.649596	356.902
0.681941	373.737
0.703504	400.673
0.71159	437.71
0.716981	491.582
0.719677	390.572
0.722372	572.391
0.735849	626.263
0.746631	673.401
0.754717	414.141
0.773585	437.71
0.77628	703.704
0.781671	471.38
0.787062	531.987
0.797844	666.667
0.811321	700.337
0.819407	734.007
0.827493	720.539
0.849057	750.842
0.881402	767.677
0.927224	794.613
0.967655	828.283
0.983827	858.586
0.991914	885.522
