Adsorption isotherm of Methane on Carbon
DOI: 10.1021/jp067226u
Adsorbate Methane: InChIKey VNWKTOKETHGBQD-UHFFFAOYSA-N
Temperature: 293 K
Tabular data in the source: 0
pressure (bar)	uptake (mmol/g)
9.71374	0.246764
51.1222	0.281411
100.136	0.234369
150.84	0.290426
199.855	0.232961
251.404	0.254933
299.15	0.301693
