Adsorption isotherm of Methane on Carbon
DOI: 10.1021/jp067226u
Adsorbate Methane: InChIKey VNWKTOKETHGBQD-UHFFFAOYSA-N
Temperature: 343 K
Tabular data in the source: 0
pressure (bar)	uptake (mmol/g)
10.9813	0.838879
51.1222	0.967893
100.981	1.0524
150.418	0.991555
201.122	1.08282
250.559	1.08733
298.305	0.998879
