Adsorption isotherm of Methane on Carbon
DOI: 10.1021/jp067226u
Adsorbate Methane: InChIKey VNWKTOKETHGBQD-UHFFFAOYSA-N
Temperature: 343 K
Tabular data in the source: 0
pressure (bar)	uptake (mmol/g)
8.44613	0.301975
49.8546	0.332397
99.7137	0.313242
148.728	0.329017
199.855	0.336341
250.136	0.327609
298.728	0.336904
