Adsorption isotherm of Carbon Dioxide on Carbon
DOI: 10.1021/jp067226u
Adsorbate Carbon Dioxide: InChIKey CURLTUGMZLYLDI-UHFFFAOYSA-N
Temperature: 343 K
Tabular data in the source: 0
pressure (bar)	uptake (mmol/g)
9.2912	6.31698
49.0095	7.60571
99.2912	8.00008
149.995	8.37332
199.432	8.5705
248.869	8.58458
298.305	8.88036
