Adsorption isotherm of Carbon Dioxide on Carbon
DOI: 10.1021/jp067226u
Adsorbate Carbon Dioxide: InChIKey CURLTUGMZLYLDI-UHFFFAOYSA-N
Temperature: 293 K
Tabular data in the source: 0
pressure (bar)	uptake (mmol/g)
9.71374	7.80638
49.8546	8.87328
99.7137	9.0599
149.573	9.30285
199.855	9.28877
248.446	9.2606
297.46	9.66201
