Adsorption isotherm of Carbon Dioxide on Carbon
DOI: 10.1021/jp067226u
Adsorbate Carbon Dioxide: InChIKey CURLTUGMZLYLDI-UHFFFAOYSA-N
Temperature: 293 K
Tabular data in the source: 0
pressure (bar)	uptake (mmol/g)
10.9855	3.68159
50.0284	3.77083
100.226	3.84691
150.853	3.8246
202.339	3.89039
252.108	3.89954
300.16	3.8492
