Adsorption isotherm of Methane on Carbon
DOI: 10.1021/jp067226u
Adsorbate Methane: InChIKey VNWKTOKETHGBQD-UHFFFAOYSA-N
Temperature: 343 K
Tabular data in the source: 0
pressure (bar)	uptake (mmol/g)
10.5588	0.832682
50.6997	0.97071
101.404	1.05578
150.84	0.996062
200.7	1.09353
249.714	1.10085
299.573	1.04001
