Adsorption isotherm of Carbon Dioxide on Carbon
DOI: 10.1021/jp067226u
Adsorbate Carbon Dioxide: InChIKey CURLTUGMZLYLDI-UHFFFAOYSA-N
Temperature: 343 K
Tabular data in the source: 0
pressure (bar)	uptake (mmol/g)
9.2912	3.33592
50.2771	3.5817
100.136	3.67466
150.84	3.71128
200.277	3.71057
250.559	3.75071
299.573	3.73099
