Adsorption isotherm of Carbon Dioxide on Carbon
DOI: 10.1021/jp067226u
Adsorbate Carbon Dioxide: InChIKey CURLTUGMZLYLDI-UHFFFAOYSA-N
Temperature: 293 K
Tabular data in the source: 0
pressure (bar)	uptake (mmol/g)
10.9855	3.71706
51.3155	3.78857
100.226	3.88581
150.853	3.8595
201.91	3.89897
252.537	3.86636
300.16	3.87609
