Adsorption isotherm of Carbon Dioxide on Carbon
DOI: 10.1021/jp067226u
Adsorbate Carbon Dioxide: InChIKey CURLTUGMZLYLDI-UHFFFAOYSA-N
Temperature: 343 K
Tabular data in the source: 0
pressure (bar)	uptake (mmol/g)
8.86867	5.91557
49.0095	7.3381
98.4461	7.81698
148.728	8.16909
198.587	8.3874
248.446	8.38036
298.728	8.56346
