Adsorption isotherm of Carbon Dioxide on Carbon
DOI: 10.1021/jp067226u
Adsorbate Carbon Dioxide: InChIKey CURLTUGMZLYLDI-UHFFFAOYSA-N
Temperature: 293 K
Tabular data in the source: 0
pressure (bar)	uptake (mmol/g)
10.1363	7.91553
49.432	8.93666
99.7137	9.28525
149.573	9.5106
199.01	9.35567
249.714	9.36624
298.305	9.71131
