Adsorption isotherm of Methane on Carbon
DOI: 10.1021/jp067226u
Adsorbate Methane: InChIKey VNWKTOKETHGBQD-UHFFFAOYSA-N
Temperature: 293 K
Tabular data in the source: 0
pressure (bar)	uptake (mmol/g)
9.2912	0.6393
49.8546	0.683667
100.136	0.736906
149.995	0.645638
201.545	0.703948
251.404	0.807469
300.84	0.766061
