Adsorption isotherm of Methane on Carbon
DOI: 10.1021/jp067226u
Adsorbate Methane: InChIKey VNWKTOKETHGBQD-UHFFFAOYSA-N
Temperature: 343 K
Tabular data in the source: 0
pressure (bar)	uptake (mmol/g)
7.60106	0.300566
50.2771	0.327327
98.0236	0.308172
149.573	0.329017
199.855	0.327609
250.136	0.323665
299.573	0.332961
