Adsorption isotherm of Methane on Carbon
DOI: 10.1021/jp067226u
Adsorbate Methane: InChIKey VNWKTOKETHGBQD-UHFFFAOYSA-N
Temperature: 293 K
Tabular data in the source: 0
pressure (bar)	uptake (mmol/g)
9.71374	0.235496
50.2771	0.280566
100.559	0.235496
150.84	0.292116
201.122	0.234088
250.559	0.241412
300.418	0.3062
