Adsorption isotherm of Carbon Dioxide on Carbon
DOI: 10.1021/jp067226u
Adsorbate Carbon Dioxide: InChIKey CURLTUGMZLYLDI-UHFFFAOYSA-N
Temperature: 343 K
Tabular data in the source: 0
pressure (bar)	uptake (mmol/g)
9.2912	3.32959
49.8546	3.5824
99.7137	3.6655
149.995	3.69367
200.7	3.72606
250.136	3.74578
299.995	3.72606
