Adsorption isotherm of Methane on Carbon
DOI: 10.1021/jp067226u
Adsorbate Methane: InChIKey VNWKTOKETHGBQD-UHFFFAOYSA-N
Temperature: 293 K
Tabular data in the source: 0
pressure (bar)	uptake (mmol/g)
8.86867	0.651976
49.8546	0.695075
100.559	0.756343
149.573	0.650709
201.967	0.714089
251.404	0.834512
300.84	0.771976
