Adsorption isotherm of Nitrogen on UiO-66-NH2
DOI: 10.1021/acs.iecr.7b02839
Article source: Figure S6
Adsorbate Nitrogen: InChIKey IJGRMHOSHXDMSA-UHFFFAOYSA-N
Kind: experiment
Temperature: 77 K
Tabular data in the source: 0
pressure (bar)	uptake (cm3(STP)/g)
0.001946	48.8711
0.001946	78.185
0.008358	105.473
0.016155	131.037
0.020487	147.133
0.025685	156.602
0.029151	161.336
0.037815	171.278
0.047345	176.485
0.097596	194.001
0.149579	203.47
0.200696	206.784
0.254412	214.832
0.291666	216.252
0.354046	222.88
0.407762	224.774
0.471009	229.981
0.524725	233.768
0.586238	238.976
0.65555	245.13
0.688472	247.971
0.720529	250.811
0.751719	255.072
0.782042	258.859
0.811499	262.173
0.840957	265.961
0.866948	271.168
0.888608	274.482
0.915466	280.637
0.936692	287.738
0.961385	298.626
0.983044	316.143
0.989975	329.398
0.997773	358.277
0.987376	344.074
0.965716	313.776
0.936259	291.052
0.917199	282.53
0.890341	275.429
0.595769	240.396
0.535122	236.609
0.47794	232.348
0.420758	227.614
0.361844	223.353
0.304662	219.093
