Adsorption isotherm of Nitrogen on Au NCs-UiO-66-TU
DOI: 10.1021/acs.iecr.7b02839
Article source: Figure 2
Adsorbate Nitrogen: InChIKey IJGRMHOSHXDMSA-UHFFFAOYSA-N
Kind: experiment
Temperature: 77 K
Tabular data in the source: 0
pressure (bar)	uptake (cm3(STP)/g)
0.049452	40.3729
0.053611	43.031
0.060079	45.0964
0.068396	47.1607
0.078562	50.1107
0.086879	52.7662
0.09843	53.9415
0.109058	55.7087
0.121533	56.8834
0.135857	59.2395
0.152491	61.0029
0.170049	62.4701
0.189456	63.3448
0.212559	64.8085
0.23751	65.9754
0.265233	67.1405
0.297115	68.3031
0.331307	68.8729
0.370582	70.6221
0.414478	71.1858
0.462994	72.6336
0.517979	74.0773
0.578046	74.9265
0.630721	76.076
0.642734	76.2163
0.706961	77.802
0.718974	77.4989
0.795214	81.2943
0.802144	81.29
0.895018	89.5096
1.00591	134.377
