Adsorption isotherm of Nitrogen on UiO-66
DOI: 10.1021/acs.iecr.7b02839
Article source: Figure 2
Adsorbate Nitrogen: InChIKey IJGRMHOSHXDMSA-UHFFFAOYSA-N
Kind: experiment
Temperature: 77 K
Tabular data in the source: 0
pressure (bar)	uptake (cm3(STP)/g)
0.0513	356.999
0.054073	362.91
0.061003	367.636
0.067934	371.475
0.078562	375.903
0.087341	378.558
0.097044	380.917
0.10952	384.457
0.122919	386.518
0.136319	388.579
0.152953	391.229
0.170511	393.288
0.189918	395.345
0.214407	396.808
0.239358	399.453
0.265695	401.506
0.297577	402.964
0.332232	405.308
0.371044	406.466
0.414478	408.508
0.462994	409.956
0.517979	411.104
0.57897	413.135
0.636728	415.76
0.713891	417.485
0.803069	422.159
0.898715	428.603
1.00776	469.037
