Adsorption isotherm of Au(III), Water on UiO-66-NH2
DOI: 10.1021/acs.iecr.7b02839
Article source: Figure S7A
Adsorbate Au(III): InChIKey CBMIPXHVOVTTTL-UHFFFAOYSA-N
Adsorbate Water: InChIKey XLYOFNOQVPJJNP-UHFFFAOYSA-N
Kind: experiment
Temperature: 298 K
Tabular data in the source: 0
pressure (bar)	Au(III) fraction	Au(III) uptake (mg/g)	Water fraction	Water uptake (mg/g)	total uptake (mg/g)
1.01325	15.2657	26.696			
1.01325	34.5802	65.5047			
1.01325	81.1072	77.157			
1.01325	130.61	89.1569			
1.01325	178.225	94.1953			
1.01325	278.435	103.401			
1.01325	477.095	105.974			
1.01325	776.089	109.051			
