Adsorption isotherm of Au(III), Water on UiO-66-TU
DOI: 10.1021/acs.iecr.7b02839
Article source: Figure 6a
Adsorbate Au(III): InChIKey CBMIPXHVOVTTTL-UHFFFAOYSA-N
Adsorbate Water: InChIKey XLYOFNOQVPJJNP-UHFFFAOYSA-N
Kind: experiment
Temperature: 298 K
Tabular data in the source: 0
pressure (bar)	Au(III) fraction	Au(III) uptake (mg/g)	Water fraction	Water uptake (mg/g)	total uptake (mg/g)
1	1.76072	20.9001			
1	10.358	126.214			
1	30.1317	175.742			
1	48.186	210.673			
1	95.471	238.305			
1	142.756	264.373			
1	236.466	294.09			
1	436.783	299.825			
1	735.968	311.816			
