Adsorption isotherm of Nitrogen on UiO-66-TU
DOI: 10.1021/acs.iecr.7b02839
Article source: Figure 2
Adsorbate Nitrogen: InChIKey IJGRMHOSHXDMSA-UHFFFAOYSA-N
Kind: experiment
Temperature: 77 K
Tabular data in the source: 0
pressure (bar)	uptake (cm3(STP)/g)
0.050653	242.411
0.057307	246.664
0.061743	249.854
0.07006	253.041
0.079486	255.874
0.087248	257.997
0.097229	260.474
0.109982	262.595
0.120517	264.717
0.137151	266.48
0.15323	268.244
0.170973	269.652
0.190934	271.059
0.212559	272.464
0.238064	274.577
0.266342	274.914
0.295729	275.605
0.333987	277.709
0.371137	278.396
0.415494	280.142
0.464842	280.465
0.516962	280.788
0.520289	281.14
0.576568	281.46
0.581281	281.811
0.632846	281.424
0.643381	282.837
0.706036	282.443
0.719344	284.208
0.794197	284.871
0.80196	285.221
0.887348	290.489
0.893447	290.485
1.00379	339.728
