Adsorption isotherm of Au(III), Water on UiO-66
DOI: 10.1021/acs.iecr.7b02839
Article source: Figure S7A
Adsorbate Au(III): InChIKey CBMIPXHVOVTTTL-UHFFFAOYSA-N
Adsorbate Water: InChIKey XLYOFNOQVPJJNP-UHFFFAOYSA-N
Kind: experiment
Temperature: 298 K
Tabular data in the source: 0
pressure (bar)	Au(III) fraction	Au(III) uptake (mg/g)	Water fraction	Water uptake (mg/g)	total uptake (mg/g)
1.01325	22.0182	-1.63128			
1.01325	41.7009	21.0877			
1.01325	89.94	24.9464			
1.01325	140.921	30.0131			
1.01325	191.239	33.267			
1.01325	289.868	35.3032			
1.01325	490.613	36.8367			
1.01325	789.331	37.9892			
