Adsorption isotherm of Nitrogen on rht-MOF-tri in moisture 7 days RT
DOI: 10.1021/acs.chemmater.5b00084
Article source: Figure 9a
Adsorbate Nitrogen: InChIKey IJGRMHOSHXDMSA-UHFFFAOYSA-N
Kind: experiment
Temperature: 77 K
Tabular data in the source: 0
pressure (bar)	uptake (cm3(STP)/g)
5.5e-05	18.6047
0.000508	326.744
0.000522	322.093
0.000566	306.977
0.000604	294.186
0.000651	277.907
0.000706	259.302
0.000767	238.372
0.000812	223.256
0.000989	162.791
0.00105	141.86
0.001112	120.93
0.001173	100
0.001231	80.2326
0.001347	40.6977
0.002339	202.326
0.002401	181.395
0.002752	61.6279
0.00342	333.721
0.004866	340.698
0.007775	348.837
0.015069	361.628
0.016512	369.767
0.019438	372.093
0.02236	375.581
0.025279	380.233
0.029668	383.721
0.034057	387.209
0.036979	390.698
0.039902	394.186
0.042824	397.674
0.045747	401.163
0.048669	404.651
0.050125	408.14
0.053051	410.465
0.054507	413.953
0.05743	417.442
0.063278	423.256
0.067667	426.744
0.070586	431.395
0.073505	436.047
0.079316	454.651
0.089529	472.093
0.105608	489.535
0.12612	495.349
0.145172	498.837
0.173023	502.326
0.193545	504.651
0.21407	505.814
0.233127	508.14
0.253652	509.302
0.272711	510.465
0.293237	511.628
0.313762	512.791
0.334287	513.953
0.354817	513.953
0.375345	513.953
0.394405	515.116
0.414934	515.116
0.433996	515.116
0.454522	516.279
0.475051	516.279
0.49558	516.279
0.516109	516.279
0.536637	516.279
0.557163	517.442
0.576225	517.442
0.596755	517.442
0.617283	517.442
0.637813	517.442
0.658341	517.442
0.67887	517.442
0.699396	518.605
0.71406	518.605
0.736058	517.442
0.75805	518.605
0.772717	517.442
0.796178	517.442
0.81964	517.442
0.841639	516.279
0.854836	516.279
0.876831	516.279
0.900297	515.116
0.91496	515.116
0.939892	513.953
0.96482	513.953
