Adsorption isotherm of Nitrogen on rht-MOF-tri in pH 2.5 HCL(aq) 24 hours RT
DOI: 10.1021/acs.chemmater.5b00084
Article source: Figure 9a
Adsorbate Nitrogen: InChIKey IJGRMHOSHXDMSA-UHFFFAOYSA-N
Kind: experiment
Temperature: 77 K
Tabular data in the source: 0
pressure (bar)	uptake (cm3(STP)/g)
5.5e-05	18.6047
0.000604	294.186
0.000651	277.907
0.000706	259.302
0.000767	238.372
0.000812	223.256
0.000989	162.791
0.00105	141.86
0.001112	120.93
0.001173	100
0.001231	80.2326
0.001347	40.6977
0.001906	350
0.001957	332.558
0.002012	313.953
0.002339	202.326
0.002401	181.395
0.002752	61.6279
0.004795	365.116
0.006223	377.907
0.009132	386.047
0.012048	391.86
0.016437	395.349
0.019359	398.837
0.022282	402.326
0.028137	405.814
0.032526	409.302
0.036911	413.953
0.042766	417.442
0.045692	419.767
0.051544	424.419
0.054466	427.907
0.058852	432.558
0.070555	441.86
0.092506	456.977
0.113012	465.116
0.134996	468.605
0.155512	473.256
0.174571	474.419
0.195096	475.581
0.214152	477.907
0.233212	479.07
0.253734	481.395
0.274259	482.558
0.294785	483.721
0.31531	484.884
0.334369	486.047
0.354895	487.209
0.37542	488.372
0.394484	488.372
0.416475	489.535
0.437001	490.698
0.457526	491.86
0.475122	491.86
0.494181	493.023
0.51764	494.186
0.539632	495.349
0.558698	494.186
0.57629	495.349
0.598283	496.512
0.618811	496.512
0.63787	497.674
0.656933	497.674
0.677459	498.837
0.699451	500
0.718513	500
0.740505	501.163
0.758097	502.326
0.778627	502.326
0.800618	503.488
0.821144	504.651
0.840203	505.814
0.860725	508.14
0.881254	508.14
0.90178	509.302
0.920832	512.791
0.942817	516.279
0.963336	519.767
