Adsorption isotherm of Nitrogen on rht-MOF-tri in steam 6 hours
DOI: 10.1021/acs.chemmater.5b00084
Article source: Figure 9a
Adsorbate Nitrogen: InChIKey IJGRMHOSHXDMSA-UHFFFAOYSA-N
Kind: experiment
Temperature: 77 K
Tabular data in the source: 0
pressure (bar)	uptake (cm3(STP)/g)
5.5e-05	18.6047
0.000604	294.186
0.000651	277.907
0.000706	259.302
0.000767	238.372
0.000812	223.256
0.000989	162.791
0.00105	141.86
0.001112	120.93
0.001173	100
0.001231	80.2326
0.001347	40.6977
0.002339	202.326
0.002401	181.395
0.002752	61.6279
0.006425	309.302
0.012263	318.605
0.013705	326.744
0.018087	332.558
0.02101	336.047
0.023929	340.698
0.028318	344.186
0.032706	347.674
0.035629	351.163
0.038551	354.651
0.041474	358.14
0.044396	361.628
0.047319	365.116
0.048775	368.605
0.051701	370.93
0.053157	374.419
0.056079	377.907
0.067752	397.674
0.077962	416.279
0.089611	444.186
0.095419	463.953
0.111507	477.907
0.126154	483.721
0.155464	489.535
0.173054	491.86
0.193575	494.186
0.212632	496.512
0.233157	497.674
0.252213	500
0.274208	500
0.293264	502.326
0.313792	502.326
0.332852	503.488
0.354844	504.651
0.373906	504.651
0.394435	504.651
0.414961	505.814
0.434024	505.814
0.456015	506.977
0.476541	508.14
0.495604	508.14
0.516129	509.302
0.535192	509.302
0.557187	509.302
0.577716	509.302
0.598245	509.302
0.617307	509.302
0.637837	509.302
0.658365	509.302
0.678894	509.302
0.699423	509.302
0.719952	509.302
0.761014	508.14
0.780076	508.14
0.800605	508.14
0.821134	508.14
0.840196	508.14
0.860725	508.14
0.881251	509.302
0.900317	508.14
0.919379	508.14
0.941375	508.14
0.961908	506.977
