Adsorption isotherm of Nitrogen on rht-MOF-tri in H2O 2 days RT
DOI: 10.1021/acs.chemmater.5b00084
Article source: Figure 9a
Adsorbate Nitrogen: InChIKey IJGRMHOSHXDMSA-UHFFFAOYSA-N
Kind: experiment
Temperature: 77 K
Tabular data in the source: 0
pressure (bar)	uptake (cm3(STP)/g)
6.1e-05	20.9302
0.000177	60.4651
0.000235	80.2326
0.00058	197.674
0.000631	215.116
0.000709	258.14
0.000948	176.744
0.001586	40.6977
0.001766	102.326
0.001831	124.419
0.001872	138.372
0.001934	159.302
0.002087	288.372
0.002131	273.256
0.002152	233.721
0.006435	305.814
0.00934	315.116
0.013716	323.256
0.015175	325.581
0.018091	331.395
0.023942	336.047
0.026862	340.698
0.031244	346.512
0.035629	351.163
0.038551	354.651
0.042933	360.465
0.047319	365.116
0.051701	370.93
0.054623	374.419
0.06483	394.186
0.069205	402.326
0.088159	439.535
0.114481	463.953
0.13499	470.93
0.14671	474.419
0.168699	476.744
0.186292	477.907
0.203881	480.233
0.224407	481.395
0.243463	483.721
0.26692	484.884
0.284514	486.047
0.303573	487.209
0.325564	488.372
0.344627	488.372
0.366622	488.372
0.387148	489.535
0.404741	490.698
0.425266	491.86
0.445796	491.86
0.466321	493.023
0.486846	494.186
0.507375	494.186
0.527904	494.186
0.5455	494.186
0.568962	494.186
0.592424	494.186
0.612949	495.349
0.633472	497.674
0.653997	498.837
0.678925	498.837
0.709715	500
0.736106	501.163
0.7625	501.163
0.787428	501.163
0.810887	502.326
0.828483	502.326
0.847538	504.651
0.871	504.651
0.8886	503.488
0.913524	504.651
0.931121	504.651
0.948717	504.651
0.96485	503.488
