Adsorption isotherm of Nitrogen on rht-MOF-pyr in steam 6 hours
DOI: 10.1021/acs.chemmater.5b00084
Article source: Figure 9b
Adsorbate Nitrogen: InChIKey IJGRMHOSHXDMSA-UHFFFAOYSA-N
Kind: experiment
Temperature: 77 K
Tabular data in the source: 0
pressure (bar)	uptake (cm3(STP)/g)
5.3e-05	21.573
0.000106	43.1461
0.00015	60.6742
0.000196	79.5506
0.000246	99.7753
0.000296	120
0.001044	176.629
0.00109	157.753
0.001137	138.876
0.002041	372.135
0.002078	357.303
0.002237	292.584
0.002284	273.708
0.002333	253.483
0.00248	194.157
0.003627	328.989
0.00367	311.461
0.003863	233.258
0.003906	215.73
0.004933	399.101
0.004966	385.618
0.005069	343.82
0.006372	415.281
0.006395	405.843
0.007835	422.022
0.01078	427.416
0.012246	432.809
0.015194	436.854
0.018143	440.899
0.021088	446.292
0.024036	450.337
0.026981	455.73
0.031409	459.775
0.034357	463.82
0.038782	469.213
0.041727	474.607
0.043196	478.652
0.04762	484.045
0.069742	511.011
0.07857	529.888
0.090331	559.551
0.094722	578.427
0.11094	600
0.125709	609.438
0.144928	613.483
0.171547	616.18
0.192252	617.528
0.211478	618.876
0.232184	620.225
0.252893	620.225
0.273605	618.876
0.292834	618.876
0.313543	618.876
0.332777	617.528
0.353484	617.528
0.374197	616.18
0.394909	614.831
0.414142	613.483
0.436333	612.135
0.455566	610.787
0.474799	609.438
0.495515	606.742
0.516227	605.393
0.538418	604.045
0.55913	602.697
0.579845	600
0.60056	597.303
0.619797	594.607
0.644947	593.258
0.676013	591.91
0.699687	589.213
0.717441	587.865
0.741117	583.82
0.758872	582.472
0.781063	581.124
0.79882	578.427
0.821011	577.079
0.840244	575.73
0.86096	573.034
0.881671	571.685
0.900904	570.337
0.920133	570.337
0.940846	568.989
0.963037	567.64
