Adsorption isotherm of Nitrogen on rht-MOF-pyr in H2O 15 days RT
DOI: 10.1021/acs.chemmater.5b00084
Article source: Figure 9b
Adsorbate Nitrogen: InChIKey IJGRMHOSHXDMSA-UHFFFAOYSA-N
Kind: experiment
Temperature: 77 K
Tabular data in the source: 0
pressure (bar)	uptake (cm3(STP)/g)
5.3e-05	21.573
0.000106	43.1461
0.00015	60.6742
0.000196	79.5506
0.000246	99.7753
0.000296	120
0.001044	176.629
0.00109	157.753
0.001137	138.876
0.002237	292.584
0.002284	273.708
0.002333	253.483
0.00248	194.157
0.003497	381.573
0.003567	353.258
0.003627	328.989
0.00367	311.461
0.003863	233.258
0.003906	215.73
0.004983	378.876
0.006425	393.708
0.006445	385.618
0.006492	366.742
0.006558	339.775
0.007888	400.449
0.010833	405.843
0.015257	411.236
0.018206	415.281
0.021154	419.326
0.027058	424.719
0.030006	428.764
0.032951	434.157
0.037379	438.202
0.040327	442.247
0.044752	447.64
0.047697	453.034
0.049166	457.079
0.05359	462.472
0.06538	480
0.071237	504.27
0.090351	551.461
0.091883	529.888
0.105093	571.685
0.110973	586.517
0.121314	591.91
0.144962	600
0.16566	604.045
0.192279	606.742
0.212978	610.787
0.232204	612.135
0.252913	612.135
0.272139	613.483
0.291365	614.831
0.312074	614.831
0.332777	617.528
0.354961	618.876
0.375666	620.225
0.396375	620.225
0.415605	620.225
0.436314	620.225
0.45554	621.573
0.476249	621.573
0.496957	621.573
0.517665	621.573
0.536896	621.573
0.557604	621.573
0.575355	621.573
0.597543	621.573
0.616775	620.225
0.637484	620.225
0.658193	620.225
0.677422	620.225
0.699614	618.876
0.718843	618.876
0.738073	618.876
0.760261	618.876
0.779493	617.528
0.798724	617.528
0.819436	616.18
0.840144	616.18
0.859377	614.831
0.880086	614.831
0.899318	613.483
0.920027	613.483
0.940736	613.483
0.961449	612.135
