Adsorption isotherm of Nitrogen on rht-MOF-pyr in pH 2.5 HCl (aq) 7 days RT
DOI: 10.1021/acs.chemmater.5b00084
Article source: Figure 9b
Adsorbate Nitrogen: InChIKey IJGRMHOSHXDMSA-UHFFFAOYSA-N
Kind: experiment
Temperature: 77 K
Tabular data in the source: 0
pressure (bar)	uptake (cm3(STP)/g)
5.3e-05	21.573
0.000106	43.1461
0.00015	60.6742
0.000196	79.5506
0.000246	99.7753
0.000296	120
0.001044	176.629
0.00109	157.753
0.001137	138.876
0.002237	292.584
0.002284	273.708
0.002333	253.483
0.00248	194.157
0.003627	328.989
0.00367	311.461
0.003863	233.258
0.003906	215.73
0.005063	346.517
0.007994	357.303
0.009454	365.393
0.012402	369.438
0.015347	374.831
0.018292	380.225
0.02272	384.27
0.025665	389.663
0.028613	393.708
0.033041	397.753
0.037469	401.798
0.040417	405.843
0.044845	409.888
0.04779	415.281
0.049259	419.326
0.053683	424.719
0.068415	448.989
0.078723	467.865
0.089001	498.876
0.093392	517.753
0.109593	546.067
0.1288	555.506
0.146537	560.899
0.174629	566.292
0.193848	570.337
0.21455	573.034
0.235255	574.382
0.255958	577.079
0.275184	578.427
0.295889	579.775
0.315116	581.124
0.3373	582.472
0.356526	583.82
0.377235	583.82
0.397941	585.169
0.417167	586.517
0.439354	586.517
0.460063	586.517
0.47781	587.865
0.498519	587.865
0.516266	589.213
0.536972	590.562
0.557684	589.213
0.578389	590.562
0.600578	590.562
0.619807	590.562
0.640512	591.91
0.658263	591.91
0.680451	591.91
0.699681	591.91
0.720389	591.91
0.739615	593.258
0.763282	593.258
0.781032	593.258
0.801741	593.258
0.82245	593.258
0.843159	593.258
0.863868	593.258
0.881618	593.258
0.903806	593.258
0.925994	593.258
0.943744	593.258
0.964453	593.258
