Adsorption isotherm of Nitrogen on rht-MOF-pyr in moisture 7 days RT
DOI: 10.1021/acs.chemmater.5b00084
Article source: Figure 9b
Adsorbate Nitrogen: InChIKey IJGRMHOSHXDMSA-UHFFFAOYSA-N
Kind: experiment
Temperature: 77 K
Tabular data in the source: 0
pressure (bar)	uptake (cm3(STP)/g)
5.3e-05	21.573
0.000106	43.1461
0.00015	60.6742
0.000196	79.5506
0.000246	99.7753
0.000296	120
0.001044	176.629
0.00109	157.753
0.001137	138.876
0.002237	292.584
0.002284	273.708
0.002333	253.483
0.00248	194.157
0.003567	353.258
0.003587	345.169
0.003627	328.989
0.00367	311.461
0.003863	233.258
0.003906	215.73
0.005029	360
0.006558	339.775
0.007974	365.393
0.007991	358.652
0.012399	370.787
0.015347	374.831
0.018296	378.876
0.024199	384.27
0.027147	388.315
0.030093	393.708
0.03452	397.753
0.037469	401.798
0.041893	407.191
0.044838	412.584
0.046307	416.629
0.050732	422.022
0.053677	427.416
0.068412	450.337
0.078717	470.562
0.089004	497.528
0.094871	517.753
0.109593	546.067
0.128793	558.202
0.149492	562.247
0.176111	564.944
0.193855	567.64
0.214557	570.337
0.235262	571.685
0.254492	571.685
0.27668	571.685
0.29443	571.685
0.312177	573.034
0.334361	574.382
0.355067	575.73
0.372821	574.382
0.395005	575.73
0.412755	575.73
0.434944	575.73
0.455652	575.73
0.474882	575.73
0.495594	574.382
0.514817	577.079
0.534054	574.382
0.556238	575.73
0.572513	574.382
0.591742	574.382
0.612451	574.382
0.633163	573.034
0.653875	571.685
0.677539	573.034
0.69233	573.034
0.71157	568.989
0.732279	568.989
0.752991	567.64
0.772227	564.944
0.792933	566.292
0.813642	566.292
0.829916	564.944
0.850621	566.292
0.869851	566.292
0.890557	567.64
0.912751	564.944
0.934942	563.596
0.955651	563.596
