Adsorption isotherm of Hydrogen on NU-301
DOI: 10.1039/C3ce40198g
Adsorbate Hydrogen: InChIKey UFHFLCQGNIYNRP-UHFFFAOYSA-N
Temperature: 87 K
Tabular data in the source: 0
pressure (bar)	uptake (mmol/g)
0.00944547	0.0330807
0.0165962	0.176095
0.0280373	0.340561
0.0580703	0.583686
0.115276	0.955523
0.211096	1.37026
0.25829	1.54903
0.3584	1.83506
0.461371	2.09249
0.531448	2.2498
0.610106	2.41427
0.713076	2.59304
0.75884	2.66454
0.813186	2.7718
0.907575	2.90767
0.937608	2.95057
