Adsorption isotherm of Hydrogen on NU-302
DOI: 10.1039/C3ce40198g
Adsorbate Hydrogen: InChIKey UFHFLCQGNIYNRP-UHFFFAOYSA-N
Temperature: 87 K
Tabular data in the source: 0
pressure (bar)	uptake (mmol/g)
0.0112524	0.0493491
0.0309707	0.1578
0.0577312	0.290898
0.161957	0.62611
0.229562	0.798645
0.315478	0.985969
0.411252	1.17822
0.505619	1.35569
0.557731	1.44442
0.656323	1.6071
0.733788	1.69583
0.807027	1.81414
0.907027	1.93738
0.938013	1.9916
