Adsorption isotherm of Hydrogen on NU-302
DOI: 10.1039/C3ce40198g
Adsorbate Hydrogen: InChIKey UFHFLCQGNIYNRP-UHFFFAOYSA-N
Temperature: 77 K
Tabular data in the source: 0
pressure (bar)	uptake (mmol/g)
0.00561856	0.147941
0.0281538	0.364842
0.0577312	0.616251
0.105619	0.902166
0.164773	1.18808
0.229562	1.44935
0.312661	1.71062
0.407027	1.98174
0.509844	2.19864
0.557731	2.29724
0.654914	2.47963
0.730971	2.62259
0.807027	2.72611
0.854914	2.80498
0.936604	2.92822
