Adsorption isotherm of Hydrogen on NU-301
DOI: 10.1039/C3ce40198g
Adsorbate Hydrogen: InChIKey UFHFLCQGNIYNRP-UHFFFAOYSA-N
Temperature: 77 K
Tabular data in the source: 0
pressure (bar)	uptake (mmol/g)
0.00658518	0.233301
0.015166	0.505028
0.0308976	0.848262
0.05521	1.27015
0.113846	1.82076
0.212526	2.43572
0.25686	2.67885
0.315496	2.90767
0.409885	3.2509
0.512856	3.54408
0.560051	3.67995
0.663021	3.93737
0.730238	4.07323
0.807465	4.2234
0.860381	4.32351
0.939038	4.45222
