Adsorption isotherm of Carbon Dioxide on Zeolite Na-Y
DOI: 10.1021/acs.iecr.6b03525
Article source: Figure 3a
Adsorbate Carbon Dioxide: InChIKey CURLTUGMZLYLDI-UHFFFAOYSA-N
Kind: experiment
Temperature: 298 K
Tabular data in the source: 0
pressure (bar)	uptake (mmol/g)
0.00912	0.00248
0.06992	0.90049
0.12397	1.4912
0.20997	2.24522
0.31571	2.69485
0.40347	3.02367
0.50313	3.26072
0.63063	3.43953
0.70035	3.54236
0.81589	3.68762
0.96525	3.80598
1.02693	3.86917
1.22266	4.05775
1.45093	4.14195
1.62153	4.23471
1.80969	4.3359
2.0154	4.43141
2.52463	4.59691
3.04636	4.70881
