Adsorption isotherm of Ethene on Zeolite Na-Y
DOI: 10.1021/acs.iecr.6b03525
Article source: Figure 3c
Adsorbate Ethene: InChIKey VGGSQFUCUMXWEO-UHFFFAOYSA-N
Kind: experiment
Temperature: 298 K
Tabular data in the source: 0
pressure (bar)	uptake (mmol/g)
0.00045	0.00017
0.05339	1.32505
0.10335	1.66248
0.20163	1.99383
0.30627	2.16723
0.40988	2.29893
0.51655	2.39355
0.61113	2.47425
0.70371	2.53826
0.81037	2.60505
0.90092	2.63288
1.01764	2.68296
1.23296	2.75809
1.41004	2.81374
1.6314	2.88609
1.83665	2.9306
2.01575	2.95285
2.51881	3.03909
3.042	3.11141
3.53098	3.16703
