Adsorption isotherm of Carbon Dioxide, Ethene on Zeolite Na-Y
DOI: 10.1021/acs.iecr.6b03525
Article source: Figure 5a
Adsorbate Carbon Dioxide: InChIKey CURLTUGMZLYLDI-UHFFFAOYSA-N
Adsorbate Ethene: InChIKey VGGSQFUCUMXWEO-UHFFFAOYSA-N
Kind: experiment
Temperature: 298 K
Tabular data in the source: 0
pressure (bar)	Carbon Dioxide fraction	Carbon Dioxide uptake (mmol/g)	Ethene fraction	Ethene uptake (mmol/g)	total uptake (mmol/g)
3.5	23.403	1.3595	10.074	0.4962	
3.5	57.819	2.1983	25.148	0.6943	
3.5	93.062	2.5744	40.237	0.8056	
3.5	128.029	2.7645	55.061	0.8671	
3.5	163.271	2.8967	69.887	0.9163	
3.5	198.238	2.9876	84.99	0.9572	
3.5	244.493	3.0785	105.586	1.002	
