Adsorption isotherm of Ethene on Zeolite Na-Y
DOI: 10.1021/acs.iecr.6b03525
Article source: Figure 4c
Adsorbate Ethene: InChIKey VGGSQFUCUMXWEO-UHFFFAOYSA-N
Kind: experiment
Temperature: 298 K
Tabular data in the source: 0
pressure (bar)	uptake (mmol/g)
0.00052	0.00085
0.26022	1.92695
0.47586	2.26155
0.90517	2.52411
1.33242	2.63631
1.7559	2.7764
2.18866	2.85333
2.61615	2.93026
3.0014	3.03308
