Adsorption isotherm of Carbon monoxide on Zeolite Na-Y
DOI: 10.1021/acs.iecr.6b03525
Article source: Figure 3b
Adsorbate Carbon monoxide: InChIKey UGFAIRIUMAVXCW-UHFFFAOYSA-N
Kind: experiment
Temperature: 303 K
Tabular data in the source: 0
pressure (bar)	uptake (mmol/g)
0.00566	0.00951
0.02732	0.1895
0.2002	0.4438
0.60145	0.95652
1.01467	1.47907
1.53239	1.97333
2.03269	2.47886
2.44163	2.88327
3.0247	3.29304
3.54254	3.59601
3.96894	3.92163
4.31272	4.11799
4.99596	4.44321
5.55733	4.75737
