Adsorption isotherm of Carbon Dioxide on Zeolite Na-Y
DOI: 10.1021/acs.iecr.6b03525
Article source: Figure 3a
Adsorbate Carbon Dioxide: InChIKey CURLTUGMZLYLDI-UHFFFAOYSA-N
Kind: experiment
Temperature: 283 K
Tabular data in the source: 0
pressure (bar)	uptake (mmol/g)
0.02471	1.0203
0.20133	3.03598
0.60822	4.13773
1.00971	4.52333
1.53404	4.78749
2.01317	4.95021
2.52737	5.03957
3.06917	5.1458
4.04156	5.23303
4.53727	5.29038
5.04093	5.34996
5.57842	5.36472
6.08007	5.37954
