Adsorption isotherm of Carbon Dioxide on Zeolite Na-Y
DOI: 10.1021/acs.iecr.6b03525
Article source: Figure 4a
Adsorbate Carbon Dioxide: InChIKey CURLTUGMZLYLDI-UHFFFAOYSA-N
Kind: experiment
Temperature: 298 K
Tabular data in the source: 0
pressure (bar)	uptake (mmol/g)
0.00431	0.00695
0.46922	2.9616
0.90922	3.57956
1.32817	3.87787
1.76186	4.06297
2.18292	4.16943
2.62082	4.26105
3.00398	4.33815
