Adsorption isotherm of Carbon monoxide on Zeolite Na-Y
DOI: 10.1021/acs.iecr.6b03525
Article source: Figure 3b
Adsorbate Carbon monoxide: InChIKey UGFAIRIUMAVXCW-UHFFFAOYSA-N
Kind: experiment
Temperature: 298 K
Tabular data in the source: 0
pressure (bar)	uptake (mmol/g)
0.01884	0.01316
0.03791	0.20274
0.21873	0.48066
0.30845	0.63026
0.40775	0.80819
0.52165	0.95704
0.61138	1.12881
0.73741	1.24917
0.83579	1.3986
0.92555	1.51232
1.04986	1.63715
1.22416	1.91595
1.42442	2.1456
1.61434	2.31944
1.82842	2.53343
2.0097	2.72069
2.53462	3.12172
3.02849	3.46253
