Adsorption isotherm of Carbon monoxide on Zeolite Na-Y
DOI: 10.1021/acs.iecr.6b03525
Article source: Figure 3b
Adsorbate Carbon monoxide: InChIKey UGFAIRIUMAVXCW-UHFFFAOYSA-N
Kind: experiment
Temperature: 283 K
Tabular data in the source: 0
pressure (bar)	uptake (mmol/g)
0.20404	0.55121
0.60782	1.28733
1.00476	1.92077
1.51457	2.6147
2.0757	3.30579
2.50206	3.70455
2.98936	4.10884
3.35925	4.31641
3.85088	4.75445
4.15113	4.93963
4.71689	5.18064
5.18687	5.44431
