Adsorption isotherm of Carbon monoxide on Zeolite Na-Y
DOI: 10.1021/acs.iecr.6b03525
Article source: Figure 4b
Adsorbate Carbon monoxide: InChIKey UGFAIRIUMAVXCW-UHFFFAOYSA-N
Kind: experiment
Temperature: 298 K
Tabular data in the source: 0
pressure (bar)	uptake (mmol/g)
0.00135	0.00128
0.47348	0.24695
0.90308	0.43534
1.32837	0.63749
1.75897	0.79825
2.18962	0.92239
2.60977	1.04016
3.00173	1.14935
