Adsorption isotherm of Carbon Dioxide, Ethene on Zeolite Na-Y
DOI: 10.1021/acs.iecr.6b03525
Article source: Figure 5b
Adsorbate Carbon Dioxide: InChIKey CURLTUGMZLYLDI-UHFFFAOYSA-N
Adsorbate Ethene: InChIKey VGGSQFUCUMXWEO-UHFFFAOYSA-N
Kind: experiment
Temperature: 298 K
Tabular data in the source: 0
pressure (bar)	Carbon Dioxide fraction	Carbon Dioxide uptake (mmol/g)	Ethene fraction	Ethene uptake (mmol/g)	total uptake (mmol/g)
3.5	0.185	0.00276	0.185	0.00276	
3.5	14.813	0.77951	14.99	0.75757	
3.5	30.388	1.26291	30.058	0.95036	
3.5	44.959	1.6074	45.009	1.10367	
3.5	59.721	1.82305	60.197	1.18239	
3.5	90.37	2.07674	90.693	1.29157	
3.5	120.087	2.21554	120.247	1.37884	
3.5	149.993	2.29166	150.155	1.42661	
3.5	175.226	2.36438	175.118	1.45692	
