Adsorption isotherm of Carbon Dioxide, Ethene on Zeolite Na-Y
DOI: 10.1021/acs.iecr.6b03525
Article source: Figure 5c
Adsorbate Carbon Dioxide: InChIKey CURLTUGMZLYLDI-UHFFFAOYSA-N
Adsorbate Ethene: InChIKey VGGSQFUCUMXWEO-UHFFFAOYSA-N
Kind: experiment
Temperature: 298 K
Tabular data in the source: 0
pressure (bar)	Carbon Dioxide fraction	Carbon Dioxide uptake (mmol/g)	Ethene fraction	Ethene uptake (mmol/g)	total uptake (mmol/g)
3.5	0.025	0.00074	0.025	0.00074	
3.5	6.467	0.35902	14.695	1.07515	
3.5	13.189	0.65528	32.474	1.40073	
3.5	28.988	1.0166	66.92	1.69304	
3.5	43.761	1.21146	102.311	1.83049	
3.5	58.352	1.34695	136.949	1.9225	
3.5	73.722	1.44213	172.05	1.98084	
3.5	88.518	1.51611	206.693	2.04255	
3.5	104.666	1.56462	244.24	2.0857	
