Adsorption isotherm of Carbon Dioxide on Zeolite Na-Y
DOI: 10.1021/acs.iecr.6b03525
Article source: Figure 4a
Adsorbate Carbon Dioxide: InChIKey CURLTUGMZLYLDI-UHFFFAOYSA-N
Kind: experiment
Temperature: 298 K
Tabular data in the source: 0
pressure (bar)	uptake (mmol/g)
0.00431	0.00695
0.06001	0.9356
0.10676	1.47925
0.20822	2.21016
0.31034	2.71794
0.40583	2.99644
0.51326	3.25319
0.60742	3.42943
0.71087	3.57154
0.81829	3.68885
0.91113	3.77832
1.0106	3.86158
1.22015	4.04663
1.42572	4.12324
1.62731	4.23705
1.83022	4.33226
2.02916	4.4027
2.53048	4.52455
3.04506	4.61535
