Adsorption isotherm of Carbon monoxide on Zeolite Na-Y
DOI: 10.1021/acs.iecr.6b03525
Article source: Figure 7b
Adsorbate Carbon monoxide: InChIKey UGFAIRIUMAVXCW-UHFFFAOYSA-N
Kind: experiment
Temperature: 298 K
Tabular data in the source: 0
pressure (bar)	uptake (mmol/g)
0	0
0.26176	0.11533
0.59307	0.21311
0.9456	0.31468
1.28729	0.40401
1.6269	0.46524
1.96872	0.5164
2.31055	0.56683
2.69373	0.62879
