Adsorption isotherm of Ethene on Zeolite Na-Y
DOI: 10.1021/acs.iecr.6b03525
Article source: Figure 3c
Adsorbate Ethene: InChIKey VGGSQFUCUMXWEO-UHFFFAOYSA-N
Kind: experiment
Temperature: 283 K
Tabular data in the source: 0
pressure (bar)	uptake (mmol/g)
0.04745	1.62051
0.09701	1.92757
0.21685	2.24125
0.30791	2.40029
0.40535	2.50632
0.48362	2.59246
0.57467	2.66977
0.73759	2.75812
0.78551	2.78905
0.9644	2.86635
1.26627	2.97677
1.40522	3.01432
1.61285	3.05848
1.83805	3.09381
2.01693	3.13576
2.38108	3.1777
2.89056	3.22847
3.28664	3.24169
