Adsorption isotherm of Ethene on Zeolite Na-Y
DOI: 10.1021/acs.iecr.6b03525
Article source: Figure 3c
Adsorbate Ethene: InChIKey VGGSQFUCUMXWEO-UHFFFAOYSA-N
Kind: experiment
Temperature: 303 K
Tabular data in the source: 0
pressure (bar)	uptake (mmol/g)
0.00405	0
0.05296	1.13673
0.09383	1.5113
0.2106	1.85641
0.31124	2.04844
0.40986	2.15977
0.52659	2.28778
0.63526	2.36014
0.72582	2.4158
0.8204	2.47145
0.97737	2.55494
1.04378	2.57441
1.2269	2.63563
1.41606	2.69963
1.61327	2.75806
1.83865	2.81092
2.20488	2.86099
2.62344	2.96115
3.2251	3.04181
3.58329	3.09188
