Adsorption isotherm of Carbon monoxide on Zeolite Na-Y
DOI: 10.1021/acs.iecr.6b03525
Article source: Figure 7b
Adsorbate Carbon monoxide: InChIKey UGFAIRIUMAVXCW-UHFFFAOYSA-N
Kind: experiment
Temperature: 298 K
Tabular data in the source: 0
pressure (bar)	uptake (mmol/g)
0.00241	0
0.34188	0.12635
0.68734	0.21955
1.02935	0.31046
1.36279	0.38135
1.71319	0.44189
2.05748	0.48819
2.39965	0.53289
