Adsorption isotherm of Ethene on Zeolite Na-Y
DOI: 10.1021/acs.iecr.6b03525
Article source: Figure 3c
Adsorbate Ethene: InChIKey VGGSQFUCUMXWEO-UHFFFAOYSA-N
Kind: experiment
Temperature: 293 K
Tabular data in the source: 0
pressure (bar)	uptake (mmol/g)
0.00045	0.00017
0.05701	1.49901
0.10018	1.76631
0.20564	2.06452
0.31108	2.27879
0.41331	2.37377
0.50915	2.45771
0.68646	2.59687
0.72479	2.62337
0.8957	2.7073
0.96278	2.72497
1.10972	2.79785
1.22951	2.81773
1.48665	2.89944
1.58568	2.93257
1.8013	2.98998
2.04885	3.01868
2.42578	3.08492
2.9704	3.15115
3.64439	3.20411
