Adsorption isotherm of Carbon Dioxide on Zeolite Na-Y
DOI: 10.1021/acs.iecr.6b03525
Article source: Figure 3a
Adsorbate Carbon Dioxide: InChIKey CURLTUGMZLYLDI-UHFFFAOYSA-N
Kind: experiment
Temperature: 303 K
Tabular data in the source: 0
pressure (bar)	uptake (mmol/g)
0.00912	0.00248
0.03947	0.48739
0.2107	1.77563
0.61023	3.1819
1.00427	3.71695
1.51863	4.09672
2.02788	4.31297
2.5371	4.47283
3.04232	4.61654
3.56062	4.74001
4.05046	4.83154
4.5561	4.90884
4.97638	4.92945
5.57046	4.9249
6.08239	4.96311
