Adsorption isotherm of Carbon Dioxide on Zeolite Na-Y
DOI: 10.1021/acs.iecr.6b03525
Article source: Figure 3a
Adsorbate Carbon Dioxide: InChIKey CURLTUGMZLYLDI-UHFFFAOYSA-N
Kind: experiment
Temperature: 293 K
Tabular data in the source: 0
pressure (bar)	uptake (mmol/g)
0.00912	0.00248
0.0121	0.72828
0.21006	2.4153
0.59493	3.69247
1.00525	4.16845
1.53136	4.46888
2.03811	4.68795
2.54481	4.8168
3.04146	4.91747
3.52805	4.9674
4.05981	5.068
4.55143	5.14048
5.06811	5.17909
5.5898	5.18949
6.08641	5.21121
