Adsorption isotherm of Carbon monoxide on Zeolite Na-Y
DOI: 10.1021/acs.iecr.6b03525
Article source: Figure 4b
Adsorbate Carbon monoxide: InChIKey UGFAIRIUMAVXCW-UHFFFAOYSA-N
Kind: experiment
Temperature: 298 K
Tabular data in the source: 0
pressure (bar)	uptake (mmol/g)
0.00262	0.00159
0.02684	0.06487
0.20206	0.15919
0.30312	0.21052
0.41138	0.27704
0.51227	0.32016
0.6148	0.3723
0.70906	0.42545
0.81491	0.47057
0.90918	0.50968
1.02166	0.54778
1.22343	0.64103
1.42358	0.70821
1.61875	0.7814
1.82553	0.84357
2.02237	0.90673
2.52527	1.04108
3.02157	1.15938
