Adsorption isotherm of Carbon Dioxide, Carbon monoxide on Zeolite Na-Y
DOI: 10.1021/acs.iecr.6b03525
Article source: Figure 7a
Adsorbate Carbon Dioxide: InChIKey CURLTUGMZLYLDI-UHFFFAOYSA-N
Adsorbate Carbon monoxide: InChIKey UGFAIRIUMAVXCW-UHFFFAOYSA-N
Kind: experiment
Temperature: 298 K
Tabular data in the source: 0
pressure (bar)	Carbon Dioxide fraction	Carbon Dioxide uptake (mmol/g)	Carbon monoxide fraction	Carbon monoxide uptake (mmol/g)	total uptake (mmol/g)
3	8.291	0.90479	34.2	0.11543	
3	16.945	1.36871	68.579	0.20137	
3	26.269	1.67913	102.252	0.28874	
3	33.818	1.88249	137.337	0.37751	
3	42.923	2.01087	171.35	0.42785	
3	51.14	2.12141	205.337	0.4738	
3	60.246	2.20696	239.767	0.51617	
