Adsorption isotherm of Carbon Dioxide, Carbon monoxide on Zeolite Na-Y
DOI: 10.1021/acs.iecr.6b03525
Article source: Figure 7a
Adsorbate Carbon Dioxide: InChIKey CURLTUGMZLYLDI-UHFFFAOYSA-N
Adsorbate Carbon monoxide: InChIKey UGFAIRIUMAVXCW-UHFFFAOYSA-N
Kind: experiment
Temperature: 298 K
Tabular data in the source: 0
pressure (bar)	Carbon Dioxide fraction	Carbon Dioxide uptake (mmol/g)	Carbon monoxide fraction	Carbon monoxide uptake (mmol/g)	total uptake (mmol/g)
3	0	0	0	0	
3	19.881	1.76801	29.411	0.05497	
3	37.247	2.32121	54.956	0.13673	
3	54.034	2.6223	81.389	0.20776	
3	71.942	2.81769	107.156	0.24311	
3	88.591	2.99511	133.59	0.28558	
3	106.081	3.09381	160.69	0.33162	
3	120.493	3.18581	180.904	0.3492	
