Adsorption isotherm of Carbon Dioxide, Carbon monoxide on Zeolite Na-Y
DOI: 10.1021/acs.iecr.6b03525
Article source: Figure 7a
Adsorbate Carbon Dioxide: InChIKey CURLTUGMZLYLDI-UHFFFAOYSA-N
Adsorbate Carbon monoxide: InChIKey UGFAIRIUMAVXCW-UHFFFAOYSA-N
Kind: experiment
Temperature: 298 K
Tabular data in the source: 0
pressure (bar)	Carbon Dioxide fraction	Carbon Dioxide uptake (mmol/g)	Carbon monoxide fraction	Carbon monoxide uptake (mmol/g)	total uptake (mmol/g)
3	0.143	0.00061	0.105	0.00112	
3	2.18	0.32345	25.561	0.09854	
3	6.025	0.63773	59.587	0.20574	
3	9.988	0.86615	94.847	0.30159	
3	13.545	1.04064	128.697	0.4003	
3	17.453	1.20093	163.253	0.45932	
3	21.356	1.33	196.751	0.5127	
3	25.434	1.44416	231.131	0.54907	
3	29.465	1.55052	270.198	0.61749	
