Adsorption isotherm of Ethene on Zeolite Na-Y
DOI: 10.1021/acs.iecr.6b03525
Article source: Figure 4c
Adsorbate Ethene: InChIKey VGGSQFUCUMXWEO-UHFFFAOYSA-N
Kind: experiment
Temperature: 298 K
Tabular data in the source: 0
pressure (bar)	uptake (mmol/g)
0.00052	0.00085
0.05684	1.34063
0.09369	1.6721
0.20179	1.99486
0.30466	2.17986
0.40227	2.29167
0.5078	2.39055
0.60277	2.49376
0.71359	2.54528
0.81649	2.60972
0.90357	2.64405
1.01175	2.67835
1.21756	2.7685
1.41283	2.83282
1.61865	2.88421
1.82183	2.93561
2.00655	2.96981
2.5132	3.05095
3.03569	3.11053
