Adsorption isotherm of Sulfur Hexafluoride on MIL-100(Fe)-granule
DOI: 10.1016/j.cej.2014.09.123
Article source: Figure 4a
Adsorbate Sulfur Hexafluoride: InChIKey SFZCNBIFKDRMGX-UHFFFAOYSA-N
Kind: experiment
Temperature: 298 K
Tabular data in the source: 0
pressure (bar)	uptake (mmol/g)
0	0
0.145924	0.276056
0.417102	0.729577
0.521274	0.946479
0.709009	1.26197
0.896743	1.57746
1.08442	1.91268
1.50193	2.50423
1.71075	2.78028
1.94047	3.07606
2.25417	3.33239
2.58877	3.60845
2.94446	3.84507
3.40497	4.08169
3.84469	4.25915
4.36815	4.47606
5.01751	4.65352
5.75067	4.8507
6.56787	4.98873
7.55284	5.10704
8.30702	5.28451
9.85797	5.42254
