Adsorption isotherm of Nitrogen on MIL-100(Fe)-granule
DOI: 10.1016/j.cej.2014.09.123
Article source: Figure 4b
Adsorbate Nitrogen: InChIKey IJGRMHOSHXDMSA-UHFFFAOYSA-N
Kind: experiment
Temperature: 313 K
Tabular data in the source: 0
pressure (bar)	uptake (mmol/g)
0	0.007042
0.545926	0.034827
0.986809	0.069728
1.51173	0.104569
1.74276	0.111449
2.26762	0.153333
2.58257	0.174238
2.96055	0.195098
3.40155	0.215914
3.86344	0.2508
4.43043	0.27857
5.06039	0.313338
5.81634	0.355059
6.65627	0.403763
7.62231	0.445336
8.35719	0.494115
9.89016	0.5705
