Adsorption isotherm of Nitrogen on Zeolite 13X
DOI: 10.1016/j.cej.2014.09.123
Article source: Figure 4d
Adsorbate Nitrogen: InChIKey IJGRMHOSHXDMSA-UHFFFAOYSA-N
Kind: experiment
Temperature: 298 K
Tabular data in the source: 0
pressure (bar)	uptake (mmol/g)
0	0
0.398085	0.127841
0.64947	0.213068
0.859017	0.276989
1.15236	0.369318
1.71821	0.53267
1.96978	0.596591
2.57783	0.738636
2.9133	0.816761
3.35376	0.901989
3.83618	0.994318
4.38157	1.09375
5.03193	1.20028
5.74532	1.30682
6.60565	1.42756
7.57096	1.5554
8.62037	1.67614
9.85891	1.78977
