Adsorption isotherm of Nitrogen on MIL-100(Fe)-granule
DOI: 10.1016/j.cej.2014.09.123
Article source: Figure 4b
Adsorbate Nitrogen: InChIKey IJGRMHOSHXDMSA-UHFFFAOYSA-N
Kind: experiment
Temperature: 298 K
Tabular data in the source: 0
pressure (bar)	uptake (mmol/g)
0	0.007042
0.440646	0.06307
0.755538	0.091017
1.00734	0.126051
1.1544	0.125948
1.34324	0.153984
1.51119	0.16795
1.7211	0.188929
1.97297	0.21692
2.26679	0.251925
2.58168	0.279872
2.95948	0.32186
3.3793	0.363817
3.86214	0.405731
4.40783	0.468727
5.03761	0.524621
5.77231	0.594527
6.591	0.671415
7.55674	0.748199
8.39637	0.832115
9.88685	0.964868
