Adsorption isotherm of Nitrogen on Zeolite 13X
DOI: 10.1016/j.cej.2014.09.123
Article source: Figure 4d
Adsorbate Nitrogen: InChIKey IJGRMHOSHXDMSA-UHFFFAOYSA-N
Kind: experiment
Temperature: 283 K
Tabular data in the source: 0
pressure (bar)	uptake (mmol/g)
0	0
0.252101	0.113314
0.336134	0.155807
0.462185	0.212465
0.609244	0.269122
0.693277	0.304533
0.777311	0.339943
0.903361	0.389518
1.02941	0.432011
1.17647	0.488669
1.32353	0.552408
1.51261	0.616147
1.7437	0.694051
1.9958	0.75779
2.26891	0.835694
2.60504	0.927762
2.98319	1.01983
3.42437	1.1119
3.90756	1.21105
4.47479	1.3102
5.10504	1.43059
5.86134	1.54391
6.7437	1.66431
7.73109	1.77762
8.82353	1.89802
9.89496	2.00425
