Adsorption isotherm of Nitrogen on Zeolite 13X
DOI: 10.1016/j.cej.2014.09.123
Article source: Figure 4d
Adsorbate Nitrogen: InChIKey IJGRMHOSHXDMSA-UHFFFAOYSA-N
Kind: experiment
Temperature: 313 K
Tabular data in the source: 0
pressure (bar)	uptake (mmol/g)
0	0
0.314589	0.063921
0.524255	0.113636
0.859673	0.198864
1.32102	0.298295
1.48885	0.326705
2.2439	0.475852
2.5376	0.525568
2.95723	0.589489
3.85946	0.724432
4.42597	0.809659
5.07663	0.880682
5.7902	0.965909
6.62976	1.05824
7.61644	1.14347
8.66609	1.2358
9.86279	1.32812
