Adsorption isotherm of Sulfur Hexafluoride on MIL-100(Fe)-granule
DOI: 10.1016/j.cej.2014.09.123
Article source: Figure 4a
Adsorbate Sulfur Hexafluoride: InChIKey SFZCNBIFKDRMGX-UHFFFAOYSA-N
Kind: experiment
Temperature: 313 K
Tabular data in the source: 0
pressure (bar)	uptake (mmol/g)
0	0
0.166947	0.256338
0.355095	0.433803
0.814657	0.985915
0.919066	1.12394
1.04444	1.26197
1.14897	1.36056
1.48315	1.77465
1.71317	1.97183
1.96398	2.22817
2.25677	2.46479
2.57053	2.70141
2.94712	2.95775
3.3657	3.19437
3.84728	3.39155
4.39165	3.62817
5.06204	3.78592
5.75327	3.9831
6.59137	4.14085
7.53441	4.25915
8.33076	4.35775
9.86087	4.45634
