Adsorption isotherm of Sulfur Hexafluoride on MIL-100(Fe)-granule
DOI: 10.1016/j.cej.2014.09.123
Article source: Figure 4a
Adsorbate Sulfur Hexafluoride: InChIKey SFZCNBIFKDRMGX-UHFFFAOYSA-N
Kind: experiment
Temperature: 283 K
Tabular data in the source: 0
pressure (bar)	uptake (mmol/g)
0	0
0.14551	0.414085
0.187026	0.552113
0.270411	0.709859
0.353737	0.887324
0.416216	1.02535
0.478519	1.22254
0.54094	1.38028
0.603242	1.57746
0.707473	1.77465
0.769776	1.97183
0.894735	2.24789
0.977884	2.48451
1.08223	2.64225
1.1446	2.81972
1.31154	3.07606
1.49928	3.39155
1.72912	3.64789
1.97986	3.92394
2.23061	4.2
2.56533	4.43662
2.92101	4.67324
3.38158	4.89014
3.84221	5.08732
4.40777	5.24507
5.03611	5.44225
5.74843	5.6
6.58665	5.71831
7.52957	5.87606
8.28405	5.95493
9.835	6.09296
