Adsorption isotherm of Nitrogen on MIL-100(Fe)-granule
DOI: 10.1016/j.cej.2014.09.123
Article source: Figure 4b
Adsorbate Nitrogen: InChIKey IJGRMHOSHXDMSA-UHFFFAOYSA-N
Kind: experiment
Temperature: 283 K
Tabular data in the source: 0
pressure (bar)	uptake (mmol/g)
0	0.007062
0.272695	0.049242
0.37756	0.070355
0.482365	0.098529
0.650315	0.112535
0.755239	0.126585
0.90218	0.140606
1.02805	0.161703
1.17493	0.182786
1.34277	0.210916
1.55273	0.224892
1.74151	0.26007
1.99332	0.295202
2.26613	0.330321
2.5809	0.372471
2.97959	0.428687
3.39935	0.477825
3.90302	0.541029
4.46959	0.618312
5.0992	0.695551
5.83378	0.779778
6.69436	0.870979
7.70182	0.983261
8.41534	1.07457
9.88463	1.2289
