Adsorption isotherm of Sulfur Hexafluoride on Zeolite 13X
DOI: 10.1016/j.cej.2014.09.123
Article source: Figure 4c
Adsorbate Sulfur Hexafluoride: InChIKey SFZCNBIFKDRMGX-UHFFFAOYSA-N
Kind: experiment
Temperature: 313 K
Tabular data in the source: 0
pressure (bar)	uptake (mmol/g)
0	0
0	0.019886
0.043513	0.4375
0.065269	0.65625
0.107943	0.815341
0.150616	0.974432
0.19347	1.19318
0.341928	1.4517
0.532161	1.57102
0.659103	1.69034
0.806902	1.73011
0.849156	1.75
0.975798	1.76989
1.12366	1.82955
1.29255	1.86932
1.46139	1.8892
1.71467	1.92898
1.9468	1.94886
2.24228	1.98864
2.5588	2.00852
2.93866	2.0483
3.36066	2.06818
3.84596	2.08807
4.41564	2.10795
5.02745	2.10795
5.76591	2.12784
6.63083	2.10795
7.62245	2.12784
8.67736	2.14773
9.90099	2.14773
