Adsorption isotherm of Sulfur Hexafluoride on Zeolite 13X
DOI: 10.1016/j.cej.2014.09.123
Article source: Figure 4c
Adsorbate Sulfur Hexafluoride: InChIKey SFZCNBIFKDRMGX-UHFFFAOYSA-N
Kind: experiment
Temperature: 283 K
Tabular data in the source: 0
pressure (bar)	uptake (mmol/g)
0	0
0	0.019886
0.001558	0.517045
0.023794	0.894886
0.045431	1.07386
0.067007	1.23295
0.067367	1.35227
0.10998	1.49148
0.173691	1.63068
0.258499	1.76989
0.364284	1.86932
0.470009	1.94886
0.575614	1.98864
0.702376	2.0483
0.829138	2.10795
0.934683	2.12784
1.12468	2.16761
1.29357	2.20739
1.5046	2.22727
1.71563	2.24716
1.96898	2.30682
2.2433	2.3267
2.55987	2.36648
2.9609	2.42614
3.38284	2.42614
3.86819	2.46591
4.43787	2.4858
5.04981	2.52557
5.78832	2.56534
6.61111	2.56534
7.58169	2.60511
8.63666	2.64489
9.90255	2.66477
