Adsorption isotherm of Nitrogen on MIL-100(Fe)-powder
DOI: 10.1016/j.cej.2014.09.123
Article source: Figure 3
Adsorbate Nitrogen: InChIKey IJGRMHOSHXDMSA-UHFFFAOYSA-N
Kind: experiment
Temperature: 77 K
Tabular data in the source: 0
pressure (bar)	uptake (cm3(STP)/g)
0	0
0.002102	165.164
0.004204	204.486
0.006307	251.673
0.010511	281.159
0.016817	292.945
0.023124	304.73
0.02943	316.516
0.035737	330.268
0.044146	345.982
0.054657	375.456
0.071474	393.12
0.088291	412.75
0.113517	436.297
0.153459	469.646
0.201809	485.283
0.210218	485.266
0.229137	485.229
0.258568	491.071
0.266976	493.021
0.287998	496.913
0.325838	500.772
0.359473	502.673
0.384699	504.591
0.401517	506.524
0.458275	512.313
0.489807	516.184
0.508727	520.08
0.573895	525.853
0.620142	527.729
0.628551	533.612
0.716843	541.306
0.792522	543.125
0.798828	550.978
0.891324	562.596
0.899733	568.479
1.00274	678.391
