Adsorption isotherm of Sulfur Hexafluoride on Zeolite 13X
DOI: 10.1016/j.cej.2014.09.123
Article source: Figure 4c
Adsorbate Sulfur Hexafluoride: InChIKey SFZCNBIFKDRMGX-UHFFFAOYSA-N
Kind: experiment
Temperature: 298 K
Tabular data in the source: 0
pressure (bar)	uptake (mmol/g)
0	0
0	0.019886
0.002697	0.894886
0.067127	1.27273
0.151875	1.39205
0.236862	1.59091
0.300393	1.67045
0.342707	1.71023
0.406178	1.76989
0.511903	1.84943
0.659822	1.92898
0.849755	1.94886
0.997555	1.98864
1.14541	2.0483
1.33541	2.08807
1.48309	2.08807
1.69418	2.12784
1.96862	2.1875
2.243	2.22727
2.55946	2.22727
3.00249	2.22727
3.42455	2.26705
3.84661	2.30682
4.4163	2.3267
5.04933	2.36648
5.76663	2.36648
6.61051	2.36648
7.58109	2.40625
8.6782	2.42614
9.88079	2.44602
