Adsorption isotherm of Nitrogen on MIL-100(Fe)-granule
DOI: 10.1016/j.cej.2014.09.123
Article source: Figure 3
Adsorbate Nitrogen: InChIKey IJGRMHOSHXDMSA-UHFFFAOYSA-N
Kind: experiment
Temperature: 77 K
Tabular data in the source: 0
pressure (bar)	uptake (cm3(STP)/g)
0	0
0.002102	165.164
0.006307	220.212
0.008409	259.534
0.016817	269.349
0.021022	283.105
0.033635	296.845
0.044146	310.588
0.054657	326.298
0.073576	347.891
0.092496	363.585
0.113517	381.24
0.142948	402.812
0.201809	410.563
0.216524	412.501
0.227035	414.447
0.256466	414.39
0.266976	416.336
0.287998	416.295
0.323735	420.158
0.361574	424.017
0.384699	425.939
0.401517	425.906
0.458275	429.729
0.489807	431.634
0.510829	431.593
0.573895	435.403
0.624347	437.272
0.708434	443.007
0.792522	448.743
0.901834	460.329
0.950184	475.965
0.958593	509.376
1.00484	603.668
