Adsorption isotherm of Carbon Dioxide on SAPO-34 zeolite
DOI: 10.1080/01496395.2013.812118
Article source: Figure 2
Adsorbate Carbon Dioxide: InChIKey CURLTUGMZLYLDI-UHFFFAOYSA-N
Kind: experiment
Temperature: 298 K
Tabular data in the source: 0
pressure (bar)	uptake (mmol/g)
0	-0.008876
0.949193	2.04118
3.23349	3.25658
5.54662	3.63765
10.3384	4.05359
15.464	4.25643
20.4553	4.41493
25.4799	4.53792
30.5376	4.59876
