Adsorption isotherm of Methane on SAPO-34 zeolite
DOI: 10.1080/01496395.2013.812118
Article source: Figure 3
Adsorbate Methane: InChIKey VNWKTOKETHGBQD-UHFFFAOYSA-N
Kind: experiment
Temperature: 288 K
Tabular data in the source: 0
pressure (bar)	uptake (mmol/g)
0	0
1.45146	0.593935
3.48549	1.06973
5.58651	1.41846
10.4031	1.82535
15.4586	2.10966
20.4439	2.29418
25.4976	2.44692
30.4815	2.53161
