Adsorption isotherm of Carbon Dioxide on SAPO-34 zeolite
DOI: 10.1080/01496395.2013.812118
Article source: Figure 2
Adsorbate Carbon Dioxide: InChIKey CURLTUGMZLYLDI-UHFFFAOYSA-N
Kind: experiment
Temperature: 288 K
Tabular data in the source: 0
pressure (bar)	uptake (mmol/g)
0	-0.008876
0.850697	2.39623
3.26867	3.55834
5.54865	4.00155
10.407	4.3376
15.4652	4.4872
20.4899	4.62794
25.615	4.7509
30.5057	4.8828
