Adsorption isotherm of Methane on SAPO-34
DOI: 10.1080/01496395.2013.812118
Article source: Figure 4
Adsorbate Methane: InChIKey VNWKTOKETHGBQD-UHFFFAOYSA-N
Kind: experiment
Temperature: 298 K
Tabular data in the source: 0
pressure (bar)	uptake (mmol/g)
0	0
0.831749	2.06618
3.02757	3.27206
5.423	3.72059
10.1806	4.125
15.3042	4.30882
20.3945	4.46324
25.2852	4.58088
30.3089	4.63971
