Adsorption isotherm of Carbon Dioxide on Pure mullite
DOI: 10.1080/01496395.2013.812118
Article source: Figure 5
Adsorbate Carbon Dioxide: InChIKey CURLTUGMZLYLDI-UHFFFAOYSA-N
Kind: experiment
Temperature: 298 K
Tabular data in the source: 0
pressure (bar)	uptake (mmol/g)
0	0
1.50171	0.026435
3.54949	0.026435
5.42662	0.033988
10.2048	0.045317
15.1195	0.067976
20.1706	0.086858
25.1877	0.086858
30.1365	0.109517
