Adsorption isotherm of Carbon Dioxide on SAPO-34 zeolite
DOI: 10.1080/01496395.2013.812118
Article source: Figure 2
Adsorbate Carbon Dioxide: InChIKey CURLTUGMZLYLDI-UHFFFAOYSA-N
Kind: experiment
Temperature: 278 K
Tabular data in the source: 0
pressure (bar)	uptake (mmol/g)
0	-0.008876
0.718906	2.7868
3.23765	4.00214
5.61717	4.27668
10.5089	4.58609
15.5002	4.75347
20.4584	4.9741
25.4497	5.12372
30.5416	5.3177
