Adsorption isotherm of Methane on SAPO-34 zeolite
DOI: 10.1080/01496395.2013.812118
Article source: Figure 3
Adsorbate Methane: InChIKey VNWKTOKETHGBQD-UHFFFAOYSA-N
Kind: experiment
Temperature: 278 K
Tabular data in the source: 0
pressure (bar)	uptake (mmol/g)
0	0
1.48701	0.680131
3.55603	1.20128
5.65717	1.55909
10.4395	1.97053
15.4606	2.25939
20.5148	2.44842
25.5684	2.60116
30.5864	2.65862
