Adsorption isotherm of Methane on SAPO-34 zeolite
DOI: 10.1080/01496395.2013.812118
Article source: Figure 3
Adsorbate Methane: InChIKey VNWKTOKETHGBQD-UHFFFAOYSA-N
Kind: experiment
Temperature: 298 K
Tabular data in the source: 0
pressure (bar)	uptake (mmol/g)
0	0
1.51745	0.394278
3.51711	0.87008
5.61744	1.1689
10.3995	1.56219
15.4551	1.86012
20.4412	2.09454
25.5294	2.26088
30.5135	2.35465
