Adsorption isotherm of Methane on Pure mullite
DOI: 10.1080/01496395.2013.812118
Article source: Figure 4
Adsorbate Methane: InChIKey VNWKTOKETHGBQD-UHFFFAOYSA-N
Kind: experiment
Temperature: 298 K
Tabular data in the source: 0
pressure (bar)	uptake (mmol/g)
0	0
1.43061	0.036765
3.39354	0.036765
5.48954	0.066176
10.1141	0.102941
15.0713	0.125
20.0951	0.132353
25.1521	0.161765
30.0428	0.161765
