Adsorption isotherm of Carbon Dioxide on SAPO-34
DOI: 10.1080/01496395.2013.812118
Article source: Figure 5
Adsorbate Carbon Dioxide: InChIKey CURLTUGMZLYLDI-UHFFFAOYSA-N
Kind: experiment
Temperature: 298 K
Tabular data in the source: 0
pressure (bar)	uptake (mmol/g)
0	0
1.53584	0.407855
3.4471	0.86858
5.56314	1.15559
10.3754	1.59366
15.3242	1.89955
20.3754	2.10725
25.3925	2.29985
30.4437	2.39804
