Adsorption isotherm of Carbon Dioxide on Zeolite 13X
DOI: 10.1021/acs.langmuir.7b02686
Article source: Figure 8
Adsorbate Carbon Dioxide: InChIKey CURLTUGMZLYLDI-UHFFFAOYSA-N
Kind: experiment
Temperature: 318 K
Tabular data in the source: 0
pressure (bar)	uptake (mmol/g)
0.0073	0.343
0.0414	1.0865
0.0778	2.0596
0.0803	2.6417
0.1654	3.6831
0.3114	4.0851
0.613	4.5523
0.9973	4.8891
1.4911	5.1282
1.9825	5.2942
2.8095	5.4557
3.7825	5.614
4.9793	5.7335
7.0153	5.8685
9.9976	6.0035
