Adsorption isotherm of Nitrogen on Zeolite 13X
DOI: 10.1021/acs.langmuir.7b02686
Article source: Figure 9
Adsorbate Nitrogen: InChIKey IJGRMHOSHXDMSA-UHFFFAOYSA-N
Kind: experiment
Temperature: 413 K
Tabular data in the source: 0
pressure (bar)	uptake (mmol/g)
0.0563	0.0172
0.5672	0.02671
0.9682	0.04674
1.4718	0.07567
2.4938	0.12519
3.9851	0.20086
5.9972	0.29381
10.0043	0.46307
