Adsorption isotherm of Water on Zeolite 13X
DOI: 10.1021/acs.langmuir.7b02686
Article source: Figure 10
Adsorbate Water: InChIKey XLYOFNOQVPJJNP-UHFFFAOYSA-N
Kind: experiment
Temperature: 313 K
Tabular data in the source: 0
pressure (bar)	uptake (mmol/g)
1.9e-05	0.605
4.5e-05	5.361
5.7e-05	1.9121
6e-05	3.6211
0.000248	9.6798
0.000261	7.2775
0.000264	8.695
0.000515	10.3024
0.000569	10.5939
0.001137	11.371
0.002292	12.2409
0.002771	12.5014
0.003321	12.7662
0.004244	13.0973
0.005007	13.2783
0.005894	13.5034
0.006586	13.6712
0.007331	13.7991
0.011092	14.2712
0.014479	14.4873
0.01831	14.7739
0.022443	15.0605
0.026132	15.2323
0.029874	15.3997
0.033102	15.5539
0.036791	15.6992
0.040392	15.8224
0.044347	15.9324
0.047911	16.0954
0.051671	16.2319
0.055343	16.3772
0.05889	16.5225
0.063022	16.6722
0.066569	16.875
0.067084	16.9544
0.067864	16.9941
0.06907	17.0822
0.069532	17.2191
0.070259	17.4133
