Adsorption isotherm of Nitrogen on Zeolite 13X
DOI: 10.1021/acs.langmuir.7b02686
Article source: Figure 9
Adsorbate Nitrogen: InChIKey IJGRMHOSHXDMSA-UHFFFAOYSA-N
Kind: experiment
Temperature: 298 K
Tabular data in the source: 0
pressure (bar)	uptake (mmol/g)
0.0881	0.01828
0.1961	0.08363
0.3334	0.14455
0.5688	0.24147
0.9462	0.37716
1.4827	0.53888
2.4234	0.80693
3.9883	1.17191
6.1009	1.52193
10.024	2.00432
