Adsorption isotherm of Carbon Dioxide on Zeolite 13X
DOI: 10.1021/acs.langmuir.7b02686
Article source: Figure 8
Adsorbate Carbon Dioxide: InChIKey CURLTUGMZLYLDI-UHFFFAOYSA-N
Kind: experiment
Temperature: 413 K
Tabular data in the source: 0
pressure (bar)	uptake (mmol/g)
0.0219	0.3353
0.0966	0.5689
0.2047	0.9459
0.3939	1.4165
0.6024	1.7639
1.0349	2.2098
1.5755	2.5892
2.6103	3.0623
4.0892	3.5082
5.9735	3.8606
9.916	4.2868
