Adsorption isotherm of Ethane on MSC5A
DOI: 10.1021/acs.langmuir.7b02686
Article source: Figure 6
Adsorbate Ethane: InChIKey OTMSDBZUPAUEDD-UHFFFAOYSA-N
Kind: experiment
Temperature: 323 K
Tabular data in the source: 0
pressure (bar)	uptake (mmol/g)
0.00509	0.1511
0.01793	0.3704
0.04074	0.6168
0.06157	0.7732
0.09991	0.9647
0.13537	1.0727
0.18812	1.2118
0.27013	1.3927
0.406	1.5543
0.54853	1.6842
0.73496	1.7703
0.89633	1.9022
