Adsorption isotherm of Nitrogen on Zeolite 13X
DOI: 10.1021/acs.langmuir.7b02686
Article source: Figure 9
Adsorbate Nitrogen: InChIKey IJGRMHOSHXDMSA-UHFFFAOYSA-N
Kind: experiment
Temperature: 373 K
Tabular data in the source: 0
pressure (bar)	uptake (mmol/g)
0.0563	0.0172
0.3497	0.04886
0.9292	0.09221
1.4574	0.13389
2.4697	0.21669
3.9979	0.34228
5.9931	0.48846
9.9125	0.74089
