Adsorption isotherm of Methane on MSC5A
DOI: 10.1021/acs.langmuir.7b02686
Article source: Figure 3
Adsorbate Methane: InChIKey VNWKTOKETHGBQD-UHFFFAOYSA-N
Kind: experiment
Temperature: 303 K
Tabular data in the source: 0
pressure (bar)	uptake (mmol/g)
0.0257	0.03458
0.06425	0.10264
0.14977	0.23055
0.25856	0.37974
0.38885	0.50388
0.5413	0.64243
0.69665	0.73576
0.83071	0.84239
