Adsorption isotherm of Ethane on MSC5A
DOI: 10.1021/acs.langmuir.7b02686
Article source: Figure 4
Adsorbate Ethane: InChIKey OTMSDBZUPAUEDD-UHFFFAOYSA-N
Kind: experiment
Temperature: 303 K
Tabular data in the source: 0
pressure (bar)	uptake (mmol/g)
0.01161	0.5642
0.02894	0.8543
0.05425	1.0726
0.09463	1.3094
0.14919	1.4905
0.20995	1.6475
0.2778	1.7434
0.36073	1.8645
0.44985	1.9338
0.58642	2.0277
0.83095	2.1323
