Adsorption isotherm of N-propane on MSC5A
DOI: 10.1021/acs.langmuir.7b02686
Article source: Figure 5
Adsorbate N-propane: InChIKey ATUOYWHBWRKTHZ-UHFFFAOYSA-N
Kind: experiment
Temperature: 303 K
Tabular data in the source: 0
pressure (bar)	uptake (mmol/g)
-4e-05	0.4182
0.001	0.5543
0.00812	0.9488
0.01475	1.24
0.03777	1.4675
0.07718	1.6158
0.13387	1.7249
0.23818	1.8062
0.393	1.8629
0.5786	1.903
0.84238	1.9612
