Adsorption isotherm of Carbon Dioxide on Zeolite 13X
DOI: 10.1021/acs.langmuir.7b02686
Article source: Figure 8
Adsorbate Carbon Dioxide: InChIKey CURLTUGMZLYLDI-UHFFFAOYSA-N
Kind: experiment
Temperature: 378 K
Tabular data in the source: 0
pressure (bar)	uptake (mmol/g)
0.0219	0.3353
0.1095	1.0803
0.1387	1.5723
0.1995	2.0395
0.36	2.4865
0.6154	2.9071
1.0144	3.3417
1.5398	3.7064
2.5152	4.1534
3.9771	4.512
6.0885	4.8146
9.9124	5.1173
