Adsorption isotherm of Carbon Dioxide on Zeolite 13X
DOI: 10.1021/acs.langmuir.7b02686
Article source: Figure 8
Adsorbate Carbon Dioxide: InChIKey CURLTUGMZLYLDI-UHFFFAOYSA-N
Kind: experiment
Temperature: 298 K
Tabular data in the source: 0
pressure (bar)	uptake (mmol/g)
0.0049	1.6018
0.0073	0.329
0.0219	2.0907
0.0243	1.0772
0.0414	2.7255
0.0438	3.3262
0.09	3.8415
0.1362	4.3381
0.2627	4.588
0.4622	4.9279
0.7127	5.1856
0.9803	5.3827
1.5009	5.5736
1.9801	5.7149
2.7755	5.8778
3.7728	6.0268
4.9623	6.1355
7.0202	6.2752
9.9878	6.39
