Adsorption isotherm of Carbon Dioxide on Zeolite 13X
DOI: 10.1021/acs.langmuir.7b02686
Article source: Figure 8
Adsorbate Carbon Dioxide: InChIKey CURLTUGMZLYLDI-UHFFFAOYSA-N
Kind: experiment
Temperature: 338 K
Tabular data in the source: 0
pressure (bar)	uptake (mmol/g)
0.0219	0.3353
0.0695	1.0838
0.112	1.5889
0.1352	2.0718
0.1892	2.5252
0.2472	3.1116
0.4209	3.5821
0.5985	3.9246
1.0078	4.3065
1.506	4.6096
2.5099	4.9397
3.9927	5.2132
5.9813	5.4473
10.0048	5.6616
