Adsorption isotherm of Ethane on MSC5A
DOI: 10.1021/acs.langmuir.7b02686
Article source: Figure 6
Adsorbate Ethane: InChIKey OTMSDBZUPAUEDD-UHFFFAOYSA-N
Kind: experiment
Temperature: 279 K
Tabular data in the source: 0
pressure (bar)	uptake (mmol/g)
0.00487	0.1524
0.00639	0.5758
0.00858	0.8759
0.02584	1.2953
0.0635	1.6232
0.10317	1.8187
0.15525	1.9744
0.2366	2.1506
0.37447	2.2864
0.50104	2.3679
0.66974	2.4614
0.83821	2.5415
