Adsorption isotherm of Nitrogen on Zeolite 13X
DOI: 10.1021/acs.langmuir.7b02686
Article source: Figure 9
Adsorbate Nitrogen: InChIKey IJGRMHOSHXDMSA-UHFFFAOYSA-N
Kind: experiment
Temperature: 338 K
Tabular data in the source: 0
pressure (bar)	uptake (mmol/g)
0.0563	0.0172
0.3621	0.07936
0.9711	0.16598
1.4773	0.23982
2.4777	0.38917
3.994	0.58906
6.014	0.81733
10.0095	1.17569
