Adsorption isotherm of Nitrogen on Zeolite 13X
DOI: 10.1021/acs.langmuir.7b02686
Article source: Figure 9
Adsorbate Nitrogen: InChIKey IJGRMHOSHXDMSA-UHFFFAOYSA-N
Kind: experiment
Temperature: 318 K
Tabular data in the source: 0
pressure (bar)	uptake (mmol/g)
0.0881	0.01828
0.2646	0.07588
0.5193	0.15064
0.9454	0.24147
1.4401	0.35058
2.4904	0.55826
3.9936	0.8241
6.008	1.10988
10.0237	1.54242
