Adsorption isotherm of Argon on ZIF-8
DOI: 10.1039/C1jm13343h
Adsorbate Argon: InChIKey XKRFYHLGVUSROY-UHFFFAOYSA-N
Temperature: 87 K
Tabular data in the source: 0
pressure (bar)	uptake (cm3(STP)/g)
0.000412654	20.3336
0.000694554	36.0752
0.000909214	53.4432
0.00103097	72.419
0.00116903	89.8116
0.00125608	110.38
0.0013496	126.199
0.00153033	161.005
0.00164428	178.407
0.00179873	195.806
0.0020033	214.785
0.00223119	230.598
0.00231274	248.006
0.00248494	265.408
0.00281771	284.383
0.0039632	301.739
0.00465818	301.711
0.00557438	303.263
0.00655188	306.402
0.00812711	309.531
0.00938245	311.09
0.0112276	312.642
0.0134356	314.194
0.0163692	314.16
0.0188976	315.718
0.0226139	318.854
0.0270618	318.823
0.0367203	321.937
0.0472135	323.477
0.0585647	323.44
0.0739599	324.983
0.0853839	326.541
0.122271	329.646
0.175093	334.333
0.198541	335.895
0.221123	337.459
0.284311	338.999
0.328225	345.307
0.392776	354.775
0.414512	367.43
0.437451	391.168
0.445375	403.83
0.453444	419.658
0.470022	440.232
0.542621	451.289
0.63778	454.428
0.791114	465.472
0.897057	479.699
0.913308	498.693
