Adsorption isotherm of Argon on Alane@ZIF-8
DOI: 10.1039/C1jm13343h
Adsorbate Argon: InChIKey XKRFYHLGVUSROY-UHFFFAOYSA-N
Temperature: 87 K
Tabular data in the source: 0
pressure (bar)	uptake (cm3(STP)/g)
0.000109291	14.2295
0.000168161	20.4879
0.000236525	25.1786
0.000298701	31.4709
0.000370515	34.6001
0.000451415	39.3155
0.000511866	44.0433
0.000601625	50.3479
0.000707141	61.402
0.000816368	72.4591
0.000925691	80.353
0.00101264	91.4194
0.00110774	102.486
0.00123375	116.715
0.00132558	129.368
0.00155807	149.921
0.00170442	160.987
0.00189826	173.633
0.00211415	181.53
0.00271836	202.068
0.00331189	214.699
0.00449393	220.979
0.00679151	231.989
0.00921544	235.103
0.0118489	236.643
0.0146976	238.189
0.0179067	241.321
0.0214282	242.874
0.0290761	244.404
0.0394545	249.101
0.0525831	249.052
0.0726451	253.746
0.0901086	253.709
0.120095	255.242
0.162959	259.939
0.191538	259.911
0.300045	267.75
0.37218	272.462
0.437451	274.017
0.487206	281.915
0.523483	302.483
0.583022	315.129
0.736292	326.171
0.881095	340.388
0.946699	370.455
