Adsorption isotherm of Oxygen on [Cd2(pda)(spiro-4-py) (CH3COO)2]Â·DMA
DOI: 10.1021/acs.inorgchem.6b02332
Article source: Figure  4d
Adsorbate Oxygen: InChIKey MYMOFIZGZYHOMD-UHFFFAOYSA-N
Kind: experiment
Temperature: 298 K
Tabular data in the source: 0
pressure (bar)	uptake (mmol/g)
0.00298	0.00448
0.01269	0.00624
0.02357	0.00591
0.04494	0.00734
0.0531	0.00605
0.09675	0.00779
0.10492	0.00666
0.14624	0.00712
0.15284	0.00775
0.19727	0.00949
0.2018	0.00948
0.25258	0.01089
0.2961	0.01183
0.30362	0.01214
0.3531	0.01355
0.3974	0.0148
0.40219	0.01624
0.4518	0.01733
0.49713	0.01891
0.50232	0.0181
0.55218	0.02015
0.59778	0.0214
0.60218	0.02076
0.65244	0.02233
0.69894	0.02422
0.70166	0.0247
0.7536	0.02499
0.79972	0.02752
0.80503	0.02816
0.85347	0.02781
0.89738	0.03115
0.90347	0.0313
0.9523	0.03239
0.97665	0.03286
0.99764	0.033
