Adsorption isotherm of Nitrogen on [Cd(pda)0.5(spiro-4-py)0.5(HCOO)]·2H2O·DMF
DOI: 10.1021/acs.inorgchem.6b02332
Article source: Figure  4c
Adsorbate Nitrogen: InChIKey IJGRMHOSHXDMSA-UHFFFAOYSA-N
Kind: experiment
Temperature: 298 K
Tabular data in the source: 0
pressure (bar)	uptake (mmol/g)
0.01303	0.01139
0.02438	0.01226
0.04889	0.01488
0.10092	0.01341
0.15086	0.01836
0.19923	0.02389
0.20705	0.02652
0.25347	0.03351
0.29819	0.04372
0.30784	0.0408
0.35452	0.0513
0.39872	0.05655
0.40681	0.05654
0.45387	0.06266
0.49886	0.06937
0.50499	0.06966
0.55467	0.0711
0.59861	0.07547
0.60539	0.07752
0.65402	0.07925
0.6981	0.08129
0.70566	0.08566
0.75482	0.08302
0.79772	0.08535
0.80515	0.08534
0.85457	0.08796
0.89903	0.08882
0.90438	0.08853
0.95497	0.09085
0.97975	0.08851
1.00009	0.08938
