Adsorption isotherm of Nitrogen on [Cd2(pda)(spiro-4-py) (CH3COO)2]Â·DMA
DOI: 10.1021/acs.inorgchem.6b02332
Article source: Figure  4d
Adsorbate Nitrogen: InChIKey IJGRMHOSHXDMSA-UHFFFAOYSA-N
Kind: experiment
Temperature: 298 K
Tabular data in the source: 0
pressure (bar)	uptake (mmol/g)
0.00803	0.0056
0.02357	0.00383
0.04326	0.00286
0.1031	0.00891
0.1439	0.0084
0.19572	0.01125
0.25193	0.01442
0.29908	0.01743
0.354	0.01852
0.39493	0.01705
0.45154	0.01942
0.49493	0.02163
0.55127	0.02304
0.60049	0.02573
0.65412	0.02634
0.69972	0.0247
0.75166	0.02259
0.79959	0.02384
0.85218	0.02605
0.8979	0.0265
0.95373	0.0255
0.9786	0.02613
0.9979	0.02724
