Adsorption isotherm of Carbon Dioxide on [Cd2(pda)(spiro-4-py) (CH3COO)2]Â·DMA
DOI: 10.1021/acs.inorgchem.6b02332
Article source: Figure  4d
Adsorbate Carbon Dioxide: InChIKey CURLTUGMZLYLDI-UHFFFAOYSA-N
Kind: experiment
Temperature: 298 K
Tabular data in the source: 0
pressure (bar)	uptake (mmol/g)
0.00361	0.01426
0.00684	0.02258
0.00982	0.03011
0.02146	0.04404
0.02327	0.05349
0.04035	0.07351
0.05082	0.08526
0.05148	0.08616
0.09714	0.15646
0.10284	0.15053
0.14618	0.21314
0.15266	0.20464
0.19743	0.26565
0.20301	0.25363
0.25232	0.2991
0.29696	0.35434
0.30215	0.34152
0.34784	0.37978
0.39663	0.43454
0.4026	0.41964
0.44803	0.45454
0.49553	0.50545
0.49761	0.48879
0.54784	0.52256
0.59508	0.56899
0.59795	0.55136
0.64921	0.58449
0.6971	0.61605
0.69918	0.61426
0.74994	0.64306
0.7964	0.68196
0.79978	0.67043
0.84963	0.69843
0.8961	0.72413
0.89844	0.72435
0.94971	0.75043
0.9756	0.76451
0.99541	0.77604
