Adsorption isotherm of Carbon Dioxide on [Cd(pda)0.5(spiro-4-py)0.5(HCOO)]·2H2O·DMF
DOI: 10.1021/acs.inorgchem.6b02332
Article source: Figure 3
Adsorbate Carbon Dioxide: InChIKey CURLTUGMZLYLDI-UHFFFAOYSA-N
Kind: experiment
Temperature: 278 K
Tabular data in the source: 0
pressure (bar)	uptake (mmol/g)
0.01284	0.0513
0.02716	0.111
0.04906	0.2039
0.09875	0.3964
0.10191	0.404
0.14802	0.5776
0.1537	0.5814
0.19792	0.7513
0.2017	0.7377
0.25328	0.897
0.29939	1.0525
0.3017	1.0351
0.35202	1.1695
0.39896	1.3121
0.40107	1.2963
0.45201	1.4148
0.49832	1.5401
0.50127	1.5189
0.55284	1.6215
0.5981	1.7272
0.60104	1.712
0.64945	1.798
0.69808	1.8893
0.69997	1.8719
0.74985	1.9617
0.79742	2.0371
0.80079	2.0258
0.85025	2.0929
0.89656	2.1676
0.90224	2.1638
0.95107	2.2188
0.97759	2.2482
0.998	2.2731
