Adsorption isotherm of Carbon Dioxide on [Cd(pda)0.5(spiro-4-py)0.5(HCOO)]·2H2O·DMF
DOI: 10.1021/acs.inorgchem.6b02332
Article source: Figure  4b
Adsorbate Carbon Dioxide: InChIKey CURLTUGMZLYLDI-UHFFFAOYSA-N
Kind: experiment
Temperature: 288 K
Tabular data in the source: 0
pressure (bar)	uptake (mmol/g)
0.02008	0.0414
0.0354	0.08406
0.0445	0.10312
0.0534	0.12292
0.10267	0.21671
0.10516	0.2032
0.15257	0.29192
0.15589	0.27419
0.20247	0.35911
0.20537	0.3631
0.25631	0.40224
0.30124	0.47491
0.30476	0.46183
0.35549	0.51466
0.40146	0.57552
0.40457	0.56032
0.45323	0.60724
0.50064	0.6681
0.50272	0.65164
0.55449	0.69265
0.60066	0.73291
0.60212	0.7324
0.65285	0.76961
0.69882	0.81949
0.70193	0.80683
0.75412	0.84362
0.79781	0.88041
0.8003	0.8707
0.84958	0.90792
0.89721	0.93434
0.89887	0.93457
0.94857	0.96377
0.97632	0.98238
0.9962	0.99254
