Adsorption isotherm of Oxygen on [Cd(pda)0.5(spiro-4-py)0.5(HCOO)]·2H2O·DMF
DOI: 10.1021/acs.inorgchem.6b02332
Article source: Figure  4c
Adsorbate Oxygen: InChIKey MYMOFIZGZYHOMD-UHFFFAOYSA-N
Kind: experiment
Temperature: 298 K
Tabular data in the source: 0
pressure (bar)	uptake (mmol/g)
0.00339	0.00818
0.02255	0.00963
0.04694	0.00846
0.05633	0.00758
0.09831	0.0061
0.10496	0.00756
0.14799	0.0096
0.15634	0.00842
0.1982	0.0087
0.20563	0.00753
0.25388	0.00694
0.29899	0.01335
0.30655	0.00809
0.35506	0.011
0.39809	0.01478
0.40435	0.01507
0.45468	0.01506
0.49888	0.02001
0.50514	0.0203
0.55495	0.02174
0.59837	0.0229
0.60437	0.02173
0.65496	0.02522
0.69904	0.02491
0.70438	0.02579
0.7555	0.02694
0.79944	0.0281
0.80648	0.02664
0.8546	0.02896
0.89828	0.02953
0.90558	0.03157
0.95461	0.03214
0.97821	0.03213
0.99724	0.03417
