Adsorption isotherm of Nitrogen on [Cd2(pda)(spiro-4-py) (CH3COO)2]Â·DMA
DOI: 10.1021/acs.inorgchem.6b02332
Article source: Figure 3
Adsorbate Nitrogen: InChIKey IJGRMHOSHXDMSA-UHFFFAOYSA-N
Kind: experiment
Temperature: 77 K
Tabular data in the source: 0
pressure (bar)	uptake (mmol/g)
0.00233	3.1251
0.00267	1.807
0.00268	3.7313
0.00269	3.6665
0.0028	2.5533
0.00282	3.6427
0.00283	4.7358
0.0029	1.4083
0.00293	3.486
0.00296	5.2187
0.003	0.1975
0.003	0.4206
0.00306	4.025
0.00306	5.0429
0.00307	4.8968
0.00325	1.023
0.00326	0.862
0.00327	1.9814
0.00327	2.0569
0.00327	2.3643
0.00328	2.7447
0.00329	3.2983
0.0033	3.836
0.00331	4.5542
0.00331	4.6998
0.00338	1.2108
0.00361	0.7633
0.00361	0.8291
0.00392	5.387
0.00428	5.5455
0.00537	5.9235
0.00584	5.6601
0.00716	5.743
0.01244	6.0941
0.0194	5.9502
0.02216	6.2355
0.02995	6.0843
0.03104	6.3281
0.03979	6.3403
0.04471	6.1366
0.04939	6.3707
0.0579	6.156
0.05898	6.4109
0.06941	6.134
0.07182	6.3888
0.07949	6.3912
0.08285	6.1864
0.09124	6.3558
0.094	6.1729
0.10336	6.203
0.10359	6.2009
0.15325	6.2091
0.18155	6.4394
0.20218	6.2186
0.25231	6.2231
0.28734	6.4363
0.3022	6.2375
0.35186	6.2469
0.38112	6.4357
0.40163	6.2576
0.45212	6.2634
0.48115	6.4363
0.50033	6.2789
0.55083	6.2847
0.57997	6.4321
0.60048	6.2929
0.65073	6.3121
0.6806	6.4229
0.6993	6.3204
0.75051	6.3323
0.78026	6.4223
0.80017	6.3539
0.84958	6.3682
0.88124	6.4266
0.89947	6.385
0.94685	6.4164
0.94972	6.4542
0.97311	6.4833
