Adsorption isotherm of Carbon Dioxide on [Cd(pda)0.5(spiro-4-py)0.5(HCOO)]·2H2O·DMF
DOI: 10.1021/acs.inorgchem.6b02332
Article source: Figure 3
Adsorbate Carbon Dioxide: InChIKey CURLTUGMZLYLDI-UHFFFAOYSA-N
Kind: experiment
Temperature: 288 K
Tabular data in the source: 0
pressure (bar)	uptake (mmol/g)
0.01137	0.0393
0.02547	0.0755
0.04968	0.1383
0.05305	0.1487
0.09726	0.2748
0.10315	0.2816
0.14673	0.397
0.15178	0.4084
0.1981	0.5321
0.20104	0.5223
0.25261	0.637
0.29872	0.7601
0.30145	0.7472
0.34966	0.843
0.3966	0.9638
0.40038	0.9381
0.44985	1.0339
0.49869	1.1456
0.49953	1.1237
0.54941	1.2119
0.59804	1.3138
0.59888	1.2972
0.65002	1.3703
0.69717	1.4556
0.69738	1.4306
0.75021	1.506
0.7982	1.5699
0.79925	1.5701
0.84977	1.638
0.89839	1.6998
0.951	1.7548
0.97626	1.7774
0.99773	1.8098
