Adsorption isotherm of Carbon monoxide on [Cd2(pda)(spiro-4-py) (CH3COO)2]Â·DMA
DOI: 10.1021/acs.inorgchem.6b02332
Article source: Figure  4d
Adsorbate Carbon monoxide: InChIKey UGFAIRIUMAVXCW-UHFFFAOYSA-N
Kind: experiment
Temperature: 298 K
Tabular data in the source: 0
pressure (bar)	uptake (mmol/g)
0.00699	0.00608
0.01826	0.00656
0.04352	0.00686
0.09753	0.00875
0.15258	0.0108
0.2009	0.01093
0.25167	0.01458
0.30037	0.01567
0.35387	0.02028
0.40192	0.02233
0.45218	0.02534
0.50179	0.02916
0.5501	0.02864
0.59388	0.03118
0.60256	0.03133
0.65334	0.03274
0.6966	0.03576
0.70282	0.03431
0.75307	0.03749
0.79517	0.03906
0.80437	0.03697
0.85255	0.04191
0.89582	0.0438
0.90359	0.04204
0.95307	0.04361
0.97677	0.04503
0.99711	0.04951
