Adsorption isotherm of Carbon Dioxide on [Cd(pda)0.5(spiro-4-py)0.5(HCOO)]·2H2O·DMF
DOI: 10.1021/acs.inorgchem.6b02332
Article source: Figure  4a
Adsorbate Carbon Dioxide: InChIKey CURLTUGMZLYLDI-UHFFFAOYSA-N
Kind: experiment
Temperature: 298 K
Tabular data in the source: 0
pressure (bar)	uptake (mmol/g)
0.00358	0.0159
0.02484	0.04
0.04694	0.0671
0.10103	0.1508
0.1505	0.2323
0.19806	0.3062
0.20206	0.313
0.25068	0.3824
0.29762	0.454
0.30225	0.4661
0.35024	0.5332
0.3976	0.5958
0.40118	0.5995
0.45001	0.6636
0.49905	0.7307
0.50284	0.7383
0.55019	0.788
0.59692	0.8665
0.60092	0.8513
0.65164	0.9101
0.69753	0.9795
0.70131	0.9659
0.75014	1.0315
0.80108	1.082
0.80129	1.0823
0.85012	1.1362
0.89979	1.189
0.90042	1.1903
0.95135	1.2394
0.9785	1.2613
0.99744	1.2809
