Adsorption isotherm of Carbon Dioxide on [Cd(pda)0.5(spiro-4-py)0.5(HCOO)]·2H2O·DMF
DOI: 10.1021/acs.inorgchem.6b02332
Article source: Figure  4c
Adsorbate Carbon Dioxide: InChIKey CURLTUGMZLYLDI-UHFFFAOYSA-N
Kind: experiment
Temperature: 298 K
Tabular data in the source: 0
pressure (bar)	uptake (mmol/g)
0.01916	0.01723
0.02724	0.03183
0.04131	0.05227
0.04848	0.06044
0.0546	0.07184
0.10098	0.1501
0.15128	0.23099
0.19844	0.30195
0.20053	0.311
0.2503	0.38635
0.29773	0.45526
0.30138	0.46081
0.35168	0.52885
0.39833	0.59309
0.40028	0.59981
0.45084	0.66551
0.49749	0.73472
0.50258	0.72683
0.55144	0.79487
0.59731	0.86671
0.60253	0.85357
0.65114	0.91284
0.69739	0.98381
0.70053	0.97066
0.75109	1.02789
0.80074	1.08074
0.80075	1.08074
0.85105	1.13827
0.8998	1.19549
0.90005	1.19579
0.95167	1.23755
0.97748	1.26353
0.99742	1.28456
