Adsorption isotherm of Carbon monoxide on [Cd(pda)0.5(spiro-4-py)0.5(HCOO)]·2H2O·DMF
DOI: 10.1021/acs.inorgchem.6b02332
Article source: Figure  4c
Adsorbate Carbon monoxide: InChIKey UGFAIRIUMAVXCW-UHFFFAOYSA-N
Kind: experiment
Temperature: 298 K
Tabular data in the source: 0
pressure (bar)	uptake (mmol/g)
0.01877	0.01635
0.04289	0.0254
0.05501	0.02978
0.09882	0.03853
0.10652	0.03181
0.14876	0.05224
0.15658	0.04055
0.19895	0.06361
0.20522	0.04755
0.25255	0.06155
0.29856	0.0814
0.30561	0.06884
0.35411	0.07876
0.39779	0.09627
0.40483	0.08955
0.45255	0.10005
0.49897	0.11347
0.50627	0.10763
0.55412	0.11784
0.59754	0.12659
0.60484	0.12658
0.654	0.13621
0.6982	0.14233
0.70458	0.14408
0.75257	0.14991
0.7982	0.15457
0.80394	0.15544
0.85388	0.1601
0.89912	0.16651
0.90486	0.16271
0.95415	0.16913
0.97918	0.17146
0.99965	0.17379
