Adsorption isotherm of Carbon Dioxide on [Cd(pda)0.5(spiro-4-py)0.5(HCOO)]·2H2O·DMF
DOI: 10.1021/acs.inorgchem.6b02332
Article source: Figure  4b
Adsorbate Carbon Dioxide: InChIKey CURLTUGMZLYLDI-UHFFFAOYSA-N
Kind: experiment
Temperature: 298 K
Tabular data in the source: 0
pressure (bar)	uptake (mmol/g)
0.00849	0.01141
0.01511	0.02028
0.02753	0.05196
0.04575	0.07183
0.05445	0.09126
0.10269	0.15465
0.10704	0.1479
0.15156	0.21044
0.15612	0.202
0.20249	0.26581
0.20602	0.25357
0.25717	0.30049
0.30065	0.35374
0.30459	0.34235
0.35304	0.38167
0.40129	0.43324
0.40544	0.41974
0.45306	0.45737
0.50193	0.50683
0.50297	0.49036
0.55184	0.52378
0.59947	0.56986
0.6003	0.57035
0.65207	0.58681
0.6997	0.62993
0.70116	0.616
0.75148	0.64604
0.79704	0.68621
0.80097	0.67397
0.85068	0.70105
0.8981	0.72736
0.90038	0.72729
0.95112	0.75395
0.97659	0.7696
0.99668	0.78018
