Adsorption isotherm of Nitrogen on [Cd(pda)0.5(spiro-4-py)0.5(HCOO)]·2H2O·DMF
DOI: 10.1021/acs.inorgchem.6b02332
Article source: Figure 3
Adsorbate Nitrogen: InChIKey IJGRMHOSHXDMSA-UHFFFAOYSA-N
Kind: experiment
Temperature: 77 K
Tabular data in the source: 0
pressure (bar)	uptake (mmol/g)
0.00149	3.241
0.00205	0.6474
0.00218	1.7412
0.00219	1.9089
0.0022	3.0312
0.00244	2.7764
0.00246	3.8933
0.00266	1.4937
0.00267	2.0941
0.00268	4.1735
0.0027	4.125
0.00288	0.2036
0.00289	0.0248
0.0029	0.0033
0.00294	4.3213
0.00295	4.5859
0.00303	2.4118
0.00305	3.4629
0.00307	4.9541
0.00309	5.8137
0.00313	0.8523
0.00332	5.6272
0.00333	6.0264
0.00336	0.4085
0.00357	6.01
0.00365	4.5032
0.00367	4.7627
0.00392	5.1699
0.00428	5.4052
0.00549	6.3295
0.00657	6.4807
0.00706	6.553
0.00753	6.5648
0.0115	6.9172
0.01257	6.7794
0.02169	7.1207
0.02385	7.0768
0.03153	7.2646
0.04041	7.3096
0.04196	7.1913
0.0518	7.3925
0.05672	7.2815
0.06452	7.4436
0.07051	7.3058
0.07795	7.3594
0.08011	7.5032
0.09126	7.3715
0.10133	7.5237
0.10649	7.5567
0.15099	7.4638
0.18337	7.6489
0.2034	7.4866
0.25281	7.5046
0.28843	7.7093
0.30114	7.5336
0.352	7.5455
0.38258	7.7319
0.40117	7.5769
0.45118	7.5912
0.48177	7.7483
0.50011	7.6043
0.55145	7.6186
0.58167	7.7538
0.60098	7.633
0.65015	7.651
0.68121	7.7556
0.69932	7.6677
0.74994	7.676
0.78148	7.7611
0.79995	7.6964
0.849	7.7119
0.88198	7.7642
0.89961	7.7348
0.94879	7.7662
0.95034	7.7693
0.97301	7.8599
