Adsorption isotherm of Carbon Dioxide on [Cd(pda)0.5(spiro-4-py)0.5(HCOO)]·2H2O·DMF
DOI: 10.1021/acs.inorgchem.6b02332
Article source: Figure  4b
Adsorbate Carbon Dioxide: InChIKey CURLTUGMZLYLDI-UHFFFAOYSA-N
Kind: experiment
Temperature: 278 K
Tabular data in the source: 0
pressure (bar)	uptake (mmol/g)
0.02256	0.068
0.03725	0.10517
0.05029	0.15619
0.05381	0.16683
0.10328	0.28595
0.10369	0.28668
0.15379	0.38607
0.15483	0.38785
0.20285	0.46719
0.20534	0.4715
0.25607	0.52847
0.3012	0.61507
0.30472	0.5927
0.35545	0.65989
0.40203	0.73637
0.40328	0.71779
0.45422	0.77358
0.5008	0.84246
0.50329	0.82811
0.55506	0.87335
0.60123	0.92213
0.6031	0.92111
0.65363	0.96508
0.69959	1.00506
0.70167	1.00441
0.75261	1.04796
0.79837	1.0915
0.80314	1.08137
0.85284	1.11985
0.89819	1.15537
0.90461	1.15158
0.94934	1.18119
0.97606	1.20107
0.99552	1.21165
