Adsorption isotherm of Carbon Dioxide on CdSDB
DOI: 10.1039/C3cc43299h
Adsorbate Carbon Dioxide: InChIKey CURLTUGMZLYLDI-UHFFFAOYSA-N
Temperature: 273 K
Tabular data in the source: 0
pressure (bar)	uptake (wt%)
0.00627692	0.173227
0.0372704	1.02533
0.0660502	1.58247
0.092616	1.89928
0.130251	2.37995
0.1701	2.67491
0.243156	3.13373
0.313998	3.41777
0.409193	3.62533
0.548664	3.90936
0.703631	4.0623
0.863027	4.18247
0.980359	4.26987
