Adsorption isotherm of Carbon Dioxide on CdSDB
DOI: 10.1039/C3cc43299h
Adsorbate Carbon Dioxide: InChIKey CURLTUGMZLYLDI-UHFFFAOYSA-N
Temperature: 288 K
Tabular data in the source: 0
pressure (bar)	uptake (wt%)
0.00627692	0.173227
0.0461257	0.752219
0.0793331	1.17827
0.156817	1.85558
0.229873	2.33625
0.307357	2.78415
0.41362	3.11188
0.526525	3.36314
0.659355	3.58163
0.778901	3.72365
0.89402	3.84382
1.0025	3.93121
