Adsorption isotherm of Nitrogen on CdSDB
DOI: 10.1039/C3cc43299h
Adsorbate Nitrogen: InChIKey IJGRMHOSHXDMSA-UHFFFAOYSA-N
Temperature: 298 K
Tabular data in the source: 0
pressure (bar)	uptake (wt%)
0.0660502	0.00936194
0.322854	0.0530594
0.57523	0.12953
0.719128	0.151379
0.882951	0.216925
0.995856	0.260622
