Adsorption isotherm of Carbon Dioxide on CdSDB
DOI: 10.1039/C3cc43299h
Adsorbate Carbon Dioxide: InChIKey CURLTUGMZLYLDI-UHFFFAOYSA-N
Temperature: 298 K
Tabular data in the source: 0
pressure (bar)	uptake (wt%)
0.00849074	0.0202863
0.0461257	0.424488
0.092616	0.948858
0.134679	1.33121
0.236515	1.93205
0.353847	2.3581
0.491104	2.7623
0.635003	3.04634
0.783329	3.2976
0.885165	3.41777
0.99807	3.53793
