Adsorption isotherm of Cyclohexane on Co-Py2PO
DOI: 10.1039/c4qi00138a
Article source: Figure 7
Adsorbate Cyclohexane: InChIKey XDTMQSROBMDMFD-UHFFFAOYSA-N
Kind: experiment
Temperature: 298 K
Tabular data in the source: 0
pressure (bar)	uptake (cm3(STP)/g)
2.5e-05	0.000383
7.6e-05	23.8559
0.000101	0.392595
0.000127	24.2477
0.000279	25.0322
0.00033	0.787107
0.000406	27.7715
0.000507	1.18085
0.000532	28.5555
0.00071	1.37945
0.000761	29.1456
0.000938	1.77396
0.001039	2.36209
0.001318	2.75737
0.001851	30.9218
0.001952	3.35354
0.00251	31.3229
0.00256	4.14487
0.003144	31.919
0.00322	4.93696
0.003828	32.3205
0.003853	5.9242
0.004436	32.7207
0.004512	7.49841
0.005096	33.1218
0.005172	8.68156
0.005729	33.3269
0.00578	10.8416
0.006363	33.532
0.006464	13.0028
0.006997	33.9326
0.007073	14.9673
0.007631	34.1377
0.007732	17.3236
0.00834	34.344
0.008391	19.0934
0.008949	34.3532
0.009025	21.2538
0.009557	34.3624
0.009684	24.3923
0.010242	34.5683
0.010343	26.162
0.010901	34.5783
0.011104	29.302
0.011535	34.9789
0.011636	31.4609
0.012219	34.7937
0.012371	34.0139
