Adsorption isotherm of Benzene on Co-Py2PO
DOI: 10.1039/c4qi00138a
Article source: Figure 7
Adsorbate Benzene: InChIKey UHOVQNZJYSORNB-UHFFFAOYSA-N
Kind: experiment
Temperature: 298 K
Tabular data in the source: 0
pressure (bar)	uptake (cm3(STP)/g)
7.4e-05	1.5654
0.000124	47.1248
0.000173	2.93564
0.00042	3.7216
0.000593	4.31088
0.000766	4.90015
0.001087	54.961
0.001482	6.67105
0.001557	56.9236
0.001828	7.45854
0.002026	58.6907
0.002174	11.5701
0.002545	19.9836
0.002594	60.0682
0.002891	30.7432
0.003088	61.0535
0.003212	36.6141
0.003558	62.0384
0.003657	41.3137
0.003929	43.6643
0.004027	63.0234
0.004274	45.8205
0.004522	63.6176
0.00462	48.5633
0.004942	49.3504
0.00504	64.6034
0.005312	50.5294
0.00551	65.3928
0.005683	51.5128
0.006004	65.7915
0.006029	52.4958
0.00635	53.4784
0.006449	66.5805
0.006696	54.0704
0.006968	66.9796
0.007042	54.8579
0.007388	55.6454
0.007462	67.5739
0.007758	56.4332
0.007931	68.1678
0.008079	57.2203
0.008425	68.5665
0.008475	58.2041
0.008821	59.1872
0.00892	69.1608
0.009142	59.9743
0.009265	69.3616
0.009488	60.9573
0.009834	61.7448
0.009908	69.7627
0.010278	63.5114
0.010402	70.1614
0.0106	64.2986
0.010871	70.3642
0.010896	65.4763
0.011242	66.4594
0.011366	70.5674
0.011637	69.0074
0.01181	70.7699
0.011983	70.3815
