Adsorption isotherm of Carbon Dioxide on Co-Py2PO
DOI: 10.1039/c4qi00138a
Article source: Figure 6
Adsorbate Carbon Dioxide: InChIKey CURLTUGMZLYLDI-UHFFFAOYSA-N
Kind: experiment
Temperature: 195 K
Tabular data in the source: 0
pressure (bar)	uptake (cm3(STP)/g)
0.000243	18.9656
0.001424	28.965
0.00149	23.7926
0.004965	32.757
0.006724	35.515
0.009899	67.9277
0.010279	38.2724
0.018745	77.9248
0.022635	54.4752
0.029709	62.7487
0.031221	84.8172
0.041946	88.2619
0.043953	71.7095
0.051097	74.4657
0.052676	91.3618
0.06719	79.288
0.085095	82.7303
0.108221	98.9295
0.128097	88.578
0.162019	102.705
0.169336	92.0126
0.212374	95.1017
0.215827	105.79
0.255421	97.5012
0.269647	107.841
0.300262	99.9
0.321673	109.893
0.341518	101.955
0.377293	111.599
0.384579	103.32
0.429327	112.961
0.429429	105.029
0.470695	106.395
0.484951	114.321
0.513754	107.76
0.538782	115.683
0.556815	109.125
0.592615	116.699
0.598085	110.146
0.64114	111.855
0.644655	117.716
0.685999	112.875
0.702083	118.387
0.729059	114.24
0.755917	119.403
0.770325	115.606
0.811546	120.419
0.813389	116.626
0.858244	117.99
0.861794	121.092
0.901308	119.01
0.915637	121.419
0.944373	120.03
0.969471	122.436
0.987434	121.395
1.0287	122.416
