Adsorption isotherm of Methanol on Co-Py2PO
DOI: 10.1039/c4qi00138a
Article source: Figure 7
Adsorbate Methanol: InChIKey OKKJLVBELUTLKV-UHFFFAOYSA-N
Kind: experiment
Temperature: 298 K
Tabular data in the source: 0
pressure (bar)	uptake (cm3(STP)/g)
3e-05	1.87444
5.8e-05	13.1239
9e-05	10.6233
9.2e-05	4.0608
0.000149	20.6222
0.000177	31.8717
0.000182	13.7466
0.000239	31.8706
0.000273	19.9949
0.000334	24.0563
0.00064	34.3631
0.000879	67.7962
0.000915	48.733
0.001376	59.9745
0.001622	64.0324
0.001648	81.8444
0.002485	74.9539
0.002512	89.3284
0.003315	94.3135
0.003441	82.1237
0.004213	86.1719
0.004241	98.6713
0.004982	101.158
0.005016	89.907
0.005881	92.3909
0.00594	103.952
0.006712	106.126
0.006715	95.5005
0.007485	107.674
0.007549	97.36
0.008319	109.221
0.008445	99.8434
0.009215	110.767
0.009218	101.392
0.01008	112.313
0.010114	103.562
0.010729	113.551
0.010917	105.735
0.011564	114.786
0.011844	107.905
0.012553	115.705
0.012585	109.142
0.013418	116.626
0.01342	111.001
0.01416	117.862
0.014316	113.484
0.015056	119.096
0.015119	115.657
0.015767	120.333
0.015983	120.329
