Adsorption isotherm of Acetonitrile on Co-Py2PO
DOI: 10.1039/c4qi00138a
Article source: Figure 7
Adsorbate Acetonitrile: InChIKey WEVYAHXRMPXWCK-UHFFFAOYSA-N
Kind: experiment
Temperature: 298 K
Tabular data in the source: 0
pressure (bar)	uptake (cm3(STP)/g)
2.6e-05	20.6245
2.7e-05	16.2495
6e-05	5.93638
8.3e-05	38.7485
8.8e-05	18.7484
0.000117	24.9978
0.000144	42.8098
0.000204	48.7462
0.000209	27.8086
0.0003	35.9319
0.000418	57.1797
0.000576	43.1143
0.000633	64.0508
0.000694	65.2996
0.000884	46.8586
0.001001	74.6689
0.00107	48.1052
0.001317	49.3506
0.001687	50.9062
0.001803	80.2791
0.00249	53.7038
0.002545	82.7653
0.003348	84.9379
0.003355	56.1878
0.004151	87.1105
0.004189	58.3598
0.004985	88.97
0.004993	59.9074
0.005858	61.7664
0.005912	90.5153
0.006685	91.751
0.006723	63.6253
0.007557	66.1098
0.007612	93.2963
0.008323	94.5331
0.008361	67.6574
0.009188	95.7671
0.009349	70.7641
0.010023	96.6891
0.010091	73.2504
0.010826	97.6117
0.010894	75.1105
0.011599	98.2224
0.011851	78.8427
0.012495	99.1432
0.012592	81.9539
0.013361	99.7522
0.013488	85.6873
0.014133	100.363
0.014291	89.4224
0.014968	100.347
0.015156	92.5314
0.015277	100.342
0.01602	99.7029
