Adsorption isotherm of Nitrogen on Co-Py2PO
DOI: 10.1039/c4qi00138a
Article source: Figure 6
Adsorbate Nitrogen: InChIKey IJGRMHOSHXDMSA-UHFFFAOYSA-N
Kind: experiment
Temperature: 77 K
Tabular data in the source: 0
pressure (bar)	uptake (cm3(STP)/g)
0	0
0.001164	47.241
0.004602	53.1019
0.00526	0.687865
0.010515	1.72056
0.013313	58.6162
0.014023	2.06419
0.021043	2.40663
0.026307	2.74967
0.027332	61.0252
0.031566	3.43753
0.038586	3.77997
0.043106	63.4336
0.04385	4.12301
0.052617	5.15451
0.057137	64.8081
0.071169	66.1827
0.085204	67.2124
0.100996	68.2415
0.101688	13.0688
0.151883	71.3276
0.152493	22.7067
0.201019	74.0695
0.203316	30.9653
0.251914	76.466
0.25415	38.1894
0.301059	78.5182
0.305003	44.0341
0.35371	80.9141
0.354095	50.2243
0.404611	82.9658
0.404974	54.0001
0.455511	85.0174
0.455848	58.1207
0.506406	87.4139
0.508457	63.9649
0.555547	89.8109
0.555831	67.0522
0.606711	70.828
0.608202	91.862
0.655591	93.9148
0.659349	74.2584
0.708471	78.0348
0.709998	96.3101
0.757387	98.3629
0.759355	81.4657
0.810224	85.9312
0.811799	100.413
0.861103	89.707
0.862695	102.81
0.911831	105.552
0.911978	93.8276
0.927622	106.581
0.960961	108.638
0.96283	99.6723
0.987268	111.388
0.987358	104.147
0.992523	112.421
0.996027	113.109
0.996109	106.558
1.00129	113.797
1.0031	109.314
1.00829	115.519
1.00833	112.071
