Adsorption isotherm of Carbon Dioxide on IRMOF-1
DOI: 10.1038/Nchem.1432
Adsorbate Carbon Dioxide: InChIKey CURLTUGMZLYLDI-UHFFFAOYSA-N
Temperature: 298 K
Tabular data in the source: 0
pressure (bar)	uptake (mmol/g)
0.906897	0.746269
2.32971	2.36318
5.31062	4.60199
7.90055	6.96517
10.6193	9.57711
16.4465	14.9254
22.6757	18.0348
29.4298	20.2736
