Adsorption isotherm of Carbon Dioxide on Zn-MOF-74
DOI: 10.1038/Nchem.1432
Adsorbate Carbon Dioxide: InChIKey CURLTUGMZLYLDI-UHFFFAOYSA-N
Temperature: 313 K
Tabular data in the source: 0
pressure (bar)	uptake (mmol/g)
0.00767884	0.301508
0.0454708	0.844221
0.0682815	1.38693
0.0985075	1.80905
0.249675	3.9799
0.501628	5.60804
0.745638	6.51256
1.0007	7.11558
