Adsorption isotherm of Nitrogen on Mg-MOF-74
DOI: 10.1038/Nchem.1432
Adsorbate Nitrogen: InChIKey IJGRMHOSHXDMSA-UHFFFAOYSA-N
Temperature: 313 K
Tabular data in the source: 0
pressure (bar)	uptake (mmol/g)
0.0260116	0.023177
0.199422	0.154613
0.349711	0.259037
0.552023	0.398277
0.719653	0.51046
0.849711	0.59173
0.99711	0.680758
