Adsorption isotherm of Carbon Dioxide on Mg-MOF-74
DOI: 10.1038/Nchem.1432
Adsorbate Carbon Dioxide: InChIKey CURLTUGMZLYLDI-UHFFFAOYSA-N
Temperature: 313 K
Tabular data in the source: 0
pressure (bar)	uptake (mmol/g)
0.00864553	1.5699
0.0345821	3.32574
0.0847262	5.03729
0.179827	6.01383
0.262824	6.57406
0.338905	6.76453
0.430548	7.0485
0.563689	7.52028
