Adsorption isotherm of Carbon Dioxide on Mg2(dobpdc)
DOI: 10.1038/Nchem.1432
Adsorbate Carbon Dioxide: InChIKey CURLTUGMZLYLDI-UHFFFAOYSA-N
Temperature: 298 K
Tabular data in the source: 0
pressure (bar)	uptake (mmol/g)
0.00450011	1.64824
0.0123003	2.37186
0.0313133	3.13568
0.0766519	4.34171
0.14406	4.86432
0.274882	5.34673
0.491506	5.78894
0.745406	6.15075
0.995537	6.43216
