Adsorption isotherm of Carbon Dioxide on IRMOF-1
DOI: 10.1038/Nchem.1432
Adsorbate Carbon Dioxide: InChIKey CURLTUGMZLYLDI-UHFFFAOYSA-N
Temperature: 298 K
Tabular data in the source: 0
pressure (bar)	uptake (mmol/g)
1.29464	1.24378
4.1448	3.60697
8.15236	8.58209
12.0266	14.1791
14.098	16.1692
18.2486	18.6567
23.7036	20.5224
33.8458	21.7662
