Adsorption isotherm of Nitrogen on Mg-MOF-74
DOI: 10.1038/Nchem.1432
Adsorbate Nitrogen: InChIKey IJGRMHOSHXDMSA-UHFFFAOYSA-N
Temperature: 313 K
Tabular data in the source: 0
pressure (bar)	uptake (mmol/g)
0.0462428	0.0117163
0.0982659	0.0311472
0.248555	0.0701867
0.49711	0.132681
0.748555	0.191341
0.99711	0.257681
