Adsorption isotherm of Carbon Dioxide on Mg2(dobpdc)
DOI: 10.1038/Nchem.1432
Adsorbate Carbon Dioxide: InChIKey CURLTUGMZLYLDI-UHFFFAOYSA-N
Temperature: 298 K
Tabular data in the source: 0
pressure (bar)	uptake (mmol/g)
0.00753769	0.160804
0.0152254	0.643216
0.0230631	1.44724
0.0496512	2.45226
0.0761269	3.21608
0.0950461	3.77889
0.2524	5.14573
0.495294	5.90955
0.745519	6.39196
0.995631	6.63317
