Adsorption isotherm of Nitrogen on Mg-MOF-74
DOI: 10.1038/Nchem.1432
Adsorbate Nitrogen: InChIKey IJGRMHOSHXDMSA-UHFFFAOYSA-N
Temperature: 313 K
Tabular data in the source: 0
pressure (bar)	uptake (mmol/g)
0.0231214	0.0347043
0.066474	0.0733326
0.251445	0.239429
0.49422	0.451901
0.745665	0.691329
0.99711	0.896143
