Adsorption isotherm of Carbon Dioxide on Mg-MOF-74
DOI: 10.1038/Nchem.1432
Adsorbate Carbon Dioxide: InChIKey CURLTUGMZLYLDI-UHFFFAOYSA-N
Temperature: 313 K
Tabular data in the source: 0
pressure (bar)	uptake (mmol/g)
0.00415937	0.663317
0.0120264	1.26633
0.0243163	2.95477
0.0481057	5.06533
0.0978488	6.75377
0.252348	8.26131
0.507707	9.34673
0.751642	10.1307
1.00288	10.6131
