Adsorption isotherm of Carbon Dioxide on Mg-MOF-74
DOI: 10.1038/Nchem.1432
Adsorbate Carbon Dioxide: InChIKey CURLTUGMZLYLDI-UHFFFAOYSA-N
Temperature: 313 K
Tabular data in the source: 0
pressure (bar)	uptake (mmol/g)
0.00518732	0.461937
0.00864553	1.29297
0.0207493	2.81698
0.0466859	4.98821
0.0760807	6.05201
0.105476	6.88504
0.25072	8.37313
0.501441	9.36165
