Adsorption isotherm of Carbon Dioxide on Mg-MOF-74
DOI: 10.1038/Nchem.1432
Adsorbate Carbon Dioxide: InChIKey CURLTUGMZLYLDI-UHFFFAOYSA-N
Temperature: 313 K
Tabular data in the source: 0
pressure (bar)	uptake (mmol/g)
0.00864553	0.139127
0.0242075	0.140324
0.048415	0.326801
0.0708934	0.513146
0.100288	0.653868
0.247262	1.5421
0.504899	2.94653
