Adsorption isotherm of Nitrogen on g-C18N3-COF
DOI: 10.1021/jacs.9b06219
Article source: Figure 1(d)
Adsorbate Nitrogen: InChIKey IJGRMHOSHXDMSA-UHFFFAOYSA-N
Kind: experiment
Temperature: 77 K
Tabular data in the source: 0
pressure (bar)	uptake (cm3(STP)/g)
0	5.18135
0	16.5803
0	43.5233
0	55.9585
0	67.3575
0	74.6114
0	95.3368
0	118.135
0	128.497
0	137.824
0.001915	183.42
0.005755	202.073
0.005755	216.58
0.00768	226.943
0.024946	265.285
0.046052	274.611
0.09787	285.492
0.149687	294.301
0.19958	299.482
0.253312	303.627
0.303205	307.772
0.355023	310.881
0.405878	313.99
0.456733	316.062
0.506625	318.135
0.556517	320.725
0.608335	324.352
0.660153	327.461
0.70812	330.57
0.7609	332.642
0.80983	335.751
0.86261	339.896
0.913465	345.078
0.963358	355.44
0.051818	281.865
0.099785	293.264
0.151602	301.554
0.201495	306.736
0.251397	311.399
0.30129	315.026
0.353097	317.098
0.404915	319.171
0.456733	322.28
0.50471	324.352
0.556517	326.425
0.60641	328.497
0.660153	330.57
0.710045	333.679
0.7609	335.233
0.810793	338.342
0.86261	341.451
0.913465	346.114
0.965273	356.477
1.00174	390.674
