Adsorption isotherm of Nitrogen on g-C33N3-COF
DOI: 10.1021/jacs.9b06219
Article source: Figure 1(e)
Adsorbate Nitrogen: InChIKey IJGRMHOSHXDMSA-UHFFFAOYSA-N
Kind: experiment
Temperature: 77 K
Tabular data in the source: 0
pressure (bar)	uptake (cm3(STP)/g)
0	11.509
0	20.4604
0	29.4118
0	48.5933
0	61.3811
0	71.6113
0	88.2353
0	104.859
0	113.811
0	122.762
0.001945	141.944
0.005826	152.174
0.011642	161.125
0.02523	170.077
0.048525	180.307
0.098995	187.98
0.153345	195.013
0.202843	200.767
0.25234	204.604
0.306691	208.44
0.355215	210.997
0.406658	214.834
0.4581	217.391
0.506625	219.949
0.55903	223.785
0.6095	226.982
0.65609	230.179
0.71044	234.015
0.76091	239.13
0.812343	242.967
0.864758	251.279
0.91231	264.706
0.964725	295.396
1.00354	469.309
0.05047	189.258
0.10094	199.488
0.152373	205.243
0.200907	210.358
0.25234	213.555
0.304755	216.113
0.355215	220.588
0.405685	223.146
0.456155	225.703
0.50857	234.015
0.557095	242.967
0.608528	246.803
0.658998	250
0.709468	253.197
0.758965	258.312
0.812343	263.427
0.86184	271.1
0.91231	286.445
0.964725	327.366
1.00257	468.67
