Adsorption isotherm of Water on {[Cu2(pzdc)2(bpe)]*5H2O}
DOI: 10.1016/j.jcis.2007.05.090
Adsorbate Water: InChIKey XLYOFNOQVPJJNP-UHFFFAOYSA-N
Temperature: 303 K
Tabular data in the source: 0
pressure (bar)	uptake (mg/g)
0.00670377	33.3348
0.0276786	49.0659
0.0486533	68.0743
0.0993424	180.158
0.211208	215.553
0.3423	237.184
0.452418	248.982
0.567779	258.814
