Adsorption isotherm of Water on [Cu2(pzdc)2(pyz)]*2H2O}
DOI: 10.1016/j.jcis.2007.05.090
Adsorbate Water: InChIKey XLYOFNOQVPJJNP-UHFFFAOYSA-N
Temperature: 303 K
Tabular data in the source: 0
pressure (bar)	uptake (mg/g)
0.00591847	2.5281
0.0148234	18.9147
0.0224492	27.4357
0.034864	42.5113
0.0629652	61.5197
0.109506	68.7298
0.192857	73.318
0.274269	75.2844
0.331214	85.7718
0.459331	96.2592
0.59818	103.469
0.740779	108.713
