Adsorption isotherm of Water on [Cu2(pzdc)2(pyz)]*2H2O}
DOI: 10.1016/j.jcis.2007.05.090
Adsorbate Water: InChIKey XLYOFNOQVPJJNP-UHFFFAOYSA-N
Temperature: 303 K
Tabular data in the source: 0
pressure (bar)	uptake (mg/g)
0.0149343	1.7978
0.0389679	30.3759
0.0630016	55.5457
0.108884	63.1491
0.189724	65.7709
0.318632	81.2398
0.355775	85.4348
0.436615	91.9894
0.572077	101.428
0.735943	109.031
