Adsorption isotherm of Water on {[Cu2(pzdc)2(bpy)]*4H2O}
DOI: 10.1016/j.jcis.2007.05.090
Adsorbate Water: InChIKey XLYOFNOQVPJJNP-UHFFFAOYSA-N
Temperature: 303 K
Tabular data in the source: 0
pressure (bar)	uptake (mg/g)
0.00837971	7.80305
0.0193041	26.593
0.0280436	47.5678
0.0367831	76.8451
0.0477074	93.8871
0.0630016	102.627
0.0957747	116.61
0.121993	127.534
0.18317	138.895
0.248716	147.635
0.336111	150.257
0.425691	155.064
0.526195	158.122
0.545859	162.929
0.674766	168.173
0.871405	171.669
