Adsorption isotherm of Water on {[Cu2(pzdc)2(bpy)]*4H2O}
DOI: 10.1016/j.jcis.2007.05.090
Adsorbate Water: InChIKey XLYOFNOQVPJJNP-UHFFFAOYSA-N
Temperature: 303 K
Tabular data in the source: 0
pressure (bar)	uptake (mg/g)
0.00371628	7.11634
0.00790387	20.2256
0.0152011	26.7802
0.0213478	40.5449
0.0281527	61.5197
0.0319259	79.8726
0.0514879	100.847
0.0884259	117.889
0.125754	129.032
0.181102	140.831
0.28842	149.352
0.48303	158.528
0.669871	168.36
0.883404	172.948
