Adsorption isotherm of Water on {[Cu2(pzdc)2(bpy)]*4H2O}
DOI: 10.1016/j.jcis.2007.05.090
Adsorbate Water: InChIKey XLYOFNOQVPJJNP-UHFFFAOYSA-N
Temperature: 303 K
Tabular data in the source: 0
pressure (bar)	uptake (mg/g)
0.00376332	6.49213
0.00810521	17.8535
0.0148234	24.8451
0.0208175	38.8283
0.0281527	62.4249
0.0371269	86.0215
0.0514879	100.442
0.0941652	116.61
0.127345	127.097
0.176604	139.769
0.281255	148.072
0.5547	162.492
0.661499	169.047
0.840061	171.669
