Adsorption isotherm of Water on {[Cu2(pzdc)2(bpe)]*5H2O}
DOI: 10.1016/j.jcis.2007.05.090
Adsorbate Water: InChIKey XLYOFNOQVPJJNP-UHFFFAOYSA-N
Temperature: 303 K
Tabular data in the source: 0
pressure (bar)	uptake (mg/g)
0.0040583	32.6794
0.00885115	36.6121
0.0152011	41.2004
0.0292353	50.3768
0.0448355	66.7634
0.0965639	181.469
0.218704	216.864
0.339651	236.528
0.45359	248.982
0.57603	258.814
