Adsorption isotherm of Water on {[Cu2(pzdc)2(bpe)]*5H2O}
DOI: 10.1016/j.jcis.2007.05.090
Adsorbate Water: InChIKey XLYOFNOQVPJJNP-UHFFFAOYSA-N
Temperature: 303 K
Tabular data in the source: 0
pressure (bar)	uptake (mg/g)
0.0040583	30.713
0.00874052	34.6458
0.0150111	40.5449
0.0288699	48.4105
0.0442751	68.0743
0.0591275	130.999
0.095357	180.814
0.221472	214.898
0.348303	234.562
0.471032	247.016
0.583321	256.847
0.731521	273.234
