Adsorption isotherm of Water on [Cu2(pzdc)2(pyz)]*2H2O}
DOI: 10.1016/j.jcis.2007.05.090
Adsorbate Water: InChIKey XLYOFNOQVPJJNP-UHFFFAOYSA-N
Temperature: 303 K
Tabular data in the source: 0
pressure (bar)	uptake (mg/g)
0.0124302	2.58435
0.0205573	12.2852
0.0357522	30.3759
0.0645691	56.3322
0.109506	62.6247
0.188066	65.5087
0.30714	80.4533
0.352712	85.697
0.431335	91.7272
0.561721	100.641
0.722378	108.507
