Adsorption isotherm of Water on [Cu2(pzdc)2(pyz)]*2H2O}
DOI: 10.1016/j.jcis.2007.05.090
Adsorbate Water: InChIKey XLYOFNOQVPJJNP-UHFFFAOYSA-N
Temperature: 303 K
Tabular data in the source: 0
pressure (bar)	uptake (mg/g)
0.00619484	0.224687
0.0127495	5.46838
0.0193041	12.5474
0.0345982	25.3944
0.0455226	51.0886
0.104514	60.265
0.180985	64.1978
0.298968	81.2398
0.386363	89.6297
0.462833	97.7575
0.631069	108.245
0.714094	113.226
