Adsorption isotherm of Water on [Cu2(pzdc)2(pyz)]*2H2O}
DOI: 10.1016/j.jcis.2007.05.090
Adsorbate Water: InChIKey XLYOFNOQVPJJNP-UHFFFAOYSA-N
Temperature: 303 K
Tabular data in the source: 0
pressure (bar)	uptake (mg/g)
0.00770754	0.749056
0.0146382	4.94401
0.0213478	12.023
0.0331535	25.9188
0.0471488	51.8751
0.0965639	58.6919
0.185716	63.6734
0.295767	80.9776
0.375605	89.3675
0.442323	96.9709
0.629043	107.983
0.704434	115.324
