Adsorption isotherm of U(VI) on Ag-HAP
DOI: 10.1007/s10450-019-00063-z
Article source: Figure 7
Adsorbate U(VI): InChIKey AAORDHMTTHGXCV-UHFFFAOYSA-N
Kind: experiment
Temperature: 333 K
Tabular data in the source: 0
pressure (bar)	uptake (mmol/g)
1.01325	2.44615
1.01325	2.78462
1.01325	3.58461
1.01325	4.38461
1.01325	4.83077
1.01325	5.6
1.01325	5.55385
1.01325	6.50769
