Adsorption isotherm of U(VI) on Ca-HAP
DOI: 10.1007/s10450-019-00063-z
Article source: Figure 7
Adsorbate U(VI): InChIKey AAORDHMTTHGXCV-UHFFFAOYSA-N
Kind: experiment
Temperature: 333 K
Tabular data in the source: 0
pressure (bar)	uptake (mmol/g)
1.01325	2.44444
1.01325	2.93487
1.01325	3.91571
1.01325	4.69732
1.01325	5.31035
1.01325	6
1.01325	6.5977
1.01325	7.36399
