Adsorption isotherm of U(VI) on Ca-HAP
DOI: 10.1007/s10450-019-00063-z
Article source: Figure 7
Adsorbate U(VI): InChIKey AAORDHMTTHGXCV-UHFFFAOYSA-N
Kind: experiment
Temperature: 293 K
Tabular data in the source: 0
pressure (bar)	uptake (mmol/g)
1.01325	2.4751
1.01325	3.02682
1.01325	3.91571
1.01325	4.62069
1.01325	5.20306
1.01325	5.84674
1.01325	6.19923
1.01325	6.93487
