Adsorption isotherm of U(VI) on Ag-HAP
DOI: 10.1007/s10450-019-00063-z
Article source: Figure 7
Adsorbate U(VI): InChIKey AAORDHMTTHGXCV-UHFFFAOYSA-N
Kind: experiment
Temperature: 293 K
Tabular data in the source: 0
pressure (bar)	uptake (mmol/g)
1.01325	2.47692
1.01325	2.69231
1.01325	3.46154
1.01325	4.23077
1.01325	4.56923
1.01325	5.21538
1.01325	5.09231
1.01325	6.2
