Adsorption isotherm of U(VI) on Ag-HAP
DOI: 10.1007/s10450-019-00063-z
Article source: Figure 7
Adsorbate U(VI): InChIKey AAORDHMTTHGXCV-UHFFFAOYSA-N
Kind: experiment
Temperature: 313 K
Tabular data in the source: 0
pressure (bar)	uptake (mmol/g)
1.01325	2.44615
1.01325	2.89231
1.01325	3.49231
1.01325	4.24615
1.01325	4.70769
1.01325	5.44615
1.01325	5.36923
1.01325	6.35385
