Adsorption isotherm of U(VI) on Ca-HAP
DOI: 10.1007/s10450-019-00063-z
Article source: Figure 7
Adsorbate U(VI): InChIKey AAORDHMTTHGXCV-UHFFFAOYSA-N
Kind: experiment
Temperature: 313 K
Tabular data in the source: 0
pressure (bar)	uptake (mmol/g)
1.01325	2.5364
1.01325	2.99617
1.01325	3.96169
1.01325	4.7433
1.01325	5.26437
1.01325	5.90805
1.01325	6.45977
1.01325	7.24138
