Adsorption isotherm of Water on NPC E1
DOI: 10.1016/0008-6223(92)90080-g
Adsorbate Water: InChIKey XLYOFNOQVPJJNP-UHFFFAOYSA-N
Temperature: 298 K
Tabular data in the source: 0
pressure (bar)	uptake (mmol/g)
0.00420797	0.0109539
0.0061406	0.0169486
0.00847307	0.0296576
0.0104723	0.0450673
0.0132713	0.0685243
0.0148041	0.0866388
0.0186027	0.117464
0.0224679	0.150306
0.0264664	0.210049
0.0279992	0.263141
0.0288656	0.321635
0.0294653	0.372065
