Adsorption isotherm of Water on NPC E1
DOI: 10.1016/0008-6223(92)90080-g
Adsorbate Water: InChIKey XLYOFNOQVPJJNP-UHFFFAOYSA-N
Temperature: 298 K
Tabular data in the source: 0
pressure (bar)	uptake (mmol/g)
0.00374148	0.0708337
0.00767336	0.0841663
0.0155371	0.106123
0.017603	0.113459
0.0209351	0.1369
0.0234009	0.157676
0.0261332	0.199297
0.0280659	0.266502
0.0288656	0.321635
0.0294653	0.37341
0.0299318	0.41779
