Adsorption isotherm of Water on NPC E0
DOI: 10.1016/0008-6223(92)90080-g
Adsorbate Water: InChIKey XLYOFNOQVPJJNP-UHFFFAOYSA-N
Temperature: 298 K
Tabular data in the source: 0
pressure (bar)	uptake (mmol/g)
0.000215185	0.0105042
0.00172148	0.0168067
0.00365814	0.0336134
0.00451888	0.039916
0.00624036	0.0504202
0.00753147	0.0546218
0.00903777	0.0651261
0.0114048	0.0798319
0.0135567	0.0882353
0.0152781	0.0966387
0.0176452	0.115546
0.019797	0.12395
0.0215185	0.134454
0.02324	0.14916
0.0251766	0.17437
0.0258222	0.195378
0.0264677	0.210084
0.027974	0.285714
0.0284044	0.338235
0.02905	0.409664
0.0294803	0.453782
0.0299107	0.506303
