Adsorption isotherm of Water on NPC E2
DOI: 10.1016/0008-6223(92)90080-g
Adsorbate Water: InChIKey XLYOFNOQVPJJNP-UHFFFAOYSA-N
Temperature: 293 K
Tabular data in the source: 0
pressure (bar)	uptake (mmol/g)
0.00119135	0.0079231
0.00273818	0.0178661
0.00536107	0.0260503
0.00717691	0.0527411
0.00872374	0.0677146
0.0100016	0.0927696
0.0119519	0.147956
0.013566	0.199815
0.014373	0.218199
0.0171977	0.261581
0.0203586	0.320029
0.0221072	0.358462
0.0245283	0.421997
0.0264787	0.482215
0.0278237	0.539124
0.0293033	0.59267
