Adsorption isotherm of Water on NPC E1
DOI: 10.1016/0008-6223(92)90080-g
Adsorbate Water: InChIKey XLYOFNOQVPJJNP-UHFFFAOYSA-N
Temperature: 293 K
Tabular data in the source: 0
pressure (bar)	uptake (mmol/g)
0.00166212	0.0078872
0.00354522	0.0110973
0.00758043	0.0225274
0.0121537	0.0339165
0.0155836	0.0453928
0.017534	0.0519514
0.0207621	0.0751809
0.023385	0.0967797
0.0258734	0.140187
0.0279582	0.207102
0.0286308	0.260709
0.0293033	0.310963
0.0299086	0.357868
