Adsorption isotherm of Water on NPC E3
DOI: 10.1016/0008-6223(92)90080-g
Adsorbate Water: InChIKey XLYOFNOQVPJJNP-UHFFFAOYSA-N
Temperature: 293 K
Tabular data in the source: 0
pressure (bar)	uptake (mmol/g)
0.000720573	0.0113127
0.00293994	0.0497105
0.00435226	0.0781089
0.00563008	0.109871
0.00677339	0.148351
0.00784945	0.181806
0.00858923	0.203548
0.00986705	0.253756
0.0113466	0.305624
0.0136332	0.402706
0.0149111	0.456267
0.0163906	0.482984
0.0188118	0.521366
0.0230487	0.569671
0.0274875	0.658205
0.0297741	0.728457
