Adsorption isotherm of Water on NPC E4
DOI: 10.1016/0008-6223(92)90080-g
Adsorbate Water: InChIKey XLYOFNOQVPJJNP-UHFFFAOYSA-N
Temperature: 293 K
Tabular data in the source: 0
pressure (bar)	uptake (mmol/g)
0.00119135	0.0498438
0.00320895	0.135208
0.00542832	0.259124
0.00717691	0.391461
0.00899276	0.523792
0.0111449	0.647713
0.0156509	0.840205
0.0210311	1.01251
0.0278237	1.15452
0.0295723	1.19128
