Adsorption isotherm of Carbon Dioxide on Na-A
DOI: 10.1039/c2ee23337a
Adsorbate Carbon Dioxide: InChIKey CURLTUGMZLYLDI-UHFFFAOYSA-N
Temperature: 328 K
Tabular data in the source: 0
pressure (bar)	uptake (mmol/g)
0.0258587	0.202256
0.0564469	0.503768
0.111069	0.851163
0.187539	1.16579
0.277119	1.45419
0.390733	1.69016
0.52401	1.8999
0.663842	2.06377
0.746867	2.1752
0.86485	2.2473
1.0025	2.33906
