Adsorption isotherm of Carbon Dioxide on Ca-X
DOI: 10.1039/c2ee23337a
Adsorbate Carbon Dioxide: InChIKey CURLTUGMZLYLDI-UHFFFAOYSA-N
Temperature: 313 K
Tabular data in the source: 0
pressure (bar)	uptake (mmol/g)
0.0127495	0.77157
0.0345982	1.23039
0.0630016	1.70233
0.150397	2.47577
0.248716	3.02636
0.35359	3.44586
0.478128	3.7867
0.602665	4.06199
0.77964	4.32418
0.87796	4.45527
1.02216	4.61258
