Adsorption isotherm of Carbon Dioxide on Ca-A
DOI: 10.1039/c2ee23337a
Adsorbate Carbon Dioxide: InChIKey CURLTUGMZLYLDI-UHFFFAOYSA-N
Temperature: 313 K
Tabular data in the source: 0
pressure (bar)	uptake (mmol/g)
0.00837971	0.906408
0.0171192	1.55313
0.0389679	2.25229
0.0586318	3.05632
0.113254	3.63313
0.18317	3.89532
0.25527	4.08758
0.312077	4.20994
0.44317	4.41968
0.569892	4.54204
0.709724	4.66439
0.801489	4.71683
0.901993	4.78674
1.04401	4.83918
