Adsorption isotherm of Carbon Dioxide on PS-MFI
DOI: 10.1039/c2ee23337a
Adsorbate Carbon Dioxide: InChIKey CURLTUGMZLYLDI-UHFFFAOYSA-N
Temperature: 313 K
Tabular data in the source: 0
pressure (bar)	uptake (mmol/g)
0.0324133	0.134837
0.108884	0.274669
0.189724	0.405762
0.266195	0.532484
0.342665	0.641728
0.451909	0.78156
0.565523	0.921392
0.70317	1.06559
0.886699	1.24912
1.03309	1.35837
