Adsorption isotherm of Carbon Dioxide on Mg-X
DOI: 10.1039/c2ee23337a
Adsorbate Carbon Dioxide: InChIKey CURLTUGMZLYLDI-UHFFFAOYSA-N
Temperature: 298 K
Tabular data in the source: 0
pressure (bar)	uptake (mmol/g)
0.00619484	0.435412
0.0193041	0.883312
0.0695562	1.87743
0.152581	2.77323
0.244346	3.38499
0.35359	3.83289
0.475943	4.18247
0.60922	4.43373
0.77964	4.70684
1.02216	4.9581
