Adsorption isotherm of Nitrogen on Ca-A
DOI: 10.1039/c2ee23337a
Adsorbate Nitrogen: InChIKey IJGRMHOSHXDMSA-UHFFFAOYSA-N
Temperature: 298 K
Tabular data in the source: 0
pressure (bar)	uptake (mmol/g)
0.0520772	0.0530594
0.128548	0.12953
0.209388	0.184152
0.292413	0.227849
0.386363	0.282471
0.486867	0.348017
0.583002	0.402639
0.631069	0.424488
0.687876	0.457261
0.735943	0.468185
0.768716	0.511883
0.825523	0.522807
