Adsorption isotherm of Carbon Dioxide on Na-X
DOI: 10.1039/c2ee23337a
Adsorbate Carbon Dioxide: InChIKey CURLTUGMZLYLDI-UHFFFAOYSA-N
Temperature: 313 K
Tabular data in the source: 0
pressure (bar)	uptake (mmol/g)
0.0127495	1.23039
0.0258587	1.79409
0.0564469	2.33157
0.0979595	2.89527
0.205018	3.6556
0.325186	4.14065
0.465018	4.48149
0.600481	4.71745
0.777455	4.95342
1.01998	5.17628
