Adsorption isotherm of Carbon Dioxide on Mg-X
DOI: 10.1039/c2ee23337a
Adsorbate Carbon Dioxide: InChIKey CURLTUGMZLYLDI-UHFFFAOYSA-N
Temperature: 313 K
Tabular data in the source: 0
pressure (bar)	uptake (mmol/g)
0.0127495	0.402639
0.0630016	1.12365
0.130733	1.80096
0.218128	2.3581
0.314262	2.77323
0.425691	3.1665
0.548044	3.50516
0.685691	3.76735
0.871405	4.07323
1.01998	4.23709
