Adsorption isotherm of Carbon Dioxide on Na-X
DOI: 10.1039/c2ee23337a
Adsorbate Carbon Dioxide: InChIKey CURLTUGMZLYLDI-UHFFFAOYSA-N
Temperature: 298 K
Tabular data in the source: 0
pressure (bar)	uptake (mmol/g)
0.00400996	0.758461
0.00619484	1.29594
0.0149343	1.92518
0.0302285	2.56754
0.0630016	3.19678
0.163506	4.17997
0.296783	4.74367
0.451909	5.12384
0.685691	5.43846
0.875775	5.58266
1.01561	5.68754
