Adsorption isotherm of Nitrogen on PS-MFI
DOI: 10.1039/c2ee23337a
Adsorbate Nitrogen: InChIKey IJGRMHOSHXDMSA-UHFFFAOYSA-N
Temperature: 298 K
Tabular data in the source: 0
pressure (bar)	uptake (mmol/g)
0.0564469	0.0387028
0.119808	0.0605515
0.244346	0.0824002
0.338296	0.108619
0.432245	0.126098
0.574262	0.156686
0.668212	0.165425
0.810228	0.200383
0.908548	0.226602
1.00468	0.239711
