Adsorption isotherm of Nitrogen on PS-MFI
DOI: 10.1039/c2ee23337a
Adsorbate Nitrogen: InChIKey IJGRMHOSHXDMSA-UHFFFAOYSA-N
Temperature: 298 K
Tabular data in the source: 0
pressure (bar)	uptake (mmol/g)
0.102329	0.0561818
0.143842	0.0649212
0.226867	0.0824002
0.314262	0.0998792
0.408212	0.121728
0.52401	0.139207
0.615775	0.161056
0.716279	0.174165
0.827707	0.196014
0.87796	0.204753
0.928212	0.213493
