Adsorption isotherm of Carbon Dioxide on Mg2(dobdc)
DOI: 10.1039/c2ee23337a
Adsorbate Carbon Dioxide: InChIKey CURLTUGMZLYLDI-UHFFFAOYSA-N
Temperature: 313 K
Tabular data in the source: 0
pressure (bar)	uptake (mmol/cm3)
0.00619484	0.17229
0.0127495	1.23851
0.0411528	2.88153
0.0957747	4.26237
0.18317	5.03145
0.307707	5.62574
0.456279	6.04523
0.602665	6.34237
0.753422	6.62204
0.904178	6.84926
1.00031	7.00658
1.05493	7.05901
