Adsorption isotherm of Carbon Dioxide on Mg-A
DOI: 10.1039/c2ee23337a
Adsorbate Carbon Dioxide: InChIKey CURLTUGMZLYLDI-UHFFFAOYSA-N
Temperature: 328 K
Tabular data in the source: 0
pressure (bar)	uptake (mmol/g)
0.0236738	0.217237
0.0804806	0.706649
0.154766	1.15236
0.231237	1.57186
0.320817	1.869
0.43443	2.15741
0.556783	2.39337
0.70317	2.60312
0.886699	2.81287
1.02872	2.93522
