Adsorption isotherm of Carbon Dioxide on Ca-A
DOI: 10.1039/c2ee23337a
Adsorbate Carbon Dioxide: InChIKey CURLTUGMZLYLDI-UHFFFAOYSA-N
Temperature: 298 K
Tabular data in the source: 0
pressure (bar)	uptake (mmol/g)
0.00619484	1.41861
0.0105646	2.08499
0.0193041	2.71861
0.0520772	3.50516
0.121993	4.00768
0.250901	4.34634
0.421321	4.56482
0.589556	4.71777
0.759976	4.81608
0.928212	4.9144
1.03964	4.9581
1.09426	4.97995
