Adsorption isotherm of Carbon Dioxide on Na-A
DOI: 10.1039/c2ee23337a
Adsorbate Carbon Dioxide: InChIKey CURLTUGMZLYLDI-UHFFFAOYSA-N
Temperature: 298 K
Tabular data in the source: 0
pressure (bar)	uptake (mmol/g)
0.0258587	0.621752
0.0411528	0.864273
0.0586318	1.15268
0.128548	1.69016
0.235607	2.08999
0.281489	2.28007
0.355775	2.43083
0.504346	2.64058
0.663842	2.78478
0.853926	2.96175
0.995943	3.03385
