Adsorption isotherm of Carbon Dioxide on Mg-A
DOI: 10.1039/c2ee23337a
Adsorbate Carbon Dioxide: InChIKey CURLTUGMZLYLDI-UHFFFAOYSA-N
Temperature: 298 K
Tabular data in the source: 0
pressure (bar)	uptake (mmol/g)
0.00837971	0.33959
0.0236738	0.732868
0.0324133	1.23976
0.108884	2.07001
0.198464	2.62934
0.305523	2.9964
0.421321	3.26732
0.554598	3.45085
0.6988	3.60816
0.886699	3.77421
1.02872	3.87035
