Adsorption isotherm of Carbon Dioxide on Na-A
DOI: 10.1039/c2ee23337a
Adsorbate Carbon Dioxide: InChIKey CURLTUGMZLYLDI-UHFFFAOYSA-N
Temperature: 313 K
Tabular data in the source: 0
pressure (bar)	uptake (mmol/g)
0.0236738	0.366121
0.0433377	0.569315
0.0870352	0.995365
0.159136	1.41486
0.25527	1.74259
0.373254	2.01133
0.51527	2.22763
0.576447	2.34562
0.659472	2.41772
0.862665	2.55537
1.00468	2.64058
