Adsorption isotherm of Carbon Dioxide on Ca-X
DOI: 10.1039/c2ee23337a
Adsorbate Carbon Dioxide: InChIKey CURLTUGMZLYLDI-UHFFFAOYSA-N
Temperature: 313 K
Tabular data in the source: 0
pressure (bar)	uptake (mmol/g)
0.0193041	0.640478
0.0477074	1.12552
0.0826654	1.47947
0.154766	2.01695
0.239976	2.39712
0.323002	2.73796
0.43006	3.05258
0.554598	3.3672
0.692245	3.62939
0.87796	3.91779
1.01998	4.12754
