Adsorption isotherm of Carbon Dioxide on Mg2(dobdc)
DOI: 10.1039/c2ee23337a
Adsorbate Carbon Dioxide: InChIKey CURLTUGMZLYLDI-UHFFFAOYSA-N
Temperature: 313 K
Tabular data in the source: 0
pressure (bar)	uptake (mmol/g)
0.00400996	0.119853
0.0127495	1.3259
0.0193041	2.14742
0.0389679	3.17868
0.121993	4.99649
0.25527	5.95784
0.458464	6.62204
0.655102	7.09397
0.808044	7.33868
0.956615	7.58338
1.00687	7.67078
1.0593	7.74069
