Adsorption isotherm of Carbon Dioxide on Na-X
DOI: 10.1039/c2ee23337a
Adsorbate Carbon Dioxide: InChIKey CURLTUGMZLYLDI-UHFFFAOYSA-N
Temperature: 328 K
Tabular data in the source: 0
pressure (bar)	uptake (mmol/g)
0.00619484	0.312747
0.0127495	0.706024
0.0258587	1.16485
0.0542621	1.63678
0.0848503	2.04317
0.17443	2.75107
0.347035	3.47207
0.543674	3.9309
0.781825	4.29796
1.01561	4.56014
