Adsorption isotherm of Carbon Dioxide on Mg-X
DOI: 10.1039/c2ee23337a
Adsorbate Carbon Dioxide: InChIKey CURLTUGMZLYLDI-UHFFFAOYSA-N
Temperature: 328 K
Tabular data in the source: 0
pressure (bar)	uptake (mmol/g)
0.0193041	0.30432
0.0804806	0.82869
0.154766	1.29844
0.237791	1.69171
0.323002	2.01945
0.43006	2.3581
0.552413	2.67491
0.69443	2.99171
0.880144	3.28667
1.01342	3.47239
