Adsorption isotherm of Carbon Dioxide on PS-MFI
DOI: 10.1039/c2ee23337a
Adsorbate Carbon Dioxide: InChIKey CURLTUGMZLYLDI-UHFFFAOYSA-N
Temperature: 328 K
Tabular data in the source: 0
pressure (bar)	uptake (mmol/g)
0.0367831	0.112988
0.121993	0.217862
0.235607	0.348955
0.34922	0.475678
0.460649	0.584921
0.578632	0.689795
0.718464	0.816518
0.899808	0.95198
1.03746	1.04811
