Adsorption isotherm of Carbon Dioxide on Ca-X
DOI: 10.1039/c2ee23337a
Adsorbate Carbon Dioxide: InChIKey CURLTUGMZLYLDI-UHFFFAOYSA-N
Temperature: 298 K
Tabular data in the source: 0
pressure (bar)	uptake (mmol/g)
0.00619484	0.902663
0.0236738	1.46636
0.0433377	2.01695
0.113254	3.00014
0.218128	3.73426
0.333926	4.20619
0.467203	4.57325
0.607035	4.79611
0.77527	5.01897
0.87796	5.11073
1.01998	5.20249
