Adsorption isotherm of Carbon Dioxide on Mg-A
DOI: 10.1039/c2ee23337a
Adsorbate Carbon Dioxide: InChIKey CURLTUGMZLYLDI-UHFFFAOYSA-N
Temperature: 313 K
Tabular data in the source: 0
pressure (bar)	uptake (mmol/g)
0.0345982	0.566817
0.0608167	0.898918
0.132918	1.55438
0.220312	2.05253
0.314262	2.37589
0.427876	2.68178
0.554598	2.909
0.69443	3.10127
0.880144	3.30228
1.0309	3.42463
