Adsorption isotherm of Carbon Dioxide on Ca-A
DOI: 10.1039/c2ee23337a
Adsorbate Carbon Dioxide: InChIKey CURLTUGMZLYLDI-UHFFFAOYSA-N
Temperature: 313 K
Tabular data in the source: 0
pressure (bar)	uptake (mmol/cm3)
0.0105646	1.39582
0.0193041	2.39212
0.0411528	3.44086
0.0586318	4.66439
0.111069	5.52086
0.257455	6.22002
0.449724	6.67447
0.631069	6.93666
0.897623	7.25128
1.04401	7.35616
