Adsorption isotherm of Carbon Dioxide on PS-MFI
DOI: 10.1039/c2ee23337a
Adsorbate Carbon Dioxide: InChIKey CURLTUGMZLYLDI-UHFFFAOYSA-N
Temperature: 298 K
Tabular data in the source: 0
pressure (bar)	uptake (mmol/g)
0.0302285	0.174165
0.102329	0.392652
0.176615	0.598031
0.250901	0.759711
0.331741	0.930131
0.43006	1.1224
0.558968	1.30593
0.6988	1.4982
0.880144	1.67736
1.02216	1.81282
