Adsorption isotherm of Nitrogen on Ca-A
DOI: 10.1039/c2ee23337a
Adsorbate Nitrogen: InChIKey IJGRMHOSHXDMSA-UHFFFAOYSA-N
Temperature: 298 K
Tabular data in the source: 0
pressure (bar)	uptake (mmol/g)
0.00837971	0.0530594
0.102329	0.118606
0.17443	0.162303
0.301153	0.249698
0.403842	0.30432
0.502161	0.358942
0.602665	0.413564
0.705355	0.468185
0.803674	0.500959
0.906363	0.55558
1.00905	0.577429
