Adsorption isotherm of Carbon Dioxide on PS-MFI
DOI: 10.1039/c2ee23337a
Adsorbate Carbon Dioxide: InChIKey CURLTUGMZLYLDI-UHFFFAOYSA-N
Temperature: 298 K
Tabular data in the source: 0
pressure (bar)	uptake (mmol/g)
0.0542621	0.08677
0.0935898	0.230972
0.226867	0.624249
0.338296	0.890804
0.445354	1.10055
0.60922	1.34963
0.768716	1.55064
0.87359	1.65551
0.980649	1.75601
1.03309	1.79097
1.08771	1.82593
