Adsorption isotherm of Carbon Dioxide on Ca-A
DOI: 10.1039/c2ee23337a
Adsorbate Carbon Dioxide: InChIKey CURLTUGMZLYLDI-UHFFFAOYSA-N
Temperature: 298 K
Tabular data in the source: 0
pressure (bar)	uptake (mmol/g)
0	0.500959
0.00619484	1.76819
0.00837971	2.64214
0.0345982	3.47239
0.0935898	3.97491
0.244346	4.45558
0.43006	4.66314
0.624514	4.81608
0.888884	4.97995
1.03746	5.0455
