Adsorption isotherm of Carbon Dioxide on PS-MFI
DOI: 10.1039/c2ee23337a
Adsorbate Carbon Dioxide: InChIKey CURLTUGMZLYLDI-UHFFFAOYSA-N
Temperature: 298 K
Tabular data in the source: 0
pressure (bar)	uptake (mmol/g)
0.0782957	0.156686
0.106699	0.279039
0.185355	0.493157
0.25964	0.689795
0.373254	0.94761
0.469388	1.1224
0.578632	1.29719
0.709724	1.49383
0.794934	1.5987
0.891069	1.72106
1.02653	1.83467
