Adsorption isotherm of Carbon Dioxide on Ca-A
DOI: 10.1039/c2ee23337a
Adsorbate Carbon Dioxide: InChIKey CURLTUGMZLYLDI-UHFFFAOYSA-N
Temperature: 298 K
Tabular data in the source: 0
pressure (bar)	uptake (mmol/g)
0.00400996	0.446337
0.0171192	1.65894
0.0302285	2.47827
0.0367831	3.38499
0.08922	4.04045
0.172245	4.28079
0.312077	4.53205
0.440985	4.68499
0.628884	4.83793
0.794934	4.97995
0.899808	5.02365
1.04401	5.08919
