Adsorption isotherm of Carbon Dioxide on Ca-A
DOI: 10.1039/c2ee23337a
Adsorbate Carbon Dioxide: InChIKey CURLTUGMZLYLDI-UHFFFAOYSA-N
Temperature: 328 K
Tabular data in the source: 0
pressure (bar)	uptake (mmol/g)
0.0105646	0.894236
0.0345982	1.41861
0.0564469	2.01945
0.0870352	2.58751
0.132918	3.06819
0.185355	3.49424
0.43443	4.07323
0.633254	4.32449
0.901993	4.54298
1.03964	4.64129
