Adsorption isotherm of Carbon Dioxide on Ca-A
DOI: 10.1039/c2ee23337a
Adsorbate Carbon Dioxide: InChIKey CURLTUGMZLYLDI-UHFFFAOYSA-N
Temperature: 313 K
Tabular data in the source: 0
pressure (bar)	uptake (mmol/g)
0	0.959782
0.0149343	1.61524
0.0389679	2.29256
0.0542621	3.09003
0.108884	3.6581
0.1788	3.89844
0.4388	4.41188
0.707539	4.66314
0.893254	4.79424
1.04401	4.84886
