Adsorption isotherm of Nitrogen on COF-NHC
DOI: 10.1039/c9gc01993f
Article source: Figure 2
Adsorbate Nitrogen: InChIKey IJGRMHOSHXDMSA-UHFFFAOYSA-N
Kind: experiment
Temperature: 77 K
Tabular data in the source: 0
pressure (bar)	uptake (cm3(STP)/g)
0.00353	5.46638
0.02236	7.80911
0.036482	8.85032
0.057665	9.37093
0.078848	9.89154
0.102384	10.9328
0.121213	10.9328
0.140043	11.7137
0.161226	11.7137
0.182409	12.4946
0.203591	13.0152
0.253018	13.5358
0.307152	14.0564
0.356579	14.8373
0.406006	15.3579
0.457787	16.1388
0.507213	16.9197
0.558994	17.18
0.606067	18.2213
0.657848	19.0022
0.709628	20.3037
0.759055	21.6052
0.810835	23.4273
0.860262	26.2907
0.912043	30.7158
0.959116	39.5662
0.980299	51.2798
1.00619	73.4056
0.989713	56.7462
0.902628	34.8807
0.789652	27.0716
0.682561	23.5575
0.58253	21.2148
0.496622	19.7831
0.396591	16.269
0.2895	15.0976
0.182409	13.5358
0.149457	13.0152
0.125921	12.2343
0.102384	11.974
0.090616	11.974
0.076494	11.1931
0.062372	10.6725
0.043543	9.89154
0.034128	9.89154
0.02236	9.11063
0.00353	7.0282
