Adsorption isotherm of Nitrogen on Pd@COF-NHC
DOI: 10.1039/c9gc01993f
Article source: Figure 2
Adsorbate Nitrogen: InChIKey IJGRMHOSHXDMSA-UHFFFAOYSA-N
Kind: experiment
Temperature: 77 K
Tabular data in the source: 0
pressure (bar)	uptake (cm3(STP)/g)
0.005884	1.56182
0.02236	1.82213
0.041189	2.60304
0.060018	3.12364
0.078848	3.64425
0.102384	3.64425
0.114152	4.16486
0.140043	3.90456
0.165933	4.68547
0.201238	4.94577
0.255372	5.72668
0.304799	5.98699
0.356579	6.50759
0.406006	7.0282
0.457787	7.54881
0.507213	7.80911
0.55664	8.59002
0.606067	9.63124
0.660201	10.9328
0.707274	11.974
0.759055	13.7961
0.808482	15.8785
0.860262	19.2625
0.912043	23.9479
0.963823	33.3189
1.00619	68.4599
0.98736	53.6226
0.909689	28.6334
0.792006	19.2625
0.686091	14.577
0.58253	10.9328
0.497799	9.11063
0.394238	6.7679
0.29303	5.72668
0.182409	4.94577
0.149457	4.42516
0.123567	3.90456
0.102384	3.64425
0.088262	3.38395
0.075317	3.38395
0.060018	2.86334
0.045896	2.60304
0.034128	2.34273
0.024713	1.82213
0.00353	0.780911
