Adsorption isotherm of Carbon Dioxide on Zn2(bpdc)2(bpee)
DOI: 10.1021/Ja2051149
Adsorbate Carbon Dioxide: InChIKey CURLTUGMZLYLDI-UHFFFAOYSA-N
Temperature: 273 K
Tabular data in the source: 0
pressure (bar)	uptake (molecules/unitcell)
0.00139459	0.000692257
0.00286145	0.00224984
0.00401778	0.0179554
0.00520831	0.0185179
0.0066183	0.0190371
0.00857959	0.0345696
0.0104753	0.0499723
0.0144177	0.0806047
0.0176034	0.0960074
0.0210686	0.156277
0.0257239	0.17168
0.0326879	0.262019
0.0361191	0.861038
0.0407161	1.37028
0.0538452	1.93975
0.0657441	2.25455
0.0835404	2.55447
0.102002	2.76449
0.129614	3.00453
0.168023	3.18473
0.201097	3.34979
0.260688	3.52999
0.324711	3.63526
0.420934	3.80049
0.524312	3.90576
0.579351	4.01076
0.653079	4.08587
0.736188	4.17595
0.829873	4.26603
0.93548	4.38605
1.05453	4.91027
