Adsorption isotherm of Carbon Dioxide on Zn2(bpdc)2(bpee)
DOI: 10.1021/Ja2051149
Adsorbate Carbon Dioxide: InChIKey CURLTUGMZLYLDI-UHFFFAOYSA-N
Temperature: 288 K
Tabular data in the source: 0
pressure (bar)	uptake (molecules/unitcell)
0.0169144	0.0510107
0.0257239	0.0668893
0.033347	0.0973919
0.0432291	0.142865
0.0538452	0.158311
0.0657441	0.263534
0.078684	0.982486
0.102002	1.64173
0.129614	2.09135
0.161446	2.36129
0.205151	2.6163
0.255535	2.87127
0.324711	3.09634
0.404457	3.27645
0.513947	3.45661
0.591034	3.54674
0.736188	3.71188
0.813469	3.75701
0.93548	3.8621
1.03368	3.95214
