Adsorption isotherm of Carbon Dioxide on Zn2(bpdc)2(bpee)
DOI: 10.1021/Ja2051149
Adsorbate Carbon Dioxide: InChIKey CURLTUGMZLYLDI-UHFFFAOYSA-N
Temperature: 298 K
Tabular data in the source: 0
pressure (bar)	uptake (molecules/unitcell)
0.0228201	0.0366896
0.0326879	0.0823786
0.0415371	0.0978678
0.0527809	0.098387
0.0644446	0.12876
0.0818892	0.204129
0.106157	0.279542
0.129614	1.20812
0.164702	1.76253
0.205151	2.07738
0.260688	2.3773
0.318293	2.66216
0.412614	2.93218
0.524312	3.14228
0.579351	3.21735
0.653079	3.3224
0.721635	3.39747
0.846607	3.51757
0.93548	3.60761
1.01	3.68263
