Adsorption isotherm of Carbon Dioxide on Zn2(bpdc)2(bpee)
DOI: 10.1021/Ja2051149
Adsorbate Carbon Dioxide: InChIKey CURLTUGMZLYLDI-UHFFFAOYSA-N
Temperature: 278 K
Tabular data in the source: 0
pressure (bar)	uptake (molecules/unitcell)
0.00177209	0.00121145
0.00452904	0.00324496
0.0127902	0.065375
0.0262426	0.126813
0.0326879	0.142259
0.0415371	0.277509
0.0517376	1.28098
0.0631708	1.88021
0.0818892	2.24006
0.102002	2.49502
0.127052	2.73502
0.158255	2.96005
0.205151	3.17019
0.255535	3.33534
0.324711	3.5155
0.404457	3.6507
0.513947	3.81589
0.5679	3.87599
0.666248	3.93622
0.736188	4.05619
0.881096	4.17634
1.05453	4.29649
