Adsorption isotherm of Carbon Dioxide on PCN-123
DOI: 10.1021/Ja209197f
Adsorbate Carbon Dioxide: InChIKey CURLTUGMZLYLDI-UHFFFAOYSA-N
Temperature: 295 K
Tabular data in the source: 0
pressure (bar)	uptake (cm3(STP)/g)
0.0992866	2.53699
0.139904	3.66989
0.177512	4.7576
0.219634	5.89037
0.254234	6.97833
0.278303	7.47628
0.293347	8.06591
0.338477	9.0166
0.37759	10.0587
0.415199	11.101
0.461833	12.1879
0.497937	13.1848
0.53705	14.1815
0.577668	15.178
0.64085	16.7181
0.661911	17.1709
0.699519	18.1222
0.740137	19.2096
0.774736	20.1158
0.798806	20.5683
0.818362	20.9757
0.83491	21.3834
0.857475	22.0178
0.877032	22.3798
0.895084	22.9237
0.916145	23.3765
0.931188	23.6479
0.959771	24.2364
0.977823	24.7348
0.998884	25.0967
1.02446	25.5945
1.04101	25.9567
1.05755	26.3644
