Adsorption isotherm of Carbon Dioxide on PCN-123
DOI: 10.1021/Ja209197f
Adsorbate Carbon Dioxide: InChIKey CURLTUGMZLYLDI-UHFFFAOYSA-N
Temperature: 295 K
Tabular data in the source: 0
pressure (bar)	uptake (cm3(STP)/g)
0.27379	6.97666
0.296356	7.47474
0.339981	8.47102
0.379094	9.46769
0.425729	10.4183
0.466346	11.3239
0.509972	12.3202
0.553598	13.2255
0.594215	14.1312
0.636337	15.0821
0.679963	15.942
0.725093	16.8473
0.76571	17.6166
0.810841	18.3854
0.854467	19.109
0.89358	20.0147
0.93871	20.6927
0.977823	21.4167
1.02446	22.0945
1.04101	22.4567
1.06808	22.7271
