Adsorption isotherm of Carbon Dioxide on PCN-123
DOI: 10.1021/Ja209197f
Adsorbate Carbon Dioxide: InChIKey CURLTUGMZLYLDI-UHFFFAOYSA-N
Temperature: 295 K
Tabular data in the source: 0
pressure (bar)	uptake (cm3(STP)/g)
0.0960265	2.61804
0.142897	3.58888
0.186337	4.40982
0.226348	5.532
0.268646	6.3531
0.293795	6.80068
0.333806	7.92286
0.373817	8.51872
0.418401	9.64026
0.460699	10.5366
0.504139	11.4327
0.548723	12.2535
0.593307	13.0742
0.634461	13.8203
0.700765	15.014
0.743062	15.5343
0.786503	16.4305
0.831086	17.4016
0.871097	18.0727
0.915681	18.7431
0.937402	19.0408
0.959122	19.3385
0.979699	19.7115
0.999133	20.0847
1.02428	20.2315
1.06544	20.8272
