Adsorption isotherm of Carbon Dioxide on PCN-123
DOI: 10.1021/Ja209197f
Adsorbate Carbon Dioxide: InChIKey CURLTUGMZLYLDI-UHFFFAOYSA-N
Temperature: 295 K
Tabular data in the source: 0
pressure (bar)	uptake (cm3(STP)/g)
0.0556607	1.31344
0.0962779	2.40088
0.136895	3.30651
0.176008	4.30318
0.215121	5.16348
0.255738	6.25093
0.296356	6.97474
0.338477	8.0166
0.374581	8.83171
0.418207	9.69163
0.460329	10.5971
0.50245	11.3663
0.53705	12.1815
0.579172	13.087
0.61678	13.9474
0.652885	14.6262
0.699519	15.7586
0.737128	16.3463
0.780754	17.3425
0.821371	18.0209
0.855971	18.7907
0.896588	19.6509
0.935701	20.3748
0.976318	20.9622
1.01994	21.7767
1.06056	22.4551
