Adsorption isotherm of Carbon Dioxide on PCN-123
DOI: 10.1021/Ja209197f
Adsorbate Carbon Dioxide: InChIKey CURLTUGMZLYLDI-UHFFFAOYSA-N
Temperature: 295 K
Tabular data in the source: 0
pressure (bar)	uptake (cm3(STP)/g)
0.0342952	0.747044
0.0571586	0.894197
0.0765926	0.966645
0.099456	1.48974
0.11889	1.78775
0.141753	2.23565
0.163474	2.60853
0.184051	2.90638
0.204628	2.7531
0.226348	2.90042
0.252641	3.34784
0.269789	3.42061
0.294939	3.793
0.312086	4.01615
0.332663	4.23881
0.357813	4.46083
0.398967	4.83097
0.419544	5.12882
0.468701	5.34745
0.486992	5.49525
0.507569	5.7931
0.528146	5.7902
0.552152	6.08757
0.572729	6.38542
0.595593	6.60776
0.634461	6.82784
0.681331	7.12199
0.723628	7.49196
0.764782	7.93729
0.78536	7.8592
0.810509	8.1564
0.83223	8.37891
0.856236	8.37552
0.874527	8.44813
0.896247	8.8962
0.908822	8.81923
0.916824	8.89329
0.937402	9.26633
0.949976	9.039
0.984272	9.18454
1.00028	9.48303
1.03	9.55403
1.06658	9.84962
