Adsorption isotherm of Carbon Dioxide on PCN-123
DOI: 10.1021/Ja209197f
Adsorbate Carbon Dioxide: InChIKey CURLTUGMZLYLDI-UHFFFAOYSA-N
Temperature: 295 K
Tabular data in the source: 0
pressure (bar)	uptake (cm3(STP)/g)
0.168486	3.03109
0.212112	3.84556
0.237686	4.34338
0.278303	4.97628
0.315912	5.60944
0.353521	6.28805
0.415199	7.10097
0.436259	7.37191
0.475372	7.91403
0.520503	8.45564
0.56112	9.04308
0.598728	9.53988
0.64085	9.94538
0.698015	10.7132
0.737128	11.119
0.782258	11.6606
0.818362	12.0666
0.857475	12.6087
0.89358	12.6966
0.940214	13.0108
0.977823	13.4167
1.01994	13.7767
1.05755	14.319
