Adsorption isotherm of Carbon Dioxide on PCN-123
DOI: 10.1021/Ja209197f
Adsorbate Carbon Dioxide: InChIKey CURLTUGMZLYLDI-UHFFFAOYSA-N
Temperature: 273 K
Tabular data in the source: 0
pressure (bar)	uptake (cm3(STP)/g)
0.0765926	3.82379
0.121176	5.84758
0.139467	6.89763
0.185194	9.22201
0.203485	10.1217
0.246925	12.0704
0.268646	13.4208
0.312086	15.5951
0.357813	17.9195
0.40011	20.094
0.442408	22.494
0.488135	24.9688
0.527003	27.2941
0.552152	28.3432
0.593307	30.969
0.613884	32.0939
0.658467	34.7944
0.697335	37.2701
0.723628	38.5446
0.744205	39.8951
0.78536	42.596
0.804793	43.9467
0.829943	45.3717
0.849377	46.4968
0.871097	47.9223
0.872241	47.9221
0.892818	49.1974
0.915681	50.6228
0.935115	51.9734
0.956835	53.4741
0.979699	54.5235
0.999133	55.7238
1.01971	56.9991
1.04029	58.5751
1.06887	60.0749
