Adsorption isotherm of Carbon Dioxide on PCN-123
DOI: 10.1021/Ja209197f
Adsorbate Carbon Dioxide: InChIKey CURLTUGMZLYLDI-UHFFFAOYSA-N
Temperature: 295 K
Tabular data in the source: 0
pressure (bar)	uptake (cm3(STP)/g)
0.188043	2.89306
0.215121	3.02712
0.249721	3.38781
0.294851	4.02032
0.336973	4.56219
0.379094	4.96769
0.425729	5.46371
0.466346	5.9148
0.508468	6.27484
0.552094	6.72567
0.59572	7.26741
0.661911	7.71631
0.704032	8.07636
0.761197	8.61694
0.83491	8.97429
0.878536	9.37966
0.919153	9.69438
0.980831	10.28
1.02446	10.4581
1.06658	10.5909
