Adsorption isotherm of Carbon Dioxide on PCN-123
DOI: 10.1021/Ja209197f
Adsorbate Carbon Dioxide: InChIKey CURLTUGMZLYLDI-UHFFFAOYSA-N
Temperature: 295 K
Tabular data in the source: 0
pressure (bar)	uptake (cm3(STP)/g)
0.166982	3.39486
0.212112	4.34556
0.25273	5.16028
0.291842	5.79331
0.338477	6.56206
0.37759	7.286
0.424225	8.05475
0.461833	8.77882
0.509972	9.50199
0.547581	10.0897
0.573155	10.2693
0.613772	10.9477
0.639346	11.2182
0.682972	11.8963
0.719076	12.4842
0.759693	13.1171
0.786771	13.4329
0.828893	13.9748
0.872519	14.5165
0.913136	15.104
0.962779	15.5998
1.00039	16.0511
1.02145	16.2766
1.06357	16.773
