Adsorption isotherm of Carbon Dioxide on PCN-123
DOI: 10.1021/Ja209197f
Adsorbate Carbon Dioxide: InChIKey CURLTUGMZLYLDI-UHFFFAOYSA-N
Temperature: 273 K
Tabular data in the source: 0
pressure (bar)	uptake (cm3(STP)/g)
0.185194	9.07163
0.249212	12.2957
0.289223	14.3953
0.312086	15.5951
0.464128	23.7691
0.617313	32.1686
0.633318	33.219
0.679045	35.4682
0.681331	35.8438
0.697335	36.9694
0.721342	38.169
0.741919	39.5195
0.763639	40.945
0.786503	41.844
0.80708	42.9689
0.8288	44.3944
0.85052	45.5944
0.872241	47.0199
0.891675	48.0698
0.914538	49.1192
0.935115	50.3193
0.957979	51.9702
0.979699	52.9446
1.00028	54.2951
1.02428	55.2691
1.04143	56.6953
1.06315	57.9704
