Adsorption isotherm of Nitrogen on nano-Si/ZnO/C nanocomposite
DOI: 10.1016/j.electacta.2015.05.111
Article source: Figure 3c
Adsorbate Nitrogen: InChIKey IJGRMHOSHXDMSA-UHFFFAOYSA-N
Kind: experiment
Temperature: 77 K
Tabular data in the source: 0
pressure (bar)	uptake (cm3(STP)/g)
0.000191	22.6415
0.000247	29.2453
0.000307	36.3208
0.00037	43.8679
0.001828	16.5094
0.003808	50.9434
0.030899	59.434
0.051188	62.2642
0.073162	64.6226
0.105265	66.5094
0.10528	68.3962
0.127254	70.7547
0.1323	68.3962
0.154281	71.6981
0.161017	69.3396
0.177932	72.6415
0.18636	70.7547
0.201583	73.5849
0.215072	71.2264
0.226917	74.0566
0.238723	72.1698
0.252249	74.0566
0.26744	73.1132
0.277592	75.4717
0.292779	74.0566
0.302927	75.9434
0.318114	74.5283
0.355299	78.3019
0.363714	75
0.404281	79.2453
0.414389	76.4151
0.46171	80.6604
0.468433	76.8868
0.505653	84.9057
0.517415	77.8302
0.551258	85.8491
0.573151	78.7736
0.60192	85.8491
0.622125	78.7736
0.654275	86.3208
0.674484	79.717
0.704941	86.7925
0.723467	80.6604
0.757309	88.6792
0.775825	81.6038
0.813049	90.0943
0.823119	82.5472
0.865429	93.3962
0.870411	83.4906
0.902585	93.8679
0.91602	84.9057
0.965033	89.6226
0.990424	96.6981
0.992185	105.189
1.00743	110.377
1.01263	126.887
