Adsorption isotherm of Nitrogen on nano-Si/C nanocomposite
DOI: 10.1016/j.electacta.2015.05.111
Article source: Figure 3c
Adsorbate Nitrogen: InChIKey IJGRMHOSHXDMSA-UHFFFAOYSA-N
Kind: experiment
Temperature: 77 K
Tabular data in the source: 0
pressure (bar)	uptake (cm3(STP)/g)
0.000283	33.4906
0.00037	43.8679
0.000458	54.2453
0.001892	24.0566
0.003931	65.566
0.005707	75.9434
0.03115	89.1509
0.053144	93.8679
0.073437	97.1698
0.103858	100
0.105562	101.887
0.130898	102.358
0.130926	105.66
0.157958	107.075
0.163001	104.245
0.179928	108.962
0.186659	106.132
0.205267	109.906
0.215375	107.075
0.228917	110.849
0.239026	108.019
0.252568	111.792
0.266058	109.434
0.279595	112.736
0.293086	110.377
0.306652	116.981
0.320114	111.321
0.355638	118.396
0.365721	112.736
0.408021	122.17
0.418081	113.679
0.460412	126.887
0.472133	115.094
0.5077	127.358
0.51943	116.509
0.5533	127.83
0.57517	117.925
0.603971	128.774
0.622464	118.868
0.664782	130.66
0.674827	120.283
0.707004	131.132
0.725493	120.755
0.75938	133.962
0.774479	122.17
0.81344	136.321
0.826842	123.585
0.8692	140.094
0.872451	125
0.904724	147.17
0.91807	127.83
0.936834	150
0.967105	134.906
0.974011	152.83
0.99083	144.811
0.994315	157.547
1.0062	164.623
1.00791	167.453
1.01317	190.566
