Adsorption isotherm of Nitrogen on nano-Si
DOI: 10.1016/j.electacta.2015.05.111
Article source: Figure 3c
Adsorbate Nitrogen: InChIKey IJGRMHOSHXDMSA-UHFFFAOYSA-N
Kind: experiment
Temperature: 77 K
Tabular data in the source: 0
pressure (bar)	uptake (cm3(STP)/g)
4e-06	0.471698
0.032126	4.71698
0.05071	5.66038
0.07773	5.66038
0.104754	6.13208
0.130089	6.60377
0.155424	7.07547
0.182445	7.07547
0.206091	7.54717
0.231422	7.54717
0.256758	8.01887
0.28547	8.49057
0.309121	9.43396
0.359784	9.43396
0.410453	10.3774
0.462813	11.3208
0.486467	12.7358
0.511786	11.3208
0.5422	13.2075
0.564142	11.7925
0.59963	14.6226
0.613124	12.7358
0.658748	16.0377
0.663794	13.6792
0.714465	14.6226
0.714485	16.9811
0.76345	16.0377
0.763478	19.3396
0.771922	19.3396
0.81244	17.9245
0.812464	20.7547
0.822604	21.6981
0.859741	19.8113
0.866504	20.7547
0.866524	23.1132
0.874976	24.0566
0.903676	23.1132
0.903705	26.4151
0.915506	24.0566
0.947624	27.8302
0.957768	29.2453
0.964535	30.6604
0.964571	34.9057
0.976388	34.434
0.989946	40.0943
0.993419	51.4151
0.995032	42.4528
1.00366	64.1509
1.00367	66.0377
1.00529	57.5472
1.00538	68.3962
1.01047	70.283
