Adsorption isotherm of U(VI), Calcium on C-S-H
DOI: 10.1016/j.pce.2017.05.005
Article source: Figure 1
Adsorbate U(VI): InChIKey AAORDHMTTHGXCV-UHFFFAOYSA-N
Adsorbate Calcium: InChIKey OYPRJOBELJOOCE-UHFFFAOYSA-N
Kind: experiment
Temperature: 298 K
Tabular data in the source: 0
pressure (bar)	U(VI) fraction	U(VI) uptake (mmol/mol)	Calcium fraction	Calcium uptake (mmol/mol)	total uptake (mmol/mol)
1.01325	6.2e-05	0.008721			
1.01325	7.1e-05	0.010915			
1.01325	0.000153	0.019861			
1.01325	0.000225	0.02662			
1.01325	0.000433	0.039652			
1.01325	0.000623	0.063974			
1.01325	0.000665	0.07257			
