Adsorption isotherm of Nitrogen on Acid-activated kaolinite
DOI: 10.1007/s11164-016-2638-0
Article source: Figure 7
Adsorbate Nitrogen: InChIKey IJGRMHOSHXDMSA-UHFFFAOYSA-N
Kind: experiment
Temperature: 77 K
Tabular data in the source: 0
pressure (bar)	uptake (cm3(STP)/g)
0.050591	23.752
0.100492	26.507
0.151285	28.466
0.202079	30.399
0.252203	32.094
0.302773	33.736
0.328165	34.556
0.353344	35.51
0.379627	36.224
0.40363	36.995
0.429802	37.804
0.455528	38.55
0.482318	39.338
0.506899	40.063
0.531125	40.925
0.556942	41.807
0.582313	42.49
0.609184	43.32
0.627757	44.056
0.648528	44.686
0.668864	45.475
0.687071	46.242
0.710153	47.093
0.72987	48.029
0.751168	48.733
0.769822	49.9
0.790694	50.825
0.813056	52.339
0.831355	53.211
0.856554	55.241
0.882544	57.238
0.892534	58.216
0.903143	59.31
0.911623	60.657
0.922323	62.097
0.931685	63.77
0.942912	65.842
0.953429	68.335
0.963501	71.059
0.970127	72.816
0.971981	74.32
0.977291	76.877
0.982316	79.875
0.988507	83.241
0.993887	86.092
0.995569	89.796
0.998741	91.09
1.00351	97.896
1.00721	102.083
1.0088	105.471
