Adsorption isotherm of Carbon Dioxide on Cu-SDU-1
DOI: 10.1021/Ic5017092
Adsorbate Carbon Dioxide: InChIKey CURLTUGMZLYLDI-UHFFFAOYSA-N
Temperature: 273 K
Tabular data in the source: 0
pressure (bar)	uptake (cm3(STP)/g)
0.0182064	3.29135
0.0424605	6.95252
0.0707135	9.70869
0.0909272	12.8203
0.11918	15.5764
0.149445	18.3347
0.177704	21.2727
0.201911	23.2974
0.232161	25.5102
0.25033	27.5288
0.282577	29.1981
0.306789	31.4047
0.33703	33.2538
0.357191	34.5472
0.381398	36.5719
0.417674	38.4272
0.44187	40.0883
0.470088	41.5717
0.494279	43.051
0.518471	44.5303
0.546676	45.6501
0.576906	47.1355
0.603109	48.6169
0.623255	49.3647
0.653489	51.032
0.679677	51.9679
0.707883	53.0877
0.736094	54.3892
0.762288	55.5069
0.786463	56.4408
0.816677	57.3808
0.83884	58.3125
0.871066	59.2546
0.897249	60.0086
0.927462	60.9486
0.953646	61.7027
0.983863	62.8245
1.01205	63.217
1.04025	64.3367
1.08253	64.9254
