Adsorption isotherm of Carbon Dioxide on SDU-1
DOI: 10.1021/Ic5017092
Adsorbate Carbon Dioxide: InChIKey CURLTUGMZLYLDI-UHFFFAOYSA-N
Temperature: 295 K
Tabular data in the source: 0
pressure (bar)	uptake (cm3(STP)/g)
0.0107302	6.53631
0.0386286	8.17039
0.0665271	9.42737
0.0922795	10.433
0.122324	11.0615
0.148076	12.067
0.171683	12.8212
0.203874	13.5754
0.225333	14.2039
0.255378	14.9581
0.28113	15.5866
0.306883	15.838
0.334782	16.2151
0.36268	16.7179
0.388432	17.095
0.412038	17.4721
0.446375	17.8492
0.46569	17.9749
0.489296	18.352
0.51934	18.4777
0.542946	18.4777
0.570845	18.7291
0.598744	19.2318
0.628788	19.1061
0.652394	19.3575
0.673855	19.4832
0.706045	19.4832
0.733944	19.3575
0.761843	19.4832
0.78974	19.3575
0.813346	19.1061
0.841245	19.2318
0.869143	19.1061
0.894896	18.8547
0.922795	18.4777
0.954985	17.8492
0.978592	17.5978
1.00005	17.3464
1.0258	16.8436
1.06014	15.9637
1.07946	15.2095
