Adsorption isotherm of Nitrogen on Cu-SDU-1 (40 degrees C)
DOI: 10.1021/Ic5017092
Adsorbate Nitrogen: InChIKey IJGRMHOSHXDMSA-UHFFFAOYSA-N
Temperature: 77 K
Tabular data in the source: 0
pressure (bar)	uptake (cm3(STP)/g)
-0.00166272	21.4237
1.49794e-05	60.3475
0.00259144	80.1233
0.00347522	100.628
0.00435901	41.1323
0.0076395	117.242
0.0199825	123.61
0.0355911	125.74
0.0632431	127.288
0.0736089	127.781
0.0874049	127.86
0.109814	127.77
0.127041	127.434
0.147727	127.378
0.171874	127.603
0.189085	126.919
0.206311	126.583
0.263189	126.169
0.351028	124.107
0.3717	123.704
0.423349	122
0.507727	119.658
0.564544	117.854
0.57834	117.933
0.631697	115.848
0.695404	113.909
0.888249	108.06
0.9313	106.872
0.941651	107.018
