Adsorption isotherm of Hydrogen on Cu-SDU-1
DOI: 10.1021/Ic5017092
Adsorbate Hydrogen: InChIKey UFHFLCQGNIYNRP-UHFFFAOYSA-N
Temperature: 77 K
Tabular data in the source: 0
pressure (bar)	uptake (cm3(STP)/g)
0.0114094	11.7512
0.0376402	27.4194
0.065044	35.4839
0.0861211	41.7051
0.113916	47.235
0.141782	52.3041
0.163215	56.2212
0.186815	60.3687
0.219479	62.9032
0.245425	66.129
0.267035	68.894
0.293231	70.5069
0.325931	72.8111
0.347754	74.1935
0.371711	76.0369
0.400038	78.1106
0.430677	79.4931
0.4525	80.8756
0.478731	82.2581
0.507201	83.4101
0.533503	84.3318
0.553265	84.7926
0.581699	86.1751
0.614576	87.3272
0.640878	88.2488
0.658473	88.4793
0.69142	89.1705
0.719962	89.8618
0.741892	90.553
0.766061	91.0138
0.792435	91.4747
0.825419	91.9355
0.856199	92.3963
0.882607	92.6267
0.908981	93.0876
0.937592	93.318
0.961762	93.7788
0.992542	94.2396
