Adsorption isotherm of Nitrogen on SDU-1
DOI: 10.1021/Ic5017092
Adsorbate Nitrogen: InChIKey IJGRMHOSHXDMSA-UHFFFAOYSA-N
Temperature: 77 K
Tabular data in the source: 0
pressure (bar)	uptake (cm3(STP)/g)
0.00217994	22.2447
0.0108731	29.728
0.0302725	37.5934
0.047432	39.8496
0.0752513	39.871
0.0902375	40.2564
0.111643	40.6467
0.130903	40.6615
0.148023	40.6747
0.165149	41.0617
0.186548	41.0781
0.205815	41.4668
0.22722	41.8571
0.244333	41.4964
0.265733	41.5129
0.280719	41.8983
0.302118	41.9147
0.321385	42.3034
0.342784	42.3199
0.364176	41.9625
0.383442	42.3512
0.392002	42.3578
0.419829	42.753
0.430521	42.3874
0.458334	42.035
0.466894	42.0416
0.492587	42.809
0.509706	42.8222
0.537525	42.8436
0.548225	42.8518
0.576051	43.2471
0.586744	42.8815
0.614577	43.6505
0.631689	43.2899
0.650949	43.3047
0.663781	42.9407
0.689467	43.3343
0.713014	43.7263
0.73656	44.1182
0.747266	44.5003
0.770792	43.7708
0.783632	43.7806
0.809298	43.0527
0.830704	43.443
0.847823	43.4562
0.862803	43.4677
0.888496	44.2352
0.907755	44.25
0.927015	44.2648
0.948401	43.5336
