Adsorption isotherm of Methane on SDU-1
DOI: 10.1021/Ic5017092
Adsorbate Methane: InChIKey VNWKTOKETHGBQD-UHFFFAOYSA-N
Temperature: 273 K
Tabular data in the source: 0
pressure (bar)	uptake (cm3(STP)/g)
0.0112508	1.01892
0.0360026	1.81568
0.0630047	2.39073
0.0900066	2.92147
0.121509	3.49634
0.146261	3.8942
0.175514	4.29188
0.200265	4.8227
0.227267	5.17615
0.254268	5.70689
0.279021	6.10475
0.310522	6.45801
0.337526	6.94442
0.364527	7.38651
0.384779	7.6516
0.41628	8.00486
0.450034	8.44667
0.465784	8.75627
0.490536	9.10981
0.517539	9.41894
0.54904	9.81652
0.571542	9.99287
0.598544	10.2134
0.623297	10.6555
0.645798	10.6989
0.67505	11.1409
0.706553	11.3169
0.731304	11.6704
0.751556	11.8026
0.785309	12.1114
0.81456	12.3761
0.841563	12.4636
0.866314	12.7729
0.886566	12.905
0.922568	13.1694
0.94282	13.3015
0.972072	13.5219
0.999074	13.6538
1.02833	13.8298
1.06208	13.9171
1.08458	13.9161
