Adsorption isotherm of Carbon Dioxide on SDU-1
DOI: 10.1021/Ic5017092
Adsorbate Carbon Dioxide: InChIKey CURLTUGMZLYLDI-UHFFFAOYSA-N
Temperature: 273 K
Tabular data in the source: 0
pressure (bar)	uptake (cm3(STP)/g)
0.00858413	7.2905
0.0364826	10.9358
0.0665271	13.9525
0.0922795	16.2151
0.118032	17.9749
0.145931	19.8603
0.171683	21.1173
0.206019	23.1285
0.223187	24.5112
0.257524	25.7682
0.285423	26.7737
0.309029	28.1564
0.332635	29.2877
0.360534	30.2933
0.388432	31.0475
0.412038	32.0531
0.437791	32.8073
0.467835	33.4358
0.489296	34.3156
0.51934	34.9441
0.536508	35.5726
0.568699	36.0754
0.594451	36.5782
0.62235	37.2067
0.650248	37.4581
0.676	37.9609
0.703899	38.2123
0.729652	38.7151
0.75755	38.8408
0.794032	39.3436
0.813346	39.595
0.832661	39.7207
0.864852	39.9721
0.886312	39.8464
0.91421	39.4693
0.948547	39.595
0.972153	39.4693
1.00005	39.0922
1.02795	38.8408
1.06443	37.8352
1.0816	37.3324
