Adsorption isotherm of Nitrogen on Cu-SDU-1 (100 degrees C)
DOI: 10.1021/Ic5017092
Adsorbate Nitrogen: InChIKey IJGRMHOSHXDMSA-UHFFFAOYSA-N
Temperature: 77 K
Tabular data in the source: 0
pressure (bar)	uptake (cm3(STP)/g)
0.0112049	110.752
0.0302207	113.893
0.0457371	115.001
0.059524	115.791
0.0733008	116.232
0.0973852	116.13
0.111162	116.571
0.130078	116.215
0.154171	116.462
0.302057	113.684
0.443083	111.735
0.656253	105.631
0.690655	105.335
0.793841	103.746
