Adsorption isotherm of Nitrogen on Cu-SDU-1
DOI: 10.1021/Ic5017092
Adsorbate Nitrogen: InChIKey IJGRMHOSHXDMSA-UHFFFAOYSA-N
Temperature: 77 K
Tabular data in the source: 0
pressure (bar)	uptake (cm3(STP)/g)
0	20
0.000722235	60.5008
0.00109004	81.1263
0.00358442	101.004
0.00464103	40.2554
0.00602532	117.882
0.0146988	124.267
0.0318653	126.912
0.0532916	128.437
0.0682846	129.204
0.0875577	129.976
0.102544	130.369
0.115397	131.134
0.13467	131.906
0.151783	131.551
0.164616	131.191
0.190302	131.595
0.207421	131.615
0.224542	131.635
0.245941	131.66
0.26948	131.687
0.348652	131.404
0.42141	131.488
0.504849	130.46
0.562621	130.152
0.635366	129.486
0.688851	128.798
0.883548	126.773
0.939187	126.838
