Adsorption isotherm of Carbon Dioxide on SDU-1
DOI: 10.1021/Ic5017092
Adsorbate Carbon Dioxide: InChIKey CURLTUGMZLYLDI-UHFFFAOYSA-N
Temperature: 273 K
Tabular data in the source: 0
pressure (bar)	uptake (cm3(STP)/g)
0.0171683	1.75978
0.0450667	4.65084
0.062235	6.78771
0.0944254	8.79888
0.115886	10.5587
0.141638	12.4441
0.173828	13.9525
0.203874	15.4609
0.229625	16.8436
0.253233	17.8492
0.283277	19.1061
0.304736	20.2374
0.330489	21.1173
0.360534	22.1229
0.390579	23.2542
0.414185	24.0084
0.444229	25.014
0.46569	25.8939
0.493587	26.5223
0.523633	27.5279
0.540801	28.1564
0.566553	28.6592
0.596598	29.2877
0.620204	29.9162
0.650248	30.5447
0.682439	31.2989
0.703899	31.8017
0.727506	32.1788
0.75755	32.6816
0.791887	33.3101
0.815493	33.6872
0.843392	34.1899
0.866998	34.4413
0.892751	34.8184
0.91421	35.3212
0.942109	35.5726
0.976445	35.824
1.0022	36.2011
1.03868	36.7039
1.06229	37.081
