Adsorption isotherm of Carbon Dioxide on Cu-SDU-1
DOI: 10.1021/Ic5017092
Adsorbate Carbon Dioxide: InChIKey CURLTUGMZLYLDI-UHFFFAOYSA-N
Temperature: 295 K
Tabular data in the source: 0
pressure (bar)	uptake (cm3(STP)/g)
0.0141343	1.65082
0.0403383	3.13217
0.0685442	4.25193
0.094743	5.55145
0.124956	6.49144
0.15115	7.60914
0.183381	8.73302
0.197484	9.2929
0.231732	10.6007
0.261945	11.5406
0.288123	12.1129
0.306256	12.8587
0.338492	14.1644
0.358644	15.0941
0.386844	16.032
0.417042	16.4266
0.441212	17.1785
0.465372	17.5669
0.491556	18.321
0.519745	18.8952
0.547952	20.015
0.570105	20.5831
0.600308	21.1595
0.626486	21.7317
0.652673	22.6676
0.680864	23.2418
0.709048	23.6343
0.731201	24.2024
0.761404	24.7788
0.785575	25.5308
0.813765	26.1051
0.835907	26.3095
0.87014	27.0718
0.896313	27.4622
0.926521	28.2204
0.950677	28.4269
0.976849	28.8173
1.00906	29.2139
1.03524	29.7861
1.08556	30.3831
