Adsorption isotherm of Methane on SDU-1
DOI: 10.1021/Ic5017092
Adsorbate Methane: InChIKey VNWKTOKETHGBQD-UHFFFAOYSA-N
Temperature: 295 K
Tabular data in the source: 0
pressure (bar)	uptake (cm3(STP)/g)
0.0067505	1.50664
0.0360026	2.08161
0.0652548	2.39064
0.0900066	2.5669
0.119259	2.74297
0.14176	3.00796
0.173263	3.27258
0.202515	3.49297
0.218266	3.58096
0.252019	3.84548
0.28127	3.93291
0.315023	4.06447
0.330774	4.15246
0.364527	4.41699
0.391529	4.54883
0.40953	4.5924
0.441033	4.72406
0.468035	4.76725
0.492786	4.85487
0.517539	4.94248
0.544541	5.03
0.576043	5.11734
0.598544	5.20504
0.621046	5.20411
0.652548	5.24712
0.672799	5.24628
0.706553	5.46648
0.733554	5.37672
0.758306	5.50866
0.787558	5.59608
0.81456	5.55064
0.839312	5.50529
0.868565	5.50407
0.893316	5.45872
0.922568	5.50183
0.947321	5.36784
0.976572	5.27798
0.996823	5.23282
1.02833	5.14286
1.05083	5.09761
1.05758	5.00868
1.07783	4.83056
