Adsorption isotherm of Hydrogen on Cu-SDU-1
DOI: 10.1021/Ic5017092
Adsorbate Hydrogen: InChIKey UFHFLCQGNIYNRP-UHFFFAOYSA-N
Temperature: 87 K
Tabular data in the source: 0
pressure (bar)	uptake (cm3(STP)/g)
0.0146437	5.06912
0.0336238	10.5991
0.0636222	16.129
0.0915947	20.5069
0.115231	24.424
0.141178	27.6498
0.171531	30.8756
0.204125	33.871
0.223638	35.9447
0.251859	38.7097
0.271479	40.0922
0.301903	42.8571
0.328028	44.9309
0.352055	46.3134
0.380454	47.9263
0.408746	50.2304
0.432808	51.3825
0.461066	53.9171
0.487439	54.3779
0.511502	55.53
0.537697	57.1429
0.56407	57.6037
0.588061	59.2166
0.6187	60.5991
0.642798	61.5207
0.666932	62.212
0.699773	63.5945
0.726147	64.0553
0.752378	65.4378
0.778715	66.129
0.80946	66.8203
0.83139	67.5115
0.857727	68.2028
0.888366	69.5853
0.916907	70.2765
0.943244	70.9677
0.973989	71.659
1.0069	72.5806
1.04198	73.7327
