Adsorption isotherm of Methane on Cu-SDU-1
DOI: 10.1021/Ic5017092
Adsorbate Methane: InChIKey VNWKTOKETHGBQD-UHFFFAOYSA-N
Temperature: 295 K
Tabular data in the source: 0
pressure (bar)	uptake (cm3(STP)/g)
0.0832173	2.70902
0.122839	3.85148
0.138698	4.56199
0.170393	5.41962
0.198129	6.27567
0.227845	7.13252
0.255578	7.84773
0.285294	8.70457
0.311046	9.419
0.338789	10.4159
0.366515	10.9903
0.402179	12.1312
0.42398	12.9849
0.453696	13.8417
0.485385	14.5585
0.513122	15.4145
0.536891	15.9873
0.570564	16.8458
0.594343	17.7002
0.626033	18.417
0.651786	19.1315
0.681501	19.9883
0.711212	20.7043
0.73895	21.5603
0.766686	22.4164
0.792434	22.99
0.820161	23.5644
0.853823	24.1411
0.881566	25.138
0.915234	25.8555
0.942977	26.8524
0.966739	27.2844
0.992492	27.9988
1.02618	29.1389
1.06776	29.8596
