Adsorption isotherm of Hydrogen on Cu-SDU-1
DOI: 10.1021/Ic5017092
Adsorbate Hydrogen: InChIKey UFHFLCQGNIYNRP-UHFFFAOYSA-N
Temperature: 87 K
Tabular data in the source: 0
pressure (bar)	uptake (cm3(STP)/g)
0.0075707	8.06452
0.0373203	15.2074
0.058504	20.7373
0.0887512	24.6544
0.112316	29.0323
0.140538	31.7972
0.16652	34.7926
0.196909	37.788
0.220723	40.553
0.244679	42.3963
0.270803	44.47
0.299095	46.7742
0.329662	48.6175
0.355823	50.4608
0.379778	52.3041
0.408177	53.9171
0.427903	54.6083
0.454135	55.9908
0.486977	57.3733
0.513279	58.2949
0.539474	59.9078
0.56574	61.0599
0.589768	62.4424
0.618309	63.1336
0.638036	63.8249
0.666541	64.7465
0.697215	65.8986
0.72572	66.8203
0.743172	67.9724
0.771749	68.4332
0.795917	68.894
0.828796	70.0461
0.855168	70.5069
0.888188	70.7373
0.916729	71.4286
0.938659	72.1198
0.965067	72.3502
0.991405	73.0415
1.03317	73.7327
1.04859	73.7327
