Adsorption isotherm of Hydrogen on SDU-1
DOI: 10.1021/Ic5017092
Adsorbate Hydrogen: InChIKey UFHFLCQGNIYNRP-UHFFFAOYSA-N
Temperature: 77 K
Tabular data in the source: 0
pressure (bar)	uptake (cm3(STP)/g)
0.0166798	12.5109
0.0403403	22.9244
0.0779625	29.1434
0.100511	32.7228
0.120403	34.9765
0.159971	38.1551
0.17974	39.6494
0.209331	41.5113
0.243711	42.7976
0.265887	44.099
0.297796	45.1985
0.31497	45.7467
0.344468	47.0391
0.373905	47.9518
0.40328	48.4848
0.422925	49.2198
0.4523	49.7528
0.481675	50.2858
0.51105	50.8189
0.533073	51.1712
0.560039	51.897
0.577151	52.0656
0.611438	52.7824
0.63584	52.752
0.665245	53.4748
0.689678	53.6342
0.714111	53.7937
0.743455	54.1368
0.777679	54.4739
0.799702	54.8262
0.833834	54.5938
0.858267	54.7533
0.882699	54.9127
0.909573	55.0691
0.931534	55.0417
0.96826	55.7554
0.987752	55.5413
1.01954	55.8814
1.04153	56.0439
1.07322	55.8145
