Adsorption isotherm of Carbon Dioxide on Cu-SDU-1
DOI: 10.1021/Ic5017092
Adsorbate Carbon Dioxide: InChIKey CURLTUGMZLYLDI-UHFFFAOYSA-N
Temperature: 295 K
Tabular data in the source: 0
pressure (bar)	uptake (cm3(STP)/g)
0.0161259	0.925585
0.044311	1.31805
0.070515	2.7994
0.0926678	3.36751
0.122886	4.48933
0.143032	5.2372
0.169215	5.99126
0.197426	7.29284
0.233682	8.42083
0.261882	9.35877
0.286059	10.2926
0.316271	11.2326
0.336407	11.6168
0.366621	12.5568
0.392809	13.4927
0.421009	14.4306
0.43712	14.8107
0.46934	15.571
0.495523	16.325
0.521721	17.6245
0.549901	17.8352
0.576079	18.4074
0.604265	18.7999
0.634483	19.9217
0.658648	20.4919
0.680807	21.2418
0.704971	21.812
0.73518	22.5701
0.759346	23.1403
0.793588	24.2662
0.811696	24.1029
0.831836	24.669
0.872122	25.9829
0.896277	26.1894
0.92649	27.1294
0.952663	27.5198
0.978841	28.0921
1.00904	28.4866
1.0332	29.0568
1.05939	29.8108
