Adsorption isotherm of Nitrogen on SDU-1
DOI: 10.1021/Ic5017092
Adsorbate Nitrogen: InChIKey IJGRMHOSHXDMSA-UHFFFAOYSA-N
Temperature: 77 K
Tabular data in the source: 0
pressure (bar)	uptake (cm3(STP)/g)
0.0882909	51.096
0.120397	51.4945
0.13109	51.1289
0.158922	51.898
0.173902	51.9095
0.184595	51.5439
0.210268	51.1899
0.223108	51.1997
0.235947	51.2096
0.265913	51.6065
0.274466	51.2393
0.291585	51.2524
0.312964	50.1474
0.332224	50.1622
0.340784	50.1688
0.366456	49.8147
0.379296	49.8246
0.398562	50.2133
0.415669	49.4788
0.430649	49.4903
0.445621	49.128
0.471294	48.7739
0.488413	48.7871
0.505532	48.8003
0.524799	49.1889
0.544058	49.2037
0.563305	48.4709
0.573997	48.1053
0.588977	48.1168
0.61251	47.7611
0.627489	47.7726
0.651035	48.1646
0.663869	47.8006
0.672428	47.8072
0.695954	47.0776
0.713073	47.0908
0.738753	47.1106
0.749453	47.1188
0.766565	46.7582
0.792239	46.4041
0.807218	46.4156
0.826471	46.0566
0.841443	45.6943
0.856423	45.7058
0.879956	45.3501
0.890656	45.3583
0.914194	45.3764
0.931315	45.3896
0.95272	45.7799
0.963414	45.4143
