Adsorption isotherm of Carbon Dioxide on Cu-SDU-1
DOI: 10.1021/Ic5017092
Adsorbate Carbon Dioxide: InChIKey CURLTUGMZLYLDI-UHFFFAOYSA-N
Temperature: 273 K
Tabular data in the source: 0
pressure (bar)	uptake (cm3(STP)/g)
0.0202031	2.74794
0.0464384	5.32023
0.0686541	8.07022
0.0969071	10.8264
0.121125	13.2148
0.14736	15.7871
0.177609	17.9998
0.199805	20.0225
0.232082	22.7828
0.256274	24.2621
0.282489	26.1071
0.308703	27.9521
0.332905	29.795
0.365167	32.0099
0.389359	33.4891
0.41758	35.1544
0.445807	37.0014
0.470004	38.6625
0.49822	40.1459
0.516375	41.6191
0.552641	43.1107
0.578839	44.4102
0.609069	45.8957
0.627212	47.0052
0.657441	48.4906
0.68364	49.7901
0.705809	50.9037
0.734014	52.0235
0.762231	53.5069
0.782376	54.2548
0.822667	55.7505
0.844836	56.8641
0.875044	57.6223
0.8952	58.7338
0.929444	59.8597
0.949589	60.6076
0.975782	61.7253
0.999963	62.841
1.03218	63.6012
1.05032	64.347
