Adsorption isotherm of Methane on Cu-SDU-1
DOI: 10.1021/Ic5017092
Adsorbate Methane: InChIKey VNWKTOKETHGBQD-UHFFFAOYSA-N
Temperature: 273 K
Tabular data in the source: 0
pressure (bar)	uptake (cm3(STP)/g)
0.0594935	3.26301
0.0852742	4.68167
0.115013	6.1019
0.136835	7.519
0.170531	8.9408
0.198292	10.3602
0.229992	11.3587
0.249825	12.4933
0.281537	13.7735
0.31128	15.3346
0.339028	16.4723
0.366776	17.6101
0.39453	18.8887
0.430206	20.3113
0.452012	21.3058
0.477775	22.302
0.511466	23.5829
0.5412	24.8623
0.565002	26.2802
0.598685	27.4203
0.622466	28.2748
0.652204	29.695
0.677974	30.832
0.705717	31.8289
0.739407	33.1098
0.763187	33.9643
0.792924	35.3845
0.818694	36.5215
0.854352	37.5216
0.882101	38.6593
0.913801	39.6578
0.943529	40.7963
0.969292	41.7924
0.977225	42.2181
1.001	43.0726
1.02875	44.2104
1.0862	45.7824
