Adsorption isotherm of Hydrogen on SDU-1
DOI: 10.1021/Ic5017092
Adsorbate Hydrogen: InChIKey UFHFLCQGNIYNRP-UHFFFAOYSA-N
Temperature: 87 K
Tabular data in the source: 0
pressure (bar)	uptake (cm3(STP)/g)
0.0129732	4.73067
0.0457768	11.3354
0.0634758	15.1108
0.095816	18.8679
0.120558	20.9257
0.152619	22.9744
0.172512	25.2281
0.206984	27.0838
0.238954	28.563
0.263509	29.4818
0.288066	30.4005
0.317595	31.8827
0.339712	32.8045
0.371496	33.1447
0.398585	34.6299
0.420577	34.7924
0.445071	35.3315
0.469567	35.8705
0.508733	36.5812
0.547962	37.6716
0.560194	37.8462
0.579776	38.2016
0.61156	38.5417
0.633553	38.7042
0.667809	39.2311
0.694682	39.3875
0.719177	39.9266
0.751022	40.6464
0.773046	40.9987
0.80483	41.3388
0.829201	41.1186
0.856043	41.0851
0.878005	41.0578
0.897526	41.0334
0.941573	41.7381
0.966037	42.0873
1.01246	42.4092
1.0491	42.5534
