Adsorption isotherm of Carbon Dioxide on SDU-1
DOI: 10.1021/Ic5017092
Adsorbate Carbon Dioxide: InChIKey CURLTUGMZLYLDI-UHFFFAOYSA-N
Temperature: 295 K
Tabular data in the source: 0
pressure (bar)	uptake (cm3(STP)/g)
0.0171683	0.75419
0.0450667	2.01117
0.064381	2.51397
0.0922795	3.26816
0.120178	4.14804
0.143784	4.65084
0.171683	5.53073
0.199581	6.15922
0.22748	6.91341
0.24894	7.2905
0.28113	8.17039
0.302591	8.67318
0.336927	9.05028
0.349803	9.05028
0.371264	9.05028
0.386286	9.80447
0.414185	10.3073
0.442084	10.6844
0.469981	10.9358
0.489296	11.3128
0.517195	11.6899
0.549384	12.1927
0.570845	12.3184
0.598744	12.8212
0.626642	13.0726
0.654541	13.1983
0.676	13.324
0.699606	13.324
0.733944	13.8268
0.755405	14.0782
0.787594	14.3296
0.811201	14.3296
0.841245	14.581
0.869143	14.581
0.890604	14.7067
0.91421	14.7067
0.948547	14.9581
0.970007	14.9581
0.995759	14.8324
1.0301	14.9581
1.05156	14.8324
