Adsorption isotherm of Methane on SDU-1
DOI: 10.1021/Ic5017092
Adsorbate Methane: InChIKey VNWKTOKETHGBQD-UHFFFAOYSA-N
Temperature: 295 K
Tabular data in the source: 0
pressure (bar)	uptake (cm3(STP)/g)
0.0180013	0.220859
0.0450034	0.529986
0.067505	0.706336
0.094507	0.882499
0.112508	1.01472
0.146261	1.27924
0.175514	1.49963
0.204764	1.6757
0.225016	1.80782
0.254268	2.07254
0.279021	2.20447
0.308273	2.33622
0.337526	2.46797
0.366776	2.59972
0.391529	2.68733
0.414031	2.77504
0.445533	2.95102
0.470285	3.08295
0.490536	3.08211
0.519788	3.25818
0.546791	3.39002
0.571542	3.43331
0.596294	3.52093
0.623297	3.65277
0.650299	3.78461
0.679551	3.87204
0.708803	3.95947
0.731304	4.09149
0.758306	4.09037
0.787558	4.08916
0.81456	4.13236
0.846062	4.26401
0.861814	4.30768
0.888816	4.3952
0.922568	4.52676
0.940569	4.61465
0.967571	4.61353
0.996823	4.61232
1.03058	4.61091
1.04858	4.69881
