Adsorption isotherm of Methane on SDU-1
DOI: 10.1021/Ic5017092
Adsorbate Methane: InChIKey VNWKTOKETHGBQD-UHFFFAOYSA-N
Temperature: 273 K
Tabular data in the source: 0
pressure (bar)	uptake (cm3(STP)/g)
0.0427531	0.928971
0.0720053	1.28233
0.094507	1.76893
0.112508	2.25571
0.146261	2.69752
0.175514	3.0952
0.198014	3.67044
0.227267	4.11244
0.254268	4.46589
0.28127	4.86366
0.308273	5.30575
0.335275	5.70352
0.357776	5.92419
0.389279	6.41042
0.41628	6.71954
0.443282	7.11731
0.463534	7.47104
0.486036	7.78036
0.515288	8.08939
0.544541	8.39842
0.571542	8.75187
0.598544	9.10532
0.625546	9.37013
0.652548	9.67925
0.67055	9.90011
0.708803	10.2531
0.729053	10.5625
0.758306	10.7829
0.787558	11.1362
0.812311	11.3125
0.848313	11.6656
0.868565	11.7977
0.893316	12.1069
0.924819	12.3715
0.94507	12.7253
0.969822	12.9015
1.00132	13.2105
1.02608	13.4754
1.05758	13.607
