Adsorption isotherm of Methane on Cu-SDU-1
DOI: 10.1021/Ic5017092
Adsorbate Methane: InChIKey VNWKTOKETHGBQD-UHFFFAOYSA-N
Temperature: 295 K
Tabular data in the source: 0
pressure (bar)	uptake (cm3(STP)/g)
0.0852518	4.11828
0.112989	4.97434
0.140726	5.8304
0.168463	6.68646
0.19818	7.5433
0.225917	8.39936
0.253648	9.11457
0.279396	9.68815
0.31109	10.5458
0.338833	11.5427
0.372507	12.4011
0.394308	13.2548
0.425992	13.8307
0.453729	14.6868
0.485424	15.5444
0.513155	16.2596
0.536929	16.9733
0.564667	17.8293
0.590419	18.5438
0.624077	18.9796
0.651825	20.1174
0.679556	20.8326
0.709267	21.5486
0.736993	22.123
0.766704	22.8389
0.790478	23.5526
0.820182	24.1277
0.847925	25.1246
0.887524	25.7037
0.911293	26.2765
0.944966	27.1349
0.96874	27.8486
1.00439	28.5669
1.0341	29.4238
1.07966	30.4277
