Adsorption isotherm of Hydrogen on Cu-SDU-1
DOI: 10.1021/Ic5017092
Adsorbate Hydrogen: InChIKey UFHFLCQGNIYNRP-UHFFFAOYSA-N
Temperature: 77 K
Tabular data in the source: 0
pressure (bar)	uptake (cm3(STP)/g)
0.00813938	18.6636
0.0368227	32.7189
0.0574733	41.7051
0.0828867	48.3871
0.110717	53.6866
0.134246	58.2949
0.157918	61.9816
0.186069	65.2074
0.220865	68.2028
0.238103	70.7373
0.261989	73.0415
0.296928	75.1152
0.316547	76.4977
0.342672	78.5714
0.373345	79.7235
0.397409	80.8756
0.421435	82.2581
0.452109	83.4101
0.480543	84.7926
0.500199	85.9447
0.53304	87.3272
0.561582	88.0184
0.583583	88.2488
0.607681	89.1705
0.63839	90.0922
0.666968	90.553
0.691136	91.0138
0.717438	91.9355
0.741679	91.9355
0.770255	92.3963
0.805408	93.0876
0.827444	93.0876
0.853747	94.0092
0.880156	94.2396
0.906635	94.0092
0.932973	94.7005
0.963823	94.7005
0.992506	94.47
1.01671	94.7005
1.03655	94.7005
1.06082	94.47
