Adsorption isotherm of Nitrogen on Cu-SDU-1
DOI: 10.1021/Ic5017092
Adsorbate Nitrogen: InChIKey IJGRMHOSHXDMSA-UHFFFAOYSA-N
Temperature: 77 K
Tabular data in the source: 0
pressure (bar)	uptake (cm3(STP)/g)
0.100431	131.853
0.121836	132.243
0.132537	132.252
0.147516	132.263
0.156082	132.643
0.164643	132.65
0.186041	132.667
0.21172	132.686
0.228834	132.326
0.243814	132.337
0.256653	132.347
0.282332	132.367
0.299445	132.006
0.310138	131.641
0.331551	132.405
0.340097	131.664
0.36577	131.31
0.382883	130.949
0.393582	130.957
0.410709	131.344
0.440647	130.246
0.455627	130.257
0.472753	130.644
0.483454	130.652
0.509126	130.298
0.526239	129.938
0.536946	130.32
0.556205	130.335
0.579724	129.231
0.594703	129.243
0.60755	129.626
0.62253	129.638
0.650322	128.164
0.665315	128.923
0.678155	128.933
0.705961	128.207
0.71666	128.215
0.72736	128.223
0.740193	127.859
0.776565	127.514
0.793685	127.527
0.804378	127.161
0.832197	127.182
0.842897	127.191
0.855724	126.453
0.868563	126.463
0.896382	126.484
0.907082	126.492
0.911362	126.496
0.922055	126.13
0.947747	126.898
0.96486	126.537
