Adsorption isotherm of Methane on Cu-SDU-1
DOI: 10.1021/Ic5017092
Adsorbate Methane: InChIKey VNWKTOKETHGBQD-UHFFFAOYSA-N
Temperature: 273 K
Tabular data in the source: 0
pressure (bar)	uptake (cm3(STP)/g)
0.0594378	1.85453
0.0852574	4.25913
0.111016	5.1144
0.146668	5.9736
0.168469	6.8273
0.198213	8.38838
0.227957	9.94946
0.255711	11.2281
0.287416	12.3674
0.315177	13.7868
0.340947	14.9238
0.364737	16.06
0.398422	17.2001
0.424202	18.6188
0.453929	19.7573
0.485657	21.46
0.509438	22.3145
0.539153	23.1713
0.572856	24.734
0.594672	26.0102
0.622421	27.148
0.654133	28.4282
0.681892	29.8476
0.70964	30.9854
0.737389	32.1231
0.763153	33.1192
0.792885	34.3986
0.820639	35.6772
0.848388	36.815
0.882067	37.8142
0.915753	38.9543
0.939548	40.2314
0.967302	41.51
0.997025	42.5077
1.02081	43.6438
1.04658	44.64
