Adsorption isotherm of Nitrogen on Cu-SDU-1 (80 degrees C)
DOI: 10.1021/Ic5017092
Adsorbate Nitrogen: InChIKey IJGRMHOSHXDMSA-UHFFFAOYSA-N
Temperature: 77 K
Tabular data in the source: 0
pressure (bar)	uptake (cm3(STP)/g)
-0.0016777	21.0762
-0.000793909	41.5807
0.0034902	60.9754
0.00432905	80.4373
0.00861317	99.8319
0.0142904	111.547
0.024791	115.168
0.0369392	117.018
0.0541956	117.377
0.0714818	118.431
0.0852778	118.51
0.126666	118.746
0.30931	116.226
0.44366	113.256
0.503937	111.732
0.572828	110.04
0.672711	107.396
0.745046	105.636
0.794972	103.967
0.850082	102.543
0.89487	101.67
0.948302	101.323
