Adsorption isotherm of Hydrogen on MIL-101
DOI: 10.1016/j.ijhydene.2014.08.038
Adsorbate Hydrogen: InChIKey UFHFLCQGNIYNRP-UHFFFAOYSA-N
Temperature: 159 K
Tabular data in the source: 0
pressure (bar)	uptake (mmol/g)
4.95114	1.61969
10.1629	2.95042
20.3257	4.39796
38.5668	7.63935
42.4756	7.29347
76.6124	10.2497
113.355	11.01
117.264	10.8953
157.394	12.2922
158.697	11.8301
174.853	12.1808
176.678	11.5454
