Adsorption isotherm of Hydrogen on MIL-101
DOI: 10.1016/j.ijhydene.2014.08.038
Adsorbate Hydrogen: InChIKey UFHFLCQGNIYNRP-UHFFFAOYSA-N
Temperature: 77 K
Tabular data in the source: 0
pressure (bar)	uptake (g/l)
0.018448	0.362319
0.0442752	0.869565
0.0977744	1.92029
0.581112	1.41304
1.10135	1.63043
2.15657	2.35507
3.2118	3.07971
5.78898	3.69565
8.36248	4.23913
16.0498	5.21739
19.6342	5.61594
33.4259	6.48551
38.025	6.81159
46.1938	7.24638
64.0404	7.75362
80.8576	8.04348
109.9	8.44203
139.432	8.44203
156.236	8.47826
201.059	8.80435
205.129	8.73188
