Adsorption isotherm of Hydrogen on MIL-101
DOI: 10.1016/j.ijhydene.2014.08.038
Adsorbate Hydrogen: InChIKey UFHFLCQGNIYNRP-UHFFFAOYSA-N
Temperature: 77 K
Tabular data in the source: 0
pressure (bar)	uptake (g/l)
-0.382848	0.420062
0	1.39949
0.765697	2.37871
1.14855	3.21819
1.91424	4.1974
2.29709	4.89693
3.06279	6.43594
5.35988	7.55425
8.80551	9.79151
16.0796	13.5661
19.9081	15.2433
32.5421	19.9945
37.902	21.5309
46.3247	24.3252
63.17	29.214
80.3982	33.4028
109.877	39.5441
138.974	44.1461
155.819	46.2359
201.378	51.2486
204.441	51.6667
