Adsorption isotherm of Hydrogen on MIL-101
DOI: 10.1016/j.ijhydene.2014.08.038
Adsorbate Hydrogen: InChIKey UFHFLCQGNIYNRP-UHFFFAOYSA-N
Temperature: 159 K
Tabular data in the source: 0
pressure (bar)	uptake (g/l)
3.82848	1.53126
9.95406	2.36198
20.6738	4.44392
38.2848	7.9141
42.1133	8.18901
76.1868	13.7347
112.94	18.3003
117.152	18.8539
156.202	23.6961
158.116	23.5544
174.579	25.0715
175.727	25.2098
