Adsorption isotherm of Hydrogen on MIL-101
DOI: 10.1016/j.ijhydene.2014.08.038
Adsorbate Hydrogen: InChIKey UFHFLCQGNIYNRP-UHFFFAOYSA-N
Temperature: 77 K
Tabular data in the source: 0
pressure (bar)	uptake (g/l)
6.12557	1.80788
9.18836	2.64202
14.5482	4.31116
17.611	5.56409
21.0567	6.95618
25.268	8.20782
28.3308	9.46075
33.3078	10.8511
38.6677	12.5203
42.879	14.1907
48.2389	15.7202
52.8331	17.111
59.3415	19.1977
64.3185	20.8673
70.0613	22.536
75.4211	24.0655
79.2496	25.178
83.4609	26.5692
87.2894	27.5421
90.7351	28.655
95.3292	29.627
98.7749	30.7399
105.666	32.2678
111.409	33.7969
116.003	34.9085
119.832	35.8814
127.106	37.4088
131.7	38.1017
136.294	38.9341
142.037	40.3236
147.014	41.016
153.522	42.2651
155.436	42.8213
159.648	43.375
163.859	43.9287
166.539	44.4841
171.899	45.1761
175.727	46.1489
179.556	46.703
185.681	47.3942
190.276	47.9474
194.104	48.5015
199.847	49.1931
207.121	50.1621
212.864	50.9932
217.458	51.6861
222.435	51.8201
226.263	52.5138
232.006	53.345
237.749	53.7573
244.257	54.5876
