Adsorption isotherm of Hydrogen on MIL-101
DOI: 10.1016/j.ijhydene.2014.08.038
Adsorbate Hydrogen: InChIKey UFHFLCQGNIYNRP-UHFFFAOYSA-N
Temperature: 159 K
Tabular data in the source: 0
pressure (bar)	uptake (g/l)
4.09361	0.398551
9.71472	0.797101
20.4293	1.23188
38.2962	2.13768
42.3658	2.06522
76.5352	3.15217
113.741	3.87681
117.816	3.91304
156.552	4.67391
159.094	4.60145
175.402	4.8913
176.409	4.67391
