Adsorption isotherm of Hydrogen on MIL-101
DOI: 10.1016/j.ijhydene.2014.08.038
Adsorbate Hydrogen: InChIKey UFHFLCQGNIYNRP-UHFFFAOYSA-N
Temperature: 159 K
Tabular data in the source: 0
pressure (bar)	uptake (g/l)
6.89127	1.10906
13.7825	1.93892
19.5253	2.63048
22.5881	3.32503
26.4165	3.87913
34.4564	4.9869
37.1363	5.40269
43.2619	6.37301
46.7075	6.78794
52.8331	7.75826
57.8101	8.31108
63.5528	9.28182
69.2956	9.97338
73.8897	10.6662
78.4839	10.9403
84.6095	12.0502
90.7351	12.7413
94.1807	13.1562
100.306	13.987
106.049	14.6785
110.643	15.3714
115.62	15.9242
121.746	16.8945
126.723	17.3077
132.083	17.9997
137.825	18.6913
143.185	19.3832
148.545	19.9356
153.522	20.4885
158.499	20.9017
164.242	21.5932
168.836	22.1465
175.345	22.9768
181.087	23.3891
185.681	23.9424
191.041	24.4948
196.018	25.0476
201.761	25.5996
207.121	26.1519
212.864	26.8435
217.458	27.2572
223.583	27.9483
228.56	28.3615
233.92	28.6347
239.28	29.3267
245.023	29.8787
248.851	30.2932
