Adsorption isotherm of Hydrogen on MIL-101
DOI: 10.1016/j.ijhydene.2014.08.038
Adsorbate Hydrogen: InChIKey UFHFLCQGNIYNRP-UHFFFAOYSA-N
Temperature: 298 K
Tabular data in the source: 0
pressure (bar)	uptake (mmol/g)
5.99349	0.059247
23.9739	0.641612
38.8274	1.22322
43.5179	1.22435
64.1042	1.92295
66.4495	1.92352
71.1401	2.04026
72.9642	2.0985
81.8241	2.67867
88.5993	2.96932
90.4235	3.02756
138.893	4.36871
215.244	5.94779
231.922	6.70326
