Adsorption isotherm of Hydrogen on MIL-101
DOI: 10.1016/j.ijhydene.2014.08.038
Adsorbate Hydrogen: InChIKey UFHFLCQGNIYNRP-UHFFFAOYSA-N
Temperature: 298 K
Tabular data in the source: 0
pressure (bar)	uptake (g/l)
6.50842	0.27192
24.1194	1.64819
37.902	3.02874
44.0276	3.44068
63.9357	5.09357
66.6156	5.23018
69.6784	5.50594
71.9755	5.64297
73.5069	5.64126
82.3124	6.60859
88.438	7.02053
89.9694	7.01882
138.974	10.7331
214.778	15.6739
232.006	16.911
