Adsorption isotherm of Hydrogen on MIL-101
DOI: 10.1016/j.ijhydene.2014.08.038
Adsorbate Hydrogen: InChIKey UFHFLCQGNIYNRP-UHFFFAOYSA-N
Temperature: 298 K
Tabular data in the source: 0
pressure (bar)	uptake (g/l)
6.11736	0.144928
23.951	0.398551
38.2169	0.57971
43.8195	0.615942
63.6881	0.833333
66.7467	0.905797
69.8036	0.942029
72.3531	1.01449
81.5291	1.23188
87.6428	1.30435
89.1703	1.30435
139.104	1.99275
215.01	2.78986
232.336	3.07971
