Adsorption isotherm of Hydrogen on MIL-101
DOI: 10.1016/j.ijhydene.2014.08.038
Adsorbate Hydrogen: InChIKey UFHFLCQGNIYNRP-UHFFFAOYSA-N
Temperature: 77 K
Tabular data in the source: 0
pressure (bar)	uptake (mmol/g)
-0.260586	1.67624
0	4.27746
0.260586	6.87868
0.781759	8.15048
2.34528	11.5035
3.38762	14.7985
4.95114	17.6891
8.33876	20.002
15.8958	23.6454
19.8046	25.0337
32.3127	27.1754
37.785	27.8126
46.3844	28.5083
63.8436	27.761
80.5212	26.8402
109.967	24.8242
139.414	21.5365
155.57	20.3265
200.912	18.4877
205.081	17.5638
