Adsorption isotherm of Nitrogen on DBA-3D-COF 1
DOI: 10.1021/jacs.6b10316
Article source: Figure 3
Adsorbate Nitrogen: InChIKey IJGRMHOSHXDMSA-UHFFFAOYSA-N
Kind: experiment
Temperature: 77 K
Tabular data in the source: 0
pressure (bar)	uptake (cm3(STP)/g)
0.00098	25.889
0	111.522
0	149.36
0.00392	179.232
0.00392	197.155
0.00588	219.061
0.00686	238.976
0.00686	258.89
0.008819	280.797
0.009799	294.737
0.021559	374.395
0.029398	434.139
0.033318	456.046
0.038217	491.892
0.047037	535.704
0.052916	563.585
0.056836	573.542
0.065655	617.354
0.073495	643.243
0.082314	685.064
0.092114	736.842
0.103873	772.688
0.114652	820.484
0.118572	932.006
0.137191	1067.43
0.153849	1087.34
0.175408	1097.3
0.191087	1105.26
0.206766	1111.24
0.258702	1123.19
0.318478	1143.1
0.370414	1145.09
0.485066	1161.02
0.539943	1167
0.598739	1172.97
0.653615	1176.96
0.710451	1186.91
0.764347	1194.88
0.823143	1198.86
0.878019	1206.83
0.936815	1222.76
0.009799	294.737
0.032338	458.037
0.052916	563.585
0.072515	641.252
0.093094	738.834
0.118572	987.767
0.13817	1077.38
0.158749	1095.31
0.180308	1103.27
0.202846	1113.23
0.259682	1131.15
0.315538	1141.11
0.370414	1153.06
0.42725	1159.03
0.486046	1168.99
0.539943	1172.97
0.597759	1182.93
0.653615	1186.91
0.711431	1194.88
0.750628	1194.88
0.809424	1196.87
0.86822	1210.81
0.930936	1224.75
0.985812	1258.61
