Adsorption isotherm of Ethene on Ni-DBA-COF
DOI: 10.1021/jacs.6b10316
Article source: Figure 4
Adsorbate Ethene: InChIKey VGGSQFUCUMXWEO-UHFFFAOYSA-N
Kind: experiment
Temperature: 273 K
Tabular data in the source: 0
pressure (bar)	uptake (cm3(STP)/g)
0.005093	0.037879
0.026486	0.075758
0.044822	0.126263
0.065195	0.164141
0.079457	0.205177
0.092699	0.236742
0.108998	0.280934
0.156876	0.410354
0.214941	0.549242
0.275042	0.662879
0.334126	0.785985
0.389134	0.909091
0.448217	1.02904
0.507301	1.13952
0.564346	1.23422
0.621392	1.35101
0.678438	1.45518
0.736503	1.5625
0.793548	1.65404
0.851613	1.76768
0.909677	1.86553
0.965705	1.9697
1.02581	2.07071
1.08183	2.1654
1.1399	2.26326
0.010187	0.132576
0.057046	0.290404
0.104924	0.41351
0.157895	0.53346
0.206791	0.640783
0.255688	0.754419
0.305603	0.858586
0.356537	0.962753
0.405433	1.04798
0.455348	1.14583
0.505263	1.25
0.556197	1.33207
0.605093	1.42677
0.65399	1.50884
0.705942	1.59091
0.754839	1.66982
0.800679	1.76136
0.850594	1.84028
0.901528	1.92866
0.951443	1.99179
0.999321	2.07702
1.02988	2.11806
1.08183	2.19697
1.12869	2.26957
1.19592	2.37374
