Adsorption isotherm of Ethene on BDA-3D-COF-1
DOI: 10.1021/jacs.6b10316
Article source: Figure 4
Adsorbate Ethene: InChIKey VGGSQFUCUMXWEO-UHFFFAOYSA-N
Kind: experiment
Temperature: 295 K
Tabular data in the source: 0
pressure (bar)	uptake (cm3(STP)/g)
0.02343	0.037879
0.04584	0.085227
0.061121	0.119949
0.081494	0.151515
0.102886	0.198864
0.158913	0.277778
0.217997	0.378788
0.275042	0.467172
0.334126	0.561869
0.395246	0.647096
0.450255	0.719697
0.506282	0.801768
0.566384	0.883838
0.622411	0.969066
0.678438	1.04482
0.73854	1.11742
0.79253	1.19318
0.852632	1.27525
0.909677	1.3447
0.965705	1.41414
1.02173	1.48359
1.08183	1.57197
1.13786	1.63194
0.159932	0.366162
0.204754	0.426136
0.255688	0.505051
0.305603	0.587121
0.355518	0.659722
0.404414	0.72601
0.452292	0.792298
0.507301	0.868056
0.560272	0.934343
0.607131	1.0101
0.652971	1.06376
0.698812	1.11742
0.747708	1.18687
0.798642	1.25
0.85365	1.32576
0.898472	1.37626
0.950424	1.43624
0.997284	1.49306
1.03192	1.52462
1.07674	1.57828
1.13073	1.62879
1.19287	1.71086
