Adsorption isotherm of Ethane on Ni-DBA-COF
DOI: 10.1021/jacs.6b10316
Article source: Figure 4
Adsorbate Ethane: InChIKey OTMSDBZUPAUEDD-UHFFFAOYSA-N
Kind: experiment
Temperature: 273 K
Tabular data in the source: 0
pressure (bar)	uptake (cm3(STP)/g)
0.02449	0.069922
0.043878	0.124306
0.057143	0.174806
0.07449	0.240844
0.087755	0.291343
0.097959	0.341842
0.154082	0.512764
0.210204	0.691454
0.270408	0.842952
0.329592	1.0061
0.385714	1.15372
0.444898	1.30133
0.503061	1.44118
0.559184	1.56937
0.619388	1.73252
0.677551	1.85683
0.736735	1.9889
0.793878	2.12098
0.852041	2.26859
0.910204	2.38124
0.969388	2.5172
1.02449	2.64151
1.08163	2.77359
1.13776	2.89012
0.004082	0.046615
0.056122	0.256382
0.104082	0.415649
0.156122	0.582686
0.203061	0.722531
0.254082	0.862375
0.303061	1.00222
0.35102	1.11876
0.40102	1.25472
0.456122	1.37514
0.502041	1.48391
0.556122	1.6121
0.603061	1.74029
0.652041	1.86071
0.70102	1.97336
0.75	2.07436
0.797959	2.18313
0.85102	2.29967
0.9	2.40844
0.94898	2.51332
0.996939	2.61043
1.03061	2.67259
1.08163	2.80078
1.13061	2.89401
1.1949	3.02997
