Adsorption isotherm of Ethane on Ni-DBA-COF
DOI: 10.1021/jacs.6b10316
Article source: Figure 4
Adsorbate Ethane: InChIKey OTMSDBZUPAUEDD-UHFFFAOYSA-N
Kind: experiment
Temperature: 295 K
Tabular data in the source: 0
pressure (bar)	uptake (cm3(STP)/g)
0.152041	0.423418
0.209184	0.528302
0.255102	0.605993
0.321429	0.718646
0.387755	0.850721
0.447959	0.940067
0.497959	1.02941
0.562245	1.13818
0.612245	1.23529
0.668367	1.31687
0.735714	1.42564
0.792857	1.5111
0.84898	1.60821
0.908163	1.69367
0.964286	1.79079
1.02551	1.88013
1.08163	1.97336
1.13571	2.05494
0.155102	0.423418
0.204082	0.520533
0.254082	0.629301
0.302041	0.726415
0.35102	0.819645
0.403061	0.90899
0.455102	1.00999
0.503061	1.09157
0.553061	1.16537
0.602041	1.25472
0.652041	1.34406
0.704082	1.42564
0.753061	1.49168
0.80102	1.58102
0.852041	1.6626
0.90102	1.74029
0.95102	1.8141
0.997959	1.87236
1.03061	1.91898
1.08163	2.00444
1.12959	2.05882
1.19592	2.15594
