Adsorption isotherm of Ethene on Ni-DBA-COF
DOI: 10.1021/jacs.6b10316
Article source: Figure 4
Adsorbate Ethene: InChIKey VGGSQFUCUMXWEO-UHFFFAOYSA-N
Kind: experiment
Temperature: 295 K
Tabular data in the source: 0
pressure (bar)	uptake (cm3(STP)/g)
0.046859	0.104167
0.065195	0.151515
0.085569	0.186237
0.103905	0.214646
0.159932	0.306187
0.215959	0.391414
0.274024	0.498737
0.333107	0.590278
0.39219	0.669192
0.447199	0.760732
0.505263	0.84596
0.565365	0.934343
0.620374	1.02273
0.678438	1.09848
0.736503	1.18687
0.793548	1.26263
0.852632	1.33838
0.909677	1.43308
0.968761	1.50568
1.02377	1.59722
1.08387	1.67929
1.13888	1.75505
0.008149	0.432449
0.056027	0.527146
0.105942	0.618687
0.157895	0.694444
0.205772	0.773359
0.256706	0.830177
0.304584	0.905934
0.357555	0.969066
0.408489	1.0322
0.455348	1.08586
0.502207	1.15215
0.55416	1.19634
0.605093	1.25947
0.652971	1.31313
0.700849	1.36364
0.751783	1.42677
0.801698	1.47412
0.851613	1.51831
0.899491	1.57197
0.952462	1.61932
1.00136	1.66351
1.02886	1.68561
1.0798	1.73611
1.13073	1.77399
1.19796	1.83396
