Adsorption isotherm of Ethane on BDA-3D-COF-1
DOI: 10.1021/jacs.6b10316
Article source: Figure 4
Adsorbate Ethane: InChIKey OTMSDBZUPAUEDD-UHFFFAOYSA-N
Kind: experiment
Temperature: 273 K
Tabular data in the source: 0
pressure (bar)	uptake (cm3(STP)/g)
0.013265	0.066038
0.030612	0.151498
0.046939	0.209767
0.062245	0.268036
0.080612	0.337958
0.095918	0.40788
0.212245	0.761376
0.266327	0.928413
0.329592	1.1071
0.379592	1.23918
0.45	1.42564
0.507143	1.57714
0.563265	1.73252
0.620408	1.86848
0.677551	2.01221
0.736735	2.14428
0.793878	2.28413
0.854082	2.43951
0.911224	2.55993
0.968367	2.70366
1.02449	2.84739
1.08265	2.98724
1.13673	3.11931
0.05	0.318535
0.105102	0.485572
0.154082	0.652608
0.202041	0.811876
0.253061	0.959489
0.30102	1.1071
0.352041	1.24306
0.40102	1.36737
0.457143	1.5111
0.504082	1.63929
0.55102	1.75194
0.602041	1.89179
0.653061	2.00444
0.702041	2.12875
0.753061	2.24528
0.80102	2.36182
0.853061	2.47059
0.90102	2.59489
0.952041	2.70755
0.99898	2.81631
1.03163	2.89401
1.08265	2.99501
1.12857	3.10766
1.19592	3.25139
