Adsorption isotherm of Ethene on BDA-3D-COF-1
DOI: 10.1021/jacs.6b10316
Article source: Figure 4
Adsorbate Ethene: InChIKey VGGSQFUCUMXWEO-UHFFFAOYSA-N
Kind: experiment
Temperature: 273 K
Tabular data in the source: 0
pressure (bar)	uptake (cm3(STP)/g)
0.017317	0.053662
0.028523	0.09154
0.040747	0.151515
0.05399	0.189394
0.064177	0.217803
0.077419	0.249369
0.094737	0.299874
0.103905	0.32197
0.157895	0.476641
0.216978	0.612374
0.274024	0.73548
0.332088	0.874369
0.454329	1.1553
0.509338	1.24369
0.562309	1.3447
0.622411	1.46465
0.678438	1.57513
0.737521	1.68876
0.797623	1.78977
0.852632	1.90025
0.910696	2.0202
0.963667	2.10859
1.02275	2.21907
1.08285	2.32955
1.13888	2.42424
0.356537	0.959596
0.405433	1.08902
0.454329	1.1774
0.503226	1.29419
0.558234	1.37626
0.604075	1.48359
0.649915	1.5846
0.701868	1.66351
0.752801	1.75505
0.801698	1.85606
0.850594	1.94129
0.899491	2.02967
0.951443	2.10859
1.00034	2.20644
1.03192	2.25063
1.07776	2.33586
1.13073	2.41793
1.19592	2.5221
