Adsorption isotherm of Nitrogen on Ni-DBA-3D-COF
DOI: 10.1021/jacs.6b10316
Article source: Figure 3
Adsorbate Nitrogen: InChIKey IJGRMHOSHXDMSA-UHFFFAOYSA-N
Kind: experiment
Temperature: 77 K
Tabular data in the source: 0
pressure (bar)	uptake (cm3(STP)/g)
0.00098	97.5818
0.00196	129.445
0.0049	163.3
0.00686	185.206
0.008819	215.078
0.012739	246.942
0.011759	274.822
0.020579	334.566
0.030378	392.319
0.039197	444.097
0.045077	483.926
0.055856	515.789
0.067615	561.593
0.074475	585.491
0.084274	625.32
0.093094	661.166
0.099953	685.064
0.105833	702.987
0.111712	748.791
0.126411	906.117
0.14405	930.014
0.160709	943.954
0.182267	949.929
0.200886	953.912
0.253802	971.835
0.318478	985.775
0.485066	999.716
0.652635	1007.68
0.711431	1017.64
0.764347	1023.61
0.823143	1033.57
0.877039	1039.54
0.934855	1049.5
0.030378	412.233
0.048017	497.866
0.072515	575.533
0.098973	685.064
0.121512	898.151
0.13915	932.006
0.158749	943.954
0.180308	947.937
0.201866	959.886
0.260662	971.835
0.316518	983.784
0.370414	989.758
0.42921	993.741
0.485066	1005.69
0.539943	1007.68
0.598739	1013.66
0.652635	1017.64
0.711431	1023.61
0.750628	1023.61
0.805504	1031.58
0.86724	1041.54
0.927996	1055.48
0.987772	1077.38
