Adsorption isotherm of Ethane on BDA-3D-COF-1
DOI: 10.1021/jacs.6b10316
Article source: Figure 4
Adsorbate Ethane: InChIKey OTMSDBZUPAUEDD-UHFFFAOYSA-N
Kind: experiment
Temperature: 295 K
Tabular data in the source: 0
pressure (bar)	uptake (cm3(STP)/g)
0.012245	0.023307
0.031633	0.066038
0.052041	0.124306
0.068367	0.155383
0.092857	0.22919
0.210204	0.481687
0.258163	0.58657
0.331633	0.683685
0.390816	0.792453
0.444898	0.881798
0.506122	0.990566
0.564286	1.0838
0.618367	1.18091
0.676531	1.28579
0.735714	1.37902
0.794898	1.47225
0.852041	1.56548
0.908163	1.65094
0.965306	1.74029
1.02755	1.82963
1.08265	1.92675
1.13776	2.01221
0.756122	1.4606
0.90102	1.68202
0.954082	1.75583
1.00102	1.82963
1.08061	1.93452
1.12959	2.00832
1.1949	2.09379
