Adsorption isotherm of Hydrogen on ZIF-68
DOI: 10.1021/Jp200321y
Adsorbate Hydrogen: InChIKey UFHFLCQGNIYNRP-UHFFFAOYSA-N
Temperature: 298 K
Tabular data in the source: 0
pressure (bar)	uptake (wt%)
0.242409	0.031501
5.58001	1.6011
10.4799	1.99147
15.5819	2.14218
26.9605	2.27948
36.4645	2.34135
46.8521	2.39679
58.0649	2.47736
67.4032	2.48249
77.3214	2.53169
87.4849	2.56194
97.216	2.59855
107.511	2.62248
