Adsorption isotherm of Hydrogen on ZIF-70
DOI: 10.1021/Jp200321y
Adsorbate Hydrogen: InChIKey UFHFLCQGNIYNRP-UHFFFAOYSA-N
Temperature: 243 K
Tabular data in the source: 0
pressure (bar)	uptake (wt%)
9.96936	0.173369
20.0786	0.37395
29.4828	0.492889
40.0282	0.614328
49.5776	0.708535
59.9853	0.780501
68.9681	0.83512
80.2316	0.909578
90.0709	0.959269
99.9107	1.00401
