Adsorption isotherm of Hydrogen on ZIF-70
DOI: 10.1021/Jp200321y
Adsorbate Hydrogen: InChIKey UFHFLCQGNIYNRP-UHFFFAOYSA-N
Temperature: 273 K
Tabular data in the source: 0
pressure (bar)	uptake (wt%)
10.1239	0.0571181
19.5296	0.161217
29.6497	0.255437
39.3413	0.354595
49.8904	0.438931
59.1565	0.513344
69.5632	0.595204
79.9717	0.659749
89.3804	0.734165
100.218	0.791299
