Adsorption isotherm of Hydrogen on ZIF-68
DOI: 10.1021/Jp200321y
Adsorbate Hydrogen: InChIKey UFHFLCQGNIYNRP-UHFFFAOYSA-N
Temperature: 298 K
Tabular data in the source: 0
pressure (bar)	uptake (wt%)
9.92583	0.151912
19.4438	0.326194
29.5056	0.423402
39.9753	0.505699
49.9011	0.622798
59.691	0.655346
69.6168	0.732657
79.4067	0.800019
89.8764	0.864909
99.6663	0.922324
