Adsorption isotherm of Hydrogen on ZIF-70
DOI: 10.1021/Jp200321y
Adsorbate Hydrogen: InChIKey UFHFLCQGNIYNRP-UHFFFAOYSA-N
Temperature: 273 K
Tabular data in the source: 0
pressure (bar)	uptake (wt%)
9.39641	0.195618
19.7898	0.408572
30.3331	0.549799
40.1663	0.658854
49.8589	0.748118
59.5548	0.805226
69.5357	0.864814
79.5159	0.931823
90.0681	0.986478
99.6213	1.04358
