Adsorption isotherm of Hydrogen on ZIF-78
DOI: 10.1021/Jp200321y
Adsorbate Hydrogen: InChIKey UFHFLCQGNIYNRP-UHFFFAOYSA-N
Temperature: 298 K
Tabular data in the source: 0
pressure (bar)	uptake (wt%)
4.32165	1.27333
9.50974	1.55646
15.1393	1.68187
24.9226	1.78785
35.5157	1.86219
45.526	1.94291
55.708	1.97946
65.7949	2.03494
76.1272	2.07148
85.8766	2.11439
96.2488	2.11309
106.053	2.17491
