Adsorption isotherm of Hydrogen on ZIF-70
DOI: 10.1021/Jp200321y
Adsorbate Hydrogen: InChIKey UFHFLCQGNIYNRP-UHFFFAOYSA-N
Temperature: 298 K
Tabular data in the source: 0
pressure (bar)	uptake (wt%)
4.99275	0.00753276
9.8214	0.225309
20.0703	0.455575
30.0424	0.601736
40.0179	0.715741
49.9978	0.785223
59.9765	0.867073
69.6711	0.936549
79.9366	1.00356
89.9186	1.05326
99.7602	1.08069
