Adsorption isotherm of Hydrogen on ZIF-70
DOI: 10.1021/Jp200321y
Adsorbate Hydrogen: InChIKey UFHFLCQGNIYNRP-UHFFFAOYSA-N
Temperature: 298 K
Tabular data in the source: 0
pressure (bar)	uptake (wt%)
9.51792	0.204123
19.4438	0.443068
29.3696	0.592493
39.7033	0.709601
49.4932	0.789396
59.9629	0.864233
69.7528	0.939055
79.8146	1.00891
89.8764	1.05141
99.9382	1.08396
