Adsorption isotherm of Hydrogen on ZIF-79
DOI: 10.1021/Jp200321y
Adsorbate Hydrogen: InChIKey UFHFLCQGNIYNRP-UHFFFAOYSA-N
Temperature: 298 K
Tabular data in the source: 0
pressure (bar)	uptake (wt%)
12.1681	0.767835
23.2769	1.01869
33.0418	1.11836
42.733	1.19281
53.7403	1.25448
63.7351	1.27845
73.9723	1.33391
83.8168	1.3579
93.9804	1.38815
103.957	1.40581
