Adsorption isotherm of Hydrogen on ZIF-79
DOI: 10.1021/Jp200321y
Adsorbate Hydrogen: InChIKey UFHFLCQGNIYNRP-UHFFFAOYSA-N
Temperature: 298 K
Tabular data in the source: 0
pressure (bar)	uptake (wt%)
4.9665	1.49793
9.98929	1.94126
15.4154	2.09821
26.0939	2.24282
36.0214	2.33525
46.6313	2.40173
56.9389	2.46817
66.4727	2.528
77.0642	2.58797
86.9415	2.60879
97.098	2.67521
107.035	2.66348
