Adsorption isotherm of Hydrogen on ZIF-68
DOI: 10.1021/Jp200321y
Adsorbate Hydrogen: InChIKey UFHFLCQGNIYNRP-UHFFFAOYSA-N
Temperature: 298 K
Tabular data in the source: 0
pressure (bar)	uptake (wt%)
0.563189	0.039133
5.21817	1.64119
10.186	2.06498
15.9144	2.22196
26.4371	2.41863
36.6485	2.50459
47.1988	2.60361
56.879	2.71554
67.2646	2.75595
77.911	2.83546
87.6325	2.90834
97.9585	2.98129
108.362	3.02821
