Adsorption isotherm of Hydrogen on ZIF-69
DOI: 10.1021/Jp200321y
Adsorbate Hydrogen: InChIKey UFHFLCQGNIYNRP-UHFFFAOYSA-N
Temperature: 298 K
Tabular data in the source: 0
pressure (bar)	uptake (wt%)
1.58338	0.233134
6.63658	0.573037
11.9257	0.736334
22.1356	0.936848
33.008	1.0553
43.187	1.1423
53.2555	1.19148
63.5111	1.25325
73.6931	1.2898
83.6879	1.31377
93.6827	1.33773
103.828	1.36168
