Adsorption isotherm of Hydrogen on ZIF-69
DOI: 10.1021/Jp200321y
Adsorbate Hydrogen: InChIKey UFHFLCQGNIYNRP-UHFFFAOYSA-N
Temperature: 298 K
Tabular data in the source: 0
pressure (bar)	uptake (wt%)
5.22446	0.300138
10.9711	0.463635
21.4755	0.653791
32.1952	0.759345
41.7243	0.871255
52.0686	0.950721
62.509	1.01067
72.0428	1.0705
82.9732	1.14353
92.5665	1.17082
103.405	1.21129
