Adsorption isotherm of Hydrogen on ZIF-70
DOI: 10.1021/Jp200321y
Adsorbate Hydrogen: InChIKey UFHFLCQGNIYNRP-UHFFFAOYSA-N
Temperature: 298 K
Tabular data in the source: 0
pressure (bar)	uptake (wt%)
2.0418	0.403882
7.38512	0.853764
13.0493	1.09537
24.1671	1.39627
34.5204	1.58641
44.9332	1.74401
55.2728	1.87555
65.3881	1.98103
75.8651	2.054
85.5683	2.12036
96.3659	2.19989
106.106	2.27928
