Adsorption isotherm of Hydrogen on ZIF-79
DOI: 10.1021/Jp200321y
Adsorbate Hydrogen: InChIKey UFHFLCQGNIYNRP-UHFFFAOYSA-N
Temperature: 298 K
Tabular data in the source: 0
pressure (bar)	uptake (wt%)
5.47546	1.46237
10.3938	1.85905
15.7964	2.00972
26.5184	2.12819
36.4735	2.18999
46.5235	2.23287
56.0674	2.25689
66.2678	2.29975
76.508	2.30476
86.4476	2.30982
96.5559	2.32116
106.495	2.32621
