Adsorption isotherm of Hydrogen on ZIF-69
DOI: 10.1021/Jp200321y
Adsorbate Hydrogen: InChIKey UFHFLCQGNIYNRP-UHFFFAOYSA-N
Temperature: 298 K
Tabular data in the source: 0
pressure (bar)	uptake (wt%)
4.69187	1.40025
9.72395	1.73942
14.8662	1.90284
25.3339	2.07997
35.8476	2.16597
46.0774	2.25844
56.3301	2.30534
66.4866	2.37177
76.6478	2.38611
86.0853	2.46546
96.9242	2.50593
106.856	2.54628
