Adsorption isotherm of Hydrogen on ZIF-69
DOI: 10.1021/Jp200321y
Adsorbate Hydrogen: InChIKey UFHFLCQGNIYNRP-UHFFFAOYSA-N
Temperature: 298 K
Tabular data in the source: 0
pressure (bar)	uptake (wt%)
1.6024	0.247587
7.00994	0.612848
12.2437	0.808827
22.6336	1.01199
33.106	1.13704
43.2396	1.24903
53.0023	1.28285
63.7403	1.39492
73.3337	1.42221
84.5663	1.49528
93.5735	1.529
104.243	1.56294
