Adsorption isotherm of Hydrogen on ZIF-68
DOI: 10.1021/Jp200321y
Adsorbate Hydrogen: InChIKey UFHFLCQGNIYNRP-UHFFFAOYSA-N
Temperature: 298 K
Tabular data in the source: 0
pressure (bar)	uptake (wt%)
9.78986	0.246402
19.7157	0.512701
29.6415	0.677047
40.1112	0.801617
49.6292	0.883893
59.9629	0.968673
69.7528	1.03604
79.9506	1.09346
90.1483	1.13348
99.8022	1.19338
