Adsorption isotherm of Hydrogen on ZIF-79
DOI: 10.1021/Jp200321y
Adsorbate Hydrogen: InChIKey UFHFLCQGNIYNRP-UHFFFAOYSA-N
Temperature: 298 K
Tabular data in the source: 0
pressure (bar)	uptake (wt%)
6.32761	0.638799
12.3352	0.841389
22.78	1.06409
33.344	1.2217
43.2898	1.32065
53.483	1.40009
63.9783	1.47958
73.6632	1.53943
84.9141	1.61901
94.3564	1.64628
104.682	1.71924
