Adsorption isotherm of Hydrogen on ZIF-78
DOI: 10.1021/Jp200321y
Adsorbate Hydrogen: InChIKey UFHFLCQGNIYNRP-UHFFFAOYSA-N
Temperature: 298 K
Tabular data in the source: 0
pressure (bar)	uptake (wt%)
33.2388	1.13055
43.1114	1.20344
53.4556	1.28291
64.0106	1.32985
73.6771	1.38319
84.2321	1.43014
93.5415	1.4639
103.909	1.4978
