Adsorption isotherm of Hydrogen on ZIF-78
DOI: 10.1021/Jp200321y
Adsorbate Hydrogen: InChIKey UFHFLCQGNIYNRP-UHFFFAOYSA-N
Temperature: 298 K
Tabular data in the source: 0
pressure (bar)	uptake (wt%)
41.6694	0.851718
52.0137	0.931184
62.4724	0.997646
71.9695	1.04445
82.8084	1.08492
92.5712	1.11874
102.957	1.15916
