Adsorption isotherm of Hydrogen on ZIF-68
DOI: 10.1021/Jp200321y
Adsorbate Hydrogen: InChIKey UFHFLCQGNIYNRP-UHFFFAOYSA-N
Temperature: 298 K
Tabular data in the source: 0
pressure (bar)	uptake (wt%)
9.92583	0.174292
19.8517	0.390857
29.7775	0.542769
39.4314	0.657375
49.6292	0.747125
59.9629	0.839366
69.7528	0.891808
79.8146	0.964149
90.0124	1.01163
99.8022	1.05661
