Adsorption isotherm of Hydrogen on ZIF-68
DOI: 10.1021/Jp200321y
Adsorbate Hydrogen: InChIKey UFHFLCQGNIYNRP-UHFFFAOYSA-N
Temperature: 298 K
Tabular data in the source: 0
pressure (bar)	uptake (wt%)
1.58934	0.132232
5.87848	0.365024
11.3363	0.534606
21.2087	0.72255
32.0811	0.840999
42.616	0.946877
52.5526	1.00238
62.8819	1.08937
73.1406	1.10068
83.2091	1.14987
93.5229	1.1801
103.199	1.19779
