Adsorption isotherm of Hydrogen on ZIF-69
DOI: 10.1021/Jp200321y
Adsorbate Hydrogen: InChIKey UFHFLCQGNIYNRP-UHFFFAOYSA-N
Temperature: 298 K
Tabular data in the source: 0
pressure (bar)	uptake (wt%)
1.38376	0.113339
5.71272	0.308288
11.0785	0.44635
21.592	0.596376
32.314	0.714843
41.9868	0.782993
52.2793	0.85737
62.1607	0.893962
72.5482	0.949408
82.4111	0.979696
92.5563	1.00364
102.683	1.02128
