Adsorption isotherm of Hydrogen on ZIF-70
DOI: 10.1021/Jp200321y
Adsorbate Hydrogen: InChIKey UFHFLCQGNIYNRP-UHFFFAOYSA-N
Temperature: 298 K
Tabular data in the source: 0
pressure (bar)	uptake (wt%)
15.9647	2.29358
26.8216	2.55539
37.4817	2.69349
47.7481	2.79898
57.204	2.88484
67.8504	2.96435
78.1947	3.04382
89.1251	3.11685
98.6222	3.16365
108.687	3.19751
