Adsorption isotherm of Hydrogen on ZIF-78
DOI: 10.1021/Jp200321y
Adsorbate Hydrogen: InChIKey UFHFLCQGNIYNRP-UHFFFAOYSA-N
Temperature: 298 K
Tabular data in the source: 0
pressure (bar)	uptake (wt%)
1.58338	0.233134
6.63658	0.573037
11.9257	0.736334
22.7	0.924164
32.8208	1.04271
43.282	1.12337
53.2002	1.17257
63.7749	1.2406
73.5458	1.23937
83.7646	1.28853
93.5538	1.29361
103.34	1.34913
