Adsorption isotherm of Hydrogen on ZIF-69
DOI: 10.1021/Jp200321y
Adsorbate Hydrogen: InChIKey UFHFLCQGNIYNRP-UHFFFAOYSA-N
Temperature: 298 K
Tabular data in the source: 0
pressure (bar)	uptake (wt%)
4.5795	1.36158
9.93334	1.70145
14.8113	1.82696
25.6439	1.98325
36.2002	2.04498
45.9282	2.13205
55.7727	2.15603
65.9547	2.19258
76.3452	2.19758
86.1131	2.2468
96.5589	2.2707
106.591	2.30728
