Adsorption isotherm of Hydrogen on ZIF-68
DOI: 10.1021/Jp200321y
Adsorbate Hydrogen: InChIKey UFHFLCQGNIYNRP-UHFFFAOYSA-N
Temperature: 298 K
Tabular data in the source: 0
pressure (bar)	uptake (wt%)
1.74616	0.34032
6.62765	0.724389
12.5887	0.963277
23.716	1.22043
33.6864	1.33899
43.8838	1.4323
54.6089	1.50032
64.1896	1.53695
74.5403	1.57979
84.7775	1.63525
94.849	1.63398
104.73	1.67057
