Adsorption isotherm of Hydrogen on ZIF-70
DOI: 10.1021/Jp200321y
Adsorbate Hydrogen: InChIKey UFHFLCQGNIYNRP-UHFFFAOYSA-N
Temperature: 243 K
Tabular data in the source: 0
pressure (bar)	uptake (wt%)
10.1216	0.0793795
20.0943	0.220593
29.6411	0.339536
39.9022	0.451074
49.7356	0.557655
59.9989	0.646932
69.5498	0.726299
79.956	0.813105
89.9365	0.877641
99.6306	0.952064
