Adsorption isotherm of Hydrogen on ZIF-70
DOI: 10.1021/Jp200321y
Adsorbate Hydrogen: InChIKey UFHFLCQGNIYNRP-UHFFFAOYSA-N
Temperature: 298 K
Tabular data in the source: 0
pressure (bar)	uptake (wt%)
5.17482	1.46241
10.2375	1.95997
15.6924	2.18
26.5986	2.36151
37.1151	2.46108
47.1652	2.50396
57.4606	2.52789
67.342	2.56448
77.5822	2.56949
97.2374	2.5544
107.254	2.53422
