Adsorption isotherm of Hydrogen on ZIF-70
DOI: 10.1021/Jp200321y
Adsorbate Hydrogen: InChIKey UFHFLCQGNIYNRP-UHFFFAOYSA-N
Temperature: 298 K
Tabular data in the source: 0
pressure (bar)	uptake (wt%)
11.3556	0.600393
22.1163	0.881722
32.5291	1.03932
43.1297	1.20996
53.1305	1.32844
63.3236	1.40788
73.819	1.48737
84.4838	1.57339
94.0358	1.63973
104.627	1.6997
