Adsorption isotherm of Hydrogen on ZIF-70
DOI: 10.1021/Jp200321y
Adsorbate Hydrogen: InChIKey UFHFLCQGNIYNRP-UHFFFAOYSA-N
Temperature: 298 K
Tabular data in the source: 0
pressure (bar)	uptake (wt%)
19.7157	0.475401
29.6415	0.64472
39.8393	0.786691
49.2213	0.896317
59.9629	0.98608
69.2089	1.05343
80.0865	1.14071
89.6044	1.20806
99.5303	1.25056
