Adsorption isotherm of Hydrogen on ZIF-68
DOI: 10.1021/Jp200321y
Adsorbate Hydrogen: InChIKey UFHFLCQGNIYNRP-UHFFFAOYSA-N
Temperature: 298 K
Tabular data in the source: 0
pressure (bar)	uptake (wt%)
1.59311	0.351744
6.62054	0.742996
12.8479	1.02373
24.419	1.3247
34.2274	1.48221
45.1532	1.60733
54.893	1.68671
65.2739	1.7792
74.9954	1.85208
85.1336	1.91199
95.9907	1.95897
105.222	2.01876
