Adsorption isotherm of Hydrogen on ZIF-68
DOI: 10.1021/Jp200321y
Adsorbate Hydrogen: InChIKey UFHFLCQGNIYNRP-UHFFFAOYSA-N
Temperature: 298 K
Tabular data in the source: 0
pressure (bar)	uptake (wt%)
0.801198	0.123793
5.93411	0.391369
11.3007	0.580857
21.8783	0.797062
32.3094	0.961169
42.6124	1.07969
53.1444	1.1722
63.1864	1.25163
72.9262	1.33101
83.6872	1.39751
93.9765	1.45744
104.005	1.47828
