Adsorption isotherm of Hydrogen on ZIF-70
DOI: 10.1021/Jp200321y
Adsorbate Hydrogen: InChIKey UFHFLCQGNIYNRP-UHFFFAOYSA-N
Temperature: 298 K
Tabular data in the source: 0
pressure (bar)	uptake (wt%)
9.98323	0.037327
19.6748	0.136485
30.0823	0.210924
39.6327	0.295237
50.1823	0.374627
59.736	0.426785
69.5725	0.503685
79.9808	0.570703
89.3918	0.622858
99.6588	0.675032
