Adsorption isotherm of Hydrogen on ZIF-70
DOI: 10.1021/Jp200321y
Adsorbate Hydrogen: InChIKey UFHFLCQGNIYNRP-UHFFFAOYSA-N
Temperature: 298 K
Tabular data in the source: 0
pressure (bar)	uptake (wt%)
1.61127	0.397094
6.81182	0.787429
12.4723	1.02635
23.6946	1.26458
34.0209	1.40202
44.2183	1.49532
54.6796	1.57599
65.0671	1.63143
74.5742	1.64285
84.5506	1.66051
94.7141	1.69076
104.822	1.70209
