Adsorption isotherm of Hydrogen on ZIF-70
DOI: 10.1021/Jp200321y
Adsorbate Hydrogen: InChIKey UFHFLCQGNIYNRP-UHFFFAOYSA-N
Temperature: 298 K
Tabular data in the source: 0
pressure (bar)	uptake (wt%)
9.92583	0.238946
19.9876	0.530114
30.0494	0.731763
39.9753	0.873728
49.9011	0.990826
60.0989	1.10047
70.0247	1.16784
80.2225	1.22029
90.4203	1.31252
100.074	1.37242
