Adsorption isotherm of Hydrogen on ZIF-78
DOI: 10.1021/Jp200321y
Adsorbate Hydrogen: InChIKey UFHFLCQGNIYNRP-UHFFFAOYSA-N
Temperature: 298 K
Tabular data in the source: 0
pressure (bar)	uptake (wt%)
4.28444	1.30906
9.79281	1.60272
14.2986	1.70096
24.7114	1.85855
35.3945	1.95108
45.6426	2.05007
55.9136	2.10348
65.5802	2.15682
75.7367	2.22324
86.0077	2.27666
96.526	2.31058
106.325	2.35742
