Adsorption isotherm of Hydrogen on ZIF-79
DOI: 10.1021/Jp200321y
Adsorbate Hydrogen: InChIKey UFHFLCQGNIYNRP-UHFFFAOYSA-N
Temperature: 298 K
Tabular data in the source: 0
pressure (bar)	uptake (wt%)
5.28316	0.264199
11.2686	0.408489
21.5367	0.577464
31.9397	0.689665
41.95	0.770385
52.3744	0.838439
62.087	0.868746
72.4561	0.917888
83.0707	0.948081
93.0655	0.972046
102.609	0.996067
