Adsorption isotherm of Hydrogen on ZIF-79
DOI: 10.1021/Jp200321y
Adsorbate Hydrogen: InChIKey UFHFLCQGNIYNRP-UHFFFAOYSA-N
Temperature: 298 K
Tabular data in the source: 0
pressure (bar)	uptake (wt%)
11.1039	0.457142
32.099	0.778863
41.7976	0.897305
52.1235	0.970258
62.5639	1.03021
72.1343	1.10306
83.0098	1.15656
92.6214	1.19036
103.231	1.25684
