Adsorption isotherm of Hydrogen on ZIF-70
DOI: 10.1021/Jp200321y
Adsorbate Hydrogen: InChIKey UFHFLCQGNIYNRP-UHFFFAOYSA-N
Temperature: 298 K
Tabular data in the source: 0
pressure (bar)	uptake (wt%)
11.9745	0.547138
21.9574	0.772906
32.5659	0.904001
42.6499	1.00994
52.9055	1.07171
62.9924	1.12719
73.2879	1.15112
83.2061	1.20032
93.6519	1.22422
103.027	1.24196
