Adsorption isotherm of Hydrogen on MIL-53(Al)
DOI: 10.1007/s10934-015-9982-0
Article source: Figure 8a
Adsorbate Hydrogen: InChIKey UFHFLCQGNIYNRP-UHFFFAOYSA-N
Kind: experiment
Temperature: 77 K
Tabular data in the source: 0
pressure (bar)	uptake (mmol/g)
0.291548	0.000842
2.39554	17.3354
4.7595	26.0065
9.73055	30.0642
14.6932	31.8114
19.9453	32.9818
24.9069	34.4402
29.8653	35.0321
40.0758	36.7944
45.0353	37.6752
49.9937	38.2671
59.9105	39.451
69.8274	40.6349
80.0368	42.1084
90.2442	43.0043
100.159	43.6106
