Adsorption isotherm of Hydrogen on MIL-101-B(Li)
DOI: 10.1007/s10934-015-9982-0
Article source: Figure 9a
Adsorbate Hydrogen: InChIKey UFHFLCQGNIYNRP-UHFFFAOYSA-N
Kind: experiment
Temperature: 298 K
Tabular data in the source: 0
pressure (bar)	uptake (mmol/g)
1.45871	0.227891
4.94324	0.379181
7.27256	0.632213
9.88227	0.656914
14.8224	0.960009
19.7593	1.18702
24.7004	1.51547
29.6342	1.6664
39.8011	2.19643
44.738	2.42344
49.9648	2.65037
59.5478	3.0791
69.9961	3.40616
79.5759	3.7588
90.0232	4.0605
99.8918	4.38771
