Adsorption isotherm of Hydrogen on MIL-101
DOI: 10.1007/s10934-015-9982-0
Article source: Figure 9a
Adsorbate Hydrogen: InChIKey UFHFLCQGNIYNRP-UHFFFAOYSA-N
Kind: experiment
Temperature: 298 K
Tabular data in the source: 0
pressure (bar)	uptake (mmol/g)
4.36668	0.455414
9.88647	0.758362
14.8276	1.08682
19.4789	1.41535
24.9987	1.7183
29.65	2.04683
44.4671	2.88003
49.696	3.15769
59.573	3.68779
70.0287	4.19238
79.6116	4.62111
89.7754	5.07506
99.6482	5.50371
