Adsorption isotherm of Hydrogen on MIL-53(Al)-A(Li)
DOI: 10.1007/s10934-015-9982-0
Article source: Figure 9a
Adsorbate Hydrogen: InChIKey UFHFLCQGNIYNRP-UHFFFAOYSA-N
Kind: experiment
Temperature: 298 K
Tabular data in the source: 0
pressure (bar)	uptake (mmol/g)
14.5189	0.630376
19.7425	0.781225
24.9661	0.932074
29.6164	1.23524
39.779	1.66382
44.7097	1.73866
49.9365	1.9656
59.8061	2.31817
69.387	2.69617
79.8301	2.89642
89.6977	3.19827
99.56	3.3733
