Adsorption isotherm of Hydrogen on MIL-53(Al)-A(Li)
DOI: 10.1007/s10934-015-9982-0
Article source: Figure 9a
Adsorbate Hydrogen: InChIKey UFHFLCQGNIYNRP-UHFFFAOYSA-N
Kind: experiment
Temperature: 298 K
Tabular data in the source: 0
pressure (bar)	uptake (mmol/g)
4.35828	0.252518
7.26415	0.429317
9.58717	0.530177
14.8161	0.807837
19.7509	0.984121
24.9787	1.23642
29.6227	1.38741
39.7853	1.816
44.7202	1.99228
49.9449	2.16849
59.8124	2.47034
69.6811	2.79754
79.8385	3.09932
89.704	3.35044
99.8603	3.62685
