Adsorption isotherm of Hydrogen on MIL-101-B(Li)
DOI: 10.1007/s10934-015-9982-0
Article source: Figure 8a
Adsorbate Hydrogen: InChIKey UFHFLCQGNIYNRP-UHFFFAOYSA-N
Kind: experiment
Temperature: 77 K
Tabular data in the source: 0
pressure (bar)	uptake (mmol/g)
0.291548	0.000842
1.51668	16.1777
2.98916	20.2252
5.04263	23.6969
7.68024	27.459
14.7037	34.6995
19.9621	37.6028
24.929	40.5052
29.8926	42.5412
39.8179	46.0356
45.071	47.4948
50.0337	49.242
59.9526	51.0035
70.1652	53.3434
80.0821	54.5273
89.9989	55.7112
100.208	57.1847
