Adsorption isotherm of Hydrogen on MIL-101-A(Li)
DOI: 10.1007/s10934-015-9982-0
Article source: Figure 8a
Adsorbate Hydrogen: InChIKey UFHFLCQGNIYNRP-UHFFFAOYSA-N
Kind: experiment
Temperature: 77 K
Tabular data in the source: 0
pressure (bar)	uptake (mmol/g)
0.291548	0.000842
1.83139	22.5324
5.07526	32.65
7.42343	36.9889
10.061	40.7511
15.0405	47.1193
20.0158	52.3322
25.2794	56.6795
29.9537	59.2923
40.1747	63.9427
45.1405	66.5564
50.1021	68.0147
60.0274	71.5091
70.2389	73.5603
79.8705	76.4762
90.3715	77.9505
100.29	79.712
