Adsorption isotherm of Hydrogen on MIL-53(Al)-A(Li)
DOI: 10.1007/s10934-015-9982-0
Article source: Figure 9a
Adsorbate Hydrogen: InChIKey UFHFLCQGNIYNRP-UHFFFAOYSA-N
Kind: experiment
Temperature: 298 K
Tabular data in the source: 0
pressure (bar)	uptake (mmol/g)
1.16151	0.05043
2.61497	0.151511
4.64498	0.176358
7.2589	0.302507
9.57877	0.327281
14.8045	0.528854
19.7341	0.578328
24.67	0.779975
29.8905	0.854738
39.7559	1.10586
44.6834	1.10461
49.6172	1.25553
59.7641	1.30368
69.6243	1.42799
79.7734	1.52687
89.9213	1.60038
99.7784	1.64861
