Adsorption isotherm of Hydrogen on MIL-101
DOI: 10.1007/s10934-015-9982-0
Article source: Figure 8a
Adsorbate Hydrogen: InChIKey UFHFLCQGNIYNRP-UHFFFAOYSA-N
Kind: experiment
Temperature: 77 K
Tabular data in the source: 0
pressure (bar)	uptake (mmol/g)
0.291548	0.000842
1.82191	19.9331
7.41396	34.3896
10.0505	37.863
15.03	44.2311
19.7106	48.5768
25.2637	52.3473
29.939	55.2489
40.1631	60.7658
45.1258	62.513
50.0884	64.2602
60.0126	67.4657
69.9316	69.2272
79.8495	70.6999
90.3494	71.8855
99.9737	72.7797
