Adsorption isotherm of Hydrogen on MIL-101-A(Li)
DOI: 10.1007/s10934-015-9982-0
Article source: Figure 9a
Adsorbate Hydrogen: InChIKey UFHFLCQGNIYNRP-UHFFFAOYSA-N
Kind: experiment
Temperature: 298 K
Tabular data in the source: 0
pressure (bar)	uptake (mmol/g)
1.74961	0.253179
4.95164	0.582077
7.27676	0.733662
9.89383	0.935896
14.8371	1.31508
19.7771	1.61817
24.7204	1.99735
29.6615	2.32581
39.8315	2.93193
44.7758	3.33647
50.0068	3.66485
59.8849	4.22032
69.7661	4.85187
79.9351	5.43263
90.103	5.98802
99.9811	6.54348
