Adsorption isotherm of Hydrogen on MIL-53(Al)-B(Li)
DOI: 10.1007/s10934-015-9982-0
Article source: Figure 8a
Adsorbate Hydrogen: InChIKey UFHFLCQGNIYNRP-UHFFFAOYSA-N
Kind: experiment
Temperature: 77 K
Tabular data in the source: 0
pressure (bar)	uptake (mmol/g)
0.291548	0.000842
0.895695	5.77876
1.49037	8.95737
2.97232	15.6043
2.98916	20.2252
6.4909	21.1018
7.3708	22.5484
14.9574	24.3031
19.9158	24.8951
24.8753	25.7758
30.1242	26.0798
40.041	27.2637
44.9984	27.5668
49.9568	28.1587
59.8705	28.4762
70.0779	29.3721
79.9916	29.6895
90.1989	30.5854
100.113	30.9029
