Adsorption isotherm of Hydrogen on MIL-53(Al)-A(Li)
DOI: 10.1007/s10934-015-9982-0
Article source: Figure 8a
Adsorbate Hydrogen: InChIKey UFHFLCQGNIYNRP-UHFFFAOYSA-N
Kind: experiment
Temperature: 77 K
Tabular data in the source: 0
pressure (bar)	uptake (mmol/g)
0.291548	0.000842
0.923061	13.2879
1.523	17.9105
2.41554	22.8229
5.06262	29.1843
7.40133	30.9239
10.0274	31.5091
14.9921	33.8339
19.66	34.7138
24.9142	36.4618
29.8737	37.3426
40.0884	40.2602
44.7574	41.4289
50.0084	42.3105
59.9305	44.9384
70.1442	47.5672
80.0653	49.9063
89.9842	51.6678
100.199	54.5854
