Adsorption isotherm of Hydrogen on Ni2(dhtp)(H2O)2*8H2O
DOI: 10.1039/B515434k
Adsorbate Hydrogen: InChIKey UFHFLCQGNIYNRP-UHFFFAOYSA-N
Temperature: 77 K
Tabular data in the source: 0
pressure (bar)	uptake (wt%)
0.433639	-0.000625
1.96305	0.986938
4.71599	1.18795
7.62187	1.46324
11.2925	1.57248
20.4689	1.65988
42.9513	1.84341
48.7631	1.7866
