Adsorption isotherm of Hydrogen on Ni2(dhtp)(H2O)2*8H2O
DOI: 10.1039/B515434k
Adsorbate Hydrogen: InChIKey UFHFLCQGNIYNRP-UHFFFAOYSA-N
Temperature: 298 K
Tabular data in the source: 0
pressure (bar)	uptake (wt%)
0.58658	0.00374478
5.32776	0.0212238
8.99834	0.034333
13.1278	0.0605515
18.1748	0.08677
29.9513	0.112988
59.0101	0.226602
66.9631	0.226602
