Adsorption isotherm of Nitrogen on Ni2(dhtp)(H2O)2*8H2O
DOI: 10.1039/B515434k
Adsorbate Nitrogen: InChIKey IJGRMHOSHXDMSA-UHFFFAOYSA-N
Temperature: 77 K
Tabular data in the source: 0
pressure (bar)	uptake (mg/g)
0.00400996	2.94945
0.0127495	284.361
0.0389679	293.538
0.117623	298.126
0.242161	302.714
0.366699	304.244
0.482497	307.302
0.574262	308.832
0.6988	308.832
0.823338	311.126
0.928212	314.949
0.989388	327.185
