Adsorption isotherm of Nitrogen on (Hbzza)2]*H2O*C2H5OH
DOI: 10.1002/cssc.201100702
Adsorbate Nitrogen: InChIKey IJGRMHOSHXDMSA-UHFFFAOYSA-N
Temperature: 295 K
Tabular data in the source: 0
pressure (bar)	uptake (cm3(STP)/g)
0.0208866	0.232571
0.108125	2.09176
0.161041	2.94984
0.212526	4.09396
0.265441	4.95204
0.374132	6.81123
0.477102	8.38439
0.595804	9.95754
0.727377	11.1017
0.861811	11.9597
1.00053	12.6748
