Adsorption isotherm of Carbon Dioxide on (Hbzza)2]*H2O*C2H5OH
DOI: 10.1002/cssc.201100702
Adsorbate Carbon Dioxide: InChIKey CURLTUGMZLYLDI-UHFFFAOYSA-N
Temperature: 273 K
Tabular data in the source: 0
pressure (bar)	uptake (cm3(STP)/g)
0.00372489	0.232571
0.0180263	20.9696
0.0237469	27.8343
0.0308976	33.4119
0.045199	40.7056
0.0523498	45.4251
0.0680813	49.5725
0.106695	57.7243
0.15961	64.017
0.236838	70.5956
0.316926	75.3151
0.427047	80.1776
0.528587	83.6099
0.661591	87.4713
0.788873	90.4746
0.85752	91.9047
0.921877	93.1919
1.00196	94.765
