Adsorption isotherm of Nitrogen on (Hbzza)2]*H2O*C2H5OH
DOI: 10.1002/cssc.201100702
Adsorbate Nitrogen: InChIKey IJGRMHOSHXDMSA-UHFFFAOYSA-N
Temperature: 310 K
Tabular data in the source: 0
pressure (bar)	uptake (cm3(STP)/g)
0.0208866	0.232571
0.105265	0.661614
0.15961	0.804628
0.211096	0.947643
0.265441	1.37669
0.369842	2.37779
0.472812	2.66381
0.597234	3.23587
0.725947	3.66491
0.85752	4.09396
1.00339	4.09396
