Adsorption isotherm of Hydrogen on (Hbzza)2]*H2O*C2H5OH
DOI: 10.1002/cssc.201100702
Adsorbate Hydrogen: InChIKey UFHFLCQGNIYNRP-UHFFFAOYSA-N
Temperature: 77 K
Tabular data in the source: 0
pressure (bar)	uptake (cm3(STP)/g)
0.00561856	27.3821
0.0112524	61.1849
0.0140693	73.692
0.0267453	86.199
0.0366045	92.9596
0.0605481	99.8892
0.101393	105.467
0.154914	109.523
0.238013	114.424
0.332379	117.805
0.464773	120.847
0.598576	123.72
0.726745	126.255
0.85914	128.622
0.925337	129.636
