Adsorption isotherm of Nitrogen on (Hbzza)2]*H2O*C2H5OH
DOI: 10.1002/cssc.201100702
Adsorbate Nitrogen: InChIKey IJGRMHOSHXDMSA-UHFFFAOYSA-N
Temperature: 273 K
Tabular data in the source: 0
pressure (bar)	uptake (cm3(STP)/g)
0.0123058	0.5186
0.0809526	3.23587
0.133868	5.23807
0.185353	7.09726
0.266871	9.81453
0.371272	12.3888
0.475672	14.677
0.595804	16.8222
0.727377	18.3954
0.85609	19.3965
1.00196	19.8255
