Adsorption isotherm of Carbon Dioxide on (Hbzza)2]*H2O*C2H5OH
DOI: 10.1002/cssc.201100702
Adsorbate Carbon Dioxide: InChIKey CURLTUGMZLYLDI-UHFFFAOYSA-N
Temperature: 310 K
Tabular data in the source: 0
pressure (bar)	uptake (cm3(STP)/g)
0.00801532	0.947643
0.0280373	7.66931
0.0566402	17.6803
0.0938239	25.4031
0.132438	31.5527
0.186783	37.9883
0.265441	44.567
0.372702	50.1446
0.472812	54.721
0.592944	58.1534
0.723087	61.5857
0.860381	64.16
1.00482	66.5912
