Adsorption isotherm of Carbon Dioxide on (Hbzza)2]*H2O*C2H5OH
DOI: 10.1002/cssc.201100702
Adsorbate Carbon Dioxide: InChIKey CURLTUGMZLYLDI-UHFFFAOYSA-N
Temperature: 295 K
Tabular data in the source: 0
pressure (bar)	uptake (cm3(STP)/g)
0.00801532	0.661614
0.035188	19.3965
0.0466292	24.116
0.0680813	30.1226
0.108125	38.9894
0.165331	46.2832
0.212526	51.0026
0.266871	55.5791
0.368411	61.2997
0.478532	65.4471
0.594374	69.5945
0.724517	72.8838
0.85609	75.7441
1.00196	78.3184
