Adsorption isotherm of Nitrogen on (Hbzza)2]*H2O*C2H5OH
DOI: 10.1002/cssc.201100702
Adsorbate Nitrogen: InChIKey IJGRMHOSHXDMSA-UHFFFAOYSA-N
Temperature: 77 K
Tabular data in the source: 0
pressure (bar)	uptake (cm3(STP)/g)
0.0108756	1.94874
0.0695115	18.9674
0.119566	20.3976
0.162471	21.1127
0.198224	21.3987
0.299764	22.1138
0.401305	22.3998
0.499985	22.3998
0.602955	22.5428
0.700205	22.5428
0.804605	23.1149
0.85466	23.6869
0.898994	24.545
0.976222	28.1204
0.994814	34.413
