Adsorption isotherm of Hydrogen on (Hbzza)2]*H2O*C2H5OH
DOI: 10.1002/cssc.201100702
Adsorbate Hydrogen: InChIKey UFHFLCQGNIYNRP-UHFFFAOYSA-N
Temperature: 87 K
Tabular data in the source: 0
pressure (bar)	uptake (cm3(STP)/g)
0.00561856	8.95958
0.0112524	31.4384
0.0126608	46.3117
0.0267453	61.1849
0.0380129	70.4807
0.063365	80.9596
0.0873087	87.5511
0.129562	93.9737
0.1859	99.3821
0.236604	102.593
0.333788	107.326
0.463365	112.058
0.597168	114.931
0.723928	117.467
0.863365	119.326
0.928154	120.678
