Adsorption isotherm of Carbon Dioxide on Activated alumina: F-200
DOI: 10.1021/la901107s
Article source: Figure 4
Adsorbate Carbon Dioxide: InChIKey CURLTUGMZLYLDI-UHFFFAOYSA-N
Kind: experiment
Temperature: 303 K
Tabular data in the source: 0
pressure (bar)	uptake (mmol/g)
0.1106	0.3966
0.3902	0.6297
0.4282	0.6565
0.4479	0.6691
0.4802	0.6857
0.5388	0.7235
0.599	0.7566
0.6596	0.7873
0.7195	0.8133
0.9049	0.8961
0.9873	0.9323
1.035	0.9528
1.057	0.9615
