Adsorption isotherm of Carbon Dioxide, Water on Activated alumina: F-200
DOI: 10.1021/la901107s
Article source: Figure 6d
Adsorbate Carbon Dioxide: InChIKey CURLTUGMZLYLDI-UHFFFAOYSA-N
Adsorbate Water: InChIKey XLYOFNOQVPJJNP-UHFFFAOYSA-N
Kind: experiment
Temperature: 298 K
Tabular data in the source: 0
pressure (bar)	Carbon Dioxide fraction	Carbon Dioxide uptake (mmol/g)	Water fraction	Water uptake (mmol/g)	total uptake (mmol/g)
1.02132	0.99993	1.04609	7e-05	0	
1.0256	0.995759	0.914949	0.004241	4.11733	
1.02729	0.994121	0.956446	0.005879	4.99145	
1.03083	0.990704	0.953924	0.009296	6.24856	
1.03441	0.987275	1.01542	0.012725	7.97531	
1.04117	0.980869	0.88252	0.019131	12.0268	
1.0449	0.97737	0.879868	0.02263	15.1625	
1.04956	0.973027	0.748454	0.026973	20.7314	
