Adsorption isotherm of Carbon Dioxide, Water on Activated alumina: F-200
DOI: 10.1021/la901107s
Article source: Figure 6f
Adsorbate Carbon Dioxide: InChIKey CURLTUGMZLYLDI-UHFFFAOYSA-N
Adsorbate Water: InChIKey XLYOFNOQVPJJNP-UHFFFAOYSA-N
Kind: experiment
Temperature: 303 K
Tabular data in the source: 0
pressure (bar)	Carbon Dioxide fraction	Carbon Dioxide uptake (mmol/g)	Water fraction	Water uptake (mmol/g)	total uptake (mmol/g)
1.02133	0.999922	0.976756	7.8e-05	0.031529	
1.02305	0.998237	0.789757	0.001763	2.01847	
1.02584	0.995529	0.793045	0.004471	3.20328	
1.03127	0.990288	0.878224	0.009712	5.00554	
1.04038	0.981614	0.825979	0.018386	8.43468	
1.04833	0.974163	0.851133	0.025837	12.4768	
1.05592	0.967166	0.970365	0.032834	18.1568	
