Adsorption isotherm of Carbon Dioxide, Water on Activated alumina: F-200
DOI: 10.1021/la901107s
Article source: Figure 6b
Adsorbate Carbon Dioxide: InChIKey CURLTUGMZLYLDI-UHFFFAOYSA-N
Adsorbate Water: InChIKey XLYOFNOQVPJJNP-UHFFFAOYSA-N
Kind: experiment
Temperature: 293 K
Tabular data in the source: 0
pressure (bar)	Carbon Dioxide fraction	Carbon Dioxide uptake (mmol/g)	Water fraction	Water uptake (mmol/g)	total uptake (mmol/g)
1.02127	0.99998	1.11556	2e-05	0.028582	
1.02265	0.998635	1.17434	0.001365	2.89057	
1.02496	0.996381	1.17699	0.003619	4.55232	
1.02859	0.992864	1.09533	0.007136	7.01637	
1.0314	0.990159	0.984131	0.009841	8.96467	
1.03627	0.985502	1.01831	0.014498	12.9176	
1.0383	0.983579	0.820401	0.016421	15.4943	
1.0414	0.980655	0.909756	0.019345	19.5025	
1.04296	0.979182	0.425279	0.020818	23.1942	
