Adsorption isotherm of Water on Activated alumina: F-200
DOI: 10.1021/la901107s
Article source: Figure 5
Adsorbate Water: InChIKey XLYOFNOQVPJJNP-UHFFFAOYSA-N
Kind: experiment
Temperature: 303 K
Tabular data in the source: 0
pressure (bar)	uptake (mmol/g)
0.001807	3.199
0.005285	4.41
0.009563	5.323
0.01526	7.128
0.02096	9.146
0.02825	12.72
0.03639	19.39
0.03744	20.23
