Adsorption isotherm of Methanol on [Zn2(ip)2(bpy)2]*DMF}n
DOI: 10.1039/B703502k
Adsorbate Methanol: InChIKey OKKJLVBELUTLKV-UHFFFAOYSA-N
Temperature: 298 K
Tabular data in the source: 0
pressure (bar)	uptake (ml/g)
0.00147852	0.674161
0.00466844	2.07248
0.00768356	3.99517
0.00991213	6.26744
0.0122281	9.41366
0.0138012	13.259
0.0143256	15.7061
0.0146752	42.9733
0.0148499	63.7733
0.014981	79.5044
