Adsorption isotherm of Water on [Zn2(ip)2(bpy)2]*DMF}n
DOI: 10.1039/B703502k
Adsorbate Water: InChIKey XLYOFNOQVPJJNP-UHFFFAOYSA-N
Temperature: 298 K
Tabular data in the source: 0
pressure (bar)	uptake (ml/g)
8.02e-05	0.324581
0.00139112	4.51954
0.00375079	11.1616
0.00471213	12.3851
0.00606675	20.2506
0.00820793	23.7464
0.0086886	25.6691
0.00890709	35.2826
0.00978104	37.5548
0.0103054	45.9447
0.0120533	50.4893
0.0194382	53.2859
