Adsorption isotherm of Benzene on [Zn2(ip)2(bpy)2]*DMF}n
DOI: 10.1039/B703502k
Adsorbate Benzene: InChIKey UHOVQNZJYSORNB-UHFFFAOYSA-N
Temperature: 298 K
Tabular data in the source: 0
pressure (bar)	uptake (ml/g)
0.00802345	0.819188
0.0167629	3.14972
0.126007	3.26625
0.271665	3.26625
0.36343	3.38277
0.449368	3.26625
0.536763	3.38277
0.629984	3.4993
0.93878	4.19846
0.992673	6.17941
