Adsorption isotherm of Ethanol on [Zn2(ip)2(bpy)2]*DMF}n
DOI: 10.1039/B703502k
Adsorbate Ethanol: InChIKey LFQSCWFLJHTTHZ-UHFFFAOYSA-N
Temperature: 298 K
Tabular data in the source: 0
pressure (bar)	uptake (ml/g)
0.00219712	5.48025
0.0123932	17.0164
0.0313288	26.8046
0.112897	28.2029
0.200292	28.436
0.296427	28.5525
0.446455	28.436
0.564438	28.5525
0.746511	28.669
0.999956	29.8343
