Adsorption isotherm of Methanol on [Zn2(ip)2(bpy)2]*DMF}n
DOI: 10.1039/B703502k
Adsorbate Methanol: InChIKey OKKJLVBELUTLKV-UHFFFAOYSA-N
Temperature: 298 K
Tabular data in the source: 0
pressure (bar)	uptake (ml/g)
0.0123932	4.31499
0.0371551	17.0164
0.061917	24.8237
0.079396	37.7581
0.0895921	49.0612
0.12018	51.8578
0.241077	54.771
0.434802	55.9363
0.621245	56.6354
0.775643	56.8685
0.845558	56.8685
0.964998	58.1503
