Adsorption isotherm of Nitrogen on UiO-66-NO2
DOI: 10.1039/c4cp04162c
Article source: Figure S4
Adsorbate Nitrogen: InChIKey IJGRMHOSHXDMSA-UHFFFAOYSA-N
Kind: experiment
Temperature: 77 K
Tabular data in the source: 0
pressure (bar)	uptake (cm3(STP)/g)
0.006361	120.89
0.030773	129.172
0.064967	132.525
0.079622	134.197
0.097537	134.227
0.11871	134.262
0.13825	135.942
0.139879	135.945
0.157794	135.974
0.178966	136.009
0.19851	136.042
0.203396	136.05
0.250627	136.127
0.299483	137.856
0.301116	136.211
0.349972	137.94
0.353229	137.945
0.397199	139.666
0.402089	138.025
0.447688	139.749
0.454202	139.76
0.477011	136.501
0.499805	139.835
0.532378	139.889
0.550293	139.918
0.581238	139.969
0.618697	140.031
0.649642	140.082
0.66756	138.463
0.68059	138.484
0.718049	138.546
0.750622	138.6
0.766909	138.627
0.781566	138.651
0.797853	138.678
0.807625	138.694
0.822279	140.366
0.833684	138.737
0.848341	138.761
0.859742	138.78
0.876025	140.455
0.884165	142.117
0.90208	142.146
0.908595	142.157
0.923253	142.181
0.93465	143.848
0.952565	143.878
0.963962	145.545
0.978598	155.459
0.978609	150.514
0.985124	150.525
0.99162	158.777
0.996481	170.324
