Adsorption isotherm of Nitrogen on UiO-66-Br
DOI: 10.1039/c4cp04162c
Article source: Figure S4
Adsorbate Nitrogen: InChIKey IJGRMHOSHXDMSA-UHFFFAOYSA-N
Kind: experiment
Temperature: 77 K
Tabular data in the source: 0
pressure (bar)	uptake (cm3(STP)/g)
0.011365	66.5022
0.032537	66.5371
0.065096	73.1842
0.083012	73.2138
0.100927	73.2433
0.120471	73.2755
0.140011	74.9561
0.161184	74.991
0.179099	75.0205
0.201904	73.4097
0.25076	75.1386
0.301245	76.8702
0.350108	75.3024
0.398964	77.0313
0.451078	78.7655
0.499941	77.1977
0.550429	77.2809
0.597657	79.0071
0.649774	79.093
0.700266	77.5279
0.750751	79.2595
0.780067	79.3078
0.799611	79.34
0.807754	79.3534
0.822412	79.3776
0.832184	79.3937
0.846838	81.0662
0.85661	81.0823
0.876158	79.4662
0.881043	79.4742
0.902212	81.1575
0.910356	81.1709
0.926635	84.4945
0.938032	86.1616
0.954319	86.1884
0.964091	86.2045
0.977113	89.5227
0.978742	89.5254
0.985245	94.4812
0.993367	104.385
