Adsorption isotherm of Nitrogen on UiO-66
DOI: 10.1039/c4cp04162c
Article source: Figure S4
Adsorbate Nitrogen: InChIKey IJGRMHOSHXDMSA-UHFFFAOYSA-N
Kind: experiment
Temperature: 77 K
Tabular data in the source: 0
pressure (bar)	uptake (cm3(STP)/g)
0.009267	282.433
0.033626	315.44
0.06292	325.378
0.077574	327.051
0.093857	328.726
0.121534	333.717
0.139449	333.746
0.158986	337.075
0.17853	337.107
0.199702	337.142
0.248555	340.52
0.299036	343.9
0.349521	345.631
0.401631	349.014
0.448862	349.092
0.499343	352.471
0.549828	354.203
0.598684	355.932
0.650794	359.314
0.69965	361.043
0.748506	362.772
0.782698	367.774
0.797348	371.095
0.805492	371.108
0.818517	372.778
0.831543	374.448
0.849455	376.125
0.855959	381.081
0.872242	382.756
0.883628	389.369
0.899911	391.044
0.91779	407.557
0.925948	400.977
0.945406	440.569
0.948695	425.74
0.969757	476.873
0.972749	598.856
0.977532	646.666
0.979389	541.175
0.985564	697.778
0.987318	640.089
0.993646	725.814
