Adsorption isotherm of Nitrogen on UiO-66-NH2
DOI: 10.1039/c4cp04162c
Article source: Figure S4
Adsorbate Nitrogen: InChIKey IJGRMHOSHXDMSA-UHFFFAOYSA-N
Kind: experiment
Temperature: 77 K
Tabular data in the source: 0
pressure (bar)	uptake (cm3(STP)/g)
0.009464	191.774
0.011078	198.37
0.028954	216.531
0.050123	218.214
0.063142	223.181
0.079432	221.56
0.102222	226.542
0.118509	226.569
0.139685	224.956
0.160851	228.287
0.180395	228.319
0.20156	231.651
0.201571	226.706
0.250416	233.38
0.250427	228.435
0.300905	233.463
0.300919	226.87
0.330231	228.566
0.351393	233.546
0.380716	230.298
0.401878	235.278
0.429579	228.73
0.449112	233.707
0.480068	228.813
0.499601	233.791
0.530553	230.545
0.548461	233.871
0.581041	230.628
0.600574	235.605
0.633158	230.714
0.652691	235.691
0.701558	232.475
0.717834	237.447
0.748782	235.85
0.799271	235.933
0.804164	232.644
0.807421	232.65
0.820439	237.616
0.831851	232.69
0.849755	237.664
0.856281	232.73
0.875814	237.707
0.882339	232.773
0.900244	237.748
0.908391	236.113
0.936078	236.158
0.950725	241.128
0.975137	249.41
0.98328	249.423
0.994656	260.98
0.996292	257.686
