Adsorption isotherm of Nitrogen on Ni3N/NC
DOI: 10.1039/c7cc05172g
Article source: Figure S2
Adsorbate Nitrogen: InChIKey IJGRMHOSHXDMSA-UHFFFAOYSA-N
Kind: experiment
Temperature: 77 K
Tabular data in the source: 0
pressure (bar)	uptake (cm3(STP)/g)
0.018423	13.6972
0.030705	15.757
0.066015	18.4346
0.073691	19.2585
0.096719	20.0824
0.121283	21.7302
0.161199	22.76
0.20265	23.7899
0.277876	26.8795
0.330074	28.7333
0.36999	30.3811
0.428328	32.6468
0.480526	34.2945
0.528118	37.1782
0.571105	39.6498
0.606415	42.1215
0.657077	46.241
0.713881	49.9485
0.756867	53.862
0.816741	61.483
0.833628	65.1905
0.862798	71.7817
0.882756	77.137
0.905784	82.2863
0.939559	85.9938
1.00404	87.0237
0.979475	87.2297
0.94263	87.2297
0.91346	87.0237
0.888897	86.4058
0.87508	86.1998
0.841305	84.552
0.818276	82.9042
0.753797	79.8146
0.71081	73.0175
0.655542	67.2503
0.597203	59.6292
0.560358	54.4799
0.502019	49.1246
0.457498	37.5901
0.397624	32.4408
0.330074	29.1452
0.276341	27.0855
0.224143	25.6437
0.185762	24.4078
0.124353	21.3182
