Adsorption isotherm of Nitrogen on NiO/NC
DOI: 10.1039/c7cc05172g
Article source: Figure S3
Adsorbate Nitrogen: InChIKey IJGRMHOSHXDMSA-UHFFFAOYSA-N
Kind: experiment
Temperature: 77 K
Tabular data in the source: 0
pressure (bar)	uptake (cm3(STP)/g)
0.012357	21.4286
0.023169	23.1092
0.052516	26.4706
0.069506	27.7311
0.088042	28.9916
0.11121	29.8319
0.134379	30.2521
0.166816	30.6723
0.179172	31.5126
0.256402	34.874
0.307373	36.5546
0.358345	37.395
0.410861	39.4958
0.458743	41.5966
0.514348	41.5966
0.565319	43.6975
0.61938	45.7983
0.661084	49.5798
0.708966	51.6807
0.775383	55.8824
0.812454	62.605
0.834078	65.5462
0.868059	76.8908
0.894317	89.4958
0.912852	104.622
0.929842	121.008
0.937565	131.092
0.954556	152.101
0.963823	170.168
0.977724	189.496
0.990081	199.16
1.00398	202.941
1.00089	203.782
0.986992	202.521
0.974635	201.26
0.951466	194.958
0.922119	171.429
0.920575	166.387
0.903584	141.597
0.891228	124.37
0.86497	103.361
0.86497	96.6387
0.846434	85.7143
0.810909	71.8487
0.769205	61.3445
0.7136	55.8824
0.661084	51.2605
0.613202	49.5798
0.565319	48.3193
0.498902	47.0588
0.449475	43.2773
0.409316	41.5966
0.352166	39.0756
0.304284	38.6555
0.250223	36.9748
0.199252	34.4538
0.135924	34.874
