Adsorption isotherm of Bovine Serum Albumin, Bovine Serum Immunoglobulin G, Water on MMI-B-6FF-110
DOI: 10.1016/j.bej.2016.12.005
Article source: Figure 3
Adsorbate Bovine Serum Albumin: InChIKey NIST-ISODB-52CDAC8E72899271CC9F
Adsorbate Bovine Serum Immunoglobulin G: InChIKey NIST-ISODB-BECCAEDBC0A149897168
Adsorbate Water: InChIKey XLYOFNOQVPJJNP-UHFFFAOYSA-N
Kind: experiment
Temperature: 298 K
Tabular data in the source: 0
pressure (bar)	Bovine Serum Albumin fraction	Bovine Serum Albumin uptake (mg/g)	Bovine Serum Immunoglobulin G fraction	Bovine Serum Immunoglobulin G uptake (mg/g)	Water fraction	Water uptake (mg/g)	total uptake (mg/g)
1.01325	0	0	0.0896	4.934			
1.01325	0.8722	9.254	0.0899	0.291			
1.01325	1.9555	11.833	0.2742	8.975			
1.01325	4.5186	15.445	0.5907	15.424			
1.01325	7.4516	21.809	1.4355	20.153			
1.01325	10.781	24.173	2.0162	24.108			
1.01325	18.3382	27.139	3.3629	26.429			
1.01325	24.8385	27.18	4.8153	28.062			
