Adsorption isotherm of Bovine Serum Albumin, Water on MMI-B-4FF-100
DOI: 10.1016/j.bej.2016.12.005
Article source: Figure 2
Adsorbate Bovine Serum Albumin: InChIKey NIST-ISODB-52CDAC8E72899271CC9F
Adsorbate Water: InChIKey XLYOFNOQVPJJNP-UHFFFAOYSA-N
Kind: experiment
Temperature: 298 K
Tabular data in the source: 0
pressure (bar)	Bovine Serum Albumin fraction	Bovine Serum Albumin uptake (mg/g)	Water fraction	Water uptake (mg/g)	total uptake (mg/g)
1.01325	1.4973	8.709			
1.01325	3.5266	10.381			
1.01325	7.4804	15.139			
1.01325	11.1707	19.682			
1.01325	15.2809	21.311			
1.01325	22.6612	29.841			
1.01325	30.4077	33.613			
1.01325	37.8082	31.041			
