Adsorption isotherm of Bovine Serum Albumin, Bovine Serum Immunoglobulin G, Water on MMI-B-3.5HF-50
DOI: 10.1016/j.bej.2016.12.005
Article source: Figure 1
Adsorbate Bovine Serum Albumin: InChIKey NIST-ISODB-52CDAC8E72899271CC9F
Adsorbate Bovine Serum Immunoglobulin G: InChIKey NIST-ISODB-BECCAEDBC0A149897168
Adsorbate Water: InChIKey XLYOFNOQVPJJNP-UHFFFAOYSA-N
Kind: experiment
Temperature: 298 K
Tabular data in the source: 0
pressure (bar)	Bovine Serum Albumin fraction	Bovine Serum Albumin uptake (mg/g)	Bovine Serum Immunoglobulin G fraction	Bovine Serum Immunoglobulin G uptake (mg/g)	Water fraction	Water uptake (mg/g)	total uptake (mg/g)
1.01325	1.2024	3.443	0.3012	4.059			
1.01325	2.5469	8.112	0.4574	8.997			
1.01325	5.656	11.155	1.0741	14.308			
1.01325	8.6852	11.029	2.7566	20.478			
1.01325	11.6094	12.444	4.624	24.814			
1.01325	17.2738	16.816	6.2416	28.477			
1.01325	22.9632	15.577	8.5313	29.819			
