Adsorption isotherm of Bovine Serum Immunoglobulin G, Water on MMI-B-4FF-100
DOI: 10.1016/j.bej.2016.12.005
Article source: Figure 2
Adsorbate Bovine Serum Immunoglobulin G: InChIKey NIST-ISODB-BECCAEDBC0A149897168
Adsorbate Water: InChIKey XLYOFNOQVPJJNP-UHFFFAOYSA-N
Kind: experiment
Temperature: 298 K
Tabular data in the source: 0
pressure (bar)	Bovine Serum Immunoglobulin G fraction	Bovine Serum Immunoglobulin G uptake (mg/g)	Water fraction	Water uptake (mg/g)	total uptake (mg/g)
1.01325	0.7007	24.745			
1.01325	1.7901	39.372			
1.01325	5.0968	50.463			
1.01325	8.8842	55.637			
1.01325	12.3784	58.089			
1.01325	20.4766	72.926			
1.01325	28.1759	73.544			
