Adsorption isotherm of Bovine Serum Albumin, Bovine Serum Immunoglobulin G, Water on MMI-B-6FF-110
DOI: 10.1016/j.bej.2016.12.005
Article source: Figure 3
Adsorbate Bovine Serum Albumin: InChIKey NIST-ISODB-52CDAC8E72899271CC9F
Adsorbate Bovine Serum Immunoglobulin G: InChIKey NIST-ISODB-BECCAEDBC0A149897168
Adsorbate Water: InChIKey XLYOFNOQVPJJNP-UHFFFAOYSA-N
Kind: experiment
Temperature: 298 K
Tabular data in the source: 0
pressure (bar)	Bovine Serum Albumin fraction	Bovine Serum Albumin uptake (mg/g)	Bovine Serum Immunoglobulin G fraction	Bovine Serum Immunoglobulin G uptake (mg/g)	Water fraction	Water uptake (mg/g)	total uptake (mg/g)
1.01325	0.7401	8.136	0.3008	5.966			
1.01325	1.7442	11.102	0.4061	11.899			
1.01325	4.4658	13.51	1.0923	18.519			
1.01325	6.7382	15.402	1.6202	22.99			
1.01325	9.592	20.174	2.5441	28.751			
1.01325	17.387	28.3	4.4981	31.588			
1.01325	23.6494	26.019	6.3203	32.017			
