Adsorption isotherm of Bovine Serum Albumin, Water on MMI-B-3.5HF-50
DOI: 10.1016/j.bej.2016.12.005
Article source: Figure 1
Adsorbate Bovine Serum Albumin: InChIKey NIST-ISODB-52CDAC8E72899271CC9F
Adsorbate Water: InChIKey XLYOFNOQVPJJNP-UHFFFAOYSA-N
Kind: experiment
Temperature: 298 K
Tabular data in the source: 0
pressure (bar)	Bovine Serum Albumin fraction	Bovine Serum Albumin uptake (mg/g)	Water fraction	Water uptake (mg/g)	total uptake (mg/g)
1.01325	1.4408	8.754			
1.01325	3.5748	10.469			
1.01325	7.4745	15.226			
1.01325	11.1898	19.768			
1.01325	15.2203	21.227			
1.01325	22.6507	29.926			
1.01325	30.3696	33.657			
1.01325	37.8235	31.092			
