Adsorption isotherm of Bovine Serum Albumin, Water on MMI-B-6FF-110
DOI: 10.1016/j.bej.2016.12.005
Article source: Figure 3
Adsorbate Bovine Serum Albumin: InChIKey NIST-ISODB-52CDAC8E72899271CC9F
Adsorbate Water: InChIKey XLYOFNOQVPJJNP-UHFFFAOYSA-N
Kind: experiment
Temperature: 298 K
Tabular data in the source: 0
pressure (bar)	Bovine Serum Albumin fraction	Bovine Serum Albumin uptake (mg/g)	Water fraction	Water uptake (mg/g)	total uptake (mg/g)
1.01325	1.2685	13.511			
1.01325	2.8803	19.574			
1.01325	6.8174	23.959			
1.01325	10.9131	25.377			
1.01325	14.5332	27.913			
1.01325	22.9888	31.18			
1.01325	29.3569	33.457			
1.01325	38.341	36.294			
