Adsorption isotherm of Bovine Serum Albumin, Bovine Serum Immunoglobulin G, Water on MMI-B-4FF-100
DOI: 10.1016/j.bej.2016.12.005
Article source: Figure 2
Adsorbate Bovine Serum Albumin: InChIKey NIST-ISODB-52CDAC8E72899271CC9F
Adsorbate Bovine Serum Immunoglobulin G: InChIKey NIST-ISODB-BECCAEDBC0A149897168
Adsorbate Water: InChIKey XLYOFNOQVPJJNP-UHFFFAOYSA-N
Kind: experiment
Temperature: 298 K
Tabular data in the source: 0
pressure (bar)	Bovine Serum Albumin fraction	Bovine Serum Albumin uptake (mg/g)	Bovine Serum Immunoglobulin G fraction	Bovine Serum Immunoglobulin G uptake (mg/g)	Water fraction	Water uptake (mg/g)	total uptake (mg/g)
1.01325	0.5461	3.437	0.1949	12.45			
1.01325	1.5476	4.294	0.644	22.65			
1.01325	3.1552	5.709	1.8311	31.736			
1.01325	4.7892	7.166	3.7031	36.966			
1.01325	6.5829	11.71	5.1535	42.967			
1.01325	11.9576	13.638	9.9515	48.114			
1.01325	15.6986	14.539	13.2992	47.602			
1.01325	19.2024	15.267	17.4116	50.348			
