Adsorption isotherm of Bovine Serum Albumin, Bovine Serum Immunoglobulin G, Water on MMI-B-3.5HF-50
DOI: 10.1016/j.bej.2016.12.005
Article source: Figure 1
Adsorbate Bovine Serum Albumin: InChIKey NIST-ISODB-52CDAC8E72899271CC9F
Adsorbate Bovine Serum Immunoglobulin G: InChIKey NIST-ISODB-BECCAEDBC0A149897168
Adsorbate Water: InChIKey XLYOFNOQVPJJNP-UHFFFAOYSA-N
Kind: experiment
Temperature: 298 K
Tabular data in the source: 0
pressure (bar)	Bovine Serum Albumin fraction	Bovine Serum Albumin uptake (mg/g)	Bovine Serum Immunoglobulin G fraction	Bovine Serum Immunoglobulin G uptake (mg/g)	Water fraction	Water uptake (mg/g)	total uptake (mg/g)
1.01325	0	0	0.1447	0.374			
1.01325	1.413	3.057	0.3015	3.369			
1.01325	2.7052	8.841	0.4051	7.711			
1.01325	5.9723	12.098	1.0091	11.903			
1.01325	8.792	16.982	1.6657	16.094			
1.01325	12.1107	15.657	2.2444	17.665			
1.01325	18.354	17.459	3.7972	19.832			
1.01325	24.413	19.69	5.376	22.972			
