Adsorption isotherm of Bovine Serum Albumin, Bovine Serum Immunoglobulin G, Water on MMI-B-6FF-110
DOI: 10.1016/j.bej.2016.12.005
Article source: Figure 3
Adsorbate Bovine Serum Albumin: InChIKey NIST-ISODB-52CDAC8E72899271CC9F
Adsorbate Bovine Serum Immunoglobulin G: InChIKey NIST-ISODB-BECCAEDBC0A149897168
Adsorbate Water: InChIKey XLYOFNOQVPJJNP-UHFFFAOYSA-N
Kind: experiment
Temperature: 298 K
Tabular data in the source: 0
pressure (bar)	Bovine Serum Albumin fraction	Bovine Serum Albumin uptake (mg/g)	Bovine Serum Immunoglobulin G fraction	Bovine Serum Immunoglobulin G uptake (mg/g)	Water fraction	Water uptake (mg/g)	total uptake (mg/g)
1.01325	0.5551	6.932	0.3032	10.51			
1.01325	1.612	9.468	0.7219	19.245			
1.01325	3.5674	11.79	1.8739	32.143			
1.01325	5.1	11.79	3.1518	41.492			
1.01325	7.0289	15.66	4.9542	44.631			
1.01325	11.3096	14.412	10.0681	51.863			
