Adsorption isotherm of Bovine Serum Albumin, Bovine Serum Immunoglobulin G, Water on MMI-B-4FF-100
DOI: 10.1016/j.bej.2016.12.005
Article source: Figure 2
Adsorbate Bovine Serum Albumin: InChIKey NIST-ISODB-52CDAC8E72899271CC9F
Adsorbate Bovine Serum Immunoglobulin G: InChIKey NIST-ISODB-BECCAEDBC0A149897168
Adsorbate Water: InChIKey XLYOFNOQVPJJNP-UHFFFAOYSA-N
Kind: experiment
Temperature: 298 K
Tabular data in the source: 0
pressure (bar)	Bovine Serum Albumin fraction	Bovine Serum Albumin uptake (mg/g)	Bovine Serum Immunoglobulin G fraction	Bovine Serum Immunoglobulin G uptake (mg/g)	Water fraction	Water uptake (mg/g)	total uptake (mg/g)
1.01325	0	0	0.0756	5.465			
1.01325	1.0219	6.352	0.0882	0.28			
1.01325	2.2602	6.78	0.2605	9.879			
1.01325	4.7919	12.052	0.6433	15.622			
1.01325	8.035	17.711	1.2368	19.736			
1.01325	12.1199	21.268	1.9885	24.88			
1.01325	17.8628	22.168	3.241	28.781			
1.01325	24.9228	22.983	5.0074	31.482			
