Adsorption isotherm of Bovine Serum Immunoglobulin G, Water on MMI-B-6FF-110
DOI: 10.1016/j.bej.2016.12.005
Article source: Figure 3
Adsorbate Bovine Serum Immunoglobulin G: InChIKey NIST-ISODB-BECCAEDBC0A149897168
Adsorbate Water: InChIKey XLYOFNOQVPJJNP-UHFFFAOYSA-N
Kind: experiment
Temperature: 298 K
Tabular data in the source: 0
pressure (bar)	Bovine Serum Immunoglobulin G fraction	Bovine Serum Immunoglobulin G uptake (mg/g)	Water fraction	Water uptake (mg/g)	total uptake (mg/g)
1.01325	0.8475	21.906			
1.01325	1.9573	38.831			
1.01325	5.184	56.846			
1.01325	8.9565	63.67			
1.01325	12.834	66.467			
1.01325	20.6943	64.895			
1.01325	28.5755	63.801			
