Adsorption isotherm of Bovine Serum Albumin, Bovine Serum Immunoglobulin G, Water on MMI-B-4FF-100
DOI: 10.1016/j.bej.2016.12.005
Article source: Figure 2
Adsorbate Bovine Serum Albumin: InChIKey NIST-ISODB-52CDAC8E72899271CC9F
Adsorbate Bovine Serum Immunoglobulin G: InChIKey NIST-ISODB-BECCAEDBC0A149897168
Adsorbate Water: InChIKey XLYOFNOQVPJJNP-UHFFFAOYSA-N
Kind: experiment
Temperature: 298 K
Tabular data in the source: 0
pressure (bar)	Bovine Serum Albumin fraction	Bovine Serum Albumin uptake (mg/g)	Bovine Serum Immunoglobulin G fraction	Bovine Serum Immunoglobulin G uptake (mg/g)	Water fraction	Water uptake (mg/g)	total uptake (mg/g)
1.01325	0.8632	5.151	0.117	7.91			
1.01325	1.8917	7.337	0.3001	12.392			
1.01325	4.4485	10.295	0.749	18.169			
1.01325	7.1906	14.967	1.6794	23.138			
1.01325	11.1417	14.753	2.4935	27.242			
1.01325	17.6746	15.224	4.0882	32.804			
1.01325	23.6025	17.196	6.3137	36.154			
