Adsorption isotherm of Bovine Serum Albumin, Bovine Serum Immunoglobulin G, Water on MMI-B-4FF-100
DOI: 10.1016/j.bej.2016.12.005
Article source: Figure 2
Adsorbate Bovine Serum Albumin: InChIKey NIST-ISODB-52CDAC8E72899271CC9F
Adsorbate Bovine Serum Immunoglobulin G: InChIKey NIST-ISODB-BECCAEDBC0A149897168
Adsorbate Water: InChIKey XLYOFNOQVPJJNP-UHFFFAOYSA-N
Kind: experiment
Temperature: 298 K
Tabular data in the source: 0
pressure (bar)	Bovine Serum Albumin fraction	Bovine Serum Albumin uptake (mg/g)	Bovine Serum Immunoglobulin G fraction	Bovine Serum Immunoglobulin G uptake (mg/g)	Water fraction	Water uptake (mg/g)	total uptake (mg/g)
1.01325	0.5469	4.723	0.2167	8.126			
1.01325	1.627	4.98	0.4334	16.873			
1.01325	3.6568	7.809	1.0485	24.325			
1.01325	6.426	13.853	2.2613	29.941			
1.01325	8.6917	14.324	3.1915	32.48			
1.01325	16.3578	15.653	5.7496	41.283			
1.01325	20.6264	18.011	8.3898	40.097			
