Adsorption isotherm of Bovine Serum Immunoglobulin G, Water on MMI-B-3.5HF-50
DOI: 10.1016/j.bej.2016.12.005
Article source: Figure 1
Adsorbate Bovine Serum Immunoglobulin G: InChIKey NIST-ISODB-BECCAEDBC0A149897168
Adsorbate Water: InChIKey XLYOFNOQVPJJNP-UHFFFAOYSA-N
Kind: experiment
Temperature: 298 K
Tabular data in the source: 0
pressure (bar)	Bovine Serum Immunoglobulin G fraction	Bovine Serum Immunoglobulin G uptake (mg/g)	Water fraction	Water uptake (mg/g)	total uptake (mg/g)
1.01325	0.8208	21.712			
1.01325	2.3704	31.966			
1.01325	5.893	47.007			
1.01325	9.5015	45.05			
1.01325	13.3415	56.72			
1.01325	21.5055	55.125			
1.01325	27.7168	63.643			
