Adsorption isotherm of Bovine Serum Albumin, Bovine Serum Immunoglobulin G, Water on MMI-B-3.5HF-50
DOI: 10.1016/j.bej.2016.12.005
Article source: Figure 1
Adsorbate Bovine Serum Albumin: InChIKey NIST-ISODB-52CDAC8E72899271CC9F
Adsorbate Bovine Serum Immunoglobulin G: InChIKey NIST-ISODB-BECCAEDBC0A149897168
Adsorbate Water: InChIKey XLYOFNOQVPJJNP-UHFFFAOYSA-N
Kind: experiment
Temperature: 298 K
Tabular data in the source: 0
pressure (bar)	Bovine Serum Albumin fraction	Bovine Serum Albumin uptake (mg/g)	Bovine Serum Immunoglobulin G fraction	Bovine Serum Immunoglobulin G uptake (mg/g)	Water fraction	Water uptake (mg/g)	total uptake (mg/g)
1.01325	0.7811	4.085	0.4039	10.557			
1.01325	1.8349	4.728	1.0061	19.241			
1.01325	3.9158	4.601	2.7152	25.676			
1.01325	5.7072	5.544	4.2399	32.41			
1.01325	7.788	4.989	6.3467	31.955			
1.01325	11.7137	8.203	10.1123	32.244			
1.01325	15.5861	9.362	13.5851	40.246			
1.01325	19.4842	7.823	17.7741	35.367			
