Adsorption isotherm of Bovine Serum Albumin, Bovine Serum Immunoglobulin G, Water on MMI-B-6FF-110
DOI: 10.1016/j.bej.2016.12.005
Article source: Figure 3
Adsorbate Bovine Serum Albumin: InChIKey NIST-ISODB-52CDAC8E72899271CC9F
Adsorbate Bovine Serum Immunoglobulin G: InChIKey NIST-ISODB-BECCAEDBC0A149897168
Adsorbate Water: InChIKey XLYOFNOQVPJJNP-UHFFFAOYSA-N
Kind: experiment
Temperature: 298 K
Tabular data in the source: 0
pressure (bar)	Bovine Serum Albumin fraction	Bovine Serum Albumin uptake (mg/g)	Bovine Serum Immunoglobulin G fraction	Bovine Serum Immunoglobulin G uptake (mg/g)	Water fraction	Water uptake (mg/g)	total uptake (mg/g)
1.01325	0.6344	7.147	0.2405	7.712			
1.01325	1.7442	9.941	0.8686	19.45			
1.01325	3.9637	15.66	1.4132	25.318			
1.01325	6.3419	13.166	2.1884	30.437			
1.01325	8.8785	20.045	3.5713	37.192			
1.01325	14.9032	20.431	6.0025	41.013			
1.01325	21.0335	16.775	8.4967	42.787			
