Adsorption isotherm of Nitrogen on 3GO-ZIF
DOI: 10.1039/c5ra01183c
Article source: Figure 7
Adsorbate Nitrogen: InChIKey IJGRMHOSHXDMSA-UHFFFAOYSA-N
Kind: experiment
Temperature: 77 K
Tabular data in the source: 0
pressure (bar)	uptake (cm3(STP)/g)
0.003055	299.996
0.008936	377.489
0.016527	456.23
0.035362	472.456
0.06082	472.425
0.084606	474.896
0.106683	476.118
0.111761	474.862
0.132128	474.837
0.15589	474.808
0.162704	477.299
0.186464	477.27
0.206805	474.745
0.208528	477.243
0.233987	477.211
0.256025	474.684
0.259483	480.93
0.2866	477.146
0.308702	480.869
0.312059	477.115
0.334148	479.588
0.362988	478.302
0.363026	482.052
0.383367	479.527
0.412219	479.491
0.413942	481.989
0.437703	481.96
0.463148	480.679
0.463187	484.429
0.4852	479.401
0.512432	486.868
0.515762	480.614
0.542931	481.83
0.563297	481.805
0.563348	486.805
0.590465	483.022
0.61082	481.746
0.612593	489.244
0.63629	482.965
0.663458	484.182
0.66351	489.181
0.692311	484.146
0.712741	490.371
0.719466	484.112
0.74324	485.333
0.761973	491.56
0.763594	484.058
0.790775	486.524
0.816335	496.493
0.81793	486.491
0.843414	488.96
0.865554	496.432
0.867175	488.93
0.892633	488.899
0.914799	498.871
0.918092	488.867
0.943575	491.336
0.969046	492.555
0.970883	506.302
0.992909	502.525
1.00492	515.01
1.01005	518.754
