Adsorption isotherm of Nitrogen on GO
DOI: 10.1039/c5ra01183c
Article source: Figure 7
Adsorbate Nitrogen: InChIKey IJGRMHOSHXDMSA-UHFFFAOYSA-N
Kind: experiment
Temperature: 77 K
Tabular data in the source: 0
pressure (bar)	uptake (cm3(STP)/g)
0.001714	1.25313
0.006823	2.50627
0.010217	2.50627
0.013629	3.7594
0.027207	3.7594
0.050951	2.50627
0.076427	3.7594
0.101885	3.7594
0.127344	3.7594
0.149425	5.01253
0.179992	6.26566
0.203753	6.26566
0.229212	6.26566
0.252973	6.26566
0.278432	6.26566
0.305604	7.5188
0.329349	6.26566
0.351413	6.26566
0.378586	7.5188
0.407439	7.5188
0.432914	8.77193
0.458373	8.77193
0.482134	8.77193
0.505895	8.77193
0.50761	10.0251
0.531354	8.77193
0.55683	10.0251
0.558544	11.2782
0.583986	10.0251
0.602638	8.77193
0.609461	11.2782
0.634902	10.0251
0.655303	12.5313
0.658664	10.0251
0.682408	8.77193
0.706169	8.77193
0.709632	13.7845
0.735073	12.5313
0.758818	11.2782
0.762229	12.5313
0.784276	11.2782
0.811449	12.5313
0.813181	15.0376
0.835227	13.7845
0.86408	13.7845
0.864098	15.0376
0.887825	12.5313
0.911603	13.7845
0.916762	18.797
0.942204	17.5439
0.957548	22.5564
0.962674	25.0627
0.988199	30.0752
1.00361	40.1003
