Adsorption isotherm of Carbon Dioxide on 15GO-ZIF
DOI: 10.1039/c5ra01183c
Article source: Figure 8a
Adsorbate Carbon Dioxide: InChIKey CURLTUGMZLYLDI-UHFFFAOYSA-N
Kind: experiment
Temperature: 273 K
Tabular data in the source: 0
pressure (bar)	uptake (cm3(STP)/g)
0.010504	0.512789
0.02521	0.767968
0.05042	1.4074
0.065126	1.66258
0.092437	2.43028
0.121849	3.45478
0.14916	4.35101
0.17437	5.37605
0.203782	6.14347
0.226891	6.91171
0.252101	7.80821
0.277311	8.57618
0.302521	9.34415
0.327731	10.2407
0.352941	11.0086
0.378151	11.9051
0.403361	12.6731
0.426471	13.5699
0.451681	14.4664
0.476891	15.2343
0.504202	16.1306
0.529412	17.1556
0.554622	18.0521
0.579832	19.0771
0.605042	20.1022
0.630252	20.9987
0.653361	22.024
0.678571	22.9205
0.703782	23.9455
0.726891	24.8423
0.752101	25.8673
0.777311	26.7638
0.804622	27.9171
0.829832	28.8136
0.852941	29.839
0.878151	30.864
0.901261	31.8893
0.928571	32.9141
0.953782	33.9391
0.976891	34.8359
0.997899	35.7329
