Adsorption isotherm of Carbon Dioxide on 10GO-ZIF
DOI: 10.1039/c5ra01183c
Article source: Figure 8a
Adsorbate Carbon Dioxide: InChIKey CURLTUGMZLYLDI-UHFFFAOYSA-N
Kind: experiment
Temperature: 273 K
Tabular data in the source: 0
pressure (bar)	uptake (cm3(STP)/g)
0.021008	0.769231
0.044118	1.79487
0.063025	2.69231
0.086135	3.46154
0.107143	4.48718
0.130252	5.38462
0.153361	6.41026
0.178571	7.5641
0.203782	8.58974
0.228992	9.87179
0.256303	11.0256
0.281513	12.0513
0.304622	13.3333
0.329832	14.4872
0.355042	15.5128
0.380252	16.9231
0.405462	18.0769
0.428571	19.2308
0.455882	20.5128
0.478992	21.5385
0.504202	22.8205
0.529412	24.2308
0.552521	25.3846
0.577731	26.6667
0.605042	27.8205
0.62605	28.9744
0.653361	30.3846
0.678571	31.6667
0.703782	32.9487
0.726891	34.1026
0.752101	35.3846
0.779412	36.7949
0.802521	38.2051
0.827731	39.2308
0.852941	40.641
0.878151	42.0513
0.905462	43.3333
0.92437	44.6154
0.951681	46.0256
0.981092	47.3077
1	48.3333
