Adsorption isotherm of Nitrogen on 10GO-ZIF-M
DOI: 10.1039/c5ra01183c
Article source: Figure 7
Adsorbate Nitrogen: InChIKey IJGRMHOSHXDMSA-UHFFFAOYSA-N
Kind: experiment
Temperature: 77 K
Tabular data in the source: 0
pressure (bar)	uptake (cm3(STP)/g)
0.004471	203.75
0.008449	246.25
0.016117	310
0.031962	350
0.057463	350
0.081281	351.25
0.105065	350
0.134	352.5
0.157802	352.5
0.18332	353.75
0.212221	353.75
0.230923	353.75
0.256423	353.75
0.288742	355
0.307461	356.25
0.30916	356.25
0.341462	356.25
0.355062	356.25
0.360197	358.75
0.385681	357.5
0.411166	356.25
0.411234	361.25
0.438418	360
0.460485	357.5
0.460535	361.25
0.487704	358.75
0.511538	361.25
0.513442	376.25
0.542157	362.5
0.562881	386.25
0.564275	363.75
0.589776	363.75
0.613951	391.25
0.61866	362.5
0.637379	363.75
0.665056	398.75
0.667997	365
0.691798	365
0.7156	365
0.716144	405
0.739417	366.25
0.766636	367.5
0.767282	415
0.793871	370
0.81837	421.25
0.819373	370
0.843207	372.5
0.867774	428.75
0.868726	373.75
0.892544	375
0.915478	436.25
0.918113	380
0.9471	386.25
0.968368	450
0.969354	397.5
0.995297	430
1.01128	480
1.01301	482.5
