Adsorption isotherm of Nitrogen on 15GO-ZIF
DOI: 10.1039/c5ra01183c
Article source: Figure 7
Adsorbate Nitrogen: InChIKey IJGRMHOSHXDMSA-UHFFFAOYSA-N
Kind: experiment
Temperature: 77 K
Tabular data in the source: 0
pressure (bar)	uptake (cm3(STP)/g)
0.004794	227.494
0.009146	297.489
0.015318	376.231
0.030805	389.962
0.05804	392.428
0.081841	392.399
0.103941	392.372
0.107375	394.868
0.132859	393.586
0.154943	392.309
0.158377	394.805
0.182161	393.525
0.205996	395.996
0.209412	397.242
0.233196	395.962
0.258731	398.431
0.262115	397.177
0.285899	395.897
0.308033	398.37
0.309665	393.368
0.333534	398.339
0.355669	400.811
0.364101	395.801
0.386253	399.523
0.410053	399.494
0.411719	396.992
0.435555	399.463
0.459372	400.683
0.461021	396.931
0.486573	400.65
0.51204	398.118
0.513825	404.366
0.537592	401.837
0.561375	400.557
0.568244	405.549
0.58691	403.026
0.609028	404.249
0.614077	400.492
0.637895	401.713
0.666847	405.427
0.688914	402.9
0.716182	407.866
0.741598	401.585
0.760315	402.812
0.767167	406.554
0.792651	405.272
0.816434	403.993
0.816502	408.993
0.845387	407.707
0.865838	411.432
0.870853	405.176
0.894671	406.396
0.918591	415.117
0.920206	408.865
0.942341	411.337
0.969609	416.304
0.969712	423.804
0.988616	438.78
1.00914	447.505
1.01252	446.251
