Adsorption isotherm of Nitrogen on 10GO-ZIF
DOI: 10.1039/c5ra01183c
Article source: Figure 7
Adsorbate Nitrogen: InChIKey IJGRMHOSHXDMSA-UHFFFAOYSA-N
Kind: experiment
Temperature: 77 K
Tabular data in the source: 0
pressure (bar)	uptake (cm3(STP)/g)
0.004871	238.744
0.009699	308.738
0.018335	398.727
0.035692	416.206
0.061193	416.175
0.079919	417.401
0.10542	417.37
0.110546	418.614
0.136046	418.582
0.156395	416.057
0.161622	422.301
0.188798	421.017
0.209148	418.492
0.212624	422.238
0.239825	422.204
0.260149	418.429
0.263651	423.425
0.287452	423.395
0.311252	423.366
0.312901	420.864
0.341827	422.078
0.363903	420.801
0.391154	423.267
0.409855	423.244
0.41328	424.49
0.440506	425.707
0.464307	425.677
0.467732	426.923
0.491482	424.394
0.513659	428.116
0.515282	424.364
0.539109	425.585
0.566284	424.301
0.56636	428.051
0.59351	425.518
0.615662	427.99
0.61731	425.488
0.641162	427.959
0.668311	425.426
0.668414	430.425
0.693838	426.644
0.717714	430.365
0.719364	427.863
0.74489	429.081
0.768742	431.552
0.77039	429.05
0.794217	430.27
0.819768	432.739
0.821417	430.237
0.846943	431.455
0.872521	435.174
0.90137	432.638
0.920224	440.115
0.945623	435.083
0.964552	446.31
0.971199	438.802
0.991778	447.526
1.01325	500
