Adsorption isotherm of Carbon Dioxide on 3GO-ZIF
DOI: 10.1039/c5ra01183c
Article source: Figure 8a
Adsorbate Carbon Dioxide: InChIKey CURLTUGMZLYLDI-UHFFFAOYSA-N
Kind: experiment
Temperature: 273 K
Tabular data in the source: 0
pressure (bar)	uptake (cm3(STP)/g)
0.010504	0.255719
0.023109	1.02531
0.042017	1.27995
0.058824	1.92046
0.071429	2.43298
0.081933	2.6887
0.102941	3.58574
0.12605	4.61105
0.155462	5.50701
0.176471	6.53259
0.201681	7.42909
0.231092	8.45359
0.254202	9.35036
0.279412	10.2469
0.302521	11.2722
0.327731	12.1687
0.352941	13.0652
0.378151	14.0902
0.405462	15.115
0.428571	16.0118
0.453782	17.0368
0.478992	18.0618
0.502101	19.0871
0.527311	19.9836
0.552521	21.0087
0.57563	21.9054
0.602941	22.9302
0.628151	23.9553
0.651261	24.852
0.676471	25.8771
0.701681	26.9021
0.726891	27.9271
0.752101	28.9522
0.777311	30.2343
0.802521	31.2593
0.827731	32.2844
0.85084	33.3097
0.87605	34.3347
0.903361	35.3595
0.926471	36.5133
0.953782	37.5381
0.978992	38.5631
0.997899	39.589
