Adsorption isotherm of Carbon Dioxide on ZIF-8
DOI: 10.1039/c5ra01183c
Article source: Figure 8a
Adsorbate Carbon Dioxide: InChIKey CURLTUGMZLYLDI-UHFFFAOYSA-N
Kind: experiment
Temperature: 273 K
Tabular data in the source: 0
pressure (bar)	uptake (cm3(STP)/g)
0.014706	0.512821
0.035714	0.897436
0.048319	1.53846
0.073529	1.92308
0.088235	2.30769
0.10084	2.82051
0.128151	3.71795
0.151261	4.87179
0.176471	5.64103
0.201681	6.53846
0.22479	7.30769
0.247899	8.20513
0.277311	9.10256
0.304622	10
0.327731	10.7692
0.35084	11.9231
0.378151	12.6923
0.401261	13.5897
0.426471	14.4872
0.453782	15.3846
0.478992	16.4103
0.5	17.1795
0.527311	18.2051
0.554622	19.2308
0.573529	20.1282
0.596639	21.1538
0.628151	22.0513
0.653361	23.2051
0.676471	23.8462
0.701681	25.1282
0.726891	26.0256
0.752101	26.9231
0.777311	27.9487
0.802521	28.9744
0.827731	29.8718
0.852941	30.8974
0.87395	31.9231
0.901261	33.0769
0.92437	33.9744
0.951681	35.1282
0.976891	36.1538
0.997899	37.0513
