Adsorption isotherm of Carbon Dioxide on GO
DOI: 10.1039/c5ra01183c
Article source: Figure 8a
Adsorbate Carbon Dioxide: InChIKey CURLTUGMZLYLDI-UHFFFAOYSA-N
Kind: experiment
Temperature: 273 K
Tabular data in the source: 0
pressure (bar)	uptake (cm3(STP)/g)
0.008403	0.129615
0.023109	0.26004
0.046219	0.26301
0.065126	0.393975
0.086135	0.396675
0.102941	0.655905
0.128151	0.78768
0.157563	0.919995
0.180672	1.18003
0.205882	1.18328
0.233193	1.44386
0.254202	1.31802
0.279412	1.57833
0.304622	1.71011
0.329832	1.97042
0.357143	2.10246
0.380252	2.23397
0.405462	2.36574
0.430672	2.62605
0.455882	2.75783
0.478992	2.7608
0.502101	3.02084
0.531513	3.15315
0.554622	3.41319
0.581933	3.54524
0.605042	3.67674
0.630252	3.80852
0.655462	3.94029
0.682773	4.07234
0.701681	4.33184
0.728992	4.46388
0.756303	4.72446
0.779412	4.85597
0.806723	4.98801
0.829832	4.99098
0.855042	5.25129
0.880252	5.38307
0.901261	5.5143
0.928571	5.77488
0.953782	5.90666
0.981092	6.0387
1	6.2982
