Adsorption isotherm of Nitrogen on ZIF-8
DOI: 10.1039/c5ra01183c
Article source: Figure 7
Adsorbate Nitrogen: InChIKey IJGRMHOSHXDMSA-UHFFFAOYSA-N
Kind: experiment
Temperature: 77 K
Tabular data in the source: 0
pressure (bar)	uptake (cm3(STP)/g)
0.010722	379.039
0.021863	489.998
0.039427	513.667
0.063228	513.638
0.085417	517.351
0.110859	514.826
0.112647	518.565
0.138118	517.286
0.161918	517.257
0.165259	514.759
0.190819	517.222
0.21295	518.441
0.24015	518.408
0.265651	518.376
0.267321	517.127
0.291121	517.098
0.313311	520.811
0.318381	519.558
0.342122	517.035
0.364252	518.255
0.366012	520.747
0.391482	519.468
0.418683	519.435
0.420443	521.927
0.440813	520.655
0.468073	523.115
0.471384	519.37
0.495184	519.341
0.519044	521.805
0.522385	519.307
0.544515	520.527
0.568405	524.238
0.570045	521.742
0.597246	521.709
0.619376	522.929
0.621017	520.433
0.646547	521.648
0.668648	521.621
0.675448	521.613
0.697549	521.586
0.723108	524.048
0.724748	521.552
0.750249	521.521
0.774109	523.985
0.775749	521.489
0.799609	523.954
0.823351	521.431
0.82511	523.922
0.848881	522.646
0.872711	523.864
0.872741	525.111
0.899971	526.324
0.925471	526.293
0.950913	523.767
0.974773	526.232
1.00027	526.201
1.01388	526.184
