Adsorption isotherm of Carbon Dioxide on 10GO-ZIF-M
DOI: 10.1039/c5ra01183c
Article source: Figure 8a
Adsorbate Carbon Dioxide: InChIKey CURLTUGMZLYLDI-UHFFFAOYSA-N
Kind: experiment
Temperature: 273 K
Tabular data in the source: 0
pressure (bar)	uptake (cm3(STP)/g)
0.006303	0.127725
0.021008	0.639973
0.039916	1.02315
0.063025	1.66285
0.081933	2.43163
0.109244	2.94226
0.132353	3.58196
0.155462	4.47873
0.180672	4.98963
0.19958	5.88694
0.228992	6.78291
0.258403	7.55033
0.279412	8.06177
0.304622	8.95827
0.331933	9.59744
0.359244	10.7507
0.380252	11.5192
0.405462	12.1587
0.426471	12.9272
0.453782	13.6949
0.481092	14.7197
0.506303	15.3591
0.529412	16.2559
0.556723	17.1521
0.57563	17.9209
0.605042	18.6883
0.628151	19.7136
0.651261	20.6104
0.676471	21.5069
0.705882	22.5314
0.731092	23.2993
0.752101	24.1964
0.777311	24.9644
0.804622	25.9891
0.827731	26.7574
0.852941	27.7824
0.878151	28.5504
0.905462	29.7037
0.926471	30.4722
0.953782	31.3684
0.976891	32.3937
0.997899	33.1622
