Adsorption isotherm of Nitrogen on ICOF-1 after water treatment
DOI: 10.1002/anie.201509014
Article source: Figure 2a
Adsorbate Nitrogen: InChIKey IJGRMHOSHXDMSA-UHFFFAOYSA-N
Kind: experiment
Temperature: 77 K
Tabular data in the source: 0
pressure (bar)	uptake (cm3(STP)/g)
0.001118	175.389
0.052564	209.335
0.101772	213.861
0.148744	222.914
0.202426	227.44
0.253872	234.229
0.30308	236.492
0.354526	238.755
0.399261	241.018
0.457416	250.071
0.511099	250.071
0.553597	256.86
0.605042	254.597
0.660961	256.86
0.703459	259.123
0.754905	263.649
0.808587	263.649
0.857796	268.175
0.915951	268.175
0.962923	268.175
1.00319	272.702
1.00319	286.28
0.960686	286.28
0.911478	279.491
0.864506	277.228
0.81306	274.965
0.761615	274.965
0.71017	270.438
0.656488	270.438
0.605042	268.175
0.555834	270.438
0.502151	265.912
0.459653	263.649
0.408208	254.597
0.358999	250.071
0.30308	247.808
0.253872	241.018
0.2069	236.492
0.150981	229.703
0.099536	222.914
0.050327	216.124
