Adsorption isotherm of Nitrogen on ICOF-2 after water treatment
DOI: 10.1002/anie.201509014
Article source: Figure 2a
Adsorbate Nitrogen: InChIKey IJGRMHOSHXDMSA-UHFFFAOYSA-N
Kind: experiment
Temperature: 77 K
Tabular data in the source: 0
pressure (bar)	uptake (cm3(STP)/g)
-0.001118	188.967
0.001118	207.072
0.007829	216.124
0.024604	242.15
0.045853	261.386
0.072695	279.491
0.099536	295.332
0.126377	311.174
0.148744	324.752
0.177822	336.068
0.202426	349.646
0.229267	362.093
0.253872	373.409
0.277358	384.724
0.30308	394.908
0.329921	406.223
0.354526	416.407
0.37913	426.591
0.403734	435.644
0.432812	446.959
0.457416	458.274
0.482021	465.064
0.506625	476.379
0.531229	483.168
0.555834	496.747
0.582675	508.062
0.607279	517.115
0.63412	526.167
0.660961	537.482
0.683329	544.272
0.712406	555.587
0.737011	566.902
0.763852	575.955
0.786219	585.007
0.81306	594.059
0.833191	603.112
0.864506	614.427
0.88911	625.743
0.911478	635.926
0.936082	646.11
0.962923	668.741
0.986409	682.32
1.00654	719.661
0.966278	673.267
0.912596	648.373
0.861151	626.874
0.808587	609.901
0.759378	594.059
0.707933	575.955
0.655369	558.982
0.603924	543.14
0.554715	529.562
0.506625	514.852
0.452943	494.484
0.404853	467.327
0.351171	445.827
0.30308	424.328
0.247161	401.697
0.20019	382.461
0.148744	358.699
0.099536	327.016
0.050327	293.069
