Adsorption isotherm of Nitrogen on ICOF-2 as synthesized
DOI: 10.1002/anie.201509014
Article source: Figure 2a
Adsorbate Nitrogen: InChIKey IJGRMHOSHXDMSA-UHFFFAOYSA-N
Kind: experiment
Temperature: 77 K
Tabular data in the source: 0
pressure (bar)	uptake (cm3(STP)/g)
0.005592	227.44
0.010065	245.545
0.023486	254.597
0.045853	271.57
0.074931	293.069
0.097299	308.911
0.126377	323.621
0.150981	340.594
0.176704	351.909
0.20019	364.356
0.228149	374.54
0.252753	386.987
0.279594	398.303
0.30308	408.487
0.329921	419.802
0.356762	431.117
0.37913	440.17
0.404853	450.354
0.429457	460.537
0.456298	470.721
0.479784	480.905
0.508862	489.958
0.533466	499.01
0.555834	512.588
0.583793	523.904
0.607279	532.956
0.63412	540.877
0.660961	551.061
0.685565	561.245
0.71017	572.56
0.735892	581.612
0.759378	590.665
0.786219	599.717
0.811942	608.769
0.835428	618.953
0.860032	626.874
0.886873	639.321
0.912596	648.373
0.936082	661.952
0.960686	672.136
0.986409	694.767
1.00766	741.16
1.00654	734.371
0.96516	689.109
0.911478	664.215
0.858914	642.716
0.808587	625.743
0.759378	609.901
0.706815	591.796
0.654251	575.955
0.607279	557.85
0.553597	546.535
0.505507	527.298
0.452943	509.194
0.405971	483.168
0.350052	462.801
0.298607	440.17
0.251635	419.802
0.202426	397.171
0.150981	372.277
0.099536	336.068
0.052564	304.385
