Adsorption isotherm of Nitrogen on ICOF-2 after base treatment
DOI: 10.1002/anie.201509014
Article source: Figure 2a
Adsorbate Nitrogen: InChIKey IJGRMHOSHXDMSA-UHFFFAOYSA-N
Kind: experiment
Temperature: 77 K
Tabular data in the source: 0
pressure (bar)	uptake (cm3(STP)/g)
0.003355	207.072
0.003355	225.177
0.003355	243.281
0.007829	251.202
0.023486	274.965
0.070458	315.7
0.101772	327.016
0.121903	340.594
0.153218	340.594
0.180059	347.383
0.2069	351.909
0.227031	363.225
0.253872	370.014
0.28295	374.54
0.307554	383.593
0.329921	388.119
0.356762	397.171
0.381367	406.223
0.408208	410.75
0.435049	415.276
0.464127	419.802
0.482021	424.328
0.511099	431.117
0.53794	440.17
0.55807	442.433
0.591622	449.222
0.607279	456.011
0.638594	456.011
0.660961	465.064
0.687802	469.59
0.712406	476.379
0.734774	480.905
0.759378	489.958
0.788456	492.221
0.810824	499.01
0.837665	510.325
0.866743	517.115
0.886873	521.641
0.913714	528.43
0.936082	542.008
0.96516	553.324
0.989764	566.902
1.00319	594.059
1.00207	590.665
0.969633	564.639
0.915951	544.272
0.866743	532.956
0.811942	523.904
0.761615	512.588
0.707933	505.799
0.657606	496.747
0.606161	487.694
0.555834	483.168
0.504388	474.116
0.45518	462.801
0.404853	444.696
0.352289	431.117
0.298607	419.802
0.249398	406.223
0.202426	388.119
0.153218	374.54
0.101772	354.173
0.052564	322.489
