Adsorption isotherm of Nitrogen on ICOF-1 after 1 M LiOH treatment
DOI: 10.1002/anie.201509014
Article source: Figure S10
Adsorbate Nitrogen: InChIKey IJGRMHOSHXDMSA-UHFFFAOYSA-N
Kind: experiment
Temperature: 77 K
Tabular data in the source: 0
pressure (bar)	uptake (cm3(STP)/g)
0.002098	11.2903
0	30.8602
0.004196	34.6237
0.008391	37.6344
0.023076	41.3979
0.051397	45.914
0.073424	48.172
0.104891	51.9355
0.123772	54.1935
0.151043	57.2043
0.176217	59.4624
0.201391	63.2258
0.228663	65.4839
0.255935	68.1183
0.276913	70
0.304185	73.0107
0.327261	76.0215
0.354533	79.0323
0.379707	80.5376
0.40488	84.3011
0.43425	85.8064
0.459424	87.3118
0.484598	91.0753
0.51187	94.086
0.541239	96.3441
0.558022	99.3548
0.589489	102.366
0.618859	105.376
0.637739	108.387
0.65662	109.14
0.685989	112.903
0.713261	115.914
0.738435	118.172
0.763609	121.183
0.786685	123.441
0.816054	126.452
0.832837	128.71
0.866402	133.979
0.889478	135.484
0.910457	139.247
0.929337	142.258
0.965	150.538
0.988076	164.839
1.00696	195.699
1.00486	193.441
0.962902	159.57
0.912554	146.021
0.864304	140
0.813957	133.226
0.763609	128.71
0.713261	123.441
0.65662	118.172
0.602076	113.656
0.555924	108.387
0.50138	103.871
0.457326	97.8495
0.402783	92.5806
0.354533	89.5699
0.306283	85.8064
0.253837	79.7849
0.203489	74.5161
0.146848	68.4946
0.098598	63.9785
0.052446	57.957
