Adsorption isotherm of Methane on ICOF-1
DOI: 10.1002/anie.201509014
Article source: Figure 2b
Adsorbate Methane: InChIKey VNWKTOKETHGBQD-UHFFFAOYSA-N
Kind: experiment
Temperature: 273 K
Tabular data in the source: 0
pressure (bar)	uptake (cm3(STP)/g)
0.042376	1.07034
0.07816	4.28135
0.104527	3.21101
0.132777	3.21101
0.151611	4.28135
0.179861	5.35168
0.206228	7.49235
0.228829	7.49235
0.257079	7.49235
0.283446	7.49235
0.306047	9.63303
0.33053	10.7034
0.362548	10.7034
0.38609	11.7737
0.409632	12.844
0.435999	13.9144
0.460483	13.9144
0.483083	13.9144
0.50945	14.9847
0.535817	14.4495
0.562184	17.1254
0.588551	17.1254
0.614918	17.1254
0.639402	17.1254
0.662003	18.1957
0.68837	18.1957
0.714737	19.2661
0.73922	20.3364
0.765588	21.4067
0.790071	22.4771
0.812672	22.4771
0.839039	21.4067
0.865406	22.4771
0.891773	22.4771
0.916257	23.5474
0.942624	23.5474
0.968991	24.6177
0.995358	25.6881
1.01042	25.6881
