Adsorption isotherm of Nitrogen on ICOF-1 as synthesized
DOI: 10.1002/anie.201509014
Article source: Figure 2a
Adsorbate Nitrogen: InChIKey IJGRMHOSHXDMSA-UHFFFAOYSA-N
Kind: experiment
Temperature: 77 K
Tabular data in the source: 0
pressure (bar)	uptake (cm3(STP)/g)
0.001118	164.074
0.010065	186.704
0.022368	200.283
0.052564	207.072
0.074931	209.335
0.104009	213.861
0.123022	217.256
0.150981	220.651
0.176704	225.177
0.204663	228.571
0.229267	227.44
0.252753	229.703
0.278476	234.229
0.306435	236.492
0.327685	238.755
0.356762	238.755
0.376893	241.018
0.405971	243.281
0.432812	243.281
0.458535	244.413
0.482021	247.808
0.508862	250.071
0.533466	252.334
0.556952	253.465
0.582675	254.597
0.610634	256.86
0.635238	255.728
0.659843	257.992
0.684447	259.123
0.71017	261.386
0.739248	262.518
0.75826	261.386
0.788456	264.781
0.811942	265.912
0.84102	267.044
0.858914	267.044
0.886873	269.307
0.911478	271.57
0.9372	272.702
0.961805	273.833
0.987527	277.228
1.0043	278.359
1.00319	293.069
0.987527	293.069
0.960686	288.543
0.936082	286.28
0.913714	286.28
0.886873	284.017
0.862269	281.754
0.839901	281.754
0.810824	279.491
0.786219	279.491
0.762733	277.228
0.734774	277.228
0.71017	272.702
0.685565	273.833
0.658724	270.438
0.636357	272.702
0.583793	268.175
0.534584	261.386
0.479784	261.386
0.430575	254.597
0.37913	250.071
0.332158	247.808
0.278476	243.281
0.227031	236.492
0.171112	231.966
0.12414	225.177
0.077168	220.651
0.045853	207.072
