Adsorption isotherm of Methane on ICOF-2
DOI: 10.1002/anie.201509014
Article source: Figure 2b
Adsorbate Methane: InChIKey VNWKTOKETHGBQD-UHFFFAOYSA-N
Kind: experiment
Temperature: 273 K
Tabular data in the source: 0
pressure (bar)	uptake (cm3(STP)/g)
0.021659	3.21101
0.059326	4.28135
0.081926	4.28135
0.104527	7.49235
0.12901	10.1682
0.159144	11.7737
0.181745	13.3792
0.206228	13.9144
0.232595	17.1254
0.257079	19.2661
0.283446	19.2661
0.31358	21.4067
0.334297	23.5474
0.360664	25.6881
0.385148	27.8287
0.409632	27.8287
0.435999	28.8991
0.460483	31.5749
0.5038	35.3211
0.513217	34.2508
0.550884	36.3914
0.564068	38.5321
0.588551	38.5321
0.613035	40.6728
0.646936	42.8135
0.665769	43.8838
0.690253	46.0245
0.712853	47.0948
0.741104	48.1651
0.765588	50.3058
0.793838	51.3761
0.818322	52.4465
0.842806	54.5872
0.869173	55.6575
0.891773	57.7982
0.91814	59.9388
0.946391	59.9388
0.968991	61.0092
0.995358	63.1498
1.00854	65.2905
