Adsorption isotherm of Hydrogen on ICOF-2
DOI: 10.1002/anie.201509014
Article source: Figure 2b
Adsorbate Hydrogen: InChIKey UFHFLCQGNIYNRP-UHFFFAOYSA-N
Kind: experiment
Temperature: 77 K
Tabular data in the source: 0
pressure (bar)	uptake (cm3(STP)/g)
0.008475	12.844
0.008475	18.1957
0.023542	41.7431
0.048026	62.0795
0.073451	79.7401
0.101702	92.5841
0.126185	103.823
0.153494	114.526
0.177036	123.624
0.204345	131.651
0.227887	140.214
0.256138	148.242
0.280621	156.269
0.306047	162.691
0.33053	171.789
0.355956	176.605
0.38044	184.098
0.407748	190.52
0.433174	198.012
0.460483	203.364
0.4812	208.716
0.505683	216.208
0.535817	221.56
0.560301	229.052
0.586668	235.474
0.611152	242.966
0.639402	248.318
0.658236	256.881
0.686486	263.303
0.709087	269.725
0.735454	275.076
0.761821	281.498
0.790071	287.921
0.814555	296.483
0.837155	305.046
0.863523	307.187
0.888006	315.749
0.91814	322.171
0.94074	327.523
0.967108	333.945
0.989708	340.367
1.00854	344.648
