Adsorption isotherm of Hydrogen on ICOF-1
DOI: 10.1002/anie.201509014
Article source: Figure 2b
Adsorbate Hydrogen: InChIKey UFHFLCQGNIYNRP-UHFFFAOYSA-N
Kind: experiment
Temperature: 77 K
Tabular data in the source: 0
pressure (bar)	uptake (cm3(STP)/g)
0.006592	7.49235
0.008475	10.7034
0.010359	14.9847
0.026367	29.4343
0.048026	41.208
0.073451	52.4465
0.101702	61.5443
0.124302	67.9664
0.150669	74.9235
0.177036	80.8104
0.203403	85.6269
0.22412	88.8379
0.255196	94.7248
0.275913	98.4709
0.300397	101.147
0.326764	103.823
0.352189	107.569
0.378556	110.245
0.40304	113.456
0.430349	115.596
0.454832	119.343
0.4812	120.948
0.506625	123.089
0.531109	125.229
0.555592	127.905
0.583843	130.046
0.606443	131.651
0.633752	133.257
0.660119	135.933
0.684603	138.073
0.71097	139.679
0.735454	142.355
0.759937	143.425
0.784421	145.566
0.81173	146.636
0.836214	148.777
0.861639	150.382
0.888006	153.058
0.913432	153.593
0.937915	155.734
0.963341	157.339
0.988766	159.48
1.0076	160.015
