Adsorption isotherm of Nitrogen on MA-650
DOI: 10.1016/j.micromeso.2012.07.047
Adsorbate Nitrogen: InChIKey IJGRMHOSHXDMSA-UHFFFAOYSA-N
Temperature: 77 K
Tabular data in the source: 0
pressure (bar)	uptake (cm3(STP)/g)
0.00658518	26.8426
0.0509196	34.3509
0.109555	38.3553
0.175342	43.8613
0.25257	48.8668
0.35411	56.3751
0.448499	63.8833
0.547179	75.8965
0.65301	91.9141
0.743109	115.44
0.797454	137.464
0.848939	166.997
0.894704	205.038
0.926167	244.582
0.95048	282.123
0.961921	301.645
0.996244	316.161
