Adsorption isotherm of Nitrogen on MA-900
DOI: 10.1016/j.micromeso.2012.07.047
Adsorbate Nitrogen: InChIKey IJGRMHOSHXDMSA-UHFFFAOYSA-N
Temperature: 77 K
Tabular data in the source: 0
pressure (bar)	uptake (cm3(STP)/g)
0.00658518	1.8151
0.0123058	21.3366
0.045199	27.3432
0.0995445	30.3465
0.15246	32.8492
0.225397	37.3542
0.305485	40.3575
0.404165	46.3641
0.511426	53.8723
0.598664	60.88
0.690194	72.8932
0.778862	92.9152
0.824627	111.936
0.868961	136.964
0.907575	173.003
0.937608	214.549
0.95906	258.097
1.00053	276.617
