Adsorption isotherm of Nitrogen on MIL-53(Al)
DOI: 10.1039/C2jm15966j
Adsorbate Nitrogen: InChIKey IJGRMHOSHXDMSA-UHFFFAOYSA-N
Temperature: 77 K
Tabular data in the source: 0
pressure (bar)	uptake (cm3(STP)/g)
9.60731e-05	34.9515
0.000101595	39.3204
0.000123544	52.4272
0.000154494	69.9029
0.000168001	78.6408
0.000187872	96.1165
0.000216044	139.806
0.000255477	190.049
0.000277819	211.893
0.000302115	233.738
0.000388501	235.922
0.00051375	240.291
0.00066065	244.66
0.000873638	249.029
0.00196463	262.136
0.00259796	266.505
0.00334089	273.058
0.00441796	277.427
0.00568122	281.796
0.00600775	283.981
0.00772577	283.981
0.0131378	288.35
0.0173733	288.35
0.0199784	292.718
0.0264193	292.718
0.0413135	292.718
0.0531266	294.903
0.0742937	299.272
0.106835	301.456
0.141277	301.456
0.208918	303.641
0.386337	310.194
0.604144	314.563
0.75549	323.301
