Adsorption isotherm of Nitrogen on Al-MIL-53-11.1%NH2
DOI: 10.1039/C2jm15966j
Adsorbate Nitrogen: InChIKey IJGRMHOSHXDMSA-UHFFFAOYSA-N
Temperature: 77 K
Tabular data in the source: 0
pressure (bar)	uptake (cm3(STP)/g)
2.37576e-05	19.6602
3.32225e-05	32.767
4.2722e-05	41.5049
5.19531e-05	48.0583
6.49668e-05	61.165
8.12422e-05	74.2718
9.87943e-05	87.3786
0.000127043	100.485
0.000150235	111.408
0.000187872	141.99
0.000241592	155.097
0.00027016	166.019
0.000319479	176.942
0.000388501	192.233
0.000472435	207.524
0.000528314	216.262
0.000679378	227.184
0.000976971	242.476
0.00129194	255.583
0.00175684	268.689
0.00274734	288.35
0.00343551	294.903
0.00441796	301.456
0.00552461	305.825
0.00710447	310.194
0.0105059	314.563
0.0138929	316.748
0.0183718	318.932
0.0205443	318.932
0.0271676	323.301
0.0531266	325.485
0.068319	329.854
0.103891	329.854
0.137384	334.223
0.181676	336.408
0.233625	336.408
0.326701	338.592
0.42012	338.592
0.525366	345.146
0.656975	347.33
0.821554	353.883
0.918713	382.282
