Adsorption isotherm of Nitrogen on Al-MIL-53-50%NH2
DOI: 10.1039/C2jm15966j
Adsorbate Nitrogen: InChIKey IJGRMHOSHXDMSA-UHFFFAOYSA-N
Temperature: 77 K
Tabular data in the source: 0
pressure (bar)	uptake (cm3(STP)/g)
0.000319779	45.8738
0.000422873	45.8738
0.000543801	48.0583
0.000719118	52.4272
0.000950955	54.6117
0.00136748	61.165
0.00175853	72.0874
0.00239133	91.7476
0.00290797	104.854
0.00430031	146.359
0.00568656	174.757
0.00672466	192.233
0.00817749	207.524
0.0108138	231.553
0.0139059	246.845
0.0178826	257.767
0.0199972	259.951
0.0264442	264.32
0.0340056	270.874
0.109967	286.165
0.145419	290.534
0.233847	294.903
0.345808	299.272
0.483577	303.641
0.777637	312.379
0.972443	325.485
