Adsorption isotherm of Nitrogen on NH2-MIL-53(Al)
DOI: 10.1039/C2jm15966j
Adsorbate Nitrogen: InChIKey IJGRMHOSHXDMSA-UHFFFAOYSA-N
Temperature: 77 K
Tabular data in the source: 0
pressure (bar)	uptake (cm3(STP)/g)
0.0124237	54.6117
0.0159761	58.9806
0.0211267	61.165
0.0279378	65.534
0.0359262	67.7184
0.0475085	69.9029
0.061093	78.6408
0.076398	89.5631
0.095537	100.485
0.116177	115.777
0.141277	133.252
0.167066	150.728
0.197562	168.204
0.227187	185.68
0.261254	203.155
0.308943	222.816
0.35527	240.291
0.408543	259.951
0.483119	277.427
0.587496	303.641
0.734671	323.301
0.893396	351.699
0.944748	375.728
