Adsorption isotherm of Carbon Dioxide on MIL-53(Al)
DOI: 10.1039/C2jm15966j
Adsorbate Carbon Dioxide: InChIKey CURLTUGMZLYLDI-UHFFFAOYSA-N
Temperature: 303 K
Tabular data in the source: 0
pressure (bar)	uptake (cm3(STP)/g)
0.14492	6.06427
0.503441	34.1036
0.868853	38.6583
1.2336	45.4857
2.47742	56.1232
3.20824	65.2325
4.08577	74.3456
4.52453	78.9021
5.03642	84.2181
5.54853	88.7765
5.83992	95.602
6.13132	102.428
6.42271	109.253
6.71411	116.079
7.07885	122.906
7.37025	129.732
7.80657	142.621
8.24488	148.693
8.68342	154.007
9.12151	160.836
9.63274	168.425
10.292	171.472
10.9512	174.519
12.1228	181.367
13.2217	185.94
15.3462	195.084
17.6169	205.748
22.6024	213.45
25.1687	216.545
26.4879	220.366
27.6613	221.153
29.1278	222.705
30.4477	224.254
