Adsorption isotherm of Carbon Dioxide on Al-MIL-53-11.1%NH2
DOI: 10.1039/C2jm15966j
Adsorbate Carbon Dioxide: InChIKey CURLTUGMZLYLDI-UHFFFAOYSA-N
Temperature: 303 K
Tabular data in the source: 0
pressure (bar)	uptake (cm3(STP)/g)
0.0684592	16.6684
0.28295	35.6132
1.30717	44.73
4.67767	56.9363
6.50873	66.0735
8.33935	76.7257
8.55851	79.7616
8.8499	86.5871
9.1413	93.4127
9.50604	100.24
9.79744	107.066
10.0888	113.891
10.4536	120.719
10.745	127.544
11.0364	134.37
11.3278	141.195
11.6189	148.778
12.1308	154.094
12.6429	158.653
13.2282	163.97
13.7403	168.529
14.3262	171.574
14.9854	174.621
15.7912	178.429
17.8436	183.026
19.6022	189.131
20.4086	190.667
22.3137	197.533
24	199.848
24.5864	201.378
26.6397	202.945
28.6926	206.028
29.7195	206.054
30.7464	206.079
