Adsorption isotherm of Carbon Dioxide on Al-MIL-53-66.7%NH2
DOI: 10.1039/C2jm15966j
Adsorbate Carbon Dioxide: InChIKey CURLTUGMZLYLDI-UHFFFAOYSA-N
Temperature: 303 K
Tabular data in the source: 0
pressure (bar)	uptake (cm3(STP)/g)
0.144031	9.09455
0.648584	39.4103
1.30739	43.9724
2.62634	48.5512
4.01886	52.3742
5.19156	55.4341
5.92461	56.9678
6.5843	58.4996
7.31757	59.2757
7.97727	60.8075
8.71032	62.3412
9.36957	65.3881
10.1024	67.6794
10.7619	69.9687
11.4211	73.0157
12.5189	81.3767
12.9572	87.4484
13.3955	93.5201
13.8339	99.5918
14.7089	117.038
15.0003	123.864
15.3651	130.691
15.6565	137.517
16.604	157.995
17.0423	164.067
17.4073	170.137
17.8454	176.966
18.3564	185.312
19.1612	192.151
20.4788	201.275
21.6511	205.85
22.5295	211.933
23.1159	213.463
23.8489	214.996
25.7538	222.62
26.4132	224.909
27.0729	226.441
27.6591	228.729
28.3921	230.262
29.0518	231.794
30.0782	233.335
30.8844	235.628
