Adsorption isotherm of Nitrogen on Al-MIL-53-66.7%NH2
DOI: 10.1039/C2jm15966j
Adsorbate Nitrogen: InChIKey IJGRMHOSHXDMSA-UHFFFAOYSA-N
Temperature: 77 K
Tabular data in the source: 0
pressure (bar)	uptake (cm3(STP)/g)
0.00103312	21.8447
0.00132853	30.5825
0.00232323	63.3495
0.00274734	80.8252
0.00324879	109.223
0.00395068	146.359
0.00454309	183.495
0.00537244	216.262
0.00635304	249.029
0.0075128	266.505
0.0131378	292.718
0.0168944	299.272
0.0199784	303.641
0.0264193	305.825
0.0339736	310.194
0.0449264	312.379
0.0594103	314.563
0.0785637	316.748
0.0929034	318.932
0.122855	321.117
0.153632	321.117
0.186824	323.301
0.268658	325.485
0.397285	329.854
0.510888	332.039
0.656975	332.039
0.821554	338.592
0.972	356.068
