Adsorption isotherm of Carbon Dioxide on Al-MIL-53-50%NH2
DOI: 10.1039/C2jm15966j
Adsorbate Carbon Dioxide: InChIKey CURLTUGMZLYLDI-UHFFFAOYSA-N
Temperature: 303 K
Tabular data in the source: 0
pressure (bar)	uptake (cm3(STP)/g)
1.60123	42.4647
2.33428	43.9983
2.99375	46.2877
4.01997	48.5864
5.11932	51.6444
5.85259	52.4205
6.51229	53.9523
7.24556	54.7284
7.97883	55.5045
8.63852	57.0363
9.298	59.3257
10.0308	61.6169
10.6903	63.9063
11.4231	66.1976
12.0826	68.4869
12.4476	74.5568
13.0317	83.6624
13.47	89.7341
13.9808	98.8379
14.7832	114.01
15.1479	120.837
15.4393	127.663
15.8043	133.732
16.0228	139.041
16.2422	141.319
16.6805	147.391
17.1924	152.707
17.6307	158.779
18.069	164.85
18.6549	167.895
19.3139	171.7
19.8994	176.26
20.5589	178.549
21.2181	181.596
21.9512	183.13
22.5373	185.418
23.2703	186.951
23.9298	189.241
24.6629	190.774
25.3223	193.064
26.0554	194.597
26.5684	196.125
27.5946	198.424
28.7675	200.726
29.9404	203.029
30.9669	204.57
