Adsorption isotherm of Carbon Dioxide on NH2-MIL-53(Al)
DOI: 10.1039/C2jm15966j
Adsorbate Carbon Dioxide: InChIKey CURLTUGMZLYLDI-UHFFFAOYSA-N
Temperature: 303 K
Tabular data in the source: 0
pressure (bar)	uptake (cm3(STP)/g)
0.210934	31.0659
0.214268	19.7024
0.428537	39.4048
1.08823	40.9366
2.11423	43.9928
3.58055	46.3025
5.11999	49.3717
5.85326	50.1478
6.58653	50.9239
7.24645	51.6981
7.97971	52.4742
8.63963	53.2485
9.3729	54.0246
10.1062	54.8007
10.7661	55.5749
11.4994	56.351
12.2329	56.3695
12.9659	57.9032
13.6258	58.6774
14.3591	59.4535
15.0926	59.472
15.8261	59.4906
16.5596	59.5091
17.293	59.5276
18.0265	59.5461
18.76	59.5646
19.4931	61.0983
20.1528	62.6301
20.8858	64.1638
21.5455	65.6956
22.2783	67.9868
22.938	69.5186
23.5237	73.3213
24.1828	77.1258
24.8418	80.9303
25.4277	83.9754
26.0867	87.78
26.6724	91.5826
27.2583	94.6277
27.9173	98.4323
28.5766	101.479
29.1623	105.282
29.7479	109.085
30.3336	112.887
30.9922	118.207
