Adsorption isotherm of Nitrogen on Al-MIL-53-20%NH2
DOI: 10.1039/C2jm15966j
Adsorbate Nitrogen: InChIKey IJGRMHOSHXDMSA-UHFFFAOYSA-N
Temperature: 77 K
Tabular data in the source: 0
pressure (bar)	uptake (cm3(STP)/g)
6.14358e-05	21.8447
7.90027e-05	28.3981
0.000101595	34.9515
0.000134348	39.3204
0.000177661	48.0583
0.000222163	61.165
0.00027016	74.2718
0.000328535	91.7476
0.000446757	115.777
0.000574502	144.175
0.00066065	163.835
0.000759717	179.126
0.000873638	198.786
0.000976971	220.631
0.00122169	231.553
0.00175684	264.32
0.0026716	286.165
0.00441796	301.456
0.00816981	312.379
0.0120812	316.748
0.0205443	321.117
0.0349367	323.301
0.0516633	327.67
0.0903445	332.039
0.133599	334.223
0.220926	336.408
0.456859	342.961
0.656975	347.33
0.893396	362.621
