Adsorption isotherm of Carbon Dioxide on Al-MIL-53-20%NH2
DOI: 10.1039/C2jm15966j
Adsorbate Carbon Dioxide: InChIKey CURLTUGMZLYLDI-UHFFFAOYSA-N
Temperature: 303 K
Tabular data in the source: 0
pressure (bar)	uptake (cm3(STP)/g)
0.648584	39.4103
1.30673	46.2451
3.2118	53.1114
4.677	59.209
6.06953	63.0321
7.31513	67.609
8.26778	70.6633
8.55984	75.2162
8.92481	81.286
9.3629	88.1152
9.72787	94.185
10.0926	101.012
10.5309	107.084
10.8957	113.912
11.2606	119.981
11.699	126.053
12.0637	132.88
12.4287	138.95
12.8668	145.779
13.2317	151.849
13.5965	158.677
14.1088	162.477
14.694	167.795
15.2062	172.354
15.7912	178.429
17.9152	189.089
20.1137	195.962
22.1665	199.045
24.367	199.1
25.6131	202.162
26.6393	204.461
27.5917	208.273
28.6173	212.844
29.6437	214.385
30.6704	215.168
