Adsorption isotherm of Nitrogen on TC3 composite photocatalyst
DOI: 10.1016/j.apsusc.2017.06.028
Article source: Figure 3
Adsorbate Nitrogen: InChIKey IJGRMHOSHXDMSA-UHFFFAOYSA-N
Kind: experiment
Temperature: 77 K
Tabular data in the source: 0
pressure (bar)	uptake (cm3(STP)/g)
0.008835	12.4
0.033254	14.39
0.066012	17.81
0.076762	17.53
0.097179	18.3
0.119196	18.8
0.14015	19.56
0.16003	19.8
0.182047	20.57
0.199779	21.61
0.254027	23.66
0.302915	25.19
0.35609	27.24
0.405505	29.3
0.455467	31.1
0.508104	33.95
0.558057	36.01
0.60963	38.07
0.658498	42.27
0.707913	46.47
0.760551	49.87
0.762152	53.61
0.809946	58.88
0.810989	67.7
0.830332	65.8
0.832439	77.83
0.864478	92.49
0.864538	74.64
0.880345	102.4
0.884134	85.22
0.906324	124.6
0.912849	100.67
0.934765	121.18
0.937704	152.84
0.96038	152.3
0.964939	203.5
0.981313	261.08
0.983552	203.47
0.986329	276.91
0.991557	236.64
0.99406	293.91
0.998873	271.16
1.00146	305.18
