Adsorption isotherm of Nitrogen on C composite photocatalyst
DOI: 10.1016/j.apsusc.2017.06.028
Article source: Figure 3
Adsorbate Nitrogen: InChIKey IJGRMHOSHXDMSA-UHFFFAOYSA-N
Kind: experiment
Temperature: 77 K
Tabular data in the source: 0
pressure (bar)	uptake (cm3(STP)/g)
0.008207	3.23
0.032241	3.69
0.066752	6.67
0.080623	7.15
0.10261	8.64
0.120888	8.44
0.142207	9.42
0.162512	10.06
0.183496	11.37
0.199738	11.68
0.253541	12.78
0.28569	13.9
0.30329	14.89
0.356079	15.31
0.404806	17.08
0.457929	22.05
0.458618	18.85
0.507345	20.96
0.507993	28.21
0.556719	30.32
0.558442	21.73
0.605476	25.02
0.609853	31.58
0.658275	25.44
0.660281	32.18
0.708683	28.39
0.709342	33.11
0.740144	33.9
0.761483	29.49
0.807078	33.08
0.809773	32.01
0.83475	32.77
0.84012	33.16
0.861337	33.66
0.866717	33.52
0.88686	33.76
0.888745	33.08
0.912383	32.91
0.91748	32.77
0.939244	33.67
0.944878	33.26
0.961809	33.24
0.984637	33.33
0.993502	33.99
1.00612	34.64
