Adsorption isotherm of Nitrogen on T composite photocatalyst
DOI: 10.1016/j.apsusc.2017.06.028
Article source: Figure 3
Adsorbate Nitrogen: InChIKey IJGRMHOSHXDMSA-UHFFFAOYSA-N
Kind: experiment
Temperature: 77 K
Tabular data in the source: 0
pressure (bar)	uptake (cm3(STP)/g)
0.006941	12.29
0.030569	14.12
0.068707	15.67
0.081058	17.25
0.095568	17.23
0.118669	17.73
0.137465	19.3
0.158408	20.07
0.180973	20.03
0.202464	20.54
0.248667	22.07
0.303452	23.85
0.356637	25.64
0.400145	27.44
0.45493	29.49
0.504882	32.36
0.647241	37.21
0.706272	42.04
0.759051	46
0.7942	60.94
0.809794	52.66
0.817514	69.66
0.833463	59.02
0.863819	87.27
0.86389	68.24
0.890589	78.81
0.895564	105.41
0.913447	122.73
0.91828	94.76
0.933337	142.24
0.93819	112.59
0.95963	172.18
0.964473	143.88
0.980371	240.2
0.986967	192.69
0.990979	302.84
0.99329	224.01
0.998386	312.43
