Adsorption isotherm of Nitrogen on UiO-68-SEt
DOI: 10.1016/j.jssc.2014.06.023
Article source: Figure 6
Adsorbate Nitrogen: InChIKey IJGRMHOSHXDMSA-UHFFFAOYSA-N
Kind: experiment
Temperature: 77 K
Tabular data in the source: 0
pressure (bar)	uptake (mmol/g)
0.005741	156.981
0.011482	258.113
0.014352	268.679
0.015787	196.226
0.018658	282.264
0.024398	224.906
0.025834	294.34
0.027269	300.377
0.030139	236.981
0.034445	250.566
0.03588	304.906
0.03875	306.415
0.043056	309.434
0.045926	261.132
0.053102	312.453
0.061714	273.208
0.064584	313.962
0.067454	316.981
0.070325	276.226
0.07463	316.981
0.086112	318.491
0.087547	280.755
0.091853	320
0.097594	288.302
0.104769	289.811
0.109075	320
0.113381	323.019
0.114815	294.34
0.124862	323.019
0.133473	324.528
0.134908	294.34
0.155002	324.528
0.166483	297.358
0.169354	327.547
0.182271	327.547
0.189446	327.547
0.196622	300.377
0.205234	327.547
0.229632	303.396
0.233937	329.057
0.252595	329.057
0.259771	306.415
0.292781	307.925
0.298522	332.075
0.324354	309.434
0.327225	332.075
0.347318	332.075
0.357364	310.943
0.387503	312.453
0.39181	333.585
0.411902	333.585
0.419078	313.962
0.450652	313.962
0.453523	333.585
0.482227	315.472
0.486532	335.094
0.515237	318.491
0.518106	335.094
0.54394	318.491
0.545376	335.094
0.568339	335.094
0.578385	321.509
0.609959	335.094
0.614265	320
0.642969	335.094
0.647274	321.509
0.673108	335.094
0.675979	323.019
0.704682	333.585
0.707552	324.528
0.737692	333.585
0.739127	324.528
0.767831	333.585
0.769266	324.528
0.79797	333.585
0.802276	327.547
0.828109	333.585
0.83385	327.547
0.858248	333.585
0.868295	327.547
0.879777	333.585
0.898435	329.057
0.927138	329.057
0.957277	330.566
0.987416	330.566
1.00894	333.585
