Adsorption isotherm of Nitrogen on UiO-68-allyl
DOI: 10.1016/j.jssc.2014.06.023
Article source: Figure 6
Adsorbate Nitrogen: InChIKey IJGRMHOSHXDMSA-UHFFFAOYSA-N
Kind: experiment
Temperature: 77 K
Tabular data in the source: 0
pressure (bar)	uptake (mmol/g)
0.005741	384.906
0.011482	514.717
0.012917	550.943
0.014352	534.34
0.015787	561.509
0.020093	599.245
0.025834	615.849
0.030139	627.925
0.034445	632.453
0.040186	638.491
0.045926	643.019
0.054538	646.038
0.066019	650.566
0.070325	650.566
0.077501	653.585
0.086112	653.585
0.094723	655.094
0.100464	656.604
0.109075	658.113
0.114815	658.113
0.123427	659.623
0.137779	661.132
0.153566	661.132
0.166483	664.151
0.180835	665.66
0.189446	664.151
0.202363	665.66
0.223891	667.17
0.231067	665.66
0.259771	667.17
0.266947	668.679
0.28991	665.66
0.295651	668.679
0.321484	668.679
0.324354	667.17
0.355929	667.17
0.360235	668.679
0.386069	670.189
0.390374	667.17
0.409032	670.189
0.420513	670.189
0.450652	668.679
0.454957	670.189
0.485097	670.189
0.515237	671.698
0.545376	671.698
0.551116	670.189
0.578385	670.189
0.611394	671.698
0.641533	671.698
0.644404	670.189
0.673108	671.698
0.680284	671.698
0.703247	671.698
0.710423	671.698
0.731952	671.698
0.739127	670.189
0.764961	671.698
0.772137	670.189
0.7951	671.698
0.80084	670.189
0.816628	671.698
0.832415	671.698
0.862554	671.698
0.892694	671.698
0.924267	671.698
0.957277	671.698
0.985981	671.698
1.00464	673.208
