Adsorption isotherm of Nitrogen on TpPa-(SO3H-Py)
DOI: 10.1021/acs.chemmater.5b04947
Article source: Figure S29
Adsorbate Nitrogen: InChIKey IJGRMHOSHXDMSA-UHFFFAOYSA-N
Kind: experiment
Temperature: 77 K
Tabular data in the source: 0
pressure (bar)	uptake (cm3(STP)/g)
0.000489	15.412
0.017391	43.6415
0.043394	50.542
0.064197	54.3059
0.086299	56.1879
0.105802	57.4425
0.127904	61.2065
0.147407	63.0884
0.165609	64.3431
0.185111	66.225
0.209814	69.3616
0.226716	69.989
0.247519	72.4982
0.272222	73.7529
0.291724	75.0075
0.312527	77.5168
0.332029	77.5168
0.348931	80.0261
0.372334	81.2807
0.391837	82.5354
0.415239	83.79
0.433442	86.2993
0.455544	88.1813
0.475047	88.1813
0.495849	90.0632
0.516652	91.9452
0.538755	93.8272
0.564758	94.4545
0.58166	96.9638
0.599862	98.2184
0.618064	100.728
0.636266	101.355
0.660969	102.61
0.677871	103.864
0.698674	107.001
0.719477	109.51
0.74418	111.392
0.761082	115.156
0.777984	116.411
0.802687	119.547
0.82739	124.566
0.846892	126.448
0.861194	131.466
0.883297	136.485
0.921001	150.286
0.937903	155.305
0.947004	162.832
0.965207	176.634
0.99511	221.801
1.01071	268.85
0.958706	191.689
0.919701	160.323
0.870295	141.504
0.822189	131.466
0.785785	126.448
0.771483	124.566
0.709075	119.547
0.672671	115.783
0.631066	113.901
0.58556	109.51
0.549156	108.256
0.506251	104.492
0.473747	102.61
0.429541	96.3364
0.387936	94.4545
0.345031	92.5725
0.308626	90.0632
0.272222	86.9266
0.25402	86.2993
0.189012	81.9081
0.151307	78.7715
0.111002	76.2622
0.071998	71.8709
0.045994	68.7343
