Adsorption isotherm of Nitrogen on 200 Â°C Activated TpPa-Py
DOI: 10.1021/acs.chemmater.5b04947
Article source: Figure S40
Adsorbate Nitrogen: InChIKey IJGRMHOSHXDMSA-UHFFFAOYSA-N
Kind: experiment
Temperature: 77 K
Tabular data in the source: 0
pressure (bar)	uptake (cm3(STP)/g)
0	14.248
0.028388	52.2427
0.061144	58.0475
0.087349	62.2691
0.120105	65.4354
0.150677	69.1293
0.179066	71.2401
0.20527	73.3509
0.235843	75.9894
0.266415	77.0449
0.299171	79.6834
0.321008	80.7388
0.353764	82.3219
0.382152	84.4327
0.408357	85.4881
0.440021	87.5989
0.471685	89.7098
0.493523	91.2929
0.519727	91.8206
0.548116	93.9314
0.576504	94.9868
0.60926	96.5699
0.638741	98.9446
0.670405	100.792
0.696609	102.375
0.729365	102.902
0.753386	104.485
0.779591	107.124
0.80798	108.707
0.834184	110.818
0.86694	113.456
0.897512	116.623
0.928085	118.734
0.952106	121.372
0.980494	125.594
1.0067	129.815
1.00888	136.675
0.989229	133.509
0.912798	125.594
0.904064	124.538
0.838552	120.317
0.786142	117.15
0.740284	116.095
0.698793	113.984
0.650751	111.873
0.642016	111.346
0.572137	109.763
0.519727	105.013
0.476053	103.958
0.428011	101.847
0.388704	100.264
0.342845	98.153
0.299171	97.0976
0.283885	96.5699
0.218373	92.876
0.165963	90.7652
0.122289	88.1266
0.078614	86.0158
0.050226	83.3773
