Adsorption isotherm of Nitrogen on Physical mixture of TpPa-SO3H and TpPa-Py
DOI: 10.1021/acs.chemmater.5b04947
Article source: Figure S42D
Adsorbate Nitrogen: InChIKey IJGRMHOSHXDMSA-UHFFFAOYSA-N
Kind: experiment
Temperature: 77 K
Tabular data in the source: 0
pressure (bar)	uptake (cm3(STP)/g)
0	23.5816
0.02308	68.1632
0.044717	76.7366
0.064551	81.8807
0.087992	85.31
0.107826	87.882
0.125857	90.454
0.145691	93.8834
0.167329	95.5981
0.187163	98.1701
0.210603	101.599
0.225028	102.457
0.244862	105.029
0.262894	107.601
0.28994	109.315
0.311577	111.888
0.333215	112.745
0.354852	114.46
0.376489	117.032
0.394521	119.604
0.416158	122.176
0.435992	123.89
0.45222	124.748
0.473857	126.462
0.495495	129.034
0.517132	129.892
0.535163	133.321
0.554997	134.178
0.573029	136.75
0.596469	141.894
0.612697	143.609
0.636137	143.609
0.661381	147.038
0.679412	148.753
0.699246	153.897
0.72449	157.326
0.740718	160.756
0.758749	163.328
0.780386	170.187
0.802024	174.473
0.821858	181.332
0.845298	186.047
0.866936	195.049
0.88136	202.765
0.919226	225.056
0.930044	235.344
0.960697	267.923
0.964303	280.783
0.993153	348.513
1.00397	395.667
0.994956	390.523
0.966107	341.654
0.928241	270.495
0.883164	222.484
0.83448	198.05
0.798417	184.761
0.756946	177.903
0.711868	167.615
0.6722	163.328
0.634334	157.326
0.612697	155.612
0.556801	150.468
0.513526	145.324
0.468448	140.18
0.430583	136.75
0.394521	133.321
0.354852	130.749
0.309774	126.462
0.270106	123.033
0.232241	119.604
0.194375	116.174
0.152904	112.745
0.113235	109.315
0.069961	102.457
0.044717	99.0274
