Adsorption isotherm of Nitrogen on Phytic@TpPa-SO3H-without wash
DOI: 10.1021/acs.chemmater.5b04947
Article source: Figure S30
Adsorbate Nitrogen: InChIKey IJGRMHOSHXDMSA-UHFFFAOYSA-N
Kind: experiment
Temperature: 77 K
Tabular data in the source: 0
pressure (bar)	uptake (cm3(STP)/g)
0.002345	0.431034
0.023455	1.86782
0.053946	2.15517
0.070365	2.44253
0.084437	2.44253
0.107892	2.87356
0.133693	2.87356
0.154802	3.16092
0.173566	3.16092
0.194675	3.3046
0.211094	3.16092
0.232203	3.3046
0.250967	3.44828
0.274422	3.3046
0.293186	3.59195
0.316641	3.59195
0.335405	3.87931
0.354168	4.02299
0.377623	3.87931
0.394042	3.87931
0.41046	4.16667
0.43626	4.16667
0.462061	4.45402
0.480825	4.45402
0.497243	4.45402
0.511316	4.45402
0.523043	4.74138
0.534771	5.02874
0.560571	4.74138
0.584026	4.88506
0.598099	4.52586
0.621554	4.88506
0.645009	4.88506
0.668464	5.02874
0.689573	5.31609
0.705991	5.60345
0.72241	5.60345
0.74821	5.8908
0.769319	6.32184
0.792774	6.89655
0.809193	6.6092
0.830302	7.32759
0.851411	7.61494
0.872521	8.18966
0.891285	8.76437
0.910049	9.91379
0.935849	11.2069
0.949922	13.6494
0.973377	16.092
0.989795	20.546
1.02029	43.8218
0.963995	17.9598
0.905358	10.4885
0.84203	8.47701
0.816229	7.47126
0.79512	7.47126
0.785738	6.32184
0.74821	6.03448
0.729446	5.8908
0.673155	5.60345
0.588717	5.02874
0.553535	4.88506
0.50428	4.45402
0.469097	4.31035
0.424533	4.02299
0.389351	4.02299
0.349477	3.59195
0.330714	3.44828
0.272076	3.01724
0.227512	2.44253
0.241585	3.01724
0.201712	2.29885
0.14542	2.15517
0.121965	2.15517
0.082092	1.86782
0.070365	1.2931
0.041046	1.14943
0.016418	0.574713
