Adsorption isotherm of Nitrogen on TpPa-SO3H
DOI: 10.1021/acs.chemmater.5b04947
Article source: Figure S29
Adsorbate Nitrogen: InChIKey IJGRMHOSHXDMSA-UHFFFAOYSA-N
Kind: experiment
Temperature: 77 K
Tabular data in the source: 0
pressure (bar)	uptake (cm3(STP)/g)
0.002247	11.9241
0.01348	37.9404
0.04718	44.4444
0.065154	46.6125
0.092114	49.8645
0.112334	53.1165
0.130307	53.1165
0.14491	55.2846
0.170747	57.4526
0.186474	58.5366
0.205914	60.5791
0.233217	61.5201
0.248819	63.0884
0.268322	65.5977
0.294325	66.8524
0.315127	69.989
0.330729	71.2436
0.354132	73.7529
0.373634	73.7529
0.394437	75.6348
0.415239	77.5168
0.434742	80.0261
0.454244	81.2807
0.473747	83.1627
0.50105	85.672
0.524453	87.5539
0.538755	89.4359
0.560857	91.3179
0.58166	93.8272
0.603762	96.9638
0.620665	100.728
0.637567	103.237
0.659669	108.256
0.680472	110.138
0.702575	113.274
0.722077	118.293
0.740279	120.802
0.762382	125.821
0.783184	132.094
0.801387	137.74
0.820889	144.013
0.845592	153.423
0.859894	162.205
0.887197	175.379
0.924902	208
0.932703	219.919
0.944404	235.602
0.975608	292.688
1.00031	346.638
1.00941	398.078
0.950905	293.315
0.919701	248.148
0.880696	203.608
0.833891	171.615
0.800086	153.423
0.755881	137.74
0.714276	126.448
0.66747	118.293
0.629766	110.138
0.589461	104.492
0.566058	101.982
0.508851	94.4545
0.465946	88.1813
0.424341	82.5354
0.384036	80.6534
0.348931	75.6348
0.308626	73.1256
0.267021	69.3616
0.225416	65.5977
0.215015	64.3431
0.157808	58.6972
0.112302	56.1879
0.071998	50.542
0.043394	44.8961
