Adsorption isotherm of Water on TpPa-(SO3H-Py)
DOI: 10.1021/acs.chemmater.5b04947
Article source: Figure S42F
Adsorbate Water: InChIKey XLYOFNOQVPJJNP-UHFFFAOYSA-N
Kind: experiment
Temperature: 293 K
Tabular data in the source: 0
pressure (bar)	uptake (cm3(STP)/g)
0.004341	-0.510824
0.008943	8.11438
0.053425	39.9613
0.113247	74.4621
0.163865	101.001
0.22522	132.848
0.274305	150.762
0.338728	163.368
0.386278	173.32
0.4461	183.272
0.502853	193.888
0.551938	201.186
0.605623	209.811
0.663911	221.091
0.722199	230.379
0.778952	243.649
0.831104	254.264
0.88479	262.89
0.944612	278.15
0.998298	292.746
0.987561	294.073
0.887858	284.784
0.777418	272.178
0.660843	258.909
0.556539	244.976
0.439964	227.725
0.332592	206.494
0.22522	180.618
0.17	151.425
0.114781	115.598
0.059561	76.4525
