Adsorption isotherm of Nitrogen on 200 Â°C Activated TpPa-(SO3H-Py)
DOI: 10.1021/acs.chemmater.5b04947
Article source: Figure S40
Adsorbate Nitrogen: InChIKey IJGRMHOSHXDMSA-UHFFFAOYSA-N
Kind: experiment
Temperature: 77 K
Tabular data in the source: 0
pressure (bar)	uptake (cm3(STP)/g)
0.002184	3.69393
0.024021	17.4142
0.063328	20.0528
0.0939	22.6913
0.126656	23.7467
0.155045	25.3298
0.179066	26.3852
0.209638	26.9129
0.238026	28.496
0.264231	29.5515
0.296987	30.6069
0.321008	32.19
0.353764	32.7177
0.377785	33.7731
0.408357	34.8285
0.434562	34.8285
0.46295	36.4116
0.489155	37.9947
0.519727	38.5224
0.545932	40.6332
0.576504	41.1609
0.604893	42.7441
0.633281	45.3826
0.666037	46.438
0.694426	47.4934
0.722814	49.6042
0.751203	51.715
0.775224	52.7705
0.803612	54.8813
0.834184	58.0475
0.864756	61.2137
0.890961	63.3245
0.956473	74.4063
0.971759	78.1003
0.991413	81.7942
1.01107	88.1266
0.980494	88.1266
0.917166	72.8232
0.882226	67.5462
0.838552	61.2137
0.788326	57.5198
0.746835	53.8259
0.700977	51.715
0.657302	48.5488
0.60926	45.9103
0.567769	44.8549
0.517544	41.1609
0.476053	40.1055
0.460767	38.5224
0.395255	36.4116
0.342845	33.7731
0.296987	31.6623
0.253312	30.0792
0.207454	27.9683
0.165963	25.8575
0.117921	23.7467
0.078614	21.6359
0.045858	19.5251
