Adsorption isotherm of Nitrogen on TpPa-Py
DOI: 10.1021/acs.chemmater.5b04947
Article source: Figure S29
Adsorbate Nitrogen: InChIKey IJGRMHOSHXDMSA-UHFFFAOYSA-N
Kind: experiment
Temperature: 77 K
Tabular data in the source: 0
pressure (bar)	uptake (cm3(STP)/g)
0	22.3126
0.022592	76.2622
0.053795	86.2993
0.079799	91.9452
0.105802	98.2184
0.129205	101.355
0.152607	103.864
0.185111	107.628
0.209814	110.138
0.231917	113.901
0.25792	116.411
0.282623	118.92
0.313827	121.429
0.33723	123.939
0.360633	125.193
0.391837	128.33
0.41654	130.212
0.438642	132.094
0.465946	133.976
0.490649	136.485
0.519252	138.367
0.542655	139.622
0.566058	142.131
0.594661	145.267
0.619364	146.522
0.647968	149.031
0.672671	150.913
0.698674	152.795
0.723377	155.932
0.74938	158.441
0.776684	162.205
0.803987	164.087
0.82999	167.851
0.854693	170.36
0.876796	176.006
0.931402	187.925
0.944404	192.944
0.960006	201.726
0.997711	236.856
1.01071	279.514
0.943104	199.844
0.902799	188.553
0.885897	185.416
0.820889	176.634
0.787085	174.124
0.742879	170.36
0.716876	168.478
0.671371	165.969
0.628465	163.46
0.58426	160.951
0.547856	158.441
0.50495	155.932
0.471146	152.168
0.433442	148.404
0.386636	145.895
0.346331	142.131
0.328129	142.131
0.273522	138.367
0.246219	138.367
0.192912	134.603
0.151307	132.094
0.109702	128.957
0.070697	125.821
0.052495	123.311
