Adsorption isotherm of Nitrogen on Phytic@TpPa-(SO3H-Py)-wthout wash
DOI: 10.1021/acs.chemmater.5b04947
Article source: Figure S30
Adsorbate Nitrogen: InChIKey IJGRMHOSHXDMSA-UHFFFAOYSA-N
Kind: experiment
Temperature: 77 K
Tabular data in the source: 0
pressure (bar)	uptake (cm3(STP)/g)
0	0.143678
0.023455	0.143678
0.04691	0.431034
0.070365	0.431034
0.091474	0.431034
0.110238	0.718391
0.133693	0.718391
0.152457	0.862069
0.17122	0.862069
0.194675	1.00575
0.212266	1.14943
0.232203	1.14943
0.250967	1.2931
0.276767	1.2931
0.295531	1.58046
0.314295	1.72414
0.33775	1.86782
0.356514	2.29885
0.372932	2.29885
0.396387	2.29885
0.419842	2.87356
0.438606	3.16092
0.45737	3.16092
0.478479	3.16092
0.494898	3.73563
0.518352	3.73563
0.537116	4.31035
0.558226	4.31035
0.579335	4.74138
0.600444	5.02874
0.623899	5.31609
0.645009	5.8908
0.661427	6.17816
0.682536	6.17816
0.705991	7.04023
0.724755	7.18391
0.745865	7.61494
0.766974	7.75862
0.783392	8.33333
0.804502	8.62069
0.825611	9.05172
0.84672	9.1954
0.863139	9.1954
0.888939	9.48276
0.907703	9.62644
0.926467	10.0575
0.945231	10.2011
0.973377	10.2011
0.98745	11.2069
1.00856	13.0747
0.942885	9.1954
0.898321	8.47701
0.853757	6.6092
0.813884	6.17816
0.813884	5.8908
0.74821	5.60345
0.729446	5.17241
0.673155	4.74138
0.626245	4.31035
0.586372	3.73563
0.541807	3.59195
0.50428	3.01724
0.48317	3.01724
0.429224	2.44253
0.14542	0.574713
0.107892	0.143678
0.070365	0
0.042219	-0.431034
