Adsorption isotherm of Nitrogen on 200 Â°C Activated TpPa-SO3H
DOI: 10.1021/acs.chemmater.5b04947
Article source: Figure S40
Adsorbate Nitrogen: InChIKey IJGRMHOSHXDMSA-UHFFFAOYSA-N
Kind: experiment
Temperature: 77 K
Tabular data in the source: 0
pressure (bar)	uptake (cm3(STP)/g)
0.002184	8.97098
0.028388	36.4116
0.063328	43.2718
0.0939	45.3826
0.122289	47.4934
0.150677	50.1319
0.179066	52.2427
0.209638	54.3536
0.235843	55.9367
0.264231	58.0475
0.290436	59.6306
0.323192	62.2691
0.355948	64.3799
0.377785	66.4908
0.406173	68.0739
0.434562	70.1847
0.460767	72.2955
0.489155	74.4063
0.51536	76.5172
0.541565	79.1557
0.576504	81.2665
0.602709	83.3773
0.633281	87.5989
0.66167	89.1821
0.694426	91.8206
0.718447	95.5145
0.749019	99.7361
0.777407	102.902
0.836368	113.456
0.864756	119.261
0.895329	127.177
0.917166	135.092
0.949922	145.383
0.980494	161.478
1.00888	180.475
0.987045	186.28
0.930268	153.034
0.886594	135.092
0.838552	122.427
0.794877	112.929
0.768672	108.707
0.711895	100.264
0.655119	92.876
0.613628	89.1821
0.567769	84.4327
0.528462	80.2111
0.478237	75.4617
0.430195	72.8232
0.384336	68.6016
0.345029	65.4354
0.299171	62.2691
0.255496	59.1029
0.216189	56.4644
0.170331	52.2427
0.126656	48.5488
0.078614	44.3272
0.052409	40.6332
