Adsorption isotherm of Water on Phytic@TpPa-(SO3H-Py)-without wash
DOI: 10.1021/acs.chemmater.5b04947
Article source: Figure S31
Adsorbate Water: InChIKey XLYOFNOQVPJJNP-UHFFFAOYSA-N
Kind: experiment
Temperature: 293 K
Tabular data in the source: 0
pressure (bar)	uptake (cm3(STP)/g)
0.008313	1.64166
0.015353	11.0864
0.054778	41.9964
0.116028	73.765
0.168829	100.382
0.225151	131.292
0.277248	151.899
0.337794	164.778
0.389891	175.081
0.446213	183.667
0.503943	193.112
0.553224	201.698
0.609545	212.86
0.665867	220.587
0.722188	230.891
0.774286	240.335
0.829199	254.073
0.884113	265.235
0.940434	277.256
0.998164	291.852
0.985492	291.852
0.885521	284.125
0.772878	270.387
0.664459	258.366
0.553224	243.77
0.440581	226.598
0.330754	205.991
0.227967	182.809
0.170237	151.899
0.115324	115.837
0.059002	77.1994
