Adsorption isotherm of Water on Phytic@TpPa-Py-without wash
DOI: 10.1021/acs.chemmater.5b04947
Article source: Figure S31
Adsorbate Water: InChIKey XLYOFNOQVPJJNP-UHFFFAOYSA-N
Kind: experiment
Temperature: 293 K
Tabular data in the source: 0
pressure (bar)	uptake (cm3(STP)/g)
0.002681	1.64166
0.020985	5.07611
0.063227	22.2483
0.1111	48.0066
0.158973	75.4822
0.219519	113.261
0.288513	145.03
0.33357	159.626
0.388483	166.495
0.444805	175.94
0.49831	182.809
0.557448	191.395
0.608137	199.122
0.665867	205.991
0.72078	213.719
0.775694	223.163
0.829199	233.467
0.884113	245.487
0.93621	256.649
0.995348	278.114
0.9869	275.539
0.885521	262.659
0.777102	249.78
0.670091	237.76
0.551816	224.88
0.440581	210.284
0.33357	193.112
0.232191	163.919
0.149117	114.978
0.104764	77.1994
0.06041	43.7136
