Adsorption isotherm of Water on Phytic@TpPa-SO3H-without wash
DOI: 10.1021/acs.chemmater.5b04947
Article source: Figure S31
Adsorbate Water: InChIKey XLYOFNOQVPJJNP-UHFFFAOYSA-N
Kind: experiment
Temperature: 293 K
Tabular data in the source: 0
pressure (bar)	uptake (cm3(STP)/g)
0.009732	26.7062
0.009732	38.5757
0.06326	111.276
0.114355	163.205
0.170316	186.944
0.223844	206.231
0.277372	222.552
0.333333	234.421
0.386861	252.226
0.447689	264.095
0.49635	275.964
0.549878	292.285
0.608273	305.638
0.666667	317.507
0.717762	332.344
0.776156	350.148
0.829684	364.985
0.885645	385.757
0.939173	413.947
1.00243	442.137
0.987835	440.653
0.888078	419.881
0.77129	387.24
0.6618	359.05
0.547592	329.631
0.447621	306.449
0.334978	278.114
0.225151	245.487
0.171645	224.88
0.115324	197.405
0.059002	149.323
