Adsorption isotherm of Nitrogen on Phytic@TpPa-Py-without wash
DOI: 10.1021/acs.chemmater.5b04947
Article source: Figure S30
Adsorbate Nitrogen: InChIKey IJGRMHOSHXDMSA-UHFFFAOYSA-N
Kind: experiment
Temperature: 77 K
Tabular data in the source: 0
pressure (bar)	uptake (cm3(STP)/g)
0.030491	0.862069
0.056292	0.862069
0.089128	1.14943
0.112583	1.2931
0.140729	1.58046
0.159493	1.58046
0.187639	1.86782
0.213439	2.01149
0.236894	2.29885
0.269731	2.29885
0.293186	2.44253
0.314295	2.72989
0.342441	3.01724
0.365896	3.16092
0.391696	3.3046
0.419842	3.59195
0.447988	3.87931
0.466752	4.02299
0.492552	4.31035
0.513661	4.5977
0.546498	4.5977
0.57699	4.88506
0.598099	4.88506
0.626245	5.31609
0.652045	5.45977
0.6755	5.74713
0.705991	6.03448
0.734137	6.46552
0.757592	6.89655
0.785738	7.18391
0.804502	7.75862
0.827957	8.04598
0.860793	8.47701
0.886594	8.76437
0.935849	9.33908
0.959304	10.3448
0.982759	11.3506
1.01559	13.2184
0.935849	10.4885
0.891285	9.77011
0.851411	9.33908
0.806847	8.76437
0.74821	8.33333
0.7013	7.9023
0.663773	7.75862
0.623899	7.61494
0.586372	7.32759
0.572299	7.04023
0.532425	6.46552
0.487861	5.8908
0.426878	5.31609
0.382314	4.88506
0.370587	4.88506
0.304913	4.31035
0.262694	3.59195
0.222821	3.3046
0.185293	2.72989
0.173566	2.44253
0.110238	1.86782
0.065674	1.00575
0.039873	0.431034
