Adsorption isotherm of Water on Physical mixture of TpPa-SO3H and TpPa-Py
DOI: 10.1021/acs.chemmater.5b04947
Article source: Figure S42F
Adsorbate Water: InChIKey XLYOFNOQVPJJNP-UHFFFAOYSA-N
Kind: experiment
Temperature: 293 K
Tabular data in the source: 0
pressure (bar)	uptake (cm3(STP)/g)
0.01968	0.152653
0.059561	14.7492
0.119382	44.6056
0.171534	71.1447
0.231356	97.0203
0.286576	121.569
0.33566	137.492
0.389346	148.772
0.444566	162.705
0.498252	167.349
0.555005	172.657
0.610225	179.291
0.666979	185.263
0.720665	193.888
0.780486	203.84
0.835706	214.456
0.886324	231.706
0.943078	260.236
1.0029	313.314
0.99523	313.314
0.890926	270.188
0.771283	239.004
0.668513	225.071
0.550404	207.821
0.439964	192.561
0.331058	176.638
0.22522	158.06
0.173068	134.839
0.114781	109.626
0.059561	83.0873
