Adsorption isotherm of Hydrogen on Fe-IRMOF16
DOI: 10.1021/Jp101346y
Adsorbate Hydrogen: InChIKey UFHFLCQGNIYNRP-UHFFFAOYSA-N
Temperature: 298 K
Tabular data in the source: 0
pressure (bar)	uptake (wt%)
0.0547527	1.28751
0.120299	0.380791
0.120299	2.13961
0.251391	2.82785
0.316938	3.33037
2.93879	3.71272
7.85475	3.97491
10.0833	4.0623
19.9153	4.22617
29.8783	4.33541
