Adsorption isotherm of Hydrogen on IRMOF-16
DOI: 10.1021/Jp101346y
Adsorbate Hydrogen: InChIKey UFHFLCQGNIYNRP-UHFFFAOYSA-N
Temperature: 298 K
Tabular data in the source: 0
pressure (bar)	uptake (wt%)
0.316938	0.0202863
2.93879	0.0202863
4.97072	0.0421351
7.85475	0.0530594
10.0178	0.0530594
19.9153	0.107681
29.8783	0.12953
