Adsorption isotherm of Nitrogen on NENU-11
DOI: 10.1021/Ja109659k
Adsorbate Nitrogen: InChIKey IJGRMHOSHXDMSA-UHFFFAOYSA-N
Temperature: 77 K
Tabular data in the source: 0
pressure (bar)	uptake (cm3(STP)/g)
0.000103585	93.1869
0.000688336	154.726
0.000691678	54.5061
0.000795262	147.693
0.00113609	125.276
0.00146021	3.95737
0.00181774	80.4412
0.00205833	64.6172
0.00210845	161.321
0.0022254	53.6284
0.00244593	39.1231
0.00272661	20.6618
0.00290037	9.23339
0.00660268	165.72
0.0110969	170.12
0.0323284	173.656
0.0505326	176.309
0.0702638	178.525
0.0884947	179.421
0.100631	181.19
0.12493	182.97
0.158351	184.759
0.199387	185.675
0.25714	187.046
0.287527	188.392
0.314894	188.417
0.358971	189.336
0.393919	190.686
0.491202	192.093
0.54288	193.019
0.591518	193.942
0.649272	195.313
0.708559	195.806
0.77088	196.742
0.827113	198.111
0.884873	199.042
0.957837	199.988
