Adsorption isotherm of Water on NENU-11
DOI: 10.1021/Ja109659k
Adsorbate Water: InChIKey XLYOFNOQVPJJNP-UHFFFAOYSA-N
Temperature: 298 K
Tabular data in the source: 0
pressure (bar)	uptake (wt%)
0.00175482	0.284264
0.00198125	0.349905
0.00209447	0.422871
0.00226429	0.488525
0.00243411	0.561478
0.00260393	0.627132
0.00277375	0.700085
0.00294357	0.773039
0.00339643	0.948116
0.00356625	1.02107
0.00373608	1.08672
0.0039059	1.15968
0.00407572	1.22533
0.00424554	1.29828
0.00441536	1.36394
0.00458518	1.43689
0.00475501	1.50254
0.00492483	1.5755
0.00503804	1.64846
0.00520786	1.71412
0.00537768	1.78707
0.00554751	1.85273
0.00571733	1.92568
0.00588715	1.99133
0.00605697	2.06429
0.00662304	2.18824
0.00718912	2.19541
0.00775519	2.20258
0.00826465	2.20976
0.00883072	2.22423
0.0093968	2.23139
0.00990626	2.23857
0.0104723	2.24574
0.0110384	2.25291
0.0115479	2.26739
0.0121139	2.27456
0.01268	2.28173
0.0132461	2.28889
0.0137556	2.29607
0.0143216	2.30324
0.0148877	2.31041
0.0154538	2.32488
0.0160198	2.33204
0.0165859	2.33191
0.017152	2.33908
0.0177181	2.33895
0.0182275	2.34613
0.0187936	2.346
0.0193597	2.35317
0.0199257	2.35303
0.0204918	2.3602
0.0210579	2.36007
0.021624	2.36724
0.02219	2.36711
0.0226995	2.37429
0.0232656	2.37416
0.0238316	2.38132
0.0243977	2.38119
0.0249638	2.39566
