Adsorption isotherm of Nitrogen on Starch-FeMnOx/RGO
DOI: 10.1016/j.cej.2017.04.079
Article source: Figure 4
Adsorbate Nitrogen: InChIKey IJGRMHOSHXDMSA-UHFFFAOYSA-N
Kind: experiment
Temperature: 77 K
Tabular data in the source: 0
pressure (bar)	uptake (cm3(STP)/g)
0.001652	10.199
0.001672	20.325
0.003516	29.531
0.005978	36.712
0.029211	42.057
0.047551	44.64
0.070774	47.409
0.093997	50.545
0.114779	52.761
0.120281	53.131
0.150232	55.901
0.153281	56.27
0.179565	59.408
0.200346	61.623
0.20218	61.624
0.230297	64.209
0.249852	66.424
0.275518	68.825
0.302409	71.042
0.303635	71.043
0.353141	75.844
0.356191	75.293
0.404471	79.357
0.422811	83.597
0.454586	83.606
0.468062	95.393
0.478457	102.945
0.494983	115.285
0.502876	88.223
0.546323	118.43
0.55605	93.21
0.590936	121.204
0.604939	96.538
0.644708	123.614
0.655053	102.996
0.694215	127.126
0.708228	109.64
0.742495	131.006
0.757744	117.203
0.794443	134.888
0.803593	125.869
0.84395	141.346
0.856767	135.643
0.898968	149.831
0.908736	146.152
0.944827	164.758
0.964382	168.63
0.977889	196.434
0.990736	203.802
1.0006	251.121
