Adsorption isotherm of Nitrogen on CTAB-FeMnOx/RGO
DOI: 10.1016/j.cej.2017.04.079
Article source: Figure 4
Adsorbate Nitrogen: InChIKey IJGRMHOSHXDMSA-UHFFFAOYSA-N
Kind: experiment
Temperature: 77 K
Tabular data in the source: 0
pressure (bar)	uptake (cm3(STP)/g)
0.017792	2.794
0.04443	4.236
0.073378	5.131
0.098851	7.12
0.101556	5.478
0.126269	6.372
0.145946	8.213
0.151741	6.918
0.175289	7.514
0.196131	9.803
0.202312	7.861
0.226629	8.706
0.245546	10.397
0.252497	9.352
0.277595	9.251
0.297272	11.938
0.304992	10.195
0.348612	12.93
0.350932	11.088
0.400347	12.579
0.401117	14.669
0.451303	13.571
0.461719	17.006
0.499158	20.388
0.503413	15.012
0.546253	22.775
0.554754	17.15
0.600673	25.31
0.604169	18.939
0.651628	27.896
0.653189	21.723
0.700264	30.581
0.704914	24.16
0.752384	27.343
0.753529	34.461
0.802154	39.585
0.804109	32.168
0.853889	37.392
0.858115	47.347
0.899809	46.001
0.918686	64.816
0.940703	59.14
0.96113	72.13
0.963409	85.769
0.985417	87.958
1.00505	107.121
