Adsorption isotherm of As(III) on CMC-FeMnOx/RGO
DOI: 10.1016/j.cej.2017.04.079
Article source: Figure 5
Adsorbate As(III): InChIKey LULLIKNODDLMDQ-UHFFFAOYSA-N
Kind: experiment
Temperature: 298 K
Tabular data in the source: 0
pressure (bar)	uptake (mg/g)
1.01325	0.46
1.01325	3.083
1.01325	6.85
1.01325	11.172
1.01325	26.778
1.01325	37.566
1.01325	42.257
