Adsorption isotherm of As(III) on FeMnOx/RGO
DOI: 10.1016/j.cej.2017.04.079
Article source: Figure 5
Adsorbate As(III): InChIKey LULLIKNODDLMDQ-UHFFFAOYSA-N
Kind: experiment
Temperature: 298 K
Tabular data in the source: 0
pressure (bar)	uptake (mg/g)
1.01325	0.326
1.01325	9.936
1.01325	25.992
1.01325	38.27
1.01325	47.065
