Adsorption isotherm of Arsenate on FeMnOx
DOI: 10.1016/j.cej.2017.04.079
Article source: Figure 5
Adsorbate Arsenate: InChIKey HAYXDMNJJFVXCI-UHFFFAOYSA-N
Kind: experiment
Temperature: 298 K
Tabular data in the source: 0
pressure (bar)	uptake (mg/g)
1.01325	0.356
1.01325	4.427
1.01325	14.061
1.01325	17.722
1.01325	22.056
