Adsorption isotherm of Arsenate on CTAB-FeMnOx/RGO
DOI: 10.1016/j.cej.2017.04.079
Article source: Figure 5
Adsorbate Arsenate: InChIKey HAYXDMNJJFVXCI-UHFFFAOYSA-N
Kind: experiment
Temperature: 298 K
Tabular data in the source: 0
pressure (bar)	uptake (mg/g)
1.01325	7.005
1.01325	0.492
1.01325	17.047
1.01325	30.542
1.01325	38.267
1.01325	40.635
