Adsorption isotherm of Nitrogen on CMC-FeMnOx/RGO
DOI: 10.1016/j.cej.2017.04.079
Article source: Figure 4
Adsorbate Nitrogen: InChIKey IJGRMHOSHXDMSA-UHFFFAOYSA-N
Kind: experiment
Temperature: 77 K
Tabular data in the source: 0
pressure (bar)	uptake (cm3(STP)/g)
0.001449	11.485
0.002229	24.434
0.003779	35.931
0.004945	46.536
0.013091	53.121
0.036719	59.26
0.044086	60.822
0.065779	64.728
0.092133	68.634
0.115377	72.54
0.118477	73.098
0.149472	77.45
0.151802	77.785
0.17311	81.021
0.197519	84.257
0.199069	84.481
0.224248	88.498
0.247502	91.288
0.248272	91.846
0.275396	95.305
0.30174	98.318
0.303685	98.876
0.350172	105.572
0.351338	106.8
0.400155	114.388
0.40209	113.16
0.425344	118.182
0.454403	120.525
0.466805	137.381
0.475722	147.203
0.495875	162.83
0.504386	127.667
0.543912	166.959
0.552423	134.475
0.593895	170.64
0.605506	141.058
0.643877	173.987
0.654719	148.312
0.69386	177.445
0.704306	155.454
0.740732	180.569
0.755839	164.047
0.789164	184.585
0.808537	172.194
0.838762	188.267
0.85852	181.122
0.897266	191.948
0.908888	189.492
0.920124	194.515
0.952284	197.081
0.969327	200.094
0.980948	199.647
0.99103	204.335
1.0042	221.525
