Adsorption isotherm of As(III) on CTAB-FeMnOx/RGO
DOI: 10.1016/j.cej.2017.04.079
Article source: Figure 5
Adsorbate As(III): InChIKey LULLIKNODDLMDQ-UHFFFAOYSA-N
Kind: experiment
Temperature: 298 K
Tabular data in the source: 0
pressure (bar)	uptake (mg/g)
1.01325	5.904
1.01325	13.643
1.01325	35.338
1.01325	55.73
1.01325	60.849
