Adsorption isotherm of Arsenate on FeMnOx/RGO
DOI: 10.1016/j.cej.2017.04.079
Article source: Figure 5
Adsorbate Arsenate: InChIKey HAYXDMNJJFVXCI-UHFFFAOYSA-N
Kind: experiment
Temperature: 298 K
Tabular data in the source: 0
pressure (bar)	uptake (mg/g)
1.01325	0.153
1.01325	9.516
1.01325	30.956
1.01325	38.891
1.01325	49.262
