Adsorption isotherm of Nitrogen on FeMnOx
DOI: 10.1016/j.cej.2017.04.079
Article source: Figure 4
Adsorbate Nitrogen: InChIKey IJGRMHOSHXDMSA-UHFFFAOYSA-N
Kind: experiment
Temperature: 77 K
Tabular data in the source: 0
pressure (bar)	uptake (cm3(STP)/g)
0.002158	12.213
0.003384	18.505
0.003404	31.236
0.003698	25.24
0.004945	36.639
0.009524	40.932
0.026334	45.299
0.037327	47.445
0.043437	49.221
0.064816	51.292
0.073064	52.994
0.088951	55.214
0.098719	56.472
0.113695	61.579
0.114606	58.026
0.120706	58.618
0.148813	65.648
0.151255	61.799
0.17538	64.685
0.194317	70.087
0.200731	67.126
0.225778	69.198
0.248069	74.674
0.251433	71.491
0.280138	73.34
0.297859	78.373
0.302429	75.264
0.348855	81.109
0.357366	78.507
0.399506	83.867
0.406042	80.463
0.447412	86.243
0.45414	83.352
0.49704	87.966
0.504923	84.842
0.549779	90.079
0.554622	86.789
0.600197	92.896
0.605527	89.195
0.649643	95.89
0.653513	91.954
0.701277	98.943
0.704813	95.138
0.747916	102.69
0.755221	98.493
0.799864	107.816
0.803704	103.06
0.846422	113.317
0.855652	108.84
0.902221	115.925
0.904926	123.199
0.954564	133.455
0.958435	143.9
0.970755	154.624
0.983856	161.991
1.00506	196.682
1.00583	196.869
