Adsorption isotherm of Arsenate on CMC-FeMnOx/RGO
DOI: 10.1016/j.cej.2017.04.079
Article source: Figure 5
Adsorbate Arsenate: InChIKey HAYXDMNJJFVXCI-UHFFFAOYSA-N
Kind: experiment
Temperature: 298 K
Tabular data in the source: 0
pressure (bar)	uptake (mg/g)
1.01325	0.288
1.01325	5.444
1.01325	6.664
1.01325	13.644
1.01325	15.808
1.01325	20.409
