Adsorption isotherm of As(III) on Starch-FeMnOx/RGO
DOI: 10.1016/j.cej.2017.04.079
Article source: Figure 5
Adsorbate As(III): InChIKey LULLIKNODDLMDQ-UHFFFAOYSA-N
Kind: experiment
Temperature: 298 K
Tabular data in the source: 0
pressure (bar)	uptake (mg/g)
1.01325	13.731
1.01325	0.568
1.01325	3.236
1.01325	8.308
1.01325	34.166
1.01325	53.574
1.01325	72.572
