Adsorption isotherm of Nitrogen on FeMnOx/RGO
DOI: 10.1016/j.cej.2017.04.079
Article source: Figure 4
Adsorbate Nitrogen: InChIKey IJGRMHOSHXDMSA-UHFFFAOYSA-N
Kind: experiment
Temperature: 77 K
Tabular data in the source: 0
pressure (bar)	uptake (cm3(STP)/g)
0.001459	7.97
0.002087	18.67
0.002097	27.96
0.002128	47.19
0.002422	38.02
0.0046	55.59
0.017569	63.62
0.033609	69.1
0.04286	70.89
0.065374	74.84
0.070926	75.99
0.089742	78.92
0.112266	89.75
0.123979	85.17
0.147729	94.98
0.150809	88.87
0.175177	93.47
0.195847	101.88
0.199849	96.66
0.221127	100.48
0.246428	109.53
0.250734	104.06
0.274484	108.27
0.29793	117.19
0.301628	113.24
0.350051	124.46
0.353749	117.97
0.402485	131.61
0.402789	124.99
0.436418	138.88
0.45182	131.88
0.469744	158.63
0.476542	169.07
0.492592	184.48
0.504558	138.52
0.542858	188.7
0.554835	147.19
0.591899	193.04
0.604493	155.61
0.639703	197.52
0.653533	165.18
0.689047	204.02
0.705664	176.14
0.739931	211.17
0.757785	188.89
0.789276	218.57
0.808375	203.04
0.845723	231.32
0.8562	221.9
0.895705	247
0.907408	240.51
0.934887	268.53
0.96266	281.78
0.963298	300.63
1.00648	336.17
