Adsorption isotherm of Nitrogen on RGO
DOI: 10.1016/j.cej.2017.04.079
Article source: Figure 4
Adsorbate Nitrogen: InChIKey IJGRMHOSHXDMSA-UHFFFAOYSA-N
Kind: experiment
Temperature: 77 K
Tabular data in the source: 0
pressure (bar)	uptake (cm3(STP)/g)
-0.001763	58.34
-0.000598	34.55
0.016039	70.15
0.034997	74.66
0.050874	78.83
0.069832	82.48
0.097321	86.31
0.106997	88.39
0.121314	93.26
0.126735	91.69
0.148408	97.43
0.162735	93.78
0.173181	98.99
0.199505	104.9
0.20222	97.26
0.224663	107.34
0.246347	103.52
0.252142	110.99
0.276531	115.68
0.302469	108.22
0.303625	118.64
0.348916	117.25
0.349301	125.41
0.401948	124.73
0.403488	133.76
0.424787	131.16
0.454586	141.58
0.473543	166.76
0.497141	195.93
0.505683	149.75
0.550174	200.8
0.554835	160
0.598555	206.02
0.605152	169.91
0.647332	211.41
0.655469	180.33
0.696494	218.19
0.705796	191.45
0.748747	224.1
0.758818	207.26
0.797513	232.62
0.806815	222.55
0.850161	243.91
0.859067	236.27
0.902018	256.42
0.909384	251.73
0.931432	268.93
0.947684	282.82
0.961626	275.88
0.975548	308.69
0.98871	308.52
1.00534	351.06
1.00534	350.71
