Adsorption isotherm of Arsenate on Starch-FeMnOx/RGO
DOI: 10.1016/j.cej.2017.04.079
Article source: Figure 5
Adsorbate Arsenate: InChIKey HAYXDMNJJFVXCI-UHFFFAOYSA-N
Kind: experiment
Temperature: 298 K
Tabular data in the source: 0
pressure (bar)	uptake (mg/g)
1.01325	0.223
1.01325	2.431
1.01325	8.301
1.01325	15.572
1.01325	37.797
1.01325	46.854
1.01325	54.835
