Adsorption isotherm of As(III) on FeMnOx
DOI: 10.1016/j.cej.2017.04.079
Article source: Figure 5
Adsorbate As(III): InChIKey LULLIKNODDLMDQ-UHFFFAOYSA-N
Kind: experiment
Temperature: 298 K
Tabular data in the source: 0
pressure (bar)	uptake (mg/g)
1.01325	3.002
1.01325	0.396
1.01325	5.422
1.01325	14.031
1.01325	24.735
1.01325	33.857
