Adsorption isotherm of Methane on NZIF-8
DOI: 10.1021/Jp407792a
Adsorbate Methane: InChIKey VNWKTOKETHGBQD-UHFFFAOYSA-N
Temperature: 195 K
Tabular data in the source: 0
pressure (bar)	uptake (ml/g)
0.0140693	1.26898
0.0971678	9.25489
0.152097	14.4521
0.198576	19.1422
0.271816	26.3676
0.345055	33.5929
0.423928	41.5788
0.499985	48.5507
0.546464	53.3676
0.595759	57.4239
0.676041	64.6493
0.750689	71.1141
0.826745	76.5648
0.876041	80.4943
0.923928	84.2971
0.9859	87.9732
