Adsorption isotherm of Methane on MZIF-8
DOI: 10.1021/Jp407792a
Adsorbate Methane: InChIKey VNWKTOKETHGBQD-UHFFFAOYSA-N
Temperature: 195 K
Tabular data in the source: 0
pressure (bar)	uptake (ml/g)
0.00421011	0.128133
0.0126608	3.04363
0.0450552	5.83236
0.10421	7.86053
0.194351	9.76194
0.297168	11.5366
0.354914	12.1704
0.408435	12.9309
0.497168	13.945
0.599985	15.0859
0.707027	16.3535
0.756323	16.9873
0.849281	17.3676
0.897168	18.0014
