Adsorption isotherm of Carbon Dioxide on NZIF-8
DOI: 10.1021/Jp407792a
Adsorbate Carbon Dioxide: InChIKey CURLTUGMZLYLDI-UHFFFAOYSA-N
Temperature: 195 K
Tabular data in the source: 0
pressure (bar)	uptake (ml/g)
0.00843546	6.48192
0.02252	12.6791
0.0394214	20.8481
0.050689	36.9045
0.0577312	53.2425
0.0929425	96.6228
0.163365	122.257
0.202802	127.89
0.257731	133.242
0.349281	139.158
0.456323	143.665
0.550689	147.327
0.649281	150.989
0.753506	153.524
0.853506	155.778
0.915478	156.341
0.95914	170.426
0.990126	172.679
