Adsorption isotherm of Nitrogen on MZIF-8
DOI: 10.1021/Jp407792a
Adsorbate Nitrogen: InChIKey IJGRMHOSHXDMSA-UHFFFAOYSA-N
Temperature: 77 K
Tabular data in the source: 0
pressure (bar)	uptake (ml/g)
0.015166	95.8918
0.0466292	130.215
0.0981143	134.22
0.195364	137.652
0.288323	138.796
0.391294	139.94
0.492834	141.656
0.590084	142.8
0.695914	145.089
0.745969	145.661
0.791734	147.377
0.847509	150.237
0.900425	156.53
0.95906	193.714
0.993384	241.766
