Adsorption isotherm of Nitrogen on NZIF-8
DOI: 10.1021/Jp407792a
Adsorbate Nitrogen: InChIKey IJGRMHOSHXDMSA-UHFFFAOYSA-N
Temperature: 77 K
Tabular data in the source: 0
pressure (bar)	uptake (ml/g)
0.00515504	117.058
0.0108756	154.814
0.0180263	181.128
0.0223168	196.002
0.0337579	222.316
0.0437689	228.609
0.0938239	232.613
0.15103	236.618
0.241129	238.334
0.342669	240.622
0.448499	244.055
0.548609	244.627
0.637278	246.343
0.740249	248.059
0.797454	247.487
0.896134	254.924
0.95763	303.549
0.990524	360.754
