Adsorption isotherm of Carbon Dioxide on MZIF-8
DOI: 10.1021/Jp407792a
Adsorbate Carbon Dioxide: InChIKey CURLTUGMZLYLDI-UHFFFAOYSA-N
Temperature: 195 K
Tabular data in the source: 0
pressure (bar)	uptake (ml/g)
0.00702701	0.284739
0.0464636	6.76361
0.0929425	18.0312
0.14083	25.9185
0.180266	27.6087
0.239421	29.2988
0.283083	30.989
0.333788	32.3974
0.432379	34.9326
0.535196	36.0594
0.635196	38.5946
0.681675	39.4397
0.729562	40.2847
0.780266	40.5664
0.832379	41.6932
0.884492	42.82
0.929562	43.1016
0.997168	44.7918
