Adsorption isotherm of Carbon Dioxide on CPM-19-Nd
DOI: 10.1021/Ja2118255
Adsorbate Carbon Dioxide: InChIKey CURLTUGMZLYLDI-UHFFFAOYSA-N
Temperature: 273 K
Tabular data in the source: 0
pressure (bar)	uptake (cm3(STP)/g)
0.0125562	0.843373
0.0225905	2.10843
0.0527239	4.21687
0.0652801	5.06024
0.0778363	5.90361
0.0929067	6.74699
0.110491	7.59036
0.125554	8.85542
0.138118	9.27711
0.168259	10.9639
0.198408	12.2289
0.223528	13.494
0.25619	14.759
0.286346	15.6024
0.316495	16.8675
0.346643	18.1325
0.361714	18.9759
0.376792	19.3976
0.391877	19.3976
0.409462	20.241
0.427054	20.6627
0.457203	21.9277
0.469767	22.3494
0.487359	22.7711
0.50243	23.6145
0.517508	24.0361
0.532578	24.8795
0.545149	24.8795
0.562734	25.7229
0.595412	26.1446
0.610482	26.988
0.628082	26.988
0.658238	27.8313
0.690901	29.0964
0.721057	29.9398
0.753728	30.7831
0.783876	32.0482
0.801468	32.4699
0.816546	32.8916
0.84671	33.3133
0.864295	34.1566
0.896973	34.5783
0.912036	35.8434
0.924607	35.8434
0.944713	36.2651
0.974862	37.5301
0.987433	37.5301
1.00754	37.9518
