Adsorption isotherm of Nitrogen on CPM-20
DOI: 10.1021/Ja2118255
Adsorbate Nitrogen: InChIKey IJGRMHOSHXDMSA-UHFFFAOYSA-N
Temperature: 273 K
Tabular data in the source: 0
pressure (bar)	uptake (cm3(STP)/g)
0.0309935	0
0.0691394	0
0.123981	0.773994
0.176425	0
0.226499	0.773994
0.267029	0.773994
0.307559	0.773994
0.345704	0.773994
0.364777	0.773994
0.407699	1.54799
0.445837	0.773994
0.491143	1.54799
0.526897	0.773994
0.548362	1.54799
0.607957	0.773994
0.669952	1.54799
0.710474	0.773994
0.789165	2.32198
0.829688	1.54799
0.851152	2.32198
0.915516	1.54799
0.936973	1.54799
0.956046	1.54799
0.975119	1.54799
0.994192	1.54799
