Adsorption isotherm of Hydrogen on CPM-20
DOI: 10.1021/Ja2118255
Adsorbate Hydrogen: InChIKey UFHFLCQGNIYNRP-UHFFFAOYSA-N
Temperature: 77 K
Tabular data in the source: 0
pressure (bar)	uptake (cm3(STP)/g)
0.00486419	10.0619
0.00732212	17.8019
0.0169619	28.6378
0.038633	51.0836
0.0602303	65.7895
0.0818203	79.7214
0.108164	92.1053
0.129724	102.941
0.153654	112.229
0.175192	120.743
0.19673	129.257
0.225421	137.771
0.242184	145.511
0.268461	150.929
0.289977	157.121
0.3115	164.087
0.337777	169.505
0.359278	174.149
0.38078	178.793
0.404673	184.211
0.428565	189.628
0.450059	193.498
0.473937	197.368
0.495431	201.238
0.516933	205.882
0.540804	208.978
0.700753	231.424
0.748487	236.842
0.79383	241.486
0.841557	246.13
0.863036	248.452
0.908371	252.322
0.932234	254.644
0.951322	256.192
0.975185	258.514
1.01814	262.384
