Adsorption isotherm of Nitrogen on CPM-19-Nd
DOI: 10.1021/Ja2118255
Adsorbate Nitrogen: InChIKey IJGRMHOSHXDMSA-UHFFFAOYSA-N
Temperature: 77 K
Tabular data in the source: 0
pressure (bar)	uptake (cm3(STP)/g)
0.00189327	34.5783
0.00432424	39.2169
0.00677792	42.5904
0.0116853	49.3373
0.0117459	45.9639
0.0191599	53.1325
0.0241127	57.3494
0.0341092	60.7229
0.0491342	64.0964
0.0666811	67.0482
0.0892641	69.5783
0.101805	71.2651
0.121889	72.9518
0.162057	76.3253
0.182148	77.5904
0.202224	79.6988
0.242407	82.2289
0.259992	83.0723
0.280076	84.759
0.300167	86.0241
0.320251	87.7108
0.362956	89.8193
0.38304	91.506
0.405638	93.1928
0.440792	95.7229
0.463398	96.988
0.503581	99.5181
0.523672	100.783
0.54627	102.47
0.563847	103.735
0.60403	106.265
0.644221	108.373
0.686918	110.904
0.724586	113.434
0.762255	115.964
0.807459	118.916
0.847642	121.446
0.867733	122.711
0.907901	126.084
0.930491	128.193
0.963093	132.831
0.973128	134.096
0.993174	137.892
