Adsorption isotherm of Nitrogen on CPM-20
DOI: 10.1021/Ja2118255
Adsorbate Nitrogen: InChIKey IJGRMHOSHXDMSA-UHFFFAOYSA-N
Temperature: 77 K
Tabular data in the source: 0
pressure (bar)	uptake (cm3(STP)/g)
0.00238412	0.00238412
0.00715235	240.712
0.0119206	248.452
0.0286094	253.87
0.0476824	254.644
0.0739076	256.966
0.0905965	257.74
0.112054	258.514
0.123974	259.288
0.145431	259.288
0.183577	260.836
0.226491	260.836
0.245564	260.836
0.307551	262.384
0.345697	262.384
0.429141	263.158
0.469671	263.932
0.491128	263.932
0.531658	263.158
0.550731	263.932
0.612718	264.706
0.634175	264.706
0.674705	263.932
0.693778	264.706
0.731924	264.706
0.753381	264.706
0.796295	264.706
0.812984	264.706
0.858282	266.254
0.877355	266.254
0.917885	266.254
0.939342	266.254
0.956031	266.254
0.979872	266.254
1.01087	267.802
