Adsorption isotherm of Hydrogen on CPM-19-Nd
DOI: 10.1021/Ja2118255
Adsorbate Hydrogen: InChIKey UFHFLCQGNIYNRP-UHFFFAOYSA-N
Temperature: 77 K
Tabular data in the source: 0
pressure (bar)	uptake (cm3(STP)/g)
0.00492251	5.90361
0.0148811	11.3855
0.0348287	20.6627
0.0598578	26.988
0.0798659	32.8916
0.102411	37.5301
0.127478	41.747
0.150023	46.3855
0.172598	49.3373
0.197673	53.1325
0.220248	56.0843
0.242816	59.4578
0.265399	61.988
0.287975	64.9398
0.313072	67.4699
0.355716	72.9518
0.400882	78.012
0.423472	80.1205
0.443541	82.6506
0.468646	84.759
0.493743	87.2892
0.513827	88.9759
0.559001	93.6145
0.606696	97.8313
0.626772	99.9398
0.651877	102.048
0.674475	103.735
0.694544	106.265
0.744769	109.639
0.789942	114.277
0.835138	117.651
0.857736	119.337
0.902918	123.554
0.925523	124.819
0.950628	126.928
0.970704	129.036
1.01087	132.41
