Adsorption isotherm of Carbon Dioxide on CPM-20
DOI: 10.1021/Ja2118255
Adsorbate Carbon Dioxide: InChIKey CURLTUGMZLYLDI-UHFFFAOYSA-N
Temperature: 273 K
Tabular data in the source: 0
pressure (bar)	uptake (cm3(STP)/g)
0.00967303	1.75159
0.0386921	6.12919
0.065293	9.33788
0.0894755	13.1321
0.120913	16.6318
0.147514	20.1329
0.178951	23.925
0.193461	25.0904
0.22248	28.2984
0.251499	31.214
0.280518	34.422
0.309537	37.3376
0.340974	40.2525
0.372412	42.875
0.386921	44.3328
0.401431	45.4982
0.435286	48.7048
0.461887	51.0363
0.498161	53.6574
0.52718	56.2806
0.556199	59.1962
0.590055	61.5256
0.621492	63.8557
0.65293	66.1859
0.684367	68.8084
0.718223	70.8454
0.73515	72.3025
0.752078	73.4672
0.769006	74.3395
0.800443	76.3772
0.831881	78.9997
0.865736	81.0367
0.899592	83.3661
0.933447	85.6955
0.952794	86.8596
0.984231	88.8973
1.01809	90.9343
