Adsorption isotherm of Carbon Dioxide on CPM-20
DOI: 10.1021/Ja2118255
Adsorbate Carbon Dioxide: InChIKey CURLTUGMZLYLDI-UHFFFAOYSA-N
Temperature: 298 K
Tabular data in the source: 0
pressure (bar)	uptake (cm3(STP)/g)
0.0217643	1.45571
0.0459469	2.91072
0.0677112	4.07403
0.0943121	5.52834
0.118495	7.27575
0.142677	8.43836
0.16686	9.89337
0.191042	11.056
0.215225	12.2186
0.236989	13.6743
0.261172	15.1293
0.287773	16.2912
0.311955	17.4538
0.336138	18.6164
0.36032	19.7791
0.384503	21.2341
0.408686	22.1043
0.454632	24.4302
0.483652	25.5914
0.505416	26.7547
0.532017	27.9166
0.553781	28.7876
0.577964	29.9502
0.602146	31.1128
0.65293	33.1449
0.677112	34.0151
0.727896	36.0473
0.754496	37.2092
0.776261	38.0801
0.856063	41.2734
0.882664	42.1429
0.906847	43.3056
0.933447	44.1751
0.960048	45.337
0.986649	46.4989
1.01083	47.3691
