Adsorption isotherm of Carbon Dioxide on Cu-TDPAT
DOI: 10.1021/La302537d
Adsorbate Carbon Dioxide: InChIKey CURLTUGMZLYLDI-UHFFFAOYSA-N
Temperature: 298 K
Tabular data in the source: 0
pressure (bar)	uptake (mmol/g)
0.0970818	1.02484
0.19954	1.52174
0.319028	2.01863
0.404369	2.36025
0.509613	2.76398
0.717236	3.52484
0.808227	3.81988
1.01012	4.48758
