Adsorption isotherm of Carbon Dioxide on Cu-TDPAT
DOI: 10.1021/La302537d
Adsorbate Carbon Dioxide: InChIKey CURLTUGMZLYLDI-UHFFFAOYSA-N
Temperature: 298 K
Tabular data in the source: 0
pressure (bar)	uptake (mmol/g)
0.0562917	0.289389
0.103201	0.418006
0.153238	0.643087
0.206403	0.707395
0.306477	0.932476
0.406551	1.09325
0.506625	1.25402
0.59419	1.38264
0.659863	1.51125
0.7099	1.60772
0.809975	1.76849
0.913176	1.89711
1.007	2.05788
