Adsorption isotherm of Nitrogen on Cu-TDPAT
DOI: 10.1021/La302537d
Adsorbate Nitrogen: InChIKey IJGRMHOSHXDMSA-UHFFFAOYSA-N
Temperature: 298 K
Tabular data in the source: 0
pressure (bar)	uptake (mmol/g)
0.103628	0.01
0.204377	0.04
0.302248	0.06
0.405876	0.07
0.506625	0.09
0.639038	0.11
0.711002	0.12
0.811751	0.15
0.863565	0.15
0.926893	0.16
1.01325	0.18
