Adsorption isotherm of Carbon Dioxide on Cu-TDPAT
DOI: 10.1021/La302537d
Adsorbate Carbon Dioxide: InChIKey CURLTUGMZLYLDI-UHFFFAOYSA-N
Temperature: 298 K
Tabular data in the source: 0
pressure (bar)	uptake (mmol/g)
0.102713	0.927114
0.205426	1.46939
0.305363	2.13411
0.366436	2.46647
0.408076	2.71137
0.460821	2.99125
0.505237	3.21866
0.569086	3.49854
0.646814	3.8484
0.710663	4.16327
0.766184	4.39067
0.8106	4.60058
0.863345	4.793
0.927193	5.0379
0.974386	5.23032
1.01325	5.40525
