Adsorption isotherm of Nitrogen on Cu-TDPAT
DOI: 10.1021/La302537d
Adsorbate Nitrogen: InChIKey IJGRMHOSHXDMSA-UHFFFAOYSA-N
Temperature: 298 K
Tabular data in the source: 0
pressure (bar)	uptake (mmol/g)
0.103279	0.0103245
0.307045	0.020649
0.410324	0.020649
0.510812	0.020649
0.6113	0.020649
0.711787	0.0309735
0.812275	0.0309735
0.912762	0.0412979
1.00767	0.0412979
