Adsorption isotherm of Nitrogen on Cu-TDPAT
DOI: 10.1021/La302537d
Adsorbate Nitrogen: InChIKey IJGRMHOSHXDMSA-UHFFFAOYSA-N
Temperature: 298 K
Tabular data in the source: 0
pressure (bar)	uptake (mmol/g)
0.103904	0.038961
0.199158	0.0584416
0.303062	0.0974026
0.363675	0.116883
0.401193	0.136364
0.461805	0.155844
0.499333	0.155844
0.554163	0.194805
0.609002	0.214286
0.695595	0.233766
0.764858	0.272727
0.796603	0.292208
0.874536	0.311688
0.955356	0.331169
0.992874	0.350649
