Adsorption isotherm of Nitrogen on Cu-TDPAT
DOI: 10.1021/La302537d
Adsorbate Nitrogen: InChIKey IJGRMHOSHXDMSA-UHFFFAOYSA-N
Temperature: 298 K
Tabular data in the source: 0
pressure (bar)	uptake (mmol/g)
0.103628	0.02
0.201499	0.03
0.322398	0.06
0.405876	0.08
0.512382	0.09
0.722516	0.14
0.805994	0.15
1.01037	0.19
