Adsorption isotherm of Water on Cu-TDPAT
DOI: 10.1021/La302537d
Adsorbate Water: InChIKey XLYOFNOQVPJJNP-UHFFFAOYSA-N
Temperature: 298 K
Tabular data in the source: 0
pressure (bar)	uptake (mmol/g)
0.0156366	0.0643087
0.0531644	0.192926
0.103201	0.418006
0.156366	0.73955
0.206403	0.996785
0.306477	1.57556
0.409678	2.1865
0.506625	2.86174
0.659863	3.85852
0.7099	4.24437
0.809975	4.98392
0.913176	5.72347
1.007	6.39871
