Adsorption isotherm of Methane on Cu-TDPAT
DOI: 10.1021/La302537d
Adsorbate Methane: InChIKey VNWKTOKETHGBQD-UHFFFAOYSA-N
Temperature: 298 K
Tabular data in the source: 0
pressure (bar)	uptake (mmol/g)
0.103867	0.116883
0.129829	0.155844
0.161574	0.175325
0.259667	0.292208
0.326025	0.37013
0.409694	0.467532
0.513551	0.603896
0.571258	0.662338
0.64339	0.74026
0.724181	0.818182
0.810746	0.896104
0.905962	0.993506
1.00983	1.11039
