Adsorption isotherm of Nitrogen on Cu-TDPAT
DOI: 10.1021/La302537d
Adsorbate Nitrogen: InChIKey IJGRMHOSHXDMSA-UHFFFAOYSA-N
Temperature: 298 K
Tabular data in the source: 0
pressure (bar)	uptake (mmol/g)
0.102713	0.0174927
0.322019	0.0349854
0.402524	0.0349854
0.508013	0.0349854
0.716215	0.0524781
0.805048	0.0524781
1.00492	0.0524781
