Adsorption isotherm of Carbon Dioxide on Cu-TDPAT
DOI: 10.1021/La302537d
Adsorbate Carbon Dioxide: InChIKey CURLTUGMZLYLDI-UHFFFAOYSA-N
Temperature: 298 K
Tabular data in the source: 0
pressure (bar)	uptake (mmol/g)
0.0998565	0.334018
0.152722	0.438547
0.205587	0.529187
0.305443	0.682649
0.4053	0.808333
0.505157	0.913184
0.60795	1.01111
0.710743	1.09515
0.8106	1.17222
0.910457	1.24235
1.01031	1.29859
