Adsorption isotherm of Methane on Cu-TDPAT
DOI: 10.1021/La302537d
Adsorbate Methane: InChIKey VNWKTOKETHGBQD-UHFFFAOYSA-N
Temperature: 298 K
Tabular data in the source: 0
pressure (bar)	uptake (mmol/g)
0.0936794	0.0310559
0.198712	0.0621118
0.317926	0.0776398
0.403082	0.0931677
0.502438	0.124224
0.715341	0.186335
0.806182	0.217391
1.01056	0.263975
