Adsorption isotherm of Nitrogen on Cu-TDPAT
DOI: 10.1021/La302537d
Adsorbate Nitrogen: InChIKey IJGRMHOSHXDMSA-UHFFFAOYSA-N
Temperature: 298 K
Tabular data in the source: 0
pressure (bar)	uptake (mmol/g)
0.0998565	0.00068438
0.152722	0.0010467
0.205587	0.00140902
0.302507	0.00901771
0.4053	0.00277778
0.508093	0.00348229
0.60795	0.00416667
0.71368	0.0118357
0.813537	0.0125201
0.910457	0.0131844
1.01031	0.0138688
