Adsorption isotherm of Carbon Dioxide on Cu-TDPAT
DOI: 10.1021/La302537d
Adsorbate Carbon Dioxide: InChIKey CURLTUGMZLYLDI-UHFFFAOYSA-N
Temperature: 298 K
Tabular data in the source: 0
pressure (bar)	uptake (mmol/g)
0.10053	1.05195
0.158022	1.55844
0.201154	1.90909
0.244315	2.2013
0.278843	2.43506
0.298976	2.59091
0.34791	2.88312
0.376684	3.07792
0.399703	3.23377
0.431382	3.38961
0.468816	3.58442
0.49759	3.77922
0.552307	4.05195
0.609901	4.34416
0.661741	4.5974
0.696288	4.79221
0.751015	5.04545
0.794232	5.22078
0.834562	5.3961
0.874892	5.57143
0.923854	5.80519
0.946911	5.88312
0.969949	6
0.9901	6.11688
