Adsorption isotherm of Carbon Dioxide on Cu-TDPAT
DOI: 10.1021/La302537d
Adsorbate Carbon Dioxide: InChIKey CURLTUGMZLYLDI-UHFFFAOYSA-N
Temperature: 298 K
Tabular data in the source: 0
pressure (bar)	uptake (mmol/g)
0.0970465	0.962733
0.199558	1.5528
0.302016	2.04969
0.40444	2.48447
0.506819	2.84161
0.711577	3.5559
0.813939	3.88199
1.01583	4.54969
