Adsorption isotherm of Carbon Dioxide on Cu-TDPAT
DOI: 10.1021/La302537d
Adsorbate Carbon Dioxide: InChIKey CURLTUGMZLYLDI-UHFFFAOYSA-N
Temperature: 298 K
Tabular data in the source: 0
pressure (bar)	uptake (mmol/g)
0.099937	0.979592
0.20265	1.53936
0.319243	2.13411
0.4053	2.50146
0.508013	2.97376
0.716215	3.90087
0.805048	4.25073
1.00492	5.09038
