Adsorption isotherm of Nitrogen on Cu-TDPAT
DOI: 10.1021/La302537d
Adsorbate Nitrogen: InChIKey IJGRMHOSHXDMSA-UHFFFAOYSA-N
Temperature: 298 K
Tabular data in the source: 0
pressure (bar)	uptake (mmol/g)
0.102713	0.0174927
0.205426	0.0174927
0.302587	0.0174927
0.408076	0.0174927
0.508013	0.0174927
0.616278	0.0349854
0.710663	0.0524781
0.774512	0.0524781
0.8106	0.0524781
0.880001	0.0524781
0.954953	0.0699708
1.01325	0.0699708
