Adsorption isotherm of Nitrogen on Cu-TDPAT
DOI: 10.1021/La302537d
Adsorbate Nitrogen: InChIKey IJGRMHOSHXDMSA-UHFFFAOYSA-N
Temperature: 298 K
Tabular data in the source: 0
pressure (bar)	uptake (mmol/g)
0.0625463	0.0321543
0.106329	0.0321543
0.156366	0.0321543
0.206403	0.0321543
0.306477	0.0321543
0.406551	0.0643087
0.506625	0.0643087
0.659863	0.0643087
0.7099	0.0643087
0.813102	0.0643087
0.910049	0.096463
1.007	0.0643087
