Adsorption isotherm of Methane on Cu-TDPAT
DOI: 10.1021/La302537d
Adsorbate Methane: InChIKey VNWKTOKETHGBQD-UHFFFAOYSA-N
Temperature: 298 K
Tabular data in the source: 0
pressure (bar)	uptake (mmol/g)
0.10778	0.0892808
0.157328	0.121236
0.206875	0.153191
0.265126	0.204188
0.305932	0.229759
0.364202	0.274427
0.40499	0.306327
0.46326	0.350995
0.509868	0.389261
0.568139	0.433929
0.64391	0.485035
0.71094	0.529757
0.77213	0.574443
0.809979	0.612654
0.865329	0.657304
0.923618	0.695643
0.976048	0.740274
1.01393	0.765827
