Adsorption isotherm of Nitrogen on Cu-TDPAT
DOI: 10.1021/La302537d
Adsorbate Nitrogen: InChIKey IJGRMHOSHXDMSA-UHFFFAOYSA-N
Temperature: 298 K
Tabular data in the source: 0
pressure (bar)	uptake (mmol/g)
0.106791	0.038961
0.129894	0.0194805
0.167404	0.0584416
0.210705	0.0584416
0.25977	0.0779221
0.326147	0.116883
0.406966	0.136364
0.513758	0.175325
0.57437	0.194805
0.643633	0.233766
0.718679	0.253247
0.808159	0.272727
0.906281	0.331169
1.01019	0.37013
