Adsorption isotherm of Carbon Dioxide on Cu-TDPAT
DOI: 10.1021/La302537d
Adsorbate Carbon Dioxide: InChIKey CURLTUGMZLYLDI-UHFFFAOYSA-N
Temperature: 298 K
Tabular data in the source: 0
pressure (bar)	uptake (mmol/g)
0.100887	0.332278
0.198802	0.664557
0.293756	0.974684
0.394661	1.26266
0.495557	1.57278
0.691445	2.10443
0.79236	2.37025
0.994209	2.85759
