Adsorption isotherm of Water on Cu-TDPAT
DOI: 10.1021/La302537d
Adsorbate Water: InChIKey XLYOFNOQVPJJNP-UHFFFAOYSA-N
Temperature: 298 K
Tabular data in the source: 0
pressure (bar)	uptake (wt%)
0.00148929	4.06989
0.00195027	5.1876
0.00230486	5.99555
0.00262399	6.86867
0.00283675	7.48818
0.00329772	8.32518
0.00361686	9.08602
0.00393599	9.84687
0.00418421	10.2889
0.00475156	10.9866
0.00521253	11.599
0.00556712	12.0701
0.00599263	12.5793
0.00652452	13.0614
0.00691458	13.5796
0.00755285	13.9224
0.00804928	14.3012
0.00829749	14.5187
0.00879392	14.8414
0.00932581	15.1551
0.00968041	15.4578
0.0103187	15.8567
0.0107442	16.0852
0.0110633	16.1723
0.011347	16.3808
0.0119498	16.6203
0.0124108	16.8397
0.0127299	16.983
0.0132618	17.1844
0.0136519	17.4219
