Adsorption isotherm of Methane on Cu-TDPAT
DOI: 10.1021/La302537d
Adsorbate Methane: InChIKey VNWKTOKETHGBQD-UHFFFAOYSA-N
Temperature: 298 K
Tabular data in the source: 0
pressure (bar)	uptake (mmol/g)
0.102185	0.015528
0.201532	0.0310559
0.300906	0.0931677
0.363347	0.0931677
0.400262	0.124224
0.465559	0.15528
0.499609	0.139752
0.630185	0.170807
0.712503	0.186335
0.803344	0.217391
0.811868	0.232919
0.862965	0.248447
0.93392	0.248447
1.01625	0.279503
