Adsorption isotherm of Nitrogen on Cu-TDPAT
DOI: 10.1021/La302537d
Adsorbate Nitrogen: InChIKey IJGRMHOSHXDMSA-UHFFFAOYSA-N
Temperature: 298 K
Tabular data in the source: 0
pressure (bar)	uptake (mmol/g)
0.100877	0.0188103
0.201755	0.0376206
0.296319	0.0564309
0.400363	0.0737942
0.494968	0.0868167
0.589563	0.101286
0.696753	0.120096
0.797641	0.13746
0.908008	0.153376
0.99632	0.163505
