Adsorption isotherm of Carbon Dioxide on Cu-TDPAT
DOI: 10.1021/La302537d
Adsorbate Carbon Dioxide: InChIKey CURLTUGMZLYLDI-UHFFFAOYSA-N
Temperature: 298 K
Tabular data in the source: 0
pressure (bar)	uptake (mmol/g)
0.10085	0.462655
0.155941	0.595911
0.205211	0.722801
0.303825	0.951265
0.405489	1.13544
0.504287	1.30062
0.579874	1.41501
0.652578	1.51673
0.704897	1.59934
0.803751	1.74553
0.905673	1.8411
1.00754	1.95566
