Adsorption isotherm of Methane on Cu-TDPAT
DOI: 10.1021/La302537d
Adsorbate Methane: InChIKey VNWKTOKETHGBQD-UHFFFAOYSA-N
Temperature: 298 K
Tabular data in the source: 0
pressure (bar)	uptake (mmol/g)
0.10098	0.116883
0.20196	0.233766
0.300054	0.350649
0.398147	0.467532
0.502014	0.584416
0.698219	0.779221
0.796322	0.876623
0.995414	1.07143
