Adsorption isotherm of Carbon Dioxide on Cu-TDPAT
DOI: 10.1021/La302537d
Adsorbate Carbon Dioxide: InChIKey CURLTUGMZLYLDI-UHFFFAOYSA-N
Temperature: 298 K
Tabular data in the source: 0
pressure (bar)	uptake (mmol/g)
0.103258	1.38312
0.126267	1.55844
0.160796	1.79221
0.203985	2.02597
0.258683	2.33766
0.32491	2.68831
0.40841	3.13636
0.509202	3.64286
0.569665	3.97403
0.641665	4.32468
0.713656	4.69481
0.802967	5.06494
0.900929	5.45455
1.00752	5.9026
