Adsorption isotherm of Methane on Cu-TDPAT
DOI: 10.1021/La302537d
Adsorbate Methane: InChIKey VNWKTOKETHGBQD-UHFFFAOYSA-N
Temperature: 298 K
Tabular data in the source: 0
pressure (bar)	uptake (mmol/g)
0.101977	0.0765864
0.206875	0.153191
0.323433	0.236197
0.405008	0.299998
0.506948	0.389243
0.710922	0.536086
0.807096	0.599978
1.01105	0.753151
