Adsorption isotherm of Methane on Cu-TDPAT
DOI: 10.1021/La302537d
Adsorbate Methane: InChIKey VNWKTOKETHGBQD-UHFFFAOYSA-N
Temperature: 298 K
Tabular data in the source: 0
pressure (bar)	uptake (mmol/g)
0.103279	0.020649
0.153523	0.020649
0.206558	0.0309735
0.242845	0.0309735
0.304254	0.0412979
0.357289	0.0619469
0.407533	0.0722714
0.454986	0.0722714
0.505229	0.0722714
0.547099	0.0929204
0.614091	0.0929204
0.650378	0.103245
0.711787	0.113569
0.750866	0.134218
0.815066	0.134218
0.86531	0.144543
0.912762	0.144543
0.963006	0.154867
1.01046	0.154867
