Adsorption isotherm of Carbon Dioxide on Cu-TDPAT
DOI: 10.1021/La302537d
Adsorbate Carbon Dioxide: InChIKey CURLTUGMZLYLDI-UHFFFAOYSA-N
Temperature: 298 K
Tabular data in the source: 0
pressure (bar)	uptake (mmol/g)
0.100749	0.49
0.152563	0.67
0.204377	0.86
0.256191	1.04
0.302248	1.2
0.365576	1.4
0.405876	1.54
0.460568	1.7
0.509504	1.86
0.581467	2.04
0.653431	2.22
0.711002	2.37
0.762816	2.5
0.811751	2.62
0.866444	2.75
0.921136	2.88
0.975829	3.01
1.01325	3.1
