Adsorption isotherm of Water on Cu-TDPAT
DOI: 10.1021/La302537d
Adsorbate Water: InChIKey XLYOFNOQVPJJNP-UHFFFAOYSA-N
Temperature: 298 K
Tabular data in the source: 0
pressure (bar)	uptake (wt%)
0.00148929	4.06989
0.00283675	7.43204
0.00425512	10.2709
0.00560258	12.1172
0.00695004	13.5706
0.00833295	14.5658
0.00964495	15.4107
0.0110279	16.2375
0.0124108	16.8397
0.0136519	17.4219
