Adsorption isotherm of Carbon Dioxide on Cu-TDPAT
DOI: 10.1021/La302537d
Adsorbate Carbon Dioxide: InChIKey CURLTUGMZLYLDI-UHFFFAOYSA-N
Temperature: 298 K
Tabular data in the source: 0
pressure (bar)	uptake (mmol/g)
0.100595	1.01899
0.198276	1.90506
0.299003	2.61392
0.393777	3.34494
0.491561	3.98734
0.693165	5.05063
0.791024	5.51582
0.986818	6.26899
