Adsorption isotherm of Methane on Cu-TDPAT
DOI: 10.1021/La302537d
Adsorbate Methane: InChIKey VNWKTOKETHGBQD-UHFFFAOYSA-N
Temperature: 298 K
Tabular data in the source: 0
pressure (bar)	uptake (mmol/g)
0.0998565	0.0909622
0.152722	0.126047
0.20265	0.168056
0.305443	0.252093
0.4053	0.336111
0.505157	0.420129
0.60795	0.504167
0.707807	0.588184
0.8106	0.672222
0.913393	0.75626
1.00738	0.826349
