Adsorption isotherm of Carbon Dioxide on Cu-TDPAT
DOI: 10.1021/La302537d
Adsorbate Carbon Dioxide: InChIKey CURLTUGMZLYLDI-UHFFFAOYSA-N
Temperature: 298 K
Tabular data in the source: 0
pressure (bar)	uptake (mmol/g)
0.103279	0.547198
0.156314	0.743363
0.206558	0.918879
0.259593	1.07375
0.307045	1.20796
0.362872	1.36283
0.407533	1.4764
0.46336	1.62094
0.508021	1.72419
0.561056	1.85841
0.608508	1.97198
0.664335	2.09587
0.711787	2.21976
0.764822	2.32301
0.812275	2.43658
0.856936	2.5295
0.909971	2.65339
0.963006	2.75664
1.00767	2.85988
