Adsorption isotherm of Carbon Dioxide on Cu-TDPAT
DOI: 10.1021/La302537d
Adsorbate Carbon Dioxide: InChIKey CURLTUGMZLYLDI-UHFFFAOYSA-N
Temperature: 298 K
Tabular data in the source: 0
pressure (bar)	uptake (mmol/g)
0.103659	0.500647
0.205064	0.773433
0.318259	1.00832
0.402513	1.15441
0.507133	1.32595
0.71654	1.61207
0.800923	1.71386
1.00469	1.93033
