Adsorption isotherm of Carbon Dioxide on Cu-TDPAT
DOI: 10.1021/La302537d
Adsorbate Carbon Dioxide: InChIKey CURLTUGMZLYLDI-UHFFFAOYSA-N
Temperature: 298 K
Tabular data in the source: 0
pressure (bar)	uptake (mmol/g)
0.103628	0.55
0.204377	0.92
0.322398	1.28
0.405876	1.49
0.509504	1.75
0.719638	2.25
0.803116	2.45
1.00749	2.9
