Adsorption isotherm of Nitrogen on Cu-TDPAT
DOI: 10.1021/La302537d
Adsorbate Nitrogen: InChIKey IJGRMHOSHXDMSA-UHFFFAOYSA-N
Temperature: 298 K
Tabular data in the source: 0
pressure (bar)	uptake (mmol/g)
0.100745	0.0376206
0.20146	0.079582
0.295852	0.12299
0.396557	0.166399
0.494126	0.206913
0.597997	0.248875
0.695556	0.290836
0.793114	0.332797
0.893849	0.371865
0.991408	0.413826
