Adsorption isotherm of Carbon Dioxide on Durain D
DOI: 10.1007/s10450-019-00122-5
Article source: Figures 3, 4
Adsorbate Carbon Dioxide: InChIKey CURLTUGMZLYLDI-UHFFFAOYSA-N
Kind: experiment
Temperature: 298 K
Tabular data in the source: 0
pressure (bar)	uptake (cm3(STP)/g)
0.012737	0.621118
0.012963	0.611791
0.031508	1.39752
0.032408	1.50167
0.061005	2.48447
0.061215	2.44716
0.088491	3.20911
0.089302	3.198
0.101898	3.59731
0.102985	3.58732
0.12201	4.03727
0.12315	4.08787
0.143462	4.52899
0.144035	4.50501
0.16348	4.92214
0.164914	4.94306
0.184355	5.2795
0.185085	5.28365
0.20525	5.58954
0.205808	5.64182
0.251341	6.28476
0.251394	6.3147
0.308376	7.06522
0.309675	7.03559
0.355046	7.61958
0.355303	7.66046
0.405458	8.17575
0.405582	8.22981
0.457311	8.67631
0.457871	8.74741
0.506139	9.21325
0.506283	9.12125
0.557088	9.65321
0.557415	9.59399
0.609268	9.98332
0.610048	10.0673
0.656799	10.4283
0.657645	10.4555
0.710606	10.8178
0.710813	10.7341
0.758344	11.1235
0.758873	11.1801
0.811637	11.485
0.811834	11.5424
0.828921	11.5962
0.829934	11.646
0.861442	11.8789
0.862049	11.7631
0.885576	12.06
0.886535	11.9577
0.91038	12.2153
0.911741	12.1246
0.936947	12.3192
0.937195	12.3706
0.96267	12.5
0.962874	12.4305
0.985463	12.6294
0.007922	0.83426
0.050412	2.58621
0.104425	4.22692
0.202369	6.11791
0.252061	6.61846
0.305354	7.3693
0.355046	8.0089
0.405458	8.50945
0.458031	9.06563
0.504122	9.51057
0.558136	9.95551
0.607107	10.4004
0.65896	10.762
0.709372	11.1235
0.761225	11.4572
0.812357	11.7909
0.833242	11.9021
0.859889	12.0412
0.868531	12.1246
0.894457	12.2358
0.921104	12.3749
0.985199	12.6251
