Adsorption isotherm of Carbon Dioxide on Vitrain V
DOI: 10.1007/s10450-019-00122-5
Article source: Figures 3, 4
Adsorbate Carbon Dioxide: InChIKey CURLTUGMZLYLDI-UHFFFAOYSA-N
Kind: experiment
Temperature: 298 K
Tabular data in the source: 0
pressure (bar)	uptake (cm3(STP)/g)
0.011523	0.695217
0.012737	0.672878
0.032408	1.97442
0.032849	2.04451
0.069137	3.78198
0.06972	3.75259
0.087141	4.50501
0.088491	4.60663
0.102265	5.1168
0.103239	5.1501
0.12315	5.89544
0.124021	5.9265
0.143315	6.53504
0.144132	6.52174
0.16348	7.11902
0.163573	7.14286
0.183685	7.71221
0.184365	7.73081
0.20525	8.17575
0.205808	8.22981
0.250621	9.23248
0.251394	9.29089
0.309675	10.4561
0.310387	10.4814
0.354326	11.2903
0.355973	11.3095
0.406899	12.1524
0.408263	12.1636
0.455871	12.9588
0.457201	12.94
0.507723	13.6263
0.508821	13.6128
0.555975	14.2659
0.557088	14.2598
0.608548	14.9055
0.609378	14.9327
0.65968	15.4616
0.660327	15.528
0.706492	16.0734
0.707254	16.1491
0.766266	16.6574
0.766918	16.6667
0.809477	17.4638
0.810493	17.4689
0.836123	17.9366
0.837308	18.0124
0.86349	18.2147
0.864123	18.323
0.882214	18.5206
0.883564	18.6335
0.913902	18.7709
0.915072	18.8406
0.931906	19.1602
0.933173	19.1511
0.963594	19.3826
0.964681	19.4617
0.984122	19.5911
0.009362	3.72636
0.048972	6.25695
0.104425	8.03671
0.203089	10.7898
0.254942	11.9299
0.304634	12.931
0.355046	13.6819
0.403298	14.3771
0.457311	15.2392
0.505563	15.9066
0.561016	16.5184
0.607828	17.0189
0.655359	17.3526
0.705051	17.7697
0.746821	18.1869
0.809477	18.604
0.836843	18.7709
0.861329	18.9933
0.867811	19.0489
0.893737	19.1324
0.921824	19.2992
0.983039	19.6329
