Adsorption isotherm of Carbon Dioxide on Bituminous Coal
DOI: 10.1007/s10450-019-00122-5
Article source: Figures 3, 4
Adsorbate Carbon Dioxide: InChIKey CURLTUGMZLYLDI-UHFFFAOYSA-N
Kind: experiment
Temperature: 298 K
Tabular data in the source: 0
pressure (bar)	uptake (cm3(STP)/g)
0.010082	0.695217
0.011397	0.698758
0.031508	1.83747
0.031688	1.83537
0.060334	3.07971
0.060495	3.08676
0.08282	3.94883
0.084468	3.88199
0.101228	4.55486
0.103705	4.56062
0.12335	5.17598
0.12387	5.17241
0.144035	5.70078
0.144803	5.71946
0.164244	6.1853
0.16492	6.20133
0.185085	6.61846
0.185696	6.59938
0.204467	7.0911
0.20453	7.03559
0.260109	7.53106
0.260703	7.50834
0.306074	8.70412
0.307035	8.72153
0.373771	9.67742
0.374074	9.70497
0.410274	10.4296
0.4105	10.4004
0.465916	11.2319
0.465953	11.1791
0.503457	11.7495
0.504843	11.7353
0.568218	12.1246
0.568485	12.1118
0.620071	12.5417
0.620104	12.5259
0.656079	13.2091
0.656305	13.1729
0.715134	13.9043
0.715298	13.8975
0.754743	14.2937
0.756192	14.2857
0.811163	14.7257
0.811637	14.7386
0.827923	14.9327
0.828201	14.9055
0.862769	15.1557
0.863453	15.1915
0.885095	15.3782
0.885576	15.3986
0.912462	15.6007
0.913732	15.6573
0.937865	15.8385
0.938388	15.7953
0.959988	16.0197
0.961433	16.0178
0.968033	16.1232
0.010082	1.05673
0.051853	3.30923
0.099384	5.06118
0.20597	7.89766
0.252061	8.89878
0.305354	9.64961
0.355766	10.4839
0.406899	11.1513
0.456591	11.8465
0.506283	12.3749
0.557415	13.0145
0.607107	13.4872
0.65824	13.9321
0.710092	14.3493
0.761225	14.7942
0.811637	15.1557
0.833962	15.3504
0.860609	15.545
0.869251	15.6007
0.894457	15.7675
0.919663	15.9066
0.968635	16.0734
