Adsorption isotherm of Hydrogen on C66H50B2CoCu6N18O24
DOI: 10.1039/C0cc03540h
Adsorbate Hydrogen: InChIKey UFHFLCQGNIYNRP-UHFFFAOYSA-N
Temperature: 87 K
Tabular data in the source: 0
pressure (bar)	uptake (mmol/g)
0.00181676	0.222755
0.00547925	0.512364
0.00915002	0.757429
0.0165329	1.02484
0.0202037	1.26991
0.0275908	1.51505
0.0331321	1.69334
0.044223	2.00538
0.0590426	2.25068
0.068292	2.47359
0.0794119	2.62972
0.101643	2.98653
0.125754	3.23202
0.149864	3.47752
0.172129	3.65616
0.198101	3.87942
0.22594	4.05817
0.253775	4.2592
0.27976	4.41564
0.305741	4.59436
0.350295	4.81801
0.402282	5.04181
0.452415	5.2433
0.506264	5.44487
0.5564	5.62409
0.606541	5.78104
0.660399	5.93807
0.706819	6.11721
0.762539	6.252
0.808971	6.36433
0.862841	6.45454
0.912986	6.58922
0.965002	6.65712
0.990999	6.74675
1.00772	6.76937
