Adsorption isotherm of Hydrogen on C66H50B2CoCu6N18O24
DOI: 10.1039/C0cc03540h
Adsorbate Hydrogen: InChIKey UFHFLCQGNIYNRP-UHFFFAOYSA-N
Temperature: 77 K
Tabular data in the source: 0
pressure (bar)	uptake (mmol/g)
0.00893068	1.93783
0.0108716	1.49243
0.0199595	2.58394
0.0199926	2.40576
0.0273011	3.07407
0.0273383	2.87362
0.0402501	3.38614
0.0495078	3.56451
0.0568989	3.78738
0.0809638	4.27786
0.099479	4.63459
0.127281	5.01379
0.147671	5.28148
0.171781	5.52697
0.205161	5.88402
0.229284	6.06269
0.251549	6.24133
0.275667	6.44228
0.303511	6.59877
0.361051	6.93404
0.401885	7.17988
0.450155	7.40361
0.504004	7.60518
0.552283	7.78436
0.606136	7.96366
0.656277	8.12061
0.704555	8.29979
0.758421	8.41227
0.812278	8.5693
0.860569	8.68167
0.910718	8.79407
0.96273	8.88425
0.98874	8.90706
1.0073	8.99654
