Adsorption isotherm of Nitrogen on C66H50B2CoCu6N18O24
DOI: 10.1039/C0cc03540h
Adsorbate Nitrogen: InChIKey IJGRMHOSHXDMSA-UHFFFAOYSA-N
Temperature: 77 K
Tabular data in the source: 0
pressure (bar)	uptake (cm3(STP)/g)
0.0075348	52.5862
0.0100305	68.1034
0.0124784	77.5862
0.0172584	81.8966
0.0197473	96.5517
0.0245614	105.172
0.0317484	113.793
0.0413153	123.276
0.0508684	131.034
0.0604421	141.379
0.0699952	149.138
0.0842807	155.172
0.0914813	165.517
0.101	168.966
0.11772	182.759
0.127246	187.069
0.146387	206.897
0.151255	222.414
0.16567	244.828
0.177589	251.724
0.203746	258.621
0.229883	262.931
0.255999	264.655
0.284481	265.517
0.308224	267.241
0.360436	268.103
0.412662	270.69
0.4625	271.552
0.517085	272.414
0.564551	273.276
0.616756	273.276
0.668961	273.276
0.721172	274.138
0.768638	275
0.82085	275.862
0.873055	275.862
0.920507	275
0.972712	275
0.996448	275.862
