Adsorption isotherm of Hydrogen on C66H50B2CoCu6N18O24
DOI: 10.1039/C0cc03540h
Adsorbate Hydrogen: InChIKey UFHFLCQGNIYNRP-UHFFFAOYSA-N
Temperature: 77 K
Tabular data in the source: 0
pressure (bar)	uptake (cm3(STP)/g)
0.00248205	13.7931
0.00982593	42.2414
0.0218066	56.8966
0.02898	63.7931
0.0409402	75.8621
0.0552461	84.4828
0.0838306	98.2759
0.0981092	103.448
0.129039	113.793
0.15281	118.966
0.174207	124.138
0.20749	131.897
0.233627	136.207
0.25501	139.655
0.281154	144.828
0.304911	148.276
0.359543	155.172
0.40705	161.207
0.45217	165.517
0.504416	170.69
0.554275	174.138
0.608894	179.31
0.661126	182.759
0.710985	186.207
0.763217	189.655
0.815436	191.379
0.867668	194.828
0.915141	196.552
0.967366	199.138
0.993475	200
1.01484	200.862
