Adsorption isotherm of Nitrogen on TFPBâ€“DHTH COF
DOI: 10.1039/d1ma00234a
Article source: Figure 2
Adsorbate Nitrogen: InChIKey IJGRMHOSHXDMSA-UHFFFAOYSA-N
Kind: experiment
Temperature: 77 K
Tabular data in the source: 0
pressure (bar)	uptake (cm3(STP)/g)
0.008042	11.6694
0.009382	15.5592
0.016083	18.1523
0.026806	18.8006
0.038868	19.4489
0.056292	20.0972
0.075056	21.3938
0.0965	21.3938
0.113924	23.3387
0.131347	23.3387
0.147431	24.6353
0.183618	25.9319
0.205063	27.8768
0.218465	28.5251
0.233208	29.1734
0.264035	30.47
0.313625	31.7666
0.371257	34.3598
0.415486	36.3047
0.462396	38.2496
0.528069	38.8979
0.570958	42.1394
0.608486	44.7326
0.671479	46.6775
0.729111	51.2156
0.781382	55.1053
0.824271	60.94
0.876542	68.0713
0.922111	82.9822
0.962319	115.397
0.986444	160.778
0.989125	193.841
1.00521	241.167
0.999847	282.01
0.999847	313.128
1.00119	348.784
1.00521	383.144
1.00119	368.233
0.995826	352.026
0.997167	325.446
0.995826	300.162
0.990465	267.747
0.979743	223.015
0.981083	191.248
0.974382	183.468
0.973042	168.558
0.971701	158.185
0.956958	129.011
0.939535	106.321
0.922111	93.3549
0.920771	90.1134
0.889944	77.1475
0.863139	71.9611
0.813549	64.8298
0.77066	56.4019
0.707667	51.8639
0.655396	48.6224
0.604465	46.6775
0.557556	41.4911
0.506625	42.7877
0.455694	40.1945
0.398063	36.953
0.359194	36.953
0.298882	33.0632
0.253312	32.4149
0.222486	32.4149
0.199701	32.4149
0.180938	30.47
0.168875	30.47
0.158153	29.8217
0.148771	29.8217
0.116604	27.8768
0.101861	25.9319
0.075056	25.2836
0.058972	24.6353
0.041549	23.987
0.026806	22.0421
