Adsorption isotherm of Carbon Dioxide on C75H129Cu3N11O37
DOI: 10.1021/Ic300950h
Adsorbate Carbon Dioxide: InChIKey CURLTUGMZLYLDI-UHFFFAOYSA-N
Temperature: 273 K
Tabular data in the source: 0
pressure (bar)	uptake (mmol/g)
0.45	1.216
0.55	1.68403
0.8	2.33876
1.05	2.99349
2.1	6.36178
3.1	9.91771
4.15	13.5671
5.15	16.7482
6.15	18.805
7.15	20.2058
8.1	21.232
9.1	21.8832
10.1	22.5345
11.05	22.9985
12.05	23.3686
13.05	23.7387
14.05	24.0152
15.05	24.2916
16.05	24.4743
17	24.7509
18	24.84
18.95	25.0229
20	25.2054
