Adsorption isotherm of Carbon Dioxide on C75H129Cu3N11O37
DOI: 10.1021/Ic300950h
Adsorbate Carbon Dioxide: InChIKey CURLTUGMZLYLDI-UHFFFAOYSA-N
Temperature: 195 K
Tabular data in the source: 0
pressure (bar)	uptake (mmol/g)
0.00490196	0.932579
0.0220588	2.0724
0.0269608	2.79774
0.0367647	3.41946
0.0441176	4.1448
0.0563725	5.07738
0.0686275	6.52805
0.0784314	7.66787
0.0833333	8.60045
0.0882353	9.53303
0.0931373	10.5692
0.0980392	12.0199
0.10049	13.4706
0.102941	16.5792
0.105392	15.2321
0.107843	17.9262
0.112745	22.9
0.117647	23.8326
0.127451	25.1796
0.151961	26.4231
0.178922	27.252
0.205882	27.7701
0.25	28.2882
0.301471	28.8063
0.360294	29.3244
0.39951	29.5317
0.453431	29.7389
0.504902	29.9462
0.556373	30.1534
0.610294	30.4643
0.659314	30.6715
0.713235	30.7751
0.764706	30.8787
0.816176	30.9824
0.865196	31.1896
0.919118	31.1896
0.965686	31.1896
1.01471	31.3968
