Adsorption isotherm of Methane on C75H129Cu3N11O37
DOI: 10.1021/Ic300950h
Adsorbate Methane: InChIKey VNWKTOKETHGBQD-UHFFFAOYSA-N
Temperature: 273 K
Tabular data in the source: 0
pressure (bar)	uptake (mmol/g)
0.216802	0.194121
0.487805	0.349418
0.813008	0.621188
1.02981	0.815309
2.11382	1.63062
3.14363	2.36828
4.11924	3.06711
5.14905	3.76595
6.07046	4.38714
7.10027	5.04715
8.07588	5.62951
9.05149	6.21188
10.0813	6.75541
11.0569	7.22131
12.0867	7.6872
13.0081	8.11426
14.0379	8.61898
15.0136	8.9684
16.0434	9.31781
16.9648	9.66723
18.0488	9.97782
19.0244	10.2496
20.0542	10.5214
