Adsorption isotherm of N-Pentane on C75H129Cu3N11O37
DOI: 10.1021/Ic300950h
Adsorbate N-Pentane: InChIKey OFBQJSOFQDEBGM-UHFFFAOYSA-N
Temperature: 298 K
Tabular data in the source: 0
pressure (bar)	uptake (mmol/g)
0.00476888	1.45218
0.00656597	4.38929
0.0066624	4.02629
0.00682896	3.39929
0.00695169	2.93728
0.00706565	2.50828
0.00721468	1.94727
0.00847703	6.8974
0.00854716	6.6334
0.00865235	6.2374
0.00875755	5.84139
0.00891534	5.24739
0.00900301	4.91738
0.00907314	4.65338
0.0108878	7.52449
0.010993	7.12849
0.0159547	7.85466
0.0210479	8.08584
0.033873	8.31726
0.049293	8.48278
0.0647129	8.64829
0.0852963	8.78097
0.105897	8.84765
0.139384	8.91476
0.167717	8.98169
0.226969	9.08265
0.278497	9.15035
0.340343	9.18539
0.394449	9.25318
0.443409	9.2878
0.541338	9.32403
0.585143	9.35847
0.634103	9.39309
0.680485	9.42762
0.739763	9.42958
0.780991	9.46394
0.827382	9.46547
0.87892	9.50017
0.909847	9.50119
0.948498	9.53547
0.969116	9.53615
0.98458	9.53666
