Adsorption isotherm of Nitrogen on C75H129Cu3N11O37
DOI: 10.1021/Ic300950h
Adsorbate Nitrogen: InChIKey IJGRMHOSHXDMSA-UHFFFAOYSA-N
Temperature: 77 K
Tabular data in the source: 0
pressure (bar)	uptake (cm3(STP)/g)
0.00258398	0.00258398
0.00775194	565.657
0.0155039	606.061
0.0284238	638.384
0.0516796	657.239
0.0852713	673.401
0.111111	684.175
0.147287	689.562
0.191214	697.643
0.242894	703.03
0.30491	708.418
0.359173	711.111
0.408269	716.498
0.457364	719.192
0.509044	721.886
0.552972	721.886
0.604651	724.579
0.653747	724.579
0.702842	729.966
0.754522	729.966
0.803618	732.66
0.857881	732.66
0.904393	735.354
0.956072	738.047
0.992248	759.596
