Adsorption isotherm of Carbon Dioxide on C75H129Cu3N11O37
DOI: 10.1021/Ic300950h
Adsorbate Carbon Dioxide: InChIKey CURLTUGMZLYLDI-UHFFFAOYSA-N
Temperature: 273 K
Tabular data in the source: 0
pressure (bar)	uptake (cm3(STP)/g)
0.026286	2.88637
0.0446519	3.99283
0.0630346	5.54514
0.0997666	7.75807
0.17589	13.2974
0.1995	14.6244
0.251972	17.7221
0.301826	20.8208
0.351688	24.1426
0.401542	27.2414
0.454014	30.339
0.50386	33.2148
0.543226	35.8724
0.593072	38.7483
0.603568	39.4124
0.653414	42.2883
0.692772	44.723
0.753114	48.2629
0.79509	50.6965
0.84757	54.017
0.868545	54.8994
0.907895	57.1111
0.926269	58.4405
0.968253	61.097
0.98401	62.4275
