Adsorption isotherm of Methane on C75H129Cu3N11O37
DOI: 10.1021/Ic300950h
Adsorbate Methane: InChIKey VNWKTOKETHGBQD-UHFFFAOYSA-N
Temperature: 298 K
Tabular data in the source: 0
pressure (bar)	uptake (mmol/g)
0.325203	0.155297
0.867209	0.310594
1.02981	0.427066
2.11382	1.00943
3.14363	1.4365
4.17344	1.90239
5.20325	2.32945
6.17886	2.79534
7.15447	3.18359
8.13008	3.61065
9.05149	3.92125
10.0813	4.30949
11.0027	4.69773
12.0867	5.04715
13.0623	5.35774
14.0379	5.66834
15.0136	5.97893
16.0434	6.2507
17.0732	6.52247
17.9946	6.75541
19.0244	7.02718
20	7.22131
