Adsorption isotherm of Carbon Dioxide on C75H129Cu3N11O37
DOI: 10.1021/Ic300950h
Adsorbate Carbon Dioxide: InChIKey CURLTUGMZLYLDI-UHFFFAOYSA-N
Temperature: 298 K
Tabular data in the source: 0
pressure (bar)	uptake (mmol/g)
0.3	0.467096
0.65	1.21506
1	1.68192
2.1	3.17597
3.1	4.67049
4.1	6.35241
5.1	8.03434
6.15	9.43492
7.15	11.3042
8.2	12.7048
9.1	14.0124
10.1	15.0384
11.05	16.0647
12.1	16.9968
13.1	17.7417
14.05	18.3931
15	18.8572
16.05	19.4145
17.05	19.7846
17.95	20.1552
19.05	20.4311
20	20.8015
