Adsorption isotherm of Carbon Dioxide on C75H129Cu3N11O37
DOI: 10.1021/Ic300950h
Adsorbate Carbon Dioxide: InChIKey CURLTUGMZLYLDI-UHFFFAOYSA-N
Temperature: 298 K
Tabular data in the source: 0
pressure (bar)	uptake (cm3(STP)/g)
0.0262276	1.32589
0.0602918	2.20242
0.188737	6.82668
0.209696	7.26319
0.256865	8.57974
0.30406	10.5651
0.356465	11.8793
0.406269	13.6405
0.456065	15.1788
0.503235	16.4954
0.55303	18.0337
0.605452	19.7937
0.652622	21.1103
0.6998	22.6498
0.75484	24.4087
0.802009	25.7252
0.849195	27.4876
0.87539	27.9218
0.914706	29.2419
0.938291	29.9001
0.972372	31.2225
0.995948	31.6579
