Adsorption isotherm of Nitrogen on C75H129Cu3N11O37
DOI: 10.1021/Ic300950h
Adsorbate Nitrogen: InChIKey IJGRMHOSHXDMSA-UHFFFAOYSA-N
Temperature: 273 K
Tabular data in the source: 0
pressure (bar)	uptake (cm3(STP)/g)
0.0654606	0.416674
0.109971	0.619758
0.133539	0.83218
0.191155	1.47528
0.212097	1.46594
0.259225	1.66786
0.311596	2.09037
0.358733	2.51521
0.405852	2.49421
0.460842	2.91555
0.50797	3.11747
0.557724	3.54114
0.610088	3.74073
0.657216	3.94264
0.70697	4.36632
0.759333	4.5659
0.806469	4.99075
0.856223	5.41442
0.976665	6.02951
0.99499	6.02134
