Adsorption isotherm of Hydrogen on C75H129Cu3N11O37
DOI: 10.1021/Ic300950h
Adsorbate Hydrogen: InChIKey UFHFLCQGNIYNRP-UHFFFAOYSA-N
Temperature: 77 K
Tabular data in the source: 0
pressure (bar)	uptake (mmol/g)
0.0964112	0.65108
0.237987	3.79797
0.382451	4.8831
0.430049	5.6427
0.863291	9.00661
1.00852	9.54918
1.97506	14.3238
2.99255	17.4707
3.96229	19.9665
4.9816	21.8112
5.95301	23.1134
6.97324	24.307
8.04227	25.3921
8.96563	26.2602
10.0838	27.0198
11.0075	27.6709
11.9799	28.2135
13.0012	28.6475
13.9738	29.0816
14.9953	29.4071
15.9679	29.8412
16.9408	30.0582
17.9624	30.2752
18.9352	30.6008
19.9082	30.8178
