Adsorption isotherm of Carbon Dioxide on C75H129Cu3N11O37
DOI: 10.1021/Ic300950h
Adsorbate Carbon Dioxide: InChIKey CURLTUGMZLYLDI-UHFFFAOYSA-N
Temperature: 273 K
Tabular data in the source: 0
pressure (bar)	uptake (cm3(STP)/g)
0.0210254	2.21992
0.0577657	4.65577
0.0813839	6.20575
0.149621	10.8569
0.207345	14.398
0.249329	17.0544
0.301801	20.1521
0.351663	23.4738
0.401501	26.1267
0.451346	29.0026
0.498574	31.8796
0.548429	34.9784
0.598266	37.6313
0.648112	40.5072
0.697957	43.3831
0.745194	46.483
0.797666	49.5807
0.847503	52.2336
0.894723	54.8877
0.936699	57.3212
0.99704	60.8612
