Adsorption isotherm of Hydrogen on C75H129Cu3N11O37
DOI: 10.1021/Ic300950h
Adsorbate Hydrogen: InChIKey UFHFLCQGNIYNRP-UHFFFAOYSA-N
Temperature: 77 K
Tabular data in the source: 0
pressure (bar)	uptake (mmol/g)
0.1434	1.84473
0.237835	3.90648
0.382451	4.8831
0.429897	5.75121
0.670773	7.48742
0.912105	8.8981
1.97536	14.1067
2.9445	17.0366
3.96335	19.2069
4.93446	20.7261
5.90572	22.1367
6.97491	23.1134
8.04425	23.9815
8.96807	24.524
10.0377	25.1751
11.0105	25.5006
12.0319	25.8262
12.9561	26.1517
13.929	26.3688
14.9992	26.5858
15.9722	26.8028
16.9453	26.9113
17.9185	26.9113
18.9402	27.0198
19.9621	27.0198
