Adsorption isotherm of Carbon Dioxide on Activated Carbon
DOI: 10.1016/j.carbon.2017.05.088
Article source: Figure 4
Adsorbate Carbon Dioxide: InChIKey CURLTUGMZLYLDI-UHFFFAOYSA-N
Kind: experiment
Temperature: 298 K
Tabular data in the source: 0
pressure (bar)	uptake (mmol/g)
0.006653	0.1118
0.050769	0.443
0.099365	0.7796
0.154961	1.0976
0.20389	1.3789
0.254659	1.6194
0.304428	1.8389
0.354691	2.0609
0.406127	2.2857
0.456056	2.4762
0.506332	2.6812
0.558927	2.8914
0.608683	3.0648
0.659292	3.2527
0.710715	3.4498
0.760324	3.6311
0.80892	3.8059
0.861689	3.9714
0.911792	4.1343
0.963054	4.3222
1.00682	4.4825
