Adsorption isotherm of Carbon Dioxide on LCN-1
DOI: 10.1016/j.carbon.2017.05.088
Article source: Figure 5
Adsorbate Carbon Dioxide: InChIKey CURLTUGMZLYLDI-UHFFFAOYSA-N
Kind: experiment
Temperature: 273 K
Tabular data in the source: 0
pressure (bar)	uptake (mmol/g)
0.010212	0.517
0.049636	1.3501
0.101218	2.1367
0.151548	2.7169
0.201597	3.2375
0.251633	3.7061
0.304055	4.1561
0.354518	4.5763
0.40582	4.9537
0.456002	5.333
0.506745	5.6956
0.557767	6.0173
0.60767	6.3575
0.658692	6.6866
0.709848	6.9896
0.760724	7.2853
0.810907	7.579
0.861649	7.8449
0.913085	8.1386
0.963547	8.4194
1.00618	8.6499
