Adsorption isotherm of Nitrogen on Activated Carbon
DOI: 10.1016/j.carbon.2017.05.088
Article source: Figure 2
Adsorbate Nitrogen: InChIKey IJGRMHOSHXDMSA-UHFFFAOYSA-N
Kind: experiment
Temperature: 77 K
Tabular data in the source: 0
pressure (bar)	uptake (mmol/g)
9e-06	470.51
1.3e-05	484.03
6.7e-05	561.97
0.000131	593.8
0.000199	610.51
0.000265	620.33
0.000331	627.77
0.000398	631.23
0.000465	635.75
0.000532	638.67
0.000599	642.4
0.000664	647.98
0.000665	643.21
0.000732	651.7
0.000733	646.14
0.000798	654.1
0.000798	644.03
0.000865	646.16
0.000865	653.05
0.000932	656.51
0.000933	648.56
0.000998	651.49
0.001	658.91
0.001066	662.11
0.001066	654.42
0.001132	663.98
0.001133	656.82
0.001197	669.03
0.001202	661.07
0.001265	667.98
0.001265	676.73
0.001324	724.98
