Adsorption isotherm of Carbon Dioxide on LCN-2
DOI: 10.1016/j.carbon.2017.05.088
Article source: Figure 4
Adsorbate Carbon Dioxide: InChIKey CURLTUGMZLYLDI-UHFFFAOYSA-N
Kind: experiment
Temperature: 298 K
Tabular data in the source: 0
pressure (bar)	uptake (mmol/g)
0.005493	0.2749
0.010492	0.3551
0.051102	0.8363
0.102032	1.2635
0.152801	1.6237
0.20157	1.9287
0.253499	2.2191
0.302762	2.4833
0.354024	2.737
0.404793	2.9735
0.455389	3.2074
0.505998	3.4414
0.556421	3.6437
0.607523	3.8566
0.658293	4.0734
0.708728	4.2823
0.759324	4.4702
0.80976	4.6686
0.859849	4.8815
0.910952	5.0826
0.962881	5.277
1.00832	5.4597
