Adsorption isotherm of Nitrogen on LCN-1
DOI: 10.1016/j.carbon.2017.05.088
Article source: Figure 4
Adsorbate Nitrogen: InChIKey IJGRMHOSHXDMSA-UHFFFAOYSA-N
Kind: experiment
Temperature: 298 K
Tabular data in the source: 0
pressure (bar)	uptake (mmol/g)
0.010319	0.0223
0.051929	0.0472
0.103858	0.0864
0.152627	0.1218
0.204397	0.1465
0.254992	0.1753
0.305922	0.2132
0.355691	0.2367
0.40662	0.2773
0.457896	0.2942
0.507985	0.3151
0.558261	0.3504
0.60935	0.4028
0.659292	0.4158
0.710555	0.4393
0.761991	0.4891
0.812413	0.5244
0.862022	0.54
0.913112	0.5608
0.963881	0.6067
1.00882	0.6512
