Adsorption isotherm of Nitrogen on LCN-2
DOI: 10.1016/j.carbon.2017.05.088
Article source: Figure 4
Adsorbate Nitrogen: InChIKey IJGRMHOSHXDMSA-UHFFFAOYSA-N
Kind: experiment
Temperature: 298 K
Tabular data in the source: 0
pressure (bar)	uptake (mmol/g)
0.010652	0.0171
0.051929	0.0314
0.103365	0.0391
0.152467	0.0415
0.204397	0.0716
0.254166	0.0885
0.305255	0.1054
0.356024	0.1289
0.4053	0.1642
0.457562	0.1745
0.507318	0.1941
0.558261	0.2123
0.607857	0.2411
0.660786	0.2685
0.710382	0.2999
0.760991	0.3181
0.812413	0.3429
0.862689	0.3861
0.912778	0.4057
0.964547	0.4081
1.00882	0.4224
