Adsorption isotherm of Carbon Dioxide on LCN-2
DOI: 10.1016/j.carbon.2017.05.088
Article source: Figure 5
Adsorbate Carbon Dioxide: InChIKey CURLTUGMZLYLDI-UHFFFAOYSA-N
Kind: experiment
Temperature: 273 K
Tabular data in the source: 0
pressure (bar)	uptake (mmol/g)
0.006159	0.3775
0.051596	1.3036
0.104431	2.053
0.153081	2.622
0.20145	3.1092
0.251913	3.5759
0.303642	4.0277
0.354238	4.4312
0.404007	4.8198
0.455016	5.2084
0.507158	5.5691
0.556781	5.9038
0.60683	6.2329
0.658679	6.5546
0.709422	6.8762
0.760031	7.1718
0.81048	7.4637
0.860809	7.7519
0.912392	8.0401
0.962841	8.3282
1.00884	8.5699
