Adsorption isotherm of Nitrogen on LCN-3
DOI: 10.1016/j.carbon.2017.05.088
Article source: Figure 2
Adsorbate Nitrogen: InChIKey IJGRMHOSHXDMSA-UHFFFAOYSA-N
Kind: experiment
Temperature: 77 K
Tabular data in the source: 0
pressure (bar)	uptake (mmol/g)
7e-06	284.16
1.3e-05	305.9
4.1e-05	351.23
6.6e-05	379.07
0.000133	431.04
0.000159	445.36
0.0002	464.19
0.000239	479.04
0.000267	487.79
0.000293	494.69
0.000335	503.45
0.000401	514.33
0.000469	521.5
0.00053	523.37
0.000534	530.52
0.000598	533.19
0.000598	524.7
0.000666	531.88
0.000667	542.21
0.000735	534.01
0.000736	547.79
0.000798	550.99
0.0008	538
0.000865	555.24
0.000866	538.81
0.000932	544.92
0.000932	556.58
0.000998	547.85
0.000999	562.16
0.001066	551.84
0.001068	566.68
0.001133	570.93
0.001136	557.95
0.001198	566.97
0.0012	578.9
0.00126	588.19
0.001267	573.61
0.001326	667.2
