Adsorption isotherm of Nitrogen on LCN-1
DOI: 10.1016/j.carbon.2017.05.088
Article source: Figure 2
Adsorbate Nitrogen: InChIKey IJGRMHOSHXDMSA-UHFFFAOYSA-N
Kind: experiment
Temperature: 77 K
Tabular data in the source: 0
pressure (bar)	uptake (mmol/g)
6e-06	605.97
1.4e-05	651.83
3.9e-05	730.56
6.3e-05	772.97
6.6e-05	781.99
0.000133	841.64
0.000158	851.46
0.000198	871.34
0.000238	881.43
0.000263	887.79
0.000294	892.84
0.000331	899.47
0.0004	906.91
0.000466	911.95
0.000532	915.68
0.000598	919.14
0.000667	926.04
0.000732	928.44
0.0008	929.78
0.000866	932.98
0.000933	935.64
0.000999	935.92
0.001066	937.26
0.001135	940.45
0.0012	947.89
0.001265	958.24
0.001325	1010.47
