Adsorption isotherm of Carbon Dioxide on LCN-3
DOI: 10.1016/j.carbon.2017.05.088
Article source: Figure 5
Adsorbate Carbon Dioxide: InChIKey CURLTUGMZLYLDI-UHFFFAOYSA-N
Kind: experiment
Temperature: 273 K
Tabular data in the source: 0
pressure (bar)	uptake (mmol/g)
0.051582	0.8963
0.103312	1.2942
0.153214	1.6066
0.202557	1.8594
0.253006	2.1178
0.304028	2.3558
0.354358	2.5826
0.405367	2.7759
0.456802	2.986
0.507265	3.1793
0.558287	3.3671
0.607763	3.5604
0.658919	3.7426
0.708968	3.9378
0.760817	4.0846
0.810587	4.2686
0.861462	4.4415
0.912752	4.6106
0.963214	4.7779
1.00781	4.9229
