Adsorption isotherm of Carbon Dioxide on LCN-1
DOI: 10.1016/j.carbon.2017.05.088
Article source: Figure 4
Adsorbate Carbon Dioxide: InChIKey CURLTUGMZLYLDI-UHFFFAOYSA-N
Kind: experiment
Temperature: 298 K
Tabular data in the source: 0
pressure (bar)	uptake (mmol/g)
0.006653	0.1118
0.049929	0.4707
0.101205	0.8216
0.153134	1.17
0.204063	1.4762
0.253499	1.7378
0.302762	2.0072
0.353691	2.2661
0.404793	2.5027
0.455056	2.7248
0.505332	2.9653
0.556754	3.19
0.60719	3.4042
0.657453	3.6249
0.707888	3.8602
0.759658	4.0678
0.810253	4.2438
0.860356	4.4725
0.910952	4.6735
0.962214	4.8706
1.00682	5.1098
