Adsorption isotherm of Carbon Dioxide on LCN-3
DOI: 10.1016/j.carbon.2017.05.088
Article source: Figure 4
Adsorbate Carbon Dioxide: InChIKey CURLTUGMZLYLDI-UHFFFAOYSA-N
Kind: experiment
Temperature: 298 K
Tabular data in the source: 0
pressure (bar)	uptake (mmol/g)
0.006653	0.1118
0.051596	0.4299
0.101365	0.7072
0.151294	0.9569
0.203223	1.1645
0.254499	1.384
0.302935	1.6048
0.354691	1.794
0.405793	1.9924
0.455723	2.1973
0.506825	2.3747
0.557261	2.556
0.608523	2.7492
0.658786	2.9476
0.708888	3.1368
0.760657	3.3063
0.81108	3.4981
0.861023	3.6702
0.912445	3.8344
0.962721	4.0394
1.00816	4.2168
