Adsorption isotherm of Nitrogen on Activated Carbon
DOI: 10.1016/j.carbon.2017.05.088
Article source: Figure 4
Adsorbate Nitrogen: InChIKey IJGRMHOSHXDMSA-UHFFFAOYSA-N
Kind: experiment
Temperature: 298 K
Tabular data in the source: 0
pressure (bar)	uptake (mmol/g)
0.010492	0.0118
0.051436	0.0209
0.102032	0.0417
0.153961	0.0468
0.204223	0.0637
0.253832	0.0872
0.304255	0.1041
0.354531	0.121
0.40662	0.1208
0.456896	0.1417
0.507985	0.1533
0.558087	0.1794
0.608857	0.1924
0.660292	0.2054
0.710382	0.2183
0.760484	0.2287
0.81108	0.2535
0.861516	0.2559
0.912778	0.2807
0.963214	0.3068
1.00849	0.3146
