Adsorption isotherm of Nitrogen on LCN-3
DOI: 10.1016/j.carbon.2017.05.088
Article source: Figure 4
Adsorbate Nitrogen: InChIKey IJGRMHOSHXDMSA-UHFFFAOYSA-N
Kind: experiment
Temperature: 298 K
Tabular data in the source: 0
pressure (bar)	uptake (mmol/g)
0.010492	0.0118
0.050103	0.0143
0.102698	0.022
0.153467	0.0415
0.203397	0.0479
0.252166	0.0504
0.305762	0.0581
0.355024	0.0697
0.405127	0.084
0.456722	0.0956
0.506332	0.0955
0.558261	0.1005
0.608857	0.1056
0.659626	0.1133
0.710382	0.1236
0.760324	0.1353
0.810747	0.1325
0.861023	0.1402
0.912952	0.1531
0.963214	0.1622
1.00832	0.1725
