Adsorption isotherm of Nitrogen on LCN-2
DOI: 10.1016/j.carbon.2017.05.088
Article source: Figure 2
Adsorbate Nitrogen: InChIKey IJGRMHOSHXDMSA-UHFFFAOYSA-N
Kind: experiment
Temperature: 77 K
Tabular data in the source: 0
pressure (bar)	uptake (mmol/g)
1e-05	528.03
1.2e-05	547.38
4e-05	632.48
6.9e-05	686.56
0.000134	764.24
0.000161	785.19
0.000198	810.11
0.000242	833.98
0.000267	843.79
0.000292	852.01
0.000333	863.68
0.000398	875.1
0.000467	887.04
0.000532	891.03
0.000597	897.4
0.000666	900.86
0.000732	905.38
0.000799	908.58
0.000865	910.18
0.000931	914.7
0.000997	919.22
0.001066	922.94
0.001133	928.26
0.001198	936.75
0.001264	951.61
0.001326	1044.13
