Adsorption isotherm of Nitrogen on MUF-77-decyl
DOI: 10.1021/jacs.5b00365
Article source: Figure 5a
Adsorbate Nitrogen: InChIKey IJGRMHOSHXDMSA-UHFFFAOYSA-N
Kind: experiment
Temperature: 77 K
Tabular data in the source: 0
pressure (bar)	uptake (cm3(STP)/g)
0	0
0.001952	146.961
0.005857	166.298
0.009762	181.768
0.013666	212.707
0.023428	228.177
0.029285	239.779
0.039046	251.381
0.054665	259.116
0.068331	259.116
0.078092	262.983
0.087854	270.718
0.101521	270.718
0.121044	270.718
0.142519	278.453
0.162042	278.453
0.181565	282.32
0.206945	282.32
0.249896	286.188
0.300656	290.055
0.357273	290.055
0.406081	293.923
0.449032	293.923
0.509553	297.79
0.564218	297.79
0.607169	297.79
0.65793	301.657
0.712594	301.657
0.753593	301.657
0.816066	301.657
0.866826	301.657
0.917587	305.525
0.970299	305.525
1.00739	309.392
