Adsorption isotherm of Nitrogen on MUF-77-ethyl
DOI: 10.1021/jacs.5b00365
Article source: Figure 5a
Adsorbate Nitrogen: InChIKey IJGRMHOSHXDMSA-UHFFFAOYSA-N
Kind: experiment
Temperature: 77 K
Tabular data in the source: 0
pressure (bar)	uptake (cm3(STP)/g)
0	0
0.001769	131.485
0.003403	359.656
0.005134	518.212
0.005221	456.334
0.008963	572.341
0.010873	603.273
0.014723	641.933
0.022473	684.445
0.024382	715.377
0.030196	746.294
0.037957	781.071
0.045739	800.378
0.053495	839.022
0.063229	858.322
0.067102	881.512
0.072937	896.959
0.082672	916.259
0.096322	927.809
0.109977	935.492
0.129489	943.152
0.143145	950.835
0.158758	954.643
0.172425	954.591
0.18999	958.391
0.199746	962.221
0.219259	969.881
0.238782	969.807
0.258305	969.732
0.281733	969.643
0.299299	973.443
0.353953	980.969
0.404713	980.776
0.457421	984.442
0.502319	988.138
0.551121	991.819
0.603834	991.618
0.656541	995.284
0.703397	995.105
0.756109	994.904
0.804913	998.585
0.861524	1002.24
0.912285	1002.04
0.963045	1001.85
0.998187	1001.71
1.00989	1005.54
