Adsorption isotherm of Nitrogen on MUF-77-methyl
DOI: 10.1021/jacs.5b00365
Article source: Figure 5a
Adsorbate Nitrogen: InChIKey IJGRMHOSHXDMSA-UHFFFAOYSA-N
Kind: experiment
Temperature: 77 K
Tabular data in the source: 0
pressure (bar)	uptake (cm3(STP)/g)
0	0
0	54.1434
0.001348	433.154
0.001451	359.674
0.003063	603.327
0.008845	657.492
0.010743	696.174
0.014594	734.862
0.0282	777.456
0.035961	812.292
0.049557	862.62
0.05536	901.316
0.061179	928.41
0.068956	951.644
0.074775	978.738
0.080589	1009.7
0.088361	1036.8
0.096154	1048.43
0.107835	1071.68
0.12539	1083.35
0.142954	1087.29
0.15661	1095.07
0.181974	1106.77
0.195629	1114.56
0.219051	1118.52
0.236617	1122.45
0.260039	1126.41
0.281503	1134.22
0.304925	1138.18
0.349817	1146.09
0.39862	1150.14
0.447417	1158.06
0.500129	1158.26
0.552825	1170.07
0.601632	1170.25
0.652387	1174.31
0.705093	1178.38
0.753895	1182.44
0.80465	1186.5
0.859315	1186.71
0.904212	1190.74
0.960835	1187.09
1.00182	1194.98
