Adsorption isotherm of Nitrogen on MUF-77-octyl
DOI: 10.1021/jacs.5b00365
Article source: Figure 5a
Adsorbate Nitrogen: InChIKey IJGRMHOSHXDMSA-UHFFFAOYSA-N
Kind: experiment
Temperature: 77 K
Tabular data in the source: 0
pressure (bar)	uptake (cm3(STP)/g)
0	0
0.001521	309.392
0.001548	290.055
0.001623	235.912
0.001753	143.094
0.003468	313.26
0.003527	270.718
0.007345	332.597
0.019032	351.934
0.034635	363.536
0.044391	367.403
0.056094	375.138
0.069755	379.006
0.083421	379.006
0.099034	382.873
0.114647	386.74
0.126361	386.74
0.140027	386.74
0.157593	390.608
0.169306	390.608
0.181015	394.475
0.188824	394.475
0.204449	390.608
0.222008	398.343
0.243489	394.475
0.264964	394.475
0.28253	398.343
0.304005	398.343
0.354755	406.077
0.405515	406.077
0.458222	409.945
0.508982	409.945
0.55779	409.945
0.60855	409.945
0.661262	409.945
0.712017	413.812
0.764729	413.812
0.811585	413.812
0.864297	413.812
0.909195	417.68
0.917004	417.68
0.965812	417.68
1.00291	417.68
1.01071	421.547
