Adsorption isotherm of Nitrogen on MUF-77-ethyl
DOI: 10.1021/jacs.5b00365
Article source: Figure 2
Adsorbate Nitrogen: InChIKey IJGRMHOSHXDMSA-UHFFFAOYSA-N
Kind: experiment
Temperature: 77 K
Tabular data in the source: 0
pressure (bar)	uptake (cm3(STP)/g)
0	0
0.001941	292.958
0.003882	442.254
0.005823	507.042
0.007764	546.479
0.009705	583.099
0.013588	622.535
0.019411	670.423
0.029116	723.944
0.036881	763.38
0.044645	797.183
0.052409	830.986
0.064056	867.606
0.073761	892.958
0.081526	915.493
0.095113	923.944
0.110642	938.028
0.126171	943.662
0.1417	949.296
0.159169	952.113
0.172757	954.93
0.190227	960.563
0.203814	960.563
0.219343	966.197
0.244577	969.014
0.260106	969.014
0.28534	974.648
0.300869	974.648
0.35522	977.465
0.407629	983.099
0.456157	983.099
0.500802	991.549
0.55127	991.549
0.605621	994.366
0.65609	997.183
0.706557	997.183
0.757025	1000
0.807494	1000
0.859904	1000
0.914254	1000
0.966664	1002.82
1.0016	1002.82
1.00937	1005.63
