Adsorption isotherm of Nitrogen on MUF-7a
DOI: 10.1021/jacs.5b00365
Article source: Figure 5a
Adsorbate Nitrogen: InChIKey IJGRMHOSHXDMSA-UHFFFAOYSA-N
Kind: experiment
Temperature: 77 K
Tabular data in the source: 0
pressure (bar)	uptake (cm3(STP)/g)
0	3.8674
0	30.9392
0.001956	556.906
0.003912	433.149
0.005868	669.061
0.017605	792.818
0.021517	831.492
0.027385	858.564
0.029341	885.635
0.035209	916.575
0.043034	943.646
0.052814	986.188
0.066507	1036.46
0.070419	1071.27
0.078243	1121.55
0.084112	1191.16
0.086068	1156.35
0.091936	1233.7
0.09976	1256.91
0.113453	1276.24
0.129101	1283.98
0.142794	1295.58
0.156486	1303.31
0.172135	1307.18
0.191696	1314.92
0.205389	1318.78
0.221037	1322.65
0.240598	1330.39
0.260159	1334.25
0.277763	1338.12
0.303193	1341.99
0.350139	1341.99
0.402952	1361.33
0.45381	1361.33
0.508582	1369.06
0.555527	1372.93
0.608341	1372.93
0.659199	1376.8
0.708102	1384.53
0.755048	1380.66
0.805906	1384.53
0.858719	1388.4
0.913489	1392.27
0.966304	1392.27
1.00151	1392.27
1.01129	1396.13
