Adsorption isotherm of Nitrogen on MUF-77-butyl
DOI: 10.1021/jacs.5b00365
Article source: Figure 5a
Adsorbate Nitrogen: InChIKey IJGRMHOSHXDMSA-UHFFFAOYSA-N
Kind: experiment
Temperature: 77 K
Tabular data in the source: 0
pressure (bar)	uptake (cm3(STP)/g)
0	0
0.001952	166.759
0.003905	376.177
0.005857	449.861
0.007809	515.789
0.011714	585.596
0.015619	616.62
0.021475	647.645
0.027332	678.67
0.039046	701.939
0.052712	709.695
0.068331	721.33
0.083949	725.208
0.097616	732.964
0.111282	732.964
0.128853	736.842
0.146424	740.72
0.160089	744.598
0.173756	748.476
0.191327	748.476
0.201089	752.355
0.220611	748.476
0.240134	756.233
0.263563	756.233
0.285037	756.233
0.308466	763.989
0.35532	760.111
0.408033	767.867
0.456841	767.867
0.505649	771.745
0.556409	767.867
0.605217	771.745
0.659881	775.623
0.706737	779.501
0.761402	779.501
0.81021	779.501
0.866826	779.501
0.911729	779.501
0.966394	779.501
0.997632	783.38
1.0113	783.38
