Adsorption isotherm of Nitrogen on MUF-77-hexyl
DOI: 10.1021/jacs.5b00365
Article source: Figure 5a
Adsorbate Nitrogen: InChIKey IJGRMHOSHXDMSA-UHFFFAOYSA-N
Kind: experiment
Temperature: 77 K
Tabular data in the source: 0
pressure (bar)	uptake (cm3(STP)/g)
0	0
0.001877	54.1436
0.003349	398.343
0.003403	359.669
0.003468	313.26
0.005248	437.017
0.007167	460.221
0.009071	495.028
0.0188	518.232
0.032445	533.702
0.040244	541.436
0.055857	545.304
0.069517	549.171
0.081226	553.039
0.098791	556.906
0.108547	560.773
0.122214	560.773
0.128066	564.641
0.139779	564.641
0.151493	564.641
0.157345	568.508
0.169053	572.376
0.180767	572.376
0.192481	572.376
0.204189	576.243
0.227616	576.243
0.245182	580.11
0.264705	580.11
0.286175	583.978
0.297889	583.978
0.309604	583.978
0.356458	583.978
0.405261	587.845
0.456021	587.845
0.500919	591.713
0.510681	591.713
0.557531	595.58
0.606339	595.58
0.659051	595.58
0.705907	595.58
0.762518	599.448
0.813278	599.448
0.864033	603.315
0.910888	603.315
0.959697	603.315
0.998742	603.315
1.0085	607.182
