Adsorption isotherm of Methane on MIL-53(Cu)
DOI: 10.1016/j.jiec.2013.01.026
Adsorbate Methane: InChIKey VNWKTOKETHGBQD-UHFFFAOYSA-N
Temperature: 298 K
Tabular data in the source: 0
pressure (bar)	uptake (mmol/g)
0.245945	0.177678
4.58397	1.32134
10.0558	3.19458
17.2037	5.28472
20.3586	6.25092
26.3727	7.47345
29.0347	7.86782
34.9009	8.45937
