Adsorption isotherm of Nitrogen on MIL-53(Cu)
DOI: 10.1016/j.jiec.2013.01.026
Adsorbate Nitrogen: InChIKey IJGRMHOSHXDMSA-UHFFFAOYSA-N
Temperature: 77 K
Tabular data in the source: 0
pressure (bar)	uptake (cm3(STP)/g)
0.00229475	2.0744
0.00229475	50.1272
0.00372489	101.04
0.00372489	126.211
0.0194565	144.517
0.0595005	160.534
0.102405	175.98
0.149599	175.98
0.25114	177.124
0.348389	177.124
0.448499	177.124
0.55004	177.124
0.647289	176.552
0.744539	176.552
0.840359	177.696
0.919016	176.552
0.960491	179.984
0.996244	192.569
