Adsorption isotherm of Methane on MIL-53(Cu)
DOI: 10.1016/j.jiec.2013.01.026
Adsorbate Methane: InChIKey VNWKTOKETHGBQD-UHFFFAOYSA-N
Temperature: 298 K
Tabular data in the source: 0
pressure (bar)	uptake (mmol/g)
0.098058	0.118523
4.83045	2.87909
10.1051	6.03402
14.8868	7.98613
19.8657	9.76078
24.8938	11.4566
29.7248	12.8566
34.6544	13.6058
