Adsorption isotherm of Nitrogen on MIL-53(Cu)
DOI: 10.1016/j.jiec.2013.01.026
Adsorbate Nitrogen: InChIKey IJGRMHOSHXDMSA-UHFFFAOYSA-N
Temperature: 77 K
Tabular data in the source: 0
pressure (bar)	uptake (cm3(STP)/g)
0.00229475	150.237
0.00229475	173.692
0.00229475	224.605
0.00229475	273.802
0.00372489	299.544
0.0194565	335.584
0.0380483	344.737
0.0623608	351.601
0.100975	351.601
0.202515	352.173
0.305485	352.173
0.402735	352.173
0.502845	352.745
0.601525	352.173
0.698774	352.745
0.75312	352.173
0.803175	352.173
0.861811	352.173
0.921877	351.601
0.960491	357.322
0.981943	360.182
1.00196	371.051
