Adsorption isotherm of Nitrogen on C57H36In3N4O16
DOI: 10.1038/Ncomms3344
Adsorbate Nitrogen: InChIKey IJGRMHOSHXDMSA-UHFFFAOYSA-N
Temperature: 77 K
Tabular data in the source: 0
pressure (bar)	uptake (cm3(STP)/g)
0.00251422	10.8831
0.00420256	88.1331
0.00589089	121.133
0.00926756	134.633
0.0177092	141.383
0.0312159	147.383
0.0548526	151.883
0.0852426	154.133
0.137581	157.133
0.188231	160.133
0.238881	162.383
0.306414	165.383
0.373948	167.633
0.449923	170.633
0.527586	172.883
0.642393	175.883
0.748758	178.883
0.836551	181.883
0.888889	182.633
0.926033	184.883
0.963176	185.633
0.988501	188.633
1.0037	193.133
