Adsorption isotherm of Nitrogen on C57H36In3N4O16
DOI: 10.1038/Ncomms3344
Adsorbate Nitrogen: InChIKey IJGRMHOSHXDMSA-UHFFFAOYSA-N
Temperature: 77 K
Tabular data in the source: 0
pressure (bar)	uptake (cm3(STP)/g)
0.000826	8.63312
0.000826	172.133
0.000826	246.383
0.00420256	269.633
0.00757923	295.883
0.0126442	312.383
0.0160209	324.383
0.0261509	331.883
0.0396576	337.883
0.0599176	346.133
0.0835542	352.883
0.107191	359.633
0.147711	366.383
0.198361	372.383
0.282778	377.633
0.341869	380.633
0.412779	385.133
0.488754	386.633
0.552911	389.633
0.650834	394.133
0.723433	396.383
0.780836	397.133
0.819668	397.133
0.861876	399.383
0.893954	402.383
0.929409	406.883
0.953046	409.133
0.978371	415.883
