Adsorption isotherm of Hydrogen on IRMOF-2-54
DOI: 10.1021/Jp800832b
Adsorbate Hydrogen: InChIKey UFHFLCQGNIYNRP-UHFFFAOYSA-N
Temperature: 77 K
Tabular data in the source: 0
pressure (bar)	uptake (wt%)
0.400996	3.16556
9.79595	6.28993
20.2833	8.16455
30.7707	8.83749
39.7287	9.60657
59.8296	10.8563
70.0985	10.9044
79.4934	11.337
89.5439	11.7215
100.031	11.9619
