Adsorption isotherm of Hydrogen on IRMOF-2-96
DOI: 10.1021/Jp800832b
Adsorbate Hydrogen: InChIKey UFHFLCQGNIYNRP-UHFFFAOYSA-N
Temperature: 77 K
Tabular data in the source: 0
pressure (bar)	uptake (wt%)
1.05646	3.27419
4.77074	5.24057
19.6279	7.3599
29.8968	7.92797
40.1657	8.32125
60.485	8.60528
70.0985	8.64898
79.7119	8.62713
90.8548	8.67083
99.5943	8.58343
