Adsorption isotherm of Hydrogen on IRMOF-2-54-Li
DOI: 10.1021/Jp800832b
Adsorbate Hydrogen: InChIKey UFHFLCQGNIYNRP-UHFFFAOYSA-N
Temperature: 300 K
Tabular data in the source: 0
pressure (bar)	uptake (wt%)
1.49343	1.36149
4.77074	2.58065
10.0144	3.15745
20.2833	3.79981
29.0228	4.16686
40.3842	4.38972
59.3926	4.66502
70.0985	4.84855
89.5439	5.03207
100.031	5.13695
