Adsorption isotherm of Hydrogen on IRMOF-2-24
DOI: 10.1021/Jp800832b
Adsorbate Hydrogen: InChIKey UFHFLCQGNIYNRP-UHFFFAOYSA-N
Temperature: 300 K
Tabular data in the source: 0
pressure (bar)	uptake (wt%)
1.27495	0.0374528
8.922	0.129218
19.1909	0.207873
29.8968	0.325856
40.1657	0.404512
50.2161	0.509386
60.2665	0.574932
70.317	0.627369
79.4934	0.719133
90.4178	0.732243
100.25	0.810898
