Adsorption isotherm of Hydrogen on IRMOF-2-96-Li
DOI: 10.1021/Jp800832b
Adsorbate Hydrogen: InChIKey UFHFLCQGNIYNRP-UHFFFAOYSA-N
Temperature: 300 K
Tabular data in the source: 0
pressure (bar)	uptake (wt%)
1.05646	2.16115
4.98923	3.26233
8.922	3.7867
19.1909	4.32418
29.8968	4.65191
39.9472	4.87476
60.485	5.16317
70.9724	5.32048
90.1993	5.4909
100.031	5.56955
