Adsorption isotherm of Hydrogen on IRMOF-2-54
DOI: 10.1021/Jp800832b
Adsorbate Hydrogen: InChIKey UFHFLCQGNIYNRP-UHFFFAOYSA-N
Temperature: 300 K
Tabular data in the source: 0
pressure (bar)	uptake (wt%)
29.8968	0.43073
40.3842	0.548713
49.3422	0.61426
60.0481	0.719133
69.6615	0.824007
80.5859	0.915772
89.7623	0.994428
100.031	1.0993
