Adsorption isotherm of Hydrogen on IRMOF-2-24
DOI: 10.1021/Jp800832b
Adsorbate Hydrogen: InChIKey UFHFLCQGNIYNRP-UHFFFAOYSA-N
Temperature: 77 K
Tabular data in the source: 0
pressure (bar)	uptake (wt%)
1.05646	1.76662
4.98923	4.01704
9.35898	5.00024
20.2833	5.93973
29.6783	6.39856
50.2161	6.87923
70.0985	7.16326
80.8044	7.11956
90.1993	7.09772
100.25	7.03217
