Adsorption isotherm of Hydrogen on IRMOF-2-24
DOI: 10.1021/Jp800832b
Adsorbate Hydrogen: InChIKey UFHFLCQGNIYNRP-UHFFFAOYSA-N
Temperature: 77 K
Tabular data in the source: 0
pressure (bar)	uptake (wt%)
1.27495	0.95822
3.02285	2.40024
4.55226	3.31788
7.82957	4.23553
12.4178	5.24057
19.6279	6.09267
34.7035	6.96662
57.6447	7.53469
78.401	7.51284
88.2329	7.25066
