Adsorption isotherm of Hydrogen on IRMOF-2-42
DOI: 10.1021/Jp800832b
Adsorbate Hydrogen: InChIKey UFHFLCQGNIYNRP-UHFFFAOYSA-N
Temperature: 300 K
Tabular data in the source: 0
pressure (bar)	uptake (wt%)
19.6279	0.26031
29.8968	0.391402
39.9472	0.483167
49.9976	0.60115
59.8296	0.653587
70.5355	0.78468
79.9304	0.876444
90.1993	0.941991
100.468	1.02065
