Adsorption isotherm of Hydrogen on IRMOF-2-60
DOI: 10.1021/Jp800832b
Adsorbate Hydrogen: InChIKey UFHFLCQGNIYNRP-UHFFFAOYSA-N
Temperature: 77 K
Tabular data in the source: 0
pressure (bar)	uptake (wt%)
5.20772	4.82545
10.4514	6.20192
20.0649	7.68763
29.8968	8.47419
39.7287	8.88931
49.9976	9.41368
60.0481	9.58847
69.88	9.67587
89.9808	9.67587
100.031	9.52293
