Adsorption isotherm of Hydrogen on IRMOF-2-24-Li
DOI: 10.1021/Jp800832b
Adsorbate Hydrogen: InChIKey UFHFLCQGNIYNRP-UHFFFAOYSA-N
Temperature: 300 K
Tabular data in the source: 0
pressure (bar)	uptake (wt%)
1.27495	0.588041
5.64469	1.5188
9.79595	2.05628
19.8464	2.56754
29.4598	2.85594
40.1657	3.0788
50.6531	3.26233
59.8296	3.38031
69.6615	3.53762
80.1489	3.60317
90.4178	3.70804
100.25	3.74737
