Adsorption isotherm of Hydrogen on IRMOF-2-54
DOI: 10.1021/Jp800832b
Adsorbate Hydrogen: InChIKey UFHFLCQGNIYNRP-UHFFFAOYSA-N
Temperature: 77 K
Tabular data in the source: 0
pressure (bar)	uptake (wt%)
1.27495	2.81536
20.2833	6.92293
29.8968	7.53469
40.1657	7.77503
50.4346	8.05906
60.2665	8.23385
70.317	8.2557
80.8044	8.23385
90.8548	8.27755
100.468	8.12461
