Adsorption isotherm of Hydrogen on IRMOF-2-60
DOI: 10.1021/Jp800832b
Adsorbate Hydrogen: InChIKey UFHFLCQGNIYNRP-UHFFFAOYSA-N
Temperature: 77 K
Tabular data in the source: 0
pressure (bar)	uptake (wt%)
4.98923	5.56892
10.0144	7.49161
20.5018	10.1834
29.8968	11.9619
39.5102	13.4519
50.6531	14.942
60.7035	15.9995
70.0985	16.7686
90.1993	18.3067
100.25	18.8355
