Adsorption isotherm of Hydrogen on IRMOF-2-96
DOI: 10.1021/Jp800832b
Adsorbate Hydrogen: InChIKey UFHFLCQGNIYNRP-UHFFFAOYSA-N
Temperature: 300 K
Tabular data in the source: 0
pressure (bar)	uptake (wt%)
10.0144	0.207873
19.8464	0.352075
29.8968	0.470058
40.1657	0.60115
49.7791	0.719133
59.6111	0.837117
69.88	0.941991
79.7119	1.03376
89.5439	1.11241
100.031	1.19107
