Adsorption isotherm of Hydrogen on IRMOF-2-60-Li
DOI: 10.1021/Jp800832b
Adsorbate Hydrogen: InChIKey UFHFLCQGNIYNRP-UHFFFAOYSA-N
Temperature: 300 K
Tabular data in the source: 0
pressure (bar)	uptake (wt%)
1.05646	0.719133
4.77074	2.03006
10.0144	2.72485
20.5018	3.35409
30.1153	3.81292
40.8212	4.0751
49.9976	4.29796
60.485	4.53392
79.9304	4.76989
100.25	5.00586
