Adsorption isotherm of Hydrogen on IRMOF-2-42-Li
DOI: 10.1021/Jp800832b
Adsorbate Hydrogen: InChIKey UFHFLCQGNIYNRP-UHFFFAOYSA-N
Temperature: 300 K
Tabular data in the source: 0
pressure (bar)	uptake (wt%)
5.20772	1.57123
9.57747	2.0956
19.8464	2.63308
29.8968	2.97392
39.7287	3.20989
49.7791	3.38031
60.2665	3.53762
69.88	3.69493
79.9304	3.79981
100.25	4.00955
