Adsorption isotherm of Hydrogen on IRMOF-2-42
DOI: 10.1021/Jp800832b
Adsorbate Hydrogen: InChIKey UFHFLCQGNIYNRP-UHFFFAOYSA-N
Temperature: 77 K
Tabular data in the source: 0
pressure (bar)	uptake (wt%)
1.05646	2.29099
5.42621	4.51956
10.2329	5.83049
20.2833	7.09772
30.5523	7.81872
40.6027	8.2994
49.1237	8.62713
70.7539	8.80192
90.4178	8.93301
100.687	8.86746
