Adsorption isotherm of Hydrogen on IRMOF-2-96
DOI: 10.1021/Jp800832b
Adsorbate Hydrogen: InChIKey UFHFLCQGNIYNRP-UHFFFAOYSA-N
Temperature: 77 K
Tabular data in the source: 0
pressure (bar)	uptake (wt%)
1.05646	3.5501
4.77074	5.95346
9.57747	6.91481
20.5018	8.88556
40.6027	11.337
49.3422	12.058
60.922	12.7309
70.317	13.5
90.4178	14.6056
100.25	14.7498
