Adsorption isotherm of Hydrogen on IRMOF-2-60
DOI: 10.1021/Jp800832b
Adsorbate Hydrogen: InChIKey UFHFLCQGNIYNRP-UHFFFAOYSA-N
Temperature: 300 K
Tabular data in the source: 0
pressure (bar)	uptake (wt%)
19.6279	0.325856
29.8968	0.470058
39.9472	0.561823
49.7791	0.692915
59.6111	0.77157
70.0985	0.876444
79.9304	0.981318
90.1993	1.05997
99.8128	1.12552
