Adsorption isotherm of Hydrogen on IRMOF-2-24
DOI: 10.1021/Jp800832b
Adsorbate Hydrogen: InChIKey UFHFLCQGNIYNRP-UHFFFAOYSA-N
Temperature: 77 K
Tabular data in the source: 0
pressure (bar)	uptake (wt%)
0.400996	0.233461
1.49343	2.10808
4.55226	4.36724
10.0144	5.23245
20.0649	6.53027
40.1657	7.58775
49.9976	7.78002
59.6111	8.21262
80.1489	8.54909
99.8128	8.83749
