Adsorption isotherm of Hydrogen on IRMOF-2-42
DOI: 10.1021/Jp800832b
Adsorbate Hydrogen: InChIKey UFHFLCQGNIYNRP-UHFFFAOYSA-N
Temperature: 77 K
Tabular data in the source: 0
pressure (bar)	uptake (wt%)
0.619484	2.49262
4.98923	4.94405
10.0144	6.72254
19.6279	8.35682
30.7707	9.75077
49.9976	11.337
69.443	12.4906
79.7119	13.0674
90.4178	13.4039
100.905	14.0288
