Adsorption isotherm of Hydrogen on 1% Pt/BAl 1.0
DOI: 10.1051/e3sconf/20172200114
Article source: Figure 4 C2
Adsorbate Hydrogen: InChIKey UFHFLCQGNIYNRP-UHFFFAOYSA-N
Kind: experiment
Temperature: 77 K
Tabular data in the source: 0
pressure (bar)	uptake (micromoles/m2)
1e-05	0.00781
1e-05	0.08428
1e-05	0.1794
1e-05	0.30568
1e-05	0.46241
1e-05	0.64073
1e-05	0.78361
1e-05	0.95648
1e-05	1.16836
