Adsorption isotherm of Hydrogen on 1% Pt/BAl 0.25
DOI: 10.1051/e3sconf/20172200114
Article source: Figure 4 A1
Adsorbate Hydrogen: InChIKey UFHFLCQGNIYNRP-UHFFFAOYSA-N
Kind: experiment
Temperature: 77 K
Tabular data in the source: 0
pressure (bar)	uptake (micromoles/m2)
1e-05	0.06264
1e-05	0.10832
1e-05	0.12885
1e-05	0.15865
1e-05	0.20732
1e-05	0.30436
1e-05	0.39114
1e-05	0.50526
