Adsorption isotherm of Hydrogen on Pt/BAl 0.25
DOI: 10.1051/e3sconf/20172200114
Article source: Figure 4 A2
Adsorbate Hydrogen: InChIKey UFHFLCQGNIYNRP-UHFFFAOYSA-N
Kind: experiment
Temperature: 77 K
Tabular data in the source: 0
pressure (bar)	uptake (micromoles/m2)
1e-05	0.14228
1e-05	0.41728
1e-05	0.61458
1e-05	0.86998
1e-05	1.11612
1e-05	1.35328
1e-05	1.48367
1e-05	1.62297
1e-05	1.88901
