Adsorption isotherm of Hydrogen on Pt/BAl 1.0
DOI: 10.1051/e3sconf/20172200114
Article source: Figure 4 C1
Adsorbate Hydrogen: InChIKey UFHFLCQGNIYNRP-UHFFFAOYSA-N
Kind: experiment
Temperature: 77 K
Tabular data in the source: 0
pressure (bar)	uptake (micromoles/m2)
1e-05	0.01794
1e-05	0.03682
1e-05	0.05113
1e-05	0.12904
1e-05	0.27509
1e-05	0.35508
1e-05	0.42481
1e-05	0.56414
1e-05	0.67136
1e-05	0.82347
1e-05	0.93698
