Adsorption isotherm of Hydrogen on Pt/BAl 0.5
DOI: 10.1051/e3sconf/20172200114
Article source: Figure 4 B2
Adsorbate Hydrogen: InChIKey UFHFLCQGNIYNRP-UHFFFAOYSA-N
Kind: experiment
Temperature: 77 K
Tabular data in the source: 0
pressure (bar)	uptake (micromoles/m2)
1e-05	0.00746
1e-05	0.01501
1e-05	0.07312
1e-05	0.13826
1e-05	0.21047
1e-05	0.27824
1e-05	0.33739
1e-05	0.38213
1e-05	0.45857
1e-05	0.54934
