Adsorption isotherm of Hydrogen on 1% Pt/BAl 0.5
DOI: 10.1051/e3sconf/20172200114
Article source: Figure 4 B1
Adsorbate Hydrogen: InChIKey UFHFLCQGNIYNRP-UHFFFAOYSA-N
Kind: experiment
Temperature: 77 K
Tabular data in the source: 0
pressure (bar)	uptake (micromoles/m2)
1e-05	0.01588
1e-05	0.06386
1e-05	0.15313
1e-05	0.22772
1e-05	0.33113
1e-05	0.41194
1e-05	0.52425
1e-05	0.66858
1e-05	0.80781
1e-05	0.87672
1e-05	1.08575
