Adsorption isotherm of Nitrogen on JUC-508
DOI: 10.1021/jacs.9b00485
Article source: Figure 3a
Adsorbate Nitrogen: InChIKey IJGRMHOSHXDMSA-UHFFFAOYSA-N
Kind: experiment
Temperature: 77 K
Tabular data in the source: 0
pressure (bar)	uptake (cm3(STP)/g)
-0.000811	23.1823
-0.000811	84.2993
0.008924	200.211
0.021092	233.93
0.034072	255.005
0.047052	276.08
0.059221	292.94
0.085992	318.23
0.120876	345.627
0.156571	368.809
0.192266	389.884
0.22715	410.959
0.262845	425.711
0.297728	444.679
0.333423	463.646
0.369118	480.506
0.404002	501.581
0.439697	516.333
0.475392	535.3
0.511087	558.483
0.545971	579.557
0.581666	602.74
0.618172	628.029
0.653055	655.427
0.687939	689.146
0.723634	729.189
0.759329	773.446
0.794213	832.455
0.829908	904.11
0.864791	994.731
0.900486	1123.29
0.93537	1315.07
0.969443	1635.41
0.050297	326.66
0.081125	354.057
0.115197	381.454
0.150892	404.636
0.187399	423.604
0.222282	442.571
0.257977	459.431
0.293672	478.398
0.328556	495.258
0.364251	507.903
0.399946	526.87
0.434829	547.945
0.471336	583.772
0.506219	619.6
0.541914	646.997
0.577609	668.072
0.611682	695.469
0.648188	727.081
0.683883	765.016
0.719578	807.165
0.755273	857.745
0.790157	923.077
0.826663	1001.05
0.843699	1047.42
0.880205	1178.08
0.919145	1376.19
