Adsorption isotherm of Nitrogen on JUC-509
DOI: 10.1021/jacs.9b00485
Article source: Figure 3b
Adsorbate Nitrogen: InChIKey IJGRMHOSHXDMSA-UHFFFAOYSA-N
Kind: experiment
Temperature: 77 K
Tabular data in the source: 0
pressure (bar)	uptake (cm3(STP)/g)
-0.000811	29.5983
-0.000811	82.4524
0.008917	209.302
0.022697	249.471
0.034856	270.613
0.055931	298.097
0.085113	325.581
0.120779	346.723
0.156446	367.865
0.192112	386.892
0.227779	399.577
0.263445	414.376
0.298301	431.29
0.333157	443.975
0.368823	454.545
0.404489	467.23
0.440156	479.915
0.475822	494.715
0.510678	511.628
0.546344	528.541
0.582011	545.455
0.618488	566.596
0.652533	594.08
0.688199	623.679
0.723866	657.505
0.759532	701.903
0.795199	756.871
0.829244	830.867
0.86491	930.233
0.900577	1067.65
0.935432	1274.84
0.968667	1638.48
0.051068	321.353
0.08106	350.951
0.115916	378.436
0.151582	399.577
0.187249	418.605
0.222915	435.518
0.257771	452.431
0.293437	469.345
0.328293	484.144
0.363959	498.943
0.399626	515.856
0.435292	536.998
0.470959	572.939
0.505814	608.88
0.542291	630.021
0.577958	659.619
0.612003	689.218
0.64848	716.702
0.683336	754.757
0.718192	794.926
0.754669	845.666
0.789524	906.977
0.807358	942.918
0.843024	1038.05
0.880312	1173.36
0.921652	1395.35
