Adsorption isotherm of Carbon Dioxide on IRMOF-1
DOI: 10.1021/Jp307319u
Adsorbate Carbon Dioxide: InChIKey CURLTUGMZLYLDI-UHFFFAOYSA-N
Temperature: 280 K
Tabular data in the source: 0
pressure (bar)	uptake (mmol/g)
29.6366	0.228571
35.0491	0.342857
41.6011	0.914286
47.5831	1.82857
52.9954	3.2
56.4132	5.71429
59.8307	9.6
61.8239	13.0286
62.9627	16
64.1015	18.5143
66.9494	21.8286
71.5066	24.9143
78.058	27.6571
