Adsorption isotherm of Carbon Dioxide on IRMOF-1
DOI: 10.1021/Jp307319u
Adsorbate Carbon Dioxide: InChIKey CURLTUGMZLYLDI-UHFFFAOYSA-N
Temperature: 260 K
Tabular data in the source: 0
pressure (bar)	uptake (mmol/g)
28.8595	0.261546
34.1048	0.496112
39.3501	0.730679
45.5789	1.30923
50.8241	2.11522
55.4134	3.4919
58.6913	5.32422
60.6579	7.04075
62.6243	9.67157
63.2793	12.3009
64.5899	15.2738
66.2282	18.8185
67.8665	22.1347
70.8165	24.4238
74.4222	26.3708
83.9288	29.1245
