Adsorption isotherm of Carbon Dioxide on IRMOF-8
DOI: 10.1021/Jp307319u
Adsorbate Carbon Dioxide: InChIKey CURLTUGMZLYLDI-UHFFFAOYSA-N
Temperature: 340 K
Tabular data in the source: 0
pressure (bar)	uptake (mmol/g)
60.5971	1.08656
68.0955	2.24013
73.3176	3.96188
78.2203	6.68317
82.7982	9.54685
85.7538	13.4082
88.7095	17.2696
91.0093	20.4157
93.6357	23.7052
96.2629	27.1375
100.187	29.5717
104.432	31.2921
109.002	33.0129
114.224	34.7346
