Adsorption isotherm of Carbon Dioxide on IRMOF-8
DOI: 10.1021/Jp307319u
Adsorbate Carbon Dioxide: InChIKey CURLTUGMZLYLDI-UHFFFAOYSA-N
Temperature: 360 K
Tabular data in the source: 0
pressure (bar)	uptake (mmol/g)
44.7739	0.42735
51.3082	0.569801
56.5345	0.854701
63.3937	1.28205
68.9449	1.85185
73.5129	2.849
77.4235	4.41595
81.9828	6.69516
85.5609	9.11681
88.4807	12.2507
92.0444	16.8091
95.2871	20.5128
98.2069	23.6467
101.132	25.9259
105.036	28.49
109.922	30.7692
114.157	32.7635
