Adsorption isotherm of Carbon Dioxide on IRMOF-8
DOI: 10.1021/Jp307319u
Adsorbate Carbon Dioxide: InChIKey CURLTUGMZLYLDI-UHFFFAOYSA-N
Temperature: 360 K
Tabular data in the source: 0
pressure (bar)	uptake (mmol/g)
0.426749	0.45584
16.0434	0.911681
24.4858	1.25356
32.0879	1.93732
40.534	2.62108
50.6738	3.87464
56.171	5.01425
62.9377	6.49573
68.0166	7.97721
73.5199	9.68661
78.1757	11.0541
81.9912	12.7635
86.6506	14.4729
92.9965	16.0684
98.4853	16.4103
104.802	15.2707
109.836	12.4217
112.763	9.91453
115.695	7.86325
121.989	4.5584
127.033	2.73504
135.447	0.34188
