Adsorption isotherm of Carbon Dioxide on IRMOF-1
DOI: 10.1021/Jp307319u
Adsorbate Carbon Dioxide: InChIKey CURLTUGMZLYLDI-UHFFFAOYSA-N
Temperature: 240 K
Tabular data in the source: 0
pressure (bar)	uptake (mol/g)
25.9089	0.427541
30.8265	0.42192
35.4161	0.759532
40.3336	1.09677
44.9231	1.89152
48.8568	3.02988
51.4792	4.28403
53.118	5.65358
54.7567	7.70885
55.7389	12.7363
55.7395	10.3363
56.3939	15.4784
57.3765	19.2487
59.0148	22.6754
61.309	25.3014
65.5703	27.5822
69.8318	29.063
76.716	30.6552
