Adsorption isotherm of Carbon Dioxide on IRMOF-1
DOI: 10.1021/Jp307319u
Adsorbate Carbon Dioxide: InChIKey CURLTUGMZLYLDI-UHFFFAOYSA-N
Temperature: 340 K
Tabular data in the source: 0
pressure (bar)	uptake (mmol/g)
47.5621	0.401644
62.5441	1.29625
68.7321	2.54276
74.2686	4.13189
78.1766	5.9508
81.433	8.34025
84.038	10.6165
86.3172	13.4629
88.9222	15.8531
91.8529	18.2429
94.7837	20.2908
98.6917	22.1097
103.251	23.2442
109.113	24.491
113.999	25.6251
