Adsorption isotherm of Carbon Dioxide on IRMOF-1
DOI: 10.1021/Jp307319u
Adsorbate Carbon Dioxide: InChIKey CURLTUGMZLYLDI-UHFFFAOYSA-N
Temperature: 300 K
Tabular data in the source: 0
pressure (bar)	uptake (mmol/g)
38.6946	0.296945
46.5626	0.628912
53.1192	1.07601
58.0365	1.75224
63.6095	2.88227
68.5265	4.92213
72.4599	7.64493
74.754	10.4832
77.048	13.7761
79.67	16.7276
81.3086	18.9985
84.9141	21.608
87.8642	23.3092
92.1256	25.2362
95.7316	26.0276
