Adsorption isotherm of Carbon Dioxide on IRMOF-1
DOI: 10.1021/Jp307319u
Adsorbate Carbon Dioxide: InChIKey CURLTUGMZLYLDI-UHFFFAOYSA-N
Temperature: 220 K
Tabular data in the source: 0
pressure (bar)	uptake (mmol/g)
8.15245	0.237878
12.0609	0.242345
19.5519	0.479479
28.02	0.832015
34.2082	1.5248
40.0704	3.01722
44.6295	5.76529
45.6058	8.85212
45.9291	18.4525
45.9305	12.9668
46.2534	24.0529
49.8354	27.0284
54.3947	29.0907
59.6055	30.4681
68.0733	32.3064
