Adsorption isotherm of Carbon Dioxide on IRMOF-8
DOI: 10.1021/Jp307319u
Adsorbate Carbon Dioxide: InChIKey CURLTUGMZLYLDI-UHFFFAOYSA-N
Temperature: 240 K
Tabular data in the source: 0
pressure (bar)	uptake (mmol/g)
29.2868	0.528091
35.209	0.804555
39.8156	1.08289
44.7538	1.78811
49.6956	3.06312
53.9815	4.62396
56.6246	6.47205
58.9433	9.03285
60.6069	12.0219
61.282	14.7275
62.2906	18.1449
62.3124	21.5637
62.6649	25.2669
63.0156	28.6852
63.3591	30.9639
64.364	33.8114
67.3442	36.9411
71.3075	39.4996
76.9162	42.1981
