Adsorption isotherm of Carbon Dioxide on IRMOF-10
DOI: 10.1021/Jp307319u
Adsorbate Carbon Dioxide: InChIKey CURLTUGMZLYLDI-UHFFFAOYSA-N
Temperature: 240 K
Tabular data in the source: 0
pressure (bar)	uptake (mmol/g)
38.5681	0.8
45.1033	1.4
50.6581	2.8
58.1733	6
62.7473	10.6
64.7074	14.4
65.6868	20.2
65.6872	17.6
66.3364	48
66.337	43.8
66.3394	26.6
66.3399	23.4
66.6644	39.4
66.665	35.2
66.6656	30.8
67.316	52.4
69.9297	55.6
72.8701	59.2
77.1177	61.6
