Adsorption isotherm of Carbon Dioxide on IRMOF-10
DOI: 10.1021/Jp307319u
Adsorbate Carbon Dioxide: InChIKey CURLTUGMZLYLDI-UHFFFAOYSA-N
Temperature: 220 K
Tabular data in the source: 0
pressure (bar)	uptake (mmol/g)
28.862	0.54229
35.4214	1.12917
41.3261	1.91736
47.237	4.10554
52.1691	7.29567
55.1359	10.8897
56.4636	14.4871
56.5135	25.487
56.5417	31.6869
56.5653	36.8869
56.6225	49.4867
56.6443	54.2867
56.8168	20.0864
56.9231	43.4862
56.9885	57.886
59.622	60.2807
63.5697	63.2728
68.1693	65.4636
