Adsorption isotherm of Carbon Dioxide on IRMOF-10
DOI: 10.1021/Jp307319u
Adsorbate Carbon Dioxide: InChIKey CURLTUGMZLYLDI-UHFFFAOYSA-N
Temperature: 300 K
Tabular data in the source: 0
pressure (bar)	uptake (mmol/g)
53.7792	0.889908
59.3559	1.67651
65.2624	2.86131
71.5048	5.84031
76.4395	9.61964
80.0665	14.1993
82.719	20.7752
85.0492	28.5483
87.0451	34.9261
88.7097	40.5068
91.0289	45.8868
95.3062	49.2686
