Adsorption isotherm of Carbon Dioxide on IRMOF-8
DOI: 10.1021/Jp307319u
Adsorbate Carbon Dioxide: InChIKey CURLTUGMZLYLDI-UHFFFAOYSA-N
Temperature: 280 K
Tabular data in the source: 0
pressure (bar)	uptake (mmol/g)
43.1428	0.506907
49.3513	1.06627
54.5794	1.76907
59.8074	2.89801
64.3817	4.59605
67.649	6.29596
70.2627	8.56497
72.2227	11.4031
74.1827	14.3833
75.1624	17.3648
76.1421	20.2043
77.4485	23.7536
78.7549	27.0188
80.0615	29.4317
81.6949	31.5601
83.6551	33.2618
86.2688	35.2468
89.8629	36.9462
