Adsorption isotherm of Carbon Dioxide on IRMOF-8
DOI: 10.1021/Jp307319u
Adsorbate Carbon Dioxide: InChIKey CURLTUGMZLYLDI-UHFFFAOYSA-N
Temperature: 360 K
Tabular data in the source: 0
pressure (bar)	uptake (mmol/g)
1.2469	0.7963
25.0846	1.90874
38.462	3.03309
48.9057	4.61663
59.341	6.9979
68.0967	9.95089
76.0121	13.2467
83.0858	16.9993
89.3251	20.525
97.2404	23.8208
103.911	26.0924
114.345	28.5876
125.2	30.8545
136.474	33.1208
145.653	35.6175
