Adsorption isotherm of Carbon Dioxide on IRMOF-1
DOI: 10.1021/Jp307319u
Adsorbate Carbon Dioxide: InChIKey CURLTUGMZLYLDI-UHFFFAOYSA-N
Temperature: 360 K
Tabular data in the source: 0
pressure (bar)	uptake (mmol/g)
5.25532	0.222576
16.7296	0.0951756
28.2039	0.0820609
40.9895	0.181733
49.1853	0.286651
55.4142	0.508103
61.3151	0.844215
67.216	1.4089
72.1334	2.31756
77.7061	4.02548
83.2786	6.99054
87.8673	10.9853
92.1284	14.2947
96.3894	17.7184
101.634	20.341
106.879	22.1636
110.813	23.0733
115.074	24.2113
