Adsorption isotherm of Carbon Dioxide on IRMOF-10
DOI: 10.1021/Jp307319u
Adsorbate Carbon Dioxide: InChIKey CURLTUGMZLYLDI-UHFFFAOYSA-N
Temperature: 280 K
Tabular data in the source: 0
pressure (bar)	uptake (mmol/g)
49.5187	1.19658
55.0928	1.39601
61.6568	2.99145
68.2262	5.78348
73.4951	10.9687
76.1404	15.9544
78.4642	22.3362
79.8046	28.7179
80.8161	34.9003
81.8223	39.886
83.1572	45.0712
86.4573	49.8575
90.4085	53.6467
