Adsorption isotherm of Carbon Dioxide on IRMOF-8
DOI: 10.1021/Jp307319u
Adsorbate Carbon Dioxide: InChIKey CURLTUGMZLYLDI-UHFFFAOYSA-N
Temperature: 220 K
Tabular data in the source: 0
pressure (bar)	uptake (mmol/g)
0.0177397	0.428571
0.226616	0.571429
0.324381	0.714286
0.439886	1.28571
0.582057	1.85714
0.72419	2.85714
0.892851	5.42857
0.968216	7.57143
1.03013	11
1.05197	15.2857
1.05961	29.4286
1.05999	25.1429
1.06041	20.4286
1.06815	33.2857
1.09453	36.5714
1.16988	38.8571
1.22754	40.1429
1.28966	41.2857
1.36957	42.2857
1.45394	43.1429
1.55164	44
