Adsorption isotherm of Carbon Dioxide on IRMOF-10
DOI: 10.1021/Jp307319u
Adsorbate Carbon Dioxide: InChIKey CURLTUGMZLYLDI-UHFFFAOYSA-N
Temperature: 340 K
Tabular data in the source: 0
pressure (bar)	uptake (mmol/g)
63.0754	1.2
72.878	3.4
80.0663	7.2
84.9671	12.2
89.5408	18.8
92.4808	25.6
95.4206	32.8
98.6875	38.4
103.262	42.8
109.143	46.4
114.371	50
