Adsorption isotherm of Carbon Dioxide on IRMOF-10
DOI: 10.1021/Jp307319u
Adsorbate Carbon Dioxide: InChIKey CURLTUGMZLYLDI-UHFFFAOYSA-N
Temperature: 360 K
Tabular data in the source: 0
pressure (bar)	uptake (mmol/g)
47.2184	-0.105273
52.4637	0.304049
59.6761	0.717295
66.5605	1.52875
73.1171	2.73841
78.3622	4.54374
83.2793	7.545
87.5406	11.5421
90.4905	15.5366
93.4404	20.3288
96.0624	25.1204
98.6844	29.5131
100.651	33.1067
103.273	37.1006
106.879	40.8969
111.468	44.4958
115.074	47.4945
