Adsorption isotherm of Carbon Dioxide on IRMOF-10
DOI: 10.1021/Jp307319u
Adsorbate Carbon Dioxide: InChIKey CURLTUGMZLYLDI-UHFFFAOYSA-N
Temperature: 260 K
Tabular data in the source: 0
pressure (bar)	uptake (mmol/g)
46.0617	0.8
52.9734	1.8
57.5837	3
63.516	5.6
67.1486	8.8
70.4569	13
72.4523	17.8
73.4673	24
74.1524	30
74.5041	35
74.8549	39.8
75.8644	44.8
77.5318	49.8
80.5121	54.2
84.4736	57.4
