Adsorption isotherm of Carbon Dioxide on IRMOF-1
DOI: 10.1021/Jp307319u
Adsorbate Carbon Dioxide: InChIKey CURLTUGMZLYLDI-UHFFFAOYSA-N
Temperature: 320 K
Tabular data in the source: 0
pressure (bar)	uptake (mmol/g)
35.7441	0
55.742	0.689655
61.9706	1.49425
69.1826	3.33333
75.4107	6.43678
79.0159	10.2299
82.621	14.5977
86.882	18.2759
90.4876	20.8046
95.7323	23.2184
99.666	24.4828
106.223	25.4023
111.14	26.2069
114.418	26.7816
