Adsorption isotherm of Carbon Dioxide on IRMOF-8
DOI: 10.1021/Jp307319u
Adsorbate Carbon Dioxide: InChIKey CURLTUGMZLYLDI-UHFFFAOYSA-N
Temperature: 320 K
Tabular data in the source: 0
pressure (bar)	uptake (mmol/g)
56.4042	1.00287
61.3245	1.43266
66.5771	2.5788
71.1768	4.15473
75.4542	6.59026
79.0786	9.45559
81.7222	12.7507
84.3677	16.3324
86.6844	19.7708
88.3445	23.0659
90.6594	26.2178
93.2994	28.9398
96.9211	31.3754
101.192	32.808
106.445	33.9542
110.714	35.1003
114.329	36.533
