Adsorption isotherm of Carbon Dioxide on IRMOF-8
DOI: 10.1021/Jp307319u
Adsorbate Carbon Dioxide: InChIKey CURLTUGMZLYLDI-UHFFFAOYSA-N
Temperature: 260 K
Tabular data in the source: 0
pressure (bar)	uptake (mmol/g)
30.7258	0.240456
36.6075	0.516191
41.1822	0.935829
47.0638	1.49566
51.9651	2.34096
56.5396	3.47083
60.4604	5.1698
63.4009	7.29631
65.6877	9.84988
67.321	12.5464
68.3007	15.8121
69.607	19.5034
70.5864	24.0475
71.566	27.1711
72.8724	30.8624
74.8323	33.9846
79.0796	37.1036
83.6538	39.7959
