Adsorption isotherm of Carbon Dioxide on IRMOF-8
DOI: 10.1021/Jp307319u
Adsorbate Carbon Dioxide: InChIKey CURLTUGMZLYLDI-UHFFFAOYSA-N
Temperature: 220 K
Tabular data in the source: 0
pressure (bar)	uptake (mmol/g)
11.7735	0.268141
21.2496	0.539542
29.4186	0.955254
35.9538	1.80064
43.1422	3.4998
48.3698	6.76871
50.9832	10.3262
51.3088	16.1662
51.6328	30.1259
51.633	29.1287
51.9611	22.2907
52.2852	35.5381
53.592	37.1031
56.2056	39.806
59.4728	41.7956
67.3146	44.6334
