Adsorption isotherm of Carbon Dioxide on IRMOF-8
DOI: 10.1021/Jp307319u
Adsorbate Carbon Dioxide: InChIKey CURLTUGMZLYLDI-UHFFFAOYSA-N
Temperature: 300 K
Tabular data in the source: 0
pressure (bar)	uptake (mmol/g)
52.4636	0.997151
56.7253	1.7094
61.9705	2.42165
64.9209	3.4188
68.5268	4.70085
71.477	6.41026
74.0993	8.40456
76.0659	10.2564
77.7047	12.3932
79.3433	15.0997
80.6542	17.3789
81.965	19.943
82.9481	22.2222
84.2589	25.0712
85.5698	27.208
87.2086	29.2023
89.503	31.339
91.7975	33.1909
95.0755	34.7578
