Adsorption isotherm of Carbon Dioxide on IRMOF-10
DOI: 10.1021/Jp307319u
Adsorbate Carbon Dioxide: InChIKey CURLTUGMZLYLDI-UHFFFAOYSA-N
Temperature: 320 K
Tabular data in the source: 0
pressure (bar)	uptake (mmol/g)
60.3316	1.46677
65.2491	2.05192
70.4942	3.82622
75.7392	6.39372
80.0006	9.95467
83.6062	14.3101
86.5558	20.4516
88.5221	25.8018
90.4883	31.152
92.4546	36.1056
94.421	40.4643
97.6989	43.8289
102.616	46.5954
108.517	49.3599
114.417	52.7193
