Adsorption isotherm of Carbon Dioxide on IRMOF-8
DOI: 10.1021/Jp307319u
Adsorbate Carbon Dioxide: InChIKey CURLTUGMZLYLDI-UHFFFAOYSA-N
Temperature: 220 K
Tabular data in the source: 0
pressure (bar)	uptake (mmol/g)
0.00879899	0.285714
0.0707206	0.428571
0.198989	0.714286
0.278635	0.714286
0.455575	1
0.610291	1.85714
0.773755	3.28571
0.906094	5.57143
1.00286	8.85714
1.04642	12.7143
1.05019	16.4286
1.05234	29.2857
1.05398	20
1.05762	24.4286
1.06056	32.8571
1.09965	37
1.20083	40.2857
1.3332	42.4286
1.44799	43.8571
1.54073	44.8571
