Adsorption isotherm of Ammonia on H-ZSM-5
DOI: 10.1016/S0040-6031(00)00516-5
Adsorbate Ammonia: InChIKey QGZKDVFQNNGYKY-UHFFFAOYSA-N
Temperature: 473 K
Tabular data in the source: 0
pressure (bar)	uptake (mmol/kg)
0.134753	406.789
0.188812	423.951
0.249879	426.096
0.316953	423.951
0.37802	428.241
0.441089	428.241
0.501155	428.241
0.566227	434.677
0.628295	436.822
