Adsorption isotherm of Ammonia on H-ZSM-5
DOI: 10.1016/S0040-6031(00)00516-5
Adsorbate Ammonia: InChIKey QGZKDVFQNNGYKY-UHFFFAOYSA-N
Temperature: 473 K
Tabular data in the source: 0
pressure (bar)	uptake (mmol/kg)
0.000605	559.099
0.00561073	752.168
0.0126184	865.865
0.028636	932.366
0.0526624	1039.63
0.0826954	1099.69
0.106722	1149.03
0.134753	1194.08
0.253884	1314.21
0.376018	1408.6
0.436084	1449.36
0.500154	1485.83
0.566227	1522.3
0.626293	1563.06
