Adsorption isotherm of Ammonia on H-ZSM-5
DOI: 10.1016/S0040-6031(00)00516-5
Adsorbate Ammonia: InChIKey QGZKDVFQNNGYKY-UHFFFAOYSA-N
Temperature: 473 K
Tabular data in the source: 0
pressure (bar)	uptake (mmol/kg)
0.000605	175.106
0.00761293	355.304
0.0176239	477.581
0.0246316	533.357
0.058669	644.908
0.0846976	696.393
0.139758	782.201
0.190814	846.558
0.315952	943.093
0.379021	996.723
0.503157	1058.93
0.56022	1084.68
0.630297	1119
