Adsorption isotherm of Carbon Dioxide on Co8-IRMOF-1
DOI: 10.1021/La100423a
Adsorbate Carbon Dioxide: InChIKey CURLTUGMZLYLDI-UHFFFAOYSA-N
Temperature: 273 K
Tabular data in the source: 0
pressure (bar)	uptake (wt%)
0.0561856	1.57853
0.689988	7.39543
2.02802	16.4659
2.98576	22.2828
3.98576	29.1842
5.01393	36.0856
7.49281	51.7616
9.99985	63.2968
