Adsorption isotherm of Carbon Dioxide on IRMOF-1
DOI: 10.1021/La100423a
Adsorbate Carbon Dioxide: InChIKey CURLTUGMZLYLDI-UHFFFAOYSA-N
Temperature: 273 K
Tabular data in the source: 0
pressure (bar)	uptake (wt%)
0.0702701	1.87431
0.253369	4.04332
0.478721	5.91656
0.732242	7.98698
0.971679	9.95881
2.01393	16.4659
2.98576	21.987
3.99985	28.1982
4.95759	34.2123
7.52097	48.2123
9.2252	56.0011
9.94351	59.2546
