Adsorption isotherm of Methane on Co21-IRMOF-1
DOI: 10.1021/La100423a
Adsorbate Methane: InChIKey VNWKTOKETHGBQD-UHFFFAOYSA-N
Temperature: 273 K
Tabular data in the source: 0
pressure (bar)	uptake (wt%)
0.35196	0.352265
0.50689	0.49311
0.732242	0.831138
0.999848	1.08466
2.01393	2.00015
2.95759	2.83114
3.99985	3.56353
5.02802	4.26776
7.47872	5.90156
9.97168	7.45086
