Adsorption isotherm of Hydrogen on Co8-IRMOF-1
DOI: 10.1021/La100423a
Adsorbate Hydrogen: InChIKey UFHFLCQGNIYNRP-UHFFFAOYSA-N
Temperature: 77 K
Tabular data in the source: 0
pressure (bar)	uptake (wt%)
0.0309554	0.0676285
0.0534906	0.173262
0.0732089	0.247206
0.146448	0.403544
0.19997	0.496502
0.295744	0.627488
0.402786	0.750023
0.501378	0.845093
0.746448	1.05214
1.00279	1.2296
