Adsorption isotherm of Hydrogen on IRMOF-1
DOI: 10.1021/La100423a
Adsorbate Hydrogen: InChIKey UFHFLCQGNIYNRP-UHFFFAOYSA-N
Temperature: 77 K
Tabular data in the source: 0
pressure (bar)	uptake (wt%)
0.0112371	0.0803046
0.121096	0.314812
0.205603	0.456361
0.301378	0.595798
0.504195	0.821854
0.743631	1.01622
1.01405	1.1958
