Adsorption isotherm of Methane on Co8-IRMOF-1
DOI: 10.1021/La100423a
Adsorbate Methane: InChIKey VNWKTOKETHGBQD-UHFFFAOYSA-N
Temperature: 273 K
Tabular data in the source: 0
pressure (bar)	uptake (wt%)
0.126608	0.169167
0.985763	1.07057
1.99985	2.00015
2.97168	2.74663
3.95759	3.45086
5.02802	4.15508
7.47872	5.70438
9.97168	7.07057
