Adsorption isotherm of Hydrogen on Co8-IRMOF-1
DOI: 10.1021/La100423a
Adsorbate Hydrogen: InChIKey UFHFLCQGNIYNRP-UHFFFAOYSA-N
Temperature: 77 K
Tabular data in the source: 0
pressure (bar)	uptake (wt%)
0.0944547	0.0550674
0.123058	0.18092
0.165962	0.38114
0.237469	0.47839
0.35188	0.615683
0.509196	0.833065
0.780923	1.05045
1.03835	1.23351
1.98224	1.72547
2.98334	2.08015
3.99875	2.36618
4.97124	2.6236
7.5169	3.08125
9.99104	3.4016
