Adsorption isotherm of Methane on IRMOF-1
DOI: 10.1021/La100423a
Adsorbate Methane: InChIKey VNWKTOKETHGBQD-UHFFFAOYSA-N
Temperature: 273 K
Tabular data in the source: 0
pressure (bar)	uptake (wt%)
0.0984391	0.155082
0.464636	0.591702
0.957594	1.16917
1.98576	2.141
3.01393	2.85931
4.01393	3.57762
4.98576	4.19734
7.45055	5.63396
9.97168	6.94381
