Adsorption isotherm of Hydrogen on Co21-IRMOF-1
DOI: 10.1021/La100423a
Adsorbate Hydrogen: InChIKey UFHFLCQGNIYNRP-UHFFFAOYSA-N
Temperature: 77 K
Tabular data in the source: 0
pressure (bar)	uptake (wt%)
0.0112371	0.0274877
0.014054	0.14791
0.0844766	0.333826
0.107012	0.390868
0.205603	0.572558
0.349265	0.769037
0.501378	0.923262
0.754899	1.15354
0.988702	1.32467
