Adsorption isotherm of Carbon Dioxide on Co21-IRMOF-1
DOI: 10.1021/La100423a
Adsorbate Carbon Dioxide: InChIKey CURLTUGMZLYLDI-UHFFFAOYSA-N
Temperature: 273 K
Tabular data in the source: 0
pressure (bar)	uptake (wt%)
0.689988	6.70529
0.971679	8.38135
1.97168	14.8884
3.01393	21.8884
4.01393	29.0856
5.01393	37.3673
7.47872	56.494
9.97168	66.4518
