Adsorption isotherm of Hydrogen on Co21-IRMOF-1
DOI: 10.1021/La100423a
Adsorbate Hydrogen: InChIKey UFHFLCQGNIYNRP-UHFFFAOYSA-N
Temperature: 77 K
Tabular data in the source: 0
pressure (bar)	uptake (wt%)
0.0515504	0.0264646
0.0658518	0.140876
0.123058	0.375419
0.223168	0.564198
0.380483	0.758698
0.523498	0.907433
0.766622	1.13626
1.02405	1.31931
1.99654	1.80556
2.98334	2.17168
3.98444	2.48059
5.04275	2.7323
7.5026	3.21854
10.0053	3.57322
