Adsorption isotherm of Hydrogen on IRMOF-1
DOI: 10.1021/La100423a
Adsorbate Hydrogen: InChIKey UFHFLCQGNIYNRP-UHFFFAOYSA-N
Temperature: 77 K
Tabular data in the source: 0
pressure (bar)	uptake (wt%)
0.123058	0.335375
0.523498	0.867389
0.995445	1.24495
2.49709	1.88565
3.71272	2.24033
5.01415	2.58356
7.47399	3.00116
10.0483	3.32151
