Adsorption isotherm of Nitrogen on Fe2O3/Al-MCM-41
DOI: 10.1039/c7ra08507a
Article source: Figure 3
Adsorbate Nitrogen: InChIKey IJGRMHOSHXDMSA-UHFFFAOYSA-N
Kind: experiment
Temperature: 77 K
Tabular data in the source: 0
pressure (bar)	uptake (cm3(STP)/g)
0.010274	55.132
0.033396	67.287
0.065222	76.166
0.07964	79.639
0.099996	83.706
0.119764	87.228
0.125884	90.205
0.14091	90.651
0.161853	94.271
0.181621	98.24
0.202565	101.364
0.204146	104.54
0.248616	111.335
0.254148	114.212
0.299207	125.671
0.306127	135.048
0.358886	166.502
0.359484	163.575
0.406518	173.446
0.4243	172.155
0.456916	175.478
0.471932	173.988
0.507902	176.963
0.523911	175.524
0.556709	176.217
0.558685	178.251
0.605131	177.455
0.608495	179.241
0.658093	178.842
0.660464	180.131
0.705725	180.129
0.710659	181.717
0.757308	181.268
0.763033	182.806
0.807696	182.555
0.80948	184.193
0.829238	183.745
0.839714	185.283
0.86007	184.736
0.869159	186.472
0.885168	185.727
0.895047	187.81
0.911451	187.016
0.920935	189.645
0.934776	188.85
0.946823	192.918
0.960664	191.032
0.973907	199.02
0.986349	195.695
0.990898	207.404
0.993269	199.217
1.00414	207.403
1.00651	217.376
