Adsorption isotherm of Nitrogen on fe2O3/MCM-41
DOI: 10.1039/c7ra08507a
Article source: Figure 3
Adsorbate Nitrogen: InChIKey IJGRMHOSHXDMSA-UHFFFAOYSA-N
Kind: experiment
Temperature: 77 K
Tabular data in the source: 0
pressure (bar)	uptake (cm3(STP)/g)
0.009281	39.67
0.033578	49.68
0.065384	56.72
0.08043	59.09
0.10183	62.22
0.121294	65.21
0.142501	68.04
0.143473	69.79
0.162552	70.79
0.183567	73.54
0.202849	78.82
0.203426	76.91
0.250278	85.32
0.254331	87.23
0.300017	95.41
0.309086	99
0.354387	107.19
0.359403	108.94
0.403357	114.15
0.40741	113.08
0.451749	117.74
0.454069	120.34
0.504183	122.94
0.511519	131.04
0.555473	128.68
0.559526	136.93
0.605405	134.95
0.60579	144.96
0.656684	142.37
0.659207	160.56
0.705461	151.54
0.713	180.36
0.756174	163.09
0.764087	188.08
0.806491	176.62
0.812671	194.28
0.830018	182.74
0.837739	197.11
0.860678	189.31
0.864153	200.32
0.886313	195.28
0.890761	204.76
0.910995	200.48
0.915433	210.11
0.934907	207.13
0.940885	217.91
0.960167	226.16
0.96036	216.3
0.984464	229.99
0.984667	244.66
0.993533	239.31
0.994891	256.43
1.00183	253.37
1.00781	266.83
