Adsorption isotherm of Carbon Tetrachloride on CPL-11
DOI: 10.1039/C0sc00272k
Adsorbate Carbon Tetrachloride: InChIKey VZGDMQKNWNREIO-UHFFFAOYSA-N
Temperature: 298 K
Tabular data in the source: 0
pressure (bar)	uptake (molecules/pore)
0.000550332	0.000550332
0.000825498	0.118734
0.00110066	0.817942
0.00385233	0.963061
0.00825498	0.989446
0.013208	1.00264
0.0176106	1.02902
0.0220133	1.02902
0.0291676	1.04222
0.0363219	1.0686
0.0429259	1.08179
0.0500802	1.10818
0.0572346	1.10818
0.0643889	1.13456
0.071268	1.14776
0.077872	1.17414
0.0847512	1.17414
0.0919055	1.20053
0.0987847	1.24011
0.105389	1.26649
