Adsorption isotherm of Oxygen on CPL-11
DOI: 10.1039/C0sc00272k
Adsorbate Oxygen: InChIKey MYMOFIZGZYHOMD-UHFFFAOYSA-N
Temperature: 100 K
Tabular data in the source: 0
pressure (bar)	uptake (ml/g)
0.0301773	5.67367
0.0552006	6.41897
0.105218	6.97061
0.205252	8.07388
0.310263	8.42482
0.41028	8.96472
0.510297	9.50463
0.612808	9.85615
0.710319	10.2088
0.815336	10.7476
0.915353	11.2875
0.97037	11.8379
