Adsorption isotherm of Carbon Dioxide on CPL-11
DOI: 10.1039/C0sc00272k
Adsorbate Carbon Dioxide: InChIKey CURLTUGMZLYLDI-UHFFFAOYSA-N
Temperature: 195 K
Tabular data in the source: 0
pressure (bar)	uptake (molecules/pore)
0.00859349	1.56579
0.0087865	1.03947
0.00882992	0.921053
0.0105332	1.27632
0.0120772	2.06579
0.012304	1.44737
0.0124053	1.17105
0.0139976	1.82895
0.017491	2.30263
0.0192377	2.53947
0.0246659	2.73684
0.0300989	2.92105
0.03738	3.06579
0.0464801	3.25
0.0519132	3.43421
0.0628565	3.59211
0.0719711	3.73684
0.0810905	3.86842
0.0938819	3.98684
0.108512	4.09211
0.123151	4.17105
0.137785	4.26316
0.154263	4.32895
0.172579	4.38158
0.189057	4.44737
0.205544	4.48684
0.223865	4.52632
0.244015	4.57895
0.260502	4.61842
0.287995	4.64474
0.311822	4.67105
0.335643	4.71053
0.361298	4.75
0.38512	4.78947
0.436439	4.84211
0.485935	4.86842
0.53725	4.93421
0.590418	4.94737
0.643581	4.97368
0.696744	5
