Adsorption isotherm of Argon on CPL-11
DOI: 10.1039/C0sc00272k
Adsorbate Argon: InChIKey XKRFYHLGVUSROY-UHFFFAOYSA-N
Temperature: 77 K
Tabular data in the source: 0
pressure (bar)	uptake (molecules/pore)
0.000996979	0.0131926
0.0044864	0.0527704
0.0139577	0.0923483
0.0348943	0.0923483
0.0623112	0.118734
0.0902266	0.131926
0.118142	0.145119
0.14506	0.158311
0.172477	0.184697
