Adsorption isotherm of Argon on CPL-11
DOI: 10.1039/C0sc00272k
Adsorbate Argon: InChIKey XKRFYHLGVUSROY-UHFFFAOYSA-N
Temperature: 120 K
Tabular data in the source: 0
pressure (bar)	uptake (ml/g)
0.0261102	0.747664
0.0559355	1.1215
0.108127	1.68224
0.207517	2.05607
0.306914	2.61682
0.408789	2.99065
0.510658	3.17757
0.612533	3.5514
0.714402	3.73832
0.816265	3.73832
0.918134	3.92523
0.972804	4.29907
