Adsorption isotherm of Hydrogen on CPL-11
DOI: 10.1039/C0sc00272k
Adsorbate Hydrogen: InChIKey UFHFLCQGNIYNRP-UHFFFAOYSA-N
Temperature: 77 K
Tabular data in the source: 0
pressure (bar)	uptake (ml/g)
0.0091302	0.416667
0.033909	0.416667
0.0648729	0.694444
0.0999713	0.833333
0.133	1.11111
0.166024	1.52778
0.201127	1.52778
0.234161	1.66667
0.265134	1.66667
0.302293	1.94444
0.333266	1.94444
0.366295	2.22222
0.401398	2.22222
0.434422	2.63889
0.469521	2.77778
0.502569	2.5
0.537663	2.77778
0.568636	2.77778
0.603739	2.77778
0.638838	2.91667
0.671876	2.91667
0.70697	3.19444
0.737943	3.19444
0.770977	3.33333
0.80401	3.47222
0.847373	3.47222
