Adsorption isotherm of Nitrogen on CPL-11
DOI: 10.1039/C0sc00272k
Adsorbate Nitrogen: InChIKey IJGRMHOSHXDMSA-UHFFFAOYSA-N
Temperature: 77 K
Tabular data in the source: 0
pressure (bar)	uptake (molecules/pore)
0.0035321	0.0191847
0.00358702	0.143885
0.00536997	0.191847
0.0124299	0.220624
0.0282948	0.239808
0.0441597	0.258993
0.0600161	0.258993
0.0758767	0.268585
0.0899755	0.278177
0.10759	0.268585
0.121684	0.268585
0.137545	0.278177
0.153401	0.278177
0.167496	0.278177
0.185114	0.278177
0.202732	0.278177
0.218584	0.268585
0.232683	0.278177
0.250306	0.28777
0.266162	0.28777
0.287308	0.297362
0.308454	0.306954
0.33135	0.28777
0.350734	0.297362
0.393018	0.297362
0.433544	0.306954
0.477594	0.316547
0.519877	0.316547
0.56217	0.335731
0.602704	0.364508
0.644992	0.374101
