Adsorption isotherm of Oxygen on CPL-11
DOI: 10.1039/C0sc00272k
Adsorbate Oxygen: InChIKey MYMOFIZGZYHOMD-UHFFFAOYSA-N
Temperature: 110 K
Tabular data in the source: 0
pressure (bar)	uptake (ml/g)
0.00505425	1.7359
0.0253358	10.7452
0.0504882	15.622
0.105546	17.487
0.205581	18.5902
0.310615	19.6923
0.410621	19.8567
0.510643	20.5844
0.615666	21.3109
0.715683	21.8508
0.815706	22.5785
0.918228	23.3056
0.965751	24.0456
