Adsorption isotherm of Xenon on CPL-11
DOI: 10.1039/C0sc00272k
Adsorbate Xenon: InChIKey FHNFHKCVQCLJFQ-UHFFFAOYSA-N
Temperature: 195 K
Tabular data in the source: 0
pressure (bar)	uptake (molecules/pore)
0.0387816	0.343008
0.0465379	0.501319
0.0620505	0.686016
0.0853195	0.844327
0.0930758	1.01583
0.100832	1.18734
0.116345	1.34565
0.124101	1.59631
0.139614	2.03166
0.162883	2.41425
0.186152	2.51979
0.201664	2.59894
0.248202	2.71768
0.29474	2.79683
0.349034	2.8628
0.387816	2.92876
0.44211	2.95515
0.488648	3.00792
0.604993	3.0343
0.698068	3.04749
0.806657	3.06069
0.915245	3.04749
1.02383	3.06069
