Adsorption isotherm of Nitrogen on CPL-2
DOI: 10.1039/C0sc00272k
Adsorbate Nitrogen: InChIKey IJGRMHOSHXDMSA-UHFFFAOYSA-N
Temperature: 77 K
Tabular data in the source: 0
pressure (bar)	uptake (molecules/pore)
0.00400952	1.10312
0.00440667	2.0048
0.00457567	2.38849
0.00624032	2.16787
0.00992874	2.54197
0.0134946	2.63789
0.0170648	2.74341
0.0206349	2.84892
0.027716	2.92566
0.0347929	2.99281
0.0454018	3.07914
0.0559939	3.1271
0.0824381	3.16547
0.105355	3.19424
0.130029	3.21343
0.158226	3.23261
0.17761	3.24221
0.205808	3.26139
0.232235	3.26139
0.258675	3.29017
0.283349	3.30935
0.334451	3.32854
0.385556	3.35731
0.436658	3.3765
0.487755	3.38609
0.537103	3.42446
0.591732	3.45324
0.642846	3.5012
