Adsorption isotherm of Hydrogen on CPL-1
DOI: 10.1039/C0sc00272k
Adsorbate Hydrogen: InChIKey UFHFLCQGNIYNRP-UHFFFAOYSA-N
Temperature: 77 K
Tabular data in the source: 0
pressure (bar)	uptake (ml/g)
0.000870616	0.416667
0.0173277	2.22222
0.0461549	4.58333
0.070862	6.66667
0.101754	9.02778
0.124401	10.9722
0.151164	13.3333
0.177931	15.5556
0.204703	17.6389
0.23146	20.1389
0.258227	22.3611
0.282915	25
0.309678	27.3611
0.336435	29.8611
0.363203	32.0833
0.392025	34.5833
0.416732	36.6667
0.441435	38.8889
0.468206	40.9722
0.497053	42.7778
0.525895	44.7222
0.55476	45.9722
0.583611	47.6389
0.612486	48.6111
0.639273	50.2778
0.668138	51.5278
0.697008	52.6389
0.725884	53.6111
0.756828	54.4444
0.785703	55.4167
0.814607	55.5556
0.843473	56.8056
