Adsorption isotherm of Argon on CPL-11
DOI: 10.1039/C0sc00272k
Adsorbate Argon: InChIKey XKRFYHLGVUSROY-UHFFFAOYSA-N
Temperature: 140 K
Tabular data in the source: 0
pressure (bar)	uptake (ml/g)
0.00373832	0.373832
0.0261044	0.560748
0.0534568	1.30841
0.108127	1.68224
0.202583	3.17757
0.304493	4.6729
0.411348	5.42056
0.510762	6.54206
0.612643	7.1028
0.712051	8.03738
0.813937	8.78505
0.918314	9.71963
0.968033	10.6542
