Adsorption isotherm of Nitrogen on CPL-1
DOI: 10.1039/C0sc00272k
Adsorbate Nitrogen: InChIKey IJGRMHOSHXDMSA-UHFFFAOYSA-N
Temperature: 77 K
Tabular data in the source: 0
pressure (bar)	uptake (molecules/pore)
0.000853449	1.93765
0.00193082	0.383693
0.00214207	0.863309
0.00252232	1.72662
0.00792187	1.98561
0.0184928	1.98561
0.0396389	1.9952
0.0678281	1.9952
0.0924936	1.9952
0.117163	2.0048
0.143591	2.0048
0.168256	2.0048
0.194684	2.0048
0.217587	2.0048
0.244019	2.01439
0.26868	2.0048
0.31802	2.02398
0.369117	2.03357
0.418452	2.04317
0.469545	2.04317
0.51888	2.05276
0.56822	2.07194
0.617555	2.08153
0.66689	2.09113
