Adsorption isotherm of Oxygen on CPL-11
DOI: 10.1039/C0sc00272k
Adsorbate Oxygen: InChIKey MYMOFIZGZYHOMD-UHFFFAOYSA-N
Temperature: 120 K
Tabular data in the source: 0
pressure (bar)	uptake (ml/g)
0.00506598	2.11149
0.00766573	5.30336
0.0152068	6.61615
0.025371	11.872
0.0431115	19.5673
0.0582698	24.6342
0.096016	32.5127
0.103575	34.3888
0.196285	41.1276
0.208809	41.8759
0.411483	47.4621
0.511576	50.4433
0.611605	51.3588
0.716645	52.6487
0.811692	54.1287
0.911738	55.6076
0.966778	56.9092
