Adsorption isotherm of Oxygen on CPL-11
DOI: 10.1039/C0sc00272k
Adsorbate Oxygen: InChIKey MYMOFIZGZYHOMD-UHFFFAOYSA-N
Temperature: 140 K
Tabular data in the source: 0
pressure (bar)	uptake (ml/g)
4.84e-05	1.54928
0.0101012	3.23707
0.0251715	5.48705
0.0528356	10.7388
0.0955583	17.8649
0.105605	19.3649
0.185968	30.9892
0.208574	34.3642
0.291355	43.3588
0.308914	45.2326
0.404124	51.9709
0.411653	52.9081
0.509311	57.9556
0.611957	62.6263
0.714568	66.1703
0.817184	69.9021
0.912266	72.5089
