Adsorption isotherm of Argon on CPL-11
DOI: 10.1039/C0sc00272k
Adsorbate Argon: InChIKey XKRFYHLGVUSROY-UHFFFAOYSA-N
Temperature: 100 K
Tabular data in the source: 0
pressure (bar)	uptake (ml/g)
0.00185759	0.792108
0.019195	0.974547
0.0315789	0.97166
0.0563467	1.33885
0.110836	1.88559
0.209907	2.60841
0.311455	2.77122
0.413003	3.12051
0.517028	3.09626
0.613622	3.26023
0.71517	3.23656
0.821672	3.21173
0.918266	3.18922
0.970279	3.36357
