Adsorption isotherm of Oxygen on CPL-11
DOI: 10.1039/C0sc00272k
Adsorbate Oxygen: InChIKey MYMOFIZGZYHOMD-UHFFFAOYSA-N
Temperature: 77 K
Tabular data in the source: 0
pressure (bar)	uptake (molecules/pore)
0.000714489	0.0791557
0.00214347	0.145119
0.00464418	0.171504
0.0064304	0.184697
0.00964561	0.197889
0.0128608	0.211082
0.0150043	0.211082
0.017505	0.224274
0.0200057	0.224274
0.0225064	0.224274
0.0275078	0.237467
0.0303658	0.25066
0.0328665	0.25066
0.0353672	0.263852
0.0385824	0.263852
0.0435839	0.277045
0.0485853	0.277045
0.0535867	0.290237
0.0585881	0.30343
0.0635896	0.30343
0.0693055	0.329815
0.0743069	0.329815
0.0793083	0.356201
0.0843098	0.369393
0.0889539	0.369393
0.0943126	0.395778
0.10503	0.422164
0.115033	0.448549
0.124321	0.474934
0.133967	0.501319
