Adsorption isotherm of Oxygen on CPL-11
DOI: 10.1039/C0sc00272k
Adsorbate Oxygen: InChIKey MYMOFIZGZYHOMD-UHFFFAOYSA-N
Temperature: 130 K
Tabular data in the source: 0
pressure (bar)	uptake (ml/g)
0.00515988	5.11616
0.0252771	8.86731
0.047953	14.4958
0.0555468	17.4987
0.0883283	26.5051
0.10594	30.069
0.181321	42.2579
0.208903	44.8805
0.30159	50.8682
0.304137	52.3699
0.404277	56.8535
0.506893	60.5852
0.611986	63.5653
0.817132	68.2119
0.917184	69.8786
0.96723	71.3692
