Adsorption isotherm of Nitrogen on C30H36Co2N4O13
DOI: 10.1039/C2ce25715g
Adsorbate Nitrogen: InChIKey IJGRMHOSHXDMSA-UHFFFAOYSA-N
Temperature: 77 K
Tabular data in the source: 0
pressure (bar)	uptake (cm3(STP)/g)
0.137828	1.35552
0.18153	1.35395
0.226912	1.3872
0.277337	1.35051
0.3244	1.3837
0.386591	1.3117
0.440378	1.37954
0.487441	1.30808
0.536185	1.30633
0.578206	1.3397
0.630311	1.44248
0.680736	1.51044
0.72948	1.71799
0.779905	1.85572
0.806799	2.02917
0.833692	2.30727
0.858904	2.65521
0.884117	3.21244
0.914372	4.6067
0.944627	8.12887
0.958073	11.7563
0.966478	16.2211
