Adsorption isotherm of Toluene on AC H
DOI: 10.1016/j.carbon.2005.12.001
Article source: Figure 2
Adsorbate Toluene: InChIKey YXFVVABEGXRONW-UHFFFAOYSA-N
Kind: experiment
Temperature: 298 K
Tabular data in the source: 0
pressure (bar)	uptake (mmol/g)
2e-06	0.753
3e-06	1.02
4e-06	1.4
5e-06	1.56
7e-06	1.83
1.7e-05	3.07
2.3e-05	3.34
4.7e-05	4.2
6e-05	4.41
6.4e-05	4.47
7.3e-05	4.63
9.2e-05	4.9
0.000124	5.22
0.000241	6.08
0.000383	6.57
0.000455	6.83
0.00061	7.21
0.000724	7.43
0.000974	7.8
0.001232	8.07
0.001455	8.29
0.001774	8.45
0.002096	8.61
0.002475	8.77
0.003691	8.99
0.004965	9.09
0.006064	9.15
0.007428	9.26
0.010006	9.36
0.012659	9.42
0.015956	9.58
0.018836	9.58
0.028084	9.85
0.033163	9.85
0.036649	9.9
