Adsorption isotherm of Benzene on AC E
DOI: 10.1016/j.carbon.2005.12.001
Article source: Figure 1
Adsorbate Benzene: InChIKey UHOVQNZJYSORNB-UHFFFAOYSA-N
Kind: experiment
Temperature: 298 K
Tabular data in the source: 0
pressure (bar)	uptake (mmol/g)
2e-06	0.442
3e-06	0.664
5e-06	0.811
7e-06	1.03
1e-05	1.25
5.1e-05	2.36
6.9e-05	2.51
0.000151	3.24
0.000199	3.54
0.000236	3.83
0.000291	4.06
0.000395	4.5
0.000808	4.94
0.001218	5.24
0.001548	5.53
0.001967	5.75
0.002411	6.05
0.003058	6.19
0.004023	6.41
0.004619	6.49
0.005482	6.64
0.006282	6.71
0.007195	6.93
0.008249	7
0.01637	7.45
0.018781	7.52
0.024619	7.59
0.032359	7.67
0.03972	7.74
0.04708	7.74
0.054059	7.89
0.084262	8.11
0.103424	8.11
0.118525	8.33
