Adsorption isotherm of Toluene on AC B (Westvaco BAX 950)
DOI: 10.1016/j.carbon.2005.12.001
Article source: Figure 2
Adsorbate Toluene: InChIKey YXFVVABEGXRONW-UHFFFAOYSA-N
Kind: experiment
Temperature: 298 K
Tabular data in the source: 0
pressure (bar)	uptake (mmol/g)
5e-06	0.161
9e-06	0.538
2e-05	0.915
5.2e-05	1.4
7.5e-05	1.61
0.000102	1.72
0.000151	1.83
0.000204	2.21
0.000258	2.31
0.000304	2.42
0.000409	2.58
0.0005	2.85
0.000656	2.96
0.0008	3.17
0.001008	3.34
0.001315	3.55
0.001505	3.77
0.001834	3.87
0.002096	4.04
0.002316	4.14
0.002558	4.25
0.002922	4.36
0.003828	4.63
0.005154	5
0.007656	5.38
0.010347	5.7
0.015425	6.3
0.020807	6.73
0.025431	7.32
0.03104	8.02
0.0343	8.13
0.036649	8.77
