Adsorption isotherm of Benzene on AC H
DOI: 10.1016/j.carbon.2005.12.001
Article source: Figure 1
Adsorbate Benzene: InChIKey UHOVQNZJYSORNB-UHFFFAOYSA-N
Kind: experiment
Temperature: 298 K
Tabular data in the source: 0
pressure (bar)	uptake (mmol/g)
1e-06	0.295
4e-06	0.59
5e-06	0.885
8e-06	0.959
1e-05	1.18
5.4e-05	2.58
7.1e-05	2.88
9.1e-05	3.02
0.000151	3.61
0.000199	3.98
0.000245	4.28
0.000301	4.57
0.000395	5.01
0.000808	6.05
0.001218	6.78
0.001548	7.15
0.001967	7.74
0.002411	8.11
0.003287	8.63
0.004162	9.07
0.004771	9.44
0.005482	9.73
0.006726	10
0.007703	10.2
0.012017	11
0.01637	11.2
0.02005	11.4
0.024619	11.5
0.031217	11.6
0.03972	11.8
0.052156	11.9
0.090226	12.3
0.118525	12.5
