Adsorption isotherm of Benzene on AC B (Westvaco BAX 950)
DOI: 10.1016/j.carbon.2005.12.001
Article source: Figure 1
Adsorbate Benzene: InChIKey UHOVQNZJYSORNB-UHFFFAOYSA-N
Kind: experiment
Temperature: 298 K
Tabular data in the source: 0
pressure (bar)	uptake (mmol/g)
3e-06	0.221
3.9e-05	0.59
7.9e-05	0.811
0.000157	1.03
0.000245	1.25
0.000321	1.4
0.000395	1.47
0.000808	1.99
0.001218	2.29
0.001497	2.51
0.00203	2.73
0.002411	2.95
0.003173	3.17
0.004023	3.39
0.004936	3.61
0.005672	3.83
0.006497	3.98
0.007195	4.13
0.007969	4.2
0.012017	4.79
0.015736	5.31
0.019416	5.53
0.02373	5.82
0.031217	6.34
0.03972	6.64
0.04873	7.08
0.055836	7.23
0.064085	7.52
0.073475	8.04
0.08718	8.63
0.09987	9.07
0.110657	9.51
0.122585	9.88
