Adsorption isotherm of Benzene, Toluene on AC F
DOI: 10.1016/j.carbon.2005.12.001
Article source: Table 4
Adsorbate Benzene: InChIKey UHOVQNZJYSORNB-UHFFFAOYSA-N
Adsorbate Toluene: InChIKey YXFVVABEGXRONW-UHFFFAOYSA-N
Kind: experiment
Temperature: 298 K
Tabular data in the source: 0
pressure (bar)	Benzene fraction	Benzene uptake (g/100g)	Toluene fraction	Toluene uptake (g/100g)	total uptake (g/100g)
0.000408	0.498013	5.7	0.501987	43.2	
