Adsorption isotherm of Toluene on AC E
DOI: 10.1016/j.carbon.2005.12.001
Article source: Figure 2
Adsorbate Toluene: InChIKey YXFVVABEGXRONW-UHFFFAOYSA-N
Kind: experiment
Temperature: 298 K
Tabular data in the source: 0
pressure (bar)	uptake (mmol/g)
1e-06	0.646
2e-06	0.753
3e-06	0.915
5e-06	1.51
1.6e-05	2.74
2.2e-05	3.07
4.5e-05	3.71
5.4e-05	3.87
6.2e-05	3.98
7.5e-05	4.09
9.2e-05	4.25
0.000124	4.52
0.000241	4.9
0.000371	5.17
0.000455	5.27
0.00061	5.49
0.000724	5.6
0.000944	5.7
0.00119	5.87
0.001455	5.97
0.001774	5.97
0.002168	6.08
0.002558	6.19
0.003691	6.3
0.004965	6.46
0.006291	6.46
0.007428	6.46
0.010347	6.51
0.012659	6.67
0.015425	6.67
0.022247	6.78
0.027174	6.78
0.032101	6.83
0.0379	7.1
