Adsorption isotherm of Toluene on AC A (Westvaco A1100 10x25)
DOI: 10.1016/j.carbon.2005.12.001
Article source: Figure 2
Adsorbate Toluene: InChIKey YXFVVABEGXRONW-UHFFFAOYSA-N
Kind: experiment
Temperature: 298 K
Tabular data in the source: 0
pressure (bar)	uptake (mmol/g)
2e-06	0.269
3e-06	0.538
5e-06	0.646
1.6e-05	1.13
2.1e-05	1.29
4.5e-05	1.72
6.2e-05	1.94
7.3e-05	2.04
9.2e-05	2.15
0.00012	2.42
0.000249	3.01
0.000371	3.39
0.00047	3.61
0.00061	3.93
0.000747	4.14
0.001008	4.52
0.001232	4.79
0.001455	5
0.001834	5.38
0.00224	5.65
0.002395	5.81
0.003691	6.51
0.004813	7
0.006064	7.37
0.007428	7.64
0.010006	8.13
0.012242	8.5
0.014933	8.83
0.017624	9.15
0.020807	9.63
0.028084	9.85
0.0343	10.4
