Adsorption isotherm of Benzene on AC A (Westvaco A1100 10x25)
DOI: 10.1016/j.carbon.2005.12.001
Article source: Figure 1
Adsorbate Benzene: InChIKey UHOVQNZJYSORNB-UHFFFAOYSA-N
Kind: experiment
Temperature: 298 K
Tabular data in the source: 0
pressure (bar)	uptake (mmol/g)
3e-06	0.221
4e-06	0.221
5e-06	0.369
8e-06	0.442
1e-05	0.516
5.1e-05	0.959
7.1e-05	1.18
0.000151	1.55
0.000206	1.77
0.000245	1.84
0.000321	2.06
0.000409	2.29
0.000782	2.88
0.001218	3.32
0.001497	3.61
0.001967	3.98
0.002411	4.2
0.003287	4.65
0.004023	5.01
0.004771	5.38
0.005863	5.68
0.006954	6.05
0.007969	6.34
0.012017	7.23
0.015736	7.96
0.02005	8.55
0.024619	9
0.032359	9.73
0.03972	10.2
0.04708	10.7
0.055836	11.1
0.064085	11.4
0.073475	11.9
0.090226	12.3
0.103424	12.8
0.110657	13.1
0.122585	13.6
