Adsorption isotherm of Acid Orange 7, Water on CeO2
DOI: 10.1016/j.jenvman.2016.07.067
Article source: Figure 3
Adsorbate Acid Orange 7: InChIKey CQPFMGBJSMSXLP-UHFFFAOYSA-M
Adsorbate Water: InChIKey XLYOFNOQVPJJNP-UHFFFAOYSA-N
Kind: experiment
Temperature: 295 K
Tabular data in the source: 0
pressure (bar)	Acid Orange 7 fraction	Acid Orange 7 uptake (mg/g)	Water fraction	Water uptake (mg/g)	total uptake (mg/g)
1.01325	1.057	0.318			
1.01325	27.974	13.804			
1.01325	87.009	35.509			
1.01325	215.258	67.259			
1.01325	401.131	106.497			
1.01325	513.928	109.126			
