Adsorption isotherm of Acid Orange 7, Water on CeO2
DOI: 10.1016/j.jenvman.2016.07.067
Article source: Figure 3
Adsorbate Acid Orange 7: InChIKey CQPFMGBJSMSXLP-UHFFFAOYSA-M
Adsorbate Water: InChIKey XLYOFNOQVPJJNP-UHFFFAOYSA-N
Kind: experiment
Temperature: 295 K
Tabular data in the source: 0
pressure (bar)	Acid Orange 7 fraction	Acid Orange 7 uptake (mg/g)	Water fraction	Water uptake (mg/g)	total uptake (mg/g)
1.01325	1.057	0.318			
1.01325	2.261	63.471			
1.01325	5.205	92.372			
1.01325	21.087	94.584			
1.01325	56.299	103.801			
1.01325	99.837	112.754			
1.01325	143.192	112.783			
1.01325	204.796	112.94			
1.01325	245.855	112.912			
1.01325	305.866	112.952			
1.01325	513.912	113.035			
