Adsorption isotherm of Acid Green 25, Water on CeO2
DOI: 10.1016/j.jenvman.2016.07.067
Article source: Figure 3
Adsorbate Acid Green 25: InChIKey FPAYXBWMYIMERV-UHFFFAOYSA-L
Adsorbate Water: InChIKey XLYOFNOQVPJJNP-UHFFFAOYSA-N
Kind: experiment
Temperature: 295 K
Tabular data in the source: 0
pressure (bar)	Acid Green 25 fraction	Acid Green 25 uptake (mg/g)	Water fraction	Water uptake (mg/g)	total uptake (mg/g)
1.01325	1.057	0.318			
1.01325	26.277	11.51			
1.01325	126.909	22.592			
1.01325	292.836	41.216			
1.01325	400.927	41.288			
1.01325	513.83	43.161			
