Adsorption isotherm of Nitrogen on c-HBC-COF (Chloroform treatment)
DOI: 10.1021/jacs.1c13534
Article source: Figure S17
Adsorbate Nitrogen: InChIKey IJGRMHOSHXDMSA-UHFFFAOYSA-N
Kind: experiment
Temperature: 77 K
Tabular data in the source: 0
pressure (bar)	uptake (cm3(STP)/g)
0.014351	47.3152
0.016296	101.166
0.019611	142.931
0.022966	185.795
0.025566	207.779
0.042339	222.101
0.057186	233.122
0.077333	240.858
0.104705	248.61
0.131959	253.065
0.175508	258.654
0.199029	259.804
0.233468	263.175
0.253456	266.515
0.282397	267.677
0.316756	268.85
0.347423	267.818
0.376284	266.782
0.410723	270.153
0.44536	279.019
0.465229	279.062
0.495857	276.931
0.52837	277.002
0.566302	277.084
0.597128	280.447
0.633611	290.417
0.666323	295.982
0.69173	299.334
0.729821	303.812
0.767833	306.092
0.816444	301.802
0.848838	298.576
0.885242	306.347
0.910966	318.491
0.936731	331.733
0.945921	336.149
0.959002	348.265
0.962972	358.164
0.963011	359.263
