Adsorption isotherm of Nitrogen on c-HBC-COF (9M HCI treatment)
DOI: 10.1021/jacs.1c13534
Article source: Figure S17
Adsorbate Nitrogen: InChIKey IJGRMHOSHXDMSA-UHFFFAOYSA-N
Kind: experiment
Temperature: 77 K
Tabular data in the source: 0
pressure (bar)	uptake (cm3(STP)/g)
0.012307	40.7174
0.020445	66.0098
0.024931	90.1953
0.027412	108.882
0.029734	123.173
0.033942	139.665
0.034419	152.853
0.033009	163.839
0.03168	177.023
0.03035	190.207
0.032712	205.597
0.040254	214.404
0.051648	229.814
0.062764	237.53
0.090255	248.579
0.115742	254.129
0.135809	259.667
0.163023	263.022
0.182971	265.263
0.210105	266.421
0.244425	266.496
0.260721	267.63
0.296966	271.005
0.318642	271.052
0.34393	271.107
0.367491	273.356
0.396392	273.419
0.432557	274.596
0.461497	275.758
0.506615	274.757
0.551772	274.855
0.59163	278.238
0.696951	293.851
0.629959	289.31
0.655366	292.662
0.700603	294.958
0.731588	302.717
0.755189	306.065
0.785975	308.33
0.805923	310.571
0.834983	315.029
0.862236	319.484
0.887723	325.034
0.90787	332.77
0.933515	342.716
0.94467	351.531
0.959756	369.146
0.950447	361.434
0.913725	344.87
0.876964	327.208
0.84586	316.152
0.789508	306.139
0.734962	296.131
