Adsorption isotherm of Nitrogen on DHP-COF (6M NaOH Treatment)
DOI: 10.1021/jacs.1c13534
Article source: Figure S16
Adsorbate Nitrogen: InChIKey IJGRMHOSHXDMSA-UHFFFAOYSA-N
Kind: experiment
Temperature: 77 K
Tabular data in the source: 0
pressure (bar)	uptake (cm3(STP)/g)
4.7e-05	92.3839
0.000475	112.899
0.013905	141.172
0.020135	171.973
0.026236	197.645
0.037849	225.909
0.047516	249.035
0.059	272.17
0.072169	290.185
0.098442	323.652
0.102204	328.799
0.124519	349.425
0.139439	364.885
0.159742	377.808
0.176478	393.277
0.191267	403.609
0.213712	429.363
0.223119	442.231
0.234732	470.495
0.244269	488.492
0.257829	521.894
0.265289	529.624
0.272749	537.354
0.291236	550.268
0.305895	555.471
0.324187	560.692
0.351559	565.958
0.373417	568.633
0.402605	573.909
0.440808	576.666
0.46085	579.332
0.484394	576.887
0.500674	574.405
0.531482	571.997
0.558919	579.828
0.582594	582.512
0.600755	582.604
0.615088	574.984
0.664057	572.668
0.693245	577.944
0.713418	585.738
0.742736	596.143
0.764659	601.382
0.804744	606.714
0.826602	609.388
0.853909	612.091
0.893993	617.422
0.919549	622.679
0.946986	630.51
0.959764	633.139
0.932653	638.13
0.87668	650.667
0.821675	629.876
0.77997	632.229
0.729185	634.536
0.692928	636.917
0.652974	636.715
0.631051	631.475
0.625602	631.448
0.583832	631.236
0.567487	631.154
0.536614	630.997
0.511123	628.304
0.489069	617.936
0.460077	620.354
0.423494	609.912
0.396057	602.081
0.36687	596.805
0.332233	591.502
0.297728	591.327
0.282873	578.431
0.271129	545.038
0.259776	527.032
