Adsorption isotherm of Nitrogen on DHP-COF (Chloroform treatment)
DOI: 10.1021/jacs.1c13534
Article source: Figure S16
Adsorbate Nitrogen: InChIKey IJGRMHOSHXDMSA-UHFFFAOYSA-N
Kind: experiment
Temperature: 77 K
Tabular data in the source: 0
pressure (bar)	uptake (cm3(STP)/g)
0.00773	41.1412
0.008578	74.4788
0.009164	97.5587
0.009621	115.51
0.008652	148.838
0.008978	161.66
0.011446	187.314
0.014044	218.096
0.020145	243.768
0.024233	261.738
0.030073	277.152
0.043307	297.732
0.056411	313.182
0.080476	331.253
0.106423	351.897
0.123289	372.495
0.143788	393.112
0.164287	413.728
0.183034	436.9
0.196203	454.916
0.207621	475.486
0.217549	508.87
0.225205	524.293
0.232991	544.845
0.238896	562.824
0.246747	585.941
0.256283	603.938
0.27315	624.536
0.293388	634.895
0.311614	637.551
0.331721	642.781
0.358897	640.354
0.380691	640.465
0.406246	645.722
0.426288	648.388
0.468124	651.164
0.493484	648.728
0.522476	646.311
0.550109	661.835
0.592205	674.869
0.617826	682.691
0.645328	693.086
0.686968	688.169
0.732826	706.349
0.754685	709.024
0.77103	709.107
0.80547	706.717
0.841857	709.465
0.872731	709.622
0.905551	714.916
0.931107	720.174
0.962176	728.023
0.932923	720.183
0.890892	709.714
0.843673	709.475
0.796585	714.365
0.743788	708.969
0.707401	706.221
0.670753	693.215
0.623404	687.847
0.588899	687.672
0.554523	692.627
0.532926	700.21
0.496539	697.461
0.469037	687.066
0.435956	671.514
0.415848	666.284
0.37771	666.091
0.336266	678.701
0.306817	663.168
0.28671	657.938
0.27179	642.478
0.2642	629.619
0.256544	614.195
0.246551	578.247
