Adsorption isotherm of Nitrogen on DHP-COF (Tetrahydrofuran treatment)
DOI: 10.1021/jacs.1c13534
Article source: Figure S16
Adsorbate Nitrogen: InChIKey IJGRMHOSHXDMSA-UHFFFAOYSA-N
Kind: experiment
Temperature: 77 K
Tabular data in the source: 0
pressure (bar)	uptake (cm3(STP)/g)
0.010068	61.6659
0.009229	100.123
0.012023	138.599
0.014752	174.51
0.01573	212.977
0.018524	251.452
0.021383	292.492
0.023982	323.275
0.031963	351.52
0.047144	377.238
0.062325	402.956
0.073482	413.269
0.086651	431.284
0.114675	462.195
0.135108	480.247
0.151909	498.281
0.168645	513.75
0.187458	539.487
0.200497	552.373
0.211915	572.944
0.223789	611.466
0.226192	634.555
0.230802	673.039
0.235282	706.395
0.250593	737.242
0.260195	757.804
0.275311	780.957
0.288284	791.279
0.306575	796.5
0.324867	801.721
0.346725	804.395
0.390181	799.487
0.411844	794.469
0.439476	809.993
0.481768	830.72
0.501875	835.95
0.532488	825.848
0.561546	825.995
0.576074	826.069
0.623358	828.872
0.657864	829.047
0.694055	824.102
0.753986	824.405
0.795822	827.181
0.808469	824.681
0.845117	837.687
0.86691	837.797
0.903232	837.981
0.937542	830.463
0.970427	838.321
0.894477	850.757
0.801466	834.902
0.719546	826.795
0.663182	823.946
0.619269	810.903
0.572181	815.793
0.523212	818.109
0.484422	792.272
0.449851	789.533
0.41366	794.478
0.377142	786.601
0.342115	765.911
0.307479	760.607
0.285034	734.852
0.273876	724.539
0.251496	701.349
0.2345	675.622
0.22853	655.079
