Adsorption isotherm of Nitrogen on c-HBC-COF (9M NaOH Treatment)
DOI: 10.1021/jacs.1c13534
Article source: Figure S17
Adsorbate Nitrogen: InChIKey IJGRMHOSHXDMSA-UHFFFAOYSA-N
Kind: experiment
Temperature: 77 K
Tabular data in the source: 0
pressure (bar)	uptake (cm3(STP)/g)
0.014947	63.8
0.020385	114.361
0.013021	160.499
0.017229	176.992
0.021199	186.891
0.025169	196.789
0.029139	206.688
0.033109	216.587
0.044304	226.501
0.057345	237.518
0.070306	246.338
0.088687	255.169
0.136047	266.26
0.164908	265.224
0.114094	258.521
0.18313	269.659
0.206731	273.007
0.228367	271.955
0.24109	274.181
0.25558	275.311
0.27011	277.54
0.306355	280.916
0.333489	282.073
0.356971	282.124
0.37684	282.167
0.389484	282.195
0.414971	287.745
0.442105	288.902
0.460207	290.041
0.472891	291.167
0.507211	291.241
0.534345	292.399
0.552447	293.537
0.574123	293.584
0.601296	295.841
0.630316	299.201
0.66275	297.073
0.690122	304.825
0.722596	303.797
0.751576	306.057
0.776983	309.409
0.809615	312.776
0.829564	315.018
0.867536	316.199
0.898362	319.562
0.93288	325.132
0.967676	338.394
0.971368	340.6
