Adsorption isotherm of Nitrogen on DHP-COF (12 M NaOH Treatment)
DOI: 10.1021/jacs.1c13534
Article source: Figure S16
Adsorbate Nitrogen: InChIKey IJGRMHOSHXDMSA-UHFFFAOYSA-N
Kind: experiment
Temperature: 77 K
Tabular data in the source: 0
pressure (bar)	uptake (cm3(STP)/g)
0.007087	87.2918
0.014231	153.995
0.012359	223.216
0.019046	271.968
0.022035	318.137
0.037477	354.112
0.048699	366.99
0.069328	392.735
0.089892	415.916
0.106758	436.514
0.125636	464.815
0.151844	495.717
0.166829	513.741
0.187393	536.922
0.204259	557.521
0.224953	585.83
0.234686	611.521
0.2391	642.312
0.245657	685.935
0.253443	706.487
0.268558	729.641
0.310915	752.932
0.31818	752.969
0.347563	765.938
0.385831	771.26
0.420402	773.999
0.454713	766.48
0.480073	764.045
0.51659	771.922
0.545843	779.762
0.569648	787.575
0.609733	792.906
0.634962	785.341
0.676472	775.295
0.692817	775.378
0.73861	790.994
0.758913	803.917
0.795561	816.923
0.810155	819.561
0.842975	824.856
0.868531	830.113
0.892205	832.797
0.928592	835.545
0.9487	840.775
0.943251	840.748
0.890519	837.917
0.841289	829.975
0.777726	829.654
0.743155	826.915
0.719676	831.924
0.6925	834.351
0.679657	829.157
0.655787	818.78
0.612266	821.124
0.563427	828.569
0.581457	823.532
0.531966	805.333
0.495579	802.585
0.484813	807.658
0.459584	815.223
0.428645	812.502
0.408472	804.708
0.381231	804.57
0.37202	799.395
0.341016	794.11
0.313579	786.279
0.291395	770.782
0.271287	765.552
0.260195	757.804
0.247156	744.917
0.242937	721.819
0.240535	698.73
0.232618	673.049
0.228204	642.257
0.227878	629.435
0.227552	616.613
