Adsorption isotherm of Nitrogen on c-HBC-COF (6M NaOH Treatment)
DOI: 10.1021/jacs.1c13534
Article source: Figure S17
Adsorbate Nitrogen: InChIKey IJGRMHOSHXDMSA-UHFFFAOYSA-N
Kind: experiment
Temperature: 77 K
Tabular data in the source: 0
pressure (bar)	uptake (cm3(STP)/g)
0.014153	41.8203
0.017467	83.5857
0.026003	119.868
0.014708	157.206
0.015502	179.186
0.017904	195.675
0.01846	211.06
0.029893	227.569
0.037476	237.475
0.046745	244.089
0.063359	254.015
0.079973	263.941
0.094542	267.269
0.121835	272.823
0.140017	276.159
0.156393	279.491
0.176302	280.634
0.196171	280.677
0.232416	284.052
0.24506	284.079
0.288411	284.173
0.326343	284.256
0.357169	287.619
0.393335	288.797
0.433073	288.883
0.462073	291.693
0.491272	299.998
0.509374	301.136
0.525909	308.864
0.569141	305.661
0.592741	309.009
0.610884	311.246
0.657808	310.249
0.68125	309.201
0.702885	308.149
0.733632	309.315
0.751774	311.552
0.780794	314.912
0.820572	316.097
0.840521	318.338
0.876726	320.614
0.900248	321.764
0.940224	328.444
0.952987	331.769
0.967676	338.394
