Adsorption isotherm of Nitrogen on DHP-COF (9M NaOH Treatment)
DOI: 10.1021/jacs.1c13534
Article source: Figure S16
Adsorbate Nitrogen: InChIKey IJGRMHOSHXDMSA-UHFFFAOYSA-N
Kind: experiment
Temperature: 77 K
Tabular data in the source: 0
pressure (bar)	uptake (cm3(STP)/g)
0.010459	77.0525
0.014808	105.28
0.013514	125.786
0.014035	146.301
0.016699	179.648
0.020983	205.311
0.027213	236.112
0.035325	269.486
0.043176	292.603
0.060238	320.894
0.082423	336.391
0.099159	351.86
0.123159	367.366
0.147225	385.437
0.164091	406.035
0.169735	413.756
0.210602	449.86
0.221759	460.173
0.235058	483.317
0.244791	509.008
0.247063	526.968
0.249466	550.057
0.255371	568.036
0.266724	586.042
0.285276	601.52
0.309081	609.333
0.327241	609.425
0.362138	624.986
0.386008	635.363
0.427844	638.139
0.444189	638.222
0.47876	640.961
0.50425	643.654
0.538691	641.264
0.565867	638.838
0.598557	639.003
0.624177	646.825
0.669775	654.748
0.717189	662.681
0.755523	670.567
0.791975	675.88
0.817531	681.137
0.841271	686.386
0.877592	686.569
0.930259	686.836
0.950236	686.937
0.961198	689.557
0.930781	707.351
0.892904	717.416
0.874221	696.809
0.825121	693.996
0.803067	683.628
0.753902	678.251
0.705129	688.261
0.687033	690.733
0.656225	693.141
0.612638	692.921
0.585397	692.783
0.549336	702.857
0.511328	707.793
0.465795	702.434
0.443937	699.759
0.420002	686.818
0.397883	673.885
0.377645	663.526
0.355722	658.287
0.344629	650.539
0.324261	635.051
0.314985	627.312
0.290854	606.677
0.268475	583.487
0.247976	562.87
