Adsorption isotherm of Nitrogen on c-HBC-COF (Tetrahydrofuran treatment)
DOI: 10.1021/jacs.1c13534
Article source: Figure S17
Adsorbate Nitrogen: InChIKey IJGRMHOSHXDMSA-UHFFFAOYSA-N
Kind: experiment
Temperature: 77 K
Tabular data in the source: 0
pressure (bar)	uptake (cm3(STP)/g)
0.006292	24.2208
0.025129	95.6902
0.021259	138.539
0.0237	156.127
0.024454	177.007
0.025209	197.888
0.020584	219.856
0.028365	235.258
0.045217	251.778
0.06187	262.803
0.080013	265.04
0.107345	271.693
0.121796	271.724
0.147163	273.977
0.170685	275.127
0.199585	275.19
0.232138	276.359
0.273762	278.647
0.29905	278.702
0.331484	276.575
0.355006	277.724
0.418543	286.653
0.462133	293.341
0.500025	292.325
0.538076	295.704
0.567096	299.064
0.588891	302.408
0.639507	303.616
0.673826	303.691
0.704573	304.856
0.738972	307.129
0.776904	307.211
0.820215	306.206
0.854455	304.083
0.907274	316.285
0.930915	320.732
0.956521	329.579
0.962019	331.788
