Adsorption isotherm of Nitrogen on DHP-COF
DOI: 10.1021/jacs.1c13534
Article source: Figure 2c
Adsorbate Nitrogen: InChIKey IJGRMHOSHXDMSA-UHFFFAOYSA-N
Kind: experiment
Temperature: 77 K
Tabular data in the source: 0
pressure (bar)	uptake (cm3(STP)/g)
0.002145	23.5037
0.00028	52.3044
0.000363	73.2466
0.004414	96.7963
0.004486	115.121
0.008558	143.906
0.00861	156.995
0.010662	175.314
0.012713	193.633
0.012775	209.34
0.016837	235.508
0.016941	261.685
0.019075	300.947
0.025105	324.492
0.033135	353.267
0.047081	376.791
0.070943	405.525
0.080879	415.97
0.098763	434.249
0.120625	457.753
0.138498	473.413
0.148455	489.094
0.168317	507.368
0.18819	528.259
0.198157	546.557
0.218113	588.391
0.222112	598.852
0.228184	632.867
0.228298	661.663
0.228422	693.076
0.230495	716.631
0.246472	753.239
0.250461	761.082
0.260397	771.528
0.309913	781.871
0.373251	784.325
0.424735	792.045
0.476241	805.001
0.527715	810.104
0.581127	804.73
0.678149	817.569
0.775223	843.496
0.874255	864.182
0.947529	877.082
0.039227	392.518
0.055121	408.184
0.074984	426.457
0.088888	439.51
0.102804	455.181
0.126624	473.444
0.142528	491.727
0.164359	507.378
0.178264	520.431
0.196168	543.945
0.208135	567.474
0.210218	593.647
0.212331	627.673
0.214383	645.992
0.212487	666.939
0.212559	685.264
0.212673	714.059
0.220683	737.599
0.23066	758.515
0.23867	782.055
0.252585	797.726
0.270447	810.769
0.286341	826.434
0.329889	828.94
0.377426	839.288
0.436817	844.37
0.496217	852.07
0.52986	851.983
0.587271	857.071
0.638787	872.644
0.688262	872.516
0.753568	872.348
0.803032	869.602
0.824801	869.546
0.850538	872.097
0.909908	871.944
