Adsorption isotherm of Nitrogen on c-HBC-COF (6M HCI treatment)
DOI: 10.1021/jacs.1c13534
Article source: Figure S17
Adsorbate Nitrogen: InChIKey IJGRMHOSHXDMSA-UHFFFAOYSA-N
Kind: experiment
Temperature: 77 K
Tabular data in the source: 0
pressure (bar)	uptake (cm3(STP)/g)
0.010421	38.5155
0.015582	81.3838
0.01316	114.346
0.019135	129.743
0.021298	139.638
0.023581	152.83
0.027551	162.728
0.029754	173.722
0.032037	186.914
0.037694	193.52
0.050775	205.636
0.067468	217.76
0.080549	229.876
0.099088	243.103
0.117548	254.132
0.135928	262.964
0.156036	269.601
0.179597	271.849
0.192281	272.976
0.219494	276.332
0.264612	275.331
0.304549	280.912
0.366042	283.243
0.413006	283.345
0.447365	284.518
0.501871	293.428
0.525393	294.578
0.559752	295.751
0.603381	303.538
0.625175	306.882
0.650582	310.234
0.692246	313.621
0.72472	312.592
0.748479	320.336
0.783077	328.104
0.823212	339.18
0.843081	339.223
0.885063	351.402
0.888715	352.508
0.903364	358.035
0.932979	377.879
0.938636	384.485
0.953642	399.902
0.841593	348.011
0.770671	334.67
0.727042	326.883
0.700652	321.331
0.672615	320.172
0.627498	321.173
0.578569	316.671
0.551316	312.216
0.525948	309.963
0.487818	304.386
0.458758	299.928
0.427893	295.465
0.393454	292.094
0.35705	284.322
