Adsorption isotherm of Nitrogen on c-HBC-COF
DOI: 10.1021/jacs.1c13534
Article source: Figure 2d
Adsorbate Nitrogen: InChIKey IJGRMHOSHXDMSA-UHFFFAOYSA-N
Kind: experiment
Temperature: 77 K
Tabular data in the source: 0
pressure (bar)	uptake (cm3(STP)/g)
0.011203	2.20399
0.007596	10.6128
0.010548	24.9631
0.011141	34.5398
0.011882	46.5106
0.012253	52.4959
0.008794	63.2989
0.009536	75.2697
0.007769	80.0727
0.008584	93.2405
0.009103	101.62
0.007633	111.211
0.008523	125.576
0.008893	131.562
0.009857	147.124
0.010153	151.912
0.012661	159.08
0.019886	175.795
0.023505	200.919
0.025865	205.693
0.028817	220.043
0.031398	228.408
0.031769	234.393
0.039143	253.503
0.045627	258.247
0.060808	270.116
0.077828	278.378
0.103322	290.173
0.126383	295.998
0.157621	300.567
0.190773	302.727
0.234164	303.617
0.275938	311.704
0.354767	318.33
0.402654	325.176
0.456656	330.782
0.506162	330.43
0.564289	336.006
0.624479	341.567
0.671848	340.034
0.765116	346.558
0.865091	361.418
0.965362	381.066
0.069429	276.043
0.090501	283.079
0.101185	288.991
0.122109	293.633
0.140748	294.698
0.163512	295.735
0.194824	301.501
0.234238	304.814
0.257151	308.244
0.280286	315.266
0.313586	319.82
0.340476	320.827
0.40678	325.147
0.473084	329.467
0.504321	334.036
0.570403	334.765
0.612177	342.852
0.659694	343.713
0.688572	343.508
0.721873	348.062
0.776023	356.062
0.84019	359.199
0.881963	367.286
0.928085	378.935
