Adsorption isotherm of Nitrogen on c-HBC-COF (12 M NaOH Treatment)
DOI: 10.1021/jacs.1c13534
Article source: Figure S17
Adsorbate Nitrogen: InChIKey IJGRMHOSHXDMSA-UHFFFAOYSA-N
Kind: experiment
Temperature: 77 K
Tabular data in the source: 0
pressure (bar)	uptake (cm3(STP)/g)
0.010461	39.6145
0.006272	73.6713
0.007543	108.839
0.008972	148.402
0.01719	175.893
0.021279	189.088
0.023521	201.181
0.031382	218.781
0.033625	230.874
0.043133	244.081
0.052561	255.09
0.065483	262.811
0.084062	277.137
0.100636	285.964
0.117171	293.692
0.133666	300.321
0.180907	308.116
0.191745	308.14
0.218958	311.495
0.244286	312.649
0.273187	312.712
0.309312	312.79
0.336685	320.542
0.351294	324.969
0.373009	326.115
0.392839	325.059
0.410901	325.098
0.441489	321.868
0.484682	317.566
0.522614	317.648
0.557132	323.218
0.582579	327.669
0.597188	332.096
0.626128	333.258
0.667673	333.348
0.69838	333.414
0.738237	336.797
0.767336	342.355
0.798123	344.62
0.828909	346.884
0.865114	349.161
0.897905	356.924
0.92371	371.266
0.938438	378.99
0.957017	393.316
0.96452	401.025
0.878433	367.871
0.829266	356.775
0.776646	350.068
0.709575	343.329
0.630217	346.453
0.666144	341.037
0.597386	337.591
0.554035	337.497
0.528787	338.541
0.512332	333.011
0.483352	330.75
0.461597	328.505
0.438036	326.256
0.409135	326.194
0.376622	326.123
0.345875	324.957
0.313362	324.887
0.28595	316.036
