Adsorption isotherm of N-propane on NU-1105
DOI: 10.1021/jacs.5b08860
Article source: Figure 2c
Adsorbate N-propane: InChIKey ATUOYWHBWRKTHZ-UHFFFAOYSA-N
Kind: experiment
Temperature: 273 K
Tabular data in the source: 0
pressure (bar)	uptake (cm3(STP)/g)
0	0
0.031692	10.311
0.047362	30.9329
0.047453	22.9133
0.055262	35.5155
0.079067	40.0982
0.102859	45.8265
0.126638	52.7005
0.158343	61.8658
0.190035	72.1768
0.213801	80.1964
0.229653	84.7791
0.23754	90.5074
0.253393	95.09
0.269258	98.527
0.277159	103.11
0.301002	104.255
0.324781	111.129
0.34856	118.003
0.372313	127.169
0.388152	132.897
0.419896	138.625
0.443675	145.499
0.459528	150.082
0.483319	155.81
0.507124	160.393
0.522964	166.121
0.538816	170.704
0.554669	175.286
0.570508	181.015
0.586322	189.034
0.610126	193.617
0.625979	198.2
0.633892	201.637
0.649758	205.074
0.657671	208.511
0.673537	211.948
0.697315	218.822
0.705216	223.404
0.721081	226.841
0.736947	230.278
0.74486	233.715
0.760738	236.007
0.784556	239.444
0.792456	244.026
0.808296	249.755
0.824148	254.337
0.839988	260.065
0.847836	269.231
0.855866	262.357
0.863806	263.502
0.879645	269.231
0.887571	271.522
0.911389	274.959
0.927255	278.396
0.943107	282.979
0.951047	284.124
0.974838	289.853
0.982713	296.727
0.990548	307.038
1.01444	303.601
1.03824	309.329
1.06999	313.912
1.09377	320.786
1.11756	326.514
1.14135	332.242
1.14926	336.825
1.18103	340.262
1.20469	357.447
1.21274	348.282
1.23653	354.01
1.27626	357.447
1.28409	367.758
1.29992	374.632
1.3948	422.75
1.42665	419.313
1.42675	410.147
1.48997	445.663
1.58524	459.411
1.60103	469.722
1.65672	467.43
1.72822	473.159
1.79167	488.052
1.79975	476.596
1.83139	491.489
1.85521	494.926
1.87926	477.741
1.88701	496.072
1.91879	498.363
1.94264	499.509
1.94283	482.324
1.96648	500.655
1.99032	501.8
2.01436	485.761
2.02212	502.946
2.06187	504.092
2.09385	489.198
2.11748	508.674
2.14949	491.489
2.189	513.257
2.21307	494.926
2.24463	516.694
2.26077	496.072
2.26846	518.985
2.29255	498.363
2.30025	520.131
2.33999	522.422
2.34024	500.655
2.35589	522.422
2.38769	523.568
2.39588	502.946
2.4195	523.568
2.45128	525.859
2.45152	505.237
2.47513	527.005
2.51485	530.442
2.51511	507.529
2.54664	531.588
2.57048	533.879
2.57074	510.966
2.61021	536.17
2.63405	537.316
2.64995	538.462
2.67379	539.607
2.70557	541.899
2.7138	517.84
2.73736	544.19
2.80832	598.036
2.8476	640.426
2.87137	647.3
2.89665	522.422
2.91111	649.591
2.94289	651.882
2.98264	653.028
3.03828	655.319
3.07009	655.319
3.1019	655.319
3.11123	533.879
3.17346	656.465
3.20527	656.465
3.26093	656.465
3.28478	657.61
3.31658	657.61
3.32584	543.044
3.3643	657.61
3.39609	658.756
3.4438	659.902
3.49946	659.902
3.50072	548.773
3.53127	659.902
3.61873	661.047
3.68233	663.339
3.70743	553.355
3.76183	664.484
3.79364	664.484
3.83339	665.63
3.9129	666.776
3.91397	572.831
3.9606	667.921
4.02422	667.921
4.09578	669.067
4.09662	594.599
4.15143	670.213
4.19915	670.213
4.22368	610.638
4.27866	671.358
4.31873	643.863
4.34225	673.65
4.38994	675.941
4.45353	678.232
4.50918	679.378
4.58865	683.961
4.62833	690.835
4.64417	696.563
4.67581	711.457
4.68375	712.602
