Adsorption isotherm of Nitrogen on NU-1104
DOI: 10.1021/jacs.5b08860
Article source: Figure 4b
Adsorbate Nitrogen: InChIKey IJGRMHOSHXDMSA-UHFFFAOYSA-N
Kind: experiment
Temperature: 77 K
Tabular data in the source: 0
pressure (bar)	uptake (cm3(STP)/g)
0	0
0.002559	90.5206
0.005117	117.693
0.007676	262.512
0.010235	307.784
0.017911	366.676
0.02047	398.373
0.025587	439.143
0.030705	466.338
0.035822	520.682
0.038381	552.379
0.040939	565.977
0.046057	597.696
0.051174	665.615
0.053733	701.837
0.05885	742.607
0.061409	769.779
0.063968	787.902
0.069085	828.671
0.071644	855.844
0.076761	883.039
0.07932	905.686
0.084437	928.356
0.089555	964.601
0.092114	978.198
0.097231	1005.39
0.09979	1014.47
0.107466	1037.16
0.112583	1068.88
0.117701	1082.5
0.12026	1096.1
0.125377	1109.72
0.130494	1118.81
0.133053	1136.93
0.135611	1150.53
0.138171	1164.13
0.145846	1173.25
0.150964	1209.49
0.153523	1227.62
0.15864	1236.71
0.161199	1254.83
0.166316	1268.45
0.173992	1309.25
0.176551	1318.32
0.17911	1363.59
0.184227	1390.79
0.186786	1417.96
0.189345	1476.8
0.19702	1526.65
0.204697	1549.34
0.209815	1576.53
0.214932	1603.73
0.22005	1621.87
0.225166	1640.02
0.232843	1658.19
0.240519	1671.83
0.248195	1680.95
0.255871	1694.59
0.263547	1703.71
0.271224	1703.78
0.2789	1703.85
0.286575	1708.44
0.29937	1708.56
0.307045	1713.15
0.31728	1713.24
0.330074	1713.36
0.347985	1718.04
0.355661	1718.11
0.363337	1722.7
0.373572	1727.32
0.381248	1727.39
0.391483	1732
0.401718	1732.09
0.414511	1732.21
0.422188	1741.33
0.434981	1745.97
0.440098	1746.01
0.442658	1750.56
0.452892	1750.65
0.460568	1750.72
0.473362	1755.36
0.481037	1755.43
0.49639	1755.56
0.509183	1755.68
0.519418	1760.3
0.524536	1760.34
0.53733	1760.46
0.550123	1760.57
0.562917	1760.68
0.583387	1765.39
0.59618	1765.51
0.61665	1770.21
0.626885	1774.83
0.634561	1774.9
0.647354	1775.01
0.657589	1775.1
0.662706	1775.15
0.670382	1775.22
0.678059	1779.81
0.698528	1784.52
0.708763	1784.61
0.718998	1789.23
0.729233	1789.32
0.73435	1789.36
0.75482	1785.02
0.765055	1785.11
0.780407	1785.25
0.7932	1789.89
0.805995	1790
0.81367	1790.07
0.829023	1790.21
0.839258	1790.3
0.85461	1794.96
0.864844	1795.05
0.875079	1795.15
0.882756	1799.74
0.890432	1799.81
0.900667	1799.9
0.91346	1800.01
0.921136	1804.61
0.931371	1804.7
0.939048	1804.77
0.944165	1804.81
0.962076	1809.5
0.967193	1814.07
0.982545	1814.21
0.997897	1814.34
