Adsorption isotherm of Nitrogen on NU-1105
DOI: 10.1021/jacs.5b08860
Article source: Figure 2a
Adsorbate Nitrogen: InChIKey IJGRMHOSHXDMSA-UHFFFAOYSA-N
Kind: experiment
Temperature: 77 K
Tabular data in the source: 0
pressure (bar)	uptake (cm3(STP)/g)
0	0
0.000145	42.426
0.000228	66.6694
0.000249	72.7303
0.00029	84.852
0.000311	90.9128
0.000353	103.035
0.000436	127.278
0.003921	145.501
0.004004	169.745
0.004149	212.171
0.004232	236.414
0.004315	260.658
0.00749	187.968
0.00778	272.82
0.007842	291.003
0.011307	303.166
0.014793	321.389
0.01832	351.734
0.021785	363.897
0.02527	382.12
0.028735	394.283
0.03222	412.507
0.035706	430.73
0.039171	442.893
0.042615	448.995
0.0461	467.218
0.049565	479.381
0.05303	491.543
0.053071	503.665
0.056536	515.828
0.05998	521.93
0.066868	534.133
0.070333	546.296
0.077242	564.56
0.080686	570.662
0.084171	588.886
0.087615	594.988
0.091101	613.211
0.09803	637.536
0.104939	655.801
0.115333	692.289
0.129089	710.635
0.132595	734.92
0.139525	759.245
0.149878	783.611
0.16023	807.977
0.17743	832.426
0.191247	868.955
0.205003	887.301
0.215335	905.606
0.222223	917.81
0.225709	936.033
0.232617	954.298
0.236144	984.643
0.239651	1008.93
0.239734	1033.17
0.239816	1057.41
0.243302	1075.64
0.243406	1105.94
0.246892	1124.17
0.257285	1160.65
0.264153	1166.8
0.274339	1142.68
0.274485	1185.1
0.281332	1185.18
0.284796	1197.35
0.294942	1161.1
0.295108	1209.59
0.305419	1221.84
0.308676	1173.39
0.308801	1209.75
0.315543	1179.53
0.319153	1234.12
0.325834	1185.72
0.329299	1197.88
0.329486	1252.43
0.336187	1210.08
0.339631	1216.18
0.346498	1222.33
0.346644	1264.75
0.349922	1222.37
0.356935	1270.94
0.360233	1234.61
0.367225	1277.12
0.370523	1240.8
0.377391	1246.94
0.387702	1259.18
0.387806	1289.49
0.401416	1265.41
0.40152	1295.71
0.408304	1277.61
0.415234	1301.94
0.418615	1289.86
0.425503	1302.06
0.432329	1296.08
0.44264	1308.33
0.46316	1302.51
0.463201	1314.63
0.480297	1308.78
0.483762	1320.94
0.497475	1327.16
0.511127	1315.21
0.518015	1327.41
0.53511	1321.55
0.538596	1339.78
0.548866	1339.9
0.559136	1340.02
0.562538	1334
0.565982	1340.1
0.583119	1346.37
0.589925	1334.33
0.596813	1346.53
0.610485	1340.64
0.631066	1353
0.637893	1347.02
0.65505	1359.35
0.665299	1353.41
0.685839	1353.66
0.692727	1365.86
0.713246	1360.05
0.713267	1366.11
0.73723	1366.4
0.764616	1366.72
0.764637	1372.78
0.792043	1379.17
0.81943	1379.5
0.822875	1385.6
0.836546	1379.7
0.857107	1386.01
0.891381	1398.54
0.915344	1398.83
0.918788	1404.93
0.956444	1405.38
0.966735	1411.56
0.966756	1417.63
0.980469	1423.85
0.990781	1436.09
0.994225	1442.2
1.00109	1448.34
1.00458	1466.56
1.01149	1484.83
