Adsorption isotherm of Nitrogen on Cu-BTC (ethylene glycol)
DOI: 10.1007/s10934-014-9883-7
Article source: Figure S1
Adsorbate Nitrogen: InChIKey IJGRMHOSHXDMSA-UHFFFAOYSA-N
Kind: experiment
Temperature: 77 K
Tabular data in the source: 0
pressure (bar)	uptake (ml/g)
0.004808	0.004808
0.00641	358.613
0.011218	361.7
0.024039	367.09
0.046474	371.684
0.064103	378.612
0.081731	382.443
0.105769	386.259
0.129808	390.075
0.144231	391.59
0.166667	392.312
0.182692	393.049
0.201923	394.553
0.25	396.764
0.302885	398.19
0.352564	398.849
0.399038	401.064
0.448718	402.497
0.498397	402.382
0.549679	403.037
0.599359	402.922
0.649038	404.355
0.697115	405.018
0.737179	405.699
0.769231	406.399
0.799679	407.103
0.823718	409.37
0.839744	410.107
0.858974	411.611
0.871795	413.904
0.889423	417.735
0.903846	421.573
0.915064	424.644
0.927885	428.486
0.934295	432.343
0.94391	436.967
0.947115	437.733
0.956731	442.357
0.959936	443.898
0.964744	446.21
0.971154	449.293
0.975962	451.605
0.982372	453.913
0.990385	455.443
1	456.195
