Adsorption isotherm of Nitrogen on Cu-BTC (diethylene glycol)
DOI: 10.1007/s10934-014-9883-7
Article source: Figure S1
Adsorbate Nitrogen: InChIKey IJGRMHOSHXDMSA-UHFFFAOYSA-N
Kind: experiment
Temperature: 77 K
Tabular data in the source: 0
pressure (bar)	uptake (ml/g)
0.003205	90.7005
0.008013	95.3354
0.009615	97.6547
0.022436	99.1735
0.041667	100.678
0.065705	102.945
0.081731	103.682
0.104167	103.63
0.121795	104.363
0.142628	104.315
0.161859	104.27
0.182692	104.996
0.200321	104.955
0.25	104.84
0.301282	104.72
0.350962	105.379
0.400641	105.264
0.448718	105.152
0.498397	105.811
0.548077	104.922
0.599359	104.802
0.666667	104.646
0.700321	105.342
0.740385	104.475
0.770833	105.178
0.801282	105.882
0.826923	105.822
0.841346	105.789
0.860577	104.97
0.875	107.259
0.891026	106.448
0.905449	107.189
0.915064	107.166
0.926282	107.14
0.93109	107.903
0.940705	108.655
0.947115	109.415
0.953526	110.174
0.958333	110.938
0.963141	111.701
0.967949	113.238
0.972756	114.001
0.975962	114.768
0.985577	119.392
0.988782	123.256
0.99359	125.568
