Adsorption isotherm of Water on NUS-10(R)
DOI: 10.1021/acsami.6b06189
Article source: Figure 3
Adsorbate Water: InChIKey XLYOFNOQVPJJNP-UHFFFAOYSA-N
Kind: experiment
Temperature: 273 K
Tabular data in the source: 0
pressure (bar)	uptake (cm3(STP)/g)
9e-06	20.2299
9e-06	40.4598
3.7e-05	57.0115
0.000102	60.6897
0.000166	66.2069
0.000249	74.023
0.000296	82.7586
0.000342	85.5172
0.000407	89.1954
0.000453	93.7931
0.000536	96.5517
0.000582	100.23
0.000647	102.069
0.000674	104.828
0.000748	109.425
0.000822	113.103
0.000878	117.701
0.000952	120.46
0.001007	123.218
0.001072	125.977
0.001127	128.736
0.00121	131.494
0.001257	133.333
0.001312	135.172
0.001377	138.851
0.001432	141.609
0.001488	145.287
0.001552	145.287
0.001598	148.966
0.001654	152.644
0.001719	152.644
0.001765	156.322
0.001829	159.08
0.001885	162.759
0.001968	165.517
0.002014	167.356
0.002079	171.034
0.002125	173.793
0.00219	176.552
0.002264	182.069
0.002301	185.747
0.002347	186.667
0.002384	189.425
0.002458	194.023
0.002532	196.782
0.002587	202.299
0.002633	205.057
0.00267	207.816
0.002726	211.494
0.002763	214.253
0.00279	215.172
0.002873	217.931
0.002929	221.609
0.003003	224.368
0.003049	228.046
0.003123	232.644
0.003188	236.322
0.003234	240
0.003298	243.678
0.003372	248.276
0.003446	251.954
0.003502	255.632
0.003576	259.31
0.003631	262.069
0.003696	265.747
0.003779	270.345
0.003844	273.103
0.003927	278.621
0.003973	281.379
0.004047	285.057
0.004112	287.816
0.004185	292.414
0.00425	297.012
0.004333	298.851
0.004389	303.448
0.004444	307.126
0.00449	308.966
0.004555	312.644
0.004638	316.322
0.004703	321.839
0.004758	323.678
0.004814	327.356
0.004869	331.954
0.004962	333.793
0.005035	340.23
0.005082	343.908
0.005146	347.586
0.005211	350.345
0.005271	354.943
0.005331	360.46
0.005396	364.138
0.005424	368.736
0.005507	372.414
0.005534	377.012
0.00559	384.368
0.005627	388.046
0.005682	389.885
0.005701	395.402
0.005747	397.241
0.005775	401.839
0.005812	410.115
0.00583	413.793
0.005747	410.115
0.005664	409.195
0.005618	404.598
0.005571	403.678
0.005516	400.92
0.005451	399.08
0.005377	397.241
0.005377	397.241
0.005331	394.483
0.005257	392.644
0.005211	389.885
0.005146	387.126
0.005072	385.287
0.005008	383.448
0.004962	380.69
0.004906	380.69
0.004851	377.931
0.004777	376.092
0.004703	373.333
0.004657	372.414
0.004592	368.736
0.004537	366.897
0.004463	366.897
0.004416	365.057
0.004352	361.379
0.004278	359.54
0.004241	357.701
0.004158	354.943
0.004102	353.103
0.004038	351.264
0.003982	348.506
0.003927	347.586
0.003853	343.908
0.003797	342.988
0.00376	340.23
0.003668	337.471
0.003613	335.632
0.003557	332.874
0.003493	330.115
0.003437	329.195
0.003372	325.517
0.003335	324.598
0.003262	321.839
0.003197	319.08
0.003151	315.402
0.003095	315.402
0.003049	310.805
0.002994	309.885
0.002929	307.126
0.002864	304.368
0.002818	302.529
0.002753	299.77
0.002698	297.012
0.002661	295.172
0.002606	292.414
0.00255	290.575
0.002485	287.816
0.00243	284.138
0.002375	281.379
0.002301	279.54
0.002217	274.023
0.002181	271.264
0.002116	266.667
0.002033	262.069
0.001986	260.23
0.001931	258.391
0.00182	251.034
0.001783	248.276
0.001737	246.437
0.001672	243.678
0.001617	239.08
0.001525	236.322
0.001488	233.563
0.001414	229.885
0.00133	226.207
0.001284	221.609
0.00122	217.931
0.001155	214.253
0.001063	208.736
0.001007	207.816
0.000952	204.138
0.000896	201.379
0.000841	196.782
0.000758	192.184
0.000711	185.747
0.000647	182.069
0.000573	178.391
0.000527	174.713
