Adsorption isotherm of Nitrogen on NUS-10(R)
DOI: 10.1021/acsami.6b06189
Article source: Figure 2
Adsorbate Nitrogen: InChIKey IJGRMHOSHXDMSA-UHFFFAOYSA-N
Kind: experiment
Temperature: 77 K
Tabular data in the source: 0
pressure (bar)	uptake (cm3(STP)/g)
0	2.27273
0	5.68182
0.001556	9.09091
0.010895	10.2273
0.02179	11.9318
0.032685	11.9318
0.040468	11.9318
0.054476	13.0682
0.062258	13.0682
0.07471	14.2045
0.085605	14.7727
0.094165	15.3409
0.104282	15.3409
0.113621	15.9091
0.12296	15.9091
0.132298	15.9091
0.141637	17.0455
0.154089	17.0455
0.163427	17.6136
0.172766	17.6136
0.183661	18.1818
0.191444	18.75
0.203895	18.75
0.213234	19.3182
0.222573	19.3182
0.231911	19.3182
0.242806	20.4545
0.253702	20.4545
0.264597	21.0227
0.277048	21.0227
0.287944	21.5909
0.297282	22.1591
0.306621	22.7273
0.319073	23.2955
0.328411	23.2955
0.339306	23.2955
0.347089	23.2955
0.357984	23.2955
0.365766	23.8636
0.378218	24.4318
0.390669	24.4318
0.400008	25
0.409347	25.5682
0.417129	26.1364
0.429581	26.1364
0.440476	26.1364
0.446702	26.1364
0.459153	27.2727
0.470048	27.2727
0.479387	27.2727
0.491839	27.2727
0.499621	27.8409
0.507403	28.4091
0.518298	28.4091
0.529194	28.4091
0.540089	28.9773
0.549427	29.5455
0.558766	28.9773
0.566548	29.5455
0.579	29.5455
0.589895	30.1136
0.599234	30.6818
0.608573	30.6818
0.619468	30.6818
0.628806	30.6818
0.641258	31.8182
0.650597	31.8182
0.658379	32.9545
0.670831	33.5227
0.677056	33.5227
0.689508	34.0909
0.700403	34.0909
0.711298	35.2273
0.720637	34.6591
0.731532	35.2273
0.740871	35.2273
0.75021	36.3636
0.761105	36.3636
0.770444	37.5
0.778226	37.5
0.789121	38.0682
0.800016	38.6364
0.807798	39.2045
0.82025	39.2045
0.829589	40.9091
0.840484	40.9091
0.851379	42.0455
0.859161	42.0455
0.870056	43.1818
0.882508	43.75
0.89029	46.0227
0.901185	46.0227
0.908968	47.7273
0.922976	48.8636
0.930758	50
0.944766	51.7045
0.952548	53.4091
0.961887	55.6818
0.969669	61.9318
0.975895	64.7727
0.982121	66.4773
0.99146	69.8864
1.0008	76.1364
0.999242	78.4091
0.988347	80.6818
0.972782	77.2727
0.972782	73.8636
0.972782	71.5909
0.968113	69.3182
0.965	67.0455
0.957218	63.6364
0.949435	62.5
0.941653	60.2273
0.93854	56.8182
0.941653	57.3864
0.922976	55.6818
0.913637	53.4091
0.902742	51.1364
0.893403	50
0.880952	48.8636
0.871613	47.1591
0.860718	46.0227
0.851379	44.8864
0.838927	44.3182
0.832702	42.6136
0.82025	42.6136
0.810911	42.0455
0.801573	41.4773
0.789121	39.7727
0.779782	39.7727
0.767331	39.7727
0.759548	39.2045
0.751766	38.0682
0.739315	38.0682
0.726863	36.3636
0.720637	36.9318
0.708185	36.3636
0.698847	36.3636
0.689508	35.7955
0.678613	35.7955
0.666161	34.6591
0.658379	34.0909
0.647484	33.5227
0.639702	32.9545
0.625694	32.9545
0.619468	32.3864
0.608573	32.3864
0.597677	31.25
0.586782	30.6818
0.577444	30.6818
0.568105	30.6818
0.558766	30.6818
0.546315	30.1136
0.536976	29.5455
0.526081	29.5455
0.515185	29.5455
0.507403	29.5455
0.496508	29.5455
0.488726	28.4091
0.477831	27.8409
0.465379	26.7045
0.457597	26.7045
0.445145	26.7045
0.43425	26.1364
0.423355	26.1364
0.415573	26.1364
0.404677	26.1364
0.396895	25
0.384444	25
0.373548	25
0.36421	24.4318
0.354871	23.8636
0.345532	23.8636
0.334637	23.8636
0.326855	23.2955
0.31596	22.7273
0.303508	23.2955
0.295726	22.1591
0.284831	22.1591
0.272379	21.5909
0.26304	21.5909
0.253702	21.5909
0.24125	21.0227
0.233468	21.0227
0.222573	20.4545
0.211677	19.8864
0.203895	19.8864
0.191444	19.3182
0.182105	19.3182
0.17121	18.75
0.163427	18.75
0.154089	18.1818
0.141637	18.1818
0.129185	17.0455
0.12296	17.0455
0.112065	17.0455
0.099613	17.0455
0.091831	16.4773
0.079379	16.4773
0.071597	15.3409
0.060702	14.7727
0.051363	14.7727
0.042024	14.2045
0.031129	13.6364
0.020234	13.6364
0.009339	11.9318
