Adsorption isotherm of Nitrogen on NUS-9(R)
DOI: 10.1021/acsami.6b06189
Article source: Figure 2
Adsorbate Nitrogen: InChIKey IJGRMHOSHXDMSA-UHFFFAOYSA-N
Kind: experiment
Temperature: 77 K
Tabular data in the source: 0
pressure (bar)	uptake (cm3(STP)/g)
0.003113	2.27273
0.004669	9.65909
0.006226	14.7727
0.020234	17.6136
0.031129	17.6136
0.040468	18.75
0.049806	19.3182
0.062258	20.4545
0.071597	20.4545
0.080935	21.5909
0.091831	21.5909
0.099613	22.1591
0.110508	23.2955
0.121403	23.2955
0.13152	24.4318
0.141637	24.4318
0.150976	24.4318
0.163427	25
0.172766	25
0.183661	26.1364
0.194556	26.7045
0.202339	27.8409
0.213234	28.4091
0.222573	28.9773
0.233468	28.9773
0.245919	29.5455
0.253702	29.5455
0.261484	30.1136
0.273935	30.1136
0.281718	30.6818
0.294169	31.8182
0.305065	31.8182
0.314403	33.5227
0.322185	34.0909
0.334637	34.0909
0.343976	34.6591
0.353315	35.2273
0.36421	35.2273
0.376661	35.7955
0.384444	36.3636
0.393782	36.3636
0.406234	36.9318
0.417129	37.5
0.424911	37.5
0.435806	38.6364
0.443589	39.2045
0.45604	39.7727
0.465379	40.3409
0.477831	40.3409
0.490282	40.9091
0.501177	40.9091
0.512073	42.0455
0.521411	42.0455
0.53075	43.1818
0.543202	43.75
0.55254	44.3182
0.561879	44.8864
0.571218	46.0227
0.583669	46.5909
0.593008	46.5909
0.60079	47.1591
0.613242	48.8636
0.624137	48.8636
0.633476	49.4318
0.642815	51.1364
0.652153	51.7045
0.661492	52.8409
0.672387	53.4091
0.683282	53.9773
0.692621	55.1136
0.701181	55.1136
0.709742	56.25
0.717524	57.3864
0.729976	59.0909
0.737758	60.2273
0.747097	60.2273
0.757992	61.9318
0.765774	63.0682
0.779782	64.7727
0.787565	66.4773
0.79846	68.1818
0.807798	69.3182
0.817137	71.0227
0.829589	73.2955
0.838927	76.1364
0.849823	78.4091
0.859161	81.8182
0.871613	84.6591
0.879395	86.9318
0.89029	89.7727
0.901185	93.75
0.912081	98.2955
0.921419	103.409
0.930758	107.955
0.94321	113.636
0.950992	122.159
0.961887	130.114
0.969669	139.773
0.983677	151.136
0.980565	166.477
0.982121	180.114
0.982121	191.477
0.985234	194.318
1.0008	212.5
0.997685	219.318
0.988347	225
0.972782	220.455
0.960331	213.068
0.950992	205.114
0.941653	194.318
0.929202	185.795
0.921419	175.568
0.910524	165.341
0.901185	156.25
0.89029	147.727
0.880952	139.773
0.870056	130.682
0.859161	123.295
0.851379	117.045
0.840484	110.227
0.832702	105.114
0.818694	98.8636
0.807798	95.4545
0.800016	91.4773
0.790677	87.5
0.778226	83.5227
0.767331	80.6818
0.759548	77.8409
0.75021	76.1364
0.739315	73.2955
0.728419	71.5909
0.720637	69.3182
0.708185	68.1818
0.700403	66.4773
0.687952	64.7727
0.680169	62.5
0.668496	62.5
0.658379	60.2273
0.64904	59.0909
0.639702	57.9545
0.628806	56.25
0.617911	55.6818
0.608573	54.5455
0.599234	53.4091
0.588339	51.9886
0.577444	51.1364
0.568105	50
0.55721	48.8636
0.546315	48.2955
0.536976	47.7273
0.527637	46.5909
0.515185	46.0227
0.505847	44.3182
0.496508	43.75
0.485613	42.0455
0.477831	40.3409
0.466935	39.7727
0.454484	38.6364
0.446702	38.0682
0.435806	37.5
0.428024	36.9318
0.420242	36.3636
0.406234	36.9318
0.401565	35.2273
0.390669	35.7955
0.379774	34.6591
0.371992	34.0909
0.361097	32.9545
0.351758	32.9545
0.340863	32.9545
0.329968	31.8182
0.319073	31.8182
0.309734	31.25
0.297282	31.25
0.291056	30.6818
0.278605	30.1136
0.269266	28.9773
0.258371	28.4091
0.249032	28.4091
0.239694	27.2727
0.228798	26.7045
0.21946	26.7045
0.210121	26.1364
0.197669	26.1364
0.188331	26.1364
0.175879	25
0.168097	24.7159
0.157202	24.4318
0.147863	24.4318
0.135411	23.2955
0.127629	22.1591
0.116734	22.1591
0.104282	21.5909
0.0965	21.0227
0.085605	19.3182
0.073153	18.75
0.063815	18.1818
0.051363	17.0455
0.042024	17.0455
0.029573	15.9091
0.023347	14.7727
