Adsorption isotherm of Water on NUS-9(R)
DOI: 10.1021/acsami.6b06189
Article source: Figure 3
Adsorbate Water: InChIKey XLYOFNOQVPJJNP-UHFFFAOYSA-N
Kind: experiment
Temperature: 273 K
Tabular data in the source: 0
pressure (bar)	uptake (cm3(STP)/g)
0	14.7126
9e-06	30.3448
9.2e-05	46.8966
0.000139	51.4943
0.000194	57.931
0.000249	69.8851
0.000314	74.4828
0.000379	81.8391
0.000416	91.954
0.00048	97.4713
0.000545	106.667
0.000601	114.023
0.000656	117.701
0.00073	122.299
0.000785	126.897
0.000841	129.655
0.000896	133.333
0.000952	135.172
0.001007	140.69
0.001072	141.609
0.001136	145.287
0.001201	148.046
0.001229	148.966
0.001303	152.644
0.001377	156.322
0.001414	159.08
0.001497	160.92
0.001543	162.759
0.001617	168.276
0.001635	170.115
0.001737	170.115
0.001765	171.954
0.001839	178.391
0.001894	178.391
0.00195	181.149
0.001996	182.069
0.00207	185.747
0.002116	189.425
0.002171	189.425
0.002254	192.184
0.002301	194.943
0.002338	196.782
0.002393	197.701
0.002476	201.379
0.002541	204.138
0.002596	204.138
0.002661	205.057
0.002707	206.897
0.002772	207.816
0.002855	212.414
0.002929	213.333
0.003003	217.011
0.003021	219.77
0.003077	221.609
0.003132	223.448
0.003188	225.287
0.003234	228.506
0.00328	230.805
0.003317	233.563
0.003372	236.322
0.003483	237.241
0.003557	240.92
0.003613	242.759
0.003668	244.598
0.003714	246.437
0.00377	249.655
0.003825	251.954
0.003853	255.632
0.003899	257.471
0.003964	259.31
0.00401	262.069
0.004065	264.828
0.00413	266.667
0.004185	270.345
0.004296	274.943
0.004352	278.621
0.004426	281.379
0.004472	284.138
0.004527	287.816
0.004574	291.494
0.004629	293.333
0.004666	296.092
0.004703	299.77
0.004814	304.368
0.00486	309.885
0.004925	313.563
0.004962	316.322
0.004989	319.08
0.005072	324.598
0.005109	330.115
0.005202	337.471
0.005248	341.149
0.005303	347.586
0.00534	354.023
0.005414	362.299
0.005497	370.575
0.005516	378.851
0.005553	384.368
0.00559	392.644
0.005636	400
0.005664	405.517
0.005673	410.115
0.005682	415.632
0.005682	421.149
0.005775	431.264
0.005765	435.862
0.005701	435.862
0.005673	433.103
0.005645	430.345
0.005627	427.586
0.005599	425.747
0.005571	424.828
0.005553	422.069
0.005525	419.31
0.005507	417.471
0.005442	409.195
0.005368	402.759
0.005322	397.241
0.005239	390.805
0.005193	384.368
0.005128	380.69
0.005035	373.333
0.004971	370.575
0.004925	365.977
0.004823	359.54
0.004777	354.943
0.004703	352.184
0.004666	350.345
0.004592	347.586
0.00449	341.149
0.004444	337.471
0.00437	335.632
0.004324	333.793
0.004259	329.195
0.004199	328.276
0.00413	325.517
0.004075	323.678
0.004019	322.759
0.003964	320
0.003899	318.161
0.003853	315.402
0.003779	313.563
0.003714	310.805
0.003654	308.966
0.003594	307.126
0.003474	302.529
0.003409	300.69
0.003345	298.851
0.003298	296.092
0.003243	296.092
0.003197	294.253
0.003151	292.414
0.003086	289.655
0.002984	286.897
0.002929	285.057
0.002855	281.379
0.002818	279.54
0.002753	279.54
0.00267	275.862
0.002596	274.023
0.002559	273.103
0.002467	268.506
0.00243	266.667
0.002365	265.747
0.002291	262.988
0.002227	260.23
0.002153	258.391
0.002116	255.632
0.002042	254.713
0.001959	248.276
0.001903	245.517
0.001857	243.678
0.001774	240.92
0.001728	237.241
0.001672	235.402
0.001571	230.805
0.001525	228.966
0.001432	226.207
0.001386	224.368
0.00134	222.529
0.001303	220.69
0.001229	217.931
0.001173	215.172
0.00109	211.494
0.001035	209.655
0.00097	205.977
0.000896	205.057
0.000836	200.46
0.000748	195.862
0.000684	192.184
0.000638	188.506
0.000582	182.069
0.000536	176.552
0.000462	169.195
0.000407	163.678
0.000323	159.08
0.000268	150.805
0.000194	144.368
0.000129	137.011
