Adsorption isotherm of Nitrogen on ZIF-90
DOI: 10.1016/j.micromeso.2012.11.003
Adsorbate Nitrogen: InChIKey IJGRMHOSHXDMSA-UHFFFAOYSA-N
Temperature: 77 K
Tabular data in the source: 0
pressure (bar)	uptake (cm3(STP)/g)
0.00656212	260.294
0.0135054	287.71
0.0366495	296.849
0.0945098	303.703
0.156999	307.13
0.249575	313.984
0.332894	317.411
0.397698	324.265
0.46713	355.109
0.52499	377.956
0.592108	389.38
0.693942	397.376
0.779575	401.946
0.88141	406.515
0.983244	414.511
