Adsorption isotherm of Nitrogen on Zn(ICA)-2
DOI: 10.1016/j.micromeso.2012.11.003
Adsorbate Nitrogen: InChIKey IJGRMHOSHXDMSA-UHFFFAOYSA-N
Temperature: 77 K
Tabular data in the source: 0
pressure (bar)	uptake (cm3(STP)/g)
0.0158198	28.3955
0.0459071	47.8155
0.122283	59.2391
0.254204	72.9473
0.36761	83.2285
0.457872	93.5097
0.571278	106.076
0.666169	128.923
0.765689	167.763
0.811977	208.888
0.862894	263.721
0.895296	289.995
0.934641	323.123
0.973986	335.689
1.00176	337.974
