Adsorption isotherm of Nitrogen on Zn(ICA)-1
DOI: 10.1016/j.micromeso.2012.11.003
Adsorbate Nitrogen: InChIKey IJGRMHOSHXDMSA-UHFFFAOYSA-N
Temperature: 77 K
Tabular data in the source: 0
pressure (bar)	uptake (cm3(STP)/g)
0.00887653	181.471
0.0111909	236.304
0.022763	267.148
0.0690512	275.144
0.150056	276.287
0.224117	279.714
0.300492	281.998
0.346781	288.852
0.406955	324.265
0.485645	336.831
0.594423	343.685
0.663855	343.685
0.772632	347.113
0.853637	353.967
0.930012	368.817
0.9601	395.091
0.980929	432.789
0.99713	460.206
1.01102	485.337
