Adsorption isotherm of Nitrogen on XUBGUY
DOI: 10.1039/c5dt00421g
Article source: Figure 2
Adsorbate Nitrogen: InChIKey IJGRMHOSHXDMSA-UHFFFAOYSA-N
Kind: experiment
Temperature: 77 K
Tabular data in the source: 0
pressure (bar)	uptake (cm3(STP)/g)
0.002229	269.09
0.002655	290.54
0.004813	218.39
0.005218	231.45
0.005664	256.54
0.005674	319.94
0.005897	331.98
0.007397	343.22
0.008694	348.03
0.011835	356.93
0.018806	363.06
0.026688	366.78
0.041178	372.91
0.04668	376.2
0.069589	384.96
0.081849	383.72
0.085344	388.75
0.106035	389.12
0.106784	392.99
0.125823	391.9
0.130595	397.81
0.144324	394.74
0.14782	402.04
0.164113	399.12
0.168338	405.4
0.18609	401.17
0.189585	407.3
0.205321	403.94
0.207175	411.31
0.22749	410.44
0.234836	418.32
0.24893	415.99
0.265253	424.67
0.30554	427.01
0.312531	436.57
0.33012	440.95
0.353182	439.35
0.35613	445.77
0.365847	450.08
0.398463	456.72
0.400449	447.89
0.44879	450.67
0.449185	461.62
0.488549	461.18
0.497314	451.41
0.533597	461.92
0.550589	451.78
0.570215	461.63
0.598191	451.13
0.614159	462.52
0.649095	451.14
0.657181	460.77
0.702189	451.07
0.702391	458.15
0.739384	458.67
0.751259	449.99
0.786064	456.85
0.800877	449.7
0.830372	456.05
0.867355	455.26
0.903031	447.89
0.917176	451.79
0.92589	448.32
0.936934	450.52
0.972974	448.67
