Adsorption isotherm of Nitrogen on XUBGUY
DOI: 10.1039/c5dt00421g
Article source: Figure 2
Adsorbate Nitrogen: InChIKey IJGRMHOSHXDMSA-UHFFFAOYSA-N
Kind: experiment
Temperature: 77 K
Tabular data in the source: 0
pressure (bar)	uptake (cm3(STP)/g)
0.004124	212.39
0.00537	237.06
0.006029	264.86
0.007184	261.27
0.007508	274.12
0.0084	280.61
0.012199	285.47
0.015989	289.41
0.021237	295.89
0.029384	298.91
0.043934	304.24
0.045099	303.08
0.064006	308.52
0.084362	312.7
0.084655	314.09
0.103268	317.22
0.103846	315.59
0.124485	319.19
0.130312	321.27
0.147749	322.2
0.154153	324.29
0.168683	324.52
0.185837	326.61
0.202119	328
0.205321	330.55
0.253875	335.54
0.308822	341.91
0.311437	341.1
0.356231	352.92
0.357386	349.1
0.39286	356.17
0.40973	359.07
0.437928	360.23
0.458861	365.56
0.479207	364.29
0.508287	370.78
0.524559	368.93
0.557712	373.45
0.568736	369.28
0.60885	371.61
0.610025	374.73
0.651872	373.58
0.656826	375.9
0.701003	376.25
0.709433	377.76
0.740813	375.91
0.75972	379.97
0.783257	377.77
0.807098	380.55
0.827434	378.7
0.871621	380.1
0.904186	383.58
0.914055	382.65
0.93208	383.93
0.94051	384.04
0.964058	385.44
