Adsorption isotherm of Methane on XUBGUY
DOI: 10.1039/c5dt00421g
Article source: Figure 2
Adsorbate Methane: InChIKey VNWKTOKETHGBQD-UHFFFAOYSA-N
Kind: experiment
Temperature: 273 K
Tabular data in the source: 0
pressure (bar)	uptake (cm3(STP)/g)
0.006242	0.539
0.025352	0.85
0.039588	1.182
0.055374	1.556
0.075659	1.826
0.092033	2.055
0.102369	2.014
0.113291	2.263
0.124022	2.471
0.131429	2.657
0.141176	2.782
0.151511	2.969
0.166335	3.053
0.18661	3.675
0.206115	4.277
0.257984	5.273
0.301462	5.855
0.308879	6.146
0.347484	6.79
0.357627	7.225
0.393891	7.724
0.405979	8.449
0.436792	8.741
0.452588	9.218
0.479885	9.302
0.508743	10.339
0.520831	10.298
0.556913	11.004
0.56744	11.253
0.608578	12.208
0.649726	13.183
0.65616	13.308
0.6936	13.745
0.71271	14.202
0.737281	14.596
0.761265	15.198
0.782523	15.241
0.811188	16.443
0.822303	16.444
0.867149	16.922
0.912584	18.022
0.935595	18.355
0.949436	18.687
0.964452	19.019
0.976732	19.289
0.98727	19.414
1.0017	20.118
1.01106	19.622
