Adsorption isotherm of Carbon Dioxide on XUBGUY
DOI: 10.1039/c5dt00421g
Article source: Figure 2
Adsorbate Carbon Dioxide: InChIKey CURLTUGMZLYLDI-UHFFFAOYSA-N
Kind: experiment
Temperature: 273 K
Tabular data in the source: 0
pressure (bar)	uptake (cm3(STP)/g)
0.021055	2.158
0.026952	4.558
0.04513	3.777
0.054949	6.385
0.060856	5.238
0.071657	8.316
0.073136	5.969
0.090331	7.378
0.094253	9.934
0.106047	8.37
0.111944	11.135
0.125704	9.519
0.131104	12.544
0.145351	11.085
0.157631	14.632
0.166973	13.068
0.185638	14.738
0.206764	18.495
0.207747	16.304
0.257366	22.149
0.306488	26.116
0.306994	23.3
0.351203	26.588
0.356603	29.614
0.393952	29.564
0.406719	33.111
0.434725	32.852
0.459286	36.453
0.480909	35.515
0.507922	39.898
0.525127	38.595
0.55902	43.5
0.562465	41.414
0.608649	44.963
0.611588	46.685
0.651885	47.417
0.658268	49.921
0.695606	49.871
0.708383	52.897
0.740321	52.795
0.764386	56.291
0.778146	55.562
0.812049	59.423
0.826295	58.538
0.868213	60.638
0.910324	64.346
0.911104	65.484
0.932362	65.444
0.934308	66.707
0.951077	67.743
0.967451	67.392
0.977199	69.11
0.99104	69.732
0.991627	69.049
1.00645	70.395
1.00898	71.037
