Adsorption isotherm of Methane on XUBGUY
DOI: 10.1039/c5dt00421g
Article source: Figure 2
Adsorbate Methane: InChIKey VNWKTOKETHGBQD-UHFFFAOYSA-N
Kind: experiment
Temperature: 298 K
Tabular data in the source: 0
pressure (bar)	uptake (cm3(STP)/g)
0.015604	0.56
0.031593	0.292
0.041533	0.375
0.053824	0.334
0.072731	0.605
0.083066	0.647
0.093604	0.627
0.099846	0.71
0.110758	0.897
0.118175	0.959
0.130648	1.064
0.143912	1.396
0.152879	1.562
0.165747	1.707
0.187401	2.019
0.205335	2.186
0.254083	3.038
0.304005	3.558
0.346511	4.057
0.356461	4.203
0.394874	4.743
0.408917	5.179
0.436214	4.891
0.459225	5.658
0.47951	5.328
0.508165	6.324
0.522989	5.89
0.556923	7.196
0.565302	6.762
0.607818	7.489
0.608396	7.137
0.648571	7.926
0.657538	8.113
0.697714	8.177
0.707654	8.53
0.740807	8.801
0.759137	9.195
0.78156	9.507
0.807692	10.006
0.823093	9.862
0.868528	10.485
0.910263	11.13
0.91689	10.964
0.934247	11.379
0.949648	11.422
0.964857	11.671
0.975395	11.775
0.988648	11.755
1.00815	12.108
