Adsorption isotherm of Hydrogen on XUBGUY
DOI: 10.1039/c5dt00421g
Article source: Figure 2
Adsorbate Hydrogen: InChIKey UFHFLCQGNIYNRP-UHFFFAOYSA-N
Kind: experiment
Temperature: 77 K
Tabular data in the source: 0
pressure (bar)	uptake (wt%)
0.0435	0.0492
0.0707	0.2558
0.1048	0.2852
0.1098	0.3805
0.1246	0.4572
0.1434	0.4828
0.1771	0.58
0.1787	0.6197
0.2089	0.6619
0.2257	0.7181
0.2598	0.7469
0.2862	0.7866
0.2992	0.8307
0.3276	0.8703
0.3655	0.8965
0.3822	0.9643
0.4406	1.0596
0.4449	0.9937
0.4686	1.1446
0.4749	1.0666
0.5563	1.1459
0.5634	1.2124
0.6106	1.2783
0.6568	1.2124
0.6712	1.3345
0.7079	1.2635
0.7778	1.3601
0.8287	1.433
0.9406	1.5142
0.9411	1.4457
1.0507	1.5832
1.0968	1.525
1.1935	1.5966
1.2008	1.6573
1.33	1.7104
1.3475	1.6624
1.6284	1.8216
1.6993	1.7716
1.969	1.9091
2.0454	1.8764
2.2658	1.9851
2.367	1.9569
2.6027	2.0451
2.7115	2.0233
2.9282	2.1
3.0466	2.0692
3.2806	2.1344
3.3741	2.1177
3.5909	2.1842
3.6711	2.1605
3.9091	2.1943
4.033	2.1841
4.231	2.2198
4.3569	2.2031
4.5511	2.2389
4.6884	2.2235
4.8578	2.2477
5.0295	2.2343
5.2275	2.2617
5.3286	2.2418
5.5457	2.2642
5.6506	2.2513
5.8278	2.2628
5.9784	2.2538
6.1518	2.2672
6.3215	2.2524
6.512	2.2677
6.6628	2.2325
6.7846	2.2574
6.9944	2.2381
7.1811	2.2464
7.2974	2.2367
7.4823	2.2316
7.6348	2.2257
7.8197	2.2193
7.9704	2.209
8.1152	2.2058
8.2944	2.2044
8.4393	2.2006
8.6413	2.1922
8.7596	2.1761
8.9846	2.162
9.1237	2.162
9.2382	2.1479
9.3793	2.1369
9.5413	2.1337
9.8369	2.101
