Adsorption isotherm of Carbon Dioxide on XUBGUY
DOI: 10.1039/c5dt00421g
Article source: Figure 2
Adsorbate Carbon Dioxide: InChIKey CURLTUGMZLYLDI-UHFFFAOYSA-N
Kind: experiment
Temperature: 298 K
Tabular data in the source: 0
pressure (bar)	uptake (cm3(STP)/g)
0.008187	1.098
0.01989	1.636
0.031786	1.968
0.054594	4.102
0.057127	2.135
0.06883	2.509
0.074677	4.972
0.084627	2.903
0.092419	5.884
0.092814	3.4
0.103929	3.794
0.10782	6.982
0.120698	4.602
0.129655	7.584
0.142341	5.473
0.155402	8.413
0.162424	6.613
0.187188	7.215
0.204535	10.548
0.205325	8.271
0.258156	12.518
0.304178	12.086
0.307096	14.632
0.346886	13.91
0.355651	16.27
0.39231	15.341
0.406546	18.426
0.437552	16.979
0.456266	20.582
0.478892	18.658
0.504619	22.447
0.521003	20.172
0.55824	24.107
0.567025	21.748
0.607383	23.613
0.611284	25.766
0.650476	25.582
0.658075	27.549
0.693965	26.971
0.706235	29.477
0.735295	28.423
0.756746	31.322
0.779949	30.454
0.81368	33.002
0.824603	31.885
0.868477	33.585
0.910983	36.382
0.911955	35.388
0.936527	36.239
0.937884	37.584
0.94978	37.833
0.962263	36.965
0.976884	38.704
0.989368	38.953
0.993654	37.939
1.0077	38.872
1.01315	39.762
