Adsorption isotherm of Carbon monoxide on Caesium Iodide
DOI: 10.1039/tf9514700088
Article source: Table I
Adsorbate Carbon monoxide: InChIKey UGFAIRIUMAVXCW-UHFFFAOYSA-N
Kind: experiment
Temperature: 83 K
Tabular data in the source: 0
pressure (bar)	uptake (moles * 10^5)
0.000119	2.07
0.0002	2.33
0.000323	2.61
0.000529	2.83
0.0009	3.05
0.001539	3.21
0.00226	3.33
0.002713	3.4
0.003858	3.49
0.005597	3.59
0.006434	3.63
0.007581	3.67
0.008986	3.69
0.011448	3.74
0.013475	3.78
0.015676	3.83
