Adsorption isotherm of Oxygen on Caesium Iodide
DOI: 10.1039/tf9514700088
Article source: Table II
Adsorbate Oxygen: InChIKey MYMOFIZGZYHOMD-UHFFFAOYSA-N
Kind: experiment
Temperature: 77 K
Tabular data in the source: 0
pressure (bar)	uptake (moles * 10^5)
0.000667	0.44
0.001365	0.77
0.0022	1.05
0.003042	1.29
0.004853	1.72
0.006867	2.13
0.009839	2.65
0.012804	2.99
0.016703	3.32
0.020657	3.58
0.023557	3.74
0.02666	3.9
