Adsorption isotherm of Oxygen, Argon on Caesium Iodide
DOI: 10.1039/tf9514700088
Article source: Table II
Adsorbate Oxygen: InChIKey MYMOFIZGZYHOMD-UHFFFAOYSA-N
Adsorbate Argon: InChIKey XKRFYHLGVUSROY-UHFFFAOYSA-N
Kind: experiment
Temperature: 77 K
Tabular data in the source: 0
pressure (bar)	Oxygen fraction	Oxygen uptake (moles * 10^5)	Argon fraction	Argon uptake (moles * 10^5)	total uptake (moles * 10^5)
0.002253	0.218935	0.28	0.781065	0.67	0.95
0.0036	0.22963	0.37	0.77037	0.87	1.24
0.005306	0.223618	0.47	0.776382	1.09	1.56
0.007559	0.234568	0.57	0.765432	1.36	1.93
0.009919	0.235215	0.66	0.764785	1.61	2.27
0.012252	0.235038	0.75	0.764962	1.83	2.58
0.016052	0.23505	0.88	0.76495	2.04	2.92
0.020758	0.239563	0.96	0.760437	2.33	3.29
0.025971	0.24538	0.97	0.75462	2.6	3.57
