Adsorption isotherm of Nitrogen, Carbon monoxide on Caesium Iodide
DOI: 10.1039/tf9514700088
Article source: Table I
Adsorbate Nitrogen: InChIKey IJGRMHOSHXDMSA-UHFFFAOYSA-N
Adsorbate Carbon monoxide: InChIKey UGFAIRIUMAVXCW-UHFFFAOYSA-N
Kind: experiment
Temperature: 83 K
Tabular data in the source: 0
pressure (bar)	Nitrogen fraction	Nitrogen uptake (moles * 10^5)	Carbon monoxide fraction	Carbon monoxide uptake (moles * 10^5)	total uptake (moles * 10^5)
0.003106	0.978541	0.97	0.021459	1.16	2.13
0.003933	0.962712	0.97	0.037288	1.41	2.38
0.00516	0.96124	1.05	0.03876	1.59	2.64
0.007093	0.953008	0.98	0.046992	1.94	2.92
0.007986	0.928214	0.99	0.071786	2.02	3.01
0.010359	0.917632	0.91	0.082368	2.29	3.2
0.012506	0.897655	0.85	0.102345	2.35	3.2
0.014932	0.883929	0.75	0.116071	2.65	3.4
