Adsorption isotherm of Oxygen, Argon on Caesium Iodide
DOI: 10.1039/tf9514700088
Article source: Table II
Adsorbate Oxygen: InChIKey MYMOFIZGZYHOMD-UHFFFAOYSA-N
Adsorbate Argon: InChIKey XKRFYHLGVUSROY-UHFFFAOYSA-N
Kind: experiment
Temperature: 77 K
Tabular data in the source: 0
pressure (bar)	Oxygen fraction	Oxygen uptake (moles * 10^5)	Argon fraction	Argon uptake (moles * 10^5)	total uptake (moles * 10^5)
0.00244	0.431694	0.63	0.568306	0.42	1.05
0.003093	0.452586	0.7	0.547414	0.51	1.21
0.00388	0.443299	0.82	0.556701	0.56	1.38
0.00488	0.448087	0.95	0.551913	0.62	1.57
0.005413	0.460591	0.98	0.539409	0.69	1.67
0.006679	0.447106	1.17	0.552894	0.72	1.89
0.008359	0.4689	1.24	0.5311	0.9	2.14
0.010386	0.473684	1.4	0.526316	1.05	2.45
0.012786	0.468196	1.64	0.531804	1.15	2.79
0.017932	0.482528	1.8	0.517472	1.39	3.19
0.027838	0.493774	1.96	0.506226	1.74	3.7
