Adsorption isotherm of Argon on Caesium Iodide
DOI: 10.1039/tf9514700088
Article source: Table II
Adsorbate Argon: InChIKey XKRFYHLGVUSROY-UHFFFAOYSA-N
Kind: experiment
Temperature: 77 K
Tabular data in the source: 0
pressure (bar)	uptake (moles * 10^5)
0.000625	0.34
0.001669	0.68
0.003148	1.03
0.004842	1.37
0.006967	1.68
0.009514	2.07
0.013459	2.58
0.016065	2.82
0.019052	3.07
0.023833	3.38
0.025977	3.49
