Adsorption isotherm of Nitrogen, Carbon monoxide on Caesium Iodide
DOI: 10.1039/tf9514700088
Article source: Table I
Adsorbate Nitrogen: InChIKey IJGRMHOSHXDMSA-UHFFFAOYSA-N
Adsorbate Carbon monoxide: InChIKey UGFAIRIUMAVXCW-UHFFFAOYSA-N
Kind: experiment
Temperature: 83 K
Tabular data in the source: 0
pressure (bar)	Nitrogen fraction	Nitrogen uptake (moles * 10^5)	Carbon monoxide fraction	Carbon monoxide uptake (moles * 10^5)	total uptake (moles * 10^5)
0.00492	0.97832	1.35	0.02168	0.98	2.33
0.007053	0.979206	1.39	0.020794	1.28	2.67
0.008293	0.969453	1.42	0.030547	1.4	2.82
0.008626	0.984544	1.3	0.015456	1.5	2.8
0.011666	0.963429	1.33	0.036571	1.75	3.08
0.014292	0.944963	1.32	0.055037	1.88	3.2
0.014332	0.949767	1.28	0.050233	1.91	3.19
0.016052	0.960133	1.24	0.039867	2.03	3.27
0.017732	0.942105	1.18	0.057895	2.16	3.34
