Adsorption isotherm of Oxygen, Argon on Caesium Iodide
DOI: 10.1039/tf9514700088
Article source: Table II
Adsorbate Oxygen: InChIKey MYMOFIZGZYHOMD-UHFFFAOYSA-N
Adsorbate Argon: InChIKey XKRFYHLGVUSROY-UHFFFAOYSA-N
Kind: experiment
Temperature: 77 K
Tabular data in the source: 0
pressure (bar)	Oxygen fraction	Oxygen uptake (moles * 10^5)	Argon fraction	Argon uptake (moles * 10^5)	total uptake (moles * 10^5)
0.00224	0.684524	0.85	0.315476	0.17	1.02
0.00408	0.715686	1.21	0.284314	0.28	1.49
0.006159	0.725108	1.52	0.274892	0.38	1.9
0.008719	0.733945	1.87	0.266055	0.51	2.38
0.012466	0.73262	2.28	0.26738	0.57	2.85
0.016252	0.73749	2.51	0.26251	0.67	3.18
0.020345	0.740498	2.72	0.259502	0.73	3.45
0.025491	0.745293	2.84	0.254707	0.84	3.68
