Adsorption isotherm of Nitrogen, Carbon monoxide on Caesium Iodide
DOI: 10.1039/tf9514700088
Article source: Table I
Adsorbate Nitrogen: InChIKey IJGRMHOSHXDMSA-UHFFFAOYSA-N
Adsorbate Carbon monoxide: InChIKey UGFAIRIUMAVXCW-UHFFFAOYSA-N
Kind: experiment
Temperature: 83 K
Tabular data in the source: 0
pressure (bar)	Nitrogen fraction	Nitrogen uptake (moles * 10^5)	Carbon monoxide fraction	Carbon monoxide uptake (moles * 10^5)	total uptake (moles * 10^5)
0.002746	0.92233	0.55	0.07767	1.97	2.52
0.00336	0.884921	0.6	0.115079	2.14	2.74
0.004586	0.866279	0.5	0.133721	2.49	2.99
0.006253	0.814499	0.44	0.185501	2.77	3.21
0.008373	0.746815	0.45	0.253185	2.91	3.36
0.010252	0.719116	0.41	0.280884	3.08	3.49
0.011586	0.715765	0.3	0.284235	3.26	3.56
0.013279	0.699799	0.24	0.300201	3.38	3.62
0.015892	0.670302	0.22	0.329698	3.45	3.67
