Adsorption isotherm of Nitrogen, Carbon monoxide on Caesium Iodide
DOI: 10.1039/tf9514700088
Article source: Table I
Adsorbate Nitrogen: InChIKey IJGRMHOSHXDMSA-UHFFFAOYSA-N
Adsorbate Carbon monoxide: InChIKey UGFAIRIUMAVXCW-UHFFFAOYSA-N
Kind: experiment
Temperature: 83 K
Tabular data in the source: 0
pressure (bar)	Nitrogen fraction	Nitrogen uptake (moles * 10^5)	Carbon monoxide fraction	Carbon monoxide uptake (moles * 10^5)	total uptake (moles * 10^5)
0.000787	0.966102	0.44	0.033898	0.67	1.11
0.002346	0.965909	0.75	0.034091	1.48	2.23
0.00344	0.953488	0.77	0.046512	1.75	2.52
0.004226	0.936909	0.76	0.063091	1.95	2.71
0.005706	0.913551	0.71	0.086449	2.27	2.98
0.006266	0.904255	0.67	0.095745	2.37	3.04
0.007373	0.869801	0.66	0.130199	2.46	3.12
0.009679	0.848485	0.53	0.151515	2.76	3.29
0.010959	0.8382	0.47	0.1618	2.95	3.42
0.012706	0.793284	0.58	0.206716	2.9	3.48
0.012932	0.798969	0.51	0.201031	2.96	3.47
0.019092	0.739525	0.55	0.260475	3.09	3.64
