Adsorption isotherm of Nitrogen on Caesium Iodide
DOI: 10.1039/tf9514700088
Article source: Table I
Adsorbate Nitrogen: InChIKey IJGRMHOSHXDMSA-UHFFFAOYSA-N
Kind: experiment
Temperature: 83 K
Tabular data in the source: 0
pressure (bar)	uptake (moles * 10^5)
0.000121	0.21
0.000304	0.35
0.000459	0.45
0.000835	0.63
0.001197	0.78
0.001696	0.95
0.002196	1.1
0.004461	1.7
0.007383	2.18
0.01009	2.44
0.010626	2.51
0.012256	2.62
0.014767	2.77
0.016505	2.84
