Adsorption isotherm of Hydrogen on MCF-38
DOI: 10.1021/Ic102015g
Adsorbate Hydrogen: InChIKey UFHFLCQGNIYNRP-UHFFFAOYSA-N
Temperature: 77 K
Tabular data in the source: 0
pressure (bar)	uptake (cm3(STP)/g)
0.0240598	16.3084
0.037169	63.2832
0.037169	106.981
0.0633875	144.124
0.142043	166.519
0.338682	191.645
0.574648	205.3
0.994144	215.132
1.59717	223.325
2.6328	231.519
3.61599	236.434
4.14036	237.527
4.71717	241.35
5.1891	240.804
