Adsorption isotherm of Carbon Dioxide on MCF-38
DOI: 10.1021/Ic102015g
Adsorbate Carbon Dioxide: InChIKey CURLTUGMZLYLDI-UHFFFAOYSA-N
Temperature: 195 K
Tabular data in the source: 0
pressure (bar)	uptake (cm3(STP)/g)
0.00182509	1.01124
0.00182509	46.3692
0.0127495	68.9171
0.0498923	79.1423
0.100144	87.2701
0.130733	91.9894
0.200649	98.544
0.35796	104.312
0.456279	107.983
0.567707	109.818
0.714094	112.964
0.86485	115.062
0.967539	116.635
