Adsorption isotherm of Hydrogen on MCF-38
DOI: 10.1021/Ic102015g
Adsorbate Hydrogen: InChIKey UFHFLCQGNIYNRP-UHFFFAOYSA-N
Temperature: 77 K
Tabular data in the source: 0
pressure (bar)	uptake (wt%)
0.00619484	0.134837
0.00837971	0.549963
0.0105646	0.96072
0.0433377	1.26223
0.124178	1.49383
0.226867	1.62055
0.340481	1.70795
0.462833	1.77349
0.587371	1.82593
0.709724	1.85652
0.823338	1.88711
0.936951	1.90022
1.02653	1.91332
