Adsorption isotherm of Nitrogen on MCF-38
DOI: 10.1021/Ic102015g
Adsorbate Nitrogen: InChIKey IJGRMHOSHXDMSA-UHFFFAOYSA-N
Temperature: 77 K
Tabular data in the source: 0
pressure (bar)	uptake (cm3(STP)/g)
0.00182509	0.749056
0.00182509	53.7104
0.00400996	74.423
0.00400996	92.2516
0.00400996	105.885
0.0302285	111.915
0.100144	117.684
0.213758	121.354
0.366699	123.452
0.567707	125.549
0.722834	126.598
0.867035	127.647
0.967539	128.695
