Adsorption isotherm of Nitrogen on HKUST-1-N5
DOI: 10.1039/c5ra03986j
Article source: Figure 4
Adsorbate Nitrogen: InChIKey IJGRMHOSHXDMSA-UHFFFAOYSA-N
Kind: experiment
Temperature: 77 K
Tabular data in the source: 0
pressure (bar)	uptake (cm3(STP)/g)
0.000952	0.897
0.001165	19.919
0.001337	37.567
0.001348	38.056
0.001348	38.548
0.001348	39.041
0.001358	39.536
0.001358	137.619
0.001358	157.236
0.001368	176.852
0.001368	216.085
0.001368	220.183
0.003455	229.163
0.010659	242.39
0.030367	249.376
0.059397	256.808
0.085873	260.525
0.099866	262.755
0.119138	265.134
0.137792	266.027
0.140963	267.513
0.158979	268.257
0.179315	270.487
0.200086	271.776
0.20114	271.826
0.250303	274.281
0.251995	274.355
0.303266	276.939
0.303691	276.959
0.356775	278.745
0.359633	279.86
0.392888	282.342
0.404915	281.34
0.454524	283.112
0.458567	285.884
0.505652	297.977
0.506321	297.817
0.556771	299.69
0.556943	299.701
0.606795	301.869
0.60722	301.929
0.657761	292.147
0.659109	293.011
0.707715	294.627
0.708556	294.746
0.759086	297.107
0.761863	297.968
0.808178	302.326
0.813386	304.441
0.830206	304.387
0.833672	315.808
0.860503	308.695
0.863441	319.555
0.876248	323.675
0.884669	312.722
0.905754	332.664
0.909888	319.558
0.933619	351.152
0.935787	327.423
0.959578	341.048
0.965678	395.845
0.983258	369.838
0.984666	448.453
0.991566	462.49
0.991739	396.083
0.998801	432.884
1.00198	469.096
