Adsorption isotherm of Nitrogen on [Cd(bpdc)0.5(atz)(DMF)]2DMF
DOI: 10.1016/j.inoche.2015.02.017
Article source: Figure 4b
Adsorbate Nitrogen: InChIKey IJGRMHOSHXDMSA-UHFFFAOYSA-N
Kind: experiment
Temperature: 298 K
Tabular data in the source: 0
pressure (bar)	uptake (cm3(STP)/g)
3.54748	0
7.09497	0
44.3646	0.190476
62.1126	0.285714
88.7188	0.285714
131.299	0.380952
131.31	0.47619
168.563	0.52381
207.597	0.619048
207.602	0.666667
244.856	0.714286
283.893	0.857143
285.663	0.809524
321.153	0.952381
358.412	1.04762
360.196	1.14286
397.45	1.19048
434.715	1.33333
475.526	1.47619
511.011	1.57143
512.786	1.57143
550.05	1.71429
585.536	1.80952
589.088	1.85714
624.568	1.90476
647.643	2.04762
663.612	2.09524
700.876	2.2381
739.909	2.33333
770.073	2.42857
