Adsorption isotherm of Carbon Dioxide on [Cd(bpdc)0.5(atz)(DMF)]2DMF
DOI: 10.1016/j.inoche.2015.02.017
Article source: Figure 4a
Adsorbate Carbon Dioxide: InChIKey CURLTUGMZLYLDI-UHFFFAOYSA-N
Kind: experiment
Temperature: 195 K
Tabular data in the source: 0
pressure (bar)	uptake (cm3(STP)/g)
0.000183	5.58286
0.007173	9.01992
0.007327	13.7439
0.016589	16.5373
0.058049	22.5583
0.090389	30.0805
0.10399	25.3595
0.154507	27.9469
0.177629	33.964
0.225651	30.3239
0.278412	31.4087
0.278594	36.9916
0.328901	33.1372
0.377078	34.221
0.379553	39.8044
0.429853	35.7353
0.480315	36.6049
0.480483	41.7583
0.530784	37.6892
0.583552	38.9887
0.583706	43.7127
0.631735	40.2872
0.684503	41.5868
0.684637	45.6666
0.734979	42.8858
0.785455	44.1849
0.785553	47.191
0.838216	45.2697
0.888699	46.7834
0.907137	49.7935
0.936882	48.082
0.989657	49.5962
1.00634	68.9249
