Adsorption isotherm of Carbon Dioxide on [Cd(bpdc)0.5(atz)(DMF)]2DMF
DOI: 10.1016/j.inoche.2015.02.017
Article source: Figure 4b
Adsorbate Carbon Dioxide: InChIKey CURLTUGMZLYLDI-UHFFFAOYSA-N
Kind: experiment
Temperature: 298 K
Tabular data in the source: 0
pressure (bar)	uptake (cm3(STP)/g)
0.015837	0.142857
1.81598	0.380952
5.38457	0.571429
10.7375	0.857143
16.0798	1.04762
23.2065	1.33333
26.7803	1.57143
33.8965	1.7619
44.5758	2.09524
51.7025	2.38095
60.5923	2.57143
71.2717	2.90476
74.8455	3.14286
81.9617	3.33333
89.0883	3.61905
96.1991	3.7619
100.021	6.2381
101.536	3.90476
103.331	4.09524
153.112	5.14286
172.676	5.61905
178.256	7.95238
201.114	6.14286
225.999	6.61905
252.658	7.09524
256.459	9.38095
277.548	7.61905
304.207	8.09524
330.861	8.52381
332.862	10.5714
357.52	9
382.394	9.38095
409.053	9.85714
412.796	11.619
433.928	10.2381
462.355	10.6667
487.23	11.0476
490.952	12.619
512.11	11.4762
538.758	11.8571
565.412	12.2857
570.865	13.4762
590.286	12.6667
616.941	13.0952
636.562	14.0952
641.81	13.4286
670.237	13.8571
693.333	14.1905
719.991	14.6667
744.866	15.0476
771.509	15.381
