Adsorption isotherm of Nitrogen on [Cd(bpdc)0.5(atz)(DMF)]2DMF
DOI: 10.1016/j.inoche.2015.02.017
Article source: Figure 4a
Adsorbate Nitrogen: InChIKey IJGRMHOSHXDMSA-UHFFFAOYSA-N
Kind: experiment
Temperature: 77 K
Tabular data in the source: 0
pressure (bar)	uptake (cm3(STP)/g)
0.05736	1.51522
0.080383	4.52624
0.089475	2.1662
0.100945	2.38335
0.101022	4.74533
0.121597	3.0319
0.121661	4.96443
0.142237	3.251
0.153776	5.61541
0.16059	3.68434
0.183536	4.33337
0.201946	6.48451
0.204175	4.55247
0.247752	5.20588
0.252393	6.92465
0.302854	7.79424
0.305105	6.50637
0.355595	8.23487
0.357853	7.16172
0.403715	7.60089
0.408356	9.31967
0.458748	8.042
0.458804	9.7598
0.506931	9.34056
0.509266	10.6294
0.557386	9.99542
0.557442	11.7132
0.607848	10.865
0.607889	12.1534
0.658302	11.5199
0.660644	13.0234
0.708806	13.6778
0.711049	12.1752
0.759218	13.0443
0.766138	14.3341
0.80968	13.9139
0.812014	15.2028
0.830333	14.5625
0.834953	15.6371
0.862428	14.5693
0.862469	15.8576
0.885373	15.2183
0.887707	16.5071
0.912903	15.8683
0.912931	16.7272
0.935842	16.3026
0.938169	17.3767
0.954216	17.3801
0.965672	17.1678
0.977155	17.8144
0.993216	18.2473
1.00239	18.464
1.0093	19.3243
