Adsorption isotherm of Hydrogen on [Cd(bpdc)0.5(atz)(DMF)]2DMF
DOI: 10.1016/j.inoche.2015.02.017
Article source: Figure 4a
Adsorbate Hydrogen: InChIKey UFHFLCQGNIYNRP-UHFFFAOYSA-N
Kind: experiment
Temperature: 77 K
Tabular data in the source: 0
pressure (bar)	uptake (cm3(STP)/g)
0.002299	0.215211
0.011476	0.43188
0.013825	2.15017
0.020646	0.433823
0.034471	2.58399
0.038992	0.652435
0.066565	2.59079
0.071094	0.873962
0.105487	1.09597
0.13306	3.03433
0.139888	1.53271
0.21326	1.97771
0.270634	3.92238
0.284346	2.63694
0.355426	3.08146
0.399032	4.59376
0.42422	3.74021
0.4953	4.18472
0.536613	5.69654
0.570971	4.84492
0.639773	5.7184
0.64897	6.57925
0.710853	6.16291
0.78196	7.46632
0.784231	6.82263
0.857618	7.69708
0.898903	8.35
0.914964	8.78285
0.94018	8.7882
0.976866	9.01069
1.01584	9.23368
