Adsorption isotherm of Nitrogen on [(84%Co/16%Cu)(Me-prz-trz-ia)]
DOI: 10.1016/j.micromeso.2015.04.036
Article source: Figure 7
Adsorbate Nitrogen: InChIKey IJGRMHOSHXDMSA-UHFFFAOYSA-N
Kind: experiment
Temperature: 77 K
Tabular data in the source: 0
pressure (bar)	uptake (cm3(STP)/g)
0.00151	65.5834
0.021509	85.7003
0.030418	92.8374
0.039377	95.429
0.048359	96.0725
0.073071	96.7058
0.095514	99.2886
0.102168	107.077
0.122466	100.57
0.124618	109.01
0.149315	110.942
0.149417	101.851
0.17186	104.434
0.1785	113.52
0.198812	105.715
0.20095	115.454
0.223407	116.738
0.228011	106.995
0.245865	118.022
0.248222	108.28
0.2819	110.856
0.304365	111.491
0.340204	121.857
0.344786	114.062
0.394108	124.419
0.400944	115.973
0.439052	124.39
0.452615	117.239
0.490716	126.305
0.502039	118.505
0.537907	126.274
0.55595	120.418
0.585084	127.542
0.603134	121.037
0.634515	128.159
0.654798	122.951
0.681706	128.129
0.706469	124.217
0.733378	129.394
0.760402	124.182
0.782816	129.362
0.809812	126.747
0.827753	129.982
0.856996	127.366
0.895147	131.886
0.908667	128.631
0.951328	131.85
0.955778	135.743
0.971523	134.434
0.975959	139.626
0.989421	141.565
