Adsorption isotherm of Nitrogen on [Co(Me-prz-trz-ia)](rt)
DOI: 10.1016/j.micromeso.2015.04.036
Article source: Figure 7
Adsorbate Nitrogen: InChIKey IJGRMHOSHXDMSA-UHFFFAOYSA-N
Kind: experiment
Temperature: 77 K
Tabular data in the source: 0
pressure (bar)	uptake (cm3(STP)/g)
0.0125	89.3864
0.0375	93.0678
0.045	94.5385
0.0725	96.0238
0.0975	98.2399
0.1025	97.511
0.125	100.458
0.1275	98.9945
0.145	101.205
0.15	99.7436
0.1725	101.958
0.18	101.231
0.1975	103.441
0.205	101.982
0.225	104.927
0.2275	104.196
0.25	105.678
0.255	104.216
0.27	107.158
0.2825	104.969
0.2975	108.643
0.3025	105.716
0.35	111.612
0.395	112.377
0.3975	110.181
0.4475	112.416
0.4975	115.383
0.5	113.919
0.5475	116.885
0.555	115.425
0.5925	117.65
0.605	116.194
0.6425	118.419
0.655	117.696
0.695	119.923
0.7075	117.734
0.745	120.692
0.7575	119.236
0.795	122.194
0.8025	120.002
0.845	122.963
0.8575	121.507
0.885	123.725
0.9025	123.005
0.9475	125.236
0.9725	130.383
0.9775	139.91
0.99	145.78
