Adsorption isotherm of Nitrogen on [Co(Me-prz-trz-ia)](373K)
DOI: 10.1016/j.micromeso.2015.04.036
Article source: Figure 7
Adsorbate Nitrogen: InChIKey IJGRMHOSHXDMSA-UHFFFAOYSA-N
Kind: experiment
Temperature: 77 K
Tabular data in the source: 0
pressure (bar)	uptake (cm3(STP)/g)
0	0
0.03	2.21978
0.0375	2.22527
0.045	2.23077
0.0775	2.98718
0.105	3.00733
0.125	3.75458
0.15	3.77289
0.175	3.79121
0.2025	4.54396
0.2275	4.56227
0.25	5.31136
0.2775	4.5989
0.3025	4.61722
0.3525	5.38645
0.4025	5.42308
0.4525	6.19231
0.505	6.96337
0.5525	6.99817
0.605	7.76923
0.6525	7.80403
0.7	8.57143
0.7475	9.33883
0.7525	8.60989
0.7975	11.5733
0.8	10.1099
0.8075	12.3132
0.85	13.0769
0.8525	10.1484
0.8675	15.2875
0.8925	13.8407
0.9275	25.5879
0.935	14.6044
0.9475	29.2656
0.9525	16.815
0.955	31.4689
0.965	19.022
0.9725	21.2253
0.98	36.6154
0.985	26.3626
0.9875	34.4231
