Adsorption isotherm of Carbon Dioxide on [Co(Me-prz-trz-ia)](rt)
DOI: 10.1016/j.micromeso.2015.04.036
Article source: Figure 8
Adsorbate Carbon Dioxide: InChIKey CURLTUGMZLYLDI-UHFFFAOYSA-N
Kind: experiment
Temperature: 298 K
Tabular data in the source: 0
pressure (bar)	uptake (mmol/g)
0.117417	0.011742
0.234834	0.706052
0.35225	0.433718
0.821918	0.817003
1.409	0.9683
2.34834	1.12968
5.04892	1.4928
7.39726	1.69452
9.86301	1.83573
15.1468	2.02738
20.0783	2.16859
25.0098	2.3098
25.362	2.32997
30.0587	2.44092
34.9902	2.51153
39.8043	2.62248
44.8532	2.69308
49.7847	2.76369
52.4853	2.81412
