Adsorption isotherm of Nitrogen on [Cu(Me-prz-trz-ia)](373K)
DOI: 10.1016/j.micromeso.2015.04.036
Article source: Figure 7
Adsorbate Nitrogen: InChIKey IJGRMHOSHXDMSA-UHFFFAOYSA-N
Kind: experiment
Temperature: 77 K
Tabular data in the source: 0
pressure (bar)	uptake (cm3(STP)/g)
0.005	1.10294
0.025	1.47059
0.0525	1.10294
0.0725	1.47059
0.0975	1.47059
0.1275	1.47059
0.1475	1.47059
0.1725	1.83824
0.2	1.47059
0.225	1.83824
0.2475	1.47059
0.3	1.47059
0.3475	1.83824
0.3975	2.20588
0.405	2.20588
0.4475	2.20588
0.4525	2.57353
0.495	2.57353
0.505	2.20588
0.545	2.57353
0.555	2.57353
0.595	2.57353
0.6025	2.57353
0.645	2.57353
0.655	2.57353
0.695	2.94118
0.705	2.94118
0.745	2.94118
0.755	2.94118
0.7975	3.30882
0.81	3.67647
0.845	4.41176
0.8525	4.04412
0.8975	4.04412
0.9	5.51471
0.9125	6.98529
0.945	6.25
0.9525	10.2941
0.955	12.1324
0.965	8.45588
0.9675	14.3382
0.9825	16.9118
0.9875	13.6029
0.99	14.7059
0.9925	16.1765
