Adsorption isotherm of Carbon Dioxide on [(84%Co/16%Cu)(Me-prz-trz-ia)](rt)
DOI: 10.1016/j.micromeso.2015.04.036
Article source: Figure 8
Adsorbate Carbon Dioxide: InChIKey CURLTUGMZLYLDI-UHFFFAOYSA-N
Kind: experiment
Temperature: 298 K
Tabular data in the source: 0
pressure (bar)	uptake (mmol/g)
0.117417	0.011742
0.469667	0.494236
0.704501	0.635447
1.05675	0.695965
1.76125	0.847262
3.05284	0.988473
4.46184	1.08934
5.75342	1.17003
8.10176	1.28098
10.6849	1.38184
16.0861	1.52305
19.9609	1.62392
24.6575	1.7147
28.0626	1.74496
32.7593	1.87608
36.6341	1.89625
44.1487	1.97695
51.4286	1.89625
