Adsorption isotherm of Carbon Dioxide on [Cu(Me-prz-trz-ia)](rt)
DOI: 10.1016/j.micromeso.2015.04.036
Article source: Figure 8
Adsorbate Carbon Dioxide: InChIKey CURLTUGMZLYLDI-UHFFFAOYSA-N
Kind: experiment
Temperature: 298 K
Tabular data in the source: 0
pressure (bar)	uptake (mmol/g)
0.234834	0.040346
1.05675	0.100865
1.76125	0.121037
2.34834	0.14121
3.28767	0.17147
4.69667	0.181556
6.69276	0.221902
9.15851	0.252161
13.2681	0.292507
16.908	0.342939
25.4795	0.423631
30.0587	0.443804
34.9902	0.45389
39.9217	0.463977
44.8532	0.443804
49.7847	0.413545
54.9511	0.413545
59.0607	0.423631
