Adsorption isotherm of Nitrogen on [(53%Co/47%Cu(Me-prz-trz-ia)]
DOI: 10.1016/j.micromeso.2015.04.036
Article source: Figure 7
Adsorbate Nitrogen: InChIKey IJGRMHOSHXDMSA-UHFFFAOYSA-N
Kind: experiment
Temperature: 77 K
Tabular data in the source: 0
pressure (bar)	uptake (cm3(STP)/g)
0.015439	25.964
0.0401	31.1428
0.049081	31.7863
0.071546	32.4211
0.098505	33.0529
0.10289	42.7903
0.123217	33.6862
0.129864	42.1235
0.147929	34.3195
0.150081	42.7597
0.174895	34.302
0.177048	42.7422
0.199513	43.3769
0.201855	34.9339
0.224239	42.7115
0.226581	34.2685
0.248944	43.9942
0.253548	34.2509
0.273656	44.6275
0.278252	35.5336
0.298382	43.9621
0.305204	36.8148
0.347821	43.93
0.35241	35.4854
0.39502	43.25
0.404081	36.7506
0.442218	42.57
0.451273	36.72
0.496151	42.535
0.502944	37.9851
0.545583	43.1522
0.554622	38.6009
0.592774	43.1216
0.601821	37.9209
0.639958	43.7403
0.648998	39.189
0.691651	43.0574
0.702924	39.8033
0.738835	43.6761
0.759111	39.1175
0.788281	42.9946
0.801801	39.7391
0.842221	42.3102
0.860213	40.9999
0.8939	42.926
0.905165	40.3213
0.947811	44.8391
0.947833	42.891
0.977032	44.1708
0.97925	46.7667
0.990449	50.0062
