Adsorption isotherm of Nitrogen on [Cu(Me-prz-trz-ia)](rt)
DOI: 10.1016/j.micromeso.2015.04.036
Article source: Figure 7
Adsorbate Nitrogen: InChIKey IJGRMHOSHXDMSA-UHFFFAOYSA-N
Kind: experiment
Temperature: 77 K
Tabular data in the source: 0
pressure (bar)	uptake (cm3(STP)/g)
0.005	1.10294
0.025	1.47059
0.0525	1.10294
0.0725	1.47059
0.0975	1.47059
0.1275	1.47059
0.1475	1.47059
0.1725	1.83824
0.2	1.47059
0.225	1.83824
0.2475	1.47059
0.3	1.47059
0.3475	1.83824
0.3975	2.20588
0.455	2.20588
0.505	2.20588
0.5525	2.57353
0.6025	2.20588
0.65	2.20588
0.7025	2.57353
0.7525	2.94118
0.7975	2.94118
0.8025	2.94118
0.845	2.94118
0.8525	2.94118
0.87	3.30882
0.8775	2.20588
0.8875	3.67647
0.905	3.30882
0.9125	3.30882
0.9325	3.67647
0.94	3.67647
0.95	4.04412
0.96	5.14706
0.97	5.88235
0.9775	6.98529
0.99	9.92647
