Adsorption isotherm of Ethene on Zeolite 13X
DOI: 10.1021/je00028a029
Article source: Table 1
Adsorbate Ethene: InChIKey VGGSQFUCUMXWEO-UHFFFAOYSA-N
Kind: experiment
Temperature: 373 K
Tabular data in the source: 0
pressure (bar)	uptake (mmol/g)
0.0105	0.07
0.0131	0.12
0.0185	0.13
0.027	0.18
0.0378	0.24
0.0577	0.32
0.0695	0.38
0.1271	0.55
0.1828	0.69
0.1912	0.74
0.2515	0.87
0.324	0.97
0.4208	1.1
0.4323	1.1
0.4505	1.13
0.4653	1.14
0.5112	1.2
0.5612	1.26
0.6137	1.32
0.6177	1.33
0.6329	1.35
0.6993	1.39
0.7088	1.4
0.8119	1.47
0.8753	1.53
0.9357	1.55
0.9607	1.55
1.2611	1.72
1.3784	1.74
