Adsorption isotherm of Isobutane, Ethene on Zeolite 13X
DOI: 10.1021/je00028a029
Article source: Table III
Adsorbate Isobutane: InChIKey NNPPMTNAJDCUHE-UHFFFAOYSA-N
Adsorbate Ethene: InChIKey VGGSQFUCUMXWEO-UHFFFAOYSA-N
Kind: experiment
Temperature: 373 K
Tabular data in the source: 0
pressure (bar)	Isobutane fraction	Isobutane uptake (mmol/g)	Ethene fraction	Ethene uptake (mmol/g)	total uptake (mmol/g)
1.378	0.0339	0.177654	0.9661	1.56235	1.74
1.378	0.1876	0.710136	0.8124	0.969864	1.68
1.378	0.4425	1.03871	0.5575	0.531288	1.57
1.378	0.7279	1.12367	0.2721	0.346332	1.47
1.378	0.8839	1.25468	0.1161	0.14532	1.4
1.378	0.9617	1.35682	0.0383	0.023184	1.38
