Adsorption isotherm of Ethane on Zeolite 13X
DOI: 10.1021/je00028a029
Article source: Table 1
Adsorbate Ethane: InChIKey OTMSDBZUPAUEDD-UHFFFAOYSA-N
Kind: experiment
Temperature: 298 K
Tabular data in the source: 0
pressure (bar)	uptake (mmol/g)
0.0054	0.04
0.0105	0.09
0.0121	0.11
0.0354	0.27
0.0754	0.51
0.0971	0.66
0.1005	0.69
0.104	0.7
0.1355	0.91
0.14	0.99
0.1672	1.04
0.2	1.2
0.2094	1.24
0.2364	1.34
0.2482	1.39
0.3309	1.62
0.4094	1.74
0.4305	1.79
0.4653	1.85
0.5014	1.9
0.5075	1.9
0.5446	1.97
0.6369	2.02
0.6838	2.07
0.7118	2.06
0.8005	2.1
0.8426	2.15
0.9421	2.2
1.1083	2.25
1.2466	2.28
1.3784	2.29
