Adsorption isotherm of Isobutane, Ethane on Zeolite 13X
DOI: 10.1021/je00028a029
Article source: Table III
Adsorbate Isobutane: InChIKey NNPPMTNAJDCUHE-UHFFFAOYSA-N
Adsorbate Ethane: InChIKey OTMSDBZUPAUEDD-UHFFFAOYSA-N
Kind: experiment
Temperature: 298 K
Tabular data in the source: 0
pressure (bar)	Isobutane fraction	Isobutane uptake (mmol/g)	Ethane fraction	Ethane uptake (mmol/g)	total uptake (mmol/g)
1.378	0.003	0.187354	0.997	2.07265	2.26
1.378	0.0269	0.478292	0.9731	1.70171	2.18
1.378	0.0996	0.92537	0.9004	1.12463	2.05
1.378	0.127	1.28184	0.873	0.67816	1.96
1.378	0.2298	1.54109	0.7702	0.408915	1.95
1.378	0.3184	1.66345	0.6816	0.296548	1.96
1.378	0.4868	1.67022	0.5132	0.259778	1.93
1.378	0.5223	1.72677	0.4777	0.203229	1.93
1.378	0.92	1.86989	0.08	0.04011	1.91
1.378	0.9632	1.90542	0.0368	0.004584	1.91
