Adsorption isotherm of Carbon Dioxide on Zeolite 13X
DOI: 10.1021/je00028a029
Article source: Table 1
Adsorbate Carbon Dioxide: InChIKey CURLTUGMZLYLDI-UHFFFAOYSA-N
Kind: experiment
Temperature: 298 K
Tabular data in the source: 0
pressure (bar)	uptake (mmol/g)
0.0024	0.44
0.0037	0.61
0.0078	0.74
0.0088	0.93
0.0216	1.19
0.0239	1.28
0.028	1.4
0.0378	1.57
0.0725	2.02
0.0826	2.16
0.1591	2.68
0.2219	2.99
0.2316	3.02
0.2974	3.19
0.4579	3.44
0.5486	3.6
0.7276	3.71
0.8725	3.84
1.0232	3.92
1.3784	4.02
