Adsorption isotherm of Ethane on Zeolite 13X
DOI: 10.1021/je00028a029
Article source: Table 1
Adsorbate Ethane: InChIKey OTMSDBZUPAUEDD-UHFFFAOYSA-N
Kind: experiment
Temperature: 323 K
Tabular data in the source: 0
pressure (bar)	uptake (mmol/g)
0.0212	0.08
0.0425	0.15
0.0526	0.16
0.0624	0.19
0.1423	0.44
0.2829	0.79
0.3251	0.87
0.3406	0.92
0.5216	1.26
0.55	1.28
0.5523	1.28
0.6322	1.39
0.7276	1.49
0.7843	1.55
0.9249	1.66
1.0429	1.73
1.0753	1.76
1.2682	1.86
1.349	1.88
1.3784	1.89
