Adsorption isotherm of Isobutane on Zeolite 13X
DOI: 10.1021/je00028a029
Article source: Table 1
Adsorbate Isobutane: InChIKey NNPPMTNAJDCUHE-UHFFFAOYSA-N
Kind: experiment
Temperature: 323 K
Tabular data in the source: 0
pressure (bar)	uptake (mmol/g)
0.004	0.7
0.0078	0.86
0.0148	1
0.0243	1.19
0.0266	1.25
0.0813	1.37
0.172	1.43
0.1743	1.46
0.2913	1.52
0.4397	1.55
0.4545	1.55
0.7502	1.59
0.818	1.59
1.106	1.6
1.3022	1.64
1.3784	1.65
