Adsorption isotherm of Isobutane on Zeolite 13X
DOI: 10.1021/je00028a029
Article source: Table 1
Adsorbate Isobutane: InChIKey NNPPMTNAJDCUHE-UHFFFAOYSA-N
Kind: experiment
Temperature: 373 K
Tabular data in the source: 0
pressure (bar)	uptake (mmol/g)
0.0064	0.17
0.0101	0.23
0.0169	0.46
0.0172	0.47
0.0324	0.69
0.0452	0.82
0.1042	1.03
0.1433	1.08
0.148	1.1
0.1608	1.08
0.2765	1.21
0.3266	1.23
0.4066	1.26
0.6457	1.33
0.8057	1.33
1.0716	1.33
1.3784	1.34
