Adsorption isotherm of Carbon Dioxide on Zeolite 13X
DOI: 10.1021/je00028a029
Article source: Table 1
Adsorbate Carbon Dioxide: InChIKey CURLTUGMZLYLDI-UHFFFAOYSA-N
Kind: experiment
Temperature: 323 K
Tabular data in the source: 0
pressure (bar)	uptake (mmol/g)
0.0044	0.21
0.0111	0.49
0.0159	0.6
0.025	0.76
0.0468	0.97
0.0776	1.34
0.0863	1.41
0.1511	1.84
0.1797	1.97
0.2337	2.14
0.2836	2.29
0.4761	2.71
0.5193	2.8
0.5722	2.87
0.9406	3.22
1.1309	3.3
1.3784	3.44
