Adsorption isotherm of Isobutane, Ethane on Zeolite 13X
DOI: 10.1021/je00028a029
Article source: Table III
Adsorbate Isobutane: InChIKey NNPPMTNAJDCUHE-UHFFFAOYSA-N
Adsorbate Ethane: InChIKey OTMSDBZUPAUEDD-UHFFFAOYSA-N
Kind: experiment
Temperature: 323 K
Tabular data in the source: 0
pressure (bar)	Isobutane fraction	Isobutane uptake (mmol/g)	Ethane fraction	Ethane uptake (mmol/g)	total uptake (mmol/g)
1.378	0.0347	0.667	0.9653	1.173	1.84
1.378	0.0369	0.507093	0.9631	1.32291	1.83
1.378	0.1223	1.11178	0.8777	0.638225	1.75
1.378	0.2114	1.34686	0.7886	0.333144	1.68
1.378	0.6529	1.53941	0.3471	0.130594	1.67
1.378	0.819	1.63666	0.181	0.043344	1.68
1.378	0.8905	1.66098	0.1095	0.009018	1.67
