Adsorption isotherm of Isobutane, Ethene on Zeolite 13X
DOI: 10.1021/je00028a029
Article source: Table III
Adsorbate Isobutane: InChIKey NNPPMTNAJDCUHE-UHFFFAOYSA-N
Adsorbate Ethene: InChIKey VGGSQFUCUMXWEO-UHFFFAOYSA-N
Kind: experiment
Temperature: 323 K
Tabular data in the source: 0
pressure (bar)	Isobutane fraction	Isobutane uptake (mmol/g)	Ethene fraction	Ethene uptake (mmol/g)	total uptake (mmol/g)
1.378	0.0776	0.441531	0.9224	1.92847	2.37
1.378	0.2843	0.974475	0.7157	1.15552	2.13
1.378	0.3237	0.971	0.6763	1.029	2
1.378	0.5675	1.21714	0.4325	0.68286	1.9
1.378	0.6533	1.36627	0.3467	0.553728	1.92
1.378	0.7223	1.41199	0.2777	0.518012	1.93
1.378	0.8566	1.48833	0.1434	0.381667	1.87
1.378	0.9493	1.53273	0.0507	0.137274	1.67
