Adsorption isotherm of Isobutane, Ethene on Zeolite 13X
DOI: 10.1021/je00028a029
Article source: Table III
Adsorbate Isobutane: InChIKey NNPPMTNAJDCUHE-UHFFFAOYSA-N
Adsorbate Ethene: InChIKey VGGSQFUCUMXWEO-UHFFFAOYSA-N
Kind: experiment
Temperature: 298 K
Tabular data in the source: 0
pressure (bar)	Isobutane fraction	Isobutane uptake (mmol/g)	Ethene fraction	Ethene uptake (mmol/g)	total uptake (mmol/g)
1.378	0.045	0.327764	0.955	2.35224	2.68
1.378	0.1168	0.548355	0.8832	2.08165	2.63
1.378	0.1515	0.759156	0.8485	1.70084	2.46
1.378	0.2163	1.01264	0.7837	1.37736	2.39
1.378	0.3249	1.18703	0.6751	1.11297	2.3
1.378	0.3485	1.22081	0.6515	1.04919	2.27
1.378	0.531	1.51044	0.469	0.679557	2.19
1.378	0.7302	1.55664	0.2698	0.583364	2.14
1.378	0.8047	1.58562	0.1953	0.48438	2.07
1.378	0.8745	1.68469	0.1255	0.36531	2.05
