Adsorption isotherm of Ethene on Zeolite 13X
DOI: 10.1021/je00028a029
Article source: Table 1
Adsorbate Ethene: InChIKey VGGSQFUCUMXWEO-UHFFFAOYSA-N
Kind: experiment
Temperature: 323 K
Tabular data in the source: 0
pressure (bar)	uptake (mmol/g)
0.0067	0.25
0.0074	0.28
0.0094	0.38
0.0179	0.56
0.0185	0.57
0.03	0.7
0.0432	0.9
0.056	0.97
0.0566	1.01
0.0671	1.03
0.1204	1.35
0.1558	1.49
0.171	1.58
0.1956	1.67
0.3621	2.02
0.3965	2.07
0.4977	2.18
0.5338	2.22
0.6288	2.28
0.6504	2.29
0.7223	2.33
0.7853	2.37
0.7961	2.37
0.9593	2.43
1.3784	2.5
