Adsorption isotherm of Ethene on Zeolite 13X
DOI: 10.1021/je00028a029
Article source: Table 1
Adsorbate Ethene: InChIKey VGGSQFUCUMXWEO-UHFFFAOYSA-N
Kind: experiment
Temperature: 298 K
Tabular data in the source: 0
pressure (bar)	uptake (mmol/g)
0.0024	0.41
0.0027	0.41
0.0034	0.41
0.0057	0.58
0.0061	0.41
0.0081	0.69
0.0115	0.83
0.0131	0.89
0.0155	0.87
0.0159	0.94
0.0162	0.97
0.0185	1.01
0.0307	1.29
0.032	1.31
0.0391	1.36
0.0398	1.43
0.0465	1.54
0.056	1.64
0.057	1.63
0.0799	1.8
0.1086	1.95
0.234	2.31
0.2998	2.41
0.408	2.52
0.5665	2.65
0.7017	2.7
0.8898	2.76
0.9441	2.76
1.1619	2.81
1.3784	2.81
