Adsorption isotherm of Carbon Dioxide, Ethene on Zeolite 13X
DOI: 10.1021/je00028a029
Article source: Table III
Adsorbate Carbon Dioxide: InChIKey CURLTUGMZLYLDI-UHFFFAOYSA-N
Adsorbate Ethene: InChIKey VGGSQFUCUMXWEO-UHFFFAOYSA-N
Kind: experiment
Temperature: 298 K
Tabular data in the source: 0
pressure (bar)	Carbon Dioxide fraction	Carbon Dioxide uptake (mmol/g)	Ethene fraction	Ethene uptake (mmol/g)	total uptake (mmol/g)
1.378	0.9344	3.6807	0.0656	0.299296	3.98
1.378	0.9099	3.57591	0.0901	0.354093	3.93
1.378	0.7068	3.06293	0.2932	0.717066	3.78
1.378	0.507	2.56851	0.493	1.0815	3.65
1.378	0.3032	1.73564	0.6968	1.61436	3.35
1.378	0.1106	0.835961	0.8894	2.23404	3.07
