Adsorption isotherm of Isobutane on Zeolite 13X
DOI: 10.1021/je00028a029
Article source: Table 1
Adsorbate Isobutane: InChIKey NNPPMTNAJDCUHE-UHFFFAOYSA-N
Kind: experiment
Temperature: 298 K
Tabular data in the source: 0
pressure (bar)	uptake (mmol/g)
0.002	0.75
0.0024	0.99
0.0047	1.04
0.0152	1.36
0.0523	1.48
0.0738	1.49
0.1237	1.62
0.1312	1.63
0.23	1.63
0.2397	1.71
0.2637	1.71
0.409	1.79
0.5746	1.84
0.7664	1.82
0.905	1.81
1.3784	1.88
