Adsorption isotherm of Carbon Dioxide, Ethene on Zeolite 13X
DOI: 10.1021/je00028a029
Article source: Table III
Adsorbate Carbon Dioxide: InChIKey CURLTUGMZLYLDI-UHFFFAOYSA-N
Adsorbate Ethene: InChIKey VGGSQFUCUMXWEO-UHFFFAOYSA-N
Kind: experiment
Temperature: 323 K
Tabular data in the source: 0
pressure (bar)	Carbon Dioxide fraction	Carbon Dioxide uptake (mmol/g)	Ethene fraction	Ethene uptake (mmol/g)	total uptake (mmol/g)
1.378	0.9057	3.11469	0.0943	0.295306	3.41
1.378	0.6957	2.41453	0.3043	0.875469	3.29
1.378	0.3981	1.5795	0.6019	1.4205	3
1.378	0.3177	1.2096	0.6823	1.6704	2.88
1.378	0.0996	0.441294	0.9004	2.21871	2.66
