Adsorption isotherm of Methane on Carbon PAF-303
DOI: 10.1021/la302195m
Adsorbate Methane: InChIKey VNWKTOKETHGBQD-UHFFFAOYSA-N
Temperature: 298 K
Tabular data in the source: 0
pressure (bar)	uptake (mmol/cm3)
1.07991	0.587208
5.39957	2.25849
9.17927	3.43291
13.4989	4.33631
17.8186	5.1042
21.5983	5.78174
25.9179	6.41415
30.7775	7.04647
35.0972	7.58853
39.9568	8.17572
44.8164	8.62746
49.676	9.034
53.9957	9.53087
58.8553	9.93735
64.2549	10.3439
69.6544	10.7053
75.054	11.1118
79.3737	11.6087
84.7732	11.8345
90.1728	12.1055
95.5724	12.3314
102.052	12.783
106.911	12.9638
112.851	13.2799
118.251	13.5058
124.19	13.6865
130.67	13.9123
136.609	14.0478
142.549	14.2737
148.488	14.4995
154.968	14.8157
161.987	14.9512
167.927	14.9512
173.866	14.9512
181.425	15.2223
187.905	15.6288
194.384	15.4933
200.864	15.7643
207.343	15.8094
214.363	15.8998
220.842	15.8998
227.322	16.1257
233.801	16.0805
241.361	16.3515
247.84	16.5773
254.32	16.487
260.259	16.5321
267.279	16.6225
273.218	16.6677
279.698	16.7129
