Adsorption isotherm of Methane on Carbon PAF-303
DOI: 10.1021/la302195m
Adsorbate Methane: InChIKey VNWKTOKETHGBQD-UHFFFAOYSA-N
Temperature: 353 K
Tabular data in the source: 0
pressure (bar)	uptake (mmol/cm3)
0.547046	0.257713
4.92341	0.869783
9.29978	1.48185
13.1291	1.93285
16.9584	2.25499
21.8818	2.67378
25.7112	2.99592
30.0875	3.31806
33.3698	3.54356
38.8403	3.80127
42.6696	3.96234
47.046	4.18784
51.4223	4.3167
55.2516	4.38113
60.7221	4.60663
64.5514	4.73548
69.4748	4.86434
73.8512	4.96098
79.3217	5.12205
84.7921	5.05763
87.5274	5.18648
91.3567	5.18648
97.3742	5.31534
101.204	5.28312
107.221	5.47641
111.597	5.47641
115.974	5.31534
120.897	5.47641
125.274	5.41198
130.197	5.50862
134.573	5.37977
139.497	5.41198
144.967	5.4442
149.891	5.47641
155.361	5.37977
160.284	5.37977
165.208	5.25091
169.584	5.31534
172.867	5.31534
179.431	5.12205
183.807	5.15427
189.825	5.25091
194.201	5.05763
199.672	4.96098
205.689	5.02541
210.613	4.83213
213.895	4.86434
219.365	4.73548
225.383	4.73548
230.306	4.60663
