Adsorption isotherm of Methane on Carbon PAF-302
DOI: 10.1021/la302195m
Adsorbate Methane: InChIKey VNWKTOKETHGBQD-UHFFFAOYSA-N
Temperature: 353 K
Tabular data in the source: 0
pressure (bar)	uptake (mmol/cm3)
1.06385	0.583005
3.19439	1.68425
4.79159	2.52638
9.08661	3.95172
13.9447	4.95618
17.7219	5.76621
22.0467	6.51154
25.8338	7.0949
29.6295	7.48397
34.5144	7.87318
38.3101	8.26225
42.6588	8.4571
47.5537	8.61964
51.3592	8.78204
56.2541	8.94459
60.6029	9.13944
64.9559	9.23715
69.3146	9.20533
74.7555	9.33556
79.1128	9.33612
82.3794	9.36893
87.2785	9.43433
92.7293	9.33789
97.0837	9.40322
100.898	9.37133
106.354	9.14536
111.256	9.146
115.066	9.21126
120.514	9.17958
124.331	9.08293
130.332	8.85704
134.692	8.79284
139.595	8.76109
144.502	8.66458
149.945	8.73005
155.398	8.60123
160.315	8.24567
164.664	8.44052
168.489	8.14959
173.936	8.15029
179.391	7.95671
184.303	7.73067
188.108	7.89307
194.653	7.69963
199.563	7.50598
204.469	7.40947
213.188	7.31346
224.095	6.99105
229.542	6.99176
