Adsorption isotherm of Methane on Carbon PAF-303
DOI: 10.1021/la302195m
Adsorbate Methane: InChIKey VNWKTOKETHGBQD-UHFFFAOYSA-N
Temperature: 323 K
Tabular data in the source: 0
pressure (bar)	uptake (mmol/cm3)
0.545852	0.389714
5.45852	1.45209
8.73362	2.16033
13.1004	2.83299
17.4672	3.47021
22.3799	3.82387
26.7467	4.21304
31.1135	4.60222
35.4803	4.95595
39.8472	5.20338
44.214	5.45081
48.5808	5.62737
53.4934	5.83929
58.4061	6.19295
62.7729	6.1569
67.1397	6.29802
72.0524	6.43906
76.4192	6.75737
81.3319	6.86298
86.7904	6.8622
91.7031	6.86151
97.1616	7.03791
102.074	7.07265
106.441	7.21377
111.9	7.17756
116.812	7.106
122.817	7.03427
127.183	7.21083
133.188	7.17455
138.646	7.13834
144.105	7.10213
148.472	6.9952
154.476	6.92348
160.48	6.9935
165.393	6.85106
172.489	6.88549
177.402	6.81392
182.86	6.5651
187.773	6.59984
194.323	6.63435
199.782	6.52727
205.24	6.24301
210.699	6.13593
216.157	6.2769
222.162	6.09887
228.166	5.99171
234.17	5.77824
238.537	5.91937
245.087	5.7767
250	5.63426
