Adsorption isotherm of Methane on Carbon PAF-304
DOI: 10.1021/la302195m
Adsorbate Methane: InChIKey VNWKTOKETHGBQD-UHFFFAOYSA-N
Temperature: 298 K
Tabular data in the source: 0
pressure (bar)	uptake (mmol/cm3)
1.51919	0.30702
5.05762	1.19397
9.12402	1.60333
13.7006	2.01269
17.7658	2.45616
21.8347	2.7973
26.4202	2.96786
30.4866	3.37722
35.5874	3.41134
39.6652	3.51368
44.7545	3.85481
48.8324	3.95715
53.9192	4.36651
59.0225	4.3324
64.1118	4.67353
68.7011	4.74176
74.8172	4.91232
79.9193	4.91232
85.0213	4.91232
90.1043	5.42403
95.7166	5.42403
101.324	5.56048
106.95	5.18523
112.566	5.08289
118.694	4.94644
123.784	5.25346
129.389	5.45814
136.542	5.18523
142.15	5.28757
148.259	5.66282
154.917	4.98055
161.539	5.25346
167.662	5.25346
173.269	5.38991
179.4	5.15112
187.081	4.40062
193.197	4.57119
199.834	4.46885
206.469	4.40062
213.607	4.53708
220.248	4.29828
226.375	4.19594
233.538	3.65013
239.656	3.75247
246.821	3.17254
251.408	3.309
260.595	3.20666
270.274	3.61602
278.955	3.41134
