Adsorption isotherm of Methane on Carbon PAF-303
DOI: 10.1021/la302195m
Adsorbate Methane: InChIKey VNWKTOKETHGBQD-UHFFFAOYSA-N
Temperature: 353 K
Tabular data in the source: 0
pressure (bar)	uptake (mmol/cm3)
5.45852	0.955987
9.27948	1.52242
13.6463	2.05333
17.4672	2.37171
21.8341	2.79632
25.655	3.15013
30.0218	3.46843
35.4803	3.71571
38.7555	3.92786
43.6681	4.10434
47.4891	4.38728
50.7642	4.52856
56.7686	4.63402
61.1354	4.88145
65.5022	4.98713
69.869	5.16369
74.2358	5.23394
79.6943	5.37491
84.0611	5.44517
87.8821	5.5155
92.7948	5.58567
98.2533	5.6912
102.074	5.69066
107.533	5.83163
111.9	5.93732
116.812	5.79488
121.725	5.93593
125.546	5.86451
131.004	6.04092
134.825	5.93407
140.284	5.93329
145.742	5.93252
150.655	6.03813
155.022	5.96664
159.389	5.96602
164.301	5.92989
169.76	5.96455
174.672	5.99929
180.131	5.75047
185.59	5.82057
190.502	5.92618
194.869	5.74838
200.328	5.71217
204.148	5.71163
209.607	5.56911
215.066	5.67465
220.524	5.49669
225.437	5.496
230.349	5.42443
