Adsorption isotherm of Methane on Carbon PAF-301
DOI: 10.1021/la302195m
Adsorbate Methane: InChIKey VNWKTOKETHGBQD-UHFFFAOYSA-N
Temperature: 353 K
Tabular data in the source: 0
pressure (bar)	uptake (mmol/cm3)
5.48246	10.5654
9.32018	10.9623
12.6096	11.1607
17.5439	11.3591
22.4781	11.5079
25.7675	11.5575
30.1535	11.6567
34.5395	11.7063
37.8289	11.7063
42.2149	11.7559
46.6009	11.7559
50.4386	11.8055
55.9211	11.9047
60.8553	11.9047
64.1447	12.0535
68.5307	11.9543
74.0132	12.0535
78.9474	12.0535
83.8816	12.1527
87.7193	12.0535
93.2018	12.1527
97.0395	12.1527
101.974	12.1031
106.908	12.1527
111.842	12.2519
115.68	12.2023
121.711	12.2023
126.096	12.2023
131.031	12.2023
134.868	12.2519
140.351	12.3015
145.285	12.3015
149.123	12.3015
155.702	12.3015
160.088	12.3015
165.022	12.2519
168.86	12.3511
173.794	12.4007
180.373	12.3015
184.211	12.3511
189.145	12.3511
194.627	12.3015
200.11	12.4007
204.496	12.3511
209.978	12.3511
214.364	12.3511
219.298	12.3511
224.232	12.3511
229.167	12.4504
