Adsorption isotherm of Methane on Carbon PAF-302
DOI: 10.1021/la302195m
Adsorbate Methane: InChIKey VNWKTOKETHGBQD-UHFFFAOYSA-N
Temperature: 298 K
Tabular data in the source: 0
pressure (bar)	uptake (mmol/cm3)
1.10621	1.8208
4.34319	5.30822
5.39454	5.80209
6.98432	6.85148
9.08956	7.90093
13.2656	9.16665
18.4586	10.093
22.0974	10.8341
26.2429	11.3592
31.4065	11.5759
36.061	11.9467
40.7014	11.9782
44.8265	12.0095
49.4682	12.0718
54.11	12.1341
59.7788	12.104
64.4155	12.0428
69.565	11.92
75.2403	12.0442
80.386	11.8288
85.5394	11.7986
91.2006	11.5832
95.3218	11.522
102.014	11.3068
107.158	11.0606
113.845	10.722
119.005	10.8461
125.683	10.2914
130.319	10.1994
137.008	9.92253
143.182	9.64556
149.359	9.43032
154.501	9.12237
162.734	8.78394
167.886	8.72286
174.587	8.72368
181.263	8.10733
187.963	8.0773
194.138	7.8312
200.315	7.61595
207.007	7.40076
213.172	6.90779
219.877	7.00119
227.072	6.47748
233.776	6.54003
239.941	6.04705
247.665	5.86285
253.856	5.98705
260.547	5.74101
266.218	5.77256
272.39	5.43388
279.088	5.37299
