Adsorption isotherm of Methane on Carbon PAF-303
DOI: 10.1021/la302195m
Adsorbate Methane: InChIKey VNWKTOKETHGBQD-UHFFFAOYSA-N
Temperature: 298 K
Tabular data in the source: 0
pressure (bar)	uptake (mmol/cm3)
1.00264	0.477587
5.02462	2.08092
9.06945	3.0702
13.6321	3.85481
17.6934	4.40062
22.265	4.94644
25.8161	5.49225
30.9054	5.83339
34.9744	6.17452
39.551	6.58388
44.1339	6.82267
49.2271	7.06147
53.81	7.30026
58.393	7.53905
63.9976	7.74373
68.5844	7.88019
73.6801	8.05075
79.7962	8.22132
84.3867	8.25543
89.999	8.25543
96.1214	8.25543
101.217	8.426
107.343	8.32366
112.956	8.32366
118.058	8.32366
124.695	8.18721
130.819	8.15309
135.925	8.05075
142.052	7.9143
148.686	7.88019
154.297	7.9143
161.957	7.74373
167.068	7.50494
174.221	7.23203
180.853	7.23203
186.973	7.30026
194.64	6.92501
200.254	6.8909
206.894	6.68622
214.042	6.54977
220.172	6.34509
226.806	6.31097
233.45	6.00395
240.081	6.03807
246.2	6.14041
253.357	5.76516
259.991	5.73105
266.629	5.59459
272.755	5.49225
278.368	5.45814
