Adsorption isotherm of Methane on Carbon PAF-301
DOI: 10.1021/la302195m
Adsorbate Methane: InChIKey VNWKTOKETHGBQD-UHFFFAOYSA-N
Temperature: 323 K
Tabular data in the source: 0
pressure (bar)	uptake (mmol/cm3)
0.687613	10.3029
4.50372	11.2622
9.45111	11.4753
13.3	11.6175
17.1518	11.6885
21.0107	11.5819
25.9724	11.4398
29.8227	11.5464
35.3293	11.5464
39.7389	11.4398
44.1456	11.4043
47.9988	11.4398
52.9619	11.2622
56.8165	11.2622
61.2232	11.2267
66.7355	11.0845
72.2436	11.049
76.6531	10.9424
81.6105	10.9069
86.5693	10.8359
91.5324	10.6582
95.9419	10.5516
101.453	10.4451
107.514	10.3385
111.372	10.2674
116.877	10.3029
124.041	10.1608
127.35	10.0543
132.307	10.0187
138.367	9.94767
149.942	9.66345
156.556	9.52134
166.474	9.37923
171.427	9.45029
177.495	9.16607
182.456	9.05948
187.966	8.9529
195.136	8.66868
199.538	8.77527
205.044	8.77527
210.561	8.52657
222.127	8.45552
228.744	8.24235
232.599	8.24235
239.215	8.02919
245.82	8.10025
249.682	7.92261
