Adsorption isotherm of Methane on Carbon PAF-304
DOI: 10.1021/la302195m
Adsorbate Methane: InChIKey VNWKTOKETHGBQD-UHFFFAOYSA-N
Temperature: 353 K
Tabular data in the source: 0
pressure (bar)	uptake (mmol/cm3)
5.47826	0.496098
8.76465	0.779583
13.1456	1.13394
18.0667	1.34655
21.8947	1.52373
25.1741	1.63004
30.0966	1.87809
33.9232	2.01983
38.8457	2.26788
43.214	2.30331
46.4961	2.48049
51.956	2.51593
55.2368	2.65767
61.2468	2.79941
65.0692	2.83485
70.5305	2.90572
73.8098	3.01203
78.7225	3.01203
84.1881	3.1892
87.466	3.26007
93.4732	3.33095
98.9331	3.36638
103.303	3.43725
107.667	3.36638
111.492	3.47269
116.943	3.29551
121.866	3.54356
126.233	3.54356
130.601	3.57899
136.051	3.36638
141.517	3.54356
144.786	3.40182
150.802	3.6853
155.169	3.6853
160.619	3.47269
165.535	3.57899
169.898	3.47269
174.818	3.64987
180.264	3.33095
185.731	3.54356
190.099	3.57899
195.013	3.61443
200.459	3.29551
205.923	3.43725
211.383	3.47269
214.654	3.36638
218.476	3.40182
224.478	3.33095
229.389	3.29551
