Adsorption isotherm of Methane on Carbon PAF-302
DOI: 10.1021/la302195m
Adsorbate Methane: InChIKey VNWKTOKETHGBQD-UHFFFAOYSA-N
Temperature: 298 K
Tabular data in the source: 0
pressure (bar)	uptake (mmol/cm3)
0.954412	1.7739
2.92923	3.54779
3.90141	4.8441
4.88501	5.83339
6.89029	6.78856
9.39689	7.98253
13.4316	9.24472
17.4739	10.3022
21.5263	11.0868
26.0991	11.5985
30.6808	11.8715
35.2561	12.3149
39.3365	12.349
44.4347	12.4514
48.5138	12.5196
54.6312	12.6561
58.2026	12.6561
63.8161	12.6219
68.4105	12.5537
74.0177	12.6902
79.1248	12.5537
83.7154	12.5878
89.3339	12.4173
94.9475	12.3832
101.075	12.2467
106.696	12.0079
111.806	11.8032
118.944	11.9397
123.553	11.4621
130.187	11.428
135.806	11.2574
142.956	11.0527
148.063	10.9163
154.709	10.5751
160.841	10.3022
167.984	10.3022
173.595	10.3364
180.247	9.82465
186.369	9.82465
193.518	9.65408
200.157	9.48352
206.794	9.38118
212.935	8.86948
220.583	9.00593
227.232	8.56245
233.863	8.63068
240.513	8.15309
247.149	8.05075
253.776	8.22132
259.905	8.05075
266.538	8.01664
273.181	7.74373
279.304	7.74373
