Adsorption isotherm of Methane on Carbon PAF-301
DOI: 10.1021/la302195m
Adsorbate Methane: InChIKey VNWKTOKETHGBQD-UHFFFAOYSA-N
Temperature: 298 K
Tabular data in the source: 0
pressure (bar)	uptake (mmol/cm3)
7.11e-15	4.43e-16
0.539957	10.1181
1.07991	11.2924
4.31965	11.9248
9.17927	12.0603
12.959	12.2862
17.2786	12.4217
21.5983	12.6024
26.4579	12.5121
30.7775	12.5572
35.0972	12.6476
39.9568	12.6476
44.2765	12.8282
49.1361	12.7379
54.5356	12.5572
59.3952	12.783
63.7149	12.783
69.1145	12.783
73.9741	12.9186
79.9136	12.9186
84.7732	12.6024
90.7127	12.6927
96.6523	12.8734
100.972	12.7379
106.911	13.0089
113.391	12.8282
118.79	12.7379
124.19	12.9186
130.67	12.9186
136.069	12.8282
142.549	12.8734
149.028	13.1896
154.968	13.0541
161.447	13.0089
180.346	13.0541
187.365	13.0089
194.384	13.0993
201.404	13.0541
206.803	13.0541
213.823	13.1445
220.842	13.1896
227.322	13.2799
234.341	12.9638
240.821	12.9638
247.84	13.2799
254.86	12.9638
260.799	13.1445
267.279	13.2799
273.218	13.0541
279.158	13.0541
