Adsorption isotherm of Methane on Carbon PAF-301
DOI: 10.1021/la302195m
Adsorbate Methane: InChIKey VNWKTOKETHGBQD-UHFFFAOYSA-N
Temperature: 323 K
Tabular data in the source: 0
pressure (bar)	uptake (mmol/cm3)
1.53857	10.2061
5.40054	11.1427
9.22715	11.2719
14.1398	11.2719
17.9622	11.3042
22.3219	11.1427
26.1344	10.9489
31.0442	10.8843
34.8624	10.8197
40.8568	10.5936
44.1263	10.4644
49.0361	10.3998
53.9347	10.0769
62.6598	9.88307
71.9223	9.4955
90.9918	8.68806
98.0751	8.39738
101.888	8.2036
106.789	7.94522
111.696	7.81603
116.056	7.65454
121.504	7.42845
128.043	7.17007
132.949	7.00859
138.943	6.7825
143.85	6.65331
148.745	6.23344
154.739	6.00736
160.729	5.68438
166.186	5.65209
172.185	5.52289
177.081	5.13532
182.532	4.97383
187.432	4.68316
193.967	4.32788
199.968	4.26329
205.423	4.16639
211.413	3.84342
216.323	3.77882
221.77	3.52044
227.76	3.19747
233.212	3.03598
238.113	2.7776
244.114	2.713
250.653	2.45462
