Adsorption isotherm of Methane on Carbon PAF-301
DOI: 10.1021/la302195m
Adsorbate Methane: InChIKey VNWKTOKETHGBQD-UHFFFAOYSA-N
Temperature: 323 K
Tabular data in the source: 0
pressure (bar)	uptake (mmol/cm3)
0.548246	10.2678
5.48246	11.4583
9.86842	11.7559
17.5439	12.0039
21.3816	12.0535
26.864	12.0039
35.0877	12.2023
43.8596	12.2519
48.7939	12.3511
53.7281	12.2519
57.5658	12.3511
61.9518	12.3511
71.8202	12.3511
81.1404	12.4504
86.6228	12.5496
91.557	12.5
101.425	12.4504
112.39	12.4504
122.259	12.5992
133.772	12.6488
144.189	12.7976
149.671	12.5992
159.539	12.5496
171.601	12.8472
176.535	12.6984
182.018	12.748
188.048	12.5992
193.531	12.5496
200.11	12.6984
205.044	12.7976
211.075	12.748
215.461	12.9464
221.491	12.8472
227.522	12.748
233.553	12.8472
239.583	12.748
245.066	12.8472
250	12.748
