Adsorption isotherm of Methane on Carbon PAF-301
DOI: 10.1021/la302195m
Adsorbate Methane: InChIKey VNWKTOKETHGBQD-UHFFFAOYSA-N
Temperature: 353 K
Tabular data in the source: 0
pressure (bar)	uptake (mmol/cm3)
1.29106	8.98843
5.08434	10.5161
9.47964	10.7648
13.3257	10.978
17.7253	11.1201
21.5799	11.1201
25.4331	11.1556
29.8384	11.1556
34.7958	11.1201
38.6518	11.0845
43.6106	11.0135
48.0173	10.978
50.7735	10.9069
56.2787	10.9424
61.2332	10.978
65.0907	10.9069
68.9467	10.8714
73.907	10.7648
78.8643	10.7293
88.7819	10.5872
92.0873	10.5516
98.1517	10.374
101.459	10.3029
111.37	10.3029
116.883	10.1608
121.844	10.0187
125.148	10.0187
130.107	9.94767
135.069	9.80556
140.023	9.84109
144.985	9.69898
155.45	9.62792
159.86	9.52134
164.822	9.37923
169.779	9.3437
183.553	9.16607
189.618	8.9529
200.082	8.91738
209.451	8.73974
218.819	8.5621
228.731	8.5621
