Adsorption isotherm of Methane on Carbon PAF-303
DOI: 10.1021/la302195m
Adsorbate Methane: InChIKey VNWKTOKETHGBQD-UHFFFAOYSA-N
Temperature: 353 K
Tabular data in the source: 0
pressure (bar)	uptake (mmol/cm3)
1.62693	0.242232
4.87374	0.968927
9.75171	1.79252
13.546	2.42232
17.8906	2.85834
21.6877	3.39125
26.5742	3.92416
30.3727	4.40862
35.2648	4.74774
39.0647	5.18376
43.4135	5.47444
46.6702	5.86201
52.1084	6.15269
55.914	6.39492
61.3493	6.78249
65.1535	7.07317
70.5916	7.36385
73.8525	7.60608
78.7446	7.94521
83.0977	8.09054
88.5358	8.38122
91.7982	8.57501
97.2363	8.86569
102.134	9.01103
106.481	9.35015
111.922	9.54394
116.28	9.54394
121.17	9.93151
125.523	10.0768
130.418	10.3191
135.318	10.416
140.76	10.5613
145.658	10.7066
150.551	10.9973
154.904	11.1427
159.801	11.3365
165.247	11.3365
170.142	11.5787
175.583	11.7725
179.396	11.7725
184.838	11.9178
189.187	12.2085
195.178	12.2085
198.989	12.2569
204.975	12.4507
209.877	12.4507
214.229	12.6445
220.763	12.6929
225.113	12.9352
229.471	12.9352
