Adsorption isotherm of Methane on Carbon PAF-303
DOI: 10.1021/la302195m
Adsorbate Methane: InChIKey VNWKTOKETHGBQD-UHFFFAOYSA-N
Temperature: 323 K
Tabular data in the source: 0
pressure (bar)	uptake (mmol/cm3)
5.40006	1.59873
10.2766	2.47077
13.522	3.24591
18.4014	4.02105
22.1971	4.60241
27.085	5.08687
30.8835	5.57133
36.3146	6.10424
40.1131	6.58871
44.4605	6.92783
48.8051	7.36385
53.6958	7.75142
57.4915	8.33278
61.8446	8.47812
66.7409	8.6719
71.0869	9.05947
77.6087	9.54394
81.4115	9.88306
86.8525	10.0768
91.7474	10.3191
96.6395	10.6582
101.536	10.852
106.973	11.1911
112.411	11.4818
117.311	11.5302
122.754	11.6756
127.098	12.1116
133.087	12.2085
139.071	12.4507
143.969	12.5961
149.956	12.7414
154.853	12.8867
160.836	13.1774
165.74	13.129
171.721	13.4681
177.165	13.565
182.067	13.565
188.052	13.7588
194.58	14.0494
198.936	14.0979
204.928	14.0494
210.371	14.1948
216.9	14.437
221.799	14.5339
227.789	14.5824
233.78	14.5824
239.221	14.7761
244.123	14.7761
249.565	14.9215
