Adsorption isotherm of Methane on Carbon PAF-303
DOI: 10.1021/la302195m
Adsorbate Methane: InChIKey VNWKTOKETHGBQD-UHFFFAOYSA-N
Temperature: 298 K
Tabular data in the source: 0
pressure (bar)	uptake (mmol/cm3)
1.0539	0.555585
3.14894	1.35817
4.72468	2.06811
6.80569	2.53125
8.88797	3.02524
13.5565	3.73557
17.189	4.32233
21.8512	4.87836
25.9928	5.31089
30.6486	5.71263
35.3018	6.05265
39.955	6.39267
44.6044	6.64011
49.2513	6.82584
54.4162	7.07334
60.0952	7.29005
64.2241	7.414
69.3838	7.53807
75.5771	7.72399
80.2227	7.87885
85.3773	7.87949
91.0449	7.81847
95.1686	7.81898
102.39	7.94331
106.509	7.82038
112.693	7.79028
118.878	7.76019
124.541	7.60659
130.727	7.60736
136.388	7.39205
142.569	7.26937
148.752	7.20842
155.453	7.20925
162.145	6.99406
168.318	6.68624
174.491	6.37842
180.674	6.31746
188.409	6.41099
195.094	6.01065
200.245	5.91871
207.455	5.76531
214.146	5.51927
220.322	5.30402
227.02	5.21227
234.74	4.9355
239.894	4.90527
247.113	4.96788
254.315	4.62933
259.467	4.56825
266.676	4.38398
272.342	4.29211
279.555	4.20042
