Adsorption isotherm of Methane on Carbon PAF-304
DOI: 10.1021/la302195m
Adsorbate Methane: InChIKey VNWKTOKETHGBQD-UHFFFAOYSA-N
Temperature: 323 K
Tabular data in the source: 0
pressure (bar)	uptake (mmol/cm3)
13.7809	1.98117
17.3764	2.51271
21.5621	2.85095
27.5417	3.33417
29.9367	3.62409
35.3183	4.05899
38.9107	4.49388
43.6913	4.7838
47.874	5.02541
53.2541	5.41198
57.4383	5.70191
62.8138	5.94351
67.5929	6.18512
72.3797	6.66833
77.7506	6.76498
81.3337	6.90994
87.3102	7.29651
92.6981	7.92469
97.4679	7.87637
101.657	8.31126
107.626	8.45622
111.813	8.84279
117.184	8.93943
123.156	9.18104
128.528	9.326
133.905	9.61593
138.082	9.66425
144.058	10.0508
150.033	10.3891
154.803	10.3407
160.778	10.679
166.738	10.534
171.538	11.4521
178.103	11.5971
182.872	11.5005
188.841	11.6454
194.822	12.177
198.994	12.0803
205.562	12.3219
211.518	12.0803
217.489	12.2736
221.664	12.2736
228.827	12.4669
233.002	12.4669
240.176	12.9984
244.363	13.385
252.108	13.0951
