Adsorption isotherm of Methane on Carbon PAF-302
DOI: 10.1021/la302195m
Adsorbate Methane: InChIKey VNWKTOKETHGBQD-UHFFFAOYSA-N
Temperature: 323 K
Tabular data in the source: 0
pressure (bar)	uptake (mmol/cm3)
1.0398	1.13349
1.55334	1.84595
5.274	3.95123
9.55346	5.73277
13.3123	6.96375
17.0782	8.03283
22.5036	8.51925
25.7405	9.23207
30.0793	9.65359
35.5075	10.0753
39.8549	10.3025
44.2051	10.465
48.5567	10.595
52.3637	10.7251
57.26	10.8552
61.0726	10.8557
65.9759	10.824
71.4239	10.7923
76.8634	10.9549
81.2278	10.7936
86.68	10.6647
91.5777	10.7625
97.0356	10.5042
101.394	10.4724
106.303	10.3111
111.212	10.1498
117.201	10.2154
121.567	10.0216
127.023	9.79567
131.926	9.76393
139.021	9.44103
143.383	9.34445
149.93	9.08625
154.832	9.08688
160.278	9.08759
165.193	8.79679
170.654	8.47368
175.56	8.37717
181.019	8.08644
188.097	8.15212
194.094	8.02338
199.006	7.79734
202.828	7.57117
209.912	7.50732
220.283	6.99056
227.356	7.15338
232.279	6.6683
238.82	6.572
244.27	6.47556
249.177	6.37905
