Adsorption isotherm of Methane on Carbon PAF-302
DOI: 10.1021/la302195m
Adsorbate Methane: InChIKey VNWKTOKETHGBQD-UHFFFAOYSA-N
Temperature: 353 K
Tabular data in the source: 0
pressure (bar)	uptake (mmol/cm3)
1.0917	0.605534
2.72926	1.74536
4.91266	2.56462
8.73362	3.95378
13.1004	5.02237
17.4672	5.84163
21.2882	6.66088
26.2009	7.26641
29.476	7.69385
34.3886	8.08567
38.7555	8.47748
43.1223	8.72682
47.4891	8.97616
52.4017	9.22549
56.2227	9.33235
60.5895	9.54607
65.5022	9.65293
70.4148	9.68855
74.2358	9.83103
78.6026	9.90227
82.9694	9.93789
88.4279	10.0447
93.3406	9.97351
96.6157	10.0091
101.528	10.0804
106.987	9.90227
111.354	9.93789
116.266	10.0091
120.633	10.0447
126.092	9.93789
130.459	9.68855
135.371	9.75979
140.284	9.68855
145.197	9.68855
149.563	9.75979
155.568	9.58169
159.934	9.33235
165.393	9.58169
169.76	9.26111
174.127	9.36797
179.585	9.15426
185.044	8.90492
190.502	9.15426
194.323	8.97616
199.782	8.8693
204.148	8.76244
209.061	8.79806
214.52	8.6912
220.524	8.5131
224.891	8.44186
229.803	8.5131
