Adsorption isotherm of Methane on Carbon PAF-302
DOI: 10.1021/la302195m
Adsorbate Methane: InChIKey VNWKTOKETHGBQD-UHFFFAOYSA-N
Temperature: 353 K
Tabular data in the source: 0
pressure (bar)	uptake (mmol/cm3)
0.545852	0.596819
4.91266	2.58622
9.27948	4.22746
14.1921	5.47084
18.0131	6.31635
21.2882	7.21153
26.2009	7.95761
30.5677	8.5544
34.9345	9.05177
38.2096	9.59882
43.1223	9.89727
48.0349	10.2952
52.4017	10.6433
56.2227	10.9417
61.1354	11.2401
64.9563	11.4888
69.869	11.6877
74.2358	11.9861
78.6026	12.1353
83.5153	12.3342
87.3362	12.583
92.2489	12.6327
98.2533	12.8813
101.528	13.13
106.987	13.0306
111.9	13.13
116.812	13.4285
120.633	13.6274
126.092	13.6771
131.55	13.5776
135.917	13.7766
139.738	13.876
145.197	14.0252
150.655	14.2242
155.022	14.2242
155.568	14.2739
159.934	14.1247
164.301	14.5226
168.668	14.3236
175.218	14.622
180.677	14.5226
185.044	14.5226
189.956	14.8707
194.323	14.7713
200.328	14.8707
204.694	14.821
210.699	15.0199
215.066	15.0697
219.432	14.9702
224.345	15.0199
229.803	15.2686
