Adsorption isotherm of Methane on Carbon PAF-301
DOI: 10.1021/la302195m
Adsorbate Methane: InChIKey VNWKTOKETHGBQD-UHFFFAOYSA-N
Temperature: 298 K
Tabular data in the source: 0
pressure (bar)	uptake (mmol/cm3)
1.11179	11.2574
5.17184	11.8373
9.24967	11.9397
13.3262	12.0761
17.4079	12.0761
20.464	12.2126
25.5711	12.0761
30.1668	11.9738
34.7586	11.9738
39.3581	11.7691
43.4359	11.8715
48.5417	11.7691
53.6552	11.4621
58.2458	11.4962
63.8605	11.428
68.4549	11.3598
74.0684	11.3256
79.173	11.2574
84.2916	10.8139
89.3961	10.7457
95.5173	10.7798
101.138	10.541
106.242	10.5069
112.372	10.3022
117.481	10.0976
124.113	10.1317
130.24	9.99522
135.863	9.72231
143.012	9.55174
148.615	9.79054
154.747	9.55174
160.37	9.24472
168.535	9.21061
173.642	9.07416
179.772	8.86948
186.921	8.69891
193.045	8.6648
200.195	8.46011
206.326	8.25543
212.957	8.28955
220.616	8.11898
227.759	8.11898
234.407	7.70962
240.022	7.64139
247.16	7.77785
253.296	7.4026
259.925	7.50494
266.555	7.57317
272.689	7.26615
278.814	7.19792
