Adsorption isotherm of Methane on Carbon PAF-301
DOI: 10.1021/la302195m
Adsorbate Methane: InChIKey VNWKTOKETHGBQD-UHFFFAOYSA-N
Temperature: 353 K
Tabular data in the source: 0
pressure (bar)	uptake (mmol/cm3)
1.48483	8.97875
5.36377	10.303
9.74189	10.5613
14.6602	10.6905
17.3937	10.7874
21.7577	10.7228
26.1203	10.6259
29.9384	10.5613
34.3024	10.4967
39.2094	10.3676
43.5691	10.2061
47.9303	10.0769
52.29	9.91538
55.5623	9.85079
60.4736	9.81849
70.2833	9.46322
75.1903	9.33403
79.5501	9.17254
87.1793	8.88186
93.1766	8.72037
96.4404	8.46199
102.438	8.3005
107.346	8.20361
111.161	8.07442
117.157	7.88063
120.966	7.58995
125.877	7.55765
130.781	7.36387
135.138	7.13778
140.049	7.10549
144.953	6.9117
150.402	6.68562
154.764	6.58872
160.76	6.39494
165.116	6.13656
170.021	5.97507
174.927	5.81358
180.374	5.5552
184.741	5.5552
189.641	5.26452
193.999	5.07073
200.547	5.00614
205.995	4.78005
209.811	4.65086
215.262	4.48938
219.62	4.29559
225.621	4.1987
229.982	4.06951
