Adsorption isotherm of Methane on Carbon PAF-304
DOI: 10.1021/la302195m
Adsorbate Methane: InChIKey VNWKTOKETHGBQD-UHFFFAOYSA-N
Temperature: 298 K
Tabular data in the source: 0
pressure (bar)	uptake (mmol/cm3)
0.539957	0.361359
4.85961	1.40027
8.63931	1.98748
12.959	2.52951
16.7387	3.20706
21.5983	3.70393
25.9179	4.02012
30.7775	4.6525
35.0972	4.83317
39.9568	5.19453
44.2765	5.73657
49.676	6.05276
53.9957	6.63999
59.3952	6.86583
64.2549	7.40789
69.1145	7.72405
74.514	8.17572
79.9136	8.40162
85.3132	8.67259
90.1728	9.39536
96.1123	9.71152
101.512	10.1181
107.451	10.0277
112.851	10.2084
118.79	10.3439
124.19	10.9763
131.21	11.4731
137.149	11.428
142.549	11.8345
149.028	12.5572
155.508	12.1959
160.907	12.7379
167.927	13.0541
174.406	13.5509
187.365	13.0993
193.844	13.5509
200.324	13.7317
207.343	13.9123
213.823	14.364
220.842	14.3188
227.322	14.4544
233.801	14.1833
240.821	14.4544
247.84	14.2285
251.62	14.364
261.339	14.5447
270.518	15.2223
279.698	15.2674
