Adsorption isotherm of Methane on Carbon PAF-304
DOI: 10.1021/la302195m
Adsorbate Methane: InChIKey VNWKTOKETHGBQD-UHFFFAOYSA-N
Temperature: 353 K
Tabular data in the source: 0
pressure (bar)	uptake (mmol/cm3)
5.39245	0.773139
8.98177	1.11139
13.767	1.54628
16.7614	1.93285
21.5405	2.17445
25.7263	2.5127
29.314	2.80263
35.2906	3.1892
39.4748	3.47913
43.6605	3.81737
46.6519	4.1073
51.4279	4.25226
56.2085	4.54219
60.9906	4.88044
65.1702	5.0254
69.9478	5.21869
74.132	5.50862
78.9095	5.7019
84.2881	6.04015
87.2779	6.28175
92.0554	6.47504
96.833	6.66832
107.578	6.95825
111.762	7.24818
117.133	7.34482
121.32	7.73139
126.694	7.92467
131.47	8.06964
135.647	8.11796
141.022	8.35957
144.006	8.40789
151.178	8.8911
157.147	9.03606
160.727	9.08438
164.908	9.27767
169.683	9.37431
175.06	9.66424
179.828	9.5676
185.207	9.90584
190.582	10.1474
195.36	10.3407
200.126	10.1958
204.904	10.3891
210.877	10.679
215.649	10.679
220.425	10.8239
225.799	11.0172
229.977	11.1139
