Adsorption isotherm of Methane on Carbon PAF-303
DOI: 10.1021/la302195m
Adsorbate Methane: InChIKey VNWKTOKETHGBQD-UHFFFAOYSA-N
Temperature: 323 K
Tabular data in the source: 0
pressure (bar)	uptake (mmol/cm3)
4.37637	1.41742
8.75274	2.15835
13.1291	2.77042
17.5055	3.35027
21.3348	3.76906
25.1641	4.0912
30.6346	4.38113
34.4639	4.79991
39.9344	4.96098
43.7637	5.25091
48.14	5.41198
53.6105	5.60527
56.8928	5.99184
62.3632	5.89519
67.2867	6.02405
71.663	6.12069
76.0394	6.44283
82.0569	6.44283
86.4333	6.47505
91.3567	6.50726
96.8271	6.60391
101.204	6.63612
106.674	6.73276
111.05	6.73276
117.615	6.63612
122.538	6.53948
128.009	6.70055
132.932	6.63612
137.309	6.50726
143.873	6.47505
148.249	6.34619
155.908	6.34619
160.832	6.31398
166.849	6.12069
171.772	6.21734
176.696	6.08848
183.26	5.76634
188.731	5.73412
194.748	5.79855
199.672	5.70191
205.689	5.37977
210.613	5.25091
217.177	5.34755
221.554	5.15427
227.571	5.12205
234.136	4.83213
239.606	4.89655
245.077	4.70327
250	4.60663
