Adsorption isotherm of Methane on Carbon PAF-302
DOI: 10.1021/la302195m
Adsorbate Methane: InChIKey VNWKTOKETHGBQD-UHFFFAOYSA-N
Temperature: 323 K
Tabular data in the source: 0
pressure (bar)	uptake (mmol/cm3)
1.0917	1.14391
4.91266	4.07826
9.27948	6.06766
13.1004	7.4105
16.9214	8.70363
22.3799	9.30042
26.7467	10.1957
30.5677	10.7925
35.4803	11.3893
40.393	11.8369
44.214	12.2348
48.5808	12.5332
54.0393	12.8316
57.8603	13.13
62.2271	13.3787
67.6856	13.5279
72.0524	13.7269
76.4192	14.0252
82.4236	14.1745
86.7904	14.2242
91.7031	14.5226
96.6157	14.5226
102.074	14.7215
106.987	14.7713
112.445	14.7713
117.358	15.0199
122.817	15.1194
127.729	15.0697
133.188	15.3681
138.646	15.2686
144.105	15.4178
149.563	15.3681
155.022	15.6168
160.48	15.8654
165.939	15.766
171.397	15.766
177.402	15.8654
182.86	15.8157
188.865	16.2136
194.323	16.2633
199.782	16.1639
205.24	16.1639
210.699	16.3628
216.703	16.2136
221.616	16.313
228.166	16.6114
233.624	16.3628
236.9	16.3628
244.541	16.512
250.546	16.6612
