Adsorption isotherm of Methane on Carbon PAF-304
DOI: 10.1021/la302195m
Adsorbate Methane: InChIKey VNWKTOKETHGBQD-UHFFFAOYSA-N
Temperature: 323 K
Tabular data in the source: 0
pressure (bar)	uptake (mmol/cm3)
5.48814	0.744147
9.32602	1.16937
13.1611	1.52373
17.5406	1.84265
21.9159	2.05526
25.7453	2.26788
30.1234	2.55136
35.0431	2.72854
40.5143	3.04746
45.4312	3.15377
47.6146	3.15377
53.6289	3.40182
56.9068	3.47269
62.3695	3.57899
67.8323	3.6853
71.6617	3.89791
76.573	3.86248
82.0286	3.79161
87.4942	3.96879
91.8751	4.32314
96.7793	4.11053
102.246	4.32314
107.158	4.28771
112.077	4.46488
117.529	4.28771
123.536	4.35858
127.899	4.25227
133.904	4.28771
138.813	4.1814
144.826	4.39401
149.741	4.46488
154.645	4.25227
160.651	4.28771
166.095	3.93335
171.579	4.57119
177.582	4.53576
182.481	4.1814
187.935	4.07509
194.502	4.50032
200.491	4.11053
205.409	4.25227
210.845	3.6853
216.308	3.79161
222.85	3.57899
227.76	3.50812
232.122	3.40182
238.685	3.72074
244.698	3.93335
250.684	3.47269
