Adsorption isotherm of Methane on Carbon PAF-304
DOI: 10.1021/la302195m
Adsorbate Methane: InChIKey VNWKTOKETHGBQD-UHFFFAOYSA-N
Temperature: 298 K
Tabular data in the source: 0
pressure (bar)	uptake (mmol/cm3)
0.52695	0.277793
4.69024	1.23492
9.34602	1.63666
13.4851	2.00748
17.6267	2.44001
21.249	2.7799
26.41	2.93483
30.5503	3.3365
35.7037	3.30628
39.8338	3.46108
45.0025	3.80117
49.1288	3.86339
54.2988	4.23433
59.4509	4.17325
64.1041	4.51327
69.2614	4.57563
74.4224	4.73056
80.0913	4.7004
84.7305	4.70097
90.4184	5.13369
95.5718	5.10347
101.248	5.25846
106.903	4.88886
113.084	4.76619
118.747	4.61259
124.944	4.89109
130.622	5.07694
136.796	4.79997
142.468	4.83153
149.187	5.26438
155.343	4.55539
161.536	4.74131
166.693	4.80366
174.429	4.89719
180.605	4.65109
186.756	3.81866
193.983	4.06642
200.676	3.8821
207.374	3.82121
214.081	3.94547
220.772	3.69943
227.465	3.5151
234.146	3.02219
240.849	3.08473
247.011	2.49918
252.686	2.62331
261.444	2.50096
271.254	2.90333
279.493	2.68834
