Adsorption isotherm of Methane on Carbon PAF-302
DOI: 10.1021/la302195m
Adsorbate Methane: InChIKey VNWKTOKETHGBQD-UHFFFAOYSA-N
Temperature: 298 K
Tabular data in the source: 0
pressure (bar)	uptake (mmol/cm3)
1.07991	1.85196
3.23974	4.15563
4.85961	6.09793
7.01944	7.27237
8.63931	8.26611
13.4989	9.66632
17.2786	10.8408
21.5983	11.7442
26.4579	12.5121
31.3175	12.8734
35.0972	13.5509
39.4168	13.6413
44.2765	14.0027
48.5961	14.2285
53.9957	14.5447
59.3952	14.7706
64.2549	14.9512
68.5745	15.0867
74.514	15.4029
79.3737	15.4933
84.7732	15.8094
90.1728	15.8094
95.5724	16.0353
100.972	16.1257
106.911	16.1708
112.851	16.1257
118.251	16.5773
124.19	16.3966
130.13	16.5773
136.609	16.5773
142.009	16.6677
149.568	16.758
154.428	16.758
161.987	16.758
167.927	16.9387
174.406	17.2549
180.886	17.029
187.905	17.2549
194.384	17.3452
200.864	17.3904
206.803	17.5259
213.283	17.3
220.842	17.6614
227.322	17.3904
234.341	17.7066
241.361	17.3904
247.84	17.4808
254.86	17.8421
260.799	17.7518
267.279	17.9324
273.218	17.8421
280.238	17.9324
