Adsorption isotherm of Methane on Carbon PAF-302
DOI: 10.1021/la302195m
Adsorbate Methane: InChIKey VNWKTOKETHGBQD-UHFFFAOYSA-N
Temperature: 323 K
Tabular data in the source: 0
pressure (bar)	uptake (mmol/cm3)
1.0917	1.10421
5.45852	3.9894
9.82533	5.77039
13.1004	7.05269
17.4672	8.1569
21.8341	8.6912
26.2009	9.40359
31.1135	9.86665
34.3886	10.2941
39.3013	10.6503
43.6681	10.7928
48.0349	10.9352
52.9476	11.149
57.8603	11.2914
61.6812	11.3271
67.1397	11.2914
72.5983	11.3627
76.9651	11.612
81.3319	11.4339
86.7904	11.3627
91.7031	11.4695
97.1616	11.2914
102.074	11.2558
106.987	11.149
111.354	11.0421
117.904	11.1133
122.271	11.0065
127.183	10.7571
134.279	10.8284
138.1	10.5078
143.559	10.5078
150.109	10.2941
155.022	10.2941
159.934	10.3297
167.031	10.0804
170.852	9.86665
177.402	9.75979
182.314	9.51045
187.227	9.72417
194.323	9.58169
199.236	9.33235
205.24	9.18988
210.699	9.15426
215.066	8.90492
222.162	8.76244
228.166	8.97616
233.079	8.54872
240.175	8.44186
244.541	8.40624
251.092	8.29938
