Adsorption isotherm of Methane on Carbon PAF-301
DOI: 10.1021/la302195m
Adsorbate Methane: InChIKey VNWKTOKETHGBQD-UHFFFAOYSA-N
Temperature: 298 K
Tabular data in the source: 0
pressure (bar)	uptake (mmol/cm3)
1.49409	11.2019
5.12022	11.6343
8.72848	11.6348
13.8857	11.6971
16.9759	11.6358
22.1319	11.6673
26.2454	11.4209
30.8757	11.2055
34.9956	11.1134
40.6542	10.8364
44.778	10.8369
49.9237	10.6215
54.5438	10.1592
59.1779	10.0364
64.3261	9.8827
69.9873	9.66739
75.1356	9.51373
79.7646	9.26743
85.4105	8.68182
90.5575	8.4973
95.7058	8.34364
101.359	7.94318
107.024	7.82044
112.675	7.35826
118.846	6.98872
125.029	6.92777
130.686	6.61988
136.338	6.18855
142.507	5.78815
149.212	5.88156
155.38	5.4503
161.034	5.04983
167.209	4.80373
173.899	4.52682
180.586	4.1882
187.787	3.81879
193.962	3.57268
200.136	3.29572
207.34	2.98802
213.518	2.80363
220.208	2.52673
227.418	2.37333
234.096	1.8187
240.271	1.57259
247.49	1.6352
253.14	1.14216
259.839	1.08127
266.54	1.08209
272.71	0.712552
279.403	0.528226
