Adsorption isotherm of Methane on Carbon PAF-304
DOI: 10.1021/la302195m
Adsorbate Methane: InChIKey VNWKTOKETHGBQD-UHFFFAOYSA-N
Temperature: 323 K
Tabular data in the source: 0
pressure (bar)	uptake (mmol/cm3)
5	0.744775
8.33333	1.16573
14.4444	1.45717
18.3333	1.84575
22.2222	1.97527
26.6667	2.16956
30.5556	2.42861
35	2.59052
38.8889	2.91434
44.4444	3.01148
47.2222	3.01148
53.3333	3.27053
57.7778	3.3353
62.7778	3.43244
67.7778	3.4972
72.2222	3.72387
76.6667	3.65911
81.6667	3.56197
87.2222	3.69149
91.6667	4.11245
96.6667	3.88578
101.667	4.08007
107.222	4.08007
112.222	4.17722
117.222	3.98293
122.222	4.04769
127.222	3.88578
133.333	4.01531
138.889	3.82102
143.333	3.98293
148.889	4.11245
153.889	3.8534
161.111	3.8534
166.667	3.46482
171.111	4.11245
175	4.11245
182.222	3.78864
188.889	3.62673
193.333	3.88578
199.444	3.59435
205.556	3.72387
210	3.14101
216.667	3.20577
221.111	3.04386
226.111	3.01148
233.333	2.91434
238.889	3.10863
244.444	3.3353
250	2.88196
