Adsorption isotherm of Methane on Carbon PAF-304
DOI: 10.1021/la302195m
Adsorbate Methane: InChIKey VNWKTOKETHGBQD-UHFFFAOYSA-N
Temperature: 353 K
Tabular data in the source: 0
pressure (bar)	uptake (mmol/cm3)
5	0.453341
10.5556	0.744775
14.4444	1.03621
17.7778	1.26288
21.1111	1.45717
26.6667	1.65146
30	1.78098
35	1.94289
38.8889	2.16956
42.7778	2.26671
48.3333	2.36385
51.1111	2.39623
56.6667	2.49338
62.2222	2.68767
65.5556	2.68767
69.4444	2.75243
73.8889	2.81719
79.4444	2.88196
83.3333	2.9791
88.8889	3.07624
92.7778	3.14101
98.3333	3.14101
102.222	3.17339
107.222	3.14101
111.111	3.17339
116.111	3.01148
121.111	3.23815
126.111	3.23815
131.111	3.27053
135.556	3.10863
141.111	3.20577
144.444	3.07624
151.111	3.3353
155.556	3.3353
160	3.14101
165.556	3.23815
170.556	3.14101
174.444	3.17339
181.111	2.88196
185	3.04386
189.444	3.20577
195.556	3.14101
200.556	2.84957
205.556	2.94672
210.556	2.91434
215.556	2.94672
218.889	2.91434
225	2.88196
229.444	2.81719
