Adsorption isotherm of Nitrogen on COF-IHEP10
DOI: 10.1039/d1dt00186h
Article source: Figure 2a
Adsorbate Nitrogen: InChIKey IJGRMHOSHXDMSA-UHFFFAOYSA-N
Kind: experiment
Temperature: 77 K
Tabular data in the source: 0
pressure (bar)	uptake (cm3(STP)/g)
0.149007	114.614
0.202573	118.424
0.256137	121.867
0.309694	124.638
0.39003	128.703
0.55076	143.617
0.577542	145.4
0.60432	146.694
0.631101	148.293
0.657881	149.831
0.68466	151.309
0.711442	153.03
0.738223	154.63
0.765011	157.085
0.791797	159.296
0.96022	204.226
0.973734	219.305
0.988441	234.848
0.342166	127.479
0.461231	132.31
0.507888	141.9
0.808208	162.116
0.834108	164.998
0.86519	168.838
0.888527	174.591
0.917047	181.302
0.935234	189.924
0.992653	247.38
1.01083	255.045
1.00288	233.026
0.997514	211.007
0.989645	198.56
0.963605	179.405
0.940219	167.909
0.914294	162.156
0.885783	156.402
0.862454	151.607
0.828792	148.722
0.810663	146.801
0.758881	142.953
0.70709	138.147
0.663079	135.258
0.611304	132.367
0.556943	129.475
0.510344	126.586
0.461157	123.695
0.409383	120.804
0.365379	118.873
0.308422	115.022
0.251481	113.086
0.207469	110.198
0.189349	109.234
0.166037	106.353
0.147908	104.432
0.127192	102.51
0.106467	99.6301
0.090917	96.7525
0.059794	88.1255
0.031232	76.6278
0.012971	59.3905
0.007747	53.6451
0.005102	46.9434
0.002974	40.2419
0.002924	34.4984
0.002867	27.7977
0.002809	21.097
0.002743	13.439
0.002685	6.73827
