Adsorption isotherm of Nitrogen on COF-IHEP11
DOI: 10.1039/d1dt00186h
Article source: Figure 2b
Adsorbate Nitrogen: InChIKey IJGRMHOSHXDMSA-UHFFFAOYSA-N
Kind: experiment
Temperature: 77 K
Tabular data in the source: 0
pressure (bar)	uptake (cm3(STP)/g)
1.00787	98.09
0.994667	94.7794
0.984101	92.2967
1.00518	91.0467
0.965581	84.4298
0.994561	82.7629
0.986621	79.0362
0.933855	73.6667
0.965446	69.0984
0.910073	67.0447
0.936407	64.1355
0.886314	62.9088
0.910015	60.4149
0.859922	59.1882
0.886266	57.5221
0.841445	56.2937
0.857246	54.631
0.830868	52.5678
0.812417	52.5739
0.809763	50.5029
0.770217	49.6871
0.762284	46.7892
0.709558	45.9777
0.704268	43.9076
0.656807	42.2657
0.659425	40.193
0.606695	38.9672
0.611956	37.7223
0.559223	36.0821
0.556573	34.4255
0.509104	31.9549
0.506472	32.3701
0.459	29.4851
0.456364	29.4859
0.400988	27.0179
0.406256	26.6018
0.356156	24.5464
0.356156	24.5464
0.303412	21.6631
0.300772	21.2496
0.253304	18.7789
0.248032	18.7806
0.203199	16.3091
0.20056	15.8956
0.179465	15.0738
0.158367	13.8376
0.139905	12.6005
0.121446	11.7778
0.100348	10.5416
0.087161	9.71723
0.058151	8.06927
0.026502	6.0078
0.011728	4.60379
0.006446	3.36242
0.003802	2.53456
