Adsorption isotherm of Hydrogen on COF-1
DOI: 10.1021/Ja9015765
Adsorbate Hydrogen: InChIKey UFHFLCQGNIYNRP-UHFFFAOYSA-N
Temperature: 77 K
Tabular data in the source: 0
pressure (bar)	uptake (cm3(STP)/g)
0.14928	24.2284
0.198547	30.7073
0.382181	53.5242
0.43742	60.003
0.495646	66.7636
0.549392	73.5242
0.59866	79.158
0.709139	92.6791
0.801702	103.665
0.873364	110.707
0.921139	116.623
1.0346	128.735
