Adsorption isotherm of Methane on COF-1
DOI: 10.1021/Ja9015765
Adsorbate Methane: InChIKey VNWKTOKETHGBQD-UHFFFAOYSA-N
Temperature: 298 K
Tabular data in the source: 0
pressure (bar)	uptake (mg/g)
13.0692	28.737
16.5622	32.5398
20.5058	37.6102
27.041	38.8778
30.9847	40.9905
37.2946	43.5257
44.7312	45.2158
48.5622	45.2158
53.0692	44.3708
59.6044	44.7933
65.6889	46.0609
72.5622	45.6384
86.534	46.4834
