Adsorption isotherm of Hydrogen on COF-6
DOI: 10.1021/Ja9015765
Adsorbate Hydrogen: InChIKey UFHFLCQGNIYNRP-UHFFFAOYSA-N
Temperature: 77 K
Tabular data in the source: 0
pressure (bar)	uptake (cm3(STP)/g)
0.0193923	13.2425
0.0477585	25.6369
0.104491	45.9185
0.161223	58.8763
0.219449	69.0171
0.274688	78.8763
0.385167	92.6791
0.498632	103.102
0.607618	111.834
0.709139	118.876
0.819618	126.482
0.927111	130.989
1.0361	135.214
