Adsorption isotherm of Hydrogen on COF-6
DOI: 10.1021/Ja9015765
Adsorbate Hydrogen: InChIKey UFHFLCQGNIYNRP-UHFFFAOYSA-N
Temperature: 77 K
Tabular data in the source: 0
pressure (bar)	uptake (mg/g)
1.21328	14.1443
4.07357	18.1487
6.93386	20.0936
13.2265	22.0386
20.0912	22.4963
26.155	22.4963
39.5411	22.0386
46.177	21.581
59.2199	21.1234
65.3981	20.7801
72.8348	20.3225
84.848	20.4369
