Adsorption isotherm of Hydrogen on COF-103
DOI: 10.1021/Ja9015765
Adsorbate Hydrogen: InChIKey UFHFLCQGNIYNRP-UHFFFAOYSA-N
Temperature: 77 K
Tabular data in the source: 0
pressure (bar)	uptake (mg/g)
0.562161	8.33925
2.59033	26.0294
5.18188	41.466
7.77343	50.8181
10.365	57.0153
12.9565	61.4097
19.6044	67.7195
26.1396	71.5505
31.0974	72.4519
39.7734	72.2266
45.4072	72.3392
59.3791	71.2125
65.9143	69.9731
72.9002	69.4097
86.0833	67.0435
