Adsorption isotherm of Hydrogen on COF-10
DOI: 10.1021/Ja9015765
Adsorbate Hydrogen: InChIKey UFHFLCQGNIYNRP-UHFFFAOYSA-N
Temperature: 77 K
Tabular data in the source: 0
pressure (bar)	uptake (cm3(STP)/g)
0.0149134	1.97488
0.156744	23.1016
0.267223	36.6228
0.37173	46.7636
0.476237	57.4678
0.588209	65.0735
0.698688	72.6791
0.794237	80.5664
0.903223	87.327
0.958463	91.2707
1.01221	94.3692
