Adsorption isotherm of Methane on COF-10
DOI: 10.1021/Ja9015765
Adsorbate Methane: InChIKey VNWKTOKETHGBQD-UHFFFAOYSA-N
Temperature: 298 K
Tabular data in the source: 0
pressure (bar)	uptake (mg/g)
2.13963	6.3426
5.40723	15.6384
13.0692	35.4975
19.7171	51.9764
28.1678	67.1877
35.7171	79.4412
46.3086	93.8074
53.5199	101.836
59.7171	106.483
65.5762	110.709
72.5622	114.934
86.196	122.54
