Adsorption isotherm of Hydrogen on COF-102
DOI: 10.1021/Ja9015765
Adsorbate Hydrogen: InChIKey UFHFLCQGNIYNRP-UHFFFAOYSA-N
Temperature: 77 K
Tabular data in the source: 0
pressure (bar)	uptake (mg/g)
0.104001	13.0504
0.169187	22.4893
0.263176	32.2143
0.335942	38.2209
0.376872	43.0834
0.439027	48.5179
0.481473	52.8084
0.593654	61.6753
0.695222	68.826
0.805887	77.4068
0.912003	83.6995
1.02115	92.2803
1.07876	95.1406
