Adsorption isotherm of Argon on COF-6
DOI: 10.1021/Ja9015765
Adsorbate Argon: InChIKey XKRFYHLGVUSROY-UHFFFAOYSA-N
Temperature: 87 K
Tabular data in the source: 0
pressure (bar)	uptake (cm3(STP)/g)
0.00944547	17.4505
0.015166	182.203
0.0380483	234.832
0.103835	239.409
0.15532	250.85
0.254	257.715
0.459941	271.444
0.5529	278.309
0.65158	276.02
0.714506	282.885
0.763131	282.885
0.861811	294.326
0.904715	296.614
0.95191	330.938
1.00482	472.808
