Adsorption isotherm of Methane on COF-8
DOI: 10.1021/Ja9015765
Adsorbate Methane: InChIKey VNWKTOKETHGBQD-UHFFFAOYSA-N
Temperature: 298 K
Tabular data in the source: 0
pressure (bar)	uptake (mg/g)
0.111456	2.11725
19.9424	61.2722
26.1396	73.5257
30.9847	81.9764
35.3791	88.737
39.9988	94.6525
46.7593	100.145
58.5903	108.174
71.7734	112.821
85.2946	114.512
