Adsorption isotherm of Methane on COF-5
DOI: 10.1021/Ja9015765
Adsorbate Methane: InChIKey VNWKTOKETHGBQD-UHFFFAOYSA-N
Temperature: 298 K
Tabular data in the source: 0
pressure (bar)	uptake (mg/g)
14.6467	46.4834
36.8438	88.737
44.1678	99.7229
48.6748	103.103
59.1537	111.976
65.4636	116.202
71.8861	120.427
84.8438	125.075
