Adsorption isotherm of Hydrogen on COF-5
DOI: 10.1021/Ja9015765
Adsorbate Hydrogen: InChIKey UFHFLCQGNIYNRP-UHFFFAOYSA-N
Temperature: 77 K
Tabular data in the source: 0
pressure (bar)	uptake (mg/g)
1.21328	10.4831
5.44651	24.2125
7.62032	26.8439
10.3662	29.4754
13.4553	31.5348
16.6588	33.1366
19.9768	34.2807
26.0406	35.9968
29.7017	37.3698
37.0241	38.8571
48.4652	38.7427
59.7919	38.3995
66.5422	37.8274
72.9493	38.1707
86.1066	36.6833
