Adsorption isotherm of Argon on COF-103
DOI: 10.1021/Ja9015765
Adsorbate Argon: InChIKey XKRFYHLGVUSROY-UHFFFAOYSA-N
Temperature: 87 K
Tabular data in the source: 0
pressure (bar)	uptake (cm3(STP)/g)
0.0366182	278.309
0.0494895	358.397
0.0909636	422.467
0.125287	463.655
0.172482	527.726
0.264011	655.866
0.282603	777.142
0.306915	1005.97
0.361261	1049.44
0.45851	1076.9
0.509996	1090.63
0.600095	1111.22
0.704495	1131.82
0.804605	1154.7
0.904715	1170.72
1.00339	1349.2
