Adsorption isotherm of Argon on COF-5
DOI: 10.1021/Ja9015765
Adsorbate Argon: InChIKey XKRFYHLGVUSROY-UHFFFAOYSA-N
Temperature: 87 K
Tabular data in the source: 0
pressure (bar)	uptake (cm3(STP)/g)
0.0123058	241.697
0.065221	351.532
0.136728	484.249
0.171052	596.372
0.176772	697.054
0.232548	797.737
0.259721	800.025
0.517146	838.925
0.65015	848.078
0.75598	861.807
0.863241	875.536
0.95906	889.266
1.00053	930.454
