Adsorption isotherm of Argon on COF-8
DOI: 10.1021/Ja9015765
Adsorbate Argon: InChIKey XKRFYHLGVUSROY-UHFFFAOYSA-N
Temperature: 87 K
Tabular data in the source: 0
pressure (bar)	uptake (cm3(STP)/g)
0.0366182	383.567
0.0494895	447.638
0.106695	509.42
0.259721	530.014
0.302625	536.878
0.35268	543.743
0.404165	543.743
0.55147	555.184
0.608675	552.896
0.65301	552.896
0.75884	564.337
0.861811	571.202
0.907575	580.355
0.95906	600.949
1.00053	669.596
