Adsorption isotherm of Argon on COF-102
DOI: 10.1021/Ja9015765
Adsorbate Argon: InChIKey XKRFYHLGVUSROY-UHFFFAOYSA-N
Temperature: 87 K
Tabular data in the source: 0
pressure (bar)	uptake (cm3(STP)/g)
0.0137359	250.85
0.0223168	415.602
0.0237469	546.031
0.0237469	795.448
0.0280373	935.03
0.0380483	983.083
0.095254	1083.77
0.15675	1129.53
0.25543	1166.14
0.562911	1221.06
0.65158	1223.35
0.75884	1234.79
0.864671	1239.36
0.95191	1255.38
1.00053	1337.76
