Adsorption isotherm of Argon on COF-1
DOI: 10.1021/Ja9015765
Adsorbate Argon: InChIKey XKRFYHLGVUSROY-UHFFFAOYSA-N
Temperature: 87 K
Tabular data in the source: 0
pressure (bar)	uptake (cm3(STP)/g)
0.00944547	10.5858
0.0223168	195.932
0.0480593	218.815
0.15532	237.12
0.314066	260.003
0.45708	271.444
0.604385	273.732
0.684473	287.462
0.760271	289.75
0.864671	289.75
0.95477	310.344
0.999104	353.82
