Adsorption isotherm of Hydrogen on COF-1
DOI: 10.1021/Ja9015765
Adsorbate Hydrogen: InChIKey UFHFLCQGNIYNRP-UHFFFAOYSA-N
Temperature: 77 K
Tabular data in the source: 0
pressure (bar)	uptake (mg/g)
0.526814	5.33457
2.47181	9.56779
6.70503	11.5128
9.56532	12.4281
13.1121	13.6866
19.8623	13.6866
26.3838	14.0298
39.5411	14.3731
45.8337	14.7163
59.2199	14.3731
65.9702	13.9154
71.8051	14.4875
78.2122	14.9451
86.1066	14.1443
