Adsorption isotherm of Methane on COF-102
DOI: 10.1021/Ja9015765
Adsorbate Methane: InChIKey VNWKTOKETHGBQD-UHFFFAOYSA-N
Temperature: 298 K
Tabular data in the source: 0
pressure (bar)	uptake (mg/g)
4.05512	28.3144
9.68892	66.3426
13.1819	86.2018
17.3509	110.286
22.196	136.483
26.703	155.075
31.9988	175.779
37.1819	193.526
42.4777	206.624
52.8438	223.948
59.6044	231.976
65.5762	237.047
72.9002	240.005
85.4072	242.117
