Adsorption isotherm of Methane on COF-103
DOI: 10.1021/Ja9015765
Adsorbate Methane: InChIKey VNWKTOKETHGBQD-UHFFFAOYSA-N
Temperature: 298 K
Tabular data in the source: 0
pressure (bar)	uptake (mg/g)
1.23822	8.45528
3.04103	20.2863
5.29456	33.8074
7.99878	51.9764
10.703	66.3426
13.0692	81.9764
20.3931	114.934
26.703	143.244
35.2664	173.667
46.3086	198.174
52.9565	208.314
65.1255	221.413
71.7734	225.216
84.8438	227.751
