Adsorption isotherm of Methane on COF-6
DOI: 10.1021/Ja9015765
Adsorbate Methane: InChIKey VNWKTOKETHGBQD-UHFFFAOYSA-N
Temperature: 298 K
Tabular data in the source: 0
pressure (bar)	uptake (mg/g)
6.64667	31.2722
10.1396	41.413
16.6748	52.3989
25.9143	59.582
30.3086	62.1172
36.8438	64.6525
46.196	65.9201
52.7312	66.7651
59.041	66.7651
65.4636	66.7651
71.8861	65.9201
84.7312	64.6525
