Adsorption isotherm of Hydrogen on COF-5
DOI: 10.1021/Ja9015765
Adsorbate Hydrogen: InChIKey UFHFLCQGNIYNRP-UHFFFAOYSA-N
Temperature: 77 K
Tabular data in the source: 0
pressure (bar)	uptake (cm3(STP)/g)
0.00296976	2.25657
0.0238712	10.989
0.0597022	23.665
0.107477	37.7495
0.161223	51.2707
0.282153	69.2988
0.388153	83.1016
0.503111	92.1157
0.615082	100.848
0.724068	107.609
0.83604	114.088
0.940547	118.595
1.05103	122.257
