Adsorption isotherm of Methane on Carbon
DOI: 10.1021/Ja9015765
Adsorbate Methane: InChIKey VNWKTOKETHGBQD-UHFFFAOYSA-N
Temperature: 298 K
Tabular data in the source: 0
pressure (bar)	uptake (mg/g)
1.23822	19.0187
2.36498	29.582
6.19596	48.5961
13.1819	64.2299
16.3368	69.7229
19.7171	75.6384
26.4777	81.1313
36.9565	87.4694
43.9424	90.8496
52.0551	92.5398
59.041	93.8074
64.9002	94.6525
71.6608	95.075
78.196	95.075
