Adsorption isotherm of Argon on COF-10
DOI: 10.1021/Ja9015765
Adsorbate Argon: InChIKey XKRFYHLGVUSROY-UHFFFAOYSA-N
Temperature: 87 K
Tabular data in the source: 0
pressure (bar)	uptake (cm3(STP)/g)
0.0165962	472.808
0.0180263	223.391
0.0423388	941.895
0.075232	1028.85
0.133868	1102.07
0.172482	1129.53
0.298334	1163.85
0.397014	1179.87
0.501415	1193.6
0.602955	1193.6
0.760271	1209.62
0.85323	1221.06
0.997674	1239.36
