Adsorption isotherm of Hydrogen on COF-103
DOI: 10.1021/Ja9015765
Adsorbate Hydrogen: InChIKey UFHFLCQGNIYNRP-UHFFFAOYSA-N
Temperature: 77 K
Tabular data in the source: 0
pressure (bar)	uptake (cm3(STP)/g)
0.0432796	10.4256
0.161223	29.2988
0.219449	37.7495
0.264237	44.5101
0.377702	60.2847
0.482209	73.5242
0.591195	87.0453
0.697195	100.003
0.804688	114.088
0.859927	120.003
0.90173	125.919
1.01818	137.468
