Adsorption isotherm of Hydrogen on COF-8
DOI: 10.1021/Ja9015765
Adsorbate Hydrogen: InChIKey UFHFLCQGNIYNRP-UHFFFAOYSA-N
Temperature: 77 K
Tabular data in the source: 0
pressure (bar)	uptake (mg/g)
2.70063	13.801
9.79414	24.7845
12.8833	26.9583
19.1759	30.2763
23.5235	32.1068
39.7699	35.6536
46.8634	35.9968
53.3849	35.9968
59.1055	35.9968
65.3981	35.768
77.8689	34.7383
85.1913	34.1663
