Adsorption isotherm of Hydrogen on Carbon
DOI: 10.1021/Ja9015765
Adsorbate Hydrogen: InChIKey UFHFLCQGNIYNRP-UHFFFAOYSA-N
Temperature: 77 K
Tabular data in the source: 0
pressure (bar)	uptake (cm3(STP)/g)
0.00744863	12.6791
0.0223782	31.5523
0.0432796	46.7636
0.0761247	60.8481
0.15973	86.7636
0.273195	106.764
0.379195	120.285
0.482209	130.989
0.589702	138.031
0.695702	146.764
0.803195	151.834
0.91666	156.904
1.02863	162.82
