Adsorption isotherm of Hydrogen on COF-10
DOI: 10.1021/Ja9015765
Adsorbate Hydrogen: InChIKey UFHFLCQGNIYNRP-UHFFFAOYSA-N
Temperature: 77 K
Tabular data in the source: 0
pressure (bar)	uptake (mg/g)
1.35089	14.5364
2.36498	24.1139
4.84385	38.3111
8.11146	47.4378
10.4777	53.0716
13.0692	57.6914
19.7171	64.6773
25.9143	67.7195
30.872	69.5223
39.6608	70.6491
53.0692	70.0857
59.8298	69.0716
73.3509	67.0435
86.0833	64.6773
