Adsorption isotherm of Hydrogen on COF-8
DOI: 10.1021/Ja9015765
Adsorbate Hydrogen: InChIKey UFHFLCQGNIYNRP-UHFFFAOYSA-N
Temperature: 77 K
Tabular data in the source: 0
pressure (bar)	uptake (cm3(STP)/g)
0.0268571	5.07347
0.0746317	12.9608
0.111956	20.5664
0.161223	26.4819
0.216463	32.3974
0.271702	38.8763
0.380688	49.2988
0.485195	59.158
0.591195	67.8904
0.70466	77.1861
0.813646	85.3552
0.912181	92.6791
1.02714	100.003
