Adsorption isotherm of Argon on Carbon
DOI: 10.1021/jp8046467
Adsorbate Argon: InChIKey XKRFYHLGVUSROY-UHFFFAOYSA-N
Temperature: 298 K
Tabular data in the source: 0
pressure (bar)	uptake (kmol/m3)
0.00103768	0.375585
0.00292791	0.375585
0.00927061	0.5186
0.0198368	0.5186
0.0510414	0.661614
0.0929412	0.661614
0.194339	1.23367
0.308163	1.94874
0.523641	3.5219
0.93177	5.95314
2.04025	11.1017
4.78729	19.8255
9.55916	26.6902
19.0875	32.6968
30.9728	35.7001
47.9943	37.5593
117.929	39.2755
205.061	37.7023
310.514	37.4163
325.164	34.556
592.092	31.5527
711.995	30.1226
1326.7	27.4053
1326.7	29.1215
1963.18	25.9751
