Adsorption isotherm of Argon on Carbon
DOI: 10.1021/jp8046467
Adsorbate Argon: InChIKey XKRFYHLGVUSROY-UHFFFAOYSA-N
Temperature: 298 K
Tabular data in the source: 0
pressure (bar)	uptake (kmol/m3)
9.61594	15.4945
19.4368	21.41
29.9192	25.3536
51.5905	29.2973
72.5198	32.255
116.815	34.9311
324.46	40.1424
510.91	44.086
522.641	42.1142
670.894	45.917
1183.4	47.6072
1295.89	52.255
1950	53.8043
