Adsorption isotherm of Argon on Carbon
DOI: 10.1021/jp8046467
Adsorbate Argon: InChIKey XKRFYHLGVUSROY-UHFFFAOYSA-N
Temperature: 298 K
Tabular data in the source: 0
pressure (bar)	uptake (kmol/m3)
0.0673061	0.0895568
0.0973264	0.375585
0.189911	0.5186
0.294279	0.661614
0.445612	0.947643
0.953498	1.94874
1.94832	3.95094
2.88302	5.95314
6.92254	12.1028
20.9312	21.2557
28.9033	23.6869
49.1135	26.8332
77.8791	28.4064
138.578	29.5505
214.736	28.6924
356.572	27.1193
695.77	25.1171
1053.57	24.402
1266.93	25.1171
1874.73	25.6891
