Adsorption isotherm of Nitrogen on Carbon
DOI: 10.1021/jp8046467
Adsorbate Nitrogen: InChIKey IJGRMHOSHXDMSA-UHFFFAOYSA-N
Temperature: 298 K
Tabular data in the source: 0
pressure (bar)	uptake (kmol/m3)
10.0626	25.6349
18.5741	31.3532
29.9192	34.3109
47.1121	37.3673
61.8647	39.0433
86.9621	41.1137
125.048	42.8884
179.814	44.2687
296.295	46.3391
398.009	47.1278
488.231	48.4095
626.724	49.2968
880.975	50.3813
1130.87	52.2546
1553.97	53.9306
1821.62	55.3109
