Adsorption isotherm of Nitrogen on Carbon
DOI: 10.1021/jp8046467
Adsorbate Nitrogen: InChIKey IJGRMHOSHXDMSA-UHFFFAOYSA-N
Temperature: 298 K
Tabular data in the source: 0
pressure (bar)	uptake (kmol/m3)
0.00104619	0.19825
0.00501064	0.19825
0.0191242	0.19825
0.0485075	0.395433
0.0980489	0.592616
0.18939	1.18417
0.480378	3.05741
0.949201	5.91656
1.96269	10.649
2.82226	13.9025
6.68722	21.987
20.8067	31.2546
50.4325	35.3954
81.2367	37.0715
130.856	37.5644
201.427	37.0715
276.788	36.1842
585.462	34.2123
841.871	32.9306
1419.08	31.0574
1780.73	31.0574
