Adsorption isotherm of Argon on Carbon
DOI: 10.1021/jp8046467
Adsorbate Argon: InChIKey XKRFYHLGVUSROY-UHFFFAOYSA-N
Temperature: 298 K
Tabular data in the source: 0
pressure (bar)	uptake (kmol/m3)
0.0107021	0.790867
0.0284063	0.593684
0.101281	0.593684
0.485075	0.593684
1.93739	0.396501
4.69596	0.396501
9.27895	1.77678
19.1863	3.35425
29.5336	4.93171
69.9783	10.0585
181.572	19.5233
471.121	29.7768
1042.81	38.2557
1839.42	46.7345
3030.98	52.2557
4882.31	60.3402
6862.98	67.8331
9430.64	79.8613
