Adsorption isotherm of Argon on Carbon
DOI: 10.1021/jp8046467
Adsorbate Argon: InChIKey XKRFYHLGVUSROY-UHFFFAOYSA-N
Temperature: 298 K
Tabular data in the source: 0
pressure (bar)	uptake (kmol/m3)
0.101291	0.345604
0.201449	0.542787
0.297289	0.73997
0.493057	1.13434
0.699857	1.62729
0.980592	2.21884
1.97567	4.23997
3.07088	6.16251
4.96265	9.36673
6.95333	11.8808
10.2614	14.8879
20.1449	20.7048
30.9086	23.7118
52.6097	26.6203
62.2738	27.7541
72.763	28.0498
90.7163	28.9372
116.072	29.2822
154.409	29.4301
190.026	29.1343
230.844	28.3949
354.189	27.3104
543.438	25.0921
722.926	24.8456
