Adsorption isotherm of Carbon Dioxide on Carbon
DOI: 10.1021/jp8046467
Adsorbate Carbon Dioxide: InChIKey CURLTUGMZLYLDI-UHFFFAOYSA-N
Temperature: 298 K
Tabular data in the source: 0
pressure (bar)	uptake (kmol/m3)
0.00102271	0.0996587
0.00297257	0.395433
0.00688528	0.691208
0.0103606	1.18417
0.0191242	2.26867
0.0301139	3.84614
0.0485075	6.90248
0.0697518	9.76163
0.1003	13.7053
0.193739	24.649
0.284986	30.1701
0.491408	37.663
0.927895	43.8743
1.91863	48.6067
4.75727	52.3532
6.99784	54.325
9.61594	54.818
21.2844	56.5926
35.0723	56.5926
130.856	41.6067
201.427	39.8321
389.076	38.0574
499.442	37.3673
804.502	37.2687
