Adsorption isotherm of Argon on Carbon
DOI: 10.1021/jp8046467
Adsorbate Argon: InChIKey XKRFYHLGVUSROY-UHFFFAOYSA-N
Temperature: 298 K
Tabular data in the source: 0
pressure (bar)	uptake (kmol/m3)
19.8831	33.241
31.3089	36.6212
50.4325	39.7198
63.2851	40.7057
81.2367	42.5367
192.487	46.4804
310.058	46.7621
347.327	48.4522
534.641	49.7198
612.657	50.8466
1183.4	51.6917
1295.89	53.3818
1863.44	55.917
