Adsorption isotherm of Carbon Dioxide on Carbon
DOI: 10.1021/jp8046467
Adsorbate Carbon Dioxide: InChIKey CURLTUGMZLYLDI-UHFFFAOYSA-N
Temperature: 298 K
Tabular data in the source: 0
pressure (bar)	uptake (kmol/m3)
9.61594	54.7194
20.8067	57.1842
32.7632	58.2687
122.241	59.8461
183.942	59.7475
289.644	60.7335
355.302	60.2405
522.641	60.1419
702.057	61.4236
880.975	60.6349
