Adsorption isotherm of Argon on Carbon
DOI: 10.1021/jp8046467
Adsorbate Argon: InChIKey XKRFYHLGVUSROY-UHFFFAOYSA-N
Temperature: 87 K
Tabular data in the source: 0
pressure (bar)	uptake (kmol/m3)
9.31e-11	0.225351
3.05e-10	0.396968
1.03e-09	0.31116
4.26e-09	0.396968
9.49e-09	0.31116
2.68e-08	0.654394
6.71e-08	0.997628
9.02e-08	1.42667
2.01e-07	2.97123
2.95e-07	4.94482
4.89e-07	12.496
6.57e-07	24.0801
9.95e-07	34.892
1.85e-06	42.529
2.35e-06	44.0735
4.51e-06	46.562
7.92e-06	47.9349
1.93e-05	50.4234
2.52e-05	51.3673
4.55e-05	51.7105
9.27e-05	52.3112
0.000178	52.3112
0.000352	53.8557
0.000565	55.7435
0.000908	55.4861
0.00185007	56.1725
0.00288574	55.1428
0.00424212	56.0867
0.00972701	56.0867
0.0175956	55.8293
0.0299977	55.9151
0.0454241	56.6016
0.0898103	56.859
0.177568	56.2584
