Adsorption isotherm of Argon on Carbon
DOI: 10.1021/jp8046467
Adsorbate Argon: InChIKey XKRFYHLGVUSROY-UHFFFAOYSA-N
Temperature: 77 K
Tabular data in the source: 0
pressure (bar)	uptake (kmol/m3)
2.81e-09	0.740203
5.09e-09	0.997628
9.49e-09	2.11314
1.93e-08	5.45967
3.01e-08	14.8128
4.56e-08	38.0669
6.51e-08	42.529
9.57e-08	45.189
1.89e-07	47.1626
2.78e-07	48.5356
6.01e-07	50.1659
1.8e-06	51.7963
2.81e-06	52.3112
4.38e-06	51.8821
6.63e-06	52.3112
9.46e-06	53.7699
1.87e-05	54.4564
2.83e-05	54.1989
4.69e-05	56.2584
9.27e-05	54.4564
0.0002	55.8293
0.000247	55.8293
0.000459	56.2584
0.00264024	56.6874
0.0258662	56.9448
0.0925118	56.7732
