Adsorption isotherm of Argon on Carbon
DOI: 10.1021/jp8046467
Adsorbate Argon: InChIKey XKRFYHLGVUSROY-UHFFFAOYSA-N
Temperature: 298 K
Tabular data in the source: 0
pressure (bar)	uptake (kmol/m3)
18.3347	32.143
28.2226	34.7064
46.5049	37.6641
96.1594	38.8472
194.368	38.0585
279.494	35.1007
693.008	29.7768
952.284	28.5937
1839.42	26.4247
2527.61	25.8331
4358.43	25.2416
10095.3	28.3965
19500	38.0585
27410.8	40.2275
45167.2	43.974
63490.7	48.9035
95537.7	55.2134
