Adsorption isotherm of Argon on Carbon
DOI: 10.1021/jp8046467
Adsorbate Argon: InChIKey XKRFYHLGVUSROY-UHFFFAOYSA-N
Temperature: 298 K
Tabular data in the source: 0
pressure (bar)	uptake (kmol/m3)
0.0308053	0.70575
0.0666556	1.83251
0.087528	2.81843
0.202738	4.9311
0.305071	6.90293
0.491408	10.8466
0.949201	18.3114
1.96269	29.579
2.88707	36.6212
4.54611	44.2269
9.83674	53.9452
18.1572	60.8466
30.6062	64.3677
45.0209	67.6072
146.585	70.1424
201.427	69.1565
317.177	67.1846
407.148	65.6353
880.975	62.255
1238.37	61.1283
1863.44	60.1424
3518.62	60.4241
