Adsorption isotherm of Argon on Carbon
DOI: 10.1021/jp8046467
Adsorbate Argon: InChIKey XKRFYHLGVUSROY-UHFFFAOYSA-N
Temperature: 298 K
Tabular data in the source: 0
pressure (bar)	uptake (kmol/m3)
20.3397	61.6917
29.9192	65.2128
49.3005	69.1565
67.7453	71.1283
97.415	74.086
153.394	76.6212
206.052	78.0297
331.91	80.5649
499.442	81.9734
641.114	83.8043
822.974	85.2128
1266.81	87.0438
1519.09	89.1565
1906.23	90.0015
2619.41	92.3959
3286.96	95.3536
