Adsorption isotherm of Argon on Carbon
DOI: 10.1021/jp8046467
Adsorbate Argon: InChIKey XKRFYHLGVUSROY-UHFFFAOYSA-N
Temperature: 298 K
Tabular data in the source: 0
pressure (bar)	uptake (kmol/m3)
0.201449	0.0991251
0.690837	0.296308
1.01951	0.296308
1.9502	0.690674
3.0313	1.5287
5.15959	2.7118
6.86371	3.54983
9.86973	5.0287
20.1449	9.02166
30.5103	11.3386
63.9106	16.2188
83.9233	17.8456
104.63	18.8315
120.678	19.1273
178.092	19.6203
213.558	19.3738
259.432	19.6203
315.16	19.3245
626.79	16.909
686.371	16.3667
781.442	15.4301
937.066	14.5921
