Adsorption isotherm of Argon on Carbon
DOI: 10.1021/jp8046467
Adsorbate Argon: InChIKey XKRFYHLGVUSROY-UHFFFAOYSA-N
Temperature: 298 K
Tabular data in the source: 0
pressure (bar)	uptake (kmol/m3)
9.27895	1.97397
19.1863	3.15706
30.2117	4.14298
50.9255	6.11481
96.1594	9.07256
190.006	12.0303
285.911	12.4247
471.121	12.819
647.382	13.2134
974.15	14.0021
1969.06	16.5655
2767.88	18.143
5109.1	22.481
10327.1	36.0866
