Adsorption isotherm of Argon on Carbon
DOI: 10.1021/jp8046467
Adsorbate Argon: InChIKey XKRFYHLGVUSROY-UHFFFAOYSA-N
Temperature: 298 K
Tabular data in the source: 0
pressure (bar)	uptake (kmol/m3)
0.0967852	0.790867
0.200125	1.18523
0.268826	1.5796
0.463543	2.7627
1.04959	5.72044
1.8939	10.8472
4.59055	19.7204
9.93291	26.4247
18.7557	33.7204
27.5892	36.0866
46.5049	39.8331
94.0011	43.3824
194.368	46.3402
471.121	49.6923
952.284	52.4528
1881.66	56.1993
2767.88	59.1571
4994.42	64.0866
9647.18	72.3683
19947.7	89.9176
28040.2	99.1852
48350.4	112.791
67965.4	120.678
95537.7	129.946
