Adsorption isotherm of Hydrogen on MTV-IRMOF-1-AE
DOI: 10.1021/Jp203607s
Adsorbate Hydrogen: InChIKey UFHFLCQGNIYNRP-UHFFFAOYSA-N
Temperature: 298 K
Tabular data in the source: 0
pressure (bar)	uptake (wt%)
1.34409	0.0181655
4.49031	0.0443839
9.20964	0.0758461
11.3727	0.0994428
18.6483	0.155813
24.3508	0.200384
30.8399	0.25151
44.2113	0.362939
58.1727	0.465191
66.6281	0.525493
73.9038	0.580552
