Adsorption isotherm of Nitrogen on MIL-53
DOI: 10.1021/Jp203607s
Adsorbate Nitrogen: InChIKey IJGRMHOSHXDMSA-UHFFFAOYSA-N
Temperature: 77 K
Tabular data in the source: 0
pressure (bar)	uptake (cm3(STP)/g)
0.00619484	56.4789
0.00837971	18.2436
0.0171192	196.42
0.0302285	204.067
0.0477074	207.126
0.0979595	209.42
0.152581	211.714
0.237791	211.714
0.34922	214.773
0.449724	214.773
0.569892	214.008
0.672581	214.008
0.871405	210.949
0.96317	213.244
0.993758	219.361
