Adsorption isotherm of Hydrogen on MIL-68
DOI: 10.1021/Jp203607s
Adsorbate Hydrogen: InChIKey UFHFLCQGNIYNRP-UHFFFAOYSA-N
Temperature: 298 K
Tabular data in the source: 0
pressure (bar)	uptake (wt%)
0.754174	0.0033708
3.11384	0.0129842
6.65333	0.0269674
9.60291	0.0365809
16.8785	0.0558078
24.3508	0.0776565
30.8399	0.0951355
44.8012	0.12485
57.976	0.164178
69.971	0.192144
74.6903	0.199136
