Adsorption isotherm of Hydrogen on MIL-53
DOI: 10.1021/Jp203607s
Adsorbate Hydrogen: InChIKey UFHFLCQGNIYNRP-UHFFFAOYSA-N
Temperature: 298 K
Tabular data in the source: 0
pressure (bar)	uptake (wt%)
-0.0323805	0.00162291
0.950813	0.0121103
4.88359	0.0217237
9.99619	0.0313372
11.5693	0.034833
18.4517	0.0496901
26.3172	0.068917
36.5424	0.0925137
42.4416	0.108245
47.7508	0.119606
53.4533	0.130967
61.5155	0.152816
72.7239	0.179035
