Adsorption isotherm of Nitrogen on MIL-53
DOI: 10.1021/Jp203607s
Adsorbate Nitrogen: InChIKey IJGRMHOSHXDMSA-UHFFFAOYSA-N
Temperature: 77 K
Tabular data in the source: 0
pressure (bar)	uptake (cm3(STP)/g)
0.00837971	93.1847
0.0105646	47.3024
0.0105646	256.832
0.0105646	293.538
0.0258587	299.655
0.102329	304.244
0.180985	307.302
0.242161	308.832
0.301153	309.597
0.421321	311.126
0.51964	312.655
0.61796	314.185
0.770901	316.479
0.965355	320.302
0.995943	324.126
