Adsorption isotherm of Hydrogen on MIL-53
DOI: 10.1021/Jp203607s
Adsorbate Hydrogen: InChIKey UFHFLCQGNIYNRP-UHFFFAOYSA-N
Temperature: 298 K
Tabular data in the source: 0
pressure (bar)	uptake (wt%)
1.54073	0.0182279
3.70375	0.0295893
7.24325	0.0444464
10.3895	0.0549338
16.8785	0.0776565
23.5643	0.0933876
31.4298	0.109119
42.6382	0.142329
57.976	0.166799
70.3643	0.187774
73.9038	0.194766
