Adsorption isotherm of Hydrogen on IRMOF-1
DOI: 10.1021/Jp203607s
Adsorbate Hydrogen: InChIKey UFHFLCQGNIYNRP-UHFFFAOYSA-N
Temperature: 298 K
Tabular data in the source: 0
pressure (bar)	uptake (wt%)
0.164258	0.00374528
3.70375	0.0168545
6.84997	0.0325856
10.3895	0.0496276
17.0752	0.0863335
24.1542	0.105997
31.0365	0.13746
44.8012	0.199073
58.1727	0.23709
70.5609	0.279039
73.9038	0.29346
