Adsorption isotherm of Hydrogen on IRMOF-3
DOI: 10.1021/Jp203607s
Adsorbate Hydrogen: InChIKey UFHFLCQGNIYNRP-UHFFFAOYSA-N
Temperature: 298 K
Tabular data in the source: 0
pressure (bar)	uptake (wt%)
0.950813	0.0195076
3.50712	0.0315244
6.84997	0.047911
9.99619	0.0599278
16.6819	0.0883312
24.1542	0.120012
31.0365	0.147323
44.8012	0.198667
58.1727	0.250012
70.3643	0.28497
74.8869	0.298079
