Adsorption isotherm of Hydrogen on MIL-53
DOI: 10.1021/Jp203607s
Adsorbate Hydrogen: InChIKey UFHFLCQGNIYNRP-UHFFFAOYSA-N
Temperature: 298 K
Tabular data in the source: 0
pressure (bar)	uptake (wt%)
1.14745	0.0182279
2.9172	0.0278414
6.06342	0.0418246
7.83317	0.051438
11.5693	0.0654212
18.4517	0.104749
25.5306	0.133589
32.2164	0.172043
44.9979	0.227976
59.5491	0.292648
66.8248	0.317993
74.297	0.349455
