Adsorption isotherm of Hydrogen on IRMOF-1
DOI: 10.1021/Jp203607s
Adsorbate Hydrogen: InChIKey UFHFLCQGNIYNRP-UHFFFAOYSA-N
Temperature: 298 K
Tabular data in the source: 0
pressure (bar)	uptake (wt%)
1.34409	0.0207873
3.70375	0.0325856
7.04661	0.0470058
10.1928	0.0627369
17.2718	0.0797789
24.3508	0.0968209
30.8399	0.10993
42.6382	0.145325
57.976	0.170233
70.7575	0.191207
74.4937	0.193829
