Adsorption isotherm of Nitrogen on IRMOF-2
DOI: 10.1021/Jp203607s
Adsorbate Nitrogen: InChIKey IJGRMHOSHXDMSA-UHFFFAOYSA-N
Temperature: 77 K
Tabular data in the source: 0
pressure (bar)	uptake (cm3(STP)/g)
0.00619484	31.2122
0.00619484	90.6408
0.00619484	209.498
0.00837971	298.641
0.00837971	494.405
0.0498923	529.363
0.100144	536.355
0.154766	543.347
0.244346	548.59
0.351405	552.086
0.449724	552.086
0.668212	552.086
0.764346	552.086
0.86922	552.086
0.967539	552.086
0.991573	555.582
