Adsorption isotherm of Hydrogen on IRMOF-2
DOI: 10.1021/Jp203607s
Adsorbate Hydrogen: InChIKey UFHFLCQGNIYNRP-UHFFFAOYSA-N
Temperature: 298 K
Tabular data in the source: 0
pressure (bar)	uptake (wt%)
0.164258	0.0102374
5.67014	0.0364559
10.5861	0.0574307
17.2718	0.0784055
24.3508	0.104624
30.6432	0.125599
47.9475	0.185027
57.5827	0.219985
66.2348	0.246204
74.6903	0.261935
