Adsorption isotherm of Nitrogen on MIL-68
DOI: 10.1021/Jp203607s
Adsorbate Nitrogen: InChIKey IJGRMHOSHXDMSA-UHFFFAOYSA-N
Temperature: 77 K
Tabular data in the source: 0
pressure (bar)	uptake (cm3(STP)/g)
0.00619484	35.8318
0.00837971	71.0083
0.00837971	102.361
0.0105646	181.891
0.0149343	204.832
0.0236738	231.597
0.0498923	246.126
0.0979595	251.479
0.150397	253.773
0.239976	254.538
0.303338	253.773
0.355775	255.302
0.451909	256.832
0.554598	256.832
0.648548	258.361
0.755607	258.361
0.891069	261.42
0.947875	263.714
0.991573	269.067
