Adsorption isotherm of Nitrogen on IRMOF-3
DOI: 10.1021/Jp203607s
Adsorbate Nitrogen: InChIKey IJGRMHOSHXDMSA-UHFFFAOYSA-N
Temperature: 77 K
Tabular data in the source: 0
pressure (bar)	uptake (cm3(STP)/g)
0.00619484	71.4139
0.00619484	132.59
0.0105646	462.943
0.0171192	527.616
0.0455226	550.338
0.0914049	566.069
0.148212	571.313
0.237791	580.053
0.355775	587.044
0.449724	587.044
0.550228	590.54
0.644178	588.792
0.735943	592.288
0.801489	592.288
0.875775	595.784
0.904178	597.531
0.95006	599.279
0.998128	615.01
