Adsorption isotherm of Hydrogen on IRMOF-3
DOI: 10.1021/Jp203607s
Adsorbate Hydrogen: InChIKey UFHFLCQGNIYNRP-UHFFFAOYSA-N
Temperature: 298 K
Tabular data in the source: 0
pressure (bar)	uptake (wt%)
1.34409	0.0206001
4.09703	0.0282471
6.65333	0.0369866
10.1928	0.055558
17.4685	0.0763143
24.5475	0.090516
30.25	0.10581
43.4248	0.142953
58.3693	0.163709
70.5609	0.185558
75.0836	0.19102
