Adsorption isotherm of Hydrogen on IRMOF-2
DOI: 10.1021/Jp203607s
Adsorbate Hydrogen: InChIKey UFHFLCQGNIYNRP-UHFFFAOYSA-N
Temperature: 298 K
Tabular data in the source: 0
pressure (bar)	uptake (wt%)
0.360897	0.052187
4.68695	0.102876
12.3559	0.197263
16.6819	0.258439
22.5811	0.331851
32.2164	0.427985
44.408	0.541599
50.5038	0.594036
60.139	0.663952
66.8248	0.719884
72.9206	0.758338
