Adsorption isotherm of Nitrogen on IRMOF-1
DOI: 10.1021/Jp203607s
Adsorbate Nitrogen: InChIKey IJGRMHOSHXDMSA-UHFFFAOYSA-N
Temperature: 77 K
Tabular data in the source: 0
pressure (bar)	uptake (cm3(STP)/g)
0.00619484	111.616
0.00619484	531.111
0.00619484	595.784
0.0236738	634.237
0.0455226	648.221
0.0979595	663.952
0.156951	674.439
0.213758	676.187
0.303338	681.431
0.399472	679.683
0.495607	681.431
0.61796	683.179
0.718464	683.179
0.821153	681.431
0.921657	683.179
0.967539	695.414
0.995943	711.145
