Adsorption isotherm of Hydrogen on MTV-IRMOF-1-AE
DOI: 10.1021/Jp203607s
Adsorbate Hydrogen: InChIKey UFHFLCQGNIYNRP-UHFFFAOYSA-N
Temperature: 298 K
Tabular data in the source: 0
pressure (bar)	uptake (wt%)
1.34409	0.0102999
3.11384	0.0220982
6.65333	0.0378293
10.7827	0.0483167
16.6819	0.0679806
23.7609	0.0915772
30.8399	0.105997
42.4416	0.141392
58.1727	0.161056
70.1676	0.182031
73.9038	0.191207
