Adsorption isotherm of Hydrogen on MTV-IRMOF-1-AE
DOI: 10.1021/Jp203607s
Adsorbate Hydrogen: InChIKey UFHFLCQGNIYNRP-UHFFFAOYSA-N
Temperature: 298 K
Tabular data in the source: 0
pressure (bar)	uptake (wt%)
1.34409	-0.00280934
3.31048	0.0102999
7.04661	0.0273419
9.99619	0.0338965
17.2718	0.0719133
23.9575	0.0928881
30.8399	0.111241
44.2113	0.154502
57.976	0.197762
69.7743	0.235779
75.0836	0.244955
