Adsorption isotherm of Hydrogen on MIL-53
DOI: 10.1021/Jp203607s
Adsorbate Hydrogen: InChIKey UFHFLCQGNIYNRP-UHFFFAOYSA-N
Temperature: 298 K
Tabular data in the source: 0
pressure (bar)	uptake (wt%)
0.754174	0.0278414
4.49031	0.0531859
8.0298	0.0724128
13.339	0.0933876
18.4517	0.119606
23.7609	0.151068
32.0197	0.188648
38.7054	0.226228
46.1777	0.263808
52.8634	0.29964
59.5491	0.331976
66.0382	0.360816
73.3138	0.382665
