Adsorption isotherm of Hydrogen on MIL-68
DOI: 10.1021/Jp203607s
Adsorbate Hydrogen: InChIKey UFHFLCQGNIYNRP-UHFFFAOYSA-N
Temperature: 298 K
Tabular data in the source: 0
pressure (bar)	uptake (wt%)
1.34409	0.0191019
3.31048	0.0287153
6.65333	0.0418246
10.3895	0.0549338
16.8785	0.0750347
23.9575	0.0951355
30.6432	0.104749
42.8348	0.142329
70.7575	0.1869
74.297	0.190396
