Adsorption isotherm of Hydrogen on IRMOF-2
DOI: 10.1021/Jp203607s
Adsorbate Hydrogen: InChIKey UFHFLCQGNIYNRP-UHFFFAOYSA-N
Temperature: 298 K
Tabular data in the source: 0
pressure (bar)	uptake (wt%)
0.754174	0.017229
6.65333	0.0469433
10.3895	0.0609265
23.9575	0.0941366
30.4466	0.104624
42.4416	0.14133
57.5827	0.172792
70.3643	0.190271
74.6903	0.199011
