Adsorption isotherm of Hydrogen on MIL-53
DOI: 10.1021/Jp203607s
Adsorbate Hydrogen: InChIKey UFHFLCQGNIYNRP-UHFFFAOYSA-N
Temperature: 298 K
Tabular data in the source: 0
pressure (bar)	uptake (wt%)
0.360897	-0.000999
3.31048	0.0129842
5.4735	0.0208498
8.0298	0.0260935
11.7659	0.033959
18.4517	0.0444464
26.7105	0.0619254
32.2164	0.0706649
46.1777	0.0986313
58.9592	0.122228
70.7575	0.144077
74.1004	0.148446
