Adsorption isotherm of Hydrogen on MIL-53
DOI: 10.1021/Jp203607s
Adsorbate Hydrogen: InChIKey UFHFLCQGNIYNRP-UHFFFAOYSA-N
Temperature: 298 K
Tabular data in the source: 0
pressure (bar)	uptake (wt%)
1.34409	0.0147321
3.31048	0.0269674
7.24325	0.0400767
10.3895	0.0531859
17.0752	0.0750347
24.3508	0.0933876
31.0365	0.103875
42.4416	0.142329
57.5827	0.166799
69.7743	0.189522
74.4937	0.193892
