Adsorption isotherm of Nitrogen on MIL-53
DOI: 10.1021/Jp203607s
Adsorbate Nitrogen: InChIKey IJGRMHOSHXDMSA-UHFFFAOYSA-N
Temperature: 77 K
Tabular data in the source: 0
pressure (bar)	uptake (cm3(STP)/g)
0.00837971	38.1259
0.00837971	236.949
0.0105646	79.42
0.0105646	277.479
0.0345982	290.479
0.0979595	294.302
0.185355	297.361
0.237791	297.361
0.316447	298.891
0.419136	299.655
0.52401	300.42
0.622329	300.42
0.720649	301.949
0.818968	302.714
0.917287	304.244
0.965355	305.008
0.993758	308.832
