Adsorption isotherm of Hydrogen on MIL-68
DOI: 10.1021/Jp203607s
Adsorbate Hydrogen: InChIKey UFHFLCQGNIYNRP-UHFFFAOYSA-N
Temperature: 298 K
Tabular data in the source: 0
pressure (bar)	uptake (wt%)
0.950813	0.0217237
3.11384	0.0435725
6.4567	0.0724128
10.5861	0.106497
17.4685	0.154564
24.1542	0.190396
31.6264	0.22448
38.5088	0.268178
47.7508	0.313623
58.3693	0.354699
64.8584	0.380043
74.8869	0.3949
