Adsorption isotherm of Nitrogen on MTV-IRMOF-1-AF
DOI: 10.1021/Jp203607s
Adsorbate Nitrogen: InChIKey IJGRMHOSHXDMSA-UHFFFAOYSA-N
Temperature: 77 K
Tabular data in the source: 0
pressure (bar)	uptake (cm3(STP)/g)
0.00619484	153.565
0.00837971	53.9349
0.00837971	258.439
0.0105646	433.229
0.0236738	457.7
0.0630016	475.179
0.132918	490.91
0.185355	496.153
0.242161	501.397
0.303338	506.641
0.399472	508.389
0.451909	511.884
0.548044	517.128
0.650733	520.624
0.749052	525.868
0.849556	529.363
0.897623	532.859
0.947875	532.859
0.980649	539.851
