Adsorption isotherm of Nitrogen on MTV-IRMOF-1-AE
DOI: 10.1021/Jp203607s
Adsorbate Nitrogen: InChIKey IJGRMHOSHXDMSA-UHFFFAOYSA-N
Temperature: 77 K
Tabular data in the source: 0
pressure (bar)	uptake (cm3(STP)/g)
0.00619484	476.926
0.00837971	15.4811
0.00837971	277.666
0.0345982	504.893
0.0695562	518.876
0.0979595	518.876
0.18317	525.868
0.242161	527.616
0.296783	529.363
0.351405	531.111
0.451909	534.607
0.600481	536.355
0.670397	534.607
0.718464	531.111
0.818968	534.607
0.923842	532.859
