Adsorption isotherm of Hydrogen on MIL-53
DOI: 10.1021/Jp203607s
Adsorbate Hydrogen: InChIKey UFHFLCQGNIYNRP-UHFFFAOYSA-N
Temperature: 298 K
Tabular data in the source: 0
pressure (bar)	uptake (wt%)
1.73737	0.017354
3.50712	0.0295893
7.43989	0.0409506
10.9794	0.0540599
17.4685	0.0776565
24.3508	0.0942616
31.0365	0.106497
42.8348	0.144077
57.7794	0.166799
70.1676	0.187774
74.1004	0.193892
