Adsorption isotherm of Hydrogen on MIL-53
DOI: 10.1021/Jp203607s
Adsorbate Hydrogen: InChIKey UFHFLCQGNIYNRP-UHFFFAOYSA-N
Temperature: 298 K
Tabular data in the source: 0
pressure (bar)	uptake (wt%)
-0.0323805	0.0121103
1.54073	0.0313372
3.31048	0.0505641
6.84997	0.0715389
10.3895	0.108245
17.2718	0.167673
24.5475	0.211371
31.0365	0.255942
44.408	0.327606
58.3693	0.380043
70.1676	0.405388
74.4937	0.411505
