Adsorption isotherm of Hydrogen on IRMOF-1
DOI: 10.1021/Jp203607s
Adsorbate Hydrogen: InChIKey UFHFLCQGNIYNRP-UHFFFAOYSA-N
Temperature: 298 K
Tabular data in the source: 0
pressure (bar)	uptake (wt%)
0.557535	0.0338965
2.32728	0.0470058
5.4735	0.0915772
8.61972	0.120418
12.1592	0.167611
18.255	0.216115
28.0869	0.290838
38.1155	0.368182
49.3239	0.427174
57.7794	0.482233
68.7911	0.532048
74.8869	0.547779
