Adsorption isotherm of Hydrogen on IRMOF-3
DOI: 10.1021/Jp203607s
Adsorbate Hydrogen: InChIKey UFHFLCQGNIYNRP-UHFFFAOYSA-N
Temperature: 298 K
Tabular data in the source: 0
pressure (bar)	uptake (wt%)
2.13064	0.0315244
4.29367	0.0500959
5.86678	0.06539
13.7323	0.125474
23.9575	0.188835
26.9071	0.220516
35.7559	0.268583
44.6046	0.31665
58.3693	0.386566
67.6113	0.428079
74.6903	0.456482
