Adsorption isotherm of Hydrogen on MIL-53
DOI: 10.1021/Jp203607s
Adsorbate Hydrogen: InChIKey UFHFLCQGNIYNRP-UHFFFAOYSA-N
Temperature: 298 K
Tabular data in the source: 0
pressure (bar)	uptake (wt%)
0.950813	0.000749
3.11384	0.0103624
6.84997	0.0199758
9.60291	0.0304632
17.4685	0.0540599
23.9575	0.0706649
30.8399	0.08727
44.408	0.113488
56.9928	0.136211
69.971	0.165925
74.8869	0.178161
