Adsorption isotherm of Nitrogen on Graphene Oxide Hydrogel heated to 353K
DOI: 10.1016/j.carbon.2014.11.014
Article source: Figure 4a
Adsorbate Nitrogen: InChIKey IJGRMHOSHXDMSA-UHFFFAOYSA-N
Kind: experiment
Temperature: 77 K
Tabular data in the source: 0
pressure (bar)	uptake (cm3(STP)/g)
0.003667	39.8326
0.010945	34.542
0.031579	42.5606
0.031588	55.835
0.049795	63.8473
0.06556	47.9594
0.081339	53.3105
0.100756	56.0162
0.101979	69.2937
0.121387	58.7251
0.140804	61.4309
0.151738	80.0436
0.161433	61.4849
0.182066	66.8487
0.202699	72.2125
0.20392	82.8352
0.251239	74.9946
0.253675	88.2753
0.30464	85.754
0.304645	93.7186
0.355616	101.817
0.356822	91.2004
0.38717	107.209
0.405364	93.9825
0.419935	109.95
0.455119	99.4226
0.46848	118.042
0.507303	104.869
0.50732	131.418
0.558275	115.622
0.558294	142.171
0.608032	121.062
0.610476	147.617
0.659003	129.16
0.66145	158.37
0.709976	139.913
0.711214	177.085
0.760949	150.666
0.760978	193.144
0.811927	169.384
0.826532	233.139
0.832562	177.403
0.850816	254.442
0.86291	193.411
0.884824	299.664
0.887192	212.059
0.912693	238.675
0.916421	368.773
0.935777	281.213
0.940755	464.412
0.961311	355.616
0.966361	647.665
0.985727	573.379
0.987153	889.312
0.99063	647.728
0.990826	937.109
0.996921	979.603
0.999256	841.556
1.00422	1008.83
