Adsorption isotherm of Nitrogen on Graphene Oxide Hydrogel heated to 393K
DOI: 10.1016/j.carbon.2014.11.014
Article source: Figure 4a
Adsorbate Nitrogen: InChIKey IJGRMHOSHXDMSA-UHFFFAOYSA-N
Kind: experiment
Temperature: 77 K
Tabular data in the source: 0
pressure (bar)	uptake (cm3(STP)/g)
0	-26.5487
1.6e-05	23.8938
3.4e-05	50.4426
0.001213	0.003179
0.00126	69.0299
0.003705	95.5849
0.004931	114.172
0.008577	122.146
0.031649	146.101
0.051068	151.461
0.063205	154.148
0.078983	159.499
0.103261	172.837
0.121467	178.194
0.144527	183.565
0.153027	191.551
0.163946	188.925
0.183367	196.941
0.202788	204.956
0.247696	218.348
0.254978	221.022
0.304743	239.737
0.358147	255.806
0.377569	266.476
0.405483	271.859
0.417623	279.855
0.45646	287.922
0.457684	303.854
0.503798	306.63
0.514907	585.42
0.555992	328.005
0.559856	659.874
0.606974	352.033
0.61087	731.689
0.656742	376.057
0.661888	808.814
0.708945	410.707
0.709264	883.274
0.757511	450.657
0.762721	978.99
0.808513	503.888
0.812543	1082.66
0.830379	538.459
0.836852	1141.13
0.861969	596.949
0.864809	1210.23
0.885071	666.036
0.892775	1292.6
0.911823	748.407
0.918313	1374.97
0.932521	852.001
0.945081	1481.24
0.961794	1072.43
0.969422	1587.5
0.985068	1396.39
0.987685	1677.81
0.989965	1460.12
0.99377	1704.37
1.00102	1659.26
1.0047	1717.68
