Adsorption isotherm of Nitrogen on Graphene Oxide Hydrogel heated to 373K
DOI: 10.1016/j.carbon.2014.11.014
Article source: Figure 5
Adsorbate Nitrogen: InChIKey IJGRMHOSHXDMSA-UHFFFAOYSA-N
Kind: experiment
Temperature: 273 K
Tabular data in the source: 0
pressure (bar)	uptake (cm3(STP)/g)
0.002692	0.000251
0.016151	0.001505
0.033643	0.096302
0.064594	0.192354
0.099587	0.195614
0.133235	0.198749
0.16284	0.294675
0.200521	0.391353
0.231476	0.394237
0.263778	0.397246
0.298767	0.493674
0.329722	0.496558
0.360677	0.499442
0.395666	0.59587
0.427968	0.598879
0.461615	0.602014
0.4966	0.791609
0.528901	0.794618
0.562548	0.797753
0.593504	0.800637
0.623105	0.98973
0.663482	0.993492
0.691741	1.08929
0.725388	1.09243
0.760386	1.00252
0.792679	1.19186
0.823634	1.19475
0.855935	1.19776
0.908425	1.20265
0.923222	1.39036
0.956869	1.3935
0.987824	1.39638
1.02147	1.39952
1.05377	1.40253
