Adsorption isotherm of Carbon Dioxide on Graphene Oxide heated to 353K
DOI: 10.1016/j.carbon.2014.11.014
Article source: Figure 4b
Adsorbate Carbon Dioxide: InChIKey CURLTUGMZLYLDI-UHFFFAOYSA-N
Kind: experiment
Temperature: 273 K
Tabular data in the source: 0
pressure (bar)	uptake (cm3(STP)/g)
0.003783	0.444753
0.008805	2.13732
0.012479	7.75298
0.016341	4.45328
0.031348	12.2056
0.031437	8.01537
0.06296	11.9297
0.065385	16.8324
0.095766	14.9521
0.099453	19.9437
0.128585	17.3505
0.131006	22.4315
0.162672	19.5702
0.166358	24.6509
0.196765	21.5224
0.19919	26.4252
0.230867	23.0289
0.232023	28.1995
0.26233	29.7961
0.262438	24.7144
0.293912	30.9467
0.295279	26.0429
0.328121	27.3714
0.329282	32.2745
0.360861	33.5142
0.362227	28.6996
0.394966	34.9315
0.395073	29.8498
0.42529	35.7258
0.426656	30.9111
0.460664	36.8753
0.46203	32.0607
0.492351	33.0332
0.49351	38.0255
0.525198	34.0943
0.526361	38.9083
0.558046	35.1554
0.559214	39.7018
0.592161	36.0378
0.59459	40.7622
0.622482	37.0103
0.626179	41.5561
0.656503	42.3504
0.656595	37.9819
0.688094	43.0552
0.689447	38.8646
0.719769	39.7481
0.722215	43.6701
0.755147	40.7193
0.756336	44.2851
0.789191	44.9895
0.789261	41.6908
0.819585	42.4851
0.82331	45.6936
0.851114	46.1319
0.856227	43.456
0.870074	46.3052
0.887814	44.3391
0.920624	47.1832
0.92193	45.2215
0.935791	47.3574
0.953517	46.1046
0.967387	47.7948
0.987632	46.987
1.00025	48.2317
1.02048	48.048
1.0508	48.8423
