Adsorption isotherm of Carbon Dioxide on Graphene Oxide heated to 373K
DOI: 10.1016/j.carbon.2014.11.014
Article source: Figure 4b
Adsorbate Carbon Dioxide: InChIKey CURLTUGMZLYLDI-UHFFFAOYSA-N
Kind: experiment
Temperature: 273 K
Tabular data in the source: 0
pressure (bar)	uptake (cm3(STP)/g)
2.1e-05	-0.980689
0.003783	0.444753
0.008805	2.13732
0.011303	3.5631
0.016347	4.18582
0.033952	8.63876
0.065451	13.7121
0.066726	13.1768
0.096998	16.4674
0.09951	17.2691
0.131072	19.3112
0.132321	20.024
0.165141	22.4224
0.166414	21.9763
0.197964	24.6424
0.199239	24.1072
0.230792	26.595
0.230809	25.7927
0.262379	27.4781
0.263627	28.2802
0.293949	29.1636
0.295195	30.0548
0.328035	31.4724
0.329316	30.6697
0.360877	32.801
0.360893	31.9986
0.393731	33.5054
0.394979	34.3074
0.427824	35.4576
0.429102	34.8332
0.460664	36.8753
0.460683	35.9838
0.492244	38.115
0.494787	37.4011
0.525091	39.1761
0.527636	38.373
0.557939	40.2371
0.557957	39.3456
0.590788	41.209
0.592071	40.3171
0.6249	42.2697
0.624916	41.4673
0.657764	42.5284
0.659013	43.2413
0.69186	44.3023
0.691879	43.4108
0.7222	44.3834
0.724712	45.1851
0.756312	45.4441
0.757565	45.9787
0.786638	46.1492
0.789148	47.04
0.820735	47.9231
0.82075	47.2099
0.854854	48.6272
0.854863	48.1815
0.887707	49.4208
0.888981	48.9747
0.920562	50.1253
0.92057	49.7686
0.934461	50.4782
0.953423	50.5622
0.967318	51.0934
0.985011	51.3562
1.00017	51.887
1.01913	52.1494
1.05198	53.0322
