Adsorption isotherm of Carbon Dioxide on Graphene Oxide Hydrogel heated to 373K
DOI: 10.1016/j.carbon.2014.11.014
Article source: Figure 5
Adsorbate Carbon Dioxide: InChIKey CURLTUGMZLYLDI-UHFFFAOYSA-N
Kind: experiment
Temperature: 273 K
Tabular data in the source: 0
pressure (bar)	uptake (cm3(STP)/g)
0	0.652047
0.001312	1.58397
0.002639	2.51577
0.007994	4.10012
0.014678	6.52311
0.032121	9.97194
0.065709	14.6335
0.095287	17.8039
0.131611	20.6955
0.166597	23.1211
0.198895	25.1738
0.228507	26.8536
0.26216	28.6269
0.29447	30.2138
0.326781	31.7075
0.36179	33.1082
0.395451	34.5089
0.429117	35.7232
0.460087	36.9373
0.496448	38.1518
0.526072	39.2726
0.558394	40.3005
0.592064	41.3285
0.624386	42.3563
0.65671	43.291
0.691731	44.1328
0.722707	45.0673
0.755031	46.002
0.788705	46.8437
0.821029	47.7784
0.853353	48.713
0.888375	49.5548
0.920701	50.3963
0.953029	51.1447
0.986705	51.8932
1.01769	52.6414
1.0527	53.5763
