Adsorption isotherm of Carbon Dioxide on Graphene Oxide heated to 393K
DOI: 10.1016/j.carbon.2014.11.014
Article source: Figure 4b
Adsorbate Carbon Dioxide: InChIKey CURLTUGMZLYLDI-UHFFFAOYSA-N
Kind: experiment
Temperature: 273 K
Tabular data in the source: 0
pressure (bar)	uptake (cm3(STP)/g)
0.002558	-1.42524
0.003815	-1.06961
0.008857	-0.359237
0.013899	0.351134
0.017679	0.972933
0.034078	2.65849
0.066886	5.58449
0.098443	7.88779
0.128749	9.5684
0.132538	9.74509
0.166637	11.4243
0.196941	13.194
0.231043	14.6952
0.265145	16.1964
0.297985	17.609
0.329565	18.8441
0.363675	19.9892
0.395254	21.2242
0.4281	22.3698
0.460946	23.5154
0.492529	24.5724
0.527903	25.7171
0.562015	26.7732
0.593598	27.8302
0.625185	28.7091
0.658033	29.7657
0.690882	30.7332
0.723732	31.7007
0.755319	32.5797
0.788166	33.6363
0.822282	34.5143
0.855131	35.4819
0.88672	36.2718
0.919571	37.1503
0.937263	37.5001
0.951158	38.0293
0.970112	38.4676
0.985278	38.7293
1.00423	39.2567
1.01939	39.6964
1.05098	40.4863
