Adsorption isotherm of Nitrogen on Graphene Oxide Hydrogel heated to 373K
DOI: 10.1016/j.carbon.2014.11.014
Article source: Figure 4a
Adsorbate Nitrogen: InChIKey IJGRMHOSHXDMSA-UHFFFAOYSA-N
Kind: experiment
Temperature: 77 K
Tabular data in the source: 0
pressure (bar)	uptake (cm3(STP)/g)
0.001249	53.1006
0.002439	18.5905
0.007331	74.3555
0.012205	103.572
0.031611	90.3483
0.031629	116.897
0.052258	116.951
0.065594	98.402
0.080157	101.095
0.10079	106.459
0.102025	138.32
0.121425	114.477
0.14084	114.528
0.152993	141.109
0.162684	117.24
0.18089	122.598
0.202731	120
0.202747	143.894
0.253703	128.098
0.253722	157.302
0.30467	130.887
0.305906	165.403
0.354432	144.291
0.356875	168.192
0.384786	170.92
0.405402	152.39
0.424834	176.334
0.455159	157.83
0.468527	187.068
0.507345	168.586
0.507367	200.444
0.557098	168.716
0.557121	203.23
0.60807	176.814
0.608089	206.018
0.65904	184.913
0.659055	206.152
0.708813	214.247
0.71001	190.356
0.759769	201.106
0.759786	225
0.809543	233.095
0.810741	209.204
0.820468	238.433
0.828947	214.561
0.845957	246.464
0.860503	222.609
0.873874	257.157
0.887208	235.953
0.903011	278.472
0.910272	249.288
0.938199	273.255
0.938238	331.662
0.96128	310.483
0.964987	408.723
0.982049	517.617
0.984385	382.225
0.986942	576.037
0.994144	459.242
0.995483	645.086
1.00272	581.388
1.00887	700.873
