Adsorption isotherm of Cyclohexane on Zeolite AgY
DOI: 10.1002/aic.690480710
Adsorbate Cyclohexane: InChIKey XDTMQSROBMDMFD-UHFFFAOYSA-N
Temperature: 453 K
Tabular data in the source: 0
pressure (bar)	uptake (mmol/g)
0.00041462	-4.44e-16
0.000788969	0.0138889
0.00110693	0.0416667
0.00150131	0.0694444
0.00196843	0.111111
0.00258083	0.173611
0.00316228	0.229167
0.00400811	0.277778
0.00601741	0.423611
0.00689033	0.486111
0.00788969	0.548611
0.00934523	0.611111
0.0107006	0.673611
0.0122529	0.736111
0.0140301	0.798611
0.016065	0.868056
0.0183954	0.930556
0.0217891	0.993056
0.0362093	1.20833
0.0428894	1.27083
0.0543613	1.36806
0.0689033	1.41667
0.09034	1.47222
0.114505	1.52083
0.145133	1.56944
0.196842	1.60417
0.266975	1.63194
0.362096	1.65278
0.508021	1.66667
0.689025	1.68056
0.934519	1.69444
0.966705	1.70139
