Adsorption isotherm of Benzene on H-USY
DOI: 10.1002/aic.690480710
Adsorbate Benzene: InChIKey UHOVQNZJYSORNB-UHFFFAOYSA-N
Temperature: 393 K
Tabular data in the source: 0
pressure (bar)	uptake (mmol/g)
0.00942102	2.22e-16
0.0138429	0.0275281
0.018852	0.047191
0.0241579	0.0786517
0.0274013	0.102247
0.0318249	0.13764
0.0353635	0.165169
0.0383126	0.188764
0.0430305	0.224157
0.046274	0.247753
0.0492238	0.275281
0.0548266	0.318539
0.0571869	0.342135
0.0633802	0.393258
0.0666228	0.412921
0.068983	0.436517
0.0716368	0.45618
0.0739962	0.475843
0.0763564	0.499438
0.0822536	0.542697
0.0849074	0.56236
0.0872668	0.582022
0.0902142	0.597753
0.0925736	0.617416
0.0952265	0.633146
0.0978803	0.652809
0.100533	0.668539
0.103187	0.688202
0.105841	0.707865
0.1082	0.727528
0.110853	0.743258
0.113507	0.762921
0.11616	0.778652
0.118813	0.794382
0.121466	0.810112
0.123529	0.82191
