Adsorption isotherm of Benzene on H-USY
DOI: 10.1002/aic.690480710
Adsorbate Benzene: InChIKey UHOVQNZJYSORNB-UHFFFAOYSA-N
Temperature: 453 K
Tabular data in the source: 0
pressure (bar)	uptake (mmol/g)
0.0173725	0.0117978
0.0217886	0.0117978
0.0265016	0.0235955
0.0309193	0.0314607
0.0356315	0.0393258
0.041226	0.0432584
0.0488848	0.0629213
0.0538922	0.0747191
0.056837	0.0786517
0.0597819	0.0825843
0.0624333	0.0904494
0.068323	0.0983146
0.0712688	0.10618
0.0739201	0.114045
0.0765706	0.117978
0.0795155	0.12191
0.0877638	0.145506
0.0904135	0.145506
0.0933592	0.153371
0.0963041	0.157303
0.0989554	0.165169
0.1019	0.169101
0.104845	0.173034
0.10779	0.176966
0.112502	0.184831
0.115448	0.192697
0.118098	0.196629
0.121044	0.204494
