Adsorption isotherm of Benzene on Zeolite AgY
DOI: 10.1002/aic.690480710
Adsorbate Benzene: InChIKey UHOVQNZJYSORNB-UHFFFAOYSA-N
Temperature: 453 K
Tabular data in the source: 0
pressure (bar)	uptake (mmol/g)
2.13e-06	0.291667
2.89e-06	0.326389
3.93e-06	0.354167
5.15e-06	0.395833
6.75e-06	0.4375
8.55e-06	0.479167
1.12e-05	0.520833
1.63e-05	0.576389
2.06e-05	0.625
2.99e-05	0.701389
3.93e-05	0.743056
4.81e-05	0.791667
6.31e-05	0.840278
7.73e-05	0.888889
9.8e-05	0.9375
0.000124153	0.986111
0.000157361	1.02778
0.000199451	1.08333
0.000244381	1.13194
0.000309747	1.18056
0.000392606	1.22917
0.000497619	1.27778
0.00063072	1.32639
0.000799423	1.375
0.00104816	1.42361
0.00132852	1.47222
0.00168386	1.52778
0.00213426	1.57639
0.00270512	1.625
0.00342868	1.66667
0.00449549	1.71528
0.00569792	1.74306
0.00722199	1.78472
0.00979505	1.81944
0.0128427	1.86111
0.0180184	1.90972
0.0261503	1.95139
0.035468	1.97917
0.0481046	2.01389
0.0652434	2.04167
0.132851	2.11111
0.180184	2.11111
0.244382	2.13194
0.331454	2.14583
0.465031	2.15278
0.65244	2.16667
0.915375	2.16667
