Adsorption isotherm of Benzene on H-USY
DOI: 10.1002/aic.690480710
Adsorbate Benzene: InChIKey UHOVQNZJYSORNB-UHFFFAOYSA-N
Temperature: 453 K
Tabular data in the source: 0
pressure (bar)	uptake (mmol/g)
0.0226735	0.0196629
0.0291521	0.0275281
0.039166	0.047191
0.0453519	0.0629213
0.0500624	0.0629213
0.0535969	0.0707865
0.0580155	0.0825843
0.0609604	0.0865169
0.068323	0.0983146
0.0733304	0.110112
0.0803979	0.117978
0.0854053	0.129775
0.0915919	0.149438
0.0989546	0.161236
0.10514	0.173034
0.113682	0.192697
0.123106	0.208427
