Adsorption isotherm of Benzene on H-USY
DOI: 10.1002/aic.690480710
Adsorbate Benzene: InChIKey UHOVQNZJYSORNB-UHFFFAOYSA-N
Temperature: 453 K
Tabular data in the source: 0
pressure (bar)	uptake (mmol/g)
0.0232606	0.0117978
0.0329818	0.0393258
0.0424062	0.0550562
0.0524193	0.0707865
0.0668502	0.094382
0.0827531	0.117978
0.11103	0.184831
