Adsorption isotherm of Benzene on Zeolite Na-Y
DOI: 10.1002/aic.690480710
Adsorbate Benzene: InChIKey UHOVQNZJYSORNB-UHFFFAOYSA-N
Temperature: 393 K
Tabular data in the source: 0
pressure (bar)	uptake (mmol/g)
8.82e-06	0.455758
1.16e-05	0.527482
1.45e-05	0.590224
1.76e-05	0.644006
2.14e-05	0.706727
2.6e-05	0.769447
3.16e-05	0.832168
3.84e-05	0.903827
4.53e-05	0.966526
5.5e-05	1.03819
6.5e-05	1.10982
7.89e-05	1.17254
9.59e-05	1.23526
0.000113216	1.3069
0.000171647	1.47706
0.000202729	1.54869
0.000239445	1.61139
0.000290768	1.68305
0.000353091	1.74577
0.000453228	1.83535
0.000535312	1.90699
0.00065005	1.96077
0.000789381	2.03243
0.000958554	2.09515
0.00116401	2.15787
0.00149412	2.23851
0.00214297	2.34606
0.0032489	2.42683
0.00394527	2.48061
0.0065005	2.57932
0.00811571	2.63312
0.0123043	2.68708
0.0157938	2.71409
0.0202729	2.75004
0.0417039	2.8221
0.0535312	2.84018
0.0706458	2.84933
0.110119	2.86755
0.145326	2.8767
0.191789	2.87692
0.253108	2.88607
0.324893	2.89521
0.428768	2.89542
0.565854	2.90458
0.74677	2.90479
0.985527	2.91394
