Adsorption isotherm of Benzene on Zeolite PdY
DOI: 10.1002/aic.690480710
Adsorbate Benzene: InChIKey UHOVQNZJYSORNB-UHFFFAOYSA-N
Temperature: 393 K
Tabular data in the source: 0
pressure (bar)	uptake (mmol/g)
0.000898532	0.0372281
0.00388234	0.123118
0.00507331	0.148878
0.00626429	0.174637
0.0086454	0.223292
0.0101322	0.249045
0.0134025	0.303409
0.0148893	0.329162
0.0255802	0.466446
0.027657	0.486454
0.0300322	0.515052
0.0324039	0.532188
0.0344807	0.552196
0.0365575	0.572204
0.0389285	0.586475
0.0413003	0.603611
0.043672	0.620747
0.0475281	0.65504
0.053455	0.689285
0.056716	0.712131
0.0605661	0.726366
0.0629379	0.743503
0.0656047	0.757766
0.0679748	0.769172
0.0706416	0.783436
0.0733083	0.797699
0.0759751	0.811963
0.078641	0.823362
0.081307	0.83476
0.0839729	0.846159
0.0866388	0.857557
0.0893047	0.868956
0.0922657	0.877482
0.0949316	0.88888
0.0978925	0.897407
0.100558	0.90594
0.103223	0.914473
0.106184	0.925864
0.108849	0.934398
0.111515	0.945796
0.114476	0.954322
0.117141	0.962856
0.119806	0.971389
