Adsorption isotherm of Cyclohexane on Zeolite Na-Y
DOI: 10.1002/aic.690480710
Adsorbate Cyclohexane: InChIKey XDTMQSROBMDMFD-UHFFFAOYSA-N
Temperature: 393 K
Tabular data in the source: 0
pressure (bar)	uptake (mmol/g)
3.25e-05	0.000904624
8.58e-05	0.0195356
0.000275072	0.109826
0.000565857	0.217648
0.00113216	0.379081
0.00208433	0.540448
0.0032489	0.755318
0.0047909	0.943329
0.0074677	1.14032
0.00906831	1.25667
0.0110118	1.37303
0.0153616	1.55205
0.0202729	1.71316
0.0334031	1.91914
0.0492568	2.08927
0.0811571	2.22374
0.137482	2.34035
0.253108	2.42127
0.479088	2.4754
0.857882	2.52948
0.985527	2.53853
