Adsorption isotherm of Cyclohexane on Zeolite AgY
DOI: 10.1002/aic.690480710
Adsorbate Cyclohexane: InChIKey XDTMQSROBMDMFD-UHFFFAOYSA-N
Temperature: 453 K
Tabular data in the source: 0
pressure (bar)	uptake (mmol/g)
0.000147054	-4.44e-16
0.000392606	0.0277778
0.000722199	0.0555556
0.0011216	0.0763889
0.00192809	0.131944
0.00309747	0.215278
0.00481046	0.326389
0.00826945	0.493056
0.0120018	0.645833
0.0157361	0.770833
0.0213426	0.916667
0.0270512	1.04167
0.037953	1.20833
0.0532484	1.34028
0.0772799	1.45833
0.112159	1.5625
0.168385	1.64583
0.252799	1.69444
0.43458	1.73611
0.826954	1.78472
