Adsorption isotherm of Cyclohexane on Zeolite AgY
DOI: 10.1002/aic.690480710
Adsorbate Cyclohexane: InChIKey XDTMQSROBMDMFD-UHFFFAOYSA-N
Temperature: 393 K
Tabular data in the source: 0
pressure (bar)	uptake (mmol/g)
2.28e-06	0.00694444
6.1e-06	0.0277778
1.24e-05	0.0416667
2.62e-05	0.0694444
5.7e-05	0.104167
9.47e-05	0.152778
0.000147054	0.1875
0.000279832	0.298611
0.000481046	0.395833
0.000826945	0.5
0.0011216	0.604167
0.00174183	0.736111
0.00228379	0.833333
0.00465025	1.09028
0.00652434	1.20833
0.00979505	1.35417
0.0157361	1.47222
0.0279832	1.61806
0.0481046	1.73611
0.0826945	1.79861
0.174185	1.88889
0.320418	1.92361
0.532482	1.95139
0.855435	1.97917
