Adsorption isotherm of Benzene on Zeolite AgY
DOI: 10.1002/aic.690480710
Adsorbate Benzene: InChIKey UHOVQNZJYSORNB-UHFFFAOYSA-N
Temperature: 453 K
Tabular data in the source: 0
pressure (bar)	uptake (mmol/g)
8.85e-06	0.354167
2.44e-05	0.666667
0.000157361	1.31944
0.000532484	1.45139
0.00550816	1.68056
0.0236247	1.86111
0.0309747	1.90278
0.0826945	2.0625
0.108425	2.11806
