Adsorption isotherm of Benzene on Zeolite NaY
DOI: 10.1002/aic.690480710
Adsorbate Benzene: InChIKey UHOVQNZJYSORNB-UHFFFAOYSA-N
Temperature: 393 K
Tabular data in the source: 0
pressure (bar)	uptake (mmol/g)
0.000157938	1.41442
0.000550372	2.04109
0.00535312	2.56129
0.026023	2.72341
0.0373239	2.78626
0.0581777	2.84918
0.0985523	2.91216
