Adsorption isotherm of Cyclohexane on Zeolite PdY
DOI: 10.1002/aic.690480710
Adsorbate Cyclohexane: InChIKey XDTMQSROBMDMFD-UHFFFAOYSA-N
Temperature: 393 K
Tabular data in the source: 0
pressure (bar)	uptake (mmol/g)
0.00920486	0.114396
0.0216614	0.22012
0.0391353	0.285611
0.0616393	0.353848
0.102785	0.435973
