Adsorption isotherm of Cyclohexane on Zeolite AgY
DOI: 10.1002/aic.690480710
Adsorbate Cyclohexane: InChIKey XDTMQSROBMDMFD-UHFFFAOYSA-N
Temperature: 393 K
Tabular data in the source: 0
pressure (bar)	uptake (mmol/g)
0.00011216	0.159722
0.00104816	0.527778
0.00497619	1.20833
0.0104816	1.375
0.0199451	1.5
0.063072	1.72917
0.108425	1.79861
