Adsorption isotherm of Benzene on H-USY
DOI: 10.1002/aic.690480710
Adsorbate Benzene: InChIKey UHOVQNZJYSORNB-UHFFFAOYSA-N
Temperature: 393 K
Tabular data in the source: 0
pressure (bar)	uptake (mmol/g)
0.0100198	0.047191
0.0223964	0.102247
0.0321242	0.161236
0.0512863	0.283146
0.0648547	0.405056
0.080483	0.523034
0.108221	0.825843
