Adsorption isotherm of Benzene on Zeolite AgY
DOI: 10.1002/aic.690480710
Adsorbate Benzene: InChIKey UHOVQNZJYSORNB-UHFFFAOYSA-N
Temperature: 393 K
Tabular data in the source: 0
pressure (bar)	uptake (mmol/g)
2.13e-06	1.21528
3.67e-06	1.26389
5.15e-06	1.28472
7.73e-06	1.33333
1.28e-05	1.38194
2.28e-05	1.44444
3.8e-05	1.48611
5.32e-05	1.52083
7.47e-05	1.54167
0.000101325	1.57639
0.000137425	1.60417
0.000180184	1.63889
0.000244381	1.67361
0.000331457	1.70139
0.000449549	1.72917
0.000674911	1.78472
0.00091537	1.79861
0.00128427	1.84028
0.00192809	1.88889
0.00299438	1.92361
0.00434577	1.95833
0.00652434	2
0.0132852	2.0625
0.0220778	2.10417
0.0342868	2.14583
0.0532484	2.18056
0.147056	2.25694
0.289467	2.29861
0.609717	2.34722
1.01325	2.38194
