Adsorption isotherm of Benzene on Zeolite AgY
DOI: 10.1002/aic.690480710
Adsorbate Benzene: InChIKey UHOVQNZJYSORNB-UHFFFAOYSA-N
Temperature: 393 K
Tabular data in the source: 0
pressure (bar)	uptake (mmol/g)
1.01e-05	1.71232
0.000103633	1.84456
0.000996292	1.96279
0.00990687	2.04589
0.109019	2.05872
