Adsorption isotherm of Benzene on Zeolite Na-Y
DOI: 10.1002/aic.690480710
Adsorbate Benzene: InChIKey UHOVQNZJYSORNB-UHFFFAOYSA-N
Temperature: 453 K
Tabular data in the source: 0
pressure (bar)	uptake (mmol/g)
5.5e-05	0.00131386
8.58e-05	0.0195356
0.000181437	0.0737484
0.000232898	0.109696
0.000479089	0.280089
0.000581777	0.351748
0.000687142	0.414447
0.000834404	0.486106
0.000958554	0.557722
0.00113216	0.62936
0.00130061	0.709915
0.00149412	0.781531
0.00171647	0.862085
0.00197186	0.94264
0.00226525	1.01426
0.00267551	1.11271
0.00307359	1.18433
0.00343429	1.2738
0.00383731	1.34539
0.00417039	1.39015
0.0047909	1.4707
0.00506427	1.51544
0.00581777	1.59599
0.00668339	1.67655
0.0074677	1.74814
0.0085788	1.8287
0.00985523	1.90925
0.0116401	1.98089
0.013372	2.05251
0.0157938	2.13308
0.0181437	2.2047
0.0220326	2.27636
0.026023	2.33906
0.032489	2.41074
0.0428772	2.50928
0.0535312	2.56308
0.0726334	2.63483
0.0882016	2.68861
0.113216	2.73349
0.149414	2.76946
0.191789	2.78753
0.253108	2.79669
0.324893	2.81476
0.35309	2.82376
0.46598	2.83292
0.614964	2.84207
0.789374	2.8512
0.985527	2.86031
