Adsorption isotherm of Benzene on Zeolite Na-Y
DOI: 10.1002/aic.690480710
Adsorbate Benzene: InChIKey UHOVQNZJYSORNB-UHFFFAOYSA-N
Temperature: 453 K
Tabular data in the source: 0
pressure (bar)	uptake (mmol/g)
0.000153616	0.0557421
0.00535312	1.76576
0.0253108	2.37479
0.0373239	2.50917
0.0598131	2.65255
0.0985523	2.80489
