Adsorption isotherm of Benzene on H-USY
DOI: 10.1002/aic.690480710
Adsorbate Benzene: InChIKey UHOVQNZJYSORNB-UHFFFAOYSA-N
Temperature: 393 K
Tabular data in the source: 0
pressure (bar)	uptake (mmol/g)
0.00530015	0.00393258
0.0126661	0.0314607
0.0191488	0.0589888
0.0241604	0.0904494
0.0276982	0.114045
0.0362484	0.173034
0.0445034	0.22809
0.0524664	0.294944
0.0560059	0.326404
0.0616096	0.373596
0.0666236	0.416854
0.0725225	0.467978
0.0778317	0.515169
0.0825513	0.558427
0.0884502	0.609551
0.0931706	0.656742
0.0972998	0.692135
0.10084	0.727528
0.105856	0.778652
0.111458	0.817978
0.117062	0.869101
0.12385	0.947753
