Adsorption isotherm of Cyclohexane on H-USY
DOI: 10.1002/aic.690480710
Adsorbate Cyclohexane: InChIKey XDTMQSROBMDMFD-UHFFFAOYSA-N
Temperature: 453 K
Tabular data in the source: 0
pressure (bar)	uptake (mmol/g)
0.0235525	2.22e-16
0.0285608	0.0157303
0.0320961	0.0275281
0.0359251	0.0353933
0.0388708	0.0432584
0.0438782	0.0550562
0.0468239	0.0629213
0.0538963	0.094382
0.056842	0.102247
0.0594942	0.114045
0.0621463	0.125843
0.0671562	0.149438
0.0698083	0.161236
0.0727549	0.173034
0.075407	0.184831
0.0783536	0.196629
0.0939712	0.263483
0.0966225	0.271348
0.110177	0.326404
0.11283	0.342135
0.115775	0.35
0.118428	0.361798
0.121374	0.373596
0.123437	0.381461
