Adsorption isotherm of Benzene on Zeolite NaY
DOI: 10.1002/aic.690480710
Adsorbate Benzene: InChIKey UHOVQNZJYSORNB-UHFFFAOYSA-N
Temperature: 393 K
Tabular data in the source: 0
pressure (bar)	uptake (mmol/g)
1.02e-05	0.0844673
3.03e-05	0.399287
0.000100685	1.67988
0.00102027	2.46243
0.00992811	2.56604
0.0999072	2.63138
