Adsorption isotherm of Cyclohexane on H-USY
DOI: 10.1002/aic.690480710
Adsorbate Cyclohexane: InChIKey XDTMQSROBMDMFD-UHFFFAOYSA-N
Temperature: 393 K
Tabular data in the source: 0
pressure (bar)	uptake (mmol/g)
0.0232606	0.0117978
0.0276842	0.047191
0.0303396	0.0747191
0.0347698	0.141573
0.0374318	0.200562
0.0406835	0.263483
0.0445365	0.385393
0.0469083	0.464045
0.0492825	0.554494
0.0525384	0.637079
0.0552071	0.727528
0.0581693	0.814045
0.0620148	0.900562
0.0661572	0.998876
0.0711778	1.0736
0.0753136	1.14045
0.0812124	1.19157
0.0876985	1.23483
0.093886	1.25843
0.100955	1.27416
0.108614	1.29382
0.114504	1.30562
0.121866	1.31348
