Adsorption isotherm of Benzene on Zeolite AgY
DOI: 10.1002/aic.690480710
Adsorbate Benzene: InChIKey UHOVQNZJYSORNB-UHFFFAOYSA-N
Temperature: 393 K
Tabular data in the source: 0
pressure (bar)	uptake (mmol/g)
1.01e-05	1.66316
0.000103633	1.74624
0.000996292	1.87852
0.00957782	1.93355
0.0985137	1.94641
