Adsorption isotherm of Cyclohexane on H-USY
DOI: 10.1002/aic.690480710
Adsorbate Cyclohexane: InChIKey XDTMQSROBMDMFD-UHFFFAOYSA-N
Temperature: 393 K
Tabular data in the source: 0
pressure (bar)	uptake (mmol/g)
0.0153191	0.047191
0.0312319	0.117978
0.04038	0.220225
0.0498408	0.408989
0.0617138	0.869101
0.0773694	1.11685
0.105374	1.28596
