Adsorption isotherm of Benzene on H-USY
DOI: 10.1002/aic.690480710
Adsorbate Benzene: InChIKey UHOVQNZJYSORNB-UHFFFAOYSA-N
Temperature: 453 K
Tabular data in the source: 0
pressure (bar)	uptake (mmol/g)
0.0253978	0.0589888
0.0507891	0.0955056
0.0761794	0.129213
0.100973	0.140449
