Adsorption isotherm of Cyclohexane on Zeolite Na-Y
DOI: 10.1002/aic.690480710
Adsorbate Cyclohexane: InChIKey XDTMQSROBMDMFD-UHFFFAOYSA-N
Temperature: 393 K
Tabular data in the source: 0
pressure (bar)	uptake (mmol/g)
0.000181437	0.0111786
0.000275072	0.0115016
0.000453228	0.0476435
0.000581777	0.0835916
0.000811571	0.155358
0.00116401	0.27184
0.0014135	0.361376
0.00239446	0.585249
0.00275072	0.665803
0.00316007	0.737419
0.00565857	1.10435
0.0065005	1.18491
0.0074677	1.25652
0.00834404	1.33706
0.00985523	1.41763
0.0145327	1.61458
0.0197186	1.77571
0.0298949	1.8833
0.0373239	1.94604
0.0465979	1.99091
0.0668339	2.04482
0.0882016	2.09866
0.116401	2.09888
0.153617	2.12591
0.197185	2.13504
0.260229	2.13526
0.343429	2.15335
0.428768	2.14458
0.550372	2.15372
0.726338	2.15393
0.932335	2.15413
