Adsorption isotherm of Cyclohexane on Zeolite Na-Y
DOI: 10.1002/aic.690480710
Adsorbate Cyclohexane: InChIKey XDTMQSROBMDMFD-UHFFFAOYSA-N
Temperature: 453 K
Tabular data in the source: 0
pressure (bar)	uptake (mmol/g)
0.00726334	0.0676745
0.00906831	0.121478
0.0104176	0.193094
0.0123043	0.27367
0.0226525	0.631686
0.0253108	0.712219
0.0282811	0.801691
0.0307359	0.882202
0.0394527	1.07011
0.0492568	1.19542
0.0581777	1.32069
0.0668339	1.40124
0.076778	1.47286
0.0882016	1.55341
0.107106	1.61613
0.126504	1.67883
0.157938	1.74157
0.197185	1.78644
0.260229	1.82241
0.334032	1.84942
0.440829	1.86751
0.581772	1.87666
0.74677	1.89474
0.985527	1.90389
