Adsorption isotherm of Cyclohexane on Zeolite PdY
DOI: 10.1002/aic.690480710
Adsorbate Cyclohexane: InChIKey XDTMQSROBMDMFD-UHFFFAOYSA-N
Temperature: 393 K
Tabular data in the source: 0
pressure (bar)	uptake (mmol/g)
0.000600999	0.0315045
0.00149953	0.0687326
0.00357633	0.0887409
0.00624649	0.114466
0.00891496	0.13446
0.0112867	0.151596
0.0136585	0.168733
0.0160295	0.183003
0.0186962	0.197267
0.0210689	0.217269
0.023734	0.225802
0.0263999	0.2372
0.0293616	0.248592
0.0320276	0.25999
0.0346927	0.268523
0.0379519	0.285639
0.0409112	0.288434
0.0432804	0.296974
0.0459455	0.305508
0.0483147	0.314048
0.0509798	0.322581
0.0533482	0.328256
0.0563083	0.333917
0.0586784	0.345322
0.0607518	0.353869
0.063711	0.356665
0.0663752	0.362333
0.0684486	0.37088
0.0711129	0.376548
0.0740729	0.382209
0.0767372	0.387876
0.0796972	0.393537
0.0823615	0.399205
0.0853215	0.404866
0.0879858	0.410534
0.0909458	0.416195
0.0936101	0.421863
0.0962734	0.424665
0.0992327	0.427461
0.101603	0.438866
0.104561	0.438797
0.107521	0.444458
0.110186	0.452991
0.11285	0.455793
0.11581	0.461454
0.118769	0.46425
0.121434	0.472783
0.123209	0.472741
