Adsorption isotherm of Cyclohexane on Zeolite NaY
DOI: 10.1002/aic.690480710
Adsorbate Cyclohexane: InChIKey XDTMQSROBMDMFD-UHFFFAOYSA-N
Temperature: 453 K
Tabular data in the source: 0
pressure (bar)	uptake (mmol/g)
0.000668339	0.0390065
0.00104176	0.0572282
0.0019179	0.0845177
0.00465979	0.183531
0.0157938	0.372188
0.019179	0.604741
0.0506427	1.23119
0.104175	1.85745
