Adsorption isotherm of Cyclohexane on Zeolite AgY
DOI: 10.1002/aic.690480710
Adsorbate Cyclohexane: InChIKey XDTMQSROBMDMFD-UHFFFAOYSA-N
Temperature: 393 K
Tabular data in the source: 0
pressure (bar)	uptake (mmol/g)
5.7e-05	0.00694444
0.000101325	0.0486111
0.00014216	0.0694444
0.000192809	0.104167
0.0002528	0.145833
0.000320418	0.194444
0.000406122	0.236111
0.00051475	0.291667
0.00063072	0.340278
0.000772799	0.395833
0.00091537	0.458333
0.00244381	0.833333
0.00279831	0.895833
0.00331457	0.958333
0.0037953	1.02083
0.00449549	1.07639
0.00550816	1.13889
0.00722199	1.26389
0.00946905	1.35417
0.0137425	1.44444
0.0199451	1.52778
0.0220778	1.54861
0.0331457	1.64583
0.0532484	1.69444
0.0747079	1.72917
0.0946905	1.77083
0.112159	1.75
0.137426	1.77778
0.18639	1.79167
0.261506	1.79861
0.366894	1.79861
0.514753	1.79861
0.698155	1.80556
0.979514	1.80556
