Adsorption isotherm of Cyclohexane on Zeolite AgY
DOI: 10.1002/aic.690480710
Adsorbate Cyclohexane: InChIKey XDTMQSROBMDMFD-UHFFFAOYSA-N
Temperature: 453 K
Tabular data in the source: 0
pressure (bar)	uptake (mmol/g)
0.00011216	0.111111
0.00104816	0.159722
0.00497619	0.361111
0.0199451	0.8125
0.0550816	1.36111
0.0884905	1.60417
