Adsorption isotherm of Benzene on Zeolite AgY
DOI: 10.1002/aic.690480710
Adsorbate Benzene: InChIKey UHOVQNZJYSORNB-UHFFFAOYSA-N
Temperature: 453 K
Tabular data in the source: 0
pressure (bar)	uptake (mmol/g)
1.01e-05	0.167372
3.07e-05	0.553041
0.000103633	1.14933
0.000996292	1.72403
0.00957782	1.80714
0.101897	1.91128
