Adsorption isotherm of Benzene on Zeolite PdY
DOI: 10.1002/aic.690480710
Adsorbate Benzene: InChIKey UHOVQNZJYSORNB-UHFFFAOYSA-N
Temperature: 393 K
Tabular data in the source: 0
pressure (bar)	uptake (mmol/g)
0.000303466	0.0257808
0.00416461	0.0772658
0.00535983	0.117352
0.00773924	0.160276
0.010122	0.214661
0.0125023	0.26045
0.0139908	0.291934
0.016967	0.352036
0.019048	0.386371
0.0220208	0.435011
0.0243977	0.469339
0.0288513	0.523675
0.0350809	0.580835
0.041307	0.626534
0.0466423	0.660792
0.0549359	0.69498
0.0620428	0.717736
0.0691488	0.737625
0.0818766	0.760248
0.0904593	0.771507
0.101706	0.788434
0.112951	0.799631
0.122717	0.807996
