Adsorption isotherm of Cyclohexane on H-USY
DOI: 10.1002/aic.690480710
Adsorbate Cyclohexane: InChIKey XDTMQSROBMDMFD-UHFFFAOYSA-N
Temperature: 453 K
Tabular data in the source: 0
pressure (bar)	uptake (mmol/g)
0.0320945	0.0196629
0.0415205	0.0432584
0.0512433	0.0786517
0.0650895	0.12191
0.0807105	0.204494
0.108704	0.322472
