Adsorption isotherm of Benzene on Zeolite NaY
DOI: 10.1002/aic.690480710
Adsorbate Benzene: InChIKey UHOVQNZJYSORNB-UHFFFAOYSA-N
Temperature: 453 K
Tabular data in the source: 0
pressure (bar)	uptake (mmol/g)
0.00010255	0.0733068
0.00028413	0.149104
0.000970257	0.779402
0.00990414	2.31741
0.0999072	2.63138
