Adsorption isotherm of Benzene on Zeolite AgY
DOI: 10.1002/aic.690480710
Adsorbate Benzene: InChIKey UHOVQNZJYSORNB-UHFFFAOYSA-N
Temperature: 393 K
Tabular data in the source: 0
pressure (bar)	uptake (mmol/g)
2.13e-06	1.19444
4.35e-06	1.26389
7.99e-06	1.31944
1.37e-05	1.39583
2.71e-05	1.44444
5.51e-05	1.52778
0.000157361	1.625
0.00035468	1.70833
0.000772799	1.79167
0.00192809	1.88194
0.00449549	1.96528
0.0104816	2.03472
0.0220778	2.10417
0.0465025	2.16667
0.147056	2.27083
0.252799	2.3125
0.514753	2.36806
0.826954	2.40278
1.01325	2.40972
