Adsorption isotherm of Benzene on Zeolite Na-Y
DOI: 10.1002/aic.690480710
Adsorbate Benzene: InChIKey UHOVQNZJYSORNB-UHFFFAOYSA-N
Temperature: 393 K
Tabular data in the source: 0
pressure (bar)	uptake (mmol/g)
9.86e-06	0.768694
2.03e-05	0.948025
4.93e-05	1.18112
9.32e-05	1.3872
0.000186542	1.6112
0.000363025	1.79049
0.000565857	1.93385
0.00137482	2.18482
0.00282811	2.37309
0.00440825	2.47176
0.0076778	2.58839
0.0130061	2.67818
0.0298949	2.79503
0.0811571	2.90307
0.171646	2.95728
0.334032	2.99355
0.632263	3.02086
0.932335	3.04798
