Adsorption isotherm of Cyclohexane on Zeolite PdY
DOI: 10.1002/aic.690480710
Adsorbate Cyclohexane: InChIKey XDTMQSROBMDMFD-UHFFFAOYSA-N
Temperature: 393 K
Tabular data in the source: 0
pressure (bar)	uptake (mmol/g)
0.00208273	0.0400655
0.00416376	0.0744004
0.00772398	0.108701
0.0130592	0.142959
0.017212	0.18011
0.0234356	0.217213
0.0284707	0.237151
0.0332118	0.262828
0.0400237	0.288455
0.0494989	0.316885
0.0560141	0.339654
0.062231	0.353834
0.0693378	0.37659
0.0776255	0.390721
0.0841382	0.404894
0.0915375	0.416181
0.0977518	0.421765
0.105151	0.433052
0.113735	0.447177
0.117581	0.449951
0.121724	0.452719
0.122021	0.455577
