Adsorption isotherm of Cyclohexane on H-USY
DOI: 10.1002/aic.690480710
Adsorbate Cyclohexane: InChIKey XDTMQSROBMDMFD-UHFFFAOYSA-N
Temperature: 453 K
Tabular data in the source: 0
pressure (bar)	uptake (mmol/g)
0.024143	0.00786517
0.0294448	0.0196629
0.0385764	0.0432584
0.043879	0.0589888
0.0541915	0.0983146
0.0603774	0.114045
0.0647993	0.141573
0.0692187	0.157303
0.074523	0.180899
0.0798272	0.204494
0.0877837	0.239888
0.093972	0.267416
0.100161	0.298876
0.104875	0.314607
0.10959	0.338202
0.114599	0.357865
0.118724	0.373596
0.122261	0.389326
