Adsorption isotherm of Cyclohexane on H-USY
DOI: 10.1002/aic.690480710
Adsorbate Cyclohexane: InChIKey XDTMQSROBMDMFD-UHFFFAOYSA-N
Temperature: 393 K
Tabular data in the source: 0
pressure (bar)	uptake (mmol/g)
0.0241488	0.0353933
0.026509	0.0589888
0.0288684	0.0786517
0.0338899	0.157303
0.0418645	0.279213
0.0436375	0.310674
0.0454106	0.342135
0.0468901	0.377528
0.0501418	0.440449
0.0519148	0.47191
0.0533935	0.503371
0.0551674	0.538764
0.056646	0.570225
0.0587135	0.601685
0.0604865	0.633146
0.0622596	0.664607
0.0637382	0.696067
0.0655113	0.727528
0.0675788	0.758989
0.0693518	0.790449
0.071124	0.817978
0.0731915	0.849438
0.0749646	0.880899
0.0767376	0.91236
0.0788043	0.939888
0.0808717	0.971348
0.082644	0.998876
0.085005	1.0264
0.0870708	1.05
0.0891374	1.07753
0.0912041	1.10506
0.0932707	1.13258
0.0956309	1.15618
0.0976967	1.17978
0.100057	1.20337
0.102418	1.2309
0.110383	1.30562
0.112449	1.32921
0.115103	1.35281
0.117463	1.37247
0.123657	1.43146
