Adsorption isotherm of Cyclohexane on Zeolite Na-Y
DOI: 10.1002/aic.690480710
Adsorbate Cyclohexane: InChIKey XDTMQSROBMDMFD-UHFFFAOYSA-N
Temperature: 453 K
Tabular data in the source: 0
pressure (bar)	uptake (mmol/g)
0.00065005	0.0032308
0.00113216	0.0215387
0.00214297	0.0577882
0.00428772	0.111958
0.0076778	0.228611
0.0116401	0.38089
0.0176472	0.586799
0.0232898	0.756847
0.0298949	0.935812
0.0492568	1.25799
0.0706458	1.53536
0.0985523	1.77696
0.166949	1.95614
0.208435	2.03676
0.282813	2.09063
0.550372	2.20735
0.985527	2.27931
