Adsorption isotherm of Cyclohexane on Zeolite NaY
DOI: 10.1002/aic.690480710
Adsorbate Cyclohexane: InChIKey XDTMQSROBMDMFD-UHFFFAOYSA-N
Temperature: 393 K
Tabular data in the source: 0
pressure (bar)	uptake (mmol/g)
0.000113216	0.0555051
0.000687142	0.155229
0.00107107	0.236021
0.00197186	0.433143
0.00465979	1.03269
0.0104176	1.53388
0.0197186	1.7489
0.061496	2.009
0.104175	2.09879
