Adsorption isotherm of Benzene on Zeolite AgY
DOI: 10.1002/aic.690480710
Adsorbate Benzene: InChIKey UHOVQNZJYSORNB-UHFFFAOYSA-N
Temperature: 393 K
Tabular data in the source: 0
pressure (bar)	uptake (mmol/g)
8.27e-06	1.34722
2.62e-05	1.42361
5.89e-05	1.54167
0.000550816	1.77778
0.00532484	1.95833
0.0261503	2.125
0.0747079	2.20833
0.101325	2.25
