Adsorption isotherm of Benzene on Zeolite Na-Y
DOI: 10.1002/aic.690480710
Adsorbate Benzene: InChIKey UHOVQNZJYSORNB-UHFFFAOYSA-N
Temperature: 453 K
Tabular data in the source: 0
pressure (bar)	uptake (mmol/g)
2.03e-05	0.000538467
4.06e-05	0.018954
6.5e-05	0.0371973
0.000239445	0.109718
0.000417039	0.208473
0.000668339	0.342917
0.000932345	0.459377
0.0014135	0.674225
0.0019179	0.853233
0.00239446	1.0143
0.00316007	1.2201
0.00428772	1.4438
0.00535312	1.64062
0.00706458	1.87324
0.0101325	2.06123
0.0137482	2.24024
0.0197186	2.41035
0.0253108	2.49099
0.0316007	2.58055
0.0565857	2.68826
0.110119	2.75135
0.253108	2.79669
0.668334	2.80638
1.01325	2.81564
