Adsorption isotherm of Benzene on Zeolite PdY
DOI: 10.1002/aic.690480710
Adsorbate Benzene: InChIKey UHOVQNZJYSORNB-UHFFFAOYSA-N
Temperature: 393 K
Tabular data in the source: 0
pressure (bar)	uptake (mmol/g)
0.00535559	0.103026
0.00863608	0.191774
0.0122133	0.28338
0.0175663	0.37781
0.0232126	0.463636
0.028258	0.517959
0.044863	0.646507
0.0593811	0.720664
0.0786215	0.75746
