Adsorption isotherm of Benzene on Zeolite AgY
DOI: 10.1002/aic.690480710
Adsorbate Benzene: InChIKey UHOVQNZJYSORNB-UHFFFAOYSA-N
Temperature: 453 K
Tabular data in the source: 0
pressure (bar)	uptake (mmol/g)
2.21e-06	0.243056
3.93e-06	0.319444
7.47e-06	0.409722
1.37e-05	0.527778
2.06e-05	0.638889
3.93e-05	0.784722
5.89e-05	0.895833
8.85e-05	1.00694
0.00014216	1.125
0.000199451	1.23611
0.000309747	1.35417
0.000532484	1.46528
0.000855434	1.56944
0.00157361	1.67361
0.00270512	1.75694
0.0051475	1.82639
0.0104816	1.88194
0.0261503	1.93056
0.0609715	1.97222
0.15212	1.98611
0.420111	2.00694
0.946902	2.00694
