Adsorption isotherm of Benzene on Zeolite AgY
DOI: 10.1002/aic.690480710
Adsorbate Benzene: InChIKey UHOVQNZJYSORNB-UHFFFAOYSA-N
Temperature: 453 K
Tabular data in the source: 0
pressure (bar)	uptake (mmol/g)
1.04e-05	0.0901074
3.29e-05	0.293175
0.000103633	1.00186
0.000155431	1.28958
0.000996292	1.72403
0.00957782	1.98271
0.101897	2.02364
