Adsorption isotherm of Carbon Dioxide on Al-rho-MOF
DOI: 10.1021/La205152f
Adsorbate Carbon Dioxide: InChIKey CURLTUGMZLYLDI-UHFFFAOYSA-N
Temperature: 298 K
Tabular data in the source: 0
pressure (bar)	uptake (mmol/g)
0.0314465	4.65306
0.0628931	5.48571
0.0943396	6.7102
0.188679	7.29796
0.314465	7.83673
0.534591	8.47347
0.72327	8.76735
0.849057	9.1102
1.00629	9.40408
2.42138	10.0408
3.80503	10.6286
4.96855	11.1184
5.66038	11.2163
7.2327	11.4612
8.42767	11.6082
8.89937	11.6571
9.40252	11.8041
10	11.8531
