Adsorption isotherm of Carbon Dioxide on Cs-rho-MOF
DOI: 10.1021/La205152f
Adsorbate Carbon Dioxide: InChIKey CURLTUGMZLYLDI-UHFFFAOYSA-N
Temperature: 298 K
Tabular data in the source: 0
pressure (bar)	uptake (mmol/g)
0.0943396	2.54694
0.188679	3.08571
0.314465	3.47755
0.503145	3.91837
0.72327	4.26122
0.974843	4.65306
1.10063	4.70204
1.3522	4.94694
1.63522	5.14286
1.79245	5.24082
2.07547	5.43673
2.35849	5.63265
2.64151	5.82857
2.79874	5.92653
3.11321	6.07347
3.39623	6.26939
3.67925	6.46531
3.99371	6.61224
4.43396	6.85714
4.71698	7.00408
4.96855	7.10204
5.18868	7.2
5.50314	7.34694
5.81761	7.4449
6.54088	7.6898
6.85535	7.78776
7.20126	7.88571
7.51572	7.93469
7.79874	8.03265
8.33333	8.17959
8.6478	8.22857
8.93082	8.27755
9.49686	8.47347
9.71698	8.52245
10	8.62041
