Adsorption isotherm of Carbon Dioxide on Rb-rho-MOF
DOI: 10.1021/La205152f
Adsorbate Carbon Dioxide: InChIKey CURLTUGMZLYLDI-UHFFFAOYSA-N
Temperature: 298 K
Tabular data in the source: 0
pressure (bar)	uptake (mmol/g)
0.0314465	1.51837
0.0943396	3.18367
0.283019	4.21224
0.471698	4.75102
0.691824	5.19184
1.00629	5.58367
1.60377	6.07347
2.20126	6.46531
2.83019	6.90612
3.49057	7.29796
4.08805	7.59184
4.5283	7.83673
4.96855	7.98367
5.56604	8.17959
6.10063	8.37551
6.91824	8.57143
7.73585	8.71837
8.45912	8.81633
8.77358	8.81633
9.43396	8.91429
10	8.96327
