Adsorption isotherm of Carbon Dioxide on Ca-rho-MOF
DOI: 10.1021/La205152f
Adsorbate Carbon Dioxide: InChIKey CURLTUGMZLYLDI-UHFFFAOYSA-N
Temperature: 298 K
Tabular data in the source: 0
pressure (bar)	uptake (mmol/g)
0.0943396	6.31837
0.314465	7.73878
0.534591	8.32653
0.72327	8.86531
0.974843	9.1102
2.01258	9.64898
3.52201	10.4327
4.46541	10.8245
4.93711	11.0204
6.19497	11.3143
7.54717	11.4612
9.02516	11.6082
9.55975	11.6082
9.93711	11.6571
