Adsorption isotherm of Carbon Dioxide on K-rho-MOF
DOI: 10.1021/La205152f
Adsorbate Carbon Dioxide: InChIKey CURLTUGMZLYLDI-UHFFFAOYSA-N
Temperature: 298 K
Tabular data in the source: 0
pressure (bar)	uptake (mmol/g)
0.0314465	3.52653
0.251572	4.50612
0.471698	5.14286
0.660377	5.53469
0.974843	5.97551
1.10063	5.97551
1.38365	6.22041
1.66667	6.41633
1.88679	6.61224
2.16981	6.80816
2.45283	7.05306
2.51572	7.10204
2.79874	7.29796
3.30189	7.64082
3.58491	7.83673
4.08805	8.13061
4.55975	8.42449
4.96855	8.62041
5.44025	8.76735
5.75472	8.86531
6.25786	9.01224
6.57233	9.06122
7.20126	9.25714
7.67296	9.30612
7.98742	9.3551
8.30189	9.40408
8.52201	9.45306
8.83648	9.45306
9.08805	9.50204
9.37107	9.55102
9.68553	9.55102
9.93711	9.64898
