Adsorption isotherm of Carbon Dioxide on Na-rho-MOF
DOI: 10.1021/La205152f
Adsorbate Carbon Dioxide: InChIKey CURLTUGMZLYLDI-UHFFFAOYSA-N
Temperature: 298 K
Tabular data in the source: 0
pressure (bar)	uptake (mmol/g)
0.0628931	3.72245
0.125786	4.8
0.188679	5.24082
0.314465	5.77959
0.471698	6.31837
0.691824	6.80816
1.00629	7.10204
1.10063	7.10204
1.3522	7.34694
1.63522	7.54286
1.94969	7.6898
2.2327	7.88571
2.51572	8.08163
2.79874	8.22857
3.11321	8.37551
3.39623	8.57143
3.71069	8.71837
3.99371	8.86531
4.27673	9.01224
4.59119	9.15918
4.87421	9.30612
5	9.3551
5.09434	9.3551
5.37736	9.50204
5.69182	9.6
6.00629	9.69796
6.28931	9.74694
6.60377	9.8449
6.88679	9.94286
7.20126	9.99184
7.51572	10.0408
7.79874	10.1388
8.11321	10.1878
8.42767	10.2367
8.71069	10.3347
9.02516	10.3837
9.33962	10.4327
9.65409	10.4816
9.96855	10.5796
