Adsorption isotherm of Carbon Dioxide on Mg-rho-MOF
DOI: 10.1021/La205152f
Adsorbate Carbon Dioxide: InChIKey CURLTUGMZLYLDI-UHFFFAOYSA-N
Temperature: 298 K
Tabular data in the source: 0
pressure (bar)	uptake (mmol/g)
0.157233	7.05306
0.283019	7.98367
0.72327	9.01224
1.25786	9.45306
2.13836	9.94286
3.11321	10.4816
4.02516	10.8735
4.96855	11.2163
6.03774	11.5102
7.07547	11.6571
8.05031	11.8041
9.30818	11.902
10	12
