Adsorption isotherm of Nitrogen on Grafoil
DOI: 10.1016/0167-2584(93)90608-L
Adsorbate Nitrogen: InChIKey IJGRMHOSHXDMSA-UHFFFAOYSA-N
Temperature: 77 K
Tabular data in the source: 0
pressure (bar)	uptake (mmol adsorbed)
0.000238996	0.0163069
0.00107889	0.0280324
0.0019791	0.0362767
0.00287913	0.0468464
0.00359909	0.0562325
0.00431913	0.0644558
0.00503909	0.0738418
0.00527896	0.0785209
0.0058191	0.0832348
0.00629892	0.0914302
0.00683915	0.0949814
0.010139	0.137226
0.0110389	0.150121
0.011519	0.153665
0.0124191	0.164235
0.0130792	0.171288
0.0136192	0.177165
0.0145793	0.187742
0.0150593	0.193612
0.0155392	0.200644
0.0161391	0.208854
0.0166191	0.214723
0.0170991	0.220593
0.0175791	0.227626
0.0179987	0.236977
0.018479	0.239358
0.0189589	0.246391
0.0194389	0.252261
0.019979	0.258137
