Adsorption isotherm of N-Hexane on Grafoil
DOI: 10.1016/0167-2584(93)90608-L
Adsorbate N-Hexane: InChIKey VLKZOEOYAKHREP-UHFFFAOYSA-N
Temperature: 77 K
Tabular data in the source: 0
pressure (bar)	uptake (mmol adsorbed)
0.00169937	0.0126919
0.00267094	0.0207749
0.00352028	0.0265395
0.00455156	0.0334563
0.00582732	0.04501
0.00698014	0.0530825
0.00880245	0.0692556
0.0100171	0.0796501
0.0109289	0.0888994
0.0116582	0.0958338
0.0123867	0.101605
0.0134201	0.11201
0.0146972	0.12589
0.0159737	0.138606
0.0171307	0.153655
0.0180426	0.162904
0.0191378	0.175631
0.0199892	0.184884
