Adsorption isotherm of N-Hexane on Grafoil
DOI: 10.1016/0167-2584(93)90608-L
Adsorbate N-Hexane: InChIKey VLKZOEOYAKHREP-UHFFFAOYSA-N
Temperature: 77 K
Tabular data in the source: 0
pressure (bar)	uptake (mmol adsorbed)
0.00175838	0.0103629
0.0025466	0.0149682
0.003639	0.0230442
0.0050932	0.0299364
0.0061849	0.0368497
0.0072766	0.043763
0.00921834	0.0576035
0.0104323	0.0668353
0.0115851	0.0749078
0.0132852	0.0887624
0.0145602	0.0991534
0.0152894	0.106088
0.0162617	0.115334
0.0169909	0.122268
0.0178416	0.130358
0.0185104	0.137296
0.0192396	0.14423
0.0199681	0.150002
