Adsorption isotherm of Nitrogen on Grafoil
DOI: 10.1016/0167-2584(93)90608-L
Adsorbate Nitrogen: InChIKey IJGRMHOSHXDMSA-UHFFFAOYSA-N
Temperature: 77 K
Tabular data in the source: 0
pressure (bar)	uptake (mmol adsorbed)
0.000119062	0.0139673
0.000539007	0.0198301
0.00209859	0.0444301
0.00443854	0.073772
0.00557862	0.0866952
0.00647856	0.0984278
0.00701862	0.104305
0.00791848	0.1172
0.00905856	0.130123
0.00965849	0.138332
0.0101985	0.144209
0.0109185	0.153595
0.0113984	0.160628
0.0115783	0.164137
0.0120584	0.168844
0.0130786	0.178265
0.0135585	0.185298
0.0139785	0.19116
0.0143986	0.194698
0.0145786	0.197044
0.0151187	0.202921
0.0155987	0.208791
0.0161387	0.214667
0.0166187	0.220537
0.0168587	0.224053
0.0173387	0.229923
0.0178786	0.236963
0.0179986	0.239302
0.0184786	0.245172
0.0189585	0.252205
0.0194985	0.258081
