Adsorption isotherm of N-Hexane on Grafoil
DOI: 10.1016/0167-2584(93)90608-L
Adsorbate N-Hexane: InChIKey VLKZOEOYAKHREP-UHFFFAOYSA-N
Temperature: 77 K
Tabular data in the source: 0
pressure (bar)	uptake (mmol adsorbed)
0.00163755	0.0103699
0.00278826	0.0149542
0.00418415	0.0253381
0.00485153	0.0299505
0.00600225	0.0345347
0.00812664	0.0506903
0.00915722	0.0564443
0.0105545	0.0691538
0.0113434	0.0749218
0.0123761	0.0841641
0.0135901	0.0933959
0.0142588	0.100334
0.0149269	0.106109
0.0158381	0.114195
0.0166888	0.122285
0.0172972	0.129227
0.0180875	0.13732
0.0190598	0.146566
0.0200321	0.155812
