Adsorption isotherm of N-Hexane on Grafoil
DOI: 10.1016/0167-2584(93)90608-L
Adsorbate N-Hexane: InChIKey VLKZOEOYAKHREP-UHFFFAOYSA-N
Temperature: 77 K
Tabular data in the source: 0
pressure (bar)	uptake (mmol adsorbed)
0.000125047	0.306969
0.000149635	0.247666
0.000168602	0.37906
0.00017071	0.282548
0.00031613	0.423237
0.000340717	0.463934
0.000488245	0.508111
0.000498782	0.525552
0.000694782	0.54996
0.000949794	0.572038
0.0012048	0.594116
0.00163966	0.613858
0.00213212	0.628946
0.00292806	0.646341
0.00365938	0.656764
0.00432816	0.663702
0.00560463	0.676418
0.00651438	0.682179
0.0076679	0.691415
0.00815474	0.6972
0.00852215	0.705318
0.00883125	0.716928
0.0093188	0.723877
0.00998548	0.727326
0.0109549	0.731921
0.0119237	0.735353
0.0130133	0.738778
0.0142834	0.74103
0.0153723	0.743292
0.0165828	0.74671
0.0174904	0.748983
0.0186383	0.748916
0.0197265	0.750016
0.020089	0.749995
