Adsorption isotherm of N-Hexane on Grafoil
DOI: 10.1016/0167-2584(93)90608-L
Adsorbate N-Hexane: InChIKey VLKZOEOYAKHREP-UHFFFAOYSA-N
Temperature: 77 K
Tabular data in the source: 0
pressure (bar)	uptake (mmol adsorbed)
0.00646801	0.505438
0.00683402	0.511231
0.00756252	0.517002
0.00810907	0.521622
0.00841748	0.532069
0.00884601	0.541346
0.00945368	0.547125
0.00993911	0.550585
0.0106655	0.552868
0.0114523	0.555148
0.0120593	0.559764
0.0126037	0.560895
