Adsorption isotherm of N-Hexane on Grafoil
DOI: 10.1016/0167-2584(93)90608-L
Adsorbate N-Hexane: InChIKey VLKZOEOYAKHREP-UHFFFAOYSA-N
Temperature: 77 K
Tabular data in the source: 0
pressure (bar)	uptake (mmol adsorbed)
0.00570579	0.443854
0.00631205	0.447307
0.00704126	0.454242
0.00776906	0.458851
0.00819408	0.462314
0.00850178	0.471599
0.00892961	0.479713
0.00947686	0.485495
0.0100831	0.488949
0.0111741	0.494699
0.0119623	0.499304
0.0126894	0.502751
