Adsorption isotherm of Nitrogen on Grafoil
DOI: 10.1016/0167-2584(93)90608-L
Adsorbate Nitrogen: InChIKey IJGRMHOSHXDMSA-UHFFFAOYSA-N
Temperature: 77 K
Tabular data in the source: 0
pressure (bar)	uptake (mmol adsorbed)
0.00592306	0.298363
0.00646311	0.30424
0.00694311	0.31011
0.00730301	0.315966
0.00784315	0.32068
0.00826292	0.328868
0.0083825	0.335859
0.00862229	0.3417
0.00910229	0.34757
0.00940239	0.349931
0.00994253	0.354645
0.0103626	0.359345
0.0109027	0.364059
0.0118629	0.373473
0.0125831	0.37937
0.0131232	0.384084
