Adsorption isotherm of Nitrogen on Grafoil
DOI: 10.1016/0167-2584(93)90608-L
Adsorbate Nitrogen: InChIKey IJGRMHOSHXDMSA-UHFFFAOYSA-N
Temperature: 77 K
Tabular data in the source: 0
pressure (bar)	uptake (mmol adsorbed)
0.000719433	0.0163627
0.00203967	0.029307
0.00281951	0.0410256
0.0037796	0.0516023
0.00443959	0.0598186
0.00515981	0.0657163
0.00575983	0.0727628
0.00629997	0.0774768
0.0070201	0.0845373
0.00750028	0.0880815
0.00978052	0.112765
0.0103207	0.116316
0.0106208	0.11984
0.0111609	0.124554
0.0122409	0.13747
0.0132012	0.145721
0.0142213	0.156305
0.0150013	0.165698
0.0156614	0.172751
0.0161416	0.176296
0.0166216	0.182165
0.0171616	0.188042
0.0176416	0.193912
0.0183016	0.203291
0.0187816	0.207998
0.0192616	0.215031
0.0197416	0.219738
