Adsorption isotherm of Nitrogen on Grafoil
DOI: 10.1016/0167-2584(93)90608-L
Adsorbate Nitrogen: InChIKey IJGRMHOSHXDMSA-UHFFFAOYSA-N
Temperature: 77 K
Tabular data in the source: 0
pressure (bar)	uptake (mmol adsorbed)
0.0013803	0.0129512
0.00264039	0.0270512
0.00342067	0.0329559
0.00486111	0.0447513
0.00558141	0.0494863
0.00624166	0.0542142
0.0067818	0.0589282
0.00738209	0.0624864
0.00894255	0.0754585
0.00948278	0.0790097
0.0106831	0.0896144
0.0118234	0.0990493
0.0123636	0.103763
0.0142239	0.121422
0.0156043	0.13321
0.0165045	0.142617
0.0174646	0.152031
0.0180647	0.157915
0.0186048	0.163791
0.0198649	0.177891
