Adsorption isotherm of N-Hexane on Grafoil
DOI: 10.1016/0167-2584(93)90608-L
Adsorbate N-Hexane: InChIKey VLKZOEOYAKHREP-UHFFFAOYSA-N
Temperature: 77 K
Tabular data in the source: 0
pressure (bar)	uptake (mmol adsorbed)
0.00169937	0.0126919
0.00260983	0.0196157
0.0032175	0.0253943
0.00473351	0.0346085
0.00594675	0.0426775
0.00722251	0.0542312
0.00928648	0.0703903
0.0107428	0.0807707
0.0118352	0.0888467
0.0126262	0.0981031
0.013295	0.105041
0.0141457	0.113131
0.0150576	0.12238
0.0158479	0.130474
0.017064	0.143194
0.0180369	0.153602
0.0191315	0.165167
0.020044	0.175579
