Adsorption isotherm of N-Hexane on Grafoil
DOI: 10.1016/0167-2584(93)90608-L
Adsorbate N-Hexane: InChIKey VLKZOEOYAKHREP-UHFFFAOYSA-N
Temperature: 77 K
Tabular data in the source: 0
pressure (bar)	uptake (mmol adsorbed)
0.00587298	0.220589
0.0066619	0.226357
0.00732859	0.229806
0.00799667	0.235582
0.00854393	0.241364
0.0091523	0.248305
0.00969956	0.254087
0.0103065	0.258703
0.0110343	0.263312
0.0117621	0.267921
0.0124899	0.27253
