Adsorption isotherm of N-Hexane on Grafoil
DOI: 10.1016/0167-2584(93)90608-L
Adsorbate N-Hexane: InChIKey VLKZOEOYAKHREP-UHFFFAOYSA-N
Temperature: 77 K
Tabular data in the source: 0
pressure (bar)	uptake (mmol adsorbed)
0.000132072	0.118597
0.000207943	0.144174
0.000223398	0.169754
0.000429936	0.211603
0.000566223	0.237176
0.00100037	0.255756
0.00161577	0.274325
0.0024082	0.285906
0.00326175	0.298648
0.0041139	0.309063
0.00538966	0.320617
0.00648347	0.331018
0.00727238	0.336786
0.00812172	0.342551
0.00860996	0.350662
0.00909751	0.357611
0.00982671	0.364545
0.0108587	0.372624
0.0119504	0.379538
0.0133463	0.389922
0.0146192	0.396824
0.0157116	0.4049
0.016561	0.410665
0.017895	0.418727
0.0190486	0.427962
0.0200791	0.433716
