Adsorption isotherm of Nitrogen on Grafoil
DOI: 10.1016/0167-2584(93)90608-L
Adsorbate Nitrogen: InChIKey IJGRMHOSHXDMSA-UHFFFAOYSA-N
Temperature: 77 K
Tabular data in the source: 0
pressure (bar)	uptake (mmol adsorbed)
0.00590028	0.601849
0.00668055	0.607754
0.00728083	0.611312
0.00794109	0.61604
0.00818095	0.620719
0.00842047	0.630049
0.00866008	0.638216
0.00914008	0.644086
0.00974028	0.648807
0.0103406	0.652365
0.0108809	0.654754
0.0116013	0.658326
0.0123218	0.660735
