Adsorption isotherm of Nitrogen on Grafoil
DOI: 10.1016/0167-2584(93)90608-L
Adsorbate Nitrogen: InChIKey IJGRMHOSHXDMSA-UHFFFAOYSA-N
Temperature: 77 K
Tabular data in the source: 0
pressure (bar)	uptake (mmol adsorbed)
0.00608454	0.547219
0.00632459	0.549573
0.00680476	0.553117
0.00764518	0.557866
0.00818532	0.56258
0.00848507	0.569591
0.00884435	0.583587
0.00938432	0.590626
0.0101648	0.594205
0.0110051	0.600117
0.0117855	0.603696
0.0125061	0.604943
