Adsorption isotherm of Nitrogen on Grafoil
DOI: 10.1016/0167-2584(93)90608-L
Adsorbate Nitrogen: InChIKey IJGRMHOSHXDMSA-UHFFFAOYSA-N
Temperature: 77 K
Tabular data in the source: 0
pressure (bar)	uptake (mmol adsorbed)
0.000599062	0.0198371
0.00167865	0.0385673
0.00245857	0.0491231
0.00347854	0.0620324
0.00449851	0.0749417
0.00545842	0.0878441
0.00671826	0.105432
0.00749827	0.114825
0.00881807	0.133584
0.0101379	0.152342
0.0112178	0.166421
0.0123577	0.18167
0.0134377	0.194586
0.0142776	0.206311
0.0148776	0.214521
0.0158376	0.22626
0.0167975	0.239163
0.0181774	0.256765
0.0190772	0.270823
0.0198572	0.280216
