Adsorption isotherm of Nitrogen on Grafoil
DOI: 10.1016/0167-2584(93)90608-L
Adsorbate Nitrogen: InChIKey IJGRMHOSHXDMSA-UHFFFAOYSA-N
Temperature: 77 K
Tabular data in the source: 0
pressure (bar)	uptake (mmol adsorbed)
0.000174577	0.0744389
0.00023245	0.103515
0.000285521	0.196545
0.000289013	0.150034
0.000402401	0.239582
0.000639389	0.282632
0.00117665	0.325718
0.00231507	0.360734
0.00333451	0.38062
0.00447442	0.395869
0.00543433	0.408771
0.00651435	0.421688
0.00747444	0.432265
0.00831459	0.440502
0.00843409	0.448655
0.00885395	0.455681
0.00933386	0.462713
0.00981395	0.46742
0.010474	0.474474
0.0113144	0.480385
0.0126949	0.489848
0.0132351	0.4934
0.0137755	0.495788
0.0151561	0.504088
0.0159965	0.508837
0.0165367	0.512388
0.0179175	0.519525
0.0185179	0.521921
0.0199586	0.530228
