Adsorption isotherm of Nitrogen on Grafoil
DOI: 10.1016/0167-2584(93)90608-L
Adsorbate Nitrogen: InChIKey IJGRMHOSHXDMSA-UHFFFAOYSA-N
Temperature: 77 K
Tabular data in the source: 0
pressure (bar)	uptake (mmol adsorbed)
5.77e-05	0.0314021
0.000176149	0.0535089
0.000271904	0.377939
0.000276356	0.318637
0.000327332	0.439573
0.000503045	0.498896
0.000798866	0.558232
0.00127599	0.602474
0.00223459	0.632818
0.0031341	0.650364
0.00433397	0.666783
0.0056543	0.678565
0.00703485	0.688027
0.00769511	0.692755
0.00835536	0.697483
0.00859462	0.710302
0.00901421	0.720816
0.00943416	0.726678
0.00985437	0.729053
0.0104547	0.731448
0.0116555	0.736239
0.0129764	0.739881
0.0145376	0.743551
0.0157985	0.746023
0.0172397	0.748516
