Adsorption isotherm of Hydrogen on CuBTC
DOI: 10.1016/j.ijhydene.2010.07.089
Adsorbate Hydrogen: InChIKey UFHFLCQGNIYNRP-UHFFFAOYSA-N
Temperature: 77 K
Tabular data in the source: 0
pressure (bar)	uptake (wt%)
0.00676766	0.163366
0.0511353	0.564356
0.10244	0.831683
0.206881	1.16584
0.294249	1.35891
0.405656	1.50743
0.493071	1.61881
0.601073	1.72277
0.70224	1.78218
0.801683	1.85644
0.897708	1.90842
0.99716	1.96782
