Adsorption isotherm of Hydrogen on CuBTC
DOI: 10.1016/j.ijhydene.2010.07.089
Adsorbate Hydrogen: InChIKey UFHFLCQGNIYNRP-UHFFFAOYSA-N
Temperature: 77 K
Tabular data in the source: 0
pressure (bar)	uptake (wt%)
0.0135098	0.371287
0.100619	1.01733
0.201599	1.40347
0.299191	1.71535
0.398523	1.98267
0.496166	2.20545
0.598976	2.39109
0.698372	2.54703
0.799475	2.71782
0.900621	2.81436
0.996591	2.96287
