Adsorption isotherm of Hydrogen on CuBTC
DOI: 10.1016/j.ijhydene.2010.07.089
Adsorbate Hydrogen: InChIKey UFHFLCQGNIYNRP-UHFFFAOYSA-N
Temperature: 77 K
Tabular data in the source: 0
pressure (bar)	uptake (wt%)
0.0102364	0.0965347
0.0238736	0.24505
0.051233	0.393564
0.0768983	0.50495
0.100857	0.601485
0.126556	0.653465
0.153962	0.720297
0.177942	0.779703
0.203654	0.809406
0.231064	0.868812
0.255065	0.891089
0.280769	0.935644
0.31335	0.950495
0.333925	0.965347
0.357913	1.0099
0.380195	1.0396
0.405911	1.06188
0.428192	1.09158
0.457343	1.10644
0.483072	1.10644
0.507061	1.15099
0.534505	1.15099
0.560213	1.18812
0.587653	1.19554
0.609943	1.2104
0.633939	1.2401
0.657936	1.2698
0.688807	1.27723
0.714536	1.27723
0.736821	1.2995
0.760827	1.31436
0.781401	1.32921
0.813983	1.34406
0.836269	1.36634
0.863713	1.36634
0.891144	1.38861
0.911719	1.40347
0.934017	1.40347
0.963173	1.41089
0.988897	1.41832
1.01119	1.43317
