Adsorption isotherm of Hydrogen on CuBTC
DOI: 10.1016/j.ijhydene.2010.07.089
Adsorbate Hydrogen: InChIKey UFHFLCQGNIYNRP-UHFFFAOYSA-N
Temperature: 77 K
Tabular data in the source: 0
pressure (bar)	uptake (wt%)
4.38317	2.3717
11.5161	2.78499
12.5065	2.69491
16.4838	2.8114
19.3022	2.92775
20.7898	2.85062
25.5932	2.91567
30.7274	2.96788
31.7242	3.0711
36.0263	2.99433
43.6435	3.03397
48.447	3.09903
54.2413	3.08689
66.1614	3.07554
66.496	3.17867
77.0925	3.19292
81.7266	3.14198
87.3549	3.11693
