Adsorption isotherm of Hydrogen on CuBTC
DOI: 10.1016/j.ijhydene.2010.07.089
Adsorbate Hydrogen: InChIKey UFHFLCQGNIYNRP-UHFFFAOYSA-N
Temperature: 77 K
Tabular data in the source: 0
pressure (bar)	uptake (wt%)
1.9155	2.84818
2.25388	3.0673
3.09152	3.3638
3.25196	3.20918
3.92189	3.44123
4.41987	3.47995
4.91997	3.58311
5.91463	3.6219
6.57902	3.68641
7.40812	3.72518
11.0561	3.89318
14.535	3.95806
15.5297	3.99685
16.5231	3.99697
17.5165	3.9971
18.5115	4.04878
19.007	4.01018
20.3327	4.04901
24.8021	4.02381
25.9619	4.04974
26.9549	4.03698
28.2794	4.03715
30.0997	4.01161
36.0596	3.99949
37.5467	3.90948
39.7003	3.94841
41.8513	3.91003
44.8293	3.84598
45.6584	3.88475
46.6518	3.88488
47.8108	3.88503
48.8024	3.83361
49.9618	3.84664
50.9548	3.83389
