Adsorption isotherm of Hydrogen on CuBTC
DOI: 10.1016/j.ijhydene.2010.07.089
Adsorbate Hydrogen: InChIKey UFHFLCQGNIYNRP-UHFFFAOYSA-N
Temperature: 77 K
Tabular data in the source: 0
pressure (bar)	uptake (wt%)
0.00843198	0.252475
0.100763	0.764851
0.2001	1.02475
0.299471	1.22525
0.400578	1.38861
0.499979	1.53713
0.599388	1.67079
0.700516	1.79703
0.798227	1.90099
0.899377	1.9901
0.998807	2.08663
