Adsorption isotherm of Hydrogen on CuBTC
DOI: 10.1016/j.ijhydene.2010.07.089
Adsorbate Hydrogen: InChIKey UFHFLCQGNIYNRP-UHFFFAOYSA-N
Temperature: 77 K
Tabular data in the source: 0
pressure (bar)	uptake (wt%)
0.403241	2.17789
0.574779	2.35832
0.581606	2.56451
0.75101	2.68051
0.755277	2.80938
0.926388	2.97692
5.1201	4.62695
10.0998	5.01419
20.0366	5.10567
29.9683	5.04252
40.063	4.90207
49.9895	4.68428
60.0847	4.55671
70.1751	4.28739
80.1016	4.0696
90.0303	3.91624
100.124	3.73713
