Adsorption isotherm of Hydrogen on CuBTC
DOI: 10.1016/j.ijhydene.2010.07.089
Adsorbate Hydrogen: InChIKey UFHFLCQGNIYNRP-UHFFFAOYSA-N
Temperature: 77 K
Tabular data in the source: 0
pressure (bar)	uptake (wt%)
0.0118498	0.274752
0.0203964	0.326733
0.0306073	0.467822
0.0408352	0.579208
0.0527911	0.668317
0.0578775	0.772277
0.0749877	0.846535
0.0903614	0.957921
0.105744	1.05446
0.12797	1.18069
0.157066	1.29208
0.175891	1.36634
0.203255	1.50743
0.261502	1.63366
0.307742	1.7599
0.352279	1.86386
0.408828	1.9604
0.427683	1.98267
0.458524	2.04208
0.506517	2.10149
0.607641	2.23515
0.650489	2.29455
0.710489	2.35396
0.815065	2.4505
0.856215	2.4802
0.911065	2.54703
1.01566	2.61386
