Adsorption isotherm of Hydrogen on CuBTC
DOI: 10.1016/j.ijhydene.2010.07.089
Adsorbate Hydrogen: InChIKey UFHFLCQGNIYNRP-UHFFFAOYSA-N
Temperature: 77 K
Tabular data in the source: 0
pressure (bar)	uptake (wt%)
4.06996	2.9129
7.22506	3.19681
12.6938	3.35215
22.3024	3.5338
32.7321	3.50937
50.4512	3.62764
