Adsorption isotherm of Hydrogen on CuBTC
DOI: 10.1016/j.ijhydene.2010.07.089
Adsorbate Hydrogen: InChIKey UFHFLCQGNIYNRP-UHFFFAOYSA-N
Temperature: 77 K
Tabular data in the source: 0
pressure (bar)	uptake (wt%)
0.371238	1.21139
0.376785	1.37891
0.381906	1.53355
0.552163	1.67533
0.558564	1.86863
0.727541	1.97174
0.896518	2.07486
5.07785	3.35117
10.0597	3.80284
20.1697	4.12631
30.104	4.14048
40.2012	4.07735
49.9652	3.94974
60.0603	3.82217
70.1529	3.61729
80.0812	3.45104
90.1767	3.33636
100.104	3.14434
