Adsorption isotherm of Hydrogen on C2H3.25Ce0.17O3.12Zn0.25
DOI: 10.1016/j.ijhydene.2009.12.180
Adsorbate Hydrogen: InChIKey UFHFLCQGNIYNRP-UHFFFAOYSA-N
Temperature: 77 K
Tabular data in the source: 0
pressure (bar)	uptake (wt%)
0.231884	0.0896
0.811594	0.28
1.27536	0.42
1.97101	0.5936
2.89855	0.7224
3.71014	0.8064
4.63768	0.8904
5.7971	0.9464
8.11594	1.0136
10.3188	1.0584
12.4058	1.0976
14.4928	1.1368
16.4638	1.1704
18.7826	1.204
20.8696	1.2264
22.6087	1.2488
24.5797	1.2656
26.8986	1.288
29.3333	1.3048
30.9565	1.3104
32.3478	1.316
33.971	1.3328
35.4783	1.3328
