Adsorption isotherm of Hydrogen on C2H3.25Ce0.17O3.12Zn0.25
DOI: 10.1016/j.ijhydene.2009.12.180
Adsorbate Hydrogen: InChIKey UFHFLCQGNIYNRP-UHFFFAOYSA-N
Temperature: 298 K
Tabular data in the source: 0
pressure (bar)	uptake (wt%)
0.231884	0.056
0.811594	0.1568
1.27536	0.252
1.97101	0.3696
2.89855	0.4312
3.82609	0.4928
4.63768	0.532
5.91304	0.56
8.23188	0.6104
10.4348	0.6384
12.5217	0.6664
14.6087	0.7
16.6957	0.7224
19.0145	0.7392
20.9855	0.7672
22.9565	0.7728
24.8116	0.7896
27.2464	0.8064
29.5652	0.8288
31.0725	0.8288
32.2319	0.8344
34.087	0.8568
35.1304	0.8568
