Adsorption isotherm of Carbon Dioxide on CuBTC
DOI: 10.1021/La3009514
Adsorbate Carbon Dioxide: InChIKey CURLTUGMZLYLDI-UHFFFAOYSA-N
Temperature: 298 K
Tabular data in the source: 0
pressure (bar)	uptake (mmol/g)
0.105844	0.897552
0.312875	1.87282
0.469411	2.68746
0.691592	3.55947
0.898623	4.29379
0.989515	4.66095
1.22179	5.26906
1.44397	5.91159
1.64596	6.5197
1.82269	7.10486
1.97923	7.59823
2.3024	8.10308
2.50943	8.43582
2.84775	9.13572
3.12042	9.60614
3.4436	10.1454
3.77182	10.547
3.9233	10.742
4.35756	11.0633
4.58479	11.1895
4.92816	11.3157
