Adsorption isotherm of Carbon Dioxide on CuBTC
DOI: 10.1021/La3009514
Adsorbate Carbon Dioxide: InChIKey CURLTUGMZLYLDI-UHFFFAOYSA-N
Temperature: 298 K
Tabular data in the source: 0
pressure (bar)	uptake (molecules/unitcell)
0.0482139	0.375733
0.105955	0.706541
0.199303	1.27794
0.298425	2.05985
0.394661	2.72147
0.49667	3.29286
0.596754	3.89433
0.800773	4.85668
0.992281	5.81903
1.19149	6.81146
1.38877	7.68359
1.58605	8.4655
