Adsorption isotherm of Carbon Dioxide on CuBTC
DOI: 10.1021/La3009514
Adsorbate Carbon Dioxide: InChIKey CURLTUGMZLYLDI-UHFFFAOYSA-N
Temperature: 298 K
Tabular data in the source: 0
pressure (bar)	uptake (mmol/g)
0.100794	0.610708
0.413866	1.5745
0.696641	2.42356
0.974366	3.22673
1.1915	3.70863
1.45912	4.3741
1.6914	4.99369
1.80754	5.37232
2.11051	6.26728
2.39329	7.04749
2.62052	7.63266
2.8326	8.06866
2.98914	8.41287
3.29716	8.90624
3.53449	9.2734
3.76172	9.65204
3.9536	9.9733
4.24142	10.2143
4.48885	10.4208
4.80697	10.6503
4.94836	10.7306
