Adsorption isotherm of Nitrogen on CuBTC
DOI: 10.1021/La3009514
Adsorbate Nitrogen: InChIKey IJGRMHOSHXDMSA-UHFFFAOYSA-N
Temperature: 298 K
Tabular data in the source: 0
pressure (bar)	uptake (molecules/unitcell)
0.100181	0.285513
0.196416	0.315586
0.30035	0.676468
0.394661	0.886982
0.495707	1.12757
0.59483	1.30801
0.795961	1.72904
0.995168	2.12
1.1886	2.60117
1.38781	2.93198
1.58605	3.26279
