Adsorption isotherm of Carbon Dioxide on CuBTC
DOI: 10.1021/La3009514
Adsorbate Carbon Dioxide: InChIKey CURLTUGMZLYLDI-UHFFFAOYSA-N
Temperature: 298 K
Tabular data in the source: 0
pressure (bar)	uptake (mmol/g)
0.0441221	0.698311
0.101774	1.57338
0.198958	2.96319
0.294495	4.30153
0.388384	5.48545
0.495452	6.87527
0.59593	7.75033
0.788651	9.91227
0.992902	11.9198
1.19221	13.5155
1.38823	15.523
1.58589	16.9128
