Adsorption isotherm of Carbon Dioxide on CuBTC
DOI: 10.1021/La3009514
Adsorbate Carbon Dioxide: InChIKey CURLTUGMZLYLDI-UHFFFAOYSA-N
Temperature: 298 K
Tabular data in the source: 0
pressure (bar)	uptake (molecules/unitcell)
0.0484562	1.58286
0.106734	2.67558
0.203865	4.49677
0.299053	5.95373
0.400068	7.77492
0.501084	8.68552
0.598214	9.96036
0.80413	12.1458
0.996449	14.8776
1.20625	16.8809
1.4044	18.8842
1.6006	19.4306
