Adsorption isotherm of Carbon Dioxide on CuBTC
DOI: 10.1021/La3009514
Adsorbate Carbon Dioxide: InChIKey CURLTUGMZLYLDI-UHFFFAOYSA-N
Temperature: 298 K
Tabular data in the source: 0
pressure (bar)	uptake (mmol/g)
0.115943	1.28766
0.267429	2.17114
0.378519	2.77925
0.48456	3.34147
0.666344	4.09873
0.792582	4.55768
0.939019	5.18874
0.989515	5.40674
1.24199	6.14107
1.51972	6.90981
1.75705	7.57529
1.97923	8.14897
2.32765	8.5735
2.63062	8.99803
2.94369	9.39962
3.27696	9.87004
3.52439	10.2372
3.78696	10.4093
4.15053	10.5929
4.38786	10.742
4.5141	10.7994
4.94836	11.2125
