Adsorption isotherm of Carbon Dioxide on CuBTC
DOI: 10.1021/La3009514
Adsorbate Carbon Dioxide: InChIKey CURLTUGMZLYLDI-UHFFFAOYSA-N
Temperature: 298 K
Tabular data in the source: 0
pressure (bar)	uptake (mmol/g)
0.105844	1.60893
0.232083	2.41209
0.333074	3.07757
0.418916	3.63978
0.48456	4.08726
0.625947	4.71832
0.827929	5.54443
0.954168	6.04927
1.01476	6.27875
1.1511	6.60002
1.40358	7.26549
1.76715	7.99982
1.95398	8.37845
2.36804	8.92919
2.62052	9.21604
2.88815	9.49141
3.09013	9.65204
3.42845	9.84709
3.52944	9.90446
3.81726	10.2831
3.92835	10.4552
4.23637	10.5355
4.51915	10.6388
4.89282	10.765
4.94331	10.7879
