Adsorption isotherm of Nitrogen on CuBTC
DOI: 10.1021/La3009514
Adsorbate Nitrogen: InChIKey IJGRMHOSHXDMSA-UHFFFAOYSA-N
Temperature: 298 K
Tabular data in the source: 0
pressure (bar)	uptake (molecules/unitcell)
0.0484562	0.490146
0.100907	0.490146
0.201922	0.490146
0.302938	0.490146
0.400068	1.0365
0.501084	1.21862
0.605985	1.21862
0.80413	1.21862
1.00228	1.0365
1.20431	1.9471
1.4044	1.9471
1.60448	1.9471
