Adsorption isotherm of Carbon Dioxide on CuBTC
DOI: 10.1021/La3009514
Adsorbate Carbon Dioxide: InChIKey CURLTUGMZLYLDI-UHFFFAOYSA-N
Temperature: 298 K
Tabular data in the source: 0
pressure (bar)	uptake (mmol/g)
0.110893	0.450075
0.418916	1.37945
0.681492	2.04493
0.974366	2.73336
1.27229	3.47915
1.51972	4.02989
1.7217	4.56916
2.02972	5.30348
2.32765	5.99191
2.55487	6.54265
2.8427	7.23107
3.13052	7.88508
3.38805	8.42435
3.71122	9.07835
3.9536	9.52583
4.33737	10.0077
4.63024	10.4208
4.95341	10.9142
