Adsorption isotherm of Nitrogen on CuBTC
DOI: 10.1021/La3009514
Adsorbate Nitrogen: InChIKey IJGRMHOSHXDMSA-UHFFFAOYSA-N
Temperature: 298 K
Tabular data in the source: 0
pressure (bar)	uptake (molecules/unitcell)
0.052358	0.13209
0.101774	0.286514
0.200605	0.492412
0.301083	0.80126
0.398268	0.955684
0.498746	1.21306
0.597577	1.36748
0.79524	1.83075
0.992902	2.08813
1.19221	2.44845
1.38987	2.80877
1.58589	3.16909
