Adsorption isotherm of Carbon Dioxide on CuBTC
DOI: 10.1021/La3009514
Adsorbate Carbon Dioxide: InChIKey CURLTUGMZLYLDI-UHFFFAOYSA-N
Temperature: 298 K
Tabular data in the source: 0
pressure (bar)	uptake (mmol/g)
0.105844	0.691025
0.287628	1.45977
0.444164	2.18261
0.499709	2.38914
0.742087	3.04315
0.93397	3.54799
1.16625	4.12168
1.38338	4.6839
1.6611	5.41822
1.88328	6.06075
2.12061	6.70328
2.39329	7.42613
2.58517	7.9195
2.8629	8.55056
3.03458	8.92919
3.33755	9.44551
3.56983	9.8012
3.9233	10.2487
4.27172	10.6847
4.63024	11.0977
4.94836	11.4534
