Adsorption isotherm of Water on CuBTC
DOI: 10.1021/La3009514
Adsorbate Water: InChIKey XLYOFNOQVPJJNP-UHFFFAOYSA-N
Temperature: 298 K
Tabular data in the source: 0
pressure (bar)	uptake (molecules/unitcell)
0.0465136	46.2021
0.104792	54.2154
0.198037	62.2286
0.300995	66.5995
0.39424	69.5134
0.503026	73.5201
0.604042	77.5267
0.800245	82.626
1.00422	88.2717
1.20042	105.209
1.40051	127.427
1.60448	146.732
