Adsorption isotherm of Nitrogen on Int-SWCNT
DOI: 10.1007/s10450-011-9358-y
Adsorbate Nitrogen: InChIKey IJGRMHOSHXDMSA-UHFFFAOYSA-N
Temperature: 77 K
Tabular data in the source: 0
pressure (bar)	uptake (mmol/g)
0.00564303	5.13841
0.0171734	8.21858
0.0578614	9.2323
0.121773	11.6086
0.182811	12.9579
0.238019	14.6518
0.29616	15.6594
0.345598	15.9847
0.397932	16.6516
0.453199	16.6321
0.496819	16.9594
0.656802	16.903
0.688798	16.8917
0.744042	17.5576
0.77313	17.5473
0.802218	17.5371
0.831305	17.5268
0.86037	18.2019
0.886526	18.8781
0.91267	19.897
