Adsorption isotherm of Hydrogen on Oxidized-SWCNT
DOI: 10.1007/s10450-011-9358-y
Adsorbate Hydrogen: InChIKey UFHFLCQGNIYNRP-UHFFFAOYSA-N
Temperature: 77 K
Tabular data in the source: 0
pressure (bar)	uptake (mmol/g)
0.013986	0.266505
0.041958	0.723522
0.0664336	1.06642
0.0804196	1.25693
0.0979021	1.44757
0.122378	1.71448
0.143357	1.98125
0.171329	2.24828
0.195804	2.47719
0.223776	2.74423
0.248252	2.97313
0.276224	3.20217
0.304196	3.43121
0.332168	3.66025
0.36014	3.8513
0.388112	4.08034
0.416084	4.30938
0.444056	4.53842
0.472028	4.72946
0.503497	4.95863
0.531469	5.14968
0.562937	5.34086
0.594406	5.53203
0.622378	5.72308
0.653846	5.87626
0.688811	6.02957
0.72028	6.18275
0.751748	6.37393
0.783217	6.52711
0.814685	6.68029
0.846154	6.87146
0.877622	7.02464
0.909091	7.17782
0.940559	7.369
0.968531	7.59804
0.996503	7.78908
