Adsorption isotherm of Nitrogen on SWCNT
DOI: 10.1007/s10450-011-9358-y
Adsorbate Nitrogen: InChIKey IJGRMHOSHXDMSA-UHFFFAOYSA-N
Temperature: 77 K
Tabular data in the source: 0
pressure (bar)	uptake (mmol/g)
0.0112977	9.93412
0.025795	11.2998
0.049042	11.977
0.0781065	12.6521
0.101353	13.3293
0.127509	14.0054
0.147847	14.6837
0.174015	15.0171
0.197262	15.6943
0.223429	16.0278
0.246688	16.3623
0.272832	17.3811
0.293181	17.7166
0.319337	18.3928
0.342596	18.7273
0.38909	20.0816
0.438504	21.0923
0.484998	22.4467
0.531503	23.4583
0.580894	25.1544
0.633194	26.8494
0.682585	28.5454
0.726147	30.5862
0.772606	32.9687
0.821927	36.7209
0.868258	42.8731
0.917254	56.2208
