Adsorption isotherm of Hydrogen on Toluene-SWCNT
DOI: 10.1007/s10450-011-9358-y
Adsorbate Hydrogen: InChIKey UFHFLCQGNIYNRP-UHFFFAOYSA-N
Temperature: 77 K
Tabular data in the source: 0
pressure (bar)	uptake (mmol/g)
0.0734266	0.876702
0.122378	1.25852
0.171329	1.56435
0.213287	1.83192
0.251748	2.06136
0.286713	2.21467
0.325175	2.40611
0.363636	2.55956
0.440559	2.86645
0.461538	2.94324
0.496503	3.05856
0.527972	3.17374
0.559441	3.32692
0.594406	3.40425
0.625874	3.51943
0.660839	3.63475
0.692308	3.74993
0.727273	3.82725
0.758741	3.98043
0.793706	4.05775
0.825175	4.17294
0.86014	4.28825
0.891608	4.36544
0.926573	4.44276
0.958042	4.55795
0.993007	4.67326
