Adsorption isotherm of Hydrogen on Methanol-SWCNT
DOI: 10.1007/s10450-011-9358-y
Adsorbate Hydrogen: InChIKey UFHFLCQGNIYNRP-UHFFFAOYSA-N
Temperature: 77 K
Tabular data in the source: 0
pressure (bar)	uptake (mmol/g)
0.027972	0.419021
0.0629371	0.838307
0.0769231	1.02882
0.0979021	1.2196
0.122378	1.41051
0.157343	1.63981
0.195804	1.86925
0.22028	2.06016
0.248252	2.25121
0.283217	2.40452
0.325175	2.63409
0.384615	2.94032
0.433566	3.17016
0.468531	3.36147
0.51049	3.55304
0.538462	3.66809
0.58042	3.82167
0.629371	4.05151
0.667832	4.24295
0.706294	4.3964
0.741259	4.54971
0.77972	4.70316
0.835664	4.97126
0.870629	5.08657
0.91958	5.27841
0.951049	5.46959
0.972028	5.54638
1	5.69943
