Adsorption isotherm of Hydrogen on SWCNT
DOI: 10.1007/s10450-011-9358-y
Adsorbate Hydrogen: InChIKey UFHFLCQGNIYNRP-UHFFFAOYSA-N
Temperature: 77 K
Tabular data in the source: 0
pressure (bar)	uptake (mmol/g)
0.0314685	0.305165
0.0699301	0.686588
0.104895	0.991886
0.146853	1.25945
0.174825	1.48849
0.213287	1.71793
0.248252	1.90924
0.283217	2.06256
0.325175	2.21613
0.370629	2.44584
0.405594	2.56116
0.433566	2.67621
0.465035	2.75339
0.496503	2.83058
0.531469	2.9079
0.566434	2.98522
0.597902	3.06241
0.632867	3.10174
0.667832	3.17906
0.699301	3.25625
0.734266	3.33357
0.765734	3.44875
0.800699	3.52607
0.832168	3.60326
0.867133	3.68058
0.902098	3.71991
0.933566	3.7591
0.968531	3.87441
0.996503	3.87548
