Adsorption isotherm of Nitrogen on Toluene-SWCNT
DOI: 10.1007/s10450-011-9358-y
Adsorbate Nitrogen: InChIKey IJGRMHOSHXDMSA-UHFFFAOYSA-N
Temperature: 77 K
Tabular data in the source: 0
pressure (bar)	uptake (mmol/g)
0.00863325	2.7385
0.0230492	6.50304
0.0433873	7.18125
0.0753606	7.85536
0.104425	8.53049
0.127672	9.20768
0.150931	9.54217
0.174189	9.87666
0.197448	10.2111
0.220706	10.5456
0.246862	11.2218
0.273029	11.5553
0.296288	11.8897
0.316638	12.2253
0.345702	12.9004
0.39222	13.5694
0.435816	14.5821
0.485231	15.5927
0.537577	15.917
0.581162	17.2724
0.630576	18.283
0.682876	19.978
0.726461	21.3334
0.772955	22.6878
0.822358	24.0411
0.877555	26.0778
0.921128	27.7759
0.953078	29.1354
