Adsorption isotherm of Nitrogen on Oxidized-SWCNT
DOI: 10.1007/s10450-011-9358-y
Adsorbate Nitrogen: InChIKey IJGRMHOSHXDMSA-UHFFFAOYSA-N
Temperature: 77 K
Tabular data in the source: 0
pressure (bar)	uptake (mmol/g)
0.00247828	12.6788
0.00255972	10.2799
0.00529397	15.4193
0.00813294	17.4745
0.0284013	20.2089
0.051625	21.5715
0.0777691	22.5903
0.098084	23.9539
0.124228	24.9728
0.150361	26.3343
0.170687	27.3552
0.193911	28.7178
0.220043	30.0794
0.24329	30.7566
0.266514	32.1191
0.292658	33.138
0.315905	33.8152
0.342049	34.834
0.365296	35.5112
0.391452	36.1874
0.432116	37.8865
0.487348	38.8951
0.53383	40.5922
0.58613	42.2872
0.629715	43.6426
0.676186	45.6824
0.725565	47.7211
0.77491	50.7879
0.82422	54.8829
0.870539	61.3777
0.916556	76.7827
