Adsorption isotherm of Nitrogen on Methanol-SWCNT
DOI: 10.1007/s10450-011-9358-y
Adsorbate Nitrogen: InChIKey IJGRMHOSHXDMSA-UHFFFAOYSA-N
Temperature: 77 K
Tabular data in the source: 0
pressure (bar)	uptake (mmol/g)
0.00573611	2.39683
0.0114839	4.45096
0.0317755	6.49996
0.0550224	7.17715
0.0986308	7.84715
0.133501	8.86293
0.180018	9.53191
0.217809	10.204
0.258509	10.875
0.290494	11.2064
0.31957	11.5388
0.345737	11.8723
0.395163	12.5403
0.441669	13.5519
0.482368	14.223
0.534691	15.2326
0.581209	15.9016
0.633543	16.5685
0.680002	18.951
0.723599	19.9637
0.781728	21.3139
0.825313	22.6693
0.863058	24.7122
0.918208	28.1196
0.9385	30.1686
0.955941	30.5052
