Adsorption isotherm of Hydrogen on Int-SWCNT
DOI: 10.1007/s10450-011-9358-y
Adsorbate Hydrogen: InChIKey UFHFLCQGNIYNRP-UHFFFAOYSA-N
Temperature: 77 K
Tabular data in the source: 0
pressure (bar)	uptake (mmol/g)
0.013986	0.0765238
0.0454545	0.2677
0.0944056	0.459541
0.132867	0.650984
0.174825	0.766566
0.199301	0.843489
0.22028	0.920278
0.251748	1.07346
0.286713	1.18878
0.328671	1.30436
0.374126	1.53406
0.416084	1.68764
0.458042	1.84122
0.496503	2.07066
0.538462	2.26223
0.576923	2.41568
0.618881	2.56926
0.667832	2.7231
0.699301	2.80029
0.737762	2.91574
0.783217	3.03146
0.821678	3.10891
0.863636	3.30049
0.916084	3.49246
0.958042	3.72203
0.982517	3.83695
1	3.91361
