Adsorption isotherm of Nitrogen on Si450-KCN-H8
DOI: 10.1039/B811034d
Adsorbate Nitrogen: InChIKey IJGRMHOSHXDMSA-UHFFFAOYSA-N
Temperature: 77 K
Tabular data in the source: 0
pressure (bar)	uptake (mmol/g)
0.0236738	0.0586791
0.0586318	0.0805278
0.167876	0.0980068
0.329556	0.115486
0.521825	0.128595
0.716279	0.148259
0.816783	0.167923
0.893254	0.222545
0.943506	0.320864
0.967539	0.467251
0.982834	0.705402
0.991573	0.919519
