Adsorption isotherm of Nitrogen on Si450-KCN-H4
DOI: 10.1039/B811034d
Adsorbate Nitrogen: InChIKey IJGRMHOSHXDMSA-UHFFFAOYSA-N
Temperature: 77 K
Tabular data in the source: 0
pressure (bar)	uptake (mmol/g)
0.0193041	0.0456949
0.0520772	0.0561823
0.154766	0.0679806
0.364514	0.078468
0.611405	0.0863335
0.768716	0.102065
0.867035	0.125661
0.923842	0.164989
0.952245	0.238401
0.971909	0.397023
0.980649	0.56351
