Adsorption isotherm of Nitrogen on Si450
DOI: 10.1039/B811034d
Adsorbate Nitrogen: InChIKey IJGRMHOSHXDMSA-UHFFFAOYSA-N
Temperature: 77 K
Tabular data in the source: 0
pressure (bar)	uptake (mmol/g)
0.0171192	0.0468185
0.0586318	0.0588354
0.126363	0.0642975
0.410397	0.0719446
0.685691	0.0806841
0.792749	0.0927009
0.888884	0.118919
0.945691	0.170264
0.976279	0.267491
0.993758	0.45539
