Adsorption isotherm of Nitrogen on Si450-KOH-H4
DOI: 10.1039/B811034d
Adsorbate Nitrogen: InChIKey IJGRMHOSHXDMSA-UHFFFAOYSA-N
Temperature: 77 K
Tabular data in the source: 0
pressure (bar)	uptake (mmol/g)
0.0127495	0.0483167
0.0389679	0.060115
0.0870352	0.0666697
0.235607	0.0745352
0.504346	0.0810898
0.740312	0.09551
0.816783	0.111241
0.880144	0.13746
0.930396	0.175476
0.967539	0.268552
0.978464	0.39309
0.993758	0.572686
