Adsorption isotherm of Nitrogen on Si450-KOH-H8
DOI: 10.1039/B811034d
Adsorbate Nitrogen: InChIKey IJGRMHOSHXDMSA-UHFFFAOYSA-N
Temperature: 77 K
Tabular data in the source: 0
pressure (bar)	uptake (mmol/g)
0.0193041	0.052187
0.0520772	0.0644223
0.111069	0.0766576
0.333926	0.0941366
0.611405	0.101128
0.803674	0.127347
0.886699	0.157061
0.926027	0.197263
0.947875	0.251447
0.967539	0.337095
0.976279	0.522372
0.985018	0.705901
