Adsorption isotherm of Carbon Dioxide on Carbon
DOI: 10.1016/j.fluid.2010.01.016
Adsorbate Carbon Dioxide: InChIKey CURLTUGMZLYLDI-UHFFFAOYSA-N
Temperature: 313 K
Tabular data in the source: 0
pressure (bar)	uptake (mmol/g)
0.000958	0.337588
0.00590621	0.547819
0.0162032	0.830987
0.0287885	1.02835
0.0482384	1.26861
0.094003	1.53033
0.158073	1.77917
0.227864	1.95079
0.327402	2.13099
0.462408	2.34122
0.599702	2.49138
0.727842	2.60293
0.862848	2.74452
0.929207	2.82604
0.994421	2.8861
