Adsorption isotherm of Carbon Dioxide on Carbon
DOI: 10.1016/j.fluid.2010.01.016
Adsorbate Carbon Dioxide: InChIKey CURLTUGMZLYLDI-UHFFFAOYSA-N
Temperature: 273 K
Tabular data in the source: 0
pressure (bar)	uptake (mmol/g)
0.00132975	1.15277
0.00247386	1.37587
0.00324671	0.646499
0.0265003	1.92076
0.0516708	2.22967
0.094003	2.54287
0.163794	2.80887
0.264476	3.08775
0.405202	3.33231
0.526478	3.52967
0.663772	3.71845
0.798778	3.89006
0.932639	4.04023
0.998998	4.12604
