Adsorption isotherm of Carbon Dioxide on Carbon
DOI: 10.1016/j.fluid.2010.01.016
Adsorbate Carbon Dioxide: InChIKey CURLTUGMZLYLDI-UHFFFAOYSA-N
Temperature: 333 K
Tabular data in the source: 0
pressure (bar)	uptake (mmol/g)
0.00361798	0.153099
0.0150591	0.466301
0.0265003	0.625046
0.0528149	0.822406
0.0962912	1.03693
0.163794	1.25574
0.263332	1.48742
0.393761	1.73627
0.528767	1.86069
0.597413	2.00656
0.664916	2.05376
0.794201	2.25112
0.930351	2.35838
0.995565	2.44419
