Adsorption isotherm of Argon on Pbcn-Na4
DOI: 10.1021/La9912500
Adsorbate Argon: InChIKey XKRFYHLGVUSROY-UHFFFAOYSA-N
Temperature: 87 K
Tabular data in the source: 0
pressure (bar)	uptake (molecules/unitcell)
1e-08	0.390954
3e-08	1.098
9.81e-08	2.15857
3.02e-07	3.12272
9.87e-07	3.6048
3.23e-06	4.0226
1.02e-05	5.21172
2.21e-05	8.71481
3.06e-05	10.2575
9.42e-05	11.6715
0.000327	12.0893
0.000977	12.7
0.00300766	14.1462
0.0101228	15.5282
0.0172463	16.2031
0.0311748	16.878
0.0932079	17.585
0.295674	18.035
