Adsorption isotherm of Argon on Na600
DOI: 10.1021/La9912500
Adsorbate Argon: InChIKey XKRFYHLGVUSROY-UHFFFAOYSA-N
Temperature: 296 K
Tabular data in the source: 0
pressure (bar)	uptake (molecules/unitcell)
0.0765235	0.0499371
0.105061	0.0674161
0.157912	0.119853
0.213555	0.17229
0.252121	0.224727
0.356752	0.277164
0.440688	0.364559
0.569586	0.434475
0.758747	0.609265
0.909395	0.69666
1.17539	0.906408
1.45193	1.09868
1.71414	1.22103
2.02371	1.46574
2.49984	1.67548
3.04174	1.93767
3.64567	2.28725
4.43596	2.67179
5.64757	3.05632
6.97632	3.54574
8.6177	4.01767
10.174	4.41968
12.0114	4.71683
13.5528	4.97901
15.5246	5.18876
