Adsorption isotherm of Argon on Cmcm-Na0
DOI: 10.1021/La9912500
Adsorbate Argon: InChIKey XKRFYHLGVUSROY-UHFFFAOYSA-N
Temperature: 87 K
Tabular data in the source: 0
pressure (bar)	uptake (molecules/unitcell)
1.03e-08	0.0695691
3.59e-08	0.45523
1.01e-07	1.00158
3.5e-07	2.25498
1.05e-06	3.41197
3.32e-06	4.34398
1.12e-05	6.07946
3.44e-05	9.48613
0.000109	17.8743
0.000347	19.3526
0.00113241	19.8026
0.00348743	19.9311
0.0113952	19.9954
0.0340698	20.0275
0.108076	19.9954
