Adsorption isotherm of Methane on Pbcn-Na0
DOI: 10.1021/La9912500
Adsorbate Methane: InChIKey VNWKTOKETHGBQD-UHFFFAOYSA-N
Temperature: 296 K
Tabular data in the source: 0
pressure (bar)	uptake (molecules/unitcell)
0.051067	0.0886951
0.0738571	0.0886951
0.102871	0.101777
0.16285	0.167186
0.240908	0.219513
0.318315	0.27184
0.470891	0.454984
0.686187	0.664293
1.01509	0.873601
1.49038	1.33146
2.20476	1.78932
2.74286	2.03788
3.18869	2.2341
4.54279	2.87511
6.13961	3.41146
8.36043	4.02631
9.94143	4.36643
12.275	4.64115
16.4653	5.13825
20.4838	5.47838
