Adsorption isotherm of Argon on Cmcm-Na8
DOI: 10.1021/La9912500
Adsorbate Argon: InChIKey XKRFYHLGVUSROY-UHFFFAOYSA-N
Temperature: 87 K
Tabular data in the source: 0
pressure (bar)	uptake (molecules/unitcell)
1.07e-08	2.57637
3.48e-08	3.47624
1.01e-07	3.79763
3.5e-07	4.08687
1.05e-06	4.24757
3.04e-06	5.24386
5.5e-06	6.46512
1.02e-05	9.61469
1.8e-05	11.9608
3.15e-05	14.4997
0.000106	15.6246
0.000327	15.9138
0.00100596	16.1067
0.0031911	16.3316
0.0104269	16.6209
0.0311748	17.0708
0.0932079	17.4243
0.313706	18.3563
