Adsorption isotherm of Argon on Pbcn-Na0
DOI: 10.1021/La9912500
Adsorbate Argon: InChIKey XKRFYHLGVUSROY-UHFFFAOYSA-N
Temperature: 87 K
Tabular data in the source: 0
pressure (bar)	uptake (molecules/unitcell)
1.13e-08	0.101708
3.69e-08	0.230261
1.14e-07	0.87303
3.21e-07	1.90146
1.08e-06	3.15486
3.32e-06	3.89404
1.12e-05	4.92247
3.25e-05	9.58255
0.000327	12.1858
0.00100596	12.7643
0.00338572	14.2426
0.0101228	15.721
0.0330761	17.2958
0.0960082	18.0671
0.313706	18.967
