Adsorption isotherm of Methane on Pbcn-Na4
DOI: 10.1021/La9912500
Adsorbate Methane: InChIKey VNWKTOKETHGBQD-UHFFFAOYSA-N
Temperature: 296 K
Tabular data in the source: 0
pressure (bar)	uptake (molecules/unitcell)
0.051842	0.12794
0.102871	0.154104
0.17427	0.298003
0.235527	0.337249
0.323146	0.454984
0.478037	0.638129
0.681039	0.899764
1.0305	1.20064
1.513	1.71083
2.22142	2.2341
3.23708	2.75737
4.7171	3.47687
7.30064	4.23561
10.1686	4.81121
14.0569	5.30832
20.9519	5.79234
