Adsorption isotherm of Argon on Na640
DOI: 10.1021/La9912500
Adsorbate Argon: InChIKey XKRFYHLGVUSROY-UHFFFAOYSA-N
Temperature: 87 K
Tabular data in the source: 0
pressure (bar)	uptake (molecules/unitcell)
9.87e-07	0.230261
1.25e-06	0.712338
2.13e-06	1.32297
2.87e-06	1.86932
4.09e-06	2.41568
5.5e-06	2.80134
7.61e-06	3.54052
9.09e-06	3.99046
1.22e-05	4.63323
1.55e-05	5.21172
2.02e-05	5.66166
2.56e-05	6.24015
3.06e-05	6.85078
4.11e-05	7.49355
5.87e-05	8.13632
8.62e-05	8.8755
0.000127	9.38972
0.000175	9.87179
0.000273	10.2896
0.000426	10.611
0.00059	10.9002
0.000977	11.318
0.00161535	11.768
0.00251824	12.2179
0.00482965	12.5071
0.00926261	12.8285
0.0285258	13.2142
0.0653414	13.4713
0.101864	13.6963
0.195361	13.8891
0.323131	13.9855
0.397527	14.1141
