Adsorption isotherm of Methane on Cmcm-Na8
DOI: 10.1021/La9912500
Adsorbate Methane: InChIKey VNWKTOKETHGBQD-UHFFFAOYSA-N
Temperature: 296 K
Tabular data in the source: 0
pressure (bar)	uptake (molecules/unitcell)
0.00967858	0.0149791
0.0314103	0.17229
0.0959652	0.504391
0.220099	1.11616
0.320984	1.46574
0.497242	2.06002
0.793891	2.70674
1.0417	3.17868
1.21141	3.37095
1.68846	3.94775
2.31814	4.4896
3.28016	5.03145
3.7574	5.25868
5.73346	5.85296
8.23621	6.32489
10.3287	6.60456
13.7589	7.00658
19.4689	7.35616
24.7865	7.58338
