Adsorption isotherm of Argon on Cmcm-Na8
DOI: 10.1021/La9912500
Adsorbate Argon: InChIKey XKRFYHLGVUSROY-UHFFFAOYSA-N
Temperature: 296 K
Tabular data in the source: 0
pressure (bar)	uptake (molecules/unitcell)
0.0102809	0.0149791
0.059206	0.0499371
0.106659	0.102374
0.180887	0.277164
0.325865	0.451954
0.569586	0.836492
1.0261	1.36086
1.79354	2.14742
3.23103	3.10876
5.56298	4.33229
10.174	5.66069
18.0538	7.02405
