Adsorption isotherm of Ethane on Pbcn-Na0
DOI: 10.1021/La9912500
Adsorbate Ethane: InChIKey OTMSDBZUPAUEDD-UHFFFAOYSA-N
Temperature: 296 K
Tabular data in the source: 0
pressure (bar)	uptake (molecules/unitcell)
0.00322631	0.0149723
0.00618764	0.0278277
0.0102345	0.0535384
0.0214512	0.194948
0.0319888	0.27208
0.0631935	0.60632
0.102988	0.901993
0.162946	1.51905
0.250292	2.04612
0.326697	2.32894
0.516897	3.29309
0.664775	3.79445
0.867707	4.34723
1.00612	4.65576
1.41412	5.13141
2.40926	5.76133
3.053	6.14699
4.62064	6.31411
7.41972	6.58407
9.6847	6.75119
