Adsorption isotherm of Argon on Pbcn-Na8
DOI: 10.1021/La9912500
Adsorbate Argon: InChIKey XKRFYHLGVUSROY-UHFFFAOYSA-N
Temperature: 296 K
Tabular data in the source: 0
pressure (bar)	uptake (molecules/unitcell)
0.0102809	0.0324581
0.0185208	0.0149791
0.0328652	0.0149791
0.059206	0.0499371
0.101937	0.0848951
0.183638	0.154811
0.325865	0.34708
0.569586	0.539349
1.0417	0.958845
1.8485	1.55313
3.23103	2.4096
5.73346	3.52826
10.0216	4.66439
17.7833	5.818
