Adsorption isotherm of Methane on Pbcn-Na8
DOI: 10.1021/La9912500
Adsorbate Methane: InChIKey VNWKTOKETHGBQD-UHFFFAOYSA-N
Temperature: 296 K
Tabular data in the source: 0
pressure (bar)	uptake (molecules/unitcell)
0.00357443	0.0149791
0.0104372	-0.0199789
0.0196734	0.0324581
0.0318879	0.0848951
0.0619484	0.137332
0.103487	0.242206
0.186431	0.486912
0.325865	0.784055
0.578248	1.37834
1.0261	1.92019
1.58955	2.70674
2.31814	3.30103
3.28016	3.86036
4.93026	4.59447
7.29945	5.11884
10.174	5.69565
15.5246	6.1501
28.3927	6.69195
