Adsorption isotherm of Argon on Cmcm-Na4
DOI: 10.1021/La9912500
Adsorbate Argon: InChIKey XKRFYHLGVUSROY-UHFFFAOYSA-N
Temperature: 87 K
Tabular data in the source: 0
pressure (bar)	uptake (molecules/unitcell)
1.01e-07	3.66907
3.11e-07	3.82977
9.58e-07	3.99046
3.04e-06	4.21543
1.05e-05	4.6975
1.74e-05	7.58996
3.25e-05	9.77538
6.41e-05	13.5356
9.71e-05	15.2711
0.000308	15.8174
0.000977	16.0424
0.00309802	16.2031
0.00926261	16.8458
0.0293828	17.4886
0.0932079	18.1635
0.313706	18.742
