Adsorption isotherm of Ethane on Pbcn-Na4
DOI: 10.1021/La9912500
Adsorbate Ethane: InChIKey OTMSDBZUPAUEDD-UHFFFAOYSA-N
Temperature: 296 K
Tabular data in the source: 0
pressure (bar)	uptake (molecules/unitcell)
0.00165753	0.0149723
0.00337279	0.0278277
0.00728165	0.117815
0.0148169	0.27208
0.0324658	0.529187
0.051367	0.927704
0.0754752	1.2748
0.099984	1.55762
0.162946	2.31608
0.254024	3.11312
0.317169	3.47307
0.509303	4.2701
0.854959	5.1057
0.976775	5.38852
1.87332	5.9413
3.09852	6.36553
4.48587	6.58407
6.99322	6.68691
9.8291	6.78976
