Adsorption isotherm of Argon on Pbcn-Na0
DOI: 10.1021/La9912500
Adsorbate Argon: InChIKey XKRFYHLGVUSROY-UHFFFAOYSA-N
Temperature: 296 K
Tabular data in the source: 0
pressure (bar)	uptake (molecules/unitcell)
0.0565851	0.0374528
0.101937	0.0636713
0.178178	0.116108
0.316176	0.194764
0.578248	0.325856
1.01073	0.496276
1.76667	0.863335
3.28016	1.45325
5.73346	2.26602
10.174	3.39342
17.7833	4.67812
