Adsorption isotherm of Ethane on Pbcn-Na8
DOI: 10.1021/La9912500
Adsorbate Ethane: InChIKey OTMSDBZUPAUEDD-UHFFFAOYSA-N
Temperature: 296 K
Tabular data in the source: 0
pressure (bar)	uptake (molecules/unitcell)
0.00105531	0.0535384
0.00334766	0.182092
0.0101582	0.4392
0.0336869	1.24909
0.0956341	2.97171
0.174154	3.98728
0.296709	4.86145
0.590498	5.64563
0.941218	6.13413
1.79182	6.48123
2.92017	6.75119
5.68401	6.87974
9.26336	6.98259
16.1364	7.03401
28.74	7.08543
