Adsorption isotherm of Ethane on Na600
DOI: 10.1021/La9912500
Adsorbate Ethane: InChIKey OTMSDBZUPAUEDD-UHFFFAOYSA-N
Temperature: 296 K
Tabular data in the source: 0
pressure (bar)	uptake (molecules/unitcell)
0.000137	0.0663938
0.000415	0.117815
0.00126041	0.310646
0.0030632	0.60632
0.00696485	1.01769
0.0126833	1.41621
0.0352163	1.95613
0.0716593	2.43178
0.159356	2.97171
0.227317	3.25453
0.43275	3.6659
0.941218	4.37295
1.46731	4.78432
2.28745	5.27282
3.05275	5.59421
5.81161	6.21126
9.26336	6.59693
14.4411	6.86689
