Adsorption isotherm of Ethane on Cmcm-Na8
DOI: 10.1021/La9912500
Adsorbate Ethane: InChIKey OTMSDBZUPAUEDD-UHFFFAOYSA-N
Temperature: 296 K
Tabular data in the source: 0
pressure (bar)	uptake (molecules/unitcell)
0.001079	0.169237
0.00320227	0.4392
0.0103863	1.35193
0.0189139	2.23895
0.0301476	3.07455
0.10222	4.84859
0.174154	5.54278
0.290195	6.14699
0.516855	6.50694
0.941218	6.93117
2.00218	7.20113
2.85606	7.35539
5.81161	7.57393
9.26336	7.67678
16.869	7.80533
30.0448	7.85675
