Adsorption isotherm of Methane on Na600
DOI: 10.1021/La9912500
Adsorbate Methane: InChIKey VNWKTOKETHGBQD-UHFFFAOYSA-N
Temperature: 296 K
Tabular data in the source: 0
pressure (bar)	uptake (molecules/unitcell)
0.00415674	0.0149791
0.00783514	0.0324581
0.0161685	0.102374
0.0333649	0.189769
0.0619484	0.399517
0.109927	0.626744
0.17029	1.02876
0.255955	1.4133
0.351408	1.92019
0.504803	2.44456
0.703597	3.09128
0.856119	3.47582
1.14044	4.03515
1.45193	4.52456
2.11744	5.10137
2.90709	5.60826
4.36952	6.18506
6.66749	6.63952
9.4345	7.09397
16.0004	7.63582
