Adsorption isotherm of Argon on Na600
DOI: 10.1021/La9912500
Adsorbate Argon: InChIKey XKRFYHLGVUSROY-UHFFFAOYSA-N
Temperature: 87 K
Tabular data in the source: 0
pressure (bar)	uptake (molecules/unitcell)
3.63e-06	0.358815
4.6e-06	0.776615
5.66e-06	1.35511
5.66e-06	2.03001
6.96e-06	2.60851
6.96e-06	2.96203
8.83e-06	4.21543
9.64e-06	4.98675
1.12e-05	5.75807
1.26e-05	6.40084
1.42e-05	7.07575
1.91e-05	7.7828
2.72e-05	8.58626
3.25e-05	9.19689
3.99e-05	9.55041
5.87e-05	10.0968
0.000106	10.9002
0.000138	11.2216
0.000336	11.6715
0.000557	12.1536
0.00103618	12.6678
0.0019293	12.8928
0.00359221	13.3427
0.00752915	13.8248
0.0136099	14.1462
0.0268861	14.5319
0.053113	14.9175
0.0904894	15.1104
0.173546	15.3996
0.295674	15.721
0.397527	16.0424
