Adsorption isotherm of Argon on Pbcn-Na4
DOI: 10.1021/La9912500
Adsorbate Argon: InChIKey XKRFYHLGVUSROY-UHFFFAOYSA-N
Temperature: 296 K
Tabular data in the source: 0
pressure (bar)	uptake (molecules/unitcell)
0.0179701	0.0243436
0.0328652	0.0243436
0.0583192	0.0505621
0.0989061	0.0767806
0.178178	0.142327
0.325865	0.247201
0.578248	0.391402
0.995589	0.666696
1.76667	1.0993
3.23103	1.8072
5.64757	2.73796
10.3287	3.86535
18.0538	5.08451
