Adsorption isotherm of Argon on Pbcn-Na8
DOI: 10.1021/La9912500
Adsorbate Argon: InChIKey XKRFYHLGVUSROY-UHFFFAOYSA-N
Temperature: 87 K
Tabular data in the source: 0
pressure (bar)	uptake (molecules/unitcell)
1e-08	1.45152
3.09e-08	2.3514
9.81e-08	3.187
3.61e-07	3.95832
9.87e-07	4.63323
3.32e-06	6.24015
9.93e-06	8.61839
3.25e-05	9.80752
9.71e-05	10.9966
0.000299	12.25
0.000977	14.0819
0.00338572	15.4317
0.0101228	16.5566
0.0302656	17.0387
0.104924	17.4886
0.323131	18.3563
