Adsorption isotherm of Nitrogen on Fe₃O₄@SiO₂@UiO-66
DOI: 10.1016/j.chroma.2015.04.061
Article source: Figure  4
Adsorbate Nitrogen: InChIKey IJGRMHOSHXDMSA-UHFFFAOYSA-N
Kind: experiment
Temperature: 77 K
Tabular data in the source: 0
pressure (bar)	uptake (cm3(STP)/g)
0.051068	253.59
0.086775	259.434
0.102105	259.739
0.122107	262.638
0.13379	262.548
0.15755	265.026
0.167673	264.542
0.191433	266.869
0.201748	266.265
0.226097	268.048
0.234081	267.504
0.261337	269.469
0.269129	268.502
0.295616	270.466
0.301259	269.923
0.335132	270.739
0.335143	270.739
0.368235	271.434
0.368245	271.435
0.383424	272.099
0.402899	272.704
0.416527	272.553
0.439112	273.339
0.469104	273.642
0.477474	273.974
0.508439	277.903
0.510769	274.761
0.537681	289.142
0.54601	275.456
0.572344	290.563
0.581261	275.91
0.603117	292.225
0.618447	276.394
0.637577	294.612
0.652128	277.422
0.672251	297.544
0.687956	277.876
0.705941	300.747
0.723592	278.541
0.741385	303.769
0.759806	279.327
0.773515	306.096
0.794469	280.476
0.806821	307.879
0.823367	308.483
0.829132	281.564
0.858233	310.266
0.866319	283.045
0.891913	312.201
0.900597	284.889
0.927174	315.827
0.93604	288.062
0.966722	324.498
0.971697	294.86
1.00806	344.802
1.00942	346.989
