Adsorption isotherm of Carbon Dioxide on C37H90Cu4O55
DOI: 10.1039/C2jm15538a
Adsorbate Carbon Dioxide: InChIKey CURLTUGMZLYLDI-UHFFFAOYSA-N
Temperature: 273 K
Tabular data in the source: 0
pressure (bar)	uptake (cm3(STP)/g)
0.00510289	1.45631
0.0306008	9.70874
0.0612347	17.4757
0.0944408	24.7573
0.125091	31.5534
0.155758	37.3786
0.186426	43.2039
0.217101	48.5437
0.247776	53.8835
0.281024	58.7379
0.311708	63.5922
0.344955	68.4466
0.375647	72.8155
0.406348	76.699
0.43704	81.068
0.470304	84.9515
0.501004	88.835
0.531713	92.233
0.562413	96.1165
0.593122	99.5146
0.623831	102.913
0.657103	106.311
0.687812	109.709
0.71852	113.107
0.749237	116.019
0.78251	119.417
0.813227	122.33
0.843944	125.243
0.87466	128.155
0.905377	131.068
0.938658	133.981
0.969383	136.408
1.0001	139.32
1.03083	141.748
1.06411	144.175
