Adsorption isotherm of Acetylene on C37H90Cu4O55
DOI: 10.1039/C2jm15538a
Adsorbate Acetylene: InChIKey HSFWRNGVRCDJHI-UHFFFAOYSA-N
Temperature: 296 K
Tabular data in the source: 0
pressure (bar)	uptake (cm3(STP)/g)
0.0204619	15.2381
0.0332507	24.7619
0.0665013	38.7302
0.0946365	50.1587
0.125329	59.6825
0.156022	69.2063
0.191831	76.1905
0.219966	82.5397
0.255774	89.5238
0.281352	93.3333
0.314602	99.0476
0.345295	102.857
0.381104	107.302
0.409239	110.476
0.434816	114.921
0.47574	118.095
0.508991	120.635
0.532011	123.175
0.565261	126.349
0.593396	128.889
0.626647	132.063
0.662456	133.333
0.690591	137.143
0.723841	138.413
0.754534	140.952
0.785227	142.222
0.81592	144.127
0.849171	145.397
0.882421	146.032
0.913114	147.302
0.95148	149.206
0.979616	149.841
1.00264	151.746
1.03333	153.016
1.07169	153.651
