Adsorption isotherm of Nitrogen on C37H90Cu4O55
DOI: 10.1039/C2jm15538a
Adsorbate Nitrogen: InChIKey IJGRMHOSHXDMSA-UHFFFAOYSA-N
Temperature: 77 K
Tabular data in the source: 0
pressure (bar)	uptake (cm3(STP)/g)
0.0145179	366.99
0.0292983	376.794
0.0514015	380.49
0.0734972	382.963
0.0955929	385.437
0.120134	386.689
0.144676	387.942
0.154497	389.177
0.176578	389.204
0.188852	390.442
0.213394	391.695
0.237928	391.725
0.260009	391.751
0.28455	393.004
0.306631	393.031
0.328719	394.281
0.355707	394.313
0.380241	394.343
0.554448	397
0.578982	397.029
0.588795	397.041
0.613329	397.071
0.63541	397.097
0.659944	397.127
0.682025	397.154
0.704106	397.18
0.726186	397.207
0.787529	398.504
0.812063	398.534
0.834144	398.561
0.853771	398.584
0.878305	398.614
0.888119	398.626
0.912653	398.655
0.937187	398.685
