Adsorption isotherm of Hydrogen on C37H90Cu4O55
DOI: 10.1039/C2jm15538a
Adsorbate Hydrogen: InChIKey UFHFLCQGNIYNRP-UHFFFAOYSA-N
Temperature: 77 K
Tabular data in the source: 0
pressure (bar)	uptake (cm3(STP)/g)
0.00498981	24.3161
0.0342	49.848
0.0609522	69.3009
0.0633882	71.7325
0.0803962	81.459
0.0852536	83.8906
0.114383	96.0486
0.141076	105.775
0.167777	116.717
0.196884	125.228
0.223562	132.523
0.250241	139.818
0.274498	147.112
0.303591	153.191
0.330255	158.055
0.35934	162.918
0.386011	168.997
0.412675	173.86
0.441752	177.508
0.465988	181.155
0.492637	183.587
0.519293	187.234
0.541122	193.313
0.567771	195.745
0.596849	199.392
0.625912	200.608
0.652575	205.471
0.681661	210.334
0.705881	211.55
0.730124	216.413
0.759187	217.629
0.783422	221.277
0.812485	222.492
0.843984	226.14
0.865783	227.356
0.890011	229.787
0.916667	233.435
0.943309	234.65
0.962679	234.65
0.974793	235.866
0.989329	237.082
0.996607	239.514
1.01114	240.729
1.03051	240.729
1.05231	241.945
