Adsorption isotherm of Methane on C37H90Cu4O55
DOI: 10.1039/C2jm15538a
Adsorbate Methane: InChIKey VNWKTOKETHGBQD-UHFFFAOYSA-N
Temperature: 273 K
Tabular data in the source: 0
pressure (bar)	uptake (cm3(STP)/g)
0.00510289	1.45631
0.0614836	2.91262
0.0922337	3.8835
0.125539	5.33981
0.156281	6.79612
0.187023	8.25243
0.215209	9.2233
0.251087	10.1942
0.281829	11.6505
0.315143	12.6214
0.348457	13.5922
0.376643	14.5631
0.412521	15.534
0.440699	16.9903
0.474013	17.9612
0.502199	18.932
0.535513	19.9029
0.566263	20.8738
0.599586	21.3592
0.627772	22.3301
0.661086	23.301
0.68928	23.7864
0.72515	25.2427
0.750789	25.2427
0.781539	26.2136
0.814853	27.1845
0.853311	27.1845
0.878925	28.6408
0.909675	29.6117
0.940426	30.5825
0.971192	30.5825
1.00451	31.068
1.03783	32.0388
1.06858	33.0097
