Adsorption isotherm of Acetylene on C37H90Cu4O55
DOI: 10.1039/C2jm15538a
Adsorbate Acetylene: InChIKey HSFWRNGVRCDJHI-UHFFFAOYSA-N
Temperature: 273 K
Tabular data in the source: 0
pressure (bar)	uptake (cm3(STP)/g)
0.00767323	15.2381
0.010231	20.9524
0.0204619	40
0.0383661	41.2698
0.0537126	60.3175
0.0741746	60.9524
0.07929	73.0159
0.0971942	74.2857
0.112541	85.7143
0.133003	86.3492
0.145791	95.873
0.166253	96.5079
0.176484	104.127
0.194388	105.397
0.23787	117.46
0.258332	118.73
0.301814	128.889
0.319718	130.159
0.399008	142.857
0.416912	144.127
0.491087	154.286
0.511549	154.286
0.585723	163.175
0.603627	164.444
0.618974	165.714
0.636878	166.984
0.68036	170.794
0.698264	172.063
0.708495	173.333
0.726399	174.603
0.741746	175.238
0.762207	176.508
0.774996	177.778
0.795458	177.778
0.805689	179.683
0.826151	180.317
0.836382	181.587
0.856844	181.587
0.869633	183.492
0.890095	183.492
0.900326	184.762
0.91823	185.397
0.931019	186.667
0.95148	187.302
0.961711	187.937
0.979616	189.206
0.992404	189.841
1.01031	191.111
1.02566	191.111
1.04356	192.381
1.05635	192.381
1.07425	193.651
