Adsorption isotherm of Water on MIL-160
DOI: 10.1002/adma.201502418
Article source: Figure S4
Adsorbate Water: InChIKey XLYOFNOQVPJJNP-UHFFFAOYSA-N
Kind: experiment
Temperature: 313 K
Tabular data in the source: 0
pressure (bar)	uptake (g/g)
0	0.003704
0.000382	0.021305
0.000638	0.029643
0.000705	0.012052
0.001154	0.020396
0.001666	0.03337
0.001728	0.04726
0.002306	0.056532
0.002624	0.076909
0.002813	0.097283
0.002875	0.111174
0.003002	0.123214
0.003512	0.149151
0.003701	0.173229
0.004019	0.194532
0.004146	0.20472
0.004337	0.215835
0.004592	0.22973
0.004911	0.246403
0.005038	0.256591
0.005101	0.26863
0.005422	0.267711
0.005742	0.276977
0.006191	0.283468
0.006254	0.293655
0.006512	0.289957
0.006833	0.293667
0.007025	0.296449
0.007218	0.297379
0.007474	0.305718
0.008052	0.308509
0.008563	0.325187
0.00869	0.3363
0.009204	0.337238
0.010296	0.346521
0.011452	0.353027
0.011452	0.355805
0.013316	0.357698
0.01428	0.361422
0.014987	0.363289
0.016659	0.363326
0.01833	0.367066
0.020129	0.371735
0.021287	0.372686
0.022958	0.3755
0.024244	0.373676
0.025851	0.379267
0.027072	0.379294
0.028808	0.379331
0.029772	0.38213
0.031636	0.3868
0.032729	0.386824
0.035686	0.38874
0.036329	0.388754
0.038193	0.392499
