Adsorption isotherm of Nitrogen on MIL-160
DOI: 10.1002/adma.201502418
Article source: Figure S2
Adsorbate Nitrogen: InChIKey IJGRMHOSHXDMSA-UHFFFAOYSA-N
Kind: experiment
Temperature: 77 K
Tabular data in the source: 0
pressure (bar)	uptake (ml/g)
0	0
0.001218	258.484
0.008526	258.974
0.010962	258.973
0.031669	259.951
0.042631	259.946
0.066991	261.417
0.08648	261.901
0.097442	262.39
0.112058	262.383
0.147381	260.388
0.174178	260.869
0.204629	260.854
0.26553	260.824
0.299635	260.807
0.334957	260.79
0.367844	261.268
0.399513	260.264
0.433618	259.753
0.467722	260.23
0.501827	260.213
0.535932	259.702
0.570037	260.18
0.600487	259.176
0.634592	258.665
0.671133	259.635
0.704019	258.631
0.736906	259.603
0.771011	259.092
0.779537	260.076
0.786845	260.072
0.816078	259.564
0.852619	259.051
0.884287	259.036
0.917174	260.502
0.954933	261.966
0.968331	261.96
0.982948	264.918
