Adsorption isotherm of Nitrogen on CAU-10-pydc
DOI: 10.1002/adma.201502418
Article source: Figure S10
Adsorbate Nitrogen: InChIKey IJGRMHOSHXDMSA-UHFFFAOYSA-N
Kind: experiment
Temperature: 77 K
Tabular data in the source: 0
pressure (bar)	uptake (ml/g)
0.002064	47.412
0.003914	53.4449
0.004734	211.203
0.010193	212.06
0.019292	213.776
0.033847	215.488
0.044774	218.927
0.059333	221.501
0.068455	227.527
0.092194	247.334
0.112198	248.179
0.163139	254.17
0.19042	255.87
0.215875	255.848
0.248611	257.544
0.281347	259.24
0.315892	259.21
0.343165	259.187
0.377719	260.881
0.41045	261.715
0.444996	261.685
0.475909	262.521
0.517732	263.347
0.5541	264.178
0.585009	264.151
0.61774	264.985
0.65229	265.817
0.686844	267.511
0.717758	268.347
0.752312	270.041
0.786866	271.735
0.819598	272.569
0.854152	274.264
0.886893	276.822
0.921465	281.964
0.957864	288.829
0.974263	295.712
0.988885	310.354
