Adsorption isotherm of Water on CAU-10-pydc
DOI: 10.1002/adma.201502418
Article source: Figure S12
Adsorbate Water: InChIKey XLYOFNOQVPJJNP-UHFFFAOYSA-N
Kind: experiment
Temperature: 303 K
Tabular data in the source: 0
pressure (bar)	uptake (g/g)
0.000129	0.000937
0.000386	0.03185
0.000579	0.016862
0.000965	0.030913
0.001093	0.043091
0.001994	0.086183
0.002251	0.059953
0.003152	0.148946
0.003923	0.199532
0.004181	0.184543
0.005145	0.252927
0.006046	0.306323
0.007139	0.314754
0.007976	0.340047
0.008104	0.328806
0.009969	0.343794
0.010034	0.353162
0.011899	0.352225
0.012028	0.360656
0.014021	0.366276
0.014086	0.360656
0.015951	0.361593
0.016015	0.37096
0.017945	0.37377
0.018138	0.36534
0.019617	0.370023
0.019939	0.374707
0.022061	0.374707
0.022769	0.380328
0.023926	0.376581
0.025856	0.376581
0.026049	0.384075
0.027914	0.381265
0.029008	0.385948
0.029587	0.384075
0.031709	0.383138
0.033574	0.386885
0.034732	0.391569
0.035697	0.390632
0.036597	0.393443
0.037691	0.393443
0.038655	0.398126
0.039685	0.400937
