Adsorption isotherm of Water on MIL-160
DOI: 10.1002/adma.201502418
Article source: Figure 2
Adsorbate Water: InChIKey XLYOFNOQVPJJNP-UHFFFAOYSA-N
Kind: experiment
Temperature: 303 K
Tabular data in the source: 0
pressure (bar)	uptake (g/g)
0.000471	0.016854
0.000784	0.022472
0.001565	0.031461
0.001957	0.047191
0.001958	0.051685
0.002509	0.079775
0.002831	0.132584
0.002908	0.129213
0.003385	0.174157
0.00386	0.213483
0.003939	0.220225
0.004568	0.248315
0.004804	0.262921
0.005826	0.307865
0.005978	0.288764
0.00645	0.307865
0.00692	0.323596
0.006922	0.331461
0.007467	0.331461
0.007936	0.335955
0.007936	0.340449
0.008872	0.340449
0.008872	0.34382
0.009807	0.34382
0.010977	0.350562
0.011912	0.348315
0.013783	0.352809
0.013861	0.353933
0.015887	0.355056
0.016745	0.359551
0.017758	0.359551
0.019785	0.361798
0.021811	0.361798
0.022825	0.366292
0.023759	0.364045
0.025786	0.366292
0.025864	0.367416
0.027812	0.366292
0.028747	0.369663
0.029838	0.368539
0.031787	0.37191
0.032644	0.37191
0.034748	0.375281
0.035683	0.373034
0.037632	0.376404
0.038567	0.375281
0.04075	0.380899
