Adsorption isotherm of Nitrogen on A520
DOI: 10.1002/adma.201502418
Article source: Figure S14
Adsorbate Nitrogen: InChIKey IJGRMHOSHXDMSA-UHFFFAOYSA-N
Kind: experiment
Temperature: 303 K
Tabular data in the source: 0
pressure (bar)	uptake (ml/g)
0	202.723
0.00365	212.252
0.005474	220.916
0.009124	229.579
0.023723	237.376
0.040146	244.307
0.058394	246.906
0.089416	252.104
0.10219	253.837
0.125912	254.703
0.144161	256.436
0.162409	257.302
0.186131	258.168
0.202555	259.035
0.25	262.5
0.30292	263.366
0.35219	265.099
0.40146	265.965
0.45073	268.564
0.5	270.297
0.547445	272.896
0.596715	274.629
0.649635	275.495
0.69708	276.361
0.739051	278.094
0.766423	278.96
0.804745	281.559
0.819343	282.426
0.841241	284.158
0.857664	284.158
0.874088	284.158
0.886861	287.624
0.89781	288.49
0.906934	288.49
0.923358	291.089
0.932482	291.955
0.941606	292.822
0.952555	294.554
0.963504	297.153
0.970803	299.752
0.978102	301.485
0.983577	302.351
0.990876	304.95
0.99635	308.416
