Adsorption isotherm of Water on MIL-160
DOI: 10.1002/adma.201502418
Article source: Figure S4
Adsorbate Water: InChIKey XLYOFNOQVPJJNP-UHFFFAOYSA-N
Kind: experiment
Temperature: 303 K
Tabular data in the source: 0
pressure (bar)	uptake (g/g)
0.001346	0.026881
0.001474	0.030588
0.001794	0.041706
0.002178	0.050048
0.002623	0.079687
0.002936	0.132471
0.003065	0.131548
0.003379	0.176925
0.003823	0.214898
0.003951	0.220456
0.004397	0.245466
0.004779	0.266771
0.005485	0.279749
0.005737	0.308458
0.006509	0.308475
0.006956	0.322374
0.007019	0.334412
0.007662	0.331648
0.007918	0.340913
0.008882	0.342786
0.00991	0.347438
0.010874	0.351163
0.012095	0.352115
0.014024	0.353083
0.014024	0.355861
0.016017	0.357756
0.016981	0.358703
0.017881	0.358723
0.020003	0.359695
0.020067	0.362474
0.021867	0.363439
0.022959	0.366241
0.023924	0.365336
0.025853	0.365378
0.026045	0.369086
0.028103	0.369131
0.029003	0.370076
0.029967	0.370097
0.032088	0.372921
0.032924	0.371088
0.03511	0.374839
0.035946	0.373931
0.037938	0.378604
0.038967	0.376775
0.040896	0.380521
