Adsorption isotherm of Water on MIL-160
DOI: 10.1002/adma.201502418
Article source: Figure S4
Adsorbate Water: InChIKey XLYOFNOQVPJJNP-UHFFFAOYSA-N
Kind: experiment
Temperature: 293 K
Tabular data in the source: 0
pressure (bar)	uptake (g/g)
0.000728	0.026881
0.000971	0.041706
0.001486	0.116726
0.001895	0.220447
0.001931	0.203781
0.002067	0.239898
0.002343	0.271391
0.002722	0.310295
0.002963	0.335304
0.003172	0.339017
0.00338	0.348284
0.003797	0.347375
0.004076	0.348312
0.004353	0.353879
0.00491	0.353901
0.005919	0.358572
0.006266	0.365067
0.006754	0.360457
0.007762	0.369757
0.008806	0.367947
0.00971	0.374465
0.010719	0.372654
0.011728	0.37825
0.012737	0.375513
0.013746	0.382035
0.014721	0.377444
0.015729	0.383967
0.016669	0.381227
0.017573	0.386819
0.018617	0.382231
0.019591	0.390603
0.020496	0.389714
0.021992	0.392552
