Adsorption isotherm of Water on CAU-10
DOI: 10.1002/adma.201502418
Article source: Figure 2
Adsorbate Water: InChIKey XLYOFNOQVPJJNP-UHFFFAOYSA-N
Kind: experiment
Temperature: 298 K
Tabular data in the source: 0
pressure (bar)	uptake (g/g)
0.002028	0.011236
0.002105	0.004494
0.002651	0.006742
0.003586	0.008989
0.00421	0.008989
0.004212	0.019101
0.005223	0.011236
0.006159	0.01573
0.006358	0.235955
0.006628	0.021348
0.006629	0.02809
0.00663	0.034832
0.006721	0.101124
0.006807	0.140449
0.006816	0.18764
0.006869	0.062921
0.006899	0.214607
0.00706	0.24382
0.007063	0.25618
0.007221	0.269663
0.007536	0.28427
0.008082	0.289888
0.00863	0.3
0.008785	0.294382
0.009409	0.297753
0.0105	0.3
0.010814	0.310112
0.011591	0.302247
0.012215	0.305618
0.012919	0.31573
0.014476	0.311236
0.015101	0.320225
0.016737	0.317978
0.017362	0.326966
0.018531	0.323596
0.019467	0.332584
0.021259	0.330337
0.021728	0.338202
0.023676	0.334831
0.023833	0.342697
0.025937	0.342697
0.026249	0.347191
0.027965	0.353933
0.028198	0.348315
0.030226	0.358427
0.030692	0.352809
0.032019	0.361798
0.032953	0.359551
0.03459	0.362921
0.035682	0.365169
0.036773	0.368539
0.038176	0.369663
