Adsorption isotherm of Water on Hydrogen and Heat Treated Graphite (HYG1000)
DOI: 10.1021/la00050a030
Article source: Figure 2d
Adsorbate Water: InChIKey XLYOFNOQVPJJNP-UHFFFAOYSA-N
Kind: experiment
Temperature: 283 K
Tabular data in the source: 0
pressure (bar)	uptake (molecules/nm2)
0.0001	2.2e-05
0.0004	0.000215
0.000667	0.00058
0.000967	0.000794
0.001468	0.001202
0.002168	0.001718
0.002835	0.00219
0.003667	0.003627
0.004265	0.005471
0.004859	0.008601
0.005645	0.016016
