Adsorption isotherm of Water on Graphite
DOI: 10.1021/la00050a030
Article source: Figure 2a
Adsorbate Water: InChIKey XLYOFNOQVPJJNP-UHFFFAOYSA-N
Kind: experiment
Temperature: 283 K
Tabular data in the source: 0
pressure (bar)	uptake (molecules/nm2)
0.000113	0.238783
0.000208	0.30336
0.000268	0.376517
0.000622	0.518681
0.001008	0.671618
0.001493	0.835372
0.001881	0.966805
0.0024	1.12843
0.003014	1.33528
0.003494	1.56139
0.004164	1.90376
