Adsorption isotherm of Water on Graphite
DOI: 10.1021/la00050a030
Article source: Figure 2a
Adsorbate Water: InChIKey XLYOFNOQVPJJNP-UHFFFAOYSA-N
Kind: experiment
Temperature: 291 K
Tabular data in the source: 0
pressure (bar)	uptake (molecules/nm2)
5.7e-05	0.116166
0.000113	0.236632
0.000665	0.400429
0.00099	0.488811
0.001514	0.581622
0.002233	0.736925
0.003149	0.909559
0.004034	1.06282
0.004754	1.20307
0.005471	1.37987
0.006156	1.54161
0.006839	1.72269
0.007484	1.95752
