Adsorption isotherm of Water on Hydrogen and Heat Treated Graphite (HYG1000)
DOI: 10.1021/la00050a030
Article source: Figure 2d
Adsorbate Water: InChIKey XLYOFNOQVPJJNP-UHFFFAOYSA-N
Kind: experiment
Temperature: 298 K
Tabular data in the source: 0
pressure (bar)	uptake (molecules/nm2)
3.3e-05	0.000257
0.000166	0.000515
0.000432	0.001094
0.000665	0.001458
0.001066	0.001566
0.001136	8.8e-05
0.0015	0.001524
0.001503	0.000474
0.001834	0.001717
0.002036	0.000882
0.002301	0.002147
0.002668	0.00234
0.002868	0.002469
0.002904	0.001355
0.003201	0.002812
0.003638	0.00172
0.003902	0.003456
0.004202	0.003757
0.004373	0.002
0.00477	0.003801
0.00524	0.002516
0.005538	0.003823
0.005908	0.002774
0.006373	0.003867
0.006944	0.002968
0.007041	0.004061
0.007878	0.003463
0.007977	0.003999
0.008813	0.003936
0.008913	0.00385
0.00968	0.00458
0.009843	0.006209
0.01048	0.005245
0.010679	0.006017
0.011346	0.00649
0.01138	0.006211
0.01198	0.007091
0.012378	0.00842
0.012645	0.008506
0.013008	0.010628
0.013537	0.012879
0.013834	0.014744
0.014197	0.016823
0.014559	0.019223
0.015095	0.018839
