Adsorption isotherm of Water on Hydrogen and Heat Treated Graphite (HYG500)
DOI: 10.1021/la00050a030
Article source: Figure 2c
Adsorbate Water: InChIKey XLYOFNOQVPJJNP-UHFFFAOYSA-N
Kind: experiment
Temperature: 298 K
Tabular data in the source: 0
pressure (bar)	uptake (molecules/nm2)
0.0002	0.000665
0.000501	0.001115
0.000834	0.002316
0.000838	0.00118
0.001072	0.001545
0.001168	0.002982
0.001475	0.001932
0.001536	0.003668
0.001945	0.002254
0.001973	0.00384
0.002414	0.002876
0.002511	0.00412
0.003053	0.003242
0.003856	0.004572
0.003928	0.003372
0.004901	0.004145
0.005538	0.005046
0.006549	0.004791
0.00658	0.005584
0.007623	0.005864
0.007658	0.005286
0.008395	0.006359
0.0087	0.005888
0.009403	0.007111
0.009506	0.006618
0.010107	0.007905
0.010344	0.007498
0.011115	0.008678
0.011452	0.008464
0.012053	0.009901
0.012289	0.00988
0.013121	0.012861
0.013253	0.013633
0.013913	0.017493
0.014385	0.017151
