Adsorption isotherm of Water on Graphite
DOI: 10.1021/la00050a030
Article source: Figure 2a
Adsorbate Water: InChIKey XLYOFNOQVPJJNP-UHFFFAOYSA-N
Kind: experiment
Temperature: 298 K
Tabular data in the source: 0
pressure (bar)	uptake (molecules/nm2)
2.7e-05	0.075286
6.3e-05	0.043051
8.7e-05	0.157045
0.000118	0.185022
0.000181	0.221622
0.000345	0.251835
0.000508	0.284199
0.000638	0.320842
0.000899	0.381225
0.001161	0.433007
0.001489	0.484832
0.001752	0.521561
0.002048	0.562612
0.002443	0.608028
0.002805	0.651272
0.003365	0.7183
0.003991	0.778919
0.004057	0.794015
0.004551	0.852398
0.005078	0.904352
0.00567	0.988604
0.006295	1.05998
0.006888	1.13348
0.007381	1.19616
0.008072	1.29123
0.008335	1.32366
0.00932	1.46623
0.009616	1.51588
0.010206	1.60874
0.010893	1.74251
0.011189	1.79001
0.011613	1.87846
0.01217	1.9885
