Adsorption isotherm of Water on Hydrogen Treated Graphite (HYG25)
DOI: 10.1021/la00050a030
Article source: Figure 2b
Adsorbate Water: InChIKey XLYOFNOQVPJJNP-UHFFFAOYSA-N
Kind: experiment
Temperature: 275 K
Tabular data in the source: 0
pressure (bar)	uptake (molecules/nm2)
0.000293	0.001419
0.000457	0.001913
0.000721	0.002602
0.001085	0.003441
0.001412	0.004709
0.001737	0.00645
0.001894	0.00804
0.002156	0.009072
0.002413	0.010706
0.002729	0.013736
0.002997	0.018785
