Adsorption isotherm of Water on Hydrogen Treated Graphite (HYG25)
DOI: 10.1021/la00050a030
Article source: Figure 2b
Adsorbate Water: InChIKey XLYOFNOQVPJJNP-UHFFFAOYSA-N
Kind: experiment
Temperature: 298 K
Tabular data in the source: 0
pressure (bar)	uptake (molecules/nm2)
0.00013	0.000623
0.000594	0.001549
0.00076	0.001914
0.000892	0.002194
0.001058	0.002474
0.001392	0.00269
0.001492	0.002883
0.001692	0.003034
0.001892	0.00325
0.001993	0.003336
0.002159	0.003509
0.00256	0.003832
0.003195	0.004328
0.003295	0.004457
0.003763	0.004674
0.004265	0.004955
0.004399	0.005105
0.005001	0.00543
0.005201	0.00571
0.005602	0.00599
0.005936	0.006142
0.006204	0.006336
0.006705	0.006767
0.006973	0.006854
0.00744	0.007328
0.007674	0.007415
0.008075	0.007803
0.008376	0.007975
0.008676	0.008213
0.009178	0.008558
0.009645	0.009032
0.010179	0.009528
0.010678	0.010217
0.010876	0.01069
0.011442	0.011487
0.012169	0.013208
0.0124	0.01381
0.013023	0.016046
0.013352	0.017014
