Adsorption isotherm of Water on Hydrogen and Heat Treated Graphite (HYG500)
DOI: 10.1021/la00050a030
Article source: Figure 2c
Adsorbate Water: InChIKey XLYOFNOQVPJJNP-UHFFFAOYSA-N
Kind: experiment
Temperature: 291 K
Tabular data in the source: 0
pressure (bar)	uptake (molecules/nm2)
0.000367	0.000901
0.000836	0.001716
0.00154	0.002468
0.002145	0.002919
0.002716	0.003348
0.003387	0.003885
0.004227	0.004444
0.004965	0.005196
0.005602	0.005947
0.006943	0.007771
0.008113	0.010367
0.008646	0.012018
0.009334	0.017507
