Adsorption isotherm of Water on Hydrogen Treated Graphite (HYG25)
DOI: 10.1021/la00050a030
Article source: Figure 2b
Adsorbate Water: InChIKey XLYOFNOQVPJJNP-UHFFFAOYSA-N
Kind: experiment
Temperature: 283 K
Tabular data in the source: 0
pressure (bar)	uptake (molecules/nm2)
0.001023	0.002732
0.00142	0.003506
0.001852	0.004281
0.00205	0.004819
0.002281	0.005442
0.002412	0.005851
0.002644	0.006281
0.003009	0.00697
0.003273	0.00768
0.00367	0.008626
0.003963	0.009916
0.004324	0.011228
0.004712	0.013506
0.005061	0.016429
0.005309	0.019523
