Adsorption isotherm of Water on Hydrogen Treated Graphite (HYG25)
DOI: 10.1021/la00050a030
Article source: Figure 2b
Adsorbate Water: InChIKey XLYOFNOQVPJJNP-UHFFFAOYSA-N
Kind: experiment
Temperature: 291 K
Tabular data in the source: 0
pressure (bar)	uptake (molecules/nm2)
0.001623	0.003356
0.00219	0.003874
0.002721	0.004821
0.003254	0.005488
0.003756	0.005812
0.004355	0.006566
0.004854	0.007255
0.005723	0.007967
0.006286	0.009086
0.006816	0.010119
0.007477	0.011711
0.008001	0.013774
0.008554	0.016462
