Adsorption isotherm of Water on Hydrogen and Heat Treated Graphite (HYG1000)
DOI: 10.1021/la00050a030
Article source: Figure 2d
Adsorbate Water: InChIKey XLYOFNOQVPJJNP-UHFFFAOYSA-N
Kind: experiment
Temperature: 291 K
Tabular data in the source: 0
pressure (bar)	uptake (molecules/nm2)
0.000401	2.2e-05
0.000801	0.000344
0.001135	0.000516
0.001635	0.000988
0.002035	0.001268
0.002469	0.001611
0.00297	0.001826
0.003404	0.002105
0.004138	0.0023
0.004438	0.002771
0.004972	0.003094
0.005639	0.00348
0.006506	0.00451
0.007337	0.006162
0.008135	0.008306
0.008828	0.012143
0.009782	0.018937
