Adsorption isotherm of Water on Hydrogen and Heat Treated Graphite (HYG500)
DOI: 10.1021/la00050a030
Article source: Figure 2c
Adsorbate Water: InChIKey XLYOFNOQVPJJNP-UHFFFAOYSA-N
Kind: experiment
Temperature: 283 K
Tabular data in the source: 0
pressure (bar)	uptake (molecules/nm2)
0.000669	0.001394
0.001238	0.002231
0.001707	0.003068
0.002176	0.003691
0.00241	0.00427
0.00261	0.004677
0.002979	0.005278
0.003448	0.005986
0.003949	0.006995
0.00445	0.008282
0.004979	0.011219
0.0055	0.016408
