Adsorption isotherm of Lead(II) Ion, Water on M. Indicus Biomass
DOI: 10.1016/j.molstruc.2017.04.099
Article source: Figure 3
Adsorbate Lead(II) Ion: InChIKey RVPVRDXYQKGNMQ-UHFFFAOYSA-N
Adsorbate Water: InChIKey XLYOFNOQVPJJNP-UHFFFAOYSA-N
Kind: experiment
Temperature: 298 K
Tabular data in the source: 0
pressure (bar)	Lead(II) Ion fraction	Lead(II) Ion uptake (mg/g)	Water fraction	Water uptake (mg/g)	total uptake (mg/g)
1.01325	1.1569	16.59			
1.01325	3.1826	32.157			
1.01325	4.7275	47.67			
1.01325	8.4935	61.729			
1.01325	10.9818	74.172			
1.01325	14.1731	87.557			
