Adsorption isotherm of Hydrogen on PAF-3-dcMg
DOI: 10.3866/Pku.Whxb201112301
Adsorbate Hydrogen: InChIKey UFHFLCQGNIYNRP-UHFFFAOYSA-N
Temperature: 233 K
Tabular data in the source: 0
pressure (bar)	uptake (mmol/g)
10.7914	2.725
19.4245	3.78163
30.2158	4.5602
39.9281	5.39439
50.7194	5.95051
70.1439	6.89592
79.8561	7.34082
89.5683	7.78572
100.36	8.00816
120.863	8.50867
151.079	9.23163
176.978	9.45408
200.719	9.73214
222.302	9.73214
250.36	9.73214
276.259	9.67653
301.079	9.56531
