Adsorption isotherm of Hydrogen on PAF-3-dcMg
DOI: 10.3866/Pku.Whxb201112301
Adsorbate Hydrogen: InChIKey UFHFLCQGNIYNRP-UHFFFAOYSA-N
Temperature: 77 K
Tabular data in the source: 0
pressure (bar)	uptake (mmol/g)
3.4257	44.1716
8.74516	53.459
20.385	63.5053
28.8388	68.9089
39.3838	71.982
48.8761	75.058
59.4117	76.5809
68.8993	78.8817
81.5354	79.6243
88.9084	80.3803
99.4392	81.1283
120.496	81.8486
148.931	84.1007
174.194	84.0353
200.518	85.5175
221.58	87.0131
251.058	87.7121
279.488	89.1888
300.54	89.1348
