Adsorption isotherm of Hydrogen on PAF-3-dcCa
DOI: 10.3866/Pku.Whxb201112301
Adsorbate Hydrogen: InChIKey UFHFLCQGNIYNRP-UHFFFAOYSA-N
Temperature: 77 K
Tabular data in the source: 0
pressure (bar)	uptake (mmol/g)
0.164471	27.1279
5.51683	41.8409
8.72637	50.3587
19.3089	59.6325
28.8106	64.2583
39.3556	67.3319
49.9052	71.1798
59.3835	71.9304
70.9763	74.2256
80.4546	74.9762
89.9375	76.5021
99.411	76.4778
124.678	77.1876
148.898	78.6748
163.644	80.1873
174.17	80.16
180.491	80.9185
191.017	80.8917
216.289	82.3764
226.815	82.3491
255.245	83.8259
265.771	83.7986
276.297	83.7714
300.512	84.4842
