Adsorption isotherm of Hydrogen on PAF-4-dcCa
DOI: 10.3866/Pku.Whxb201112301
Adsorbate Hydrogen: InChIKey UFHFLCQGNIYNRP-UHFFFAOYSA-N
Temperature: 233 K
Tabular data in the source: 0
pressure (bar)	uptake (mmol/g)
8.39161	4.06681
15.7343	5.9438
20.979	8.13362
31.4685	11.2619
41.958	14.3902
50.3497	17.2057
59.7902	19.7084
71.3287	22.8367
79.7203	24.7137
91.2587	27.5292
99.6503	29.0933
111.189	31.2831
119.58	33.1601
125.874	34.4115
134.266	35.9756
150	39.1039
158.392	40.9809
167.832	42.2322
176.224	44.1092
182.517	45.0477
191.958	46.6119
204.545	48.8017
213.986	50.053
223.427	51.6172
226.573	52.2428
236.014	53.4942
245.455	55.0583
248.601	55.684
258.042	56.6225
267.483	58.1866
276.923	59.438
286.364	60.6893
295.804	61.9406
298.951	62.5663
