Adsorption isotherm of Hydrogen on PAF-3-dcCa
DOI: 10.3866/Pku.Whxb201112301
Adsorbate Hydrogen: InChIKey UFHFLCQGNIYNRP-UHFFFAOYSA-N
Temperature: 233 K
Tabular data in the source: 0
pressure (bar)	uptake (mmol/g)
6.29371	2.50265
11.5385	3.44115
19.9301	5.63097
30.4196	7.50795
40.9091	9.38494
51.3986	11.2619
59.7902	12.5133
69.2308	14.0774
80.7692	15.3287
91.2587	16.5801
99.6503	17.8314
102.797	18.1442
113.287	18.7699
134.266	20.9597
142.657	22.211
160.49	24.088
169.93	24.7137
180.42	25.6522
189.86	26.9035
203.497	27.842
213.986	28.4677
223.427	29.0933
233.916	29.719
243.357	30.6575
265.385	31.9088
275.874	32.5345
285.315	33.1601
295.804	33.7858
300	34.0986
