Adsorption isotherm of Hydrogen on PAF-3-dcCa
DOI: 10.3866/Pku.Whxb201112301
Adsorbate Hydrogen: InChIKey UFHFLCQGNIYNRP-UHFFFAOYSA-N
Temperature: 233 K
Tabular data in the source: 0
pressure (bar)	uptake (mmol/g)
10.7914	2.05765
30.2158	4.72704
42.0863	5.67245
50.7194	6.45102
61.5108	7.06276
72.3022	7.61888
80.9353	8.11939
91.7266	8.45306
101.439	8.84235
150	9.89898
201.799	10.8444
251.439	10.6776
301.079	10.5663
