Adsorption isotherm of Hydrogen on PAF-3-dcMg
DOI: 10.3866/Pku.Whxb201112301
Adsorbate Hydrogen: InChIKey UFHFLCQGNIYNRP-UHFFFAOYSA-N
Temperature: 233 K
Tabular data in the source: 0
pressure (bar)	uptake (mmol/g)
8.39161	3.44115
19.9301	6.88229
30.4196	8.44645
40.9091	10.3234
51.3986	11.8876
60.8392	13.4518
70.2797	15.3287
80.7692	16.2672
89.1608	17.5186
101.748	18.7699
123.776	21.5854
150	24.4009
175.175	26.5907
199.301	29.0933
225.524	30.9703
250.699	32.5345
274.825	34.7243
300	36.2884
