Adsorption isotherm of Hydrogen on PAF-4-dcCa
DOI: 10.3866/Pku.Whxb201112301
Adsorbate Hydrogen: InChIKey UFHFLCQGNIYNRP-UHFFFAOYSA-N
Temperature: 77 K
Tabular data in the source: 0
pressure (bar)	uptake (mmol/g)
3.4304	44.9467
8.78276	59.6598
19.4358	80.5599
30.0465	94.4843
40.6338	104.533
50.1543	112.259
60.7227	119.208
70.2339	125.384
80.7882	130.007
90.2805	133.083
99.7682	135.384
121.906	140.752
150.364	146.88
201.999	156.047
228.338	159.855
251.509	162.12
282.054	165.142
302.063	166.64
