Adsorption isotherm of Hydrogen on PAF-3-dcMg
DOI: 10.3866/Pku.Whxb201112301
Adsorbate Hydrogen: InChIKey UFHFLCQGNIYNRP-UHFFFAOYSA-N
Temperature: 233 K
Tabular data in the source: 0
pressure (bar)	uptake (mmol/g)
10.7914	3.11429
21.5827	4.44898
30.2158	5.56123
39.9281	6.3398
50.7194	7.06276
60.4317	7.78572
70.1439	8.39745
79.8561	8.84235
89.5683	9.23163
100.36	9.50969
125.18	9.95459
150	10.4551
178.058	10.7888
200.719	11.0112
228.777	11.1225
251.439	11.2337
279.496	11.2893
301.079	11.2893
