Adsorption isotherm of Hydrogen on PAF-3-dcCa
DOI: 10.3866/Pku.Whxb201112301
Adsorbate Hydrogen: InChIKey UFHFLCQGNIYNRP-UHFFFAOYSA-N
Temperature: 233 K
Tabular data in the source: 0
pressure (bar)	uptake (mmol/g)
10.7914	2.00204
19.4245	3.44796
31.295	4.61582
41.0072	5.45
50.7194	6.3398
61.5108	6.84031
70.1439	7.61888
79.8561	8.00816
90.6475	8.45306
100.36	8.78674
151.079	9.89898
200.719	10.5663
250.36	10.5107
301.079	10.4551
