Adsorption isotherm of Hydrogen on PAF-3
DOI: 10.3866/Pku.Whxb201112301
Adsorbate Hydrogen: InChIKey UFHFLCQGNIYNRP-UHFFFAOYSA-N
Temperature: 233 K
Tabular data in the source: 0
pressure (bar)	uptake (mmol/g)
10.7914	0.834184
20.5036	1.50153
31.295	2.22449
39.9281	3.00306
50.7194	3.50357
61.5108	4.17092
70.1439	4.61582
80.9353	5.11633
90.6475	5.72806
100.36	5.78367
113.309	6.06174
124.101	6.39541
133.813	6.67347
150	7.11837
179.137	7.7301
200.719	8.28623
210.432	8.34184
221.223	8.34184
236.331	8.34184
250.36	8.39745
278.417	8.50867
301.079	8.56429
