Adsorption isotherm of Hydrogen on PAF-4-dcMg
DOI: 10.3866/Pku.Whxb201112301
Adsorbate Hydrogen: InChIKey UFHFLCQGNIYNRP-UHFFFAOYSA-N
Temperature: 77 K
Tabular data in the source: 0
pressure (bar)	uptake (mmol/g)
3.4304	44.9467
8.78276	59.6598
19.4358	80.5599
30.0465	94.4843
39.5952	106.861
49.1158	114.587
59.6795	120.761
70.2527	128.484
82.9169	133.878
91.3567	136.956
99.7964	140.035
109.279	141.56
118.767	143.861
129.312	146.934
138.8	149.235
149.34	151.533
169.363	155.356
179.898	156.88
189.381	158.405
199.922	160.704
209.405	162.229
219.94	163.752
230.471	164.5
239.954	166.026
250.489	167.549
259.972	169.074
269.455	170.6
284.201	172.112
294.732	172.86
303.158	173.614
