Adsorption isotherm of Hydrogen on PAF-4-dcMg
DOI: 10.3866/Pku.Whxb201112301
Adsorbate Hydrogen: InChIKey UFHFLCQGNIYNRP-UHFFFAOYSA-N
Temperature: 233 K
Tabular data in the source: 0
pressure (bar)	uptake (mmol/g)
5.24476	4.06681
10.4895	6.25663
20.979	10.0106
30.4196	12.5133
39.8601	15.6416
49.3007	18.4571
70.2797	23.7752
79.7203	26.2778
89.1608	28.7805
98.6014	30.3446
105.944	31.9088
114.336	33.7858
123.776	35.35
131.119	37.5398
140.559	39.1039
147.902	40.9809
153.147	41.6066
161.538	43.4836
170.979	45.0477
179.371	46.2991
188.811	47.8632
197.203	49.4274
205.594	50.9915
215.035	52.2428
223.427	53.807
232.867	55.3712
242.308	56.9353
250.699	58.4995
252.797	58.8123
262.238	60.0636
271.678	61.315
281.119	62.5663
290.559	63.8176
300	65.3818
