Adsorption isotherm of Nitrogen on Activated Carbon VR93-4:1
DOI: 10.1016/j.carbon.2013.09.086
Adsorbate Nitrogen: InChIKey IJGRMHOSHXDMSA-UHFFFAOYSA-N
Temperature: 77 K
Tabular data in the source: 0
pressure (bar)	uptake (cm3(STP)/g)
0.00556433	514.65
0.0248372	580.892
0.0464915	636.943
0.0705425	692.994
0.106608	769.427
0.130643	815.287
0.154664	850.955
0.193095	907.006
0.221901	937.58
0.245907	963.057
0.286704	998.726
0.3227	1029.3
0.353865	1034.39
0.413813	1054.78
0.480936	1064.97
0.540877	1080.25
0.596001	1080.25
0.672719	1095.54
0.744635	1105.73
0.785379	1105.73
0.854899	1115.92
0.876469	1115.92
0.934005	1126.11
0.965193	1146.5
1.01077	1171.97
