Adsorption isotherm of Nitrogen on Activated Carbon VR5-4:1
DOI: 10.1016/j.carbon.2013.09.086
Adsorbate Nitrogen: InChIKey IJGRMHOSHXDMSA-UHFFFAOYSA-N
Temperature: 77 K
Tabular data in the source: 0
pressure (bar)	uptake (cm3(STP)/g)
0.00709002	535.016
0.01418	585.489
0.0236334	630.915
0.0401768	676.341
0.0543568	711.672
0.0709002	752.05
0.0850803	792.429
0.101624	817.666
0.118167	847.95
0.13471	878.233
0.153617	908.517
0.172524	933.754
0.196157	964.038
0.203247	974.132
0.215064	989.274
0.229244	1004.42
0.241061	1019.56
0.262331	1029.65
0.278874	1049.84
0.297781	1054.89
0.321414	1070.03
0.366318	1090.22
0.425401	1105.36
0.486848	1110.41
0.562475	1120.5
0.614469	1135.65
0.699549	1140.69
0.763359	1145.74
0.850803	1160.88
0.909886	1170.98
0.959516	1186.12
0.99024	1216.4
1.00442	1256.78
