Adsorption isotherm of Carbon Dioxide on Activated Carbon VR5-2.5:1
DOI: 10.1016/j.carbon.2013.09.086
Adsorbate Carbon Dioxide: InChIKey CURLTUGMZLYLDI-UHFFFAOYSA-N
Temperature: 298 K
Tabular data in the source: 0
pressure (bar)	uptake (mmol/g)
0.534759	1.18
0.668449	2.19033
1.06952	3.36988
1.87166	5.39234
5.08021	9.94762
10.4278	13.8368
15.2406	15.8728
20.0535	17.4038
25.1337	18.4308
30.2139	19.2895
35.4278	19.9803
40.2406	21.343
43.3155	21.8583
45.1872	22.5379
45.8556	22.8767
