Adsorption isotherm of Nitrogen on Activated Carbon VR93-2:1
DOI: 10.1016/j.carbon.2013.09.086
Adsorbate Nitrogen: InChIKey IJGRMHOSHXDMSA-UHFFFAOYSA-N
Temperature: 77 K
Tabular data in the source: 0
pressure (bar)	uptake (cm3(STP)/g)
0.00784654	438.217
0.0101822	397.452
0.0222573	458.599
0.0390724	484.076
0.0510788	499.363
0.0678863	519.745
0.0774808	524.841
0.0966697	535.032
0.118248	540.127
0.144619	545.223
0.175776	545.223
0.209345	555.414
0.250089	555.414
0.281254	560.51
0.319609	565.605
0.389114	565.605
0.463419	570.701
0.554494	570.701
0.616824	580.892
0.686328	580.892
0.779784	570.701
0.837313	575.796
0.92361	585.987
0.978741	591.083
1.00272	601.274
