Adsorption isotherm of Nitrogen on Activated Carbon VR93-1:1
DOI: 10.1016/j.carbon.2013.09.086
Adsorbate Nitrogen: InChIKey IJGRMHOSHXDMSA-UHFFFAOYSA-N
Temperature: 77 K
Tabular data in the source: 0
pressure (bar)	uptake (cm3(STP)/g)
0.010083	331.21
0.0197079	356.688
0.0389045	371.975
0.0532924	377.07
0.077267	382.166
0.103638	387.261
0.144382	387.261
0.173151	392.357
0.216299	397.452
0.254639	392.357
0.29539	397.452
0.328944	397.452
0.400845	397.452
0.496713	397.452
0.573423	407.643
0.654911	407.643
0.769961	412.739
0.832268	407.643
0.92335	412.739
0.992862	417.834
1.00968	443.312
