Adsorption isotherm of Carbon Dioxide on Activated Carbon VR5-2:1
DOI: 10.1016/j.carbon.2013.09.086
Adsorbate Carbon Dioxide: InChIKey CURLTUGMZLYLDI-UHFFFAOYSA-N
Temperature: 298 K
Tabular data in the source: 0
pressure (bar)	uptake (mmol/g)
2.00535	5.72942
5.08021	10.1159
10.1604	14.1726
14.9733	16.2085
20.0535	17.5721
25.2674	18.7679
30.2139	19.7944
35.1604	20.4843
40.2406	22.0163
42.9144	22.8668
46.3904	23.5518
