Adsorption isotherm of Carbon Dioxide on Activated Carbon VR5-1:1
DOI: 10.1016/j.carbon.2013.09.086
Adsorbate Carbon Dioxide: InChIKey CURLTUGMZLYLDI-UHFFFAOYSA-N
Temperature: 298 K
Tabular data in the source: 0
pressure (bar)	uptake (mmol/g)
3.07487	6.7429
5.48128	9.1074
10.6952	11.1447
15.107	12.0011
20.1872	12.5232
25.1337	12.8765
30.0802	13.3981
35.2941	13.9205
38.1016	13.93
40.3743	14.2743
43.1818	14.6204
46.2567	14.799
