Adsorption isotherm of Nitrogen on Activated Carbon VR93-2.5:1
DOI: 10.1016/j.carbon.2013.09.086
Adsorbate Nitrogen: InChIKey IJGRMHOSHXDMSA-UHFFFAOYSA-N
Temperature: 77 K
Tabular data in the source: 0
pressure (bar)	uptake (cm3(STP)/g)
0.000564829	377.07
0.017586	540.127
0.0224481	585.987
0.0753054	672.611
0.0897162	692.994
0.106516	708.28
0.128102	718.471
0.154473	723.567
0.183249	733.758
0.219207	738.854
0.255173	749.045
0.295924	754.14
0.336668	754.14
0.406181	759.236
0.511651	769.427
0.607527	774.522
0.686618	774.522
0.768114	779.618
0.844808	779.618
0.849609	784.713
0.940692	789.809
1.01021	800
