Adsorption isotherm of Nitrogen on Activated Carbon VR5-3:1
DOI: 10.1016/j.carbon.2013.09.086
Adsorbate Nitrogen: InChIKey IJGRMHOSHXDMSA-UHFFFAOYSA-N
Temperature: 77 K
Tabular data in the source: 0
pressure (bar)	uptake (cm3(STP)/g)
0.00709002	514.826
0.0118167	560.252
0.0236334	605.678
0.0354501	630.915
0.0472668	671.293
0.0709002	706.625
0.0874436	741.956
0.108714	767.192
0.129984	792.429
0.144164	802.524
0.163071	822.713
0.179614	822.713
0.200884	832.808
0.212701	842.902
0.243424	858.044
0.269421	863.091
0.293054	858.044
0.326141	868.139
0.378135	878.233
0.449035	883.281
0.519935	888.328
0.699549	903.47
0.758632	903.47
0.834259	913.565
0.881526	913.565
0.94061	923.659
0.98315	938.801
0.999693	974.132
