Adsorption isotherm of Carbon Dioxide on Activated Carbon VR5-3:1
DOI: 10.1016/j.carbon.2013.09.086
Adsorbate Carbon Dioxide: InChIKey CURLTUGMZLYLDI-UHFFFAOYSA-N
Temperature: 298 K
Tabular data in the source: 0
pressure (bar)	uptake (mmol/g)
2.00535	4.55122
4.54545	9.44088
9.89305	14.8449
15.107	18.5654
17.6471	19.5838
20.1872	20.9389
22.861	22.1261
25.1337	22.9753
27.9412	23.9946
30.2139	24.6755
33.1551	25.3587
35.4278	25.8713
38.1016	26.7218
40.3743	27.2344
43.1818	28.0855
45.0535	28.5967
45.9893	28.9365
