Adsorption isotherm of Nitrogen on Activated Carbon VR5-2:1
DOI: 10.1016/j.carbon.2013.09.086
Adsorbate Nitrogen: InChIKey IJGRMHOSHXDMSA-UHFFFAOYSA-N
Temperature: 77 K
Tabular data in the source: 0
pressure (bar)	uptake (cm3(STP)/g)
0.00945336	469.401
0.0212701	514.826
0.0307234	545.11
0.0519935	575.394
0.0661735	590.536
0.0803536	595.584
0.0992603	610.726
0.129984	615.773
0.158344	630.915
0.191431	630.915
0.226881	641.009
0.267058	646.057
0.311961	635.962
0.382861	651.104
0.472668	656.151
0.564839	656.151
0.638102	661.199
0.709002	661.199
0.803536	666.246
0.886253	671.293
0.96188	681.388
0.994967	711.672
1.00442	747.003
