Adsorption isotherm of Nitrogen on Activated Carbon VR5-1:1
DOI: 10.1016/j.carbon.2013.09.086
Adsorbate Nitrogen: InChIKey IJGRMHOSHXDMSA-UHFFFAOYSA-N
Temperature: 77 K
Tabular data in the source: 0
pressure (bar)	uptake (cm3(STP)/g)
0.00236334	338.17
0.0118167	378.549
0.0259968	393.691
0.0425401	403.785
0.0661735	408.833
0.125257	429.022
0.155981	423.975
0.189067	434.069
0.229244	429.022
0.271784	434.069
0.314324	434.069
0.385225	434.069
0.465578	434.069
0.543568	439.117
0.628649	434.069
0.699549	444.164
0.801173	439.117
0.8768	444.164
0.931156	449.211
0.97606	454.259
0.992603	469.401
1.00206	484.543
