Adsorption isotherm of Carbon Dioxide on Activated Carbon VR5-4:1
DOI: 10.1016/j.carbon.2013.09.086
Adsorbate Carbon Dioxide: InChIKey CURLTUGMZLYLDI-UHFFFAOYSA-N
Temperature: 298 K
Tabular data in the source: 0
pressure (bar)	uptake (mmol/g)
2.27273	4.72044
4.94652	9.1056
9.89305	14.5083
14.9733	18.5649
20.1872	21.7804
22.3262	23.1342
25	24.8263
27.9412	26.351
30.0802	27.7047
32.754	28.7236
35.2941	30.0787
37.8342	31.2654
40.2406	32.1151
43.1818	33.1349
46.123	34.323
