Adsorption isotherm of Nitrogen on Activated Carbon VR5-2.5:1
DOI: 10.1016/j.carbon.2013.09.086
Adsorbate Nitrogen: InChIKey IJGRMHOSHXDMSA-UHFFFAOYSA-N
Temperature: 77 K
Tabular data in the source: 0
pressure (bar)	uptake (cm3(STP)/g)
0.00236334	358.36
0.00945336	479.495
0.0165434	524.921
0.0378135	560.252
0.0638102	595.584
0.089807	625.868
0.13471	641.009
0.193794	651.104
0.255241	661.199
0.321414	666.246
0.413585	671.293
0.515208	671.293
0.628649	681.388
0.709002	686.435
0.812989	686.435
0.90516	696.53
0.952426	706.625
0.99024	731.861
