Adsorption isotherm of Nitrogen on Activated Carbon VR93-3:1
DOI: 10.1016/j.carbon.2013.09.086
Adsorbate Nitrogen: InChIKey IJGRMHOSHXDMSA-UHFFFAOYSA-N
Temperature: 77 K
Tabular data in the source: 0
pressure (bar)	uptake (cm3(STP)/g)
0.00794577	504.459
0.0224252	570.701
0.0440643	616.561
0.065711	667.516
0.0873347	703.185
0.101768	738.854
0.113767	749.045
0.125781	769.427
0.147405	805.096
0.159411	820.382
0.176211	835.669
0.193019	856.051
0.209826	876.433
0.224214	881.529
0.241022	901.911
0.267401	912.102
0.281804	927.389
0.30819	942.675
0.365727	952.866
0.432865	973.248
0.499988	983.439
0.588681	993.631
0.66778	998.726
0.746887	1008.92
0.823589	1014.01
0.914679	1024.2
0.965025	1034.39
1.0082	1054.78
