Adsorption isotherm of Methane on Nanoporous Carbon Model C24
DOI: 10.1260/0263-6174.30.8-9.669
Adsorbate Methane: InChIKey VNWKTOKETHGBQD-UHFFFAOYSA-N
Temperature: 298 K
Tabular data in the source: 0
pressure (bar)	uptake (mmol/g)
0.233758	0.129032
0.979745	0.322581
2.00555	0.596774
2.98425	0.806452
3.96324	1.04839
4.9886	1.27419
6.0138	1.48387
7.03901	1.69355
7.97089	1.87097
8.99595	2.06452
9.97449	2.25806
11.0458	2.41935
12.0239	2.56452
13.0024	2.75806
14.027	2.90323
15.0051	3.04839
16.0761	3.17742
17.0543	3.33871
18.0323	3.46774
19.057	3.62903
