Adsorption isotherm of Carbon Dioxide on Nanoporous Carbon Model C54
DOI: 10.1260/0263-6174.30.8-9.669
Adsorbate Carbon Dioxide: InChIKey CURLTUGMZLYLDI-UHFFFAOYSA-N
Temperature: 298 K
Tabular data in the source: 0
pressure (bar)	uptake (mmol/g)
0.910349	0.393701
1.89651	0.813648
3.94306	1.46982
5.914	2.12598
9.93049	3.30709
13.9462	4.3832
17.9613	5.38058
21.9756	6.27297
26.0659	7.21785
30.0038	8.00525
34.0931	8.8189
37.9552	9.58005
