Adsorption isotherm of Carbon Dioxide on Nanoporous Carbon Model C54
DOI: 10.1260/0263-6174.30.8-9.669
Adsorbate Carbon Dioxide: InChIKey CURLTUGMZLYLDI-UHFFFAOYSA-N
Temperature: 298 K
Tabular data in the source: 0
pressure (bar)	uptake (mmol/g)
1.97153	0.734908
2.9571	1.07612
3.86665	1.36483
5.00325	1.67979
5.91261	1.94226
6.82196	2.20472
7.95836	2.49344
8.86772	2.75591
9.92771	2.93963
10.9883	3.2021
12.0485	3.41207
12.9572	3.5958
14.0176	3.83202
15.002	4.01575
15.9866	4.22572
16.9708	4.3832
18.0308	4.56693
19.0149	4.72441
19.9993	4.90814
20.9835	5.06562
22.0433	5.2231
23.0273	5.35433
24.0872	5.53806
24.9956	5.66929
25.9794	5.77428
27.0392	5.93176
27.9475	6.06299
29.0073	6.22047
29.9911	6.32546
30.9751	6.45669
32.0347	6.58793
32.9425	6.64042
34.0021	6.77165
35.0616	6.90289
35.894	6.98163
36.9534	7.08661
38.9964	7.27034
