Adsorption isotherm of Carbon Dioxide on Nanoporous Carbon Model C150
DOI: 10.1260/0263-6174.30.8-9.669
Adsorbate Carbon Dioxide: InChIKey CURLTUGMZLYLDI-UHFFFAOYSA-N
Temperature: 298 K
Tabular data in the source: 0
pressure (bar)	uptake (mmol/g)
0.327538	0.504854
1.02883	1.43689
2.00903	2.3301
2.98818	2.95146
3.96719	3.53398
5.03891	4.03883
6.06427	4.58252
7.04267	5.00971
8.02137	5.51456
9.04614	5.90291
10.0244	6.29126
11.0031	6.79612
12.028	7.2233
13.0526	7.57282
14.031	8
15.0094	8.42718
16.0807	8.81553
17.0589	9.20388
18.0834	9.51456
19.0618	9.94175
