Adsorption isotherm of Carbon Dioxide on Nanoporous Carbon Model C24
DOI: 10.1260/0263-6174.30.8-9.669
Adsorbate Carbon Dioxide: InChIKey CURLTUGMZLYLDI-UHFFFAOYSA-N
Temperature: 298 K
Tabular data in the source: 0
pressure (bar)	uptake (mmol/g)
0.907899	0.418848
2.041	0.753927
2.94811	1.08901
4.98753	1.67539
7.02675	2.24084
7.93307	2.49215
8.83959	2.7644
9.9719	3.01571
11.0287	3.24607
11.8591	3.43455
12.9163	3.70681
13.9726	3.89529
14.9541	4.12565
15.9354	4.33508
16.916	4.48168
17.8965	4.60733
18.9533	4.8377
19.9337	4.96335
20.9142	5.08901
21.8955	5.29843
22.9513	5.42408
23.8564	5.54974
25.0629	5.67539
26.0433	5.80105
26.9487	5.94764
28.0045	6.0733
29.1352	6.15707
29.9646	6.24084
31.0955	6.34555
32.0001	6.40838
32.9807	6.55497
34.1115	6.63874
34.9407	6.70157
37.9558	6.91099
39.0116	7.03665
