Adsorption isotherm of Methane on Nanoporous Carbon Model C54
DOI: 10.1260/0263-6174.30.8-9.669
Adsorbate Methane: InChIKey VNWKTOKETHGBQD-UHFFFAOYSA-N
Temperature: 298 K
Tabular data in the source: 0
pressure (bar)	uptake (mmol/g)
0.833147	0.183727
1.96855	0.341207
4.01193	0.577428
5.97969	0.813648
9.839	1.20735
14	1.49606
18.0851	1.75853
21.8676	1.99475
26.0278	2.17848
29.8857	2.38845
34.0457	2.54593
38.0545	2.70341
