Adsorption isotherm of Carbon Dioxide on Nanoporous Carbon Model C150
DOI: 10.1260/0263-6174.30.8-9.669
Adsorbate Carbon Dioxide: InChIKey CURLTUGMZLYLDI-UHFFFAOYSA-N
Temperature: 298 K
Tabular data in the source: 0
pressure (bar)	uptake (mmol/g)
0.895739	0.866729
2.01941	1.41865
2.9185	1.83919
3.96817	2.23357
4.94324	2.54918
5.99369	2.83858
6.96916	3.10169
7.94443	3.39104
8.91989	3.65415
9.89615	3.81227
10.8718	4.04913
11.9229	4.25979
12.8987	4.47041
13.95	4.65482
14.9258	4.86544
15.9021	5.02356
16.8783	5.18168
17.9294	5.39234
18.9056	5.55046
20.8576	5.94544
21.9842	6.10366
22.8097	6.31418
24.9131	6.55178
25.8144	6.68361
26.8657	6.86802
27.9173	6.99995
28.8182	7.18426
29.7196	7.28984
30.9218	7.39562
31.9729	7.60628
32.8743	7.71186
33.8514	7.76499
34.902	8.02815
35.8039	8.08124
36.8557	8.18691
37.8324	8.29254
38.809	8.39817
