Adsorption isotherm of Carbon Dioxide on Nanoporous Carbon Model C150
DOI: 10.1260/0263-6174.30.8-9.669
Adsorbate Carbon Dioxide: InChIKey CURLTUGMZLYLDI-UHFFFAOYSA-N
Temperature: 298 K
Tabular data in the source: 0
pressure (bar)	uptake (mmol/g)
0.972505	0.656806
2.02197	1.07744
3.97054	1.91862
11.8489	4.10226
15.9025	4.97106
19.9567	5.76113
23.9365	6.44615
27.9917	7.10498
31.9717	7.76376
35.8021	8.31746
38.8817	8.73942
