Adsorption isotherm of Methane on Nanoporous Carbon Model C150
DOI: 10.1260/0263-6174.30.8-9.669
Adsorbate Methane: InChIKey VNWKTOKETHGBQD-UHFFFAOYSA-N
Temperature: 298 K
Tabular data in the source: 0
pressure (bar)	uptake (mmol/g)
0.976057	0.184367
1.95231	0.342488
3.07973	0.395722
4.05618	0.527596
5.03323	0.58073
5.93469	0.686309
6.98672	0.765739
8.94061	0.898255
9.99265	0.977685
10.9699	1.00457
12.9234	1.18958
13.9006	1.21647
14.8779	1.24336
16.9069	1.37592
17.9592	1.42911
18.936	1.50849
20.8901	1.61476
21.9425	1.64169
22.9952	1.64239
24.9491	1.7749
25.8513	1.77549
26.9035	1.82868
28.8578	1.9087
29.9101	1.96188
30.8879	1.91003
32.842	2.0163
33.894	2.09573
36.8263	2.09766
37.8786	2.15084
39.0062	2.17783
