Adsorption isotherm of Methane on Nanoporous Carbon Model C150
DOI: 10.1260/0263-6174.30.8-9.669
Adsorbate Methane: InChIKey VNWKTOKETHGBQD-UHFFFAOYSA-N
Temperature: 298 K
Tabular data in the source: 0
pressure (bar)	uptake (mmol/g)
0.976057	0.184367
1.95211	0.368735
4.05579	0.580089
7.96258	0.976353
11.9458	1.21519
15.9289	1.45402
20.0625	1.69295
23.9708	1.87925
28.03	2.01314
31.8638	2.12065
35.9231	2.2283
39.0048	2.36155
