Adsorption isotherm of Carbon Dioxide on Nanoporous Carbon Model C24
DOI: 10.1260/0263-6174.30.8-9.669
Adsorbate Carbon Dioxide: InChIKey CURLTUGMZLYLDI-UHFFFAOYSA-N
Temperature: 298 K
Tabular data in the source: 0
pressure (bar)	uptake (mmol/g)
1.96508	0.691099
3.92976	1.34031
5.96957	1.96859
9.97269	3.09948
14.0498	4.08377
18.0501	4.92147
21.9741	5.65445
26.0481	6.30366
31.0247	6.82723
33.9665	7.24607
37.9627	7.64398
