Adsorption isotherm of Carbon Dioxide on Nanoporous Carbon Model C96
DOI: 10.1260/0263-6174.30.8-9.669
Adsorbate Carbon Dioxide: InChIKey CURLTUGMZLYLDI-UHFFFAOYSA-N
Temperature: 298 K
Tabular data in the source: 0
pressure (bar)	uptake (mmol/g)
0.98556	0.340314
2.04535	0.497382
2.95371	0.628272
4.99708	0.863874
5.83003	1.02094
6.96523	1.15183
7.94881	1.23037
9.0082	1.33508
9.99198	1.43979
10.9756	1.51832
12.0348	1.59686
12.9433	1.75393
14.0783	1.85864
14.9861	1.91099
15.9699	2.01571
16.9535	2.09424
18.0126	2.17277
18.9964	2.27749
19.9798	2.32984
21.0392	2.43455
22.0224	2.46073
22.9306	2.56545
24.0652	2.6178
24.9731	2.69634
25.8807	2.72251
27.0157	2.82723
28.0747	2.87958
28.9071	2.95812
30.0417	3.01047
31.0254	3.11518
31.9332	3.16754
32.9922	3.2199
33.9756	3.27225
34.959	3.32461
35.9424	3.37696
37.0018	3.48168
37.9849	3.50785
38.9683	3.56021
