Adsorption isotherm of Carbon Dioxide on Nanoporous Carbon Model C96
DOI: 10.1260/0263-6174.30.8-9.669
Adsorbate Carbon Dioxide: InChIKey CURLTUGMZLYLDI-UHFFFAOYSA-N
Temperature: 298 K
Tabular data in the source: 0
pressure (bar)	uptake (mmol/g)
0.916676	1.23037
1.90382	1.7801
2.96618	2.27749
3.87613	2.6178
4.9377	3.01047
5.99808	3.24607
6.90803	3.58639
7.96801	3.76963
8.95298	4.03141
9.93794	4.29319
10.9221	4.45026
11.9067	4.65969
12.9669	4.86911
14.0267	5.02618
14.9358	5.26178
15.996	5.4712
16.9802	5.62827
17.9644	5.78534
19.0243	5.96859
20.0087	6.15183
20.9929	6.3089
21.9775	6.51832
22.9614	6.64921
24.0204	6.70157
25.0048	6.88482
25.9143	7.17277
26.9737	7.27749
27.9577	7.40838
29.0175	7.56545
29.9257	7.67016
31.0613	7.8534
32.0451	7.95812
33.1044	8.06283
34.013	8.2199
34.9966	8.29843
36.0562	8.42932
37.0402	8.56021
38.0239	8.66492
39.0075	8.74346
