Adsorption isotherm of Methane on Nanoporous Carbon Model C24
DOI: 10.1260/0263-6174.30.8-9.669
Adsorbate Methane: InChIKey VNWKTOKETHGBQD-UHFFFAOYSA-N
Temperature: 298 K
Tabular data in the source: 0
pressure (bar)	uptake (mmol/g)
0.90566	0.168898
1.96226	0.274717
3.01887	0.380536
3.92453	0.486276
4.98113	0.571043
5.96226	0.676822
6.9434	0.761549
8	0.888421
9.0566	0.931082
10.0377	1.01581
10.9434	1.12155
11.9245	1.16417
12.9057	1.22785
14.9434	1.31313
15.9245	1.35575
16.9811	1.44052
18.0377	1.48318
18.9434	1.52576
19.9245	1.56838
20.9811	1.56894
21.9623	1.61156
22.9434	1.63313
24	1.67579
24.9811	1.71841
27.0189	1.74054
28	1.78316
28.9811	1.78367
30.0377	1.82634
30.9434	1.82681
32	1.86947
32.9811	1.82788
34.0377	1.8916
34.8679	1.89204
36	1.89263
36.9811	1.89315
37.9623	1.91472
39.0943	1.91531
