Adsorption isotherm of Methane on Nanoporous Carbon Model C24
DOI: 10.1260/0263-6174.30.8-9.669
Adsorbate Methane: InChIKey VNWKTOKETHGBQD-UHFFFAOYSA-N
Temperature: 298 K
Tabular data in the source: 0
pressure (bar)	uptake (mmol/g)
1.96226	0.274717
2.9434	0.401549
3.92453	0.507329
5.88679	0.697835
8	0.888421
9.88679	1.03678
13.9623	1.31261
18.0377	1.52528
22.0377	1.67476
26.1132	1.84532
30.9434	1.97418
33.8868	2.03889
37.9623	2.10419
