Adsorption isotherm of Carbon Dioxide on Nanoporous Carbon Model C96
DOI: 10.1260/0263-6174.30.8-9.669
Adsorbate Carbon Dioxide: InChIKey CURLTUGMZLYLDI-UHFFFAOYSA-N
Temperature: 298 K
Tabular data in the source: 0
pressure (bar)	uptake (mmol/g)
0.234816	0.582524
0.983819	1.82524
2.01069	2.75728
2.94333	3.37864
3.96884	3.96117
4.90103	4.46602
6.01927	4.97087
7.04448	5.47573
8.02273	5.86408
9.04794	6.36893
9.97968	6.75728
11.0047	7.2233
12.0295	7.61165
13.0544	8.03883
14.0327	8.42718
15.0576	8.85437
16.0822	9.20388
17.0607	9.6699
18.0855	10.0583
19.0634	10.3689
