Adsorption isotherm of Methane on Nanoporous Carbon Model C150
DOI: 10.1260/0263-6174.30.8-9.669
Adsorbate Methane: InChIKey VNWKTOKETHGBQD-UHFFFAOYSA-N
Temperature: 298 K
Tabular data in the source: 0
pressure (bar)	uptake (mmol/g)
0.468117	0.322581
1.02836	0.548387
2.0087	0.935484
2.52168	1.08065
3.03496	1.25806
3.96774	1.53226
5.04006	1.80645
6.0189	2.03226
6.99775	2.25806
8.02326	2.5
9.0015	2.66129
10.0266	2.85484
11.0516	3.04839
11.9835	3.22581
13.1011	3.37097
14.0332	3.56452
15.0576	3.69355
16.0821	3.82258
17.0606	4.01613
18.0387	4.16129
19.063	4.27419
