Adsorption isotherm of Carbon Dioxide on Nanoporous Carbon Model C96
DOI: 10.1260/0263-6174.30.8-9.669
Adsorbate Carbon Dioxide: InChIKey CURLTUGMZLYLDI-UHFFFAOYSA-N
Temperature: 298 K
Tabular data in the source: 0
pressure (bar)	uptake (mmol/g)
0.985362	0.314136
3.93749	0.732984
7.87201	1.0733
12.0332	1.38743
16.0421	1.57068
21.0343	1.7801
23.9086	1.91099
28.0686	2.06806
32.9845	2.19895
36.0101	2.32984
39.0348	2.35602
