Adsorption isotherm of Carbon Dioxide on Nanoporous Carbon Model C96
DOI: 10.1260/0263-6174.30.8-9.669
Adsorbate Carbon Dioxide: InChIKey CURLTUGMZLYLDI-UHFFFAOYSA-N
Temperature: 298 K
Tabular data in the source: 0
pressure (bar)	uptake (mmol/g)
0.989321	0.837696
3.94857	2.19895
7.96564	3.4555
11.9809	4.47644
15.9952	5.36649
20.9917	6.15183
23.9462	6.88482
28.0341	7.51309
33.0292	8.11518
36.0582	8.6911
39.0101	9.08377
