Adsorption isotherm of Carbon Dioxide on Nanoporous Carbon Model C54
DOI: 10.1260/0263-6174.30.8-9.669
Adsorbate Carbon Dioxide: InChIKey CURLTUGMZLYLDI-UHFFFAOYSA-N
Temperature: 298 K
Tabular data in the source: 0
pressure (bar)	uptake (mmol/g)
0.910945	0.472441
1.97292	0.918635
2.88267	1.2336
3.86824	1.5748
4.85341	1.86352
5.91439	2.17848
6.89936	2.44094
7.95995	2.70341
8.94472	2.93963
10.9147	3.46457
11.824	3.72703
12.96	3.96325
15.005	4.40945
15.9898	4.64567
16.8987	4.85564
18.0345	5.06562
19.0193	5.30184
19.8522	5.45932
20.9884	5.72178
22.0484	5.90551
22.9572	6.08924
23.9414	6.24672
25.0016	6.45669
25.9855	6.58793
26.9703	6.82415
27.9543	6.95538
29.0141	7.11286
29.9221	7.1916
30.9822	7.40157
32.0416	7.50656
32.9498	7.61155
33.9332	7.66404
34.9934	7.87402
35.977	7.95276
36.9607	8.05774
38.0209	8.26772
38.9283	8.26772
