Adsorption isotherm of Carbon Dioxide on Nanoporous Carbon Model C150
DOI: 10.1260/0263-6174.30.8-9.669
Adsorbate Carbon Dioxide: InChIKey CURLTUGMZLYLDI-UHFFFAOYSA-N
Temperature: 298 K
Tabular data in the source: 0
pressure (bar)	uptake (mmol/g)
0.896134	0.814236
1.94501	1.31361
2.99448	1.73425
3.96994	1.99736
4.94521	2.28671
5.92088	2.52357
6.89634	2.78668
7.872	3.02354
8.99804	3.2605
9.9741	3.44486
10.95	3.65548
11.9258	3.86609
12.9771	4.05051
13.9531	4.23488
14.9288	4.47174
15.9802	4.62991
16.9565	4.78803
17.9325	4.9724
18.984	5.13057
19.9602	5.28869
20.9363	5.47306
21.9125	5.63118
22.8888	5.7893
23.9406	5.89497
24.9921	6.05314
26.0435	6.21131
26.8696	6.34309
27.9212	6.47501
28.9727	6.63318
29.9491	6.76506
30.8506	6.87064
31.902	7.02881
32.8785	7.16068
33.8551	7.26631
34.9068	7.39823
35.8082	7.50381
36.8599	7.63573
37.8365	7.74136
38.8132	7.84699
