Adsorption isotherm of Methane on Nanoporous Carbon Model C54
DOI: 10.1260/0263-6174.30.8-9.669
Adsorbate Methane: InChIKey VNWKTOKETHGBQD-UHFFFAOYSA-N
Temperature: 298 K
Tabular data in the source: 0
pressure (bar)	uptake (mmol/g)
0.980045	0.354839
1.95934	0.629032
2.9853	0.919355
3.96429	1.16129
4.98995	1.41935
5.96879	1.64516
6.94764	1.87097
8.01935	2.08065
8.9979	2.27419
10.023	2.46774
11.0015	2.66129
12.0266	2.85484
13.0516	3.04839
14.0299	3.20968
15.0083	3.3871
16.0329	3.53226
17.0578	3.70968
18.0359	3.85484
19.0608	4.03226
