Adsorption isotherm of Carbon Dioxide on Nanoporous Carbon Model C24
DOI: 10.1260/0263-6174.30.8-9.669
Adsorbate Carbon Dioxide: InChIKey CURLTUGMZLYLDI-UHFFFAOYSA-N
Temperature: 298 K
Tabular data in the source: 0
pressure (bar)	uptake (mmol/g)
0.983031	0.397906
1.81501	0.753927
3.02344	1.08901
4.00588	1.42408
5.06325	1.71728
5.89464	2.01047
6.95181	2.28272
8.00899	2.55497
8.91531	2.80628
10.0474	3.03665
11.0287	3.24607
12.0101	3.47644
12.9914	3.68586
14.0478	3.87435
15.029	4.08377
16.0856	4.29319
17.0663	4.43979
17.9718	4.60733
19.0278	4.75393
20.084	4.92147
20.9895	5.08901
22.0455	5.2356
23.1013	5.36126
24.0818	5.48691
24.9869	5.61257
26.0429	5.75916
27.0236	5.90576
28.079	5.98953
29.0595	6.11518
30.0399	6.24084
31.02	6.32461
32.0005	6.45026
32.9805	6.53403
34.0361	6.63874
35.0917	6.74346
35.9965	6.82723
37.0519	6.91099
38.1075	7.01571
39.0876	7.09948
