Adsorption isotherm of Methane on Nanoporous Carbon Model C54
DOI: 10.1260/0263-6174.30.8-9.669
Adsorbate Methane: InChIKey VNWKTOKETHGBQD-UHFFFAOYSA-N
Temperature: 298 K
Tabular data in the source: 0
pressure (bar)	uptake (mmol/g)
0.983979	0.131234
1.96855	0.341207
2.87712	0.498688
3.93651	0.603675
4.92069	0.761155
6.0557	0.866142
6.88825	0.971129
7.94784	1.10236
9.00724	1.20735
9.99102	1.31234
10.9748	1.41732
12.034	1.49606
12.9422	1.60105
14.0768	1.65354
14.9847	1.73228
16.0443	1.86352
16.8763	1.88976
18.0113	1.99475
18.9947	2.04724
20.0541	2.15223
20.886	2.17848
21.9452	2.25722
22.9286	2.30971
23.912	2.3622
24.9716	2.49344
26.0306	2.54593
27.0138	2.57218
27.9972	2.62467
29.056	2.65092
29.9639	2.72966
31.0227	2.75591
32.0819	2.83465
32.9895	2.86089
33.9729	2.91339
34.8806	2.96588
36.0153	3.01837
36.9984	3.04462
37.9062	3.09711
39.0404	3.09711
