Adsorption isotherm of Methane on Nanoporous Carbon Model C150
DOI: 10.1260/0263-6174.30.8-9.669
Adsorbate Methane: InChIKey VNWKTOKETHGBQD-UHFFFAOYSA-N
Temperature: 298 K
Tabular data in the source: 0
pressure (bar)	uptake (mmol/g)
0.976255	0.158121
3.07894	0.500708
4.95725	0.685667
6.08388	0.843887
7.06053	0.949515
8.93904	1.10823
9.99087	1.2139
11.0427	1.31958
12.0945	1.42526
12.9964	1.47834
13.8979	1.58392
14.8747	1.6633
16.0019	1.74278
16.979	1.79592
17.9556	1.90155
18.9325	1.98093
20.0599	2.03416
21.0367	2.11354
22.0134	2.21917
23.0656	2.27235
24.0427	2.32549
24.9443	2.40482
25.9964	2.48425
26.8982	2.53733
28.0256	2.59057
29.0025	2.66995
29.9797	2.69684
30.9566	2.77622
31.9336	2.82935
32.8355	2.88244
33.9631	2.90942
34.9397	3.01505
35.992	3.06824
36.9688	3.14762
37.8709	3.17446
38.8481	3.20134
