Adsorption isotherm of Methane on Nanoporous Carbon Model C96
DOI: 10.1260/0263-6174.30.8-9.669
Adsorbate Methane: InChIKey VNWKTOKETHGBQD-UHFFFAOYSA-N
Temperature: 298 K
Tabular data in the source: 0
pressure (bar)	uptake (mmol/g)
0.141335	0.193548
0.702626	0.532258
0.983346	0.709677
1.35709	0.887097
2.0105	1.12903
2.38395	1.27419
2.8042	1.45161
3.03736	1.51613
3.73713	1.74194
4.0168	1.80645
4.48327	1.95161
4.90263	2.03226
5.6024	2.25806
6.02191	2.35484
7.0006	2.56452
8.02581	2.77419
9.05116	3
10.0299	3.20968
11.0545	3.35484
12.0794	3.53226
13.0579	3.72581
14.0827	3.8871
14.4552	3.93548
15.1074	4.04839
16.039	4.19355
16.6444	4.27419
17.1101	4.33871
18.0885	4.51613
18.6473	4.58065
19.0663	4.62903
