Adsorption isotherm of Methane on Nanoporous Carbon Model C54
DOI: 10.1260/0263-6174.30.8-9.669
Adsorbate Methane: InChIKey VNWKTOKETHGBQD-UHFFFAOYSA-N
Temperature: 298 K
Tabular data in the source: 0
pressure (bar)	uptake (mmol/g)
0.984574	0.209974
1.89294	0.341207
4.01193	0.577428
4.92009	0.682415
6.88766	0.892388
7.87084	0.918635
8.93063	1.07612
10.9732	1.20735
11.8814	1.31234
11.9566	1.25984
12.8646	1.33858
14.8319	1.52231
15.9665	1.5748
16.8741	1.60105
18.8413	1.75853
19.9001	1.78478
20.808	1.86352
22.9256	1.91601
23.909	1.9685
24.8922	1.99475
26.7832	2.07349
27.8416	2.04724
28.9008	2.12598
29.8841	2.17848
30.9427	2.17848
31.9261	2.23097
32.9849	2.25722
33.8923	2.25722
34.9507	2.23097
35.8587	2.30971
36.8419	2.33596
37.8999	2.25722
38.9593	2.3622
