Adsorption isotherm of Carbon Dioxide on Nanoporous Carbon Model C54
DOI: 10.1260/0263-6174.30.8-9.669
Adsorbate Carbon Dioxide: InChIKey CURLTUGMZLYLDI-UHFFFAOYSA-N
Temperature: 298 K
Tabular data in the source: 0
pressure (bar)	uptake (mmol/g)
0.280575	0.38835
0.980357	0.932039
1.95981	1.63107
2.98578	2.3301
4.01114	2.87379
4.99014	3.45631
5.96914	4.03883
6.99466	4.62136
7.97351	5.16505
9.04553	5.74757
9.97802	6.3301
11.0499	6.87379
11.9824	7.45631
13.0543	8
13.9866	8.54369
15.0117	9.00971
15.9901	9.43689
17.0615	9.86408
18.0399	10.2913
19.064	10.5243
