Adsorption isotherm of Carbon Dioxide on Nanoporous Carbon Model C96
DOI: 10.1260/0263-6174.30.8-9.669
Adsorbate Carbon Dioxide: InChIKey CURLTUGMZLYLDI-UHFFFAOYSA-N
Temperature: 298 K
Tabular data in the source: 0
pressure (bar)	uptake (mmol/g)
0.83354	0.235602
1.89333	0.39267
2.87691	0.471204
3.86069	0.575916
4.91988	0.65445
5.97908	0.732984
6.96246	0.78534
7.94624	0.890052
9.00543	0.968586
9.9134	1.04712
10.8968	1.09948
12.0314	1.15183
12.9394	1.23037
13.9988	1.33508
14.9821	1.38743
15.9651	1.38743
16.9487	1.46597
17.9323	1.5445
19.1425	1.59686
19.8989	1.62304
20.9578	1.67539
21.941	1.70157
22.9246	1.7801
23.908	1.83246
24.967	1.88482
25.9502	1.91099
27.0846	1.93717
27.992	1.93717
28.8995	1.96335
29.8827	1.98953
30.8661	2.04188
31.9251	2.09424
32.9081	2.09424
33.9671	2.1466
34.9505	2.19895
36.9921	2.19895
37.8238	2.19895
39.0344	2.30366
