Adsorption isotherm of Carbon Dioxide on Nanoporous Carbon Model C24
DOI: 10.1260/0263-6174.30.8-9.669
Adsorbate Carbon Dioxide: InChIKey CURLTUGMZLYLDI-UHFFFAOYSA-N
Temperature: 298 K
Tabular data in the source: 0
pressure (bar)	uptake (mmol/g)
0.280274	0.31068
0.979905	0.815534
1.95921	1.47573
2.98487	2.09709
4.01069	2.75728
5.03635	3.37864
6.01505	3.8835
7.04042	4.42718
8.01942	5.00971
9.04448	5.47573
10.023	5.94175
11.0017	6.4466
11.9801	6.87379
13.0047	7.2233
14.0297	7.65049
15.0538	7.8835
16.0319	8.23301
17.0097	8.50485
18.0804	8.73786
19.0577	8.8932
