Adsorption isotherm of Carbon Dioxide on Nanoporous Carbon Model C96
DOI: 10.1260/0263-6174.30.8-9.669
Adsorbate Carbon Dioxide: InChIKey CURLTUGMZLYLDI-UHFFFAOYSA-N
Temperature: 298 K
Tabular data in the source: 0
pressure (bar)	uptake (mmol/g)
0.91529	1.04712
1.97825	1.62304
2.96381	1.96335
3.94917	2.27749
4.93433	2.56545
6.07053	2.82723
6.97968	3.06283
8.03987	3.27225
9.02444	3.48168
10.0092	3.71728
10.9938	3.9267
12.0538	4.10995
12.9625	4.29319
13.9471	4.50262
15.0823	4.63351
15.9911	4.81675
16.9752	4.97382
17.9596	5.15707
19.0192	5.28796
19.9279	5.4712
20.9877	5.62827
22.0473	5.75916
23.1073	5.94241
24.0157	6.0733
24.9997	6.20419
26.059	6.3089
26.892	6.46597
28.0272	6.59686
29.0868	6.72775
30.0708	6.85864
30.9789	6.96335
32.0385	7.09424
33.0225	7.22513
34.0061	7.30366
35.0657	7.43455
36.0496	7.56545
37.0334	7.67016
38.0928	7.77487
39.0008	7.8534
