Adsorption isotherm of Methane on Nanoporous Carbon Model C24
DOI: 10.1260/0263-6174.30.8-9.669
Adsorbate Methane: InChIKey VNWKTOKETHGBQD-UHFFFAOYSA-N
Temperature: 298 K
Tabular data in the source: 0
pressure (bar)	uptake (mmol/g)
0.90566	0.10574
1.96226	0.232612
3.01887	0.380536
4	0.486316
4.90566	0.571003
5.96226	0.718928
6.9434	0.782602
7.92453	0.909434
8.98113	0.973148
9.88679	1.05784
11.0943	1.14268
12	1.20632
12.9057	1.31206
14.8679	1.41835
16	1.48211
17.0566	1.56687
18.1132	1.60953
18.9434	1.67313
20.0755	1.73688
20.9057	1.77942
21.9623	1.84314
22.9434	1.88576
24	1.97053
24.9811	1.97104
26.0377	2.0137
26.9434	2.03523
28	2.07789
28.9811	2.16262
30.0377	2.18423
31.0189	2.22685
32.0755	2.26951
32.9811	2.29104
34.0377	2.31265
35.0943	2.37637
36	2.39789
37.0566	2.44056
38.0377	2.46213
39.0189	2.48369
