Adsorption isotherm of Nitrogen on MIL-100(Fe)
DOI: 10.1016/j.micromeso.2008.11.020
Adsorbate Nitrogen: InChIKey IJGRMHOSHXDMSA-UHFFFAOYSA-N
Temperature: 77 K
Tabular data in the source: 0
pressure (bar)	uptake (cm3(STP)/g)
0.00996431	283.513
0.0498215	378.195
0.0996431	444.579
0.199286	501.757
0.292286	506.933
0.390269	512.134
0.48659	522.051
0.586233	522.536
0.677573	527.704
0.778877	528.197
0.875198	533.39
0.961556	562.156
