Adsorption isotherm of Nitrogen on ZIF-8
DOI: 10.1016/j.micromeso.2008.11.020
Adsorbate Nitrogen: InChIKey IJGRMHOSHXDMSA-UHFFFAOYSA-N
Temperature: 77 K
Tabular data in the source: 0
pressure (bar)	uptake (cm3(STP)/g)
0.0113723	343.191
0.0487385	410.895
0.0958523	413.23
0.194954	415.564
0.29568	413.23
0.394782	415.564
0.490634	415.564
0.589735	415.564
0.687212	415.564
0.784689	417.899
0.878917	420.233
0.953649	434.241
