Adsorption isotherm of Water on MIL-100(Fe)
DOI: 10.1016/j.micromeso.2008.11.020
Adsorbate Water: InChIKey XLYOFNOQVPJJNP-UHFFFAOYSA-N
Temperature: 298 K
Tabular data in the source: 0
pressure (bar)	uptake (cm3(STP)/g)
0.00148301	84.5815
0.00296192	105.727
0.00451927	137.445
0.00630923	158.59
0.00778813	179.736
0.00927354	301.322
0.0109213	528.634
0.0125565	560.352
0.0141244	755.947
0.0160024	935.683
0.0172474	946.256
0.0189589	956.828
0.02067	962.115
0.021915	972.687
0.0237042	983.26
0.0251043	988.546
0.0267381	999.119
0.028216	1004.41
0.029773	1030.84
0.030552	1051.98
