Adsorption isotherm of Nitrogen on DUT-4
DOI: 10.1016/j.micromeso.2008.11.020
Adsorbate Nitrogen: InChIKey IJGRMHOSHXDMSA-UHFFFAOYSA-N
Temperature: 77 K
Tabular data in the source: 0
pressure (bar)	uptake (cm3(STP)/g)
0.00487385	347.86
0.0162462	382.879
0.0324923	396.887
0.0471138	410.895
0.0926031	427.237
0.149465	434.241
0.185206	438.911
0.194954	441.245
0.243692	445.914
0.294055	448.249
0.342794	455.253
0.393157	455.253
0.441895	459.922
0.490634	464.591
0.592985	471.595
0.635225	473.93
0.682338	480.934
0.731077	483.268
0.78144	492.607
0.831803	501.946
0.869169	515.953
0.877292	522.957
0.921157	569.65
