Adsorption isotherm of Nitrogen on CuBTC
DOI: 10.1016/j.micromeso.2008.11.020
Adsorbate Nitrogen: InChIKey IJGRMHOSHXDMSA-UHFFFAOYSA-N
Temperature: 77 K
Tabular data in the source: 0
pressure (bar)	uptake (cm3(STP)/g)
0.0162462	396.887
0.100726	422.568
0.186831	431.907
0.196578	434.241
0.292431	441.245
0.386658	445.914
0.479262	452.918
0.48576	450.584
0.576738	457.588
0.583237	457.588
0.674215	462.257
0.682338	462.257
0.771692	466.926
0.778191	466.926
0.869169	471.595
0.872418	471.595
0.965022	478.599
