Adsorption isotherm of Water on ZIF-8
DOI: 10.1016/j.micromeso.2008.11.020
Adsorbate Water: InChIKey XLYOFNOQVPJJNP-UHFFFAOYSA-N
Temperature: 298 K
Tabular data in the source: 0
pressure (bar)	uptake (cm3(STP)/g)
0.000466589	0.813425
0.00171083	0.780725
0.00326612	0.739849
0.00482142	1.52466
0.00637672	1.48379
0.00785425	2.27064
0.00956508	2.22568
0.0109648	3.01458
0.0130645	2.9594
0.014231	3.75443
0.0156307	4.54333
0.0178859	5.30975
0.0188969	5.28318
0.0213076	6.8712
0.0223185	7.67032
0.0239516	8.45308
0.0251958	10.0718
0.0269066	14.1552
0.0285397	21.5435
0.0298617	46.2794
0.0307171	152.771
