Adsorption isotherm of Water on DUT-4
DOI: 10.1016/j.micromeso.2008.11.020
Adsorbate Water: InChIKey XLYOFNOQVPJJNP-UHFFFAOYSA-N
Temperature: 298 K
Tabular data in the source: 0
pressure (bar)	uptake (cm3(STP)/g)
0.0019486	3.0837
0.00311763	6.1674
0.0047544	9.2511
0.00631321	12.3348
0.00779406	15.4185
0.00989858	18.5022
0.0112232	24.6696
0.0124702	27.7533
0.0141059	40.0881
0.0156623	64.7577
0.0172153	120.264
0.0186889	188.106
0.0203102	329.956
0.0219343	447.137
0.0237253	465.639
0.0251275	474.89
0.0266842	496.476
0.0282393	533.48
0.0297916	595.154
0.0303301	659.912
