Adsorption isotherm of Nitrogen on MIL-101
DOI: 10.1016/j.micromeso.2008.11.020
Adsorbate Nitrogen: InChIKey IJGRMHOSHXDMSA-UHFFFAOYSA-N
Temperature: 77 K
Tabular data in the source: 0
pressure (bar)	uptake (cm3(STP)/g)
0.0481608	538.817
0.0714109	600.347
0.0946609	647.704
0.117911	699.786
0.142822	803.844
0.172715	846.509
0.192643	865.504
0.215893	893.963
0.242465	988.581
0.269036	993.434
0.298929	998.304
0.390269	1008.2
0.491573	1022.86
0.579591	1028.02
0.675912	1042.66
0.777216	1043.15
0.873538	1053.07
0.92502	1058.04
0.966538	1077.14
