Adsorption isotherm of Water on MIL-101
DOI: 10.1016/j.micromeso.2008.11.020
Adsorbate Water: InChIKey XLYOFNOQVPJJNP-UHFFFAOYSA-N
Temperature: 298 K
Tabular data in the source: 0
pressure (bar)	uptake (cm3(STP)/g)
0.00225301	95.4064
0.00331693	120.848
0.00506928	127.208
0.0068842	146.29
0.00794813	159.011
0.00982564	171.731
0.0113276	190.813
0.0128297	216.254
0.0140813	521.555
0.0156459	1138.52
0.0175234	1526.5
0.0187751	1583.75
0.02059	1615.55
0.0221546	1628.27
0.0239695	1647.35
0.0255967	1653.71
0.0267858	1666.43
0.0287885	1685.51
0.0297898	1698.23
0.0307286	1698.23
