Adsorption isotherm of Water on CuBTC
DOI: 10.1016/j.micromeso.2008.11.020
Adsorbate Water: InChIKey XLYOFNOQVPJJNP-UHFFFAOYSA-N
Temperature: 298 K
Tabular data in the source: 0
pressure (bar)	uptake (cm3(STP)/g)
0.000390127	3.89835
0.000625023	15.7109
0.000938561	35.4084
0.00125244	59.0532
0.00149076	110.339
0.00235649	204.967
0.00321914	264.069
0.00400418	327.128
0.00470853	358.619
0.00549152	397.994
0.00619792	453.169
0.00713922	520.156
0.00792084	543.742
0.00955964	563.273
0.0111978	574.909
0.0125234	578.69
0.0141615	590.326
0.0159549	594.048
0.0173584	597.819
0.0192301	605.479
0.0204781	613.217
0.0224277	620.866
0.0240658	632.503
0.0253148	652.082
0.0268753	667.676
0.0282799	683.289
0.0299256	781.766
0.0305506	797.477
