Adsorption isotherm of Oxygen on CID-N3
DOI: 10.1246/bcsj.20130157
Adsorbate Oxygen: InChIKey MYMOFIZGZYHOMD-UHFFFAOYSA-N
Temperature: 77 K
Tabular data in the source: 0
pressure (bar)	uptake (cm3(STP)/g)
3.65e-05	0.182577
0.000168	3.3288
0.000605	5.59014
0.00169701	6.76997
0.00401297	7.35989
0.0100432	8.34308
0.0108298	8.24476
0.01166	8.34308
0.012534	8.34308
0.0141508	8.63804
0.014981	8.4414
0.0157676	8.83468
0.0174281	8.63804
0.0184768	9.03132
