Adsorption isotherm of Nitric oxide on PCP-1
DOI: 10.1246/bcsj.20130157
Adsorbate Nitric oxide: InChIKey MWUXSHHQAYIFBG-UHFFFAOYSA-N
Temperature: 121 K
Tabular data in the source: 0
pressure (bar)	uptake (cm3(STP)/g)
0.0123287	2.49685
0.0714864	6.8666
0.115855	12.1103
0.13487	27.8414
0.145433	54.0599
0.151772	107.371
0.15811	159.808
0.172899	207.875
0.185576	235.841
0.200366	249.825
0.227832	262.06
0.280651	272.547
0.375726	283.035
0.487703	289.152
0.688416	299.64
0.823634	310.127
0.880678	318.867
0.910257	326.732
0.927159	335.472
