Adsorption isotherm of Oxygen on PCP-1
DOI: 10.1246/bcsj.20130157
Adsorbate Oxygen: InChIKey MYMOFIZGZYHOMD-UHFFFAOYSA-N
Temperature: 77 K
Tabular data in the source: 0
pressure (bar)	uptake (cm3(STP)/g)
0.00638802	2.49685
0.0399744	5.1187
0.0610736	7.74055
0.0619348	32.2111
0.0619348	53.1859
0.062796	42.6985
0.062796	64.5473
0.0636571	20.8498
0.0640877	87.27
0.0649489	113.488
0.0653795	11.2364
0.0683937	139.707
0.0688243	158.06
0.0731302	181.657
0.0795892	205.253
0.0856175	219.236
0.0950906	233.22
0.111023	243.707
0.132552	250.699
0.157096	255.068
0.176904	262.934
0.185946	270.799
0.18853	281.287
