Adsorption isotherm of Carbon Dioxide on PCP-1
DOI: 10.1246/bcsj.20130157
Adsorbate Carbon Dioxide: InChIKey CURLTUGMZLYLDI-UHFFFAOYSA-N
Temperature: 195 K
Tabular data in the source: 0
pressure (bar)	uptake (cm3(STP)/g)
0.00400996	0.499371
0.00837971	41.4002
0.0193041	49.9649
0.0520772	56.9565
0.102329	63.5985
0.161321	66.57
0.318632	68.8422
0.465018	70.2405
0.622329	71.4641
0.821153	72.5128
0.943506	72.6876
