Adsorption isotherm of Carbon monoxide on PCP-1
DOI: 10.1246/bcsj.20130157
Adsorbate Carbon monoxide: InChIKey UGFAIRIUMAVXCW-UHFFFAOYSA-N
Temperature: 77 K
Tabular data in the source: 0
pressure (bar)	uptake (cm3(STP)/g)
0.00735682	1.62291
0.230507	2.49685
0.43979	2.49685
0.550735	3.3708
0.569646	6.8666
