Adsorption isotherm of Carbon Dioxide on PCP-1
DOI: 10.1246/bcsj.20130157
Adsorbate Carbon Dioxide: InChIKey CURLTUGMZLYLDI-UHFFFAOYSA-N
Temperature: 195 K
Tabular data in the source: 0
pressure (bar)	uptake (cm3(STP)/g)
0.00400996	0.499371
0.00619484	50.8389
0.00619484	53.8103
0.0105646	55.9078
0.0280436	57.3061
0.0695562	58.5296
0.143842	60.8019
0.462833	65.696
0.633254	67.7935
0.766531	69.017
0.926027	69.891
