Adsorption isotherm of Carbon Dioxide on CPL-201
DOI: 10.1246/bcsj.20130157
Adsorbate Carbon Dioxide: InChIKey CURLTUGMZLYLDI-UHFFFAOYSA-N
Temperature: 195 K
Tabular data in the source: 0
pressure (bar)	uptake (molecules/formula unit)
0.0129152	0.00748956
0.121366	0.00748956
0.256376	0.0249685
0.533035	0.086145
0.754363	0.199758
0.856174	0.304632
0.933639	0.470683
0.951345	3.41589
0.962411	3.53825
1.00446	3.73925
