Adsorption isotherm of Cyclohexane on PCP-1
DOI: 10.1246/bcsj.20130157
Adsorbate Cyclohexane: InChIKey XDTMQSROBMDMFD-UHFFFAOYSA-N
Temperature: 298 K
Tabular data in the source: 0
pressure (bar)	uptake (ml/g)
0.00463504	0.499371
0.036847	1.37332
0.0552932	2.07248
0.0737393	2.42206
0.0883311	3.12122
0.0965906	4.16996
0.107879	6.44223
0.112834	9.06408
0.118065	14.6574
0.121369	19.9011
