Adsorption isotherm of Acetylene on CPL-1
DOI: 10.1246/bcsj.20130157
Adsorbate Acetylene: InChIKey HSFWRNGVRCDJHI-UHFFFAOYSA-N
Temperature: 270 K
Tabular data in the source: 0
pressure (bar)	uptake (molecules/pore)
0.00216688	0.00224687
0.00315008	0.0415746
0.00588117	0.0704149
0.0079568	0.0992553
0.00926773	0.135961
0.00992319	0.235591
0.0104694	0.319491
0.0111249	0.39028
0.0121081	0.495154
0.0136375	0.565944
0.0169148	0.631491
0.0198644	0.697037
0.0220492	0.759961
0.0244526	0.838617
0.026856	0.898919
0.0301333	0.953978
0.0373434	0.990684
0.0469568	0.993306
