Adsorption isotherm of Methanol on CPL-201
DOI: 10.1246/bcsj.20130157
Adsorbate Methanol: InChIKey OKKJLVBELUTLKV-UHFFFAOYSA-N
Temperature: 298 K
Tabular data in the source: 0
pressure (bar)	uptake (molecules/formula unit)
0.000676	0.0742832
0.00288441	0.793107
0.00509319	1.28252
0.0109833	1.54252
0.0183459	1.68017
0.021659	2.04722
0.0242359	3.27075
0.0257084	3.74487
0.0312304	4.05075
0.0334392	4.34134
0.0426424	4.61664
0.0621532	4.92252
0.0835048	5.18252
0.108538	5.42722
0.136147	5.67193
0.149768	5.77899
0.163757	5.94722
