Adsorption isotherm of Oxygen on CID-N3
DOI: 10.1246/bcsj.20130157
Adsorbate Oxygen: InChIKey MYMOFIZGZYHOMD-UHFFFAOYSA-N
Temperature: 77 K
Tabular data in the source: 0
pressure (bar)	uptake (cm3(STP)/g)
0.00252726	37.4456
0.00444995	38.2322
0.00720289	39.8053
0.00842642	40.4935
0.00986843	40.5918
0.0108298	40.5918
0.0124903	41.1817
0.0141508	41.9683
0.0148499	41.2801
0.0159424	42.4599
0.0166852	41.7717
0.0184331	42.1649
