Adsorption isotherm of Carbon Dioxide on CPL-201
DOI: 10.1246/bcsj.20130157
Adsorbate Carbon Dioxide: InChIKey CURLTUGMZLYLDI-UHFFFAOYSA-N
Temperature: 195 K
Tabular data in the source: 0
pressure (bar)	uptake (molecules/formula unit)
0.0129152	0.00748956
0.121366	0.00748956
0.256376	0.0249685
0.564021	0.051187
0.780922	0.0948845
0.911506	0.147321
0.973478	0.191019
1.00004	3.97522
