Adsorption isotherm of Carbon Dioxide on PCP-1
DOI: 10.1246/bcsj.20130157
Adsorbate Carbon Dioxide: InChIKey CURLTUGMZLYLDI-UHFFFAOYSA-N
Temperature: 195 K
Tabular data in the source: 0
pressure (bar)	uptake (cm3(STP)/g)
0.0129152	5.99265
0.130219	13.8582
0.260802	19.9758
0.35376	20.8498
0.409092	23.4716
0.508689	26.9674
0.555168	28.7153
0.606073	33.0851
0.665832	33.0851
0.809695	38.3288
0.869454	43.5725
0.926999	46.1943
0.953558	48.8162
