Adsorption isotherm of Carbon Dioxide on CPL-1
DOI: 10.1246/bcsj.20130157
Adsorbate Carbon Dioxide: InChIKey CURLTUGMZLYLDI-UHFFFAOYSA-N
Temperature: 270 K
Tabular data in the source: 0
pressure (bar)	uptake (molecules/pore)
0.00205764	0.00224687
0.0102509	0.017978
0.0189904	0.0363309
0.0275114	0.052062
0.0361417	0.0677931
0.0444442	0.086146
