Adsorption isotherm of Water on CPL-201
DOI: 10.1246/bcsj.20130157
Adsorbate Water: InChIKey XLYOFNOQVPJJNP-UHFFFAOYSA-N
Temperature: 298 K
Tabular data in the source: 0
pressure (bar)	uptake (molecules/formula unit)
1.13e-05	0.148566
0.000401	0.94386
0.000812	1.34151
0.00245982	1.76974
0.00376402	1.95327
0.00596057	2.28974
0.00644106	2.47327
0.00740205	3.42151
0.00795119	4.98151
0.00870625	5.37915
0.0109714	5.68504
0.0140603	5.96033
0.017012	6.20504
0.0221601	6.63327
0.0239448	6.8168
0.0259354	7.0921
0.0265532	9.56974
0.0266219	10.4874
0.0266905	7.45915
0.0268964	8.40739
0.0268964	11.405
0.0290243	12.4756
0.0309463	13.0568
