Adsorption isotherm of Argon on PCP-1
DOI: 10.1246/bcsj.20130157
Adsorbate Argon: InChIKey XKRFYHLGVUSROY-UHFFFAOYSA-N
Temperature: 87 K
Tabular data in the source: 0
pressure (bar)	uptake (cm3(STP)/g)
0.0125112	1.62291
0.524936	5.99265
0.790797	9.48845
0.882991	11.2364
0.917295	16.48
0.947312	22.5977
