Adsorption isotherm of Benzene on PCP-1
DOI: 10.1246/bcsj.20130157
Adsorbate Benzene: InChIKey UHOVQNZJYSORNB-UHFFFAOYSA-N
Temperature: 298 K
Tabular data in the source: 0
pressure (bar)	uptake (ml/g)
0.000505	0.499371
0.00904009	0.674161
0.0181255	1.19853
0.025559	16.2305
0.0266603	28.8153
0.0274863	41.2254
0.0291382	49.6153
0.0327173	57.8305
0.0404261	62.7246
0.0566698	66.3952
0.069059	67.4439
0.078695	67.9683
0.0861286	68.1431
0.104024	71.1145
0.119442	75.8338
