Adsorption isotherm of Oxygen on CID-N3
DOI: 10.1246/bcsj.20130157
Adsorbate Oxygen: InChIKey MYMOFIZGZYHOMD-UHFFFAOYSA-N
Temperature: 77 K
Tabular data in the source: 0
pressure (bar)	uptake (cm3(STP)/g)
3.65e-05	0.182577
0.000473	0.674173
0.00147852	1.16577
0.0034449	1.36241
0.0052365	1.75569
0.00646003	1.85401
0.00886339	2.14896
0.0113105	2.3456
0.0147189	2.54224
0.0173407	2.44392
0.0185642	2.73888
0.0198315	2.44392
