Adsorption isotherm of Nitrogen on PCP-1
DOI: 10.1246/bcsj.20130157
Adsorbate Nitrogen: InChIKey IJGRMHOSHXDMSA-UHFFFAOYSA-N
Temperature: 77 K
Tabular data in the source: 0
pressure (bar)	uptake (cm3(STP)/g)
0.0236738	2.49685
0.224682	3.3708
0.309892	5.1187
0.506531	3.3708
0.700985	6.8666
0.827707	6.8666
0.912918	9.48845
