Adsorption isotherm of Water on Zn(L)(tdca)*1.5DMF
DOI: 10.1080/00958972.2014.957689
Adsorbate Water: InChIKey XLYOFNOQVPJJNP-UHFFFAOYSA-N
Temperature: 298 K
Tabular data in the source: 0
pressure (bar)	uptake (cm3(STP)/g)
0.000145877	0.365888
0.1477	10.4612
0.263794	21.6468
0.386332	28.9924
0.508795	36.1551
0.654378	41.3109
0.777354	49.7542
0.914964	54.9082
1.03611	58.7779
1.14044	60.4485
1.27652	61.7607
1.40419	61.9734
1.53975	62.005
1.65154	62.3968
1.78718	62.6114
1.89085	62.6355
2.04237	62.6708
2.15402	62.6968
2.28161	62.7265
2.39318	62.5696
2.53723	63.8836
2.65707	64.4603
2.79257	64.3089
2.89638	64.699
3.04014	65.2812
