Adsorption isotherm of Nitric acid on Soot
DOI: 10.1021/jp036105g
Adsorbate Nitric acid: InChIKey GRYLNZFGIOXLOG-UHFFFAOYSA-N
Temperature: 283 K
Tabular data in the source: 0
pressure (bar)	uptake (molecules/cm2)
7.9103e-09	1795560000000
1.10348e-08	1506610000000
1.44688e-08	2018830000000
2.25919e-08	2652770000000
3.05361e-08	2359930000000
3.93743e-08	2453580000000
4.68989e-08	2601960000000
6.87263e-08	3486580000000
7.80986e-08	4406560000000
1.02219e-07	3486580000000
1.4749e-07	5251700000000
1.81311e-07	5251700000000
