Adsorption isotherm of Nitric acid on Soot
DOI: 10.1021/jp036105g
Adsorbate Nitric acid: InChIKey GRYLNZFGIOXLOG-UHFFFAOYSA-N
Temperature: 228 K
Tabular data in the source: 0
pressure (bar)	uptake (molecules/cm2)
9.24811e-08	85546100000000
1.56237e-07	94319200000000
1.66427e-07	85546100000000
2.39863e-07	92491100000000
3.68318e-07	96183400000000
5.22652e-07	114630000000000.0
7.06859e-07	121535000000000.0
7.30068e-07	142069000000000.0
7.77934e-07	142069000000000.0
