Adsorption isotherm of Nitric acid on Soot
DOI: 10.1021/jp036105g
Adsorbate Nitric acid: InChIKey GRYLNZFGIOXLOG-UHFFFAOYSA-N
Temperature: 273 K
Tabular data in the source: 0
pressure (bar)	uptake (molecules/cm2)
4.6061e-09	1393480000000
6.23122e-09	1597350000000
7.66254e-09	1761160000000
1.0702e-08	2098940000000
1.35857e-08	2359930000000
1.80894e-08	2705200000000
2.37068e-08	3100990000000
3.2071e-08	3554680000000
4.27054e-08	4155280000000
5.50812e-08	4671970000000
7.10433e-08	5251700000000
9.61088e-08	6021430000000
1.30027e-07	7038820000000
1.65053e-07	7758900000000
2.19798e-07	9249110000000
2.97326e-07	10396800000000
4.15244e-07	12153500000000
5.89228e-07	14487700000000
7.72152e-07	16289200000000
