Adsorption isotherm of Nitric acid on Soot
DOI: 10.1021/jp036105g
Adsorbate Nitric acid: InChIKey GRYLNZFGIOXLOG-UHFFFAOYSA-N
Temperature: 295 K
Tabular data in the source: 0
pressure (bar)	uptake (molecules/cm2)
4.59212e-09	579029000000
6.11326e-09	626037000000
6.94421e-09	703882000000
9.11157e-09	1146300000000
1.35411e-08	906985000000
1.64124e-08	1506610000000
2.32832e-08	1660730000000
3.2497e-08	1628920000000
5.1528e-08	1867240000000
6.64604e-08	2098940000000
8.56629e-08	1941330000000
9.4233e-08	1979700000000
1.02048e-07	2140420000000
1.08746e-07	2182730000000
1.29546e-07	2406580000000
1.49569e-07	3041590000000
1.99101e-07	3224780000000
3.64396e-07	4321160000000
4.41106e-07	4953360000000
7.81921e-07	6260370000000
