Adsorption isotherm of Nitric acid on Soot
DOI: 10.1021/jp036105g
Adsorbate Nitric acid: InChIKey GRYLNZFGIOXLOG-UHFFFAOYSA-N
Temperature: 298 K
Tabular data in the source: 0
pressure (bar)	uptake (molecules/cm2)
2.37e-08	1170000000000
3.23e-08	1910000000000
4.73e-08	2350000000000
6.94e-08	2830000000000
8.44e-08	3190000000000
1e-07	3520000000000
1.26e-07	3980000000000
1.41e-07	4340000000000
1.67e-07	4560000000000
2.06e-07	5000000000000
2.63e-07	5620000000000
