Adsorption isotherm of Nitric acid on Soot
DOI: 10.1021/jp036105g
Adsorbate Nitric acid: InChIKey GRYLNZFGIOXLOG-UHFFFAOYSA-N
Temperature: 253 K
Tabular data in the source: 0
pressure (bar)	uptake (molecules/cm2)
3.85e-09	9480000000000
5.84e-09	14200000000000
8.27e-09	20300000000000
1.1e-08	21200000000000
2.02e-08	29700000000000
2.36e-08	34900000000000
