Adsorption isotherm of Nitric acid on Soot
DOI: 10.1021/jp036105g
Adsorbate Nitric acid: InChIKey GRYLNZFGIOXLOG-UHFFFAOYSA-N
Temperature: 295 K
Tabular data in the source: 0
pressure (bar)	uptake (molecules/cm2)
4.6634e-09	505126000000
5.82644e-09	556929000000
7.75842e-09	651028000000
1.01677e-08	746277000000
1.27044e-08	838880000000
1.6386e-08	943192000000
2.4004e-08	1146300000000
3.19612e-08	1314010000000
4.05736e-08	1477410000000
5.57754e-08	1761160000000
7.19388e-08	1979700000000
9.57862e-08	2269340000000
1.33771e-07	2652770000000
1.72549e-07	3041590000000
2.22553e-07	3419010000000
2.78056e-07	3769640000000
3.47427e-07	4237410000000
4.77555e-07	4953360000000
6.15989e-07	5678060000000
7.57483e-07	6260370000000
