Adsorption isotherm of Nitric acid on Soot
DOI: 10.1021/jp036105g
Adsorbate Nitric acid: InChIKey GRYLNZFGIOXLOG-UHFFFAOYSA-N
Temperature: 263 K
Tabular data in the source: 0
pressure (bar)	uptake (molecules/cm2)
6.97594e-09	2652770000000
1.62137e-08	4406560000000
2.30045e-08	5051260000000
3.06488e-08	6902400000000
4.01396e-08	6510280000000
4.85817e-08	7176290000000
5.3474e-08	8723690000000
6.16443e-08	7038820000000
8.34167e-08	8723690000000
9.47225e-08	8896110000000
1.11077e-07	10197600000000
1.30306e-07	13140100000000
1.52642e-07	11025500000000
1.90697e-07	11920700000000
2.20066e-07	13140100000000
2.46072e-07	15360300000000
3.27562e-07	16289200000000
3.78036e-07	18310500000000
5.9011e-07	22258700000000
8.37207e-07	25020700000000
