Adsorption isotherm of Nitric acid on Soot
DOI: 10.1021/jp036105g
Adsorbate Nitric acid: InChIKey GRYLNZFGIOXLOG-UHFFFAOYSA-N
Temperature: 298 K
Tabular data in the source: 0
pressure (bar)	uptake (molecules/cm2)
1.1e-08	517000000000
2.37e-08	856000000000
3.94e-08	1610000000000
4.97e-08	1890000000000
5.76e-08	2410000000000
7.42e-08	2330000000000
8.68e-08	2730000000000
1.02e-07	2950000000000
1.17e-07	3110000000000
