Adsorption isotherm of Nitric acid on Soot
DOI: 10.1021/jp036105g
Adsorbate Nitric acid: InChIKey GRYLNZFGIOXLOG-UHFFFAOYSA-N
Temperature: 253 K
Tabular data in the source: 0
pressure (bar)	uptake (molecules/cm2)
8.7e-09	16800000000000
1.09e-08	22600000000000
1.33e-08	24800000000000
2.04e-08	35200000000000
2.72e-08	42100000000000
