Adsorption isotherm of Nitric acid on Soot
DOI: 10.1021/jp036105g
Adsorbate Nitric acid: InChIKey GRYLNZFGIOXLOG-UHFFFAOYSA-N
Temperature: 283 K
Tabular data in the source: 0
pressure (bar)	uptake (molecules/cm2)
3.67646e-06	943192000000
5.1344e-06	1102550000000
7.40236e-06	1314010000000
1.03393e-05	1597350000000
1.44398e-05	1867240000000
1.95339e-05	2140420000000
2.64277e-05	2502070000000
3.63245e-05	2868140000000
4.53868e-05	3224780000000
6.54395e-05	3919220000000
9.28539e-05	4581420000000
0.000127632	5355500000000
0.000175441	6260370000000
0.00021574	6902400000000
0.000311036	8228110000000
0.000407624	9431920000000
0.000501222	10197600000000
0.000587679	11240900000000
