Adsorption isotherm of Nitric acid on Soot
DOI: 10.1021/jp036105g
Adsorbate Nitric acid: InChIKey GRYLNZFGIOXLOG-UHFFFAOYSA-N
Temperature: 263 K
Tabular data in the source: 0
pressure (bar)	uptake (molecules/cm2)
4.68709e-09	2182730000000
5.85589e-09	2406580000000
7.67438e-09	2758670000000
9.58899e-09	3100990000000
1.29722e-08	3554680000000
1.75498e-08	4155280000000
2.33697e-08	4857360000000
2.96649e-08	5355500000000
3.76585e-08	6021430000000
5.09452e-08	6902400000000
6.67656e-08	7912250000000
8.34167e-08	8723690000000
1.04225e-07	9806180000000
1.36591e-07	11240900000000
1.8773e-07	12638600000000
2.58061e-07	15066100000000
3.72034e-07	17611600000000
4.87554e-07	20188300000000
7.98258e-07	25020700000000
