Adsorption isotherm of Nitric acid on Soot
DOI: 10.1021/jp036105g
Adsorbate Nitric acid: InChIKey GRYLNZFGIOXLOG-UHFFFAOYSA-N
Kind: experiment
Temperature: 228 K
Tabular data in the source: 0
pressure (bar)	uptake (molecules/cm2)
4.72665e-09	25020700000000
6.60105e-09	29248300000000
9.07242e-09	32877600000000
1.17015e-08	36965800000000
1.63408e-08	42374100000000
2.43177e-08	49533600000000
3.2893e-08	54613500000000
4.66663e-08	61390300000000
6.31223e-08	67686200000000
8.53872e-08	76102700000000
1.31151e-07	85546100000000
1.86056e-07	94319200000000
2.51648e-07	101976000000000
3.62688e-07	110255000000000
4.67663e-07	114630000000000
6.7402e-07	123937000000000
