Adsorption isotherm of Nitric acid on Soot
DOI: 10.1021/jp036105g
Adsorbate Nitric acid: InChIKey GRYLNZFGIOXLOG-UHFFFAOYSA-N
Temperature: 283 K
Tabular data in the source: 0
pressure (bar)	uptake (molecules/cm2)
5.35e-09	4920000000000
1.12e-08	7380000000000
1.6e-08	8560000000000
1.98e-08	9740000000000
2.51e-08	10800000000000
3.05e-08	11800000000000
3.58e-08	12800000000000
4.17e-08	13700000000000
4.76e-08	14700000000000
5.35e-08	15300000000000
6.04e-08	16300000000000
6.63e-08	17000000000000
7.27e-08	17700000000000
7.86e-08	18400000000000
8.66e-08	19200000000000
9.09e-08	19800000000000
9.57e-08	20200000000000
1.05e-07	21000000000000
1.12e-07	21600000000000
1.19e-07	22200000000000
1.29e-07	23000000000000
1.37e-07	23700000000000
1.47e-07	24400000000000
1.56e-07	25000000000000
1.65e-07	25700000000000
1.73e-07	26300000000000
1.8e-07	26700000000000
1.86e-07	27000000000000
