Adsorption isotherm of Nitric acid on Soot
DOI: 10.1021/jp036105g
Adsorbate Nitric acid: InChIKey GRYLNZFGIOXLOG-UHFFFAOYSA-N
Temperature: 273 K
Tabular data in the source: 0
pressure (bar)	uptake (molecules/cm2)
1.29537e-08	2359930000000
2.65194e-08	4075680000000
4.77654e-08	5251700000000
6.06001e-08	4953360000000
7.81921e-08	6260370000000
9.91912e-08	5678060000000
1.24077e-07	8896110000000
1.65022e-07	7318130000000
2.19798e-07	9249110000000
2.79012e-07	10197600000000
2.92606e-07	10000000000000
4.21826e-07	11689600000000
5.35467e-07	12888400000000
