Adsorption isotherm of Krypton on Soot
DOI: 10.1021/jp036105g
Adsorbate Krypton: InChIKey DNNSSWSSYDEUBZ-UHFFFAOYSA-N
Temperature: 77 K
Tabular data in the source: 0
pressure (bar)	uptake (mmol adsorbed)
2.58e-05	0.00198
4.49e-05	0.00792
5.76e-05	0.0119
8.98e-05	0.015
0.000193029	0.0202
0.000206119	0.0174
0.000251072	0.0238
0.000289981	0.0222
0.000309264	0.0246
0.00036105	0.0242
0.000438633	0.0253
0.000477435	0.0257
0.000528816	0.0329
0.00066457	0.0352
0.000800281	0.0384
0.000968346	0.0416
0.00116878	0.0444
0.00126572	0.0467
0.00147262	0.0495
0.0016667	0.0503
0.00176993	0.0558
0.00196403	0.0562
0.00206081	0.0614
0.00219641	0.0665
0.00220214	0.0804
0.00220711	0.108119
0.00221437	0.0935
