Adsorption isotherm of Nitric acid on Soot
DOI: 10.1021/jp036105g
Adsorbate Nitric acid: InChIKey GRYLNZFGIOXLOG-UHFFFAOYSA-N
Temperature: 283 K
Tabular data in the source: 0
pressure (bar)	uptake (molecules/cm2)
4.74e-09	4240000000000
5.25e-09	5720000000000
5.27e-09	4540000000000
7.39e-09	5630000000000
7.91e-09	6410000000000
8.96e-09	7200000000000
1.16e-08	8490000000000
2.28e-08	11100000000000
3.67e-08	13700000000000
5.48e-08	16200000000000
7.35e-08	16700000000000
9.22e-08	19800000000000
1.09e-07	21800000000000
1.25e-07	22900000000000
1.46e-07	23100000000000
1.84e-07	26000000000000
