Adsorption isotherm of Nitrogen on MIL-53
DOI: 10.1166/jnn.2013.7411
Adsorbate Nitrogen: InChIKey IJGRMHOSHXDMSA-UHFFFAOYSA-N
Temperature: 77 K
Tabular data in the source: 0
pressure (bar)	uptake (cm3(STP)/g)
0.00837971	351.608
0.0695562	374.55
0.143842	387.659
0.233422	395.306
0.312077	404.045
0.408212	410.6
0.491237	413.877
0.574262	417.155
0.674766	423.709
0.777455	426.987
0.856111	431.356
0.915102	435.726
0.956615	439.003
0.980649	442.281
