Adsorption isotherm of Methane on Coal A
DOI: 10.1021/ef060318y
Adsorbate Methane: InChIKey VNWKTOKETHGBQD-UHFFFAOYSA-N
Temperature: 378 K
Tabular data in the source: 0
pressure (bar)	uptake (mmol/g)
0.451128	0.078125
0.902256	0.122396
1.95489	0.1875
4.06015	0.291667
7.96992	0.424479
14.1353	0.549479
23.9098	0.682292
36.2406	0.789062
46.6165	0.851562
56.391	0.901042
68.4211	0.945312
