Adsorption isotherm of Carbon Dioxide on Coal
DOI: 10.1021/ef060318y
Adsorbate Carbon Dioxide: InChIKey CURLTUGMZLYLDI-UHFFFAOYSA-N
Temperature: 343 K
Tabular data in the source: 0
pressure (bar)	uptake (g/cm3)
2.83799	0.00517877
20.3373	0.0336423
43.0436	0.0802808
50.1398	0.0958319
75.6891	0.158066
81.8413	0.176231
90.8365	0.209991
99.3566	0.238548
104.095	0.264541
109.777	0.287919
119.726	0.339899
129.678	0.399691
135.838	0.433481
145.313	0.482861
150.997	0.508844
157.151	0.532217
164.255	0.563393
170.408	0.584162
181.765	0.615294
191.228	0.638633
202.582	0.664556
210.15	0.677498
218.664	0.693035
227.649	0.705962
236.161	0.71629
242.781	0.724034
250.348	0.736976
