Adsorption isotherm of Methane on Coal A
DOI: 10.1021/ef060318y
Adsorbate Methane: InChIKey VNWKTOKETHGBQD-UHFFFAOYSA-N
Temperature: 357 K
Tabular data in the source: 0
pressure (bar)	uptake (mmol/g)
0.300752	0.0807292
1.05263	0.127604
1.95489	0.192708
3.90977	0.294271
8.1203	0.429688
13.8346	0.552083
24.0602	0.6875
36.2406	0.791667
46.1654	0.856771
56.391	0.903646
68.4211	0.940104
