Adsorption isotherm of Argon on Coal B
DOI: 10.1021/ef060318y
Adsorbate Argon: InChIKey XKRFYHLGVUSROY-UHFFFAOYSA-N
Temperature: 313 K
Tabular data in the source: 0
pressure (bar)	uptake (mmol/g)
1.11524	0.0473008
2.41636	0.0987147
4.46097	0.148072
6.3197	0.193316
8.17844	0.230334
10.5948	0.275578
12.5465	0.30437
15.6134	0.349614
19.9814	0.394859
25.0929	0.446272
31.4126	0.493573
37.8253	0.536761
43.4944	0.565553
