Adsorption isotherm of Carbon Dioxide on Coal A
DOI: 10.1021/ef060318y
Adsorbate Carbon Dioxide: InChIKey CURLTUGMZLYLDI-UHFFFAOYSA-N
Temperature: 313 K
Tabular data in the source: 0
pressure (bar)	uptake (mmol/g)
1.01381	0.412224
2.47087	0.506072
2.83113	0.546881
3.54693	0.648907
4.64656	0.689701
5.3765	0.730503
6.10645	0.771304
6.83733	0.808024
7.19382	0.865159
9.40157	0.910012
10.5021	0.946724
14.5432	1.05685
16.3841	1.08946
18.5947	1.12207
20.4347	1.15877
25.2217	1.2403
28.1736	1.26473
31.1254	1.28916
34.0773	1.31359
37.3979	1.34209
39.6141	1.35021
42.9384	1.36239
46.2619	1.37865
49.2146	1.399
51.4337	1.39487
64.0059	1.38237
66.5928	1.3864
70.2906	1.38224
73.2528	1.36177
75.8472	1.33315
78.8179	1.27594
80.3052	1.23918
81.4227	1.20242
82.5412	1.16158
83.6588	1.12482
84.7773	1.08398
85.8958	1.04314
87.3868	0.990053
88.5053	0.949214
89.6228	0.912457
90.7413	0.871618
91.8589	0.83486
93.347	0.794013
94.4646	0.757256
98.1803	0.675547
100.406	0.642849
102.632	0.61015
105.225	0.585608
108.188	0.561057
111.519	0.544663
114.85	0.528268
118.181	0.511874
121.879	0.507717
125.21	0.491322
128.54	0.479009
132.239	0.470771
135.57	0.454376
139.269	0.442056
142.228	0.437914
145.927	0.429675
149.256	0.421444
152.954	0.413205
156.652	0.409048
158.871	0.404921
162.569	0.400764
165.898	0.392533
168.117	0.388406
171.815	0.384249
175.513	0.380092
178.842	0.37186
182.54	0.367703
186.238	0.363546
189.566	0.359397
