Adsorption isotherm of Methane on Coal A
DOI: 10.1021/ef060318y
Adsorbate Methane: InChIKey VNWKTOKETHGBQD-UHFFFAOYSA-N
Temperature: 378 K
Tabular data in the source: 0
pressure (bar)	uptake (mmol/g)
0.451128	0.0807292
0.902256	0.127604
2.10526	0.192708
4.06015	0.294271
7.81955	0.429688
13.985	0.554688
23.9098	0.684896
36.2406	0.791667
46.3158	0.854167
56.391	0.903646
68.2707	0.953125
