Adsorption isotherm of Carbon Dioxide on Coal
DOI: 10.1021/ef060318y
Adsorbate Carbon Dioxide: InChIKey CURLTUGMZLYLDI-UHFFFAOYSA-N
Temperature: 323 K
Tabular data in the source: 0
pressure (bar)	uptake (g/cm3)
2.83922	0.00778292
13.7161	0.0232946
31.2191	0.0595706
50.1447	0.106248
62.9231	0.145178
76.1801	0.197123
86.6078	0.262119
93.2474	0.311529
97.9967	0.360958
102.747	0.412992
107.024	0.462427
111.298	0.506653
116.046	0.553479
121.262	0.589883
126.001	0.618479
133.104	0.647051
143.518	0.683401
152.981	0.70674
161.967	0.722271
169.537	0.740421
182.307	0.761122
190.818	0.77145
204.059	0.789541
215.406	0.79984
226.753	0.810138
240.938	0.825615
249.921	0.833334
