Adsorption isotherm of Argon on Coal B
DOI: 10.1021/ef060318y
Adsorbate Argon: InChIKey XKRFYHLGVUSROY-UHFFFAOYSA-N
Temperature: 87 K
Tabular data in the source: 0
pressure (bar)	uptake (mmol/g)
0.00911998	0.0185281
0.021888	0.0329508
0.0437759	0.0412228
0.0638399	0.0474346
0.0857278	0.0515935
0.102144	0.0536845
0.125856	0.0557908
0.165984	0.0579314
0.189696	0.0620942
0.211584	0.0683097
0.238944	0.0683671
0.275423	0.0746132
0.311903	0.0808593
0.344735	0.0829847
0.377567	0.0871666
0.428639	0.0954999
0.443231	0.0996435
0.479711	0.101777
0.512543	0.108015
0.589151	0.122571
0.654815	0.137105
0.682175	0.145389
0.707711	0.151612
0.738718	0.164016
0.77155	0.176424
0.80803	0.199123
0.837214	0.219749
0.859102	0.244474
0.870046	0.25478
0.888286	0.279497
0.904702	0.310379
0.915646	0.335081
0.924766	0.363892
0.933886	0.392703
0.941182	0.423566
0.948478	0.45443
0.952126	0.485286
0.959422	0.520263
0.974014	0.538802
