Adsorption isotherm of Argon on Coal A
DOI: 10.1021/ef060318y
Adsorbate Argon: InChIKey XKRFYHLGVUSROY-UHFFFAOYSA-N
Temperature: 313 K
Tabular data in the source: 0
pressure (bar)	uptake (mmol/g)
0.27881	0.0390746
0.836431	0.0514139
1.30112	0.074036
2.50929	0.121337
4.36803	0.18509
6.3197	0.23856
8.17844	0.281748
10.6877	0.335219
12.6394	0.37018
15.6134	0.419537
20.0743	0.481234
25.0929	0.534704
31.4126	0.596401
37.6394	0.641645
43.8662	0.68072
