Adsorption isotherm of Carbon Dioxide on Coal
DOI: 10.1021/ef060318y
Adsorbate Carbon Dioxide: InChIKey CURLTUGMZLYLDI-UHFFFAOYSA-N
Temperature: 333 K
Tabular data in the source: 0
pressure (bar)	uptake (g/cm3)
3.78439	0.00777308
14.1887	0.0232897
21.755	0.0336276
38.7854	0.0699085
49.1946	0.0958417
61.4979	0.129568
72.3834	0.163309
91.3251	0.24384
95.1144	0.26203
103.171	0.308821
105.543	0.32963
110.757	0.360825
116.447	0.402433
120.243	0.433643
125.461	0.475256
133.992	0.52725
141.099	0.566239
148.676	0.59741
155.777	0.623377
162.875	0.644137
171.393	0.667485
187.003	0.698573
193.624	0.708921
205.923	0.73223
213.962	0.742563
226.256	0.75806
236.185	0.768373
244.224	0.778706
249.899	0.786459
