Adsorption isotherm of Carbon Dioxide on Coal A
DOI: 10.1021/ef060318y
Adsorbate Carbon Dioxide: InChIKey CURLTUGMZLYLDI-UHFFFAOYSA-N
Temperature: 313 K
Tabular data in the source: 0
pressure (bar)	uptake (mmol/g)
1.3835	0.412217
2.46333	0.538725
3.54787	0.644826
6.10739	0.767222
7.93225	0.869226
10.8633	0.983452
14.911	1.065
19.6962	1.1547
25.9573	1.25661
37.3922	1.36658
43.2996	1.39912
51.7949	1.4316
56.9696	1.43557
64.3615	1.44358
68.7977	1.44349
72.1258	1.43934
76.2009	1.40253
78.7991	1.35758
85.8675	1.16559
91.0752	1.02671
94.0506	0.949101
96.2791	0.904158
101.101	0.834671
107.397	0.785563
114.057	0.760938
119.977	0.740409
127.744	0.723924
133.663	0.707476
141.43	0.690991
149.566	0.67858
160.661	0.657946
169.905	0.649594
180.999	0.637122
190.612	0.632845
