Adsorption isotherm of Carbon Dioxide on Coal
DOI: 10.1021/ef060318y
Adsorbate Carbon Dioxide: InChIKey CURLTUGMZLYLDI-UHFFFAOYSA-N
Temperature: 313 K
Tabular data in the source: 0
pressure (bar)	uptake (g/cm3)
5.67843	0.0155658
17.0267	0.0284685
27.9085	0.0543968
38.3177	0.08033
48.2556	0.108872
58.1984	0.147831
66.2484	0.181602
71.4592	0.207589
77.1524	0.254405
81.4266	0.298631
85.7119	0.366295
88.5757	0.426161
91.9269	0.517272
94.7932	0.582346
101.435	0.636964
109.964	0.68375
117.536	0.707109
123.689	0.725274
131.733	0.746024
137.41	0.758985
144.977	0.771927
156.328	0.790038
172.405	0.8081
188.01	0.828771
195.575	0.836504
213.541	0.851942
228.197	0.86481
239.543	0.872505
250.415	0.8776
