Adsorption isotherm of Argon on Coal A
DOI: 10.1021/ef060318y
Adsorbate Argon: InChIKey XKRFYHLGVUSROY-UHFFFAOYSA-N
Temperature: 87 K
Tabular data in the source: 0
pressure (bar)	uptake (mmol/g)
0.014592	0.0144265
0.0364799	0.0226986
0.0674879	0.0309898
0.10032	0.0310586
0.138624	0.035252
0.16416	0.037362
0.19152	0.0415325
0.228	0.0416089
0.257183	0.0437266
0.290015	0.0479086
0.326495	0.047985
0.362975	0.0521746
0.377567	0.0542617
0.410399	0.0543305
0.446879	0.0605766
0.477887	0.0606416
0.512543	0.0627708
0.543551	0.0648923
0.572735	0.0670101
0.603743	0.0691316
0.618335	0.0691622
0.656639	0.0774687
0.693119	0.0796017
0.725951	0.0837836
0.760606	0.0920825
0.791614	0.100374
0.828094	0.112789
0.849982	0.123118
0.875518	0.137567
0.893758	0.152002
0.911998	0.168492
0.924766	0.184971
0.937534	0.209677
0.948478	0.240548
0.957598	0.265246
0.96307	0.296106
0.966718	0.324905
0.977662	0.351663
