Adsorption isotherm of Nitrogen on COF-346
DOI: 10.1021/jacs.9b05626
Article source: Figure 4(b)
Adsorbate Nitrogen: InChIKey IJGRMHOSHXDMSA-UHFFFAOYSA-N
Kind: experiment
Temperature: 77 K
Tabular data in the source: 0
pressure (bar)	uptake (cm3(STP)/g)
0	76.4488
0	93.2182
0	101.11
0	108.015
0	113.933
0	119.852
0	124.784
0	129.716
0.001104	145.993
0.001104	154.377
0.003323	162.269
0.003323	170.16
0.004428	177.065
0.007751	182.984
0.00997	189.889
0.016607	204.686
0.026578	221.455
0.037652	236.745
0.050936	245.623
0.060906	249.075
0.069762	252.528
0.076409	254.994
0.083056	256.967
0.098559	259.926
0.126241	264.858
0.139525	267.324
0.163893	270.284
0.179396	272.75
0.204869	275.709
0.259129	280.148
0.311169	284.587
0.359896	288.533
0.410832	291.492
0.461779	295.438
0.507182	298.89
0.552586	301.356
0.609054	305.302
0.664429	308.755
0.713156	313.194
0.75634	315.166
0.813923	320.099
0.86486	326.017
0.913587	332.922
0.961199	344.266
1.01103	372.38
0.008856	211.591
0.043185	262.885
0.07419	274.229
0.088588	278.175
0.132888	285.08
0.155037	288.533
0.20265	293.465
0.300094	300.863
0.4053	307.275
0.429659	309.248
0.456236	311.714
0.475062	315.166
0.50164	323.058
0.602418	328.483
0.703185	332.429
0.798421	337.361
0.895865	343.773
1.01103	372.38
