Adsorption isotherm of Nitrogen on COF-340
DOI: 10.1021/jacs.9b05626
Article source: Figure S23(b)
Adsorbate Nitrogen: InChIKey IJGRMHOSHXDMSA-UHFFFAOYSA-N
Kind: experiment
Temperature: 77 K
Tabular data in the source: 0
pressure (bar)	uptake (cm3(STP)/g)
0	74.7475
0	87.8788
0	92.9293
0	97.9798
0	102.02
0	105.051
0	111.111
0	115.152
0	121.212
0.001135	138.384
0.001135	147.475
0.001135	154.545
0.003415	160.606
0.005694	166.667
0.007974	172.727
0.007974	177.778
0.018238	195.455
0.026213	207.071
0.038757	218.687
0.046731	225.253
0.05813	231.313
0.076369	237.374
0.096877	242.929
0.121955	248.99
0.142473	253.535
0.165261	256.566
0.1835	259.596
0.204018	262.626
0.253029	268.687
0.30204	274.747
0.354465	279.798
0.404621	284.848
0.457047	289.899
0.507192	293.939
0.559628	300
0.609774	304.04
0.65992	308.081
0.70893	313.131
0.760221	317.172
0.812647	322.727
0.862803	327.273
0.914093	332.323
0.960824	351.01
1.00528	370.707
0.007974	200
0.051291	246.97
0.069529	255.556
0.099157	260.606
0.129929	267.172
0.161846	271.717
0.189204	276.768
0.29748	291.414
0.396637	296.465
0.429689	299.495
0.445648	301.01
0.47186	303.03
0.507192	306.061
0.606359	314.141
0.706651	322.222
0.808097	329.293
0.902694	337.374
1.00641	370.707
