Adsorption isotherm of Nitrogen on COF-360
DOI: 10.1021/jacs.9b05626
Article source: Figure S20(b)
Adsorbate Nitrogen: InChIKey IJGRMHOSHXDMSA-UHFFFAOYSA-N
Kind: experiment
Temperature: 77 K
Tabular data in the source: 0
pressure (bar)	uptake (cm3(STP)/g)
0	111.693
0	125.335
0	135.566
0	144.093
0	162.85
0.002189	171.376
0.004387	181.608
0.008775	192.692
0.016445	202.923
0.027419	215.713
0.036183	222.533
0.049345	227.649
0.062507	234.47
0.073471	239.586
0.088821	244.702
0.104172	248.112
0.156811	260.049
0.209449	268.575
0.260993	278.806
0.311433	287.333
0.358589	295.859
0.409029	306.09
0.458374	314.616
0.508814	324.848
0.558169	335.079
0.611902	348.721
0.661247	361.51
0.711687	374.3
0.759937	389.647
0.811482	406.699
0.867403	430.572
0.914559	456.151
0.964999	499.635
1.00557	617.296
0.009869	202.923
0.048251	237.028
0.094303	254.933
0.201768	279.659
0.304857	297.564
0.404641	314.616
0.505531	358.953
0.604221	381.121
0.709498	404.994
0.812576	428.867
0.912361	472.351
1.00557	617.296
