Adsorption isotherm of Methane on WUT-1a
DOI: 10.1002/anie.201306785
Adsorbate Methane: InChIKey VNWKTOKETHGBQD-UHFFFAOYSA-N
Temperature: 293 K
Tabular data in the source: 0
pressure (bar)	uptake (cm3(STP)/g)
0.168709	0.00152452
1.21096	5.21279
1.54899	6.90293
2.53491	11.6917
3.46448	16.0579
5.9997	25.917
9.04195	35.917
11.5208	43.5227
14.5067	51.6917
17.549	58.4522
