Adsorption isotherm of Methane on WUT-1a
DOI: 10.1002/anie.201306785
Adsorbate Methane: InChIKey VNWKTOKETHGBQD-UHFFFAOYSA-N
Temperature: 293 K
Tabular data in the source: 0
pressure (bar)	uptake (cm3(STP)/g)
2.05603	9.43814
4.25322	21.2691
5.43631	27.1846
7.15462	35.0719
9.21096	44.086
11.9152	55.3536
15.5208	68.3114
