Adsorption isotherm of Hydrogen on WUT-1a
DOI: 10.1002/anie.201306785
Adsorbate Hydrogen: InChIKey UFHFLCQGNIYNRP-UHFFFAOYSA-N
Temperature: 77 K
Tabular data in the source: 0
pressure (bar)	uptake (cm3(STP)/g)
0.0278641	30.6376
0.14054	44.7221
0.225047	57.3982
0.42223	78.8771
0.872935	103.877
1.49265	123.947
1.94336	138.032
2.53491	151.412
3.2673	164.793
4.25322	179.933
5.43631	191.553
7.15462	207.046
9.23913	216.553
12.0279	227.116
15.6053	232.398
20.056	236.976
