Adsorption isotherm of Hydrogen on WUT-1a
DOI: 10.1002/anie.201306785
Adsorbate Hydrogen: InChIKey UFHFLCQGNIYNRP-UHFFFAOYSA-N
Temperature: 77 K
Tabular data in the source: 0
pressure (bar)	uptake (cm3(STP)/g)
0.112371	44.0179
0.196878	59.1587
0.337723	73.5954
0.478568	83.1024
0.70392	92.6094
1.15462	108.807
1.54899	117.962
2.53491	138.736
3.52082	153.525
5.04195	170.074
6.98561	184.863
9.09829	195.426
11.6053	204.581
14.5912	214.793
19.8589	224.3
