Adsorption isotherm of Carbon Dioxide on WUT-1a
DOI: 10.1002/anie.201306785
Adsorbate Carbon Dioxide: InChIKey CURLTUGMZLYLDI-UHFFFAOYSA-N
Temperature: 303 K
Tabular data in the source: 0
pressure (bar)	uptake (cm3(STP)/g)
0.196878	1.12981
1.21096	11.2707
1.57716	14.3692
2.59124	23.3833
3.57716	32.6791
11.549	97.7495
14.5912	114.088
17.5772	125.073
