Adsorption isotherm of Carbon Dioxide on WUT-1a
DOI: 10.1002/anie.201306785
Adsorbate Carbon Dioxide: InChIKey CURLTUGMZLYLDI-UHFFFAOYSA-N
Temperature: 273 K
Tabular data in the source: 0
pressure (bar)	uptake (cm3(STP)/g)
0.112371	0.848119
0.337723	14.0876
0.619413	26.4819
1.04195	37.4678
1.74617	57.4678
2.87293	96.6228
4.8166	142.257
8.16871	169.017
13.8307	184.228
