Adsorption isotherm of Nitrogen on WUT-1a
DOI: 10.1002/anie.201306785
Adsorbate Nitrogen: InChIKey IJGRMHOSHXDMSA-UHFFFAOYSA-N
Temperature: 77 K
Tabular data in the source: 0
pressure (bar)	uptake (cm3(STP)/g)
0.000865	15.2852
0.00229475	43.173
0.00229475	88.2225
0.00372489	133.701
0.00372489	177.892
0.00372489	221.655
0.00944547	248.685
0.0223168	269.708
0.0409086	282.579
0.0809526	290.731
0.100975	292.447
0.198224	297.595
0.304055	300.17
0.419897	301.886
0.517146	303.602
0.600095	303.602
0.720227	303.173
0.816046	302.744
0.923307	302.315
0.997674	303.173
