Adsorption isotherm of Carbon Dioxide on WUT-1a
DOI: 10.1002/anie.201306785
Adsorbate Carbon Dioxide: InChIKey CURLTUGMZLYLDI-UHFFFAOYSA-N
Temperature: 273 K
Tabular data in the source: 0
pressure (bar)	uptake (cm3(STP)/g)
0.591244	12.9608
0.985611	23.3833
1.23913	28.7354
1.49265	34.3692
2.53491	53.8059
3.54899	78.0312
5.09829	109.581
6.02786	123.102
7.07012	133.524
8.0842	140.848
10.0842	152.961
11.5208	159.158
14.4786	169.862
17.5208	177.468
