Adsorption isotherm of Carbon Dioxide on WUT-1a
DOI: 10.1002/anie.201306785
Adsorbate Carbon Dioxide: InChIKey CURLTUGMZLYLDI-UHFFFAOYSA-N
Temperature: 293 K
Tabular data in the source: 0
pressure (bar)	uptake (cm3(STP)/g)
0.196878	1.12981
1.29547	16.3411
1.57716	19.4397
2.56308	29.2988
3.54899	40.8481
5.04195	59.158
7.09829	81.6932
9.04195	100.566
11.5208	118.876
14.5067	132.397
17.4645	142.82
