Adsorption isotherm of Nitrogen on WUT-1a
DOI: 10.1002/anie.201306785
Adsorbate Nitrogen: InChIKey IJGRMHOSHXDMSA-UHFFFAOYSA-N
Temperature: 77 K
Tabular data in the source: 0
pressure (bar)	uptake (cm3(STP)/g)
0.00229475	35.8792
0.00229475	65.9122
0.00229475	97.6614
0.00229475	241.391
0.00372489	114.394
0.00372489	201.061
0.00515504	168.883
0.00658518	261.127
0.00658518	270.995
0.0237469	282.579
0.0423388	288.586
0.15961	301.886
0.25114	306.605
0.401305	308.321
0.632988	310.896
1.00196	312.183
