Adsorption isotherm of Nitrogen on WUT-1a
DOI: 10.1002/anie.201306785
Adsorbate Nitrogen: InChIKey IJGRMHOSHXDMSA-UHFFFAOYSA-N
Temperature: 77 K
Tabular data in the source: 0
pressure (bar)	uptake (cm3(STP)/g)
1.86e-06	29.1595
4.99e-05	43.9482
0.00012	58.3144
0.000266	73.5257
0.000496	88.3144
0.000677	103.948
0.000792	120.427
0.000943	147.892
0.00139178	177.892
0.00259414	207.469
0.00554078	232.821
0.00866835	248.033
0.0212163	267.892
0.0453155	280.145
0.0668745	286.483
0.106679	291.554
0.210791	297.047
0.311076	298.737
0.424695	300.85
1.01943	300.85
