Adsorption isotherm of Methane on WUT-1a
DOI: 10.1002/anie.201306785
Adsorbate Methane: InChIKey VNWKTOKETHGBQD-UHFFFAOYSA-N
Temperature: 273 K
Tabular data in the source: 0
pressure (bar)	uptake (cm3(STP)/g)
1.23913	9.43814
1.52082	11.6917
2.47857	18.3114
3.52082	24.6494
11.5208	60.1424
14.5349	69.2973
17.5208	77.3255
