Adsorption isotherm of Nitrogen on WUT-1a
DOI: 10.1002/anie.201306785
Adsorbate Nitrogen: InChIKey IJGRMHOSHXDMSA-UHFFFAOYSA-N
Temperature: 77 K
Tabular data in the source: 0
pressure (bar)	uptake (cm3(STP)/g)
1.56e-06	37.1877
2.65e-06	39.3003
3.9e-06	42.6806
6.6e-06	47.7511
9.74e-06	51.5539
2.48e-05	63.8074
6.43e-05	75.6384
0.000167	86.6243
0.000261	95.4975
0.000401	114.512
0.000627	167.329
0.001	201.554
0.00156414	225.638
0.00264511	240.005
0.00673097	260.709
0.0105304	269.16
0.0161569	273.807
0.039545	285.216
0.0630824	288.174
0.10063	293.667
0.173518	300.427
0.261102	305.075
0.392893	306.343
0.626746	308.033
0.999789	310.568
