Adsorption isotherm of Methane on WUT-1a
DOI: 10.1002/anie.201306785
Adsorbate Methane: InChIKey VNWKTOKETHGBQD-UHFFFAOYSA-N
Temperature: 273 K
Tabular data in the source: 0
pressure (bar)	uptake (cm3(STP)/g)
2.4552	18.7099
3.33782	24.8132
4.20167	31.5738
5.45989	40.5879
7.07491	51.9494
9.1782	64.2498
11.9434	78.5931
15.4645	91.8325
