Adsorption isotherm of Carbon Dioxide on WUT-1a
DOI: 10.1002/anie.201306785
Adsorbate Carbon Dioxide: InChIKey CURLTUGMZLYLDI-UHFFFAOYSA-N
Temperature: 303 K
Tabular data in the source: 0
pressure (bar)	uptake (cm3(STP)/g)
0.0842021	1.97488
0.591244	21.6932
0.957442	28.1721
1.66167	40.2847
2.9011	56.6228
4.78843	78.8763
8.14054	111.271
13.8589	142.82
