Adsorption isotherm of Carbon Dioxide on WUT-1a
DOI: 10.1002/anie.201306785
Adsorbate Carbon Dioxide: InChIKey CURLTUGMZLYLDI-UHFFFAOYSA-N
Temperature: 293 K
Tabular data in the source: 0
pressure (bar)	uptake (cm3(STP)/g)
0.0842021	1.97488
0.647582	26.7636
1.01378	34.3692
1.718	48.1721
2.87293	65.6368
4.8166	91.5523
8.14054	126.2
13.8307	151.834
