Adsorption isotherm of Nitrogen on DPP2-HHTP-COF
DOI: 10.1021/acs.chemmater.8b02882
Article source: Figure 2
Adsorbate Nitrogen: InChIKey IJGRMHOSHXDMSA-UHFFFAOYSA-N
Kind: experiment
Temperature: 77 K
Tabular data in the source: 0
pressure (bar)	uptake (cm3(STP)/g)
9.3e-05	59.199
0.011266	101.416
0.028646	139.574
0.050993	166.366
0.070856	184.228
0.093203	198.029
0.110583	212.643
0.13293	224.009
0.151552	232.94
0.176381	244.306
0.191279	251.613
0.201211	258.92
0.207418	262.979
0.213626	267.851
0.218591	272.722
0.224799	278.405
0.229144	283.276
0.232248	292.207
0.238455	305.197
0.242179	321.434
0.248387	335.642
0.253353	348.226
0.257077	355.533
0.274458	360.404
0.290597	364.464
0.306736	366.899
0.331565	371.77
0.356395	375.83
0.381224	381.513
0.404812	383.949
0.430883	386.384
0.456954	389.632
0.483025	392.067
0.507854	392.879
0.532684	396.127
0.557513	397.75
0.583584	400.186
0.608413	402.622
0.634484	405.057
0.661797	407.493
0.685384	410.74
0.711455	412.364
0.735043	415.612
0.762356	418.047
0.787185	420.483
0.812015	422.918
0.838085	425.354
0.862915	429.413
0.887744	433.473
0.912574	437.532
0.941127	447.275
0.964715	457.017
0.992028	480.562
0.963474	464.324
0.93492	451.334
0.910091	443.215
0.885261	439.968
0.860432	436.72
0.835602	433.473
0.80829	430.225
0.783461	426.978
0.758631	424.542
0.733802	422.918
0.707731	420.483
0.682902	418.047
0.656831	416.423
0.63076	413.988
0.606551	412.364
0.581101	410.74
0.556272	410.74
0.530201	406.681
0.505371	405.869
0.4793	402.622
0.454471	400.186
0.427159	397.75
0.403571	395.315
0.3775	392.067
0.351429	388.008
0.329082	383.137
0.303011	379.889
0.285631	376.642
0.271975	373.394
0.257077	369.335
0.252111	365.275
0.247145	358.78
0.243421	350.662
0.237214	331.989
0.234731	314.939
0.228523	302.761
0.222316	295.454
0.218591	290.583
0.211143	283.276
0.206177	281.652
0.202452	275.969
0.176381	261.356
0.149069	249.989
0.12424	236.999
0.100652	222.386
0.050993	183.416
0.008783	107.911
0.005058	85.1789
