Adsorption isotherm of Carbon Dioxide on NH2-MIL-53(Al)
DOI: 10.1002/cssc.201100378
Adsorbate Carbon Dioxide: InChIKey CURLTUGMZLYLDI-UHFFFAOYSA-N
Temperature: 283 K
Tabular data in the source: 0
pressure (bar)	uptake (mmol/g)
0.076979	0.835821
0.331972	1.10448
0.844845	1.37313
1.78752	1.64179
2.21635	1.73134
2.98839	1.8806
4.10426	2.02985
4.87694	2.1194
5.65058	2.1194
6.33633	2.29851
7.02209	2.47761
7.70816	2.62687
8.22232	2.77612
8.56359	3.01493
8.90455	3.28358
9.15922	3.58209
9.50017	3.85075
9.75516	4.1194
10.3514	4.62687
10.6927	4.86567
11.1196	5.13433
11.5469	5.37313
12.0597	5.64179
12.8282	6.1194
13.2577	6.14925
14.0304	6.23881
14.889	6.32836
15.7473	6.44776
16.1765	6.50746
17.0355	6.56716
17.8081	6.65672
18.4955	6.68657
18.9243	6.77612
19.6967	6.89552
20.469	7.01493
21.2414	7.13433
21.6709	7.16418
22.5302	7.19403
23.3894	7.22388
23.9911	7.22388
24.4206	7.25373
25.1939	7.28358
26.0529	7.34328
26.5683	7.37313
26.9978	7.40299
27.7711	7.43284
28.2859	7.52239
29.1449	7.58209
