Adsorption isotherm of Hydrogen on NH2-MIL-53(Al)
DOI: 10.1002/cssc.201100378
Adsorbate Hydrogen: InChIKey UFHFLCQGNIYNRP-UHFFFAOYSA-N
Temperature: 283 K
Tabular data in the source: 0
pressure (bar)	uptake (mmol/g)
1.98276	0.057514
3.62069	0.0261505
5.86207	0.0536683
13.5345	0.0460625
16.0345	0.0138444
18.7931	0.0111097
21.4655	0.0382002
24.1379	0.035551
26.7241	0.0329872
28.5345	0.0311926
