Adsorption isotherm of N-propane on NH2-MIL-53(Al)
DOI: 10.1002/cssc.201100378
Adsorbate N-propane: InChIKey ATUOYWHBWRKTHZ-UHFFFAOYSA-N
Temperature: 303 K
Tabular data in the source: 0
pressure (bar)	uptake (mmol/g)
0.0247708	0.0177936
0.178865	0.0355872
0.343047	0.0177936
0.628029	0.0355872
1	0.0533808
1.62975	0.106762
2.84803	0.142349
5.72237	0.338078
7.39072	0.409253
9.11163	0.676157
10.4761	1.19217
12.3285	1.37011
15.9228	1.42349
19.6304	1.49466
24.2014	1.54804
