Adsorption isotherm of Methane on NH2-MIL-53(Al)
DOI: 10.1002/cssc.201100378
Adsorbate Methane: InChIKey VNWKTOKETHGBQD-UHFFFAOYSA-N
Temperature: 283 K
Tabular data in the source: 0
pressure (bar)	uptake (mmol/g)
0.343198	0.0597015
0.858957	0.0597015
1.71824	0.0895522
2.14707	0.179104
3.17795	0.238806
4.9815	0.38806
5.66822	0.477612
6.35526	0.537313
6.95281	0.925373
7.38036	1.13433
7.80792	1.34328
8.83719	1.55224
9.43666	1.76119
10.2959	1.79104
11.1549	1.85075
12.358	1.8806
13.217	1.9403
14.5064	1.9403
15.3653	2
16.8266	2
17.6859	2.02985
19.4048	2.0597
20.2641	2.08955
21.983	2.1194
22.8426	2.1194
23.7018	2.14925
24.4755	2.14925
25.3348	2.1791
26.1944	2.1791
26.882	2.1791
28.5146	2.23881
