Adsorption isotherm of Methane on NH2-MIL-53(Al)
DOI: 10.1002/cssc.201100378
Adsorbate Methane: InChIKey VNWKTOKETHGBQD-UHFFFAOYSA-N
Temperature: 303 K
Tabular data in the source: 0
pressure (bar)	uptake (mmol/g)
0.0811129	0.0355872
0.141747	0.088968
0.178865	0.373665
0.196304	0.854093
0.236449	1.49466
0.403702	1.83274
0.673415	2.04626
1.04762	2.2242
1.83074	2.63345
2.91505	3.11388
4.22925	3.30961
5.46228	3.46975
6.57934	3.57651
7.74264	3.77224
