Adsorption isotherm of Nitrogen on NH2-MIL-53(Al)
DOI: 10.1002/cssc.201100378
Adsorbate Nitrogen: InChIKey IJGRMHOSHXDMSA-UHFFFAOYSA-N
Temperature: 283 K
Tabular data in the source: 0
pressure (bar)	uptake (mmol/g)
2.40624	0.0597015
3.78127	0.0895522
4.29671	0.119403
5.15599	0.149254
5.92963	0.149254
6.44507	0.179104
7.30467	0.179104
8.42247	0.149254
8.85194	0.179104
9.62526	0.208955
10.4849	0.208955
11.0003	0.238806
11.3441	0.238806
12.1175	0.268657
12.9771	0.268657
13.4925	0.298507
14.0083	0.298507
14.8679	0.298507
15.7271	0.328358
16.1569	0.328358
16.5867	0.328358
17.446	0.358209
18.3053	0.38806
18.821	0.38806
19.2505	0.41791
20.1098	0.447761
20.9694	0.447761
21.3989	0.477612
21.8287	0.477612
22.688	0.507463
23.4613	0.537313
24.0633	0.507463
24.4928	0.537313
25.3521	0.567164
26.2114	0.597015
26.8124	0.656716
27.5864	0.626866
28.1878	0.656716
