Adsorption isotherm of Ethane on NH2-MIL-53(Al)
DOI: 10.1002/cssc.201100378
Adsorbate Ethane: InChIKey OTMSDBZUPAUEDD-UHFFFAOYSA-N
Temperature: 303 K
Tabular data in the source: 0
pressure (bar)	uptake (mmol/g)
0.183074	0.0355872
0.367838	0.124555
0.413202	0.24911
0.599485	0.44484
0.673415	0.907473
0.722081	1.33452
1.07227	1.69039
1.55568	1.86833
1.91791	1.92171
2.31013	2.02847
4.43062	2.33096
5.3367	2.47331
5.72237	2.86477
6.57934	3.02491
7.56464	3.30961
9.11163	3.43416
10.7226	3.59431
14.1749	3.75445
15.5568	3.75445
20.0923	4.00356
26.5607	4.19929
