Adsorption isotherm of Nitrogen on TCS-4
DOI: 10.1007/s11356-016-7507-2
Article source: Figure 2- TCS 4
Adsorbate Nitrogen: InChIKey IJGRMHOSHXDMSA-UHFFFAOYSA-N
Kind: experiment
Temperature: 77 K
Tabular data in the source: 0
pressure (bar)	uptake (cm3(STP)/g)
0.000243	7.757
0.01068	19.427
0.032262	26.504
0.064828	32.009
0.077747	33.927
0.099785	36.786
0.12086	39.258
0.140588	41.08
0.141642	41.118
0.16138	43.027
0.180622	44.762
0.200715	45.999
0.20191	46.098
0.247699	50.216
0.25388	50.366
0.298828	54.111
0.305505	54.722
0.3487	58.329
0.352915	58.779
0.400599	62.698
0.405442	63.521
0.45117	67.803
0.45425	74.943
0.501954	72.73
0.506848	89.91
0.552586	77.838
0.557358	90.484
0.603644	82.481
0.607362	82.756
0.638763	90.719
0.654357	86.537
0.689962	90.594
0.708292	88.908
0.739976	90.606
0.754932	90.243
0.788998	90.418
0.8152	90.505
0.823347	90.53
0.841119	90.604
0.849195	90.517
0.864505	90.517
0.876867	90.517
0.890768	90.641
0.9077	90.679
0.916687	90.529
0.934956	90.616
0.94443	90.616
0.974422	91.015
0.983906	91.04
0.993036	90.79
1.00631	91.102
