Adsorption isotherm of Nitrogen on TCS-3
DOI: 10.1007/s11356-016-7507-2
Article source: Figure 2- TCS 3
Adsorbate Nitrogen: InChIKey IJGRMHOSHXDMSA-UHFFFAOYSA-N
Kind: experiment
Temperature: 77 K
Tabular data in the source: 0
pressure (bar)	uptake (cm3(STP)/g)
0.001287	4.456
0.007326	20.56
0.012118	25.634
0.012818	26.091
0.033336	33.68
0.066337	39.777
0.080665	41.607
0.105773	44.314
0.125886	46.495
0.144115	48.851
0.147002	47.974
0.165778	50.506
0.18356	52.434
0.205224	53.164
0.205781	53.211
0.249786	56.891
0.256119	57.144
0.304786	61.018
0.309558	61.115
0.348791	64.054
0.359116	65.086
0.404449	69.818
0.407458	68.356
0.455902	72.503
0.457341	72.678
0.460563	77.062
0.508905	74.993
0.509898	75.032
0.558058	76.15
0.562019	76.143
0.573459	76.64
0.604029	77.403
0.612023	77.675
0.662372	77.476
0.677145	77.358
0.693367	77.416
0.727483	77.413
0.743604	77.393
0.778156	77.409
0.794499	77.35
0.830612	77.289
0.83739	77.425
0.852731	77.287
0.866612	77.442
0.884729	77.382
0.89395	77.362
0.92073	77.477
0.931734	77.71
0.945514	77.826
0.963743	77.669
0.987524	77.901
0.994748	77.92
