Adsorption isotherm of Nitrogen on TCS-5
DOI: 10.1007/s11356-016-7507-2
Article source: Figure 2- TCS 5
Adsorbate Nitrogen: InChIKey IJGRMHOSHXDMSA-UHFFFAOYSA-N
Kind: experiment
Temperature: 77 K
Tabular data in the source: 0
pressure (bar)	uptake (cm3(STP)/g)
0.008207	31.038
0.032333	37.949
0.063987	43.391
0.078355	45.392
0.100352	48.144
0.121286	50.208
0.1415	52.241
0.161725	54.149
0.182213	55.9
0.201809	57.433
0.24854	61.17
0.253333	61.67
0.297946	64.688
0.304857	65.095
0.349642	69.02
0.356208	69.395
0.400639	73.07
0.407641	73.836
0.452872	77.871
0.453673	77.952
0.47416	95.241
0.501559	83.609
0.510688	113.333
0.55516	90.522
0.557906	114.795
0.603725	98.154
0.609581	115.475
0.65539	105.376
0.65997	115.814
0.706144	111.297
0.710015	115.789
0.759299	116.33
0.781094	115.089
0.791146	116.39
0.805108	116.232
0.834837	116.863
0.849245	116.528
0.862995	116.843
0.876958	116.706
0.892268	116.982
0.905673	116.982
0.920761	117.179
0.935736	117.297
0.945231	118.007
0.959305	117.554
0.983775	118.125
0.991597	118.165
1.00433	118.303
