Adsorption isotherm of Nitrogen on TCS-2
DOI: 10.1007/s11356-016-7507-2
Article source: Figure 2- TCS 2
Adsorbate Nitrogen: InChIKey IJGRMHOSHXDMSA-UHFFFAOYSA-N
Kind: experiment
Temperature: 77 K
Tabular data in the source: 0
pressure (bar)	uptake (cm3(STP)/g)
0.000385	4.458
0.000537	4.771
0.012149	36.026
0.029263	45.507
0.060248	53.721
0.089936	58.563
0.1032	60.715
0.122583	63.833
0.14223	66.713
0.145989	65.637
0.164663	69.419
0.18431	71.223
0.203126	73.231
0.206055	73.707
0.246686	77.968
0.255491	77.569
0.299304	81.761
0.307683	83.66
0.349855	86.919
0.360859	88.818
0.404945	93.645
0.411319	94.198
0.452973	104.798
0.453308	104.802
0.50474	103.724
0.509361	114.978
0.556953	108.107
0.559304	115.499
0.611263	115.987
0.654924	112.219
0.660953	116.476
0.706448	113.214
0.71116	116.459
0.743462	116.79
0.756047	114.226
0.804794	114.922
0.812444	116.93
0.829467	115.499
0.839782	117.246
0.859003	115.2
0.883645	115.798
0.886756	117.814
0.910709	116.355
0.916647	117.671
0.937327	116.773
0.946021	118.208
0.961422	116.872
0.984707	118.421
0.986166	118.496
