Adsorption isotherm of Propene on CuBTC
DOI: 10.1021/acs.jpcc.6b11808
Article source: Figure 4
Adsorbate Propene: InChIKey QQONPFPTGQHPMA-UHFFFAOYSA-N
Kind: experiment
Temperature: 303 K
Tabular data in the source: 0
pressure (bar)	uptake (mmol/g)
1.1e-05	0.0398
1.5e-05	0.0258
2.3e-05	0.0306
3.4e-05	0.0401
5e-05	0.0449
7.7e-05	0.0403
0.000116	0.0451
0.000173	0.0875
0.000259	0.1393
0.000381	0.2333
0.000596	0.3649
0.00084	0.5764
0.001325	0.8958
0.001943	1.2998
0.002921	1.8588
0.004371	2.4929
0.006637	3.1787
0.009938	3.9278
0.014774	4.6735
0.022511	5.3955
0.033466	6.0701
0.049739	6.6975
0.074834	7.2538
0.112564	7.7036
0.167186	8.0587
0.254566	8.3665
0.392193	8.556
0.564547	8.7133
0.842946	8.8289
1.32343	8.8999
1.90722	8.9484
2.90269	8.9858
