Adsorption isotherm of Ethane on CuBTC
DOI: 10.1021/acs.jpcc.6b11808
Article source: Figure 3
Adsorbate Ethane: InChIKey OTMSDBZUPAUEDD-UHFFFAOYSA-N
Kind: experiment
Temperature: 296 K
Tabular data in the source: 0
pressure (bar)	uptake (mmol/g)
0.011612	0.2106
0.03147	0.4849
0.061802	0.7779
0.095587	1.0047
0.131856	1.2881
0.162293	1.5526
0.195614	1.7415
0.223872	1.9493
0.253571	2.1949
0.28721	2.4594
0.332124	2.6955
0.380102	2.9127
0.400313	3.1677
0.430427	3.3849
0.448642	3.5549
0.472498	3.7155
0.508042	3.8949
0.540754	4.0838
0.57544	4.2821
0.618728	4.4616
0.644911	4.6032
0.693585	4.7827
0.730466	4.9432
0.761377	5.0943
0.793597	5.2549
0.818653	5.3682
0.862184	5.4815
0.946673	5.746
0.966273	5.9065
0.996782	6.0104
