Adsorption isotherm of Isobutane on CuBTC
DOI: 10.1021/acs.jpcc.6b11808
Article source: Figure 6
Adsorbate Isobutane: InChIKey NNPPMTNAJDCUHE-UHFFFAOYSA-N
Kind: experiment
Temperature: 303 K
Tabular data in the source: 0
pressure (bar)	uptake (mmol/g)
0.000696	0.2623
0.001486	0.6274
0.002117	0.9922
0.002599	1.3722
0.00299	1.7779
0.003375	2.2656
0.003672	2.7585
0.003884	3.2771
0.004325	3.8213
0.005117	4.3656
0.006611	4.8329
0.009462	5.1977
0.013797	5.4034
0.019652	5.5063
0.025621	5.5835
