Adsorption isotherm of N-Pentane on CuBTC
DOI: 10.1021/acs.jpcc.6b11808
Article source: Figure 3
Adsorbate N-Pentane: InChIKey OFBQJSOFQDEBGM-UHFFFAOYSA-N
Kind: experiment
Temperature: 293 K
Tabular data in the source: 0
pressure (bar)	uptake (mmol/g)
7.5e-05	0.218
0.000111	0.4165
0.000148	0.6196
0.000161	0.8274
0.000172	1.0399
0.00018	1.2618
0.000191	1.4696
0.000196	1.6632
0.000201	1.8945
0.000206	2.0645
0.000212	2.447
0.000213	2.6453
0.000214	2.2345
0.000219	2.8577
0.000228	3.0608
0.000236	3.2308
0.000241	3.3724
0.000245	3.5235
0.000248	3.6652
0.000259	3.8021
0.000278	3.9438
0.000299	4.0854
0.000319	4.2271
0.000354	4.4491
0.000407	4.6096
0.00057	4.8364
0.000963	5.0821
0.002054	5.2996
0.005454	5.5078
0.014325	5.6451
0.030896	5.7823
0.043521	5.8344
0.118577	5.9859
