Adsorption isotherm of Ethane on CuBTC
DOI: 10.1021/acs.jpcc.6b11808
Article source: Figure 2
Adsorbate Ethane: InChIKey OTMSDBZUPAUEDD-UHFFFAOYSA-N
Kind: experiment
Temperature: 296 K
Tabular data in the source: 0
pressure (bar)	uptake (mmol/g)
0.001023	0.0363
0.011431	0.1855
0.032063	0.4736
0.062546	0.7587
0.093025	1.0025
0.125574	1.291
0.157652	1.54
0.187672	1.7689
0.218022	1.9977
0.249632	2.2329
0.285891	2.4746
0.325762	2.7097
0.346897	2.8857
0.380277	3.14
0.408884	3.3682
0.431122	3.5571
0.468058	3.7399
0.498425	3.9419
0.528202	4.1439
0.55437	4.2809
0.587489	4.4764
0.622587	4.6524
0.666193	4.848
0.689128	4.9523
0.719615	5.1217
0.755266	5.2651
0.78886	5.415
0.816018	5.5193
0.864769	5.6563
0.907612	5.8062
0.920874	5.8778
0.957194	6.0082
1.00949	6.1191
1.04424	6.1909
