Adsorption isotherm of N-propane on CuBTC
DOI: 10.1021/acs.jpcc.6b11808
Article source: Figure 2
Adsorbate N-propane: InChIKey ATUOYWHBWRKTHZ-UHFFFAOYSA-N
Kind: experiment
Temperature: 303 K
Tabular data in the source: 0
pressure (bar)	uptake (mmol/g)
0.01953	1.5875
0.04215	3.6799
0.072327	5.3501
0.07591	5.4335
0.103015	6.0173
0.120282	6.261
0.139766	6.4599
0.161622	6.6139
0.184204	6.7422
0.200817	6.8213
0.221106	6.9078
0.244343	6.9893
0.267979	7.0657
0.283857	7.1268
0.293833	7.1624
0.308958	7.1879
0.324788	7.2083
0.33752	7.2439
0.350752	7.2745
0.356123	7.2898
0.367282	7.3152
0.372992	7.3254
0.378704	7.3356
0.389045	7.3611
0.401236	7.3865
0.418601	7.4222
0.423448	7.4273
0.428351	7.4324
0.440048	7.4476
0.448539	7.4629
0.462594	7.4884
0.469786	7.4986
0.47698	7.5138
0.486295	7.5291
0.509214	7.5699
0.511211	7.5699
0.52517	7.5851
0.531251	7.5953
0.541502	7.6106
0.545758	7.6208
0.552077	7.6259
0.575838	7.6463
0.578096	7.6513
0.58479	7.6615
0.593882	7.6717
0.598412	7.6768
0.610099	7.687
0.62431	7.6972
0.634016	7.7074
0.641357	7.7074
0.651328	7.7176
0.65887	7.7226
0.674217	7.743
0.684699	7.7532
0.692628	7.7634
0.697911	7.7685
0.708761	7.7787
0.728115	7.799
0.750931	7.8143
0.76542	7.8194
0.77732	7.8296
0.792319	7.8449
0.804637	7.85
0.820352	7.8602
0.832914	7.8703
0.855658	7.8805
0.865566	7.8856
0.879023	7.8958
0.889201	7.906
0.903025	7.9162
0.913482	7.9264
0.92406	7.9416
0.938426	7.9518
