Adsorption isotherm of Isobutene on CuBTC
DOI: 10.1021/acs.jpcc.6b11808
Article source: Figure 6
Adsorbate Isobutene: InChIKey VQTUBCCKSQIDNK-UHFFFAOYSA-N
Kind: experiment
Temperature: 303 K
Tabular data in the source: 0
pressure (bar)	uptake (mmol/g)
0.000139	0.7457
0.000211	1.1792
0.00042	2.1156
0.000557	2.5627
0.000839	3.066
0.001123	3.5503
0.001618	4.0209
0.002262	4.4774
0.00282	4.9569
0.003614	5.3993
0.00499	5.8605
0.006756	6.2286
0.010051	6.49
0.014428	6.6675
0.019297	6.7659
0.025305	6.8177
