Adsorption isotherm of N-propane on CuBTC
DOI: 10.1021/acs.jpcc.6b11808
Article source: Figure 3
Adsorbate N-propane: InChIKey ATUOYWHBWRKTHZ-UHFFFAOYSA-N
Kind: experiment
Temperature: 303 K
Tabular data in the source: 0
pressure (bar)	uptake (mmol/g)
0.019173	1.6065
0.041448	3.6532
0.070811	5.319
0.079653	5.4737
0.096895	6.0449
0.121032	6.271
0.141612	6.509
0.167842	6.64
0.204221	6.8304
0.220902	6.9018
0.268782	7.0447
0.272333	7.0685
0.294578	7.1399
0.318566	7.2113
0.34914	7.2946
0.377659	7.3898
0.397924	7.4612
0.419276	7.5088
0.459515	7.5565
0.490569	7.5922
0.516892	7.6279
0.559114	7.6874
0.573984	7.7231
0.589115	7.7231
0.620869	7.7351
0.654184	7.7589
0.689287	7.7827
0.735868	7.8303
0.775354	7.8779
0.795976	7.8898
0.827752	7.9255
0.872369	7.9493
0.943626	7.9851
0.981296	8.0089
