Adsorption isotherm of Ethene on CuBTC
DOI: 10.1021/acs.jpcc.6b11808
Article source: Figure 4
Adsorbate Ethene: InChIKey VGGSQFUCUMXWEO-UHFFFAOYSA-N
Kind: experiment
Temperature: 296 K
Tabular data in the source: 0
pressure (bar)	uptake (mmol/g)
0.001906	0.3931
0.00571	0.5103
0.017096	1.1294
0.02096	1.4132
0.032263	1.885
0.036233	2.0441
0.065751	2.8264
0.118222	3.7948
0.131674	3.959
0.154775	4.1863
0.186638	4.4895
0.215229	4.7506
0.245923	4.9864
0.281838	5.1969
0.312896	5.3738
0.341979	5.5211
0.371364	5.6559
0.41096	5.799
0.446272	5.9169
0.468058	6.0264
0.508276	6.1148
0.529663	6.2159
0.571479	6.3464
0.599377	6.4306
0.616737	6.4938
0.638557	6.5527
0.66973	6.637
0.693426	6.7043
0.715814	6.7422
0.738924	6.7927
0.757879	6.8306
0.794694	6.9149
0.812643	6.9696
0.849376	7.037
0.885116	7.1043
0.940156	7.2096
0.964273	7.2559
1.00161	7.3233
1.04064	7.3865
