Adsorption isotherm of N-Butane on CuBTC
DOI: 10.1021/acs.jpcc.6b11808
Article source: Figure 3
Adsorbate N-Butane: InChIKey IJDNQMDRQITEOD-UHFFFAOYSA-N
Kind: experiment
Temperature: 298 K
Tabular data in the source: 0
pressure (bar)	uptake (mmol/g)
0.001086	0.8597
0.001402	1.0547
0.001794	1.407
0.002014	1.7818
0.002297	2.0966
0.002413	2.2241
0.002536	2.4489
0.002965	3.0111
0.003583	3.6557
0.0067	4.3605
0.012954	4.6756
0.017144	4.7506
0.052602	5.0509
0.119922	5.321
0.164021	5.4261
0.688177	5.8913
0.989008	5.9814
1.35301	6.0265
1.56928	6.0266
2.11154	6.0867
