Adsorption isotherm of Phosphate Ion on NiCo91-270
DOI: 10.2166/wst.2016.492
Article source: Figure 9
Adsorbate Phosphate Ion: InChIKey NBIIXXVUZAFLBC-UHFFFAOYSA-K
Kind: experiment
Temperature: 298 K
Tabular data in the source: 0
pressure (bar)	uptake (mg/g)
1.01325	10.362
1.01325	17.118
1.01325	22.393
1.01325	22.248
1.01325	22.331
