Adsorption isotherm of Phosphate Ion on NiCo91
DOI: 10.2166/wst.2016.492
Article source: Figure 9
Adsorbate Phosphate Ion: InChIKey NBIIXXVUZAFLBC-UHFFFAOYSA-K
Kind: experiment
Temperature: 298 K
Tabular data in the source: 0
pressure (bar)	uptake (mg/g)
1.01325	4.669
1.01325	6.114
1.01325	7.437
1.01325	7.795
1.01325	7.478
