Adsorption isotherm of Phosphate Ion on NiCo91-270
DOI: 10.2166/wst.2016.492
Article source: Figure 9
Adsorbate Phosphate Ion: InChIKey NBIIXXVUZAFLBC-UHFFFAOYSA-K
Kind: experiment
Temperature: 274 K
Tabular data in the source: 0
pressure (bar)	uptake (mg/g)
1.01325	9.623
1.01325	15.501
1.01325	19.335
1.01325	19.584
1.01325	20.585
