Adsorption isotherm of Phosphate Ion on NiCo91
DOI: 10.2166/wst.2016.492
Article source: Figure 9
Adsorbate Phosphate Ion: InChIKey NBIIXXVUZAFLBC-UHFFFAOYSA-K
Kind: experiment
Temperature: 274 K
Tabular data in the source: 0
pressure (bar)	uptake (mg/g)
1.01325	3.281
1.01325	4.159
1.01325	5.881
1.01325	8.024
1.01325	8.434
