Adsorption isotherm of Phosphate Ion on NiCo91-270
DOI: 10.2166/wst.2016.492
Article source: Figure 9
Adsorbate Phosphate Ion: InChIKey NBIIXXVUZAFLBC-UHFFFAOYSA-K
Kind: experiment
Temperature: 323 K
Tabular data in the source: 0
pressure (bar)	uptake (mg/g)
1.01325	5.298
1.01325	15.328
1.01325	18.485
1.01325	22.213
1.01325	29.537
