Adsorption isotherm of Phosphate Ion on NiCo91
DOI: 10.2166/wst.2016.492
Article source: Figure 9
Adsorbate Phosphate Ion: InChIKey NBIIXXVUZAFLBC-UHFFFAOYSA-K
Kind: experiment
Temperature: 323 K
Tabular data in the source: 0
pressure (bar)	uptake (mg/g)
1.01325	7.939
1.01325	9.889
1.01325	10.078
1.01325	12.445
1.01325	13.8
