Adsorption isotherm of N-Butane on Silicalite MFI
DOI: 10.1080/08927020410001717254
Adsorbate N-Butane: InChIKey IJDNQMDRQITEOD-UHFFFAOYSA-N
Temperature: 300 K
Tabular data in the source: 0
pressure (bar)	uptake (molecules/unitcell)
4.2e-05	0.871016
9.7e-05	1.38506
0.000155	1.6756
0.000329	2.74838
0.000626	3.75411
0.00104789	4.514
0.00171592	4.98334
0.00275023	5.87732
0.00413336	6.65955
0.00933623	7.41944
0.0197744	8.15698
0.0401245	8.60397
0.0657041	9.02861
0.109923	9.3862
0.264785	9.90024
0.548924	10.3472
