Adsorption isotherm of N-Butane on Silicalite MFI
DOI: 10.1080/08927020410001717254
Adsorbate N-Butane: InChIKey IJDNQMDRQITEOD-UHFFFAOYSA-N
Temperature: 300 K
Tabular data in the source: 0
pressure (bar)	uptake (molecules/unitcell)
0.000846	3.99996
0.00175311	5.78792
0.00422295	7.37474
0.0210882	8.02288
0.0657041	8.60397
0.537279	9.565
