Adsorption isotherm of N-Butane on Silicalite MFI
DOI: 10.1080/08927020410001717254
Adsorbate N-Butane: InChIKey IJDNQMDRQITEOD-UHFFFAOYSA-N
Temperature: 300 K
Tabular data in the source: 0
pressure (bar)	uptake (molecules/unitcell)
4.29e-05	0.446374
0.000159	1.51915
0.000846	4.80454
0.00167952	6.25726
0.00404567	7.93348
0.020203	7.97818
0.0671282	8.89451
0.112305	9.2521
0.525881	9.565
