Adsorption isotherm of Nitrogen on TFPPy-ETTA
DOI: 10.1039/d0ta02956d
Article source: Figure 2A
Adsorbate Nitrogen: InChIKey IJGRMHOSHXDMSA-UHFFFAOYSA-N
Kind: experiment
Temperature: 77 K
Tabular data in the source: 0
pressure (bar)	uptake (cm3(STP)/g)
0.005922	286.33
0.011321	301.583
0.031716	322.305
0.062909	336.059
0.083905	341.027
0.1043	346.328
0.124696	349.638
0.144492	353.115
0.163087	356.592
0.184683	358.576
0.206878	360.559
0.253068	365.189
0.306456	369.154
0.358045	372.787
0.404835	377.085
0.455823	380.387
0.522409	383.684
0.558401	385.664
0.60879	389.298
0.660978	392.268
0.725764	397.224
0.750959	399.207
0.779452	402.183
0.810346	403.999
0.832541	406.811
0.871532	412.106
0.888329	415.418
0.921321	420.715
0.933319	423.033
0.941717	427.01
0.950715	428.997
0.959113	431.98
0.97231	436.619
0.977709	439.934
0.987907	443.247
0.992106	446.562
1.0062	458.331
1.0089	464.466
0.986707	458.171
0.967511	452.207
0.951315	444.916
0.942917	441.602
0.934518	439.283
0.92972	437.294
0.917122	434.976
0.903325	431.995
0.888329	427.688
0.871532	425.04
0.854736	422.06
0.833141	420.076
0.808546	417.762
0.780952	415.117
0.749159	412.141
0.708968	408.836
0.660379	405.865
0.60879	401.9
0.557201	398.93
0.508612	393.969
0.457623	386.356
0.402435	383.055
0.338849	380.088
0.304656	377.113
0.251868	373.149
0.203279	369.183
0.184083	366.203
0.161888	363.225
0.141492	361.573
0.121097	358.594
0.101901	354.619
0.081505	350.314
0.06231	344.35
0.040114	336.065
0.01672	320.817
0.008921	305.895
