Adsorption isotherm of Nitrogen on Car-ETTA
DOI: 10.1039/d0ta02956d
Article source: Figure 2A
Adsorbate Nitrogen: InChIKey IJGRMHOSHXDMSA-UHFFFAOYSA-N
Kind: experiment
Temperature: 77 K
Tabular data in the source: 0
pressure (bar)	uptake (cm3(STP)/g)
0.005922	206.074
0.011321	217.68
0.032316	232.929
0.065309	244.858
0.079106	247.839
0.103101	251.149
0.121097	253.797
0.142692	255.781
0.161888	257.433
0.181084	259.086
0.201479	261.402
0.209877	261.399
0.254267	262.382
0.303457	265.352
0.353846	267.66
0.42523	268.303
0.459423	269.288
0.506812	269.938
0.530207	271.258
0.557201	271.582
0.625586	271.894
0.675375	273.538
0.710168	273.197
0.747359	273.849
0.800748	274.498
0.813345	275.157
0.831341	277.805
0.867333	275.805
0.88053	277.791
0.918922	279.107
0.942317	280.427
0.960313	282.412
0.987907	285.057
1.0071	295.001
1.0089	295.663
0.986107	290.695
0.965112	289.706
0.941117	286.397
0.918322	286.072
0.895527	284.088
0.867333	283.433
0.831941	284.438
0.809146	281.128
0.756957	282.138
0.732963	281.813
0.709568	281.819
0.633384	283.167
0.585395	283.513
0.536206	282.532
0.487616	281.882
0.456423	281.559
0.403635	279.916
0.33405	279.273
0.302857	279.945
0.250668	279.296
0.201479	276.325
0.180484	274.341
0.161288	273.352
0.141492	272.031
0.121097	270.71
0.098902	268.063
0.080306	265.084
0.06051	260.778
0.038915	253.157
0.017919	243.877
0.007722	230.946
