Adsorption isotherm of Ethene on Cu(Qc)2
DOI: 10.1021/jacs.8b07563
Article source: Figure 1d
Adsorbate Ethene: InChIKey VGGSQFUCUMXWEO-UHFFFAOYSA-N
Kind: experiment
Temperature: 298 K
Tabular data in the source: 0
pressure (bar)	uptake (cm3(STP)/cm3)
0.0333	1.08
0.0654	2.06
0.0987	2.98
0.131	3.91
0.164	4.73
0.197	5.61
0.263	7.15
0.329	8.75
0.394	10.2
0.46	11.8
0.526	13.4
0.592	15
0.657	16.6
0.723	18.3
0.79	19.9
0.856	21.6
0.922	23.3
0.954	24.1
1	25.3
1.02	25.9
1.05	26.9
