Adsorption isotherm of Ethane on Cu(Qc)2
DOI: 10.1021/jacs.8b07563
Article source: Figure 1d
Adsorbate Ethane: InChIKey OTMSDBZUPAUEDD-UHFFFAOYSA-N
Kind: experiment
Temperature: 298 K
Tabular data in the source: 0
pressure (bar)	uptake (cm3(STP)/cm3)
0.00384	0.564
0.00766	1.03
0.0115	1.39
0.0169	1.8
0.0327	3.3
0.0655	5.93
0.0982	8.51
0.131	11.2
0.164	13.9
0.197	16.9
0.262	22.9
0.329	29.3
0.395	35.2
0.461	40.3
0.526	44.4
0.591	47.8
0.659	50.8
0.724	53.1
0.79	55.2
0.857	56.8
0.921	58.3
0.955	59
1	60.1
1.02	60.5
1.05	61.1
