Adsorption isotherm of Ethene on Cu(ina)2
DOI: 10.1021/jacs.8b07563
Article source: Figure 1d
Adsorbate Ethene: InChIKey VGGSQFUCUMXWEO-UHFFFAOYSA-N
Kind: experiment
Temperature: 298 K
Tabular data in the source: 0
pressure (bar)	uptake (cm3(STP)/cm3)
0.0317	5.47
0.0639	10.4
0.0993	15.7
0.132	20.3
0.165	24.4
0.198	28.2
0.263	34.7
0.328	39.9
0.395	44.1
0.46	47.6
0.527	50.8
0.593	53.3
0.659	55.6
0.726	57.7
0.79	59.5
0.857	61.1
0.921	62.4
0.955	63.3
1	64.2
1.02	64.9
1.05	65.5
