Adsorption isotherm of Ethane, Ethene on Cu(ina)2
DOI: 10.1021/jacs.8b07563
Article source: Table S3
Adsorbate Ethane: InChIKey OTMSDBZUPAUEDD-UHFFFAOYSA-N
Adsorbate Ethene: InChIKey VGGSQFUCUMXWEO-UHFFFAOYSA-N
Kind: experiment
Temperature: 298 K
Tabular data in the source: 0
pressure (bar)	Ethane fraction	Ethane uptake (cm3(STP)/g)	Ethene fraction	Ethene uptake (cm3(STP)/g)	total uptake (cm3(STP)/g)
1	0.5	44.7	0.5	42.7	
