Adsorption isotherm of Ethane on Cu(ina)2
DOI: 10.1021/jacs.8b07563
Article source: Figure 1d
Adsorbate Ethane: InChIKey OTMSDBZUPAUEDD-UHFFFAOYSA-N
Kind: experiment
Temperature: 298 K
Tabular data in the source: 0
pressure (bar)	uptake (cm3(STP)/cm3)
0.0159	3.46
0.0328	6.56
0.0639	12.8
0.0988	19.5
0.132	25.4
0.164	30.2
0.197	34.3
0.264	41.2
0.328	46
0.394	49.8
0.46	52.9
0.527	55.5
0.592	57.7
0.658	59.7
0.725	61.4
0.791	63
0.858	64.4
0.923	65.7
0.955	66.5
1	67.4
1.02	67.9
1.05	68.5
