Adsorption isotherm of Methane on PCN-13
DOI: 10.1021/Ja0771639
Adsorbate Methane: InChIKey VNWKTOKETHGBQD-UHFFFAOYSA-N
Temperature: 195 K
Tabular data in the source: 0
pressure (bar)	uptake (cm3(STP)/cm3)
0.0155478	6.39013
0.0404243	8.50046
0.0777391	12.7336
0.108835	12.7024
0.133711	13.7452
0.177245	13.7016
0.202122	14.7443
0.239436	16.8422
0.279861	16.8017
0.326504	16.755
0.360709	17.7884
0.401134	17.7479
0.444667	17.7044
0.488201	18.7284
0.525516	19.7587
0.56594	18.6506
0.612584	20.7391
0.643679	19.6404
0.665446	20.6862
0.70898	19.575
0.749405	20.6022
0.792938	20.5586
0.811596	20.5399
0.867568	20.4839
0.892444	21.5266
0.907992	21.5111
0.935978	22.5507
0.954636	21.4644
0.99195	21.427
1.01372	21.4052
