Adsorption isotherm of Methane on PCN-14
DOI: 10.1021/Ja0771639
Adsorbate Methane: InChIKey VNWKTOKETHGBQD-UHFFFAOYSA-N
Temperature: 125 K
Tabular data in the source: 0
pressure (bar)	uptake (volume/volume)
0.410784	403.207
0.422003	373.252
0.42977	352.515
0.447893	304.127
0.465152	258.043
0.592875	417.023
0.963098	428.527
1.52232	435.414
