Adsorption isotherm of Methane on PCN-14
DOI: 10.1021/Ja0771639
Adsorbate Methane: InChIKey VNWKTOKETHGBQD-UHFFFAOYSA-N
Temperature: 290 K
Tabular data in the source: 0
pressure (bar)	uptake (volume/volume)
0.749064	18.3641
1.87266	34.3896
2.43446	43.5544
2.99625	57.3275
3.93258	68.762
5.24345	87.0743
7.49064	114.517
10.4869	141.891
15.1685	169.109
20.7865	191.633
25.8427	200.383
31.2734	209.099
37.8277	220.016
40.6367	222.061
41.7603	224.262
