Adsorption isotherm of Methane on PCN-14
DOI: 10.1021/Ja0771639
Adsorbate Methane: InChIKey VNWKTOKETHGBQD-UHFFFAOYSA-N
Temperature: 150 K
Tabular data in the source: 0
pressure (bar)	uptake (volume/volume)
0.463426	262.651
0.625669	329.464
0.642066	285.685
0.804308	352.497
0.979495	384.747
1.35058	393.947
1.9098	400.834
2.46902	407.72
3.21723	409.99
4.52639	414.538
5.46101	419.103
