Adsorption isotherm of Methane on PCN-14
DOI: 10.1021/Ja0771639
Adsorbate Methane: InChIKey VNWKTOKETHGBQD-UHFFFAOYSA-N
Temperature: 195 K
Tabular data in the source: 0
pressure (bar)	uptake (cm3(STP)/cm3)
0.0155478	17.0663
0.0404243	27.7175
0.049753	34.1139
0.0746295	41.5623
0.0932869	46.8817
0.121273	53.2594
0.136821	63.92
0.161697	74.5712
0.183464	83.0904
0.202122	94.8155
0.242546	104.384
0.279861	115.022
0.323395	133.128
0.360709	149.105
0.398024	162.947
0.441558	176.782
0.478873	185.286
0.525516	198.05
0.562831	205.486
0.603255	213.987
0.643679	219.285
0.668556	226.733
0.687213	233.12
0.724528	236.285
0.746295	240.534
0.7805	243.703
0.814705	247.939
0.85513	252.169
0.880006	255.347
0.917321	258.512
0.948417	258.481
0.979512	259.518
