Adsorption isotherm of Methane on PCN-14
DOI: 10.1021/Ja0771639
Adsorbate Methane: InChIKey VNWKTOKETHGBQD-UHFFFAOYSA-N
Temperature: 280 K
Tabular data in the source: 0
pressure (bar)	uptake (volume/volume)
1.66471	55.2228
2.22048	71.3262
2.96524	82.8127
3.52101	98.9161
4.82412	119.593
6.87286	149.453
9.67155	176.974
13.5938	204.443
19.0152	229.538
24.6272	245.409
29.8655	258.992
36.2275	272.524
39.783	279.273
41.4676	281.499
42.0285	283.777
