Adsorption isotherm of Methane on PCN-14
DOI: 10.1021/Ja0771639
Adsorbate Methane: InChIKey VNWKTOKETHGBQD-UHFFFAOYSA-N
Temperature: 270 K
Tabular data in the source: 0
pressure (bar)	uptake (volume/volume)
1.31086	45.9621
1.49813	57.4656
2.05993	71.2387
2.62172	89.6201
3.18352	108.002
4.49438	133.226
5.99251	156.13
8.42697	185.859
12.3596	215.451
17.2285	235.739
22.8464	249.046
27.9026	253.189
34.4569	259.497
37.4532	263.829
38.764	261.404
