Adsorption isotherm of Methane on PCN-14
DOI: 10.1021/Ja0771639
Adsorbate Methane: InChIKey VNWKTOKETHGBQD-UHFFFAOYSA-N
Temperature: 150 K
Tabular data in the source: 0
pressure (bar)	uptake (volume/volume)
0.374532	0.374532
0.561798	329.441
0.749064	304.078
0.93633	352.448
1.1236	382.385
1.49813	391.567
1.68539	398.462
2.62172	402.984
3.18352	409.845
4.30712	409.741
5.61798	414.229
