Adsorption isotherm of Methane on PCN-14
DOI: 10.1021/Ja0771639
Adsorbate Methane: InChIKey VNWKTOKETHGBQD-UHFFFAOYSA-N
Temperature: 200 K
Tabular data in the source: 0
pressure (bar)	uptake (volume/volume)
0.516069	122.096
0.6809	181.996
0.687804	163.563
0.696434	140.521
1.04681	205.021
1.22458	230.358
1.40322	253.392
1.58359	271.816
2.13763	292.528
3.06793	308.614
3.62543	320.109
4.74386	333.883
6.79865	347.613
9.97791	358.987
14.0944	368.014
19.5226	374.676
