Adsorption isotherm of Methane on PCN-14
DOI: 10.1021/Ja0771639
Adsorbate Methane: InChIKey VNWKTOKETHGBQD-UHFFFAOYSA-N
Temperature: 280 K
Tabular data in the source: 0
pressure (bar)	uptake (volume/volume)
1.68539	55.1442
2.80899	80.3863
3.74532	96.429
4.68165	117.08
6.92884	144.523
9.73783	171.914
13.6704	196.897
19.1011	219.438
24.5318	235.066
29.7753	241.495
36.3296	254.716
39.8876	258.997
41.573	261.145
42.1348	263.398
