Adsorption isotherm of Methane on PCN-14
DOI: 10.1021/Ja0771639
Adsorbate Methane: InChIKey VNWKTOKETHGBQD-UHFFFAOYSA-N
Temperature: 240 K
Tabular data in the source: 0
pressure (bar)	uptake (volume/volume)
0.561798	46.0312
0.93633	71.3423
1.1236	87.454
1.31086	105.87
1.87266	131.164
2.43446	154.154
2.80899	177.16
3.55805	195.525
4.68165	218.463
7.30337	245.871
10.2996	268.636
14.9813	284.334
20.2247	295.371
26.2172	301.731
29.4007	301.438
31.0861	301.282
32.0225	301.196
