Adsorption isotherm of Methane on PCN-14
DOI: 10.1021/Ja0771639
Adsorbate Methane: InChIKey VNWKTOKETHGBQD-UHFFFAOYSA-N
Temperature: 200 K
Tabular data in the source: 0
pressure (bar)	uptake (volume/volume)
0.374532	89.8272
0.561798	163.543
0.749064	179.654
1.1236	230.311
1.49813	251.014
1.87266	271.717
2.43446	290.098
2.99625	306.175
3.74532	317.627
4.86891	331.348
6.92884	342.679
10.1124	351.603
13.8577	358.17
19.6629	359.939
