Adsorption isotherm of Methane on PCN-14
DOI: 10.1021/Ja0771639
Adsorbate Methane: InChIKey VNWKTOKETHGBQD-UHFFFAOYSA-N
Temperature: 270 K
Tabular data in the source: 0
pressure (bar)	uptake (volume/volume)
1.47658	57.5356
2.03148	75.9432
2.58725	92.0467
3.32942	110.446
4.44441	133.436
5.7458	158.721
8.54275	190.851
12.2761	222.937
17.3237	245.745
22.7493	259.32
27.9894	268.295
34.5395	279.514
37.3494	277.081
38.4722	279.333
