Adsorption isotherm of Methane on PCN-14
DOI: 10.1021/Ja0771639
Adsorbate Methane: InChIKey VNWKTOKETHGBQD-UHFFFAOYSA-N
Temperature: 290 K
Tabular data in the source: 0
pressure (bar)	uptake (volume/volume)
0.744762	11.4864
1.4878	27.5812
2.04615	36.7721
2.60365	48.2671
3.34841	59.7535
3.90676	68.9444
5.20902	91.9259
7.63489	114.856
10.6191	146.976
15.1032	174.419
20.7118	199.506
25.9502	213.09
31.3766	224.361
37.3632	240.214
40.3587	242.38
41.8568	242.311
