Adsorption isotherm of Methane on PCN-14
DOI: 10.1021/Ja0771639
Adsorbate Methane: InChIKey VNWKTOKETHGBQD-UHFFFAOYSA-N
Temperature: 125 K
Tabular data in the source: 0
pressure (bar)	uptake (volume/volume)
0.374532	0.374532
0.561798	211.93
0.749064	317.903
1.31086	428.451
1.49813	435.346
