Adsorption isotherm of Nitrogen on PCN-14
DOI: 10.1021/Ja0771639
Adsorbate Nitrogen: InChIKey IJGRMHOSHXDMSA-UHFFFAOYSA-N
Temperature: 77 K
Tabular data in the source: 0
pressure (bar)	uptake (cm3(STP)/g)
0.00837517	462.694
0.0251255	477.519
0.0446676	490.238
0.0725848	500.862
0.117252	507.297
0.187046	518.012
0.256839	522.39
0.337799	528.904
0.4048	533.275
0.429926	535.442
0.46901	537.64
0.510886	539.843
0.561137	542.065
0.628138	546.436
0.683972	550.783
0.717473	548.743
0.790058	555.239
0.848684	555.367
0.89056	561.796
0.943603	564.024
0.97152	568.31
