Adsorption isotherm of Methane on PCN-14
DOI: 10.1021/Ja0771639
Adsorbate Methane: InChIKey VNWKTOKETHGBQD-UHFFFAOYSA-N
Temperature: 240 K
Tabular data in the source: 0
pressure (bar)	uptake (volume/volume)
0.725776	62.1785
0.90873	73.6908
1.08996	89.8115
1.45846	105.924
1.8235	131.252
2.37754	151.964
3.11713	177.276
3.67203	195.683
4.97342	220.969
7.20943	250.82
10.198	271.419
14.6847	291.95
20.2976	305.516
26.2859	316.761
29.2813	318.927
30.9659	321.154
31.9031	318.806
