Adsorption isotherm of Carbon Dioxide on TRIPTA
DOI: 10.1039/c6ra01717g
Article source: Figure 11
Adsorbate Carbon Dioxide: InChIKey CURLTUGMZLYLDI-UHFFFAOYSA-N
Kind: experiment
Temperature: 298 K
Tabular data in the source: 0
pressure (bar)	uptake (mmol/g)
2.22571	2.43422
2.49026	2.46893
2.75481	2.68216
3.28391	2.91027
3.56913	2.99295
3.81301	3.13837
4.07757	3.21276
4.34212	3.31689
4.60667	3.41111
3.10461	2.87843
4.78347	3.46667
5.30004	3.62353
1.99397	2.2902
1.87774	2.21177
1.69694	2.0549
1.49031	1.97647
1.37408	1.89804
1.27077	1.81961
1.2062	1.78039
1.08997	1.58431
0.99957	1.58431
0.922084	1.5451
0.831683	1.42745
0.754197	1.38823
0.612139	1.15294
0.521739	1.03529
0.366767	0.839216
0.289281	0.643137
0.173052	0.447059
0.082652	0.25098
0.676711	1.23137
0.573396	1.19216
0.508825	1.03529
0.431339	0.917647
0.31511	0.721569
0.198881	0.564706
0.121395	0.368627
