Adsorption isotherm of Nitrogen on TRIPTA
DOI: 10.1039/c6ra01717g
Article source: Figure 2
Adsorbate Nitrogen: InChIKey IJGRMHOSHXDMSA-UHFFFAOYSA-N
Kind: experiment
Temperature: 77 K
Tabular data in the source: 0
pressure (bar)	uptake (cm3(STP)/g)
0.026148	133.317
0.051479	142.217
0.076811	149.846
0.102142	155.568
0.127473	158.233
0.151987	160.279
0.179769	162.814
0.206734	165.487
0.232882	167.769
0.258213	169.163
0.283545	171.209
0.309693	172.986
0.335024	174.893
0.361172	176.661
0.385686	178.072
0.411834	179.587
0.436349	181.372
0.463314	183.019
0.487011	185.187
0.513976	186.067
0.537674	187.991
0.563822	190.029
0.588336	190.917
0.613668	192.188
0.638999	194.096
0.66433	196.003
0.689661	197.91
0.714993	201.089
0.740324	202.36
0.765655	205.539
0.790986	206.811
0.816318	210.625
0.841649	212.532
0.86698	216.347
0.892311	218.89
0.917643	222.069
0.942974	227.79
0.968305	232.241
0.993636	236.055
0.050662	147.817
0.101325	156.106
0.152804	163.866
0.195299	168.055
0.250862	172.122
0.295807	175.048
0.355454	178.471
0.4053	183.418
0.454329	186.075
0.504991	187.982
0.552387	191.186
0.604683	198.571
0.658613	205.312
0.706825	209.509
0.753403	212.932
0.808966	219.029
0.853911	223.879
0.910291	230.228
0.955236	235.044
1.00672	242.4
