Adsorption isotherm of Carbon Dioxide on TRIPTA
DOI: 10.1039/c6ra01717g
Article source: Figure 11
Adsorbate Carbon Dioxide: InChIKey CURLTUGMZLYLDI-UHFFFAOYSA-N
Kind: experiment
Temperature: 273 K
Tabular data in the source: 0
pressure (bar)	uptake (mmol/g)
2	7.12701
2.25	7.7072
2.5	8.28739
2.75	8.73368
2.99483	9.30901
3.25	9.67091
3.5	10.2438
3.75	10.6528
4	11.1437
4.25	11.5007
4.50517	11.8542
4.75	12.2148
5.23967	12.8867
1.85192	6.83922
1.58071	6.21176
1.43866	5.74118
1.30951	5.3098
1.24494	5.34902
1.19328	5.07451
1.07706	4.76078
0.986655	4.64314
0.973741	4.36863
0.896255	4.2902
0.909169	4.09412
0.857512	4.01569
0.767111	3.78039
0.70254	3.58431
0.650882	3.38824
0.625054	3.3098
0.534653	2.99608
0.521739	2.91765
0.431339	2.56471
0.392596	2.44706
0.31511	2.09412
0.263452	2.01569
0.211795	1.62353
0.173052	1.5451
0.134309	1.23137
0.082652	0.917647
0.056823	0.760784
0.030994	0.447059
