Adsorption isotherm of Nitrogen on {[(Me2NH2)2]*[Cd3(5-tbip)4]*2DMF}n
DOI: 10.1039/C3ce40795k
Adsorbate Nitrogen: InChIKey IJGRMHOSHXDMSA-UHFFFAOYSA-N
Temperature: 77 K
Tabular data in the source: 0
pressure (bar)	uptake (cm3(STP)/g)
0.0140693	0.0854218
0.0774495	0.254436
0.201393	0.42345
0.294351	0.592464
0.381675	0.761478
0.4859	1.09951
0.584492	1.18401
0.676041	1.35303
0.764773	1.69106
0.821112	1.86007
0.902802	2.45162
0.92252	2.62063
0.947872	3.3812
0.95914	6.08542
