Adsorption isotherm of Carbon Dioxide on {[(Me2NH2)2]*[Cd3(5-tbip)4]*2DMF}n
DOI: 10.1039/C3ce40795k
Adsorbate Carbon Dioxide: InChIKey CURLTUGMZLYLDI-UHFFFAOYSA-N
Temperature: 273 K
Tabular data in the source: 0
pressure (bar)	uptake (cm3(STP)/g)
0.00280166	0.118523
0.0197031	0.631199
0.0492805	1.41993
0.0943509	2.44528
0.149281	3.45092
0.250689	5.02838
0.354914	6.48754
0.450689	7.74951
0.547872	8.8143
0.650689	9.81993
0.753506	10.8256
0.849281	11.6143
0.953506	12.5016
0.999985	12.8763
