Adsorption isotherm of Nitrogen on {[(Me2NH2)2]*[Cd3(5-tbip)4]*2DMF}n
DOI: 10.1039/C3ce40795k
Adsorbate Nitrogen: InChIKey IJGRMHOSHXDMSA-UHFFFAOYSA-N
Temperature: 77 K
Tabular data in the source: 0
pressure (bar)	uptake (cm3(STP)/g)
0.00515504	0.31116
0.0766622	0.396968
0.193934	0.568586
0.292614	0.654394
0.382713	0.654394
0.484253	0.826011
0.580073	1.08344
0.677322	1.42667
0.771712	1.51248
0.906145	2.28476
0.946189	3.31446
0.95906	6.06033
