Adsorption isotherm of Hydrogen on {[(Me2NH2)2]*[Cd3(5-tbip)4]*2DMF}n
DOI: 10.1039/C3ce40795k
Adsorbate Hydrogen: InChIKey UFHFLCQGNIYNRP-UHFFFAOYSA-N
Temperature: 77 K
Tabular data in the source: 0
pressure (bar)	uptake (cm3(STP)/g)
0.00421011	0.254436
0.0309707	2.2826
0.101393	5.91641
0.154914	7.35303
0.253506	9.29669
0.353506	10.9023
0.456323	12.2544
0.556323	13.522
0.653506	14.3671
0.705619	15.2967
0.808435	16.0573
0.902802	16.8178
1.0028	17.6629
