Adsorption isotherm of Hydrogen on {[(Me2NH2)2]*[Cd3(5-tbip)4]*2DMF}n
DOI: 10.1039/C3ce40795k
Adsorbate Hydrogen: InChIKey UFHFLCQGNIYNRP-UHFFFAOYSA-N
Temperature: 273 K
Tabular data in the source: 0
pressure (bar)	uptake (cm3(STP)/g)
0.00702701	0.0199317
0.0985763	0.236833
0.152097	0.27627
0.253506	0.374861
0.353506	0.532608
0.452097	0.631199
0.553506	0.749509
0.649281	0.926974
0.753506	1.065
0.846464	1.24247
0.901393	1.34106
0.953506	1.40021
1.00139	1.53824
