Adsorption isotherm of Methane on {[(Me2NH2)2]*[Cd3(5-tbip)4]*2DMF}n
DOI: 10.1039/C3ce40795k
Adsorbate Methane: InChIKey VNWKTOKETHGBQD-UHFFFAOYSA-N
Temperature: 195 K
Tabular data in the source: 0
pressure (bar)	uptake (cm3(STP)/g)
0.00843546	0.42345
0.0985763	3.97275
0.153506	4.90232
0.253506	6.33894
0.354914	7.60655
0.452097	8.36711
0.552097	9.29669
0.657731	10.1418
0.750689	10.7333
0.850689	11.1558
0.952097	11.9164
0.999985	12.1699
