Adsorption isotherm of Carbon Dioxide on {[(Me2NH2)2]*[Cd3(5-tbip)4]*2DMF}n
DOI: 10.1039/C3ce40795k
Adsorbate Carbon Dioxide: InChIKey CURLTUGMZLYLDI-UHFFFAOYSA-N
Temperature: 195 K
Tabular data in the source: 0
pressure (bar)	uptake (cm3(STP)/g)
0.00421011	0.507957
0.0126608	12.0854
0.0197031	15.1277
0.0337876	19.6911
0.050689	23.5784
0.0718157	26.9587
0.10421	29.9164
0.160548	33.8882
0.253506	38.2826
0.408435	43.353
0.550689	47.1558
0.652097	49.8601
0.754914	52.4798
0.852097	55.353
0.954914	59.1558
