Adsorption isotherm of Carbon Dioxide on {[(Me2NH2)2]*[Cd3(5-tbip)4]*2DMF}n
DOI: 10.1039/C3ce40795k
Adsorbate Carbon Dioxide: InChIKey CURLTUGMZLYLDI-UHFFFAOYSA-N
Temperature: 195 K
Tabular data in the source: 0
pressure (bar)	uptake (cm3(STP)/g)
0.000865	0.139543
0.00229475	4.51578
0.0123058	11.9811
0.0194565	16.529
0.035188	21.4201
0.0566402	25.1956
0.0995445	29.7435
0.143879	32.9184
0.198224	35.9217
0.301195	40.0405
0.401305	43.2155
0.501415	45.8755
0.65301	49.6511
0.75169	52.3112
0.848939	55.3145
0.95048	58.9184
