Adsorption isotherm of Methane on {[(Me2NH2)2]*[Cd3(5-tbip)4]*2DMF}n
DOI: 10.1039/C3ce40795k
Adsorbate Methane: InChIKey VNWKTOKETHGBQD-UHFFFAOYSA-N
Temperature: 273 K
Tabular data in the source: 0
pressure (bar)	uptake (cm3(STP)/g)
0.0168862	0.118523
0.0985763	0.434016
0.150689	0.650918
0.249281	0.966411
0.352097	1.32134
0.450689	1.65655
0.553506	2.05092
0.650689	2.38613
0.746464	2.6819
0.850689	3.01711
0.898576	3.17486
0.949281	3.37204
1.00139	3.47064
