Adsorption isotherm of Nitrogen on {[(Me2NH2)2]*[Cd3(5-tbip)4]*2DMF}n
DOI: 10.1039/C3ce40795k
Adsorbate Nitrogen: InChIKey IJGRMHOSHXDMSA-UHFFFAOYSA-N
Temperature: 273 K
Tabular data in the source: 0
pressure (bar)	uptake (cm3(STP)/g)
0.0774495	0.098805
0.198576	0.27627
0.301393	0.39458
0.398576	0.51289
0.456323	0.572044
0.553506	0.650918
0.650689	0.808664
0.752097	0.986129
0.850689	1.12416
0.947872	1.24247
0.998576	1.36078
