Adsorption isotherm of Nitrogen on ZIF-8
DOI: 10.1002/Aic.14525
Adsorbate Nitrogen: InChIKey IJGRMHOSHXDMSA-UHFFFAOYSA-N
Temperature: 77 K
Tabular data in the source: 0
pressure (bar)	uptake (cm3(STP)/g)
0.00423778	4.52648
0.00569669	24.7508
0.00579221	40.4809
0.00587906	56.2109
0.00595721	76.4353
0.00610484	103.39
0.006183	125.873
0.00626983	152.838
0.00636536	177.557
0.00646957	200.029
0.00666061	220.253
0.00673876	238.241
0.00679955	258.455
0.00686034	278.679
0.0069385	301.15
0.00835398	325.869
0.0100908	388.811
0.0354393	429.377
0.0608138	463.203
0.0769834	479.008
0.100126	490.351
0.11864	499.425
0.155677	515.327
0.176537	517.671
0.294734	531.701
0.341098	534.162
0.406028	532.215
0.454701	536.935
0.503393	537.16
0.549766	537.375
0.600775	537.611
0.649466	537.836
0.695839	538.051
0.744529	538.276
0.795539	538.512
0.811761	540.834
0.839585	540.963
0.872045	541.113
0.897542	543.478
0.918391	548.069
0.941552	554.918
0.960031	572.981
