Adsorption isotherm of Hydrogen on IRMOF-1
DOI: 10.1063/1.4892670
Adsorbate Hydrogen: InChIKey UFHFLCQGNIYNRP-UHFFFAOYSA-N
Temperature: 77 K
Tabular data in the source: 0
pressure (bar)	uptake (wt%)
0.408714	1.40351
2.56796	3.15789
3.43474	3.7193
4.30384	4.17544
5.17447	4.5614
6.48699	4.84211
9.54926	5.50877
14.5896	6.17544
19.4155	6.59649
24.9015	6.98246
29.7313	7.22807
34.3428	7.40351
39.6129	7.61404
44.445	7.75439
49.7166	7.89474
54.7692	8
59.6029	8.07018
64.6555	8.17544
69.7089	8.24561
74.9828	8.2807
79.8172	8.31579
84.8691	8.45614
89.9225	8.52632
94.9774	8.52632
100.03	8.63158
