Adsorption isotherm of Hydrogen on IRMOF-8
DOI: 10.1063/1.4892670
Adsorbate Hydrogen: InChIKey UFHFLCQGNIYNRP-UHFFFAOYSA-N
Temperature: 77 K
Tabular data in the source: 0
pressure (bar)	uptake (wt%)
15.0327	5.80882
19.8257	6.61765
25.0545	7.27941
30.0654	7.72059
34.8584	8.16176
40.0871	8.45588
44.8802	8.75
50.1089	9.04412
55.1198	9.26471
59.9129	9.41176
65.1416	9.55882
69.9346	9.70588
75.3813	9.85294
79.9564	10
84.9673	10.1471
89.9782	10.2206
94.9891	10.3676
100	10.4412
