Adsorption isotherm of Hydrogen on IRMOF-6
DOI: 10.1063/1.4892670
Adsorbate Hydrogen: InChIKey UFHFLCQGNIYNRP-UHFFFAOYSA-N
Temperature: 77 K
Tabular data in the source: 0
pressure (bar)	uptake (wt%)
30.0654	6.25
35.0763	6.39706
39.8693	6.54412
45.3159	6.76471
49.8911	6.83824
55.3377	6.98529
59.9129	7.13235
65.1416	7.20588
70.3704	7.27941
75.1634	7.35294
80.1743	7.5
85.1852	7.5
90.1961	7.5
95.207	7.57353
100.218	7.72059
