Adsorption isotherm of Hydrogen on IRMOF-16
DOI: 10.1063/1.4892670
Adsorbate Hydrogen: InChIKey UFHFLCQGNIYNRP-UHFFFAOYSA-N
Temperature: 77 K
Tabular data in the source: 0
pressure (bar)	uptake (g/l)
0.866404	2.01439
1.94554	3.27338
2.80962	4.53237
3.45865	5.79137
4.96712	6.79856
6.04626	8.05755
6.90957	9.06475
7.98716	9.82014
9.713	11.5827
14.8874	15.8633
19.8422	18.6331
25.0128	21.6547
29.9667	24.1727
34.7057	26.6906
39.8739	28.9568
45.0414	30.9712
50.2073	32.482
54.9439	34.2446
59.679	35.5036
65.06	37.0144
69.7958	38.5252
74.9602	39.5324
79.9103	40.7914
84.6445	41.7986
90.0248	43.0576
95.1884	43.8129
99.9234	45.0719
