Adsorption isotherm of Hydrogen on IRMOF-1
DOI: 10.1063/1.4892670
Adsorbate Hydrogen: InChIKey UFHFLCQGNIYNRP-UHFFFAOYSA-N
Temperature: 77 K
Tabular data in the source: 0
pressure (bar)	uptake (wt%)
20.0436	5.88235
24.8366	6.32353
30.0654	6.54412
35.0763	6.91176
39.8693	6.98529
45.098	7.20588
49.8911	7.35294
55.1198	7.57353
59.9129	7.57353
65.1416	7.79412
70.1525	7.79412
75.1634	7.94118
80.1743	8.01471
85.1852	8.08824
89.9782	8.08824
94.9891	8.23529
