Adsorption isotherm of Hydrogen on IRMOF-10
DOI: 10.1063/1.4892670
Adsorbate Hydrogen: InChIKey UFHFLCQGNIYNRP-UHFFFAOYSA-N
Temperature: 77 K
Tabular data in the source: 0
pressure (bar)	uptake (wt%)
14.8148	6.39706
20.0436	7.35294
25.0545	8.23529
29.8475	8.97059
35.0763	9.55882
40.0871	10.0735
45.098	10.4412
50.1089	10.8824
55.1198	11.3235
60.1307	11.6176
65.1416	11.8382
70.1525	12.1324
75.1634	12.2794
80.3922	12.5
85.1852	12.7206
90.1961	12.9412
95.207	13.0882
100.218	13.2353
