Adsorption isotherm of Hydrogen on IRMOF-1
DOI: 10.1063/1.4892670
Adsorbate Hydrogen: InChIKey UFHFLCQGNIYNRP-UHFFFAOYSA-N
Temperature: 77 K
Tabular data in the source: 0
pressure (bar)	uptake (wt%)
-0.227467	0.34973
-0.0176748	0.804202
0.198265	0.978952
1.26874	2.27228
2.35305	2.93624
3.4412	3.42537
4.31034	3.87961
5.40233	4.19392
6.49202	4.61311
7.58632	4.82252
9.33612	5.20653
14.3734	6.00896
19.6359	6.56656
24.4642	6.87956
29.5115	7.22744
34.5611	7.47043
39.6122	7.64349
44.6634	7.81655
49.7145	7.98961
54.7664	8.1277
59.8183	8.2658
64.871	8.36893
69.7039	8.47213
74.7566	8.57526
79.81	8.64342
85.0825	8.74647
89.9162	8.81471
94.9688	8.91784
100.023	8.95104
