Adsorption isotherm of Hydrogen on IRMOF-6
DOI: 10.1063/1.4892670
Adsorbate Hydrogen: InChIKey UFHFLCQGNIYNRP-UHFFFAOYSA-N
Temperature: 77 K
Tabular data in the source: 0
pressure (bar)	uptake (g/l)
4.14791	20.1439
4.8008	22.6619
5.88226	24.6763
6.74867	26.6906
7.82858	28.2014
9.98685	30.7194
14.9486	35.7554
20.1191	38.777
24.643	41.295
29.8089	42.8058
35.405	44.3165
39.9257	45.8273
45.0909	47.0863
49.8236	47.5899
54.988	48.5971
60.1516	49.3525
65.1002	50.1079
70.0487	50.8633
74.9965	51.3669
79.7292	51.8705
85.1087	52.8777
89.8399	52.8777
95.2178	53.3813
100.166	53.8849
