Adsorption isotherm of Hydrogen on IRMOF-1
DOI: 10.1063/1.4892670
Adsorbate Hydrogen: InChIKey UFHFLCQGNIYNRP-UHFFFAOYSA-N
Temperature: 77 K
Tabular data in the source: 0
pressure (bar)	uptake (wt%)
-0.22055	0.0350422
0.198265	0.978952
0.203644	0.734195
0.215171	0.209715
1.50082	1.71276
2.36688	2.30686
3.4558	2.76103
4.54549	3.18023
5.4177	3.49461
6.50969	3.80891
7.60246	4.08825
9.79029	4.54203
14.6078	5.34454
19.4307	5.9023
24.4772	6.28515
29.5261	6.5631
34.3559	6.80617
39.6253	7.04908
44.6764	7.22214
49.7283	7.36023
54.7803	7.49833
59.8329	7.60146
64.8848	7.73955
69.9383	7.80771
74.991	7.91084
79.8246	7.97908
85.3176	8.04709
90.1513	8.11533
