Adsorption isotherm of Hydrogen on IRMOF-10
DOI: 10.1063/1.4892670
Adsorbate Hydrogen: InChIKey UFHFLCQGNIYNRP-UHFFFAOYSA-N
Temperature: 77 K
Tabular data in the source: 0
pressure (bar)	uptake (g/l)
1.73668	5.28777
2.60308	7.30216
3.68376	9.06475
4.97873	10.5755
6.05941	12.3381
6.92427	13.8489
8.0034	15.1079
9.51652	17.6259
14.4775	22.4101
20.0812	26.4388
24.8225	29.7122
30.2073	32.482
35.1605	34.7482
40.1129	36.7626
45.0646	38.5252
50.0147	39.7842
55.1806	41.295
65.0808	43.8129
70.0309	45.0719
74.9803	46.0791
80.1439	46.8345
85.0924	47.5899
90.0418	48.5971
94.9903	49.3525
100.153	49.8561
