Adsorption isotherm of Hydrogen on IRMOF-9
DOI: 10.1063/1.4892670
Adsorbate Hydrogen: InChIKey UFHFLCQGNIYNRP-UHFFFAOYSA-N
Temperature: 77 K
Tabular data in the source: 0
pressure (bar)	uptake (wt%)
-0.217865	0.514706
0.43573	0.955882
0.87146	1.47059
1.30719	1.98529
2.17865	2.72059
3.05011	3.23529
3.92157	3.67647
5.01089	3.97059
6.10022	4.26471
10.0218	4.92647
14.8148	5.29412
19.8257	5.66176
25.0545	5.88235
30.0654	6.10294
34.8584	6.25
40.0871	6.47059
44.8802	6.54412
50.1089	6.61765
55.3377	6.69118
60.1307	6.76471
64.9237	6.83824
70.1525	6.91176
75.1634	6.98529
80.1743	6.98529
85.4031	7.13235
89.9782	7.20588
94.9891	7.20588
100.218	7.20588
