Adsorption isotherm of Hydrogen on IRMOF-18
DOI: 10.1063/1.4892670
Adsorbate Hydrogen: InChIKey UFHFLCQGNIYNRP-UHFFFAOYSA-N
Temperature: 77 K
Tabular data in the source: 0
pressure (bar)	uptake (wt%)
5.01089	2.86765
6.10022	3.16176
7.18954	3.30882
8.27887	3.45588
10.0218	3.67647
15.0327	4.19118
20.0436	4.55882
25.0545	4.63235
30.2832	4.85294
35.0763	5
40.0871	5.07353
45.098	5.22059
50.1089	5.22059
54.902	5.29412
60.1307	5.51471
65.5773	5.51471
69.9346	5.51471
75.3813	5.58824
79.9564	5.66176
84.9673	5.73529
90.1961	5.80882
95.207	5.80882
100.218	5.88235
