Adsorption isotherm of Hydrogen on IRMOF-1
DOI: 10.1063/1.4892670
Adsorbate Hydrogen: InChIKey UFHFLCQGNIYNRP-UHFFFAOYSA-N
Temperature: 77 K
Tabular data in the source: 0
pressure (bar)	uptake (wt%)
0.187392	1.47368
2.34124	3.47368
3.42549	4.14035
4.51205	4.70175
5.38269	5.08772
6.47311	5.47368
9.31405	6.21053
14.3513	7.01754
19.3946	7.54386
24.4419	7.89474
29.7112	8.14035
34.5402	8.42105
39.5928	8.52632
44.6439	8.70175
49.9148	8.87719
54.5286	8.94737
59.7995	9.12281
64.6331	9.19298
69.9055	9.29825
74.7399	9.33333
80.0131	9.40351
85.0657	9.50877
89.9001	9.54386
94.9535	9.61404
99.7879	9.64912
