Adsorption isotherm of Hydrogen on IRMOF-177
DOI: 10.1063/1.4892670
Adsorbate Hydrogen: InChIKey UFHFLCQGNIYNRP-UHFFFAOYSA-N
Temperature: 77 K
Tabular data in the source: 0
pressure (bar)	uptake (g/l)
-0.427787	0.755396
0.222016	2.26619
0.658312	4.28058
1.52626	6.79856
3.0386	9.06475
3.69072	11.3309
4.77373	13.8489
5.85441	15.6115
6.9351	17.3741
8.01423	18.6331
9.96055	22.1583
14.9238	27.6978
19.8824	31.7266
24.8387	35
29.7927	37.518
34.7443	39.2806
39.696	41.0432
45.0762	42.3022
49.812	43.8129
55.1922	45.0719
59.9265	46.0791
64.8751	46.8345
70.0395	47.8417
75.2031	48.5971
79.7207	49.1007
84.8851	50.1079
90.2622	50.3597
95.4259	51.1151
100.159	51.6187
