Adsorption isotherm of Hydrogen on IRMOF-4
DOI: 10.1063/1.4892670
Adsorbate Hydrogen: InChIKey UFHFLCQGNIYNRP-UHFFFAOYSA-N
Temperature: 77 K
Tabular data in the source: 0
pressure (bar)	uptake (wt%)
8.061	3.97059
10.2397	4.19118
14.8148	4.41176
19.8257	4.55882
25.2723	4.70588
30.2832	4.92647
34.8584	4.92647
40.305	5.07353
45.098	5.07353
50.3268	5.22059
55.1198	5.22059
60.3486	5.29412
65.1416	5.29412
70.5882	5.29412
75.3813	5.44118
80.3922	5.51471
85.1852	5.51471
90.1961	5.58824
95.4248	5.58824
100.218	5.58824
