Adsorption isotherm of Hydrogen on IRMOF-8
DOI: 10.1063/1.4892670
Adsorbate Hydrogen: InChIKey UFHFLCQGNIYNRP-UHFFFAOYSA-N
Temperature: 77 K
Tabular data in the source: 0
pressure (bar)	uptake (g/l)
2.39267	8.81295
3.47335	10.5755
3.91042	12.8417
4.99188	14.8561
6.28684	16.3669
6.72391	18.6331
8.23238	19.6403
9.96132	22.4101
14.7095	27.9496
20.0975	31.7266
24.8379	34.7482
29.5761	37.0144
40.1261	41.0432
44.8619	42.554
50.0263	43.5612
54.7621	45.0719
59.9265	46.0791
65.0917	47.3381
69.8244	47.8417
75.2038	48.8489
80.3674	49.6043
84.8844	49.8561
90.048	50.6115
94.9957	51.1151
100.16	52.1223
