Adsorption isotherm of Hydrogen on IRMOF-16
DOI: 10.1063/1.4892670
Adsorbate Hydrogen: InChIKey UFHFLCQGNIYNRP-UHFFFAOYSA-N
Temperature: 77 K
Tabular data in the source: 0
pressure (bar)	uptake (wt%)
15.0327	7.05882
20.0436	8.52941
25.0545	9.55882
30.2832	10.6618
35.0763	11.5441
40.0871	12.3529
45.098	13.0882
49.8911	13.75
54.902	14.4118
60.3486	14.9265
65.1416	15.3676
70.1525	15.9559
75.1634	16.3235
80.3922	16.6912
85.4031	17.0588
90.1961	17.3529
95.207	17.6471
100	18.0147
