Adsorption isotherm of Hydrogen on IRMOF-177
DOI: 10.1063/1.4892670
Adsorbate Hydrogen: InChIKey UFHFLCQGNIYNRP-UHFFFAOYSA-N
Temperature: 77 K
Tabular data in the source: 0
pressure (bar)	uptake (wt%)
0.217865	0.220588
0.87146	0.514706
1.96078	1.61765
3.05011	2.27941
3.92157	2.79412
4.79303	3.30882
5.66449	3.89706
6.75381	4.33824
8.061	4.55882
10.0218	5.14706
14.8148	6.39706
20.2614	7.35294
25.0545	8.08824
30.0654	8.52941
34.8584	8.89706
40.0871	9.26471
45.098	9.63235
49.8911	9.92647
55.1198	10.0735
59.9129	10.2941
65.1416	10.5147
70.1525	10.6618
75.3813	10.8088
79.9564	10.9559
85.1852	11.1029
90.1961	11.1765
95.207	11.3235
100.218	11.4706
