Adsorption isotherm of Hydrogen on IRMOF-9
DOI: 10.1063/1.4892670
Adsorbate Hydrogen: InChIKey UFHFLCQGNIYNRP-UHFFFAOYSA-N
Temperature: 77 K
Tabular data in the source: 0
pressure (bar)	uptake (g/l)
0.228978	4.53237
0.450994	6.79856
0.464145	11.0791
0.685387	13.0935
0.90895	15.8633
2.00124	21.4029
3.08811	25.1799
3.95838	28.4532
4.82479	30.4676
5.90702	32.7338
6.9877	34.4964
8.06606	35.5036
9.79423	38.0216
15.1845	42.554
19.7091	45.3237
24.8758	47.0863
30.0418	48.5971
34.9919	49.8561
39.9428	51.3669
45.1071	52.3741
50.0549	52.8777
55.0035	53.6331
60.1671	54.3885
65.1149	54.8921
70.2785	55.6475
75.0128	56.6547
80.1741	56.6547
84.9076	57.4101
90.0696	57.6619
95.0166	57.9137
100.179	58.4173
