Adsorption isotherm of Hydrogen on IRMOF-1
DOI: 10.1063/1.4892670
Adsorbate Hydrogen: InChIKey UFHFLCQGNIYNRP-UHFFFAOYSA-N
Temperature: 77 K
Tabular data in the source: 0
pressure (bar)	uptake (g/l)
1.9672	10.3237
2.62242	13.5971
3.70697	16.6187
4.78997	19.1367
5.65715	21.4029
6.73861	23.4173
8.03435	25.1799
14.7258	33.2374
20.1129	36.7626
25.0677	39.5324
29.5908	41.7986
35.186	43.0576
40.1377	44.8201
45.0878	46.0791
65.0994	49.8561
70.2646	51.1151
75.4251	50.8633
80.1594	51.8705
85.1064	52.1223
90.2692	52.6259
95.0004	52.6259
