Adsorption isotherm of Hydrogen on IRMOF-14
DOI: 10.1063/1.4892670
Adsorbate Hydrogen: InChIKey UFHFLCQGNIYNRP-UHFFFAOYSA-N
Temperature: 77 K
Tabular data in the source: 0
pressure (bar)	uptake (wt%)
1.74292	1.91176
3.05011	2.5
3.92157	2.94118
5.01089	3.38235
5.88235	3.89706
7.84314	4.48529
24.6187	8.08824
29.8475	8.52941
34.8584	9.19118
40.0871	9.55882
45.098	9.92647
50.1089	10.2206
55.3377	10.5147
59.9129	10.7353
65.1416	10.9559
70.1525	11.25
75.1634	11.3971
80.1743	11.6176
84.9673	11.7647
90.1961	11.8382
95.207	11.9853
100.218	12.0588
