Adsorption isotherm of Hydrogen on IRMOF-1
DOI: 10.1063/1.4892670
Adsorbate Hydrogen: InChIKey UFHFLCQGNIYNRP-UHFFFAOYSA-N
Temperature: 77 K
Tabular data in the source: 0
pressure (bar)	uptake (wt%)
0.414883	1.12281
2.57721	2.73684
3.22421	3.29825
4.09331	3.75439
5.40505	4.07018
6.27646	4.42105
9.33873	5.08772
14.5973	5.82456
19.6406	6.35088
24.4696	6.63158
29.5184	6.91228
34.5703	7.05263
39.6206	7.26316
44.4519	7.4386
49.7243	7.54386
54.7769	7.64912
59.828	7.82456
64.8837	7.78947
69.7151	7.96491
74.7692	8
79.8226	8.07018
84.876	8.14035
89.931	8.14035
94.9836	8.24561
99.818	8.2807
