Adsorption isotherm of Hydrogen on IRMOF-18
DOI: 10.1063/1.4892670
Adsorbate Hydrogen: InChIKey UFHFLCQGNIYNRP-UHFFFAOYSA-N
Temperature: 77 K
Tabular data in the source: 0
pressure (bar)	uptake (g/l)
0.228978	4.53237
0.663727	6.04317
1.1008	8.30935
1.76066	13.0935
3.06258	16.8705
3.50043	19.3885
4.79771	21.6547
6.09267	23.1655
6.95753	24.6763
7.60656	25.9353
9.97834	27.9496
15.152	31.9784
19.8902	34.2446
24.8426	36.259
30.0077	37.518
34.9586	39.0288
39.6921	39.7842
45.0708	40.5396
49.8051	41.5468
55.183	42.0504
59.9165	42.8058
65.2943	43.3094
70.2421	43.8129
74.9741	44.0647
79.9219	44.5683
84.8704	45.3237
90.2468	45.3237
95.1946	45.8273
100.142	46.3309
