Adsorption isotherm of Nitrogen on CPS-Cu10
DOI: 10.1039/C4ta05342g
Adsorbate Nitrogen: InChIKey IJGRMHOSHXDMSA-UHFFFAOYSA-N
Temperature: 77 K
Tabular data in the source: 0
pressure (bar)	uptake (cm3(STP)/g)
-0.00266901	-0.00274725
5.39302e-17	180.731
0.00266901	241.853
0.00800703	257.785
0.0186831	276.361
0.0346972	297.579
0.0587183	310.803
0.0693943	318.747
0.0987531	329.298
0.122775	334.548
0.149464	339.79
0.176155	347.691
0.194837	347.64
0.205513	350.268
0.226865	355.526
0.245549	358.132
0.272239	358.059
0.293591	360.659
0.330957	365.872
0.381668	371.049
0.392344	373.677
0.435049	376.218
0.48576	378.738
0.531133	383.929
0.584513	391.756
0.629887	396.948
0.680597	402.125
0.723301	407.324
0.771344	417.823
0.822056	428.316
0.878104	462.714
0.899457	478.602
0.926147	518.397
0.936823	560.892
0.955505	770.808
