Adsorption isotherm of Nitrogen on CPS
DOI: 10.1039/C4ta05342g
Adsorbate Nitrogen: InChIKey IJGRMHOSHXDMSA-UHFFFAOYSA-N
Temperature: 77 K
Tabular data in the source: 0
pressure (bar)	uptake (cm3(STP)/g)
-0.00266901	-0.00274725
5.39302e-17	58.4718
0.00266901	241.853
0.00800703	308.284
0.0133451	326.874
0.0240211	340.134
0.0400352	353.379
0.0480421	363.988
0.0533803	371.947
0.0720633	385.185
0.0987531	398.401
0.125444	408.959
0.146796	416.874
0.152133	419.517
0.178824	424.76
0.194837	430.032
0.208183	432.653
0.232204	435.245
0.24288	437.874
0.272239	443.109
0.290923	443.058
0.298929	445.694
0.328288	445.614
0.338964	445.584
0.376331	450.798
0.387007	450.769
0.440387	453.28
0.488429	463.78
0.53914	468.957
0.584513	471.491
0.632556	474.017
0.672591	479.223
0.725971	481.735
0.768675	489.591
0.822056	505.392
0.872767	553.094
0.928816	606.097
0.944829	637.947
0.958175	653.857
