Adsorption isotherm of Nitrogen on CPS-Cu10
DOI: 10.1039/C4ta05342g
Adsorbate Nitrogen: InChIKey IJGRMHOSHXDMSA-UHFFFAOYSA-N
Temperature: 77 K
Tabular data in the source: 0
pressure (bar)	uptake (cm3(STP)/g)
-0.00266901	-0.00274725
5.39302e-17	180.731
0.00266901	241.853
0.00800703	257.785
0.0186831	276.361
0.0346972	297.579
0.0587183	310.803
0.0693943	318.747
0.0987531	329.298
0.122775	334.548
0.149464	339.79
0.176155	347.691
0.194837	347.64
0.205513	350.268
0.226865	355.526
0.245549	358.132
0.272239	358.059
0.293591	360.659
0.330957	365.872
0.381668	371.049
0.389676	373.685
0.437717	376.211
0.48576	400
0.53914	405.17
0.571168	407.74
0.632556	418.203
0.683267	426.038
0.733979	433.872
0.779351	457.669
0.830063	492.081
0.872767	534.489
0.902125	579.592
0.928816	669.884
0.944829	760.206
