Adsorption isotherm of Nitrogen on CPS-Cu20
DOI: 10.1039/C4ta05342g
Adsorbate Nitrogen: InChIKey IJGRMHOSHXDMSA-UHFFFAOYSA-N
Temperature: 77 K
Tabular data in the source: 0
pressure (bar)	uptake (cm3(STP)/g)
-0.00266901	-0.00274725
5.39302e-17	85.0498
0.00266901	196.67
0.010676	239.173
0.0266901	257.734
0.0507112	270.958
0.0720633	284.188
0.0987531	292.089
0.122775	294.681
0.154803	294.593
0.184161	297.171
0.234873	305.005
0.280247	310.197
0.328288	312.723
0.395013	317.856
0.437717	323.055
0.480421	330.912
0.531133	333.431
0.584513	338.6
0.635224	346.435
0.67526	351.641
0.733979	356.796
0.771344	364.667
0.824724	375.152
0.878104	398.927
0.894119	420.145
0.920809	454.624
0.936823	510.394
0.958175	714.987
