Adsorption isotherm of Nitrogen on CPS
DOI: 10.1039/C4ta05342g
Adsorbate Nitrogen: InChIKey IJGRMHOSHXDMSA-UHFFFAOYSA-N
Temperature: 77 K
Tabular data in the source: 0
pressure (bar)	uptake (cm3(STP)/g)
-0.00266901	-0.00274725
5.39302e-17	34.5515
0.00266901	95.6738
0.00800703	308.284
0.0133451	326.874
0.0240211	340.134
0.0400352	353.379
0.0480421	363.988
0.0533803	371.947
0.0720633	385.185
0.0987531	398.401
0.125444	408.959
0.146796	416.874
0.152133	419.517
0.178824	424.76
0.194837	430.032
0.208183	432.653
0.232204	435.245
0.24288	437.874
0.253556	437.845
0.272239	437.793
0.290923	443.058
0.29626	443.043
0.328288	445.614
0.341633	448.235
0.379	448.133
0.387007	450.769
0.437717	458.603
0.483091	455.821
0.536471	458.333
0.581844	460.867
0.627217	466.058
0.677929	465.919
0.725971	473.761
0.774013	476.288
0.824724	489.438
0.870097	497.287
0.896788	510.503
0.915471	529.057
0.942161	571.509
0.958175	653.857
