Adsorption isotherm of Nitrogen on CPS-Cu20
DOI: 10.1039/C4ta05342g
Adsorbate Nitrogen: InChIKey IJGRMHOSHXDMSA-UHFFFAOYSA-N
Temperature: 77 K
Tabular data in the source: 0
pressure (bar)	uptake (cm3(STP)/g)
-0.00266901	-0.00274725
5.39302e-17	85.0498
0.00266901	196.67
0.010676	239.173
0.0266901	257.734
0.0507112	270.958
0.0720633	284.188
0.0987531	292.089
0.125444	299.989
0.154803	299.909
0.181493	307.809
0.205513	307.743
0.224197	313.008
0.250887	315.593
0.269571	320.857
0.290923	320.799
0.336296	320.675
0.389676	328.502
0.440387	328.363
0.48576	341.528
0.53914	346.698
0.579176	349.246
0.632556	357.073
0.672591	364.937
0.720633	372.779
0.779351	396.539
0.822056	423
0.872767	470.702
0.899457	505.181
0.928816	624.702
0.947499	701.727
