Adsorption isotherm of Methane on Zeolite 13X
DOI: 10.1016/j.micromeso.2012.03.042
Adsorbate Methane: InChIKey VNWKTOKETHGBQD-UHFFFAOYSA-N
Temperature: 313 K
Tabular data in the source: 0
pressure (bar)	uptake (mmol/g)
0.103468	0.0518554
0.468257	0.205095
1.04995	0.477771
2.00136	0.831574
3.06121	1.1989
