Adsorption isotherm of Methane on Zeolite 13X
DOI: 10.1016/j.micromeso.2012.03.042
Adsorbate Methane: InChIKey VNWKTOKETHGBQD-UHFFFAOYSA-N
Temperature: 373 K
Tabular data in the source: 0
pressure (bar)	uptake (mmol/g)
0.108397	0.0225596
0.463327	0.121715
1.04009	0.283968
2.01121	0.491292
3.05628	0.748193
