Adsorption isotherm of Carbon Dioxide on Zeolite 13X
DOI: 10.1016/j.micromeso.2012.03.042
Adsorbate Carbon Dioxide: InChIKey CURLTUGMZLYLDI-UHFFFAOYSA-N
Temperature: 373 K
Tabular data in the source: 0
pressure (bar)	uptake (mmol/g)
0.0652537	0.186467
0.0824154	0.456764
0.271194	1.29769
0.494297	1.68812
0.957663	2.13861
2.05601	2.88944
2.94842	3.18977
3.96096	3.50011
