Adsorption isotherm of Carbon Dioxide on Zeolite 13X
DOI: 10.1016/j.micromeso.2012.03.042
Adsorbate Carbon Dioxide: InChIKey CURLTUGMZLYLDI-UHFFFAOYSA-N
Temperature: 343 K
Tabular data in the source: 0
pressure (bar)	uptake (mmol/g)
0.0137685	0.546863
0.0566728	0.997358
0.262613	2.05852
0.511458	2.489
0.966244	3.10968
2.06459	3.84048
2.96558	4.10077
3.96096	4.33102
