Adsorption isotherm of Carbon Dioxide on Zeolite 13X
DOI: 10.1016/j.micromeso.2012.03.042
Adsorbate Carbon Dioxide: InChIKey CURLTUGMZLYLDI-UHFFFAOYSA-N
Temperature: 313 K
Tabular data in the source: 0
pressure (bar)	uptake (mmol/g)
0.0395111	1.2176
0.0652537	1.91837
0.262613	3.17976
0.537201	3.69032
0.957663	4.30099
2.07317	4.98174
2.96558	5.15192
3.99529	5.32211
