Adsorption isotherm of Methane on Zeolite 13X
DOI: 10.1016/j.micromeso.2012.03.042
Adsorbate Methane: InChIKey VNWKTOKETHGBQD-UHFFFAOYSA-N
Temperature: 343 K
Tabular data in the source: 0
pressure (bar)	uptake (mmol/g)
0.0985382	0.0338272
0.468257	0.157771
1.03516	0.329038
2.00628	0.619743
3.05628	0.874391
