Adsorption isotherm of Carbon Dioxide on [Co(HL)]*DMF*H2O
DOI: 10.1039/C1cc10899a
Adsorbate Carbon Dioxide: InChIKey CURLTUGMZLYLDI-UHFFFAOYSA-N
Temperature: 195 K
Tabular data in the source: 0
pressure (bar)	uptake (cm3(STP)/g)
0.00400996	18.1282
0.00619484	2.39706
0.00837971	49.9399
0.0105646	69.1668
0.0171192	90.4912
0.0302285	108.669
0.0477074	120.905
0.0935898	132.441
0.161321	141.53
0.25964	148.172
0.360144	153.066
0.513086	156.911
0.61796	159.358
0.766531	161.106
0.86485	161.805
0.921657	162.505
0.991573	162.854
