Adsorption isotherm of Nitrogen on [Co(HL)]*2H2O
DOI: 10.1039/C1cc10899a
Adsorbate Nitrogen: InChIKey IJGRMHOSHXDMSA-UHFFFAOYSA-N
Temperature: 273 K
Tabular data in the source: 0
pressure (bar)	uptake (cm3(STP)/g)
0.00619484	0.202863
0.0804806	0.530594
0.202833	1.2953
0.294598	1.95076
0.347035	2.38774
0.440985	2.93396
0.537119	3.58942
0.639808	4.13564
0.738128	4.57261
0.829892	5.11883
0.906363	5.66505
0.967539	5.88354
