Adsorption isotherm of Nitrogen on [Co(HL)]*2H2O
DOI: 10.1039/C1cc10899a
Adsorbate Nitrogen: InChIKey IJGRMHOSHXDMSA-UHFFFAOYSA-N
Temperature: 298 K
Tabular data in the source: 0
pressure (bar)	uptake (cm3(STP)/g)
0.0127495	0.202863
0.0914049	0.421351
0.146027	0.749082
0.202833	0.749082
0.253086	0.749082
0.34485	1.18606
0.449724	1.40454
0.543674	1.62303
0.648548	2.06001
0.740312	2.38774
0.838632	2.82471
0.895439	2.93396
0.939136	3.15244
0.976279	2.93396
