Adsorption isotherm of Carbon Dioxide on [Co(HL)]*2H2O
DOI: 10.1039/C1cc10899a
Adsorbate Carbon Dioxide: InChIKey CURLTUGMZLYLDI-UHFFFAOYSA-N
Temperature: 273 K
Tabular data in the source: 0
pressure (bar)	uptake (cm3(STP)/g)
0.00400996	1.62303
0.00619484	4.13564
0.0258587	7.74068
0.0389679	11.7827
0.0586318	15.934
0.0848503	20.0852
0.104514	23.0348
0.17006	29.4802
0.235607	33.6314
0.331741	38.0012
0.43443	41.1693
0.537119	43.6819
0.628884	45.102
0.733758	46.8499
0.823338	47.6146
0.899808	48.3793
0.976279	49.3625
