Adsorption isotherm of Nitrogen on [Co(HL)]*2H2O
DOI: 10.1039/C1cc10899a
Adsorbate Nitrogen: InChIKey IJGRMHOSHXDMSA-UHFFFAOYSA-N
Temperature: 77 K
Tabular data in the source: 0
pressure (bar)	uptake (cm3(STP)/g)
0.00219712	34.7319
0.00656687	72.7196
0.0342419	75.0501
0.0997882	78.0798
0.214858	81.3426
0.318276	82.974
0.412953	84.6053
0.562981	86.9359
0.715923	88.8003
0.809144	92.063
0.905278	98.5885
0.944606	106.279
0.975194	125.856
0.988304	147.763
