Adsorption isotherm of Carbon Dioxide on [Co(HL)]*DMF*H2O
DOI: 10.1039/C1cc10899a
Adsorbate Carbon Dioxide: InChIKey CURLTUGMZLYLDI-UHFFFAOYSA-N
Temperature: 195 K
Tabular data in the source: 0
pressure (bar)	uptake (cm3(STP)/g)
0.00619484	5.89286
0.00619484	34.2088
0.00837971	68.4677
0.0149343	80.3534
0.021489	97.8324
0.0389679	116.011
0.0717411	129.295
0.121993	137.684
0.156951	141.53
0.253086	148.521
0.360144	153.416
0.467203	155.163
0.622329	159.708
0.814598	161.805
0.919472	162.155
0.985018	162.854
