Adsorption isotherm of Carbon Dioxide on [Co(HL)]*DMF*H2O
DOI: 10.1039/C1cc10899a
Adsorbate Carbon Dioxide: InChIKey CURLTUGMZLYLDI-UHFFFAOYSA-N
Temperature: 273 K
Tabular data in the source: 0
pressure (bar)	uptake (cm3(STP)/g)
0.141657	6.59202
0.198464	9.73824
0.274934	15.6811
0.327371	27.5668
0.35796	43.2979
0.403842	59.029
0.454094	69.5164
0.537119	77.9063
0.600481	82.4508
0.6988	85.5971
0.792749	89.4424
0.888884	92.2391
0.991573	94.3366
