Adsorption isotherm of Carbon Dioxide on [Co(HL)]*DMF*H2O
DOI: 10.1039/C1cc10899a
Adsorbate Carbon Dioxide: InChIKey CURLTUGMZLYLDI-UHFFFAOYSA-N
Temperature: 283 K
Tabular data in the source: 0
pressure (bar)	uptake (cm3(STP)/g)
0.155138	5.36723
0.251273	6.29944
0.35032	7.93081
0.447911	9.32913
0.485783	11.8927
0.516371	24.0115
0.544046	35.6641
0.577547	47.3168
0.609592	55.4737
0.646007	62.9314
0.69553	69.6899
0.745054	73.4188
0.793122	77.1476
0.863037	81.1095
0.921301	82.7409
0.975194	84.1392
