Adsorption isotherm of Methane on [Co(HL)]*2H2O
DOI: 10.1039/C1cc10899a
Adsorbate Methane: InChIKey VNWKTOKETHGBQD-UHFFFAOYSA-N
Temperature: 195 K
Tabular data in the source: 0
pressure (bar)	uptake (cm3(STP)/g)
0.000740536	0.226049
0.0138498	17.719
0.0517209	46.3846
0.0997882	56.6389
0.204662	65.2619
0.300797	69.4569
0.503262	74.1179
0.597939	75.2832
0.711553	76.6815
0.806231	77.8468
0.909648	78.5459
0.997043	79.4781
