Adsorption isotherm of Hydrogen on [Co(HL)]*DMF*H2O
DOI: 10.1039/C1cc10899a
Adsorbate Hydrogen: InChIKey UFHFLCQGNIYNRP-UHFFFAOYSA-N
Temperature: 77 K
Tabular data in the source: 0
pressure (bar)	uptake (cm3(STP)/g)
0.0138498	0.473111
0.0590038	1.17227
0.111441	1.17227
0.210488	1.63838
0.312449	2.33754
0.407127	3.26975
0.509088	3.96891
0.608136	4.20196
0.711553	4.43502
0.812057	6.29944
0.903822	6.53249
0.956259	6.9986
0.9985	7.23165
