Adsorption isotherm of Hydrogen on [Co(HL)]*2H2O
DOI: 10.1039/C1cc10899a
Adsorbate Hydrogen: InChIKey UFHFLCQGNIYNRP-UHFFFAOYSA-N
Temperature: 77 K
Tabular data in the source: 0
pressure (bar)	uptake (cm3(STP)/g)
0.00619484	4.41964
0.0105646	24.3457
0.0520772	55.0213
0.100144	68.3928
0.202833	82.8129
0.298968	91.2028
0.401657	96.9709
0.504346	101.428
0.602665	105.885
0.705355	109.031
0.803674	111.391
0.904178	113.751
0.995943	116.11
