Adsorption isotherm of Nitrogen on [Co(HL)]*DMF*H2O
DOI: 10.1039/C1cc10899a
Adsorbate Nitrogen: InChIKey IJGRMHOSHXDMSA-UHFFFAOYSA-N
Temperature: 298 K
Tabular data in the source: 0
pressure (bar)	uptake (cm3(STP)/g)
0.0240459	0.473111
0.117267	0.706164
0.169704	0.706164
0.23525	1.17227
0.316819	0.706164
0.411497	0.706164
0.495979	0.706164
0.577547	0.706164
0.666399	0.706164
0.76836	0.473111
0.868864	0.706164
0.941693	0.706164
