Adsorption isotherm of Carbon Dioxide on [Co(HL)]*2H2O
DOI: 10.1039/C1cc10899a
Adsorbate Carbon Dioxide: InChIKey CURLTUGMZLYLDI-UHFFFAOYSA-N
Temperature: 195 K
Tabular data in the source: 0
pressure (bar)	uptake (cm3(STP)/g)
0.00219712	0.473111
0.0036537	24.4776
0.00511028	45.2193
0.00802345	57.8042
0.0298722	63.8636
0.0662868	69.4569
0.153682	74.351
0.255643	78.3129
0.356147	80.6434
0.458107	82.974
0.561525	84.6053
0.660572	85.7706
0.76399	87.1689
0.861581	87.8681
0.959172	89.0333
