Adsorption isotherm of Nitrogen on [Co(HL)]*DMF*H2O
DOI: 10.1039/C1cc10899a
Adsorbate Nitrogen: InChIKey IJGRMHOSHXDMSA-UHFFFAOYSA-N
Temperature: 77 K
Tabular data in the source: 0
pressure (bar)	uptake (cm3(STP)/g)
0.0138498	2.10448
0.0764828	2.57059
0.242533	2.57059
0.337211	2.33754
0.437715	2.33754
0.482869	1.87143
0.558612	2.33754
0.657659	2.80364
0.707183	2.80364
0.758164	3.26975
0.852841	3.73586
0.903822	4.20196
0.969368	8.86303
0.991217	17.9521
