Adsorption isotherm of Carbon Dioxide on [Co(HL)]*2H2O
DOI: 10.1039/C1cc10899a
Adsorbate Carbon Dioxide: InChIKey CURLTUGMZLYLDI-UHFFFAOYSA-N
Temperature: 298 K
Tabular data in the source: 0
pressure (bar)	uptake (cm3(STP)/g)
0.00837971	1.40454
0.0586318	5.88354
0.0957747	9.0516
0.148212	13.2029
0.207203	16.5894
0.250901	18.8835
0.301153	21.0684
0.403842	25.0012
0.596111	30.2449
0.692245	32.102
0.794934	33.7407
0.880144	35.3793
0.993758	36.6903
