Adsorption isotherm of Carbon Dioxide on [Co(HL)]*DMF*H2O
DOI: 10.1039/C1cc10899a
Adsorbate Carbon Dioxide: InChIKey CURLTUGMZLYLDI-UHFFFAOYSA-N
Temperature: 253 K
Tabular data in the source: 0
pressure (bar)	uptake (cm3(STP)/g)
0.0105646	4.14496
0.0761108	6.59202
0.130733	9.73824
0.141657	13.234
0.146027	33.1601
0.163506	59.029
0.191909	74.0609
0.215943	80.7029
0.248716	86.2962
0.303338	90.8408
0.401657	93.987
0.548044	97.8324
0.700985	100.979
0.799304	102.726
0.895439	104.474
0.993758	106.222
