Adsorption isotherm of Methane on [Co(HL)]*DMF*H2O
DOI: 10.1039/C1cc10899a
Adsorbate Methane: InChIKey VNWKTOKETHGBQD-UHFFFAOYSA-N
Temperature: 195 K
Tabular data in the source: 0
pressure (bar)	uptake (cm3(STP)/g)
0.0109366	1.87143
0.0488078	1.87143
0.0983316	2.10448
0.201749	2.10448
0.306623	2.80364
0.450825	2.33754
0.494522	2.33754
0.600853	2.80364
0.654746	3.26975
0.756707	3.5028
0.851385	3.26975
0.899452	3.5028
0.954802	3.26975
1.00141	3.73586
