Adsorption isotherm of Hydrogen on [Co(HL)]*2H2O
DOI: 10.1039/C1cc10899a
Adsorbate Hydrogen: InChIKey UFHFLCQGNIYNRP-UHFFFAOYSA-N
Temperature: 87 K
Tabular data in the source: 0
pressure (bar)	uptake (cm3(STP)/g)
0.00182509	1.27343
0.0127495	11.2365
0.0477074	33.5222
0.100144	46.8936
0.207203	61.3138
0.288044	69.9659
0.412581	75.9961
0.506531	80.7154
0.591741	83.8617
0.707539	87.5322
0.797119	90.1541
0.901993	93.0381
0.991573	93.5625
