Adsorption isotherm of Carbon Dioxide on [Co(HL)]*DMF*H2O
DOI: 10.1039/C1cc10899a
Adsorbate Carbon Dioxide: InChIKey CURLTUGMZLYLDI-UHFFFAOYSA-N
Temperature: 298 K
Tabular data in the source: 0
pressure (bar)	uptake (cm3(STP)/g)
0.0415248	2.10448
0.0983316	3.26975
0.147855	4.20196
0.187183	4.66807
0.257099	5.36723
0.302253	5.60028
0.407127	6.76555
0.506175	7.46471
0.605222	8.16387
0.646007	9.09608
0.702813	13.5241
0.75525	25.8759
0.809144	41.9566
0.868864	53.1431
0.925671	60.6008
0.98539	67.1263
