Adsorption isotherm of Nitrogen on UiO-66(Zr)-(COOH)2
DOI: 10.1002/anie.201302682
Adsorbate Nitrogen: InChIKey IJGRMHOSHXDMSA-UHFFFAOYSA-N
Temperature: 77 K
Tabular data in the source: 0
pressure (bar)	uptake (cm3(STP)/g)
0.00424771	73.9266
0.00656212	86.264
0.0181342	92.4327
0.0459071	100.658
0.0921953	106.141
0.184772	111.624
0.279663	117.108
0.437043	123.962
0.529619	130.13
0.615252	134.928
0.659226	140.412
0.68237	140.412
0.700885	146.58
0.754117	152.749
0.763375	150.693
0.798091	166.457
0.809663	160.289
0.855951	173.311
0.86058	210.324
0.911497	206.211
0.916126	247.336
0.943899	258.988
0.964728	262.415
