Adsorption isotherm of Nitrogen on UiO-66(Zr)
DOI: 10.1002/anie.201302682
Adsorbate Nitrogen: InChIKey IJGRMHOSHXDMSA-UHFFFAOYSA-N
Temperature: 303 K
Tabular data in the source: 0
pressure (bar)	uptake (mmol/g)
1.05151	0.080289
4.61566	0.628619
13.1148	1.34145
24.9039	1.95832
39.983	2.60261
59.997	3.16465
80.8336	3.60331
100.025	3.93231
