Adsorption isotherm of Nitrogen on UiO-66(Zr)
DOI: 10.1002/anie.201302682
Adsorbate Nitrogen: InChIKey IJGRMHOSHXDMSA-UHFFFAOYSA-N
Temperature: 303 K
Tabular data in the source: 0
pressure (bar)	uptake (mmol/g)
1.59984	0.518953
4.06733	1.06728
8.45397	1.54707
15.3081	2.16394
25.1781	2.82194
36.9672	3.32915
55.0621	3.93231
72.0603	4.30243
90.1552	4.65885
99.751	4.79593
