Adsorption isotherm of Water on UiO-66(Zr)-(COOH)2
DOI: 10.1002/anie.201302682
Adsorbate Water: InChIKey XLYOFNOQVPJJNP-UHFFFAOYSA-N
Temperature: 303 K
Tabular data in the source: 0
pressure (bar)	uptake (mmol/g)
0.000372	0.177549
0.00105137	1.5301
0.00386529	3.10198
0.00619405	4.34486
0.0088139	5.6243
0.012307	6.57474
0.0174497	7.6714
0.0224954	8.62184
0.027541	9.57228
0.0323926	10.4862
0.0358857	11.5828
0.0384085	12.5333
0.0402521	13.6299
0.0417076	14.7997
