Adsorption isotherm of Nitrogen on UiO-66(Zr)
DOI: 10.1002/anie.201302682
Adsorbate Nitrogen: InChIKey IJGRMHOSHXDMSA-UHFFFAOYSA-N
Temperature: 303 K
Tabular data in the source: 0
pressure (bar)	uptake (mmol/g)
1.59984	0.518953
5.71232	1.0947
12.5665	1.71157
23.8072	2.36957
35.8705	2.86307
49.5788	3.26061
60.8195	3.52106
71.7861	3.74039
90.1552	4.0831
100.025	4.22018
