Adsorption isotherm of Methane on Carbon
DOI: 10.1016/j.colsurfa.2013.12.047
Adsorbate Methane: InChIKey VNWKTOKETHGBQD-UHFFFAOYSA-N
Temperature: 333 K
Tabular data in the source: 0
pressure (bar)	uptake (mmol/g)
10.7027	0.0800061
19.7168	0.139724
30.8435	0.200006
39.7168	0.234372
50.9844	0.282823
60.7027	0.316626
70.1393	0.347612
82.5337	0.374091
