Adsorption isotherm of Methane on Carbon
DOI: 10.1016/j.colsurfa.2013.12.047
Adsorbate Methane: InChIKey VNWKTOKETHGBQD-UHFFFAOYSA-N
Temperature: 333 K
Tabular data in the source: 0
pressure (bar)	uptake (mmol/g)
11.5478	0.0922611
20.1393	0.168317
31.9703	0.240148
42.1112	0.292965
51.4069	0.33874
62.252	0.389444
70.5619	0.418317
81.2661	0.453529
