Adsorption isotherm of Methane on Carbon
DOI: 10.1016/j.colsurfa.2013.12.047
Adsorbate Methane: InChIKey VNWKTOKETHGBQD-UHFFFAOYSA-N
Temperature: 323 K
Tabular data in the source: 0
pressure (bar)	uptake (mmol/g)
0.843546	0.00424822
10.5619	0.420445
22.3928	0.73946
31.9703	0.92115
42.5337	1.0458
52.252	1.14509
60.5619	1.20847
71.6886	1.27819
82.5337	1.32256
