Adsorption isotherm of Methane on Carbon
DOI: 10.1016/j.colsurfa.2013.12.047
Adsorbate Methane: InChIKey VNWKTOKETHGBQD-UHFFFAOYSA-N
Temperature: 343 K
Tabular data in the source: 0
pressure (bar)	uptake (mmol/g)
10.5619	0.0725428
22.1112	0.150008
30.8435	0.202825
41.9703	0.265501
49.9985	0.301416
60.421	0.345078
72.3928	0.387332
81.9703	0.419022
