Adsorption isotherm of Methane on Carbon
DOI: 10.1016/j.colsurfa.2013.12.047
Adsorbate Methane: InChIKey VNWKTOKETHGBQD-UHFFFAOYSA-N
Temperature: 303 K
Tabular data in the source: 0
pressure (bar)	uptake (mmol/g)
0.944547	0.00225351
8.5243	0.121527
18.2493	0.221065
29.6904	0.311164
39.9874	0.378953
50.4275	0.433013
59.0084	0.472485
69.7344	0.513673
81.4616	0.551428
