Adsorption isotherm of Methane on Carbon
DOI: 10.1016/j.colsurfa.2013.12.047
Adsorbate Methane: InChIKey VNWKTOKETHGBQD-UHFFFAOYSA-N
Temperature: 333 K
Tabular data in the source: 0
pressure (bar)	uptake (mmol/g)
9.57594	0.327345
20.5619	0.599458
31.8295	0.814388
42.252	0.948472
50.9844	1.04706
60.2802	1.12988
73.0971	1.21861
81.9703	1.25805
