Adsorption isotherm of Methane on Carbon
DOI: 10.1016/j.colsurfa.2013.12.047
Adsorbate Methane: InChIKey VNWKTOKETHGBQD-UHFFFAOYSA-N
Temperature: 303 K
Tabular data in the source: 0
pressure (bar)	uptake (mmol/g)
0.658518	0.0060788
9.95445	0.087883
21.9676	0.165111
31.2636	0.213164
41.8466	0.260072
52.2867	0.297256
60.5815	0.321282
71.8796	0.352173
79.8884	0.371623
