Adsorption isotherm of Methane on Carbon
DOI: 10.1016/j.colsurfa.2013.12.047
Adsorbate Methane: InChIKey VNWKTOKETHGBQD-UHFFFAOYSA-N
Temperature: 313 K
Tabular data in the source: 0
pressure (bar)	uptake (mmol/g)
10.7027	0.496502
20.421	0.775375
32.3928	0.986643
41.8295	1.12185
52.3928	1.20847
62.3928	1.28242
72.5337	1.34157
82.5337	1.37749
