Adsorption isotherm of Methane on Carbon
DOI: 10.1016/j.colsurfa.2013.12.047
Adsorbate Methane: InChIKey VNWKTOKETHGBQD-UHFFFAOYSA-N
Temperature: 303 K
Tabular data in the source: 0
pressure (bar)	uptake (mmol/g)
11.2661	0.12536
20.8435	0.20212
30.2802	0.263388
39.8576	0.30705
49.9985	0.35212
60.421	0.381698
71.2661	0.411979
81.9703	0.436627
