Adsorption isotherm of Methane on Carbon
DOI: 10.1016/j.colsurfa.2013.12.047
Adsorbate Methane: InChIKey VNWKTOKETHGBQD-UHFFFAOYSA-N
Temperature: 303 K
Tabular data in the source: 0
pressure (bar)	uptake (mmol/g)
11.1252	0.583121
20.2802	0.855657
32.6745	1.06481
42.3928	1.19157
51.6886	1.26763
61.4069	1.33523
72.6745	1.3965
81.8295	1.43876
