Adsorption isotherm of Methane on Carbon
DOI: 10.1016/j.colsurfa.2013.12.047
Adsorbate Methane: InChIKey VNWKTOKETHGBQD-UHFFFAOYSA-N
Temperature: 313 K
Tabular data in the source: 0
pressure (bar)	uptake (mmol/g)
10.0975	0.11123
19.8224	0.197897
29.8334	0.275125
40.1305	0.335191
50.8565	0.396115
60.0095	0.439019
72.1657	0.486214
81.8906	0.517963
