Adsorption isotherm of Methane on Carbon
DOI: 10.1016/j.colsurfa.2013.12.047
Adsorbate Methane: InChIKey VNWKTOKETHGBQD-UHFFFAOYSA-N
Temperature: 343 K
Tabular data in the source: 0
pressure (bar)	uptake (mmol/g)
9.85763	0.256359
22.6745	0.563965
30.5619	0.723683
41.1252	0.869599
52.252	0.976078
62.5337	1.07861
71.2661	1.12988
80.9844	1.18115
