Adsorption isotherm of Methane on Carbon
DOI: 10.1016/j.colsurfa.2013.12.047
Adsorbate Methane: InChIKey VNWKTOKETHGBQD-UHFFFAOYSA-N
Temperature: 323 K
Tabular data in the source: 0
pressure (bar)	uptake (mmol/g)
12.3857	0.116379
21.2526	0.180735
32.5507	0.262254
41.9897	0.320603
52.1437	0.373805
61.0106	0.41156
71.7366	0.449316
82.7487	0.488788
