Adsorption isotherm of Methane on Carbon
DOI: 10.1016/j.colsurfa.2013.12.047
Adsorbate Methane: InChIKey VNWKTOKETHGBQD-UHFFFAOYSA-N
Temperature: 343 K
Tabular data in the source: 0
pressure (bar)	uptake (mmol/g)
10.5619	0.0495836
21.4069	0.100288
31.1252	0.136908
42.252	0.176344
51.4069	0.20902
62.6745	0.240569
73.6604	0.265358
83.3788	0.288457
