Adsorption isotherm of Methane on Carbon
DOI: 10.1016/j.colsurfa.2013.12.047
Adsorbate Methane: InChIKey VNWKTOKETHGBQD-UHFFFAOYSA-N
Temperature: 313 K
Tabular data in the source: 0
pressure (bar)	uptake (mmol/g)
10.8435	0.109867
22.3928	0.189444
31.2661	0.249303
41.1252	0.290853
50.8435	0.330289
60.1393	0.361979
72.3928	0.39367
80.7027	0.410571
