Adsorption isotherm of Methane on Carbon
DOI: 10.1016/j.colsurfa.2013.12.047
Adsorbate Methane: InChIKey VNWKTOKETHGBQD-UHFFFAOYSA-N
Temperature: 323 K
Tabular data in the source: 0
pressure (bar)	uptake (mmol/g)
9.66842	0.0627125
20.9665	0.127927
29.6904	0.167399
42.1327	0.218884
51.4286	0.254352
62.0117	0.282382
71.1646	0.305837
81.1756	0.333296
