Adsorption isotherm of Methane on Carbon
DOI: 10.1016/j.colsurfa.2013.12.047
Adsorbate Methane: InChIKey VNWKTOKETHGBQD-UHFFFAOYSA-N
Temperature: 313 K
Tabular data in the source: 0
pressure (bar)	uptake (mmol/g)
9.95445	0.0787301
21.8246	0.145089
30.5485	0.191425
40.7025	0.231469
52.2867	0.27609
60.4385	0.30126
70.1635	0.328147
81.8906	0.354462
