Adsorption isotherm of Methane on Carbon
DOI: 10.1016/j.colsurfa.2013.12.047
Adsorbate Methane: InChIKey VNWKTOKETHGBQD-UHFFFAOYSA-N
Temperature: 323 K
Tabular data in the source: 0
pressure (bar)	uptake (mmol/g)
0.702701	0.00352875
9.99848	0.0936696
20.9844	0.155641
29.7168	0.215501
40.5619	0.266909
50.8435	0.304937
59.9985	0.338036
72.1112	0.371839
80.7027	0.390853
