Adsorption isotherm of Methane on Carbon
DOI: 10.1016/j.colsurfa.2013.12.047
Adsorbate Methane: InChIKey VNWKTOKETHGBQD-UHFFFAOYSA-N
Temperature: 333 K
Tabular data in the source: 0
pressure (bar)	uptake (mmol/g)
11.1252	0.0681751
21.9703	0.117753
30.9844	0.158879
42.252	0.200006
52.252	0.235499
61.5478	0.259161
71.5478	0.286767
81.1252	0.309865
