Adsorption isotherm of Methane on Carbon
DOI: 10.1016/j.colsurfa.2013.12.047
Adsorbate Methane: InChIKey VNWKTOKETHGBQD-UHFFFAOYSA-N
Temperature: 343 K
Tabular data in the source: 0
pressure (bar)	uptake (mmol/g)
12.5337	0.0788793
20.7027	0.12902
32.5337	0.187612
40.1393	0.218034
49.7168	0.256907
61.9703	0.295217
69.7168	0.318879
81.1252	0.347048
