Adsorption isotherm of Nitrogen on Ni(HBTC)(pyz)*3DMF
DOI: 10.1039/B812097h
Adsorbate Nitrogen: InChIKey IJGRMHOSHXDMSA-UHFFFAOYSA-N
Temperature: 77 K
Tabular data in the source: 0
pressure (bar)	uptake (cm3(STP)/g)
0.00400996	3.09622
0.00400996	60.4273
0.00837971	96.434
0.0345982	101.678
0.156951	104.474
0.406027	105.873
0.600481	106.222
0.696615	105.873
0.849556	106.572
0.95443	112.165
1.0025	138.733
