Adsorption isotherm of Nitrogen on Ni2(BTEC)(bipy)3*3DMF
DOI: 10.1039/B812097h
Adsorbate Nitrogen: InChIKey IJGRMHOSHXDMSA-UHFFFAOYSA-N
Temperature: 77 K
Tabular data in the source: 0
pressure (bar)	uptake (cm3(STP)/g)
0.00619484	3.4458
0.0149343	48.5416
0.0367831	49.5903
0.0608167	51.6878
0.205018	53.7853
0.34922	53.7853
0.51964	53.7853
0.668212	53.7853
0.901993	53.7853
0.95006	54.4845
0.998128	65.3214
