Adsorption isotherm of Hydrogen on Ni(HBTC)(bipy)*3DMF
DOI: 10.1039/B812097h
Adsorbate Hydrogen: InChIKey UFHFLCQGNIYNRP-UHFFFAOYSA-N
Temperature: 77 K
Tabular data in the source: 0
pressure (bar)	uptake (wt%)
1.54073	1.87603
3.31048	2.57039
5.4735	2.80897
10.1928	2.98639
20.0248	3.02615
40.2785	2.93439
60.139	2.89462
79.8029	2.88239
90.0281	2.87627
