Adsorption isotherm of Carbon monoxide on CuBTC
DOI: 10.1021/Jp211563e
Adsorbate Carbon monoxide: InChIKey UGFAIRIUMAVXCW-UHFFFAOYSA-N
Temperature: 298 K
Tabular data in the source: 0
pressure (bar)	uptake (mmol/g)
1.01954	0.197488
2.9157	1.69045
5.9319	3.15523
9.83812	4.7327
29.2517	9.5496
58.9355	12.3947
100.64	14.1693
145.658	15.2679
302.159	17.0989
591.269	18.5073
961.729	19.4088
