Adsorption isotherm of Carbon monoxide on IRMOF-1
DOI: 10.1021/Jp211563e
Adsorbate Carbon monoxide: InChIKey UGFAIRIUMAVXCW-UHFFFAOYSA-N
Temperature: 298 K
Tabular data in the source: 0
pressure (bar)	uptake (mmol/g)
3.03141	0.338486
5.9319	1.01454
10.1295	2.07088
30.4126	5.53567
60.681	9.54975
101.624	13.099
149.972	15.7188
311.109	20.0286
608.781	23.5779
971.132	25.5216
