Adsorption isotherm of Carbon monoxide on IRMOF-1
DOI: 10.1021/Jp211563e
Adsorbate Carbon monoxide: InChIKey UGFAIRIUMAVXCW-UHFFFAOYSA-N
Temperature: 298 K
Tabular data in the source: 0
pressure (bar)	uptake (mmol/g)
1.97574	0.380739
4.01957	0.803274
7.94245	1.6906
19.8215	3.97229
40.3263	7.22581
78.911	11.5357
198.859	17.4934
396.776	21.1695
823.09	24.6343
