Adsorption isotherm of Carbon monoxide on IRMOF-1
DOI: 10.1021/Jp211563e
Adsorbate Carbon monoxide: InChIKey UGFAIRIUMAVXCW-UHFFFAOYSA-N
Temperature: 298 K
Tabular data in the source: 0
pressure (bar)	uptake (mmol/g)
3.03141	0.5075
5.9319	1.18356
10.0314	1.94412
30.1181	4.98637
61.2743	8.15539
100.64	10.9864
151.438	13.3103
296.337	16.8596
602.887	19.8174
980.626	22.0145
