Adsorption isotherm of Carbon monoxide on CuBTC
DOI: 10.1021/Jp211563e
Adsorbate Carbon monoxide: InChIKey UGFAIRIUMAVXCW-UHFFFAOYSA-N
Temperature: 298 K
Tabular data in the source: 0
pressure (bar)	uptake (mmol/g)
1.01954	0.0284739
2.94421	0.873544
5.87447	1.66228
9.64853	2.50735
30.1181	5.32425
59.5117	7.38059
99.6657	9.07073
148.52	10.3665
293.467	12.1975
591.269	13.8313
980.626	14.7609
