Adsorption isotherm of Carbon monoxide on CuBTC
DOI: 10.1021/Jp211563e
Adsorbate Carbon monoxide: InChIKey UGFAIRIUMAVXCW-UHFFFAOYSA-N
Temperature: 298 K
Tabular data in the source: 0
pressure (bar)	uptake (mmol/g)
1.99505	1.29608
3.98065	2.19749
5.87447	2.78904
9.74286	4.05664
19.8215	6.19749
29.5377	7.57777
38.787	8.56369
58.9355	9.97214
99.6657	11.6623
195.027	13.5214
296.337	14.5637
392.935	15.2116
608.781	16.1693
