Adsorption isotherm of Carbon monoxide on CuBTC
DOI: 10.1021/Jp211563e
Adsorbate Carbon monoxide: InChIKey UGFAIRIUMAVXCW-UHFFFAOYSA-N
Temperature: 298 K
Tabular data in the source: 0
pressure (bar)	uptake (mmol/g)
2.94421	0.760868
5.98989	1.66228
10.0314	2.42284
30.1181	5.26791
59.5117	7.83129
99.6657	9.71861
148.52	11.0707
296.337	13.2397
602.887	15.0426
961.729	16.0285
