Adsorption isotherm of Carbon monoxide on MIL-47
DOI: 10.1021/Jp211563e
Adsorbate Carbon monoxide: InChIKey UGFAIRIUMAVXCW-UHFFFAOYSA-N
Temperature: 298 K
Tabular data in the source: 0
pressure (bar)	uptake (mmol/g)
1.04974	0.329776
3.09097	0.934001
6.1673	1.59316
10.1295	2.19738
30.4126	4.10161
61.8733	5.40161
101.624	6.42696
308.096	8.31287
620.743	9.39316
