Adsorption isotherm of Carbon monoxide on MIL-47
DOI: 10.1021/Jp211563e
Adsorbate Carbon monoxide: InChIKey UGFAIRIUMAVXCW-UHFFFAOYSA-N
Temperature: 298 K
Tabular data in the source: 0
pressure (bar)	uptake (mmol/g)
2.01456	0.677663
4.05887	1.3002
8.0201	2.30724
20.4086	4.11992
39.9358	5.65794
81.2481	7.26921
204.749	9.21006
404.573	10.327
823.09	11.4256
999.895	11.6636
