Adsorption isotherm of Carbon monoxide on IRMOF-1
DOI: 10.1021/Jp211563e
Adsorbate Carbon monoxide: InChIKey UGFAIRIUMAVXCW-UHFFFAOYSA-N
Temperature: 298 K
Tabular data in the source: 0
pressure (bar)	uptake (mmol/g)
1.06	0.169471
3.03141	0.549753
6.1673	1.39482
9.9343	2.23989
28.9685	6.42299
58.9355	11.3667
99.6657	15.6765
149.972	18.93
302.159	23.8737
602.887	27.6765
971.132	30.0005
