Adsorption isotherm of Carbon monoxide on MIL-47
DOI: 10.1021/Jp211563e
Adsorbate Carbon monoxide: InChIKey UGFAIRIUMAVXCW-UHFFFAOYSA-N
Temperature: 298 K
Tabular data in the source: 0
pressure (bar)	uptake (mmol/g)
3.06105	0.988931
6.10759	1.72132
10.2285	2.56358
30.4126	4.90724
60.0935	6.57344
101.624	7.69034
311.109	9.8509
608.781	10.9495
