Adsorption isotherm of Carbon monoxide on MIL-47
DOI: 10.1021/Jp211563e
Adsorbate Carbon monoxide: InChIKey UGFAIRIUMAVXCW-UHFFFAOYSA-N
Temperature: 298 K
Tabular data in the source: 0
pressure (bar)	uptake (mmol/g)
1.06	0.311466
3.03141	1.15372
6.1673	2.0509
10.3285	3.05794
30.1181	6.134
61.2743	8.12978
101.624	9.39316
305.113	11.7002
