Adsorption isotherm of Methane on IRMOF-8-NO2
DOI: 10.1016/j.micromeso.2013.04.023
Adsorbate Methane: InChIKey VNWKTOKETHGBQD-UHFFFAOYSA-N
Temperature: 298 K
Tabular data in the source: 0
pressure (bar)	uptake (cm3(STP)/g)
2.7131	34.8799
5.22571	49.6278
7.41058	58.9135
10.0324	67.653
15.7131	77.4849
21.1753	86.2244
26.419	92.2328
30.7887	97.695
35.4862	105.342
40.5114	111.35
45.6459	113.535
