Adsorption isotherm of Carbon Dioxide on IRMOF-8
DOI: 10.1016/j.micromeso.2013.04.023
Adsorbate Carbon Dioxide: InChIKey CURLTUGMZLYLDI-UHFFFAOYSA-N
Temperature: 298 K
Tabular data in the source: 0
pressure (bar)	uptake (wt%)
0.0135983	0.274664
0.0485533	1.11366
0.118463	2.1624
0.227989	3.24609
0.384121	4.12004
0.561227	4.74929
0.740663	5.34357
0.906116	5.72811
1.05759	6.04273
