Adsorption isotherm of Methane on IRMOF-8-NO2
DOI: 10.1016/j.micromeso.2013.04.023
Adsorbate Methane: InChIKey VNWKTOKETHGBQD-UHFFFAOYSA-N
Temperature: 273 K
Tabular data in the source: 0
pressure (bar)	uptake (wt%)
0.00743317	0.00811453
0.151623	0.239711
0.272217	0.383913
0.495056	0.628619
0.678569	0.803409
0.885678	0.982568
1.06133	1.10055
1.13473	1.14425
