Adsorption isotherm of Hydrogen on IRMOF-8
DOI: 10.1016/j.micromeso.2013.04.023
Adsorbate Hydrogen: InChIKey UFHFLCQGNIYNRP-UHFFFAOYSA-N
Temperature: 77 K
Tabular data in the source: 0
pressure (bar)	uptake (wt%)
0.400996	0.890179
3.02285	2.13119
5.64469	2.48951
8.922	2.69925
17.2245	2.8653
26.1825	2.98766
42.1321	3.05757
54.1489	3.09253
71.8464	3.11875
87.1405	3.14497
93.4766	3.16245
