Adsorption isotherm of Carbon Dioxide on IRMOF-8
DOI: 10.1016/j.micromeso.2013.04.023
Adsorbate Carbon Dioxide: InChIKey CURLTUGMZLYLDI-UHFFFAOYSA-N
Temperature: 273 K
Tabular data in the source: 0
pressure (bar)	uptake (cm3(STP)/g)
0.675643	67.1847
1.28741	108.479
2.358	162.773
3.58153	206.361
5.18741	233.891
7.25211	254.538
9.54623	266.008
10.7698	274.42
17.1168	291.244
22.3168	301.949
26.6756	308.067
30.5756	312.655
