Adsorption isotherm of Hydrogen on IRMOF-8-NO2
DOI: 10.1016/j.micromeso.2013.04.023
Adsorbate Hydrogen: InChIKey UFHFLCQGNIYNRP-UHFFFAOYSA-N
Temperature: 77 K
Tabular data in the source: 0
pressure (bar)	uptake (wt%)
0.837971	1.14362
3.24133	1.48446
7.17411	1.65925
13.2918	1.79035
22.0312	1.85152
38.4178	1.92144
50.8716	1.96514
67.0396	1.99136
81.6783	2.00883
93.6951	2.00883
98.5018	2.02631
