Adsorption isotherm of Hydrogen on IRMOF-8-NO2
DOI: 10.1016/j.micromeso.2013.04.023
Adsorbate Hydrogen: InChIKey UFHFLCQGNIYNRP-UHFFFAOYSA-N
Temperature: 77 K
Tabular data in the source: 0
pressure (bar)	uptake (wt%)
0.00218992	0.112988
0.0231629	0.309627
0.0572441	0.466938
0.122785	0.619879
0.190947	0.733493
0.290569	0.847106
0.424272	0.925762
0.576326	1.00879
0.767705	1.07433
0.911894	1.10492
1.01938	1.12677
1.12162	1.14862
