Adsorption isotherm of Carbon Dioxide on IRMOF-8-NO2
DOI: 10.1016/j.micromeso.2013.04.023
Adsorbate Carbon Dioxide: InChIKey CURLTUGMZLYLDI-UHFFFAOYSA-N
Temperature: 298 K
Tabular data in the source: 0
pressure (bar)	uptake (cm3(STP)/g)
2.358	77.1259
4.4227	101.597
6.94623	119.185
10.3874	132.949
15.5874	144.42
21.0933	153.597
26.4462	156.655
30.4992	158.949
