Adsorption isotherm of Nitrogen on IRMOF-8
DOI: 10.1016/j.micromeso.2013.04.023
Adsorbate Nitrogen: InChIKey IJGRMHOSHXDMSA-UHFFFAOYSA-N
Temperature: 77 K
Tabular data in the source: 0
pressure (bar)	uptake (cm3(STP)/g)
0.00837971	358.343
0.021489	370.797
0.0455226	383.906
0.104514	394.394
0.194094	404.226
0.386363	411.436
0.587371	414.058
0.764346	416.024
0.912918	417.335
0.960985	419.301
0.991573	423.234
