Adsorption isotherm of Methane on IRMOF-8-NO2
DOI: 10.1016/j.micromeso.2013.04.023
Adsorbate Methane: InChIKey VNWKTOKETHGBQD-UHFFFAOYSA-N
Temperature: 273 K
Tabular data in the source: 0
pressure (bar)	uptake (cm3(STP)/g)
1.62067	39.2496
4.24252	67.1068
7.30134	80.7622
11.0156	93.8715
15.7131	109.712
21.1753	122.275
26.419	133.745
31.2257	142.485
35.9232	149.04
40.4022	156.14
45.7551	162.149
