Adsorption isotherm of Carbon Dioxide on IRMOF-8-NO2
DOI: 10.1016/j.micromeso.2013.04.023
Adsorbate Carbon Dioxide: InChIKey CURLTUGMZLYLDI-UHFFFAOYSA-N
Temperature: 273 K
Tabular data in the source: 0
pressure (bar)	uptake (wt%)
0.0205893	0.0649162
0.176722	1.53315
0.409755	3.4908
0.687065	5.62324
0.917768	7.12643
1.04128	7.8955
