Adsorption isotherm of Methane on IRMOF-8
DOI: 10.1016/j.micromeso.2013.04.023
Adsorbate Methane: InChIKey VNWKTOKETHGBQD-UHFFFAOYSA-N
Temperature: 273 K
Tabular data in the source: 0
pressure (bar)	uptake (cm3(STP)/g)
1.72991	35.4261
3.80554	74.7538
6.86436	106.434
11.3434	139.754
16.4778	163.787
21.8307	185.09
27.0744	197.653
35.9232	209.67
45.9736	221.14
