Adsorption isotherm of Carbon Dioxide on IRMOF-8
DOI: 10.1016/j.micromeso.2013.04.023
Adsorbate Carbon Dioxide: InChIKey CURLTUGMZLYLDI-UHFFFAOYSA-N
Temperature: 273 K
Tabular data in the source: 0
pressure (bar)	uptake (wt%)
0.0159286	0.16979
0.0695263	1.42828
0.123124	2.37214
0.209346	3.70055
0.290908	4.95903
0.407425	6.46223
0.563557	8.315
0.787269	10.7621
0.973696	12.7197
1.06225	13.5937
