Adsorption isotherm of Nitrogen on IRMOF-8-NO2
DOI: 10.1016/j.micromeso.2013.04.023
Adsorbate Nitrogen: InChIKey IJGRMHOSHXDMSA-UHFFFAOYSA-N
Temperature: 77 K
Tabular data in the source: 0
pressure (bar)	uptake (cm3(STP)/g)
0.00400996	187.923
0.0171192	193.822
0.0673713	200.377
0.224682	205.621
0.408212	208.898
0.637623	209.553
0.821153	209.553
0.934766	210.864
0.980649	213.486
