Adsorption isotherm of Carbon Dioxide on IRMOF-8
DOI: 10.1016/j.micromeso.2013.04.023
Adsorbate Carbon Dioxide: InChIKey CURLTUGMZLYLDI-UHFFFAOYSA-N
Temperature: 298 K
Tabular data in the source: 0
pressure (bar)	uptake (cm3(STP)/g)
1.74623	71.773
3.658	125.302
6.64035	171.949
10.0815	208.655
11.3815	214.773
16.7345	236.185
21.7815	249.185
30.4992	256.832
