Adsorption isotherm of Methane on IRMOF-8
DOI: 10.1016/j.micromeso.2013.04.023
Adsorbate Methane: InChIKey VNWKTOKETHGBQD-UHFFFAOYSA-N
Temperature: 298 K
Tabular data in the source: 0
pressure (bar)	uptake (cm3(STP)/g)
2.82235	34.8799
4.67949	57.821
7.08285	75.8462
10.3602	98.2412
15.9316	121.182
21.3938	138.115
26.6375	149.586
31.335	158.325
35.7047	163.787
40.5114	168.703
45.4274	173.619
