Adsorption isotherm of Hydrogen on IRMOF-8
DOI: 10.1016/j.micromeso.2013.04.023
Adsorbate Hydrogen: InChIKey UFHFLCQGNIYNRP-UHFFFAOYSA-N
Temperature: 77 K
Tabular data in the source: 0
pressure (bar)	uptake (wt%)
0.00218992	0.112988
0.0231629	0.309627
0.0493792	0.480047
0.107055	0.685425
0.251244	1.00005
0.356109	1.14425
0.495056	1.3103
0.644488	1.47198
0.814894	1.62929
0.945975	1.71669
1.13211	1.8303
