Adsorption isotherm of Carbon Dioxide on IRMOF-8-NO2
DOI: 10.1016/j.micromeso.2013.04.023
Adsorbate Carbon Dioxide: InChIKey CURLTUGMZLYLDI-UHFFFAOYSA-N
Temperature: 273 K
Tabular data in the source: 0
pressure (bar)	uptake (cm3(STP)/g)
0.905055	93.1847
3.42858	142.891
6.56388	170.42
10.9992	192.597
16.0462	207.126
21.3992	219.361
30.3462	239.244
