Adsorption isotherm of Methane on IRMOF-8
DOI: 10.1016/j.micromeso.2013.04.023
Adsorbate Methane: InChIKey VNWKTOKETHGBQD-UHFFFAOYSA-N
Temperature: 273 K
Tabular data in the source: 0
pressure (bar)	uptake (wt%)
0.00743317	0.00811453
0.151623	0.239711
0.261731	0.418871
0.403299	0.624249
0.539623	0.816518
0.670705	0.995678
0.799164	1.1661
0.898786	1.3103
1.03773	1.47635
1.13735	1.5987
