Adsorption isotherm of Methane on IRMOF-8-NO2
DOI: 10.1016/j.micromeso.2013.04.023
Adsorbate Methane: InChIKey VNWKTOKETHGBQD-UHFFFAOYSA-N
Temperature: 298 K
Tabular data in the source: 0
pressure (bar)	uptake (wt%)
0.0179197	0.0124843
0.256488	0.196014
0.471461	0.335846
0.699542	0.466938
0.896164	0.580552
1.13998	0.694165
