Adsorption isotherm of Methane on IRMOF-8
DOI: 10.1016/j.micromeso.2013.04.023
Adsorbate Methane: InChIKey VNWKTOKETHGBQD-UHFFFAOYSA-N
Temperature: 298 K
Tabular data in the source: 0
pressure (bar)	uptake (wt%)
0.0179197	0.0124843
0.164731	0.134837
0.361353	0.300888
0.636623	0.523745
0.917137	0.737862
1.13473	0.903913
