Adsorption isotherm of Carbon Dioxide on IRMOF-8-NO2
DOI: 10.1016/j.micromeso.2013.04.023
Adsorbate Carbon Dioxide: InChIKey CURLTUGMZLYLDI-UHFFFAOYSA-N
Temperature: 298 K
Tabular data in the source: 0
pressure (bar)	uptake (wt%)
0.0205893	0.0649162
0.111472	0.729118
0.246632	1.46324
0.475004	2.33719
0.742993	3.0713
1.06225	3.80542
