Adsorption isotherm of Helium on Zeolite 5A
DOI: 10.1021/la950969e
Article source: Table 3
Adsorbate Helium: InChIKey SWQJXJOGLNCZEY-UHFFFAOYSA-N
Kind: experiment
Temperature: 298 K
Tabular data in the source: 1
pressure (bar)	uptake (mmol/g)
192	0.052
579	0.2
814	0.395
1084	0.64
1893	1.054
3063	1.543
3972	1.918
4792	2.129
