Adsorption isotherm of Helium on Zeolite 13X
DOI: 10.1021/la950969e
Article source: Table 3
Adsorbate Helium: InChIKey SWQJXJOGLNCZEY-UHFFFAOYSA-N
Kind: experiment
Temperature: 298 K
Tabular data in the source: 1
pressure (bar)	uptake (mmol/g)
193	0.102
597	0.305
846	0.52
1118	0.783
2126	1.235
3197	1.927
4020	2.5
4908	3
