Adsorption isotherm of Helium on Zeolite 3A
DOI: 10.1021/la950969e
Article source: Table 3
Adsorbate Helium: InChIKey SWQJXJOGLNCZEY-UHFFFAOYSA-N
Kind: experiment
Temperature: 298 K
Tabular data in the source: 1
pressure (bar)	uptake (mmol/g)
194	0.01
592	0.14
830	0.446
1096	0.583
2041	1.031
3153	1.873
3994	3.128
4826	3.592
