Adsorption isotherm of Helium on Zeolite 4A
DOI: 10.1021/la950969e
Article source: Table 3
Adsorbate Helium: InChIKey SWQJXJOGLNCZEY-UHFFFAOYSA-N
Kind: experiment
Temperature: 298 K
Tabular data in the source: 1
pressure (bar)	uptake (mmol/g)
194	0.01
573	0.027
804	0.152
1091	0.42
1844	1.115
3067	1.534
4011	1.993
4997	2.516
