Adsorption isotherm of Helium on Activated Carbon
DOI: 10.1021/la950969e
Article source: Table 2
Adsorbate Helium: InChIKey SWQJXJOGLNCZEY-UHFFFAOYSA-N
Kind: experiment
Temperature: 298 K
Tabular data in the source: 1
pressure (bar)	uptake (mmol/g)
190	0.33
565	0.684
810	1.01
1091	1.432
2026	2
3141	2.7
4011	3.31
4945	3.965
