Adsorption isotherm of Methane on NU-135
DOI: 10.1021/Cm4020942
Adsorbate Methane: InChIKey VNWKTOKETHGBQD-UHFFFAOYSA-N
Temperature: 125 K
Tabular data in the source: 0
pressure (bar)	uptake (volume/volume)
0.252606	148.738
0.337113	360.569
0.42162	11.8371
0.42162	80.5695
0.42162	237.753
0.42162	336.344
0.506128	300.851
0.759649	370.147
1.68923	382.541
2.5343	390.992
2.5343	416.344
