Adsorption isotherm of Hydrogen on NU-135
DOI: 10.1021/Cm4020942
Adsorbate Hydrogen: InChIKey UFHFLCQGNIYNRP-UHFFFAOYSA-N
Temperature: 50 K
Tabular data in the source: 0
pressure (bar)	uptake (wt%)
0.168099	4.98607
0.252606	1.98607
0.337113	0.140998
0.506128	5.98607
1.68923	6.5917
4.22444	7.04241
5.83007	7.2255
7.60472	7.35227
10.3089	7.43677
13.8582	7.52128
18.4216	7.56353
24.3371	7.64804
28.2244	7.67621
31.2667	7.69029
35.323	7.69029
