Adsorption isotherm of Methane on NU-135
DOI: 10.1021/Cm4020942
Adsorbate Methane: InChIKey VNWKTOKETHGBQD-UHFFFAOYSA-N
Temperature: 298 K
Tabular data in the source: 0
pressure (bar)	uptake (volume/volume)
0.42162	11.8371
3.12585	49.5836
6.42162	79.4427
8.5343	95.7807
11.492	116.062
15.8864	136.908
21.8019	156.626
28.816	174.654
33.3794	186.485
38.8723	196.626
45.0413	206.767
51.5484	216.908
59.5765	228.175
65.492	233.809
