Adsorption isotherm of Carbon Dioxide on NU-135
DOI: 10.1021/Cm4020942
Adsorbate Carbon Dioxide: InChIKey CURLTUGMZLYLDI-UHFFFAOYSA-N
Temperature: 298 K
Tabular data in the source: 0
pressure (bar)	uptake (mmol/g)
0.337113	1.21157
1.01317	3.04256
1.43571	4.67636
2.44979	6.45101
3.21035	7.69045
5.40754	10.7609
6.67514	11.8313
9.21035	13.4933
12.4216	15.1552
17.154	16.5073
22.478	17.4933
28.985	18.3102
33.7174	18.789
36.0836	18.9862
38.4498	19.1271
