Adsorption isotherm of Nitrogen on NU-135
DOI: 10.1021/Cm4020942
Adsorbate Nitrogen: InChIKey IJGRMHOSHXDMSA-UHFFFAOYSA-N
Temperature: 298 K
Tabular data in the source: 0
pressure (bar)	uptake (cm3(STP)/g)
0.00515504	56.6885
0.00515504	107.745
0.00515504	195.841
0.00515504	273.927
0.00515504	396.061
0.00658518	481.155
0.015166	535.214
0.0280373	571.254
0.0509196	599.285
0.0938239	616.303
0.186783	633.322
0.279743	639.329
0.375562	642.332
0.508565	648.339
0.632988	649.34
0.768851	653.344
0.903285	655.346
0.994814	658.35
0.999104	686.38
