Adsorption isotherm of Carbon Dioxide on NU-135
DOI: 10.1021/Cm4020942
Adsorbate Carbon Dioxide: InChIKey CURLTUGMZLYLDI-UHFFFAOYSA-N
Temperature: 270 K
Tabular data in the source: 0
pressure (bar)	uptake (mmol/g)
0.148996	0.0697713
0.549436	4.10277
1.06429	7.06317
1.69355	9.55162
2.78046	12.7265
3.63854	14.2282
5.01148	16.0302
6.38442	17.1028
9.64515	18.5186
13.0775	19.5054
18.3976	20.2777
25.4339	21.1358
30.468	21.479
