Adsorption isotherm of Hydrogen on NU-135
DOI: 10.1021/Cm4020942
Adsorbate Hydrogen: InChIKey UFHFLCQGNIYNRP-UHFFFAOYSA-N
Temperature: 298 K
Tabular data in the source: 0
pressure (bar)	uptake (wt%)
0.337113	0.140998
5.74556	0.225505
11.2385	0.281843
18.6751	0.36635
28.3089	0.507195
36.8442	0.591702
47.9146	0.760716
58.7315	0.901561
63.2104	0.957899
