Adsorption isotherm of Carbon Dioxide on NU-135
DOI: 10.1021/Cm4020942
Adsorbate Carbon Dioxide: InChIKey CURLTUGMZLYLDI-UHFFFAOYSA-N
Temperature: 240 K
Tabular data in the source: 0
pressure (bar)	uptake (mmol/g)
0.09179	5.86185
0.148996	0.0697713
0.377819	9.93776
0.778259	12.8552
1.00708	15.0434
1.52193	17.3173
2.55164	19.2051
3.46693	20.2348
4.72545	21.1358
6.09839	21.6077
9.30191	22.5945
11.0753	22.809
11.9906	22.8949
