Adsorption isotherm of Nitrogen on NU-135
DOI: 10.1021/Cm4020942
Adsorbate Nitrogen: InChIKey IJGRMHOSHXDMSA-UHFFFAOYSA-N
Temperature: 298 K
Tabular data in the source: 0
pressure (bar)	uptake (cm3(STP)/g)
0.00515504	29.6588
0.00515504	170.814
0.00658518	305.962
0.00944547	428.097
0.0137359	507.184
0.0266072	571.254
0.0609306	605.291
0.109555	619.307
0.193934	632.321
0.25257	637.327
0.336948	641.331
0.448499	646.336
0.611536	651.342
0.75312	653.344
0.896134	654.345
0.987663	654.345
1.00053	681.375
1.00196	666.358
