Adsorption isotherm of Methane on NU-135
DOI: 10.1021/Cm4020942
Adsorbate Methane: InChIKey VNWKTOKETHGBQD-UHFFFAOYSA-N
Temperature: 150 K
Tabular data in the source: 0
pressure (bar)	uptake (volume/volume)
0.252606	148.738
0.42162	11.8371
0.42162	80.5695
0.42162	237.753
0.506128	300.851
1.01317	325.64
1.85824	340.851
3.29486	353.246
5.49204	359.443
7.3512	363.95
9.29486	366.203
