Adsorption isotherm of Carbon Dioxide on NU-135
DOI: 10.1021/Cm4020942
Adsorbate Carbon Dioxide: InChIKey CURLTUGMZLYLDI-UHFFFAOYSA-N
Temperature: 220 K
Tabular data in the source: 0
pressure (bar)	uptake (mmol/g)
0.09179	5.86185
0.148996	0.0697713
0.206201	10.8387
0.320613	15.0005
0.435024	17.4889
0.663847	19.6341
1.06429	20.7067
1.75076	22.0368
2.43722	22.6803
3.35252	23.3239
4.72545	23.8387
