Adsorption isotherm of Hydrogen on NU-135
DOI: 10.1021/Cm4020942
Adsorbate Hydrogen: InChIKey UFHFLCQGNIYNRP-UHFFFAOYSA-N
Temperature: 100 K
Tabular data in the source: 0
pressure (bar)	uptake (wt%)
0.337113	0.140998
1.52021	1.33818
3.29486	1.97198
5.74556	2.56353
10.647	3.31001
19.6047	4.07057
26.3653	4.45086
30.6751	4.66212
35.4075	4.81705
40.2244	5.00015
46.0554	5.12691
52.478	5.26776
59.9146	5.38043
63.5484	5.43677
65.154	5.45086
