Adsorption isotherm of Methane on NU-135
DOI: 10.1021/Cm4020942
Adsorbate Methane: InChIKey VNWKTOKETHGBQD-UHFFFAOYSA-N
Temperature: 270 K
Tabular data in the source: 0
pressure (bar)	uptake (volume/volume)
0.42162	11.8371
1.77373	55.2174
3.37937	77.7526
5.74556	110.992
10.9005	153.809
15.0413	177.471
20.2808	194.372
28.2244	217.471
30.7596	221.978
36.2526	230.429
42.2526	240.006
48.2526	248.457
55.8582	256.908
62.5343	264.231
65.0695	267.048
