Adsorption isotherm of Methane on NU-135
DOI: 10.1021/Cm4020942
Adsorbate Methane: InChIKey VNWKTOKETHGBQD-UHFFFAOYSA-N
Temperature: 200 K
Tabular data in the source: 0
pressure (bar)	uptake (volume/volume)
0.42162	11.8371
0.42162	80.5695
0.590635	119.443
1.3512	172.4
2.02725	206.767
3.46387	240.569
5.91458	269.865
8.02725	285.64
11.6611	298.598
15.7174	308.738
21.6329	319.443
29.154	325.077
34.3089	329.02
38.4498	331.274
40.3089	331.837
