Adsorption isotherm of Nitrogen on NU-135
DOI: 10.1021/Cm4020942
Adsorbate Nitrogen: InChIKey IJGRMHOSHXDMSA-UHFFFAOYSA-N
Temperature: 298 K
Tabular data in the source: 0
pressure (bar)	uptake (mmol/g)
0.759649	0.507347
3.37937	1.5496
5.74556	2.22566
10.3089	3.32425
13.9427	4.02847
18.8442	5.04256
25.6892	5.97214
29.8301	6.59185
34.816	7.23974
39.9709	8.00031
45.5484	8.62002
52.647	9.21157
59.9146	9.85946
62.5343	10.113
63.5484	10.113
