Adsorption isotherm of Hydrogen on NU-135
DOI: 10.1021/Cm4020942
Adsorbate Hydrogen: InChIKey UFHFLCQGNIYNRP-UHFFFAOYSA-N
Temperature: 30 K
Tabular data in the source: 0
pressure (bar)	uptake (wt%)
0.168099	4.98607
0.168099	6.83114
0.252606	1.98607
0.252606	6.00015
0.337113	0.140998
0.590635	7.94381
1.68923	8.16917
3.97092	8.31001
5.40754	8.35227
7.01317	8.33818
8.28078	8.33818
