Adsorption isotherm of Hydrogen on NU-135
DOI: 10.1021/Cm4020942
Adsorbate Hydrogen: InChIKey UFHFLCQGNIYNRP-UHFFFAOYSA-N
Temperature: 77 K
Tabular data in the source: 0
pressure (bar)	uptake (wt%)
0.337113	0.140998
0.675142	1.98607
1.60472	2.92973
3.29486	3.7748
5.57655	4.47903
9.97092	5.09874
17.6611	5.71846
23.7456	5.98607
29.7456	6.15508
34.1399	6.28184
38.7878	6.38043
43.9427	6.46494
50.4498	6.54945
57.3794	6.63396
62.1963	6.66212
64.647	6.69029
