Adsorption isotherm of Methane on NU-135
DOI: 10.1021/Cm4020942
Adsorbate Methane: InChIKey VNWKTOKETHGBQD-UHFFFAOYSA-N
Temperature: 240 K
Tabular data in the source: 0
pressure (bar)	uptake (volume/volume)
0.42162	11.8371
1.52021	79.4427
2.11176	108.738
3.88641	146.485
6.08359	175.217
11.5766	214.091
15.4639	234.372
21.3794	249.584
28.9005	264.795
33.7174	273.246
38.7033	280.569
44.7033	285.64
51.2949	291.837
59.0695	299.161
65.4075	301.978
