Adsorption isotherm of Methane on NU-135
DOI: 10.1021/Cm4020942
Adsorbate Methane: InChIKey VNWKTOKETHGBQD-UHFFFAOYSA-N
Temperature: 298 K
Tabular data in the source: 0
pressure (bar)	uptake (mmol/g)
0.590635	0.817206
1.3512	1.57777
3.8019	3.26791
6.1681	4.50735
8.36528	5.43692
11.4075	6.81721
15.8019	8.02847
21.7174	9.29608
28.647	10.5355
33.0413	11.0426
38.3653	11.6623
44.8723	12.2257
51.3794	12.8454
59.0695	13.3524
63.5484	13.6904
65.2385	13.8313
