Adsorption isotherm of Carbon Dioxide on NU-135
DOI: 10.1021/Cm4020942
Adsorbate Carbon Dioxide: InChIKey CURLTUGMZLYLDI-UHFFFAOYSA-N
Temperature: 298 K
Tabular data in the source: 0
pressure (bar)	uptake (mmol/g)
0.148996	0.0697713
1.29311	4.18858
2.2084	6.07637
3.86737	8.43611
5.1831	10.2381
6.2128	11.3965
9.01588	13.3272
12.391	15.0434
16.9675	16.3734
22.8597	17.4031
29.3239	18.0896
34.3008	18.7331
36.7607	18.8189
38.7057	18.9906
