Adsorption isotherm of Hydrogen on NU-135
DOI: 10.1021/Cm4020942
Adsorbate Hydrogen: InChIKey UFHFLCQGNIYNRP-UHFFFAOYSA-N
Temperature: 150 K
Tabular data in the source: 0
pressure (bar)	uptake (wt%)
0.337113	0.140998
1.94275	0.352265
3.21035	0.521279
5.49204	0.746631
9.29486	1.04241
15.7174	1.49311
26.6188	2.07057
30.7596	2.25367
39.6329	2.56353
50.7033	2.88748
59.9991	3.141
63.4639	3.18325
