Adsorption isotherm of Hydrogen on NU-135
DOI: 10.1021/Cm4020942
Adsorbate Hydrogen: InChIKey UFHFLCQGNIYNRP-UHFFFAOYSA-N
Temperature: 200 K
Tabular data in the source: 0
pressure (bar)	uptake (wt%)
0.337113	0.140998
3.54838	0.267758
5.66106	0.338181
9.63289	0.521279
16.3089	0.760716
27.2949	1.08466
35.154	1.3241
45.4639	1.56353
57.5484	1.84522
62.6188	1.9579
