Adsorption isotherm of Nitrogen on Carbon
DOI: 10.1016/j.jpowsour.2012.02.089
Adsorbate Nitrogen: InChIKey IJGRMHOSHXDMSA-UHFFFAOYSA-N
Temperature: 77 K
Tabular data in the source: 0
pressure (bar)	uptake (cm3(STP)/g)
0.00801532	11.0135
0.0308976	33.8958
0.0509196	41.9046
0.0995445	44.1928
0.178202	46.481
0.248279	45.3369
0.348389	43.0487
0.417036	44.1928
0.518576	41.9046
0.618686	39.6163
0.718796	39.6163
0.816046	37.3281
0.904715	37.3281
0.966211	37.3281
0.993384	37.3281
