Adsorption isotherm of Nitrogen on Carbon
DOI: 10.1016/j.jpowsour.2012.02.089
Adsorbate Nitrogen: InChIKey IJGRMHOSHXDMSA-UHFFFAOYSA-N
Temperature: 77 K
Tabular data in the source: 0
pressure (bar)	uptake (cm3(STP)/g)
0.00658518	293.61
0.0294675	340.518
0.0695115	383.995
0.143879	434.336
0.243989	478.956
0.34982	509.847
0.448499	538.45
0.547179	549.891
0.642999	561.333
0.740249	575.062
0.793164	585.359
0.846079	600.232
0.893274	616.25
0.939038	659.726
0.977652	736.382
0.986233	814.182
