Adsorption isotherm of Carbon Dioxide on ZIF-95
DOI: 10.1039/C2cc35691k
Adsorbate Carbon Dioxide: InChIKey CURLTUGMZLYLDI-UHFFFAOYSA-N
Temperature: 598 K
Tabular data in the source: 0
pressure (bar)	uptake (mmol/g)
0.0982868	0.00445104
0.195953	0.00445104
0.399657	0.0109792
0.600571	0.0142433
0.798694	0.0175074
0.996817	0.0207715
