Adsorption isotherm of Carbon Dioxide on ZIF-95
DOI: 10.1039/C2cc35691k
Adsorbate Carbon Dioxide: InChIKey CURLTUGMZLYLDI-UHFFFAOYSA-N
Temperature: 498 K
Tabular data in the source: 0
pressure (bar)	uptake (mmol/g)
0.00899183	0.00118694
0.0982868	0.00445104
0.201534	0.00771513
0.402448	0.0207715
0.600571	0.0240356
0.804275	0.0338279
1.0024	0.0436202
