Adsorption isotherm of Carbon Dioxide on ZIF-95
DOI: 10.1039/C2cc35691k
Adsorbate Carbon Dioxide: InChIKey CURLTUGMZLYLDI-UHFFFAOYSA-N
Temperature: 298 K
Tabular data in the source: 0
pressure (bar)	uptake (mmol/g)
0.00579707	0.0143327
0.0956448	0.122056
0.199984	0.236486
0.397069	0.424889
0.60285	0.596396
0.799935	0.747682
1.00572	0.902318
