Adsorption isotherm of Carbon Dioxide on ZIF-95
DOI: 10.1039/C2cc35691k
Adsorbate Carbon Dioxide: InChIKey CURLTUGMZLYLDI-UHFFFAOYSA-N
Temperature: 398 K
Tabular data in the source: 0
pressure (bar)	uptake (mmol/g)
0.0117823	0.00118694
0.0982868	0.0142433
0.201534	0.0272997
0.396867	0.0566766
0.59778	0.0795252
0.798694	0.108902
0.999608	0.135015
