Adsorption isotherm of Carbon Dioxide on ZIF-95
DOI: 10.1039/C2cc35691k
Adsorbate Carbon Dioxide: InChIKey CURLTUGMZLYLDI-UHFFFAOYSA-N
Temperature: 298 K
Tabular data in the source: 0
pressure (bar)	uptake (mmol/g)
0.00869539	0.00757609
0.0985431	0.122047
0.199984	0.229738
0.399968	0.414758
0.60285	0.569402
0.802833	0.707183
1.00282	0.838216
