Adsorption isotherm of Carbon Dioxide on ZIF-95
DOI: 10.1039/C2cc35691k
Adsorbate Carbon Dioxide: InChIKey CURLTUGMZLYLDI-UHFFFAOYSA-N
Temperature: 298 K
Tabular data in the source: 0
pressure (bar)	uptake (mmol/g)
0.0108965	0.00703364
0.100312	0.0605505
0.201265	0.118349
0.397403	0.229664
0.59931	0.330275
0.801216	0.422324
1.00024	0.507951
