Adsorption isotherm of Methane on ZIF-95
DOI: 10.1039/C2cc35691k
Adsorbate Methane: InChIKey VNWKTOKETHGBQD-UHFFFAOYSA-N
Temperature: 298 K
Tabular data in the source: 0
pressure (bar)	uptake (mmol/g)
0.00869539	0.00420186
0.101441	0.0309349
0.199984	0.0576517
0.399968	0.107703
0.599951	0.161128
0.802833	0.211171
1.00572	0.267963
