Adsorption isotherm of Hydrogen on ZIF-95
DOI: 10.1039/C2cc35691k
Adsorbate Hydrogen: InChIKey UFHFLCQGNIYNRP-UHFFFAOYSA-N
Temperature: 298 K
Tabular data in the source: 0
pressure (bar)	uptake (mmol/g)
0.010897	0.000611621
0.0974284	0.000611621
0.201266	0.00275229
0.400288	0.00489297
0.602195	0.011315
0.798333	0.011315
1.00024	0.0134557
