Adsorption isotherm of Hydrogen on ZIF-95
DOI: 10.1039/C2cc35691k
Adsorbate Hydrogen: InChIKey UFHFLCQGNIYNRP-UHFFFAOYSA-N
Temperature: 298 K
Tabular data in the source: 0
pressure (bar)	uptake (mmol/g)
0.0985431	0.0039492
0.199984	0.00366394
0.402866	0.00984188
0.599951	0.0126619
0.799935	0.0222222
1.00282	0.0284002
