Adsorption isotherm of Nitrogen on ZIF-95
DOI: 10.1039/C2cc35691k
Adsorbate Nitrogen: InChIKey IJGRMHOSHXDMSA-UHFFFAOYSA-N
Temperature: 298 K
Tabular data in the source: 0
pressure (bar)	uptake (mmol/g)
0.00869539	0.00420186
0.101441	0.00731528
0.199984	0.0137866
0.402866	0.0334615
0.599951	0.04303
0.799935	0.0660873
1.00282	0.0790137
