Adsorption isotherm of Methane on ZIF-95
DOI: 10.1039/C2cc35691k
Adsorbate Methane: InChIKey VNWKTOKETHGBQD-UHFFFAOYSA-N
Temperature: 298 K
Tabular data in the source: 0
pressure (bar)	uptake (mmol/g)
0.00869539	0.00420186
0.0985431	0.0309431
0.199984	0.0509032
0.399968	0.104329
0.60285	0.157746
0.799935	0.207805
0.999919	0.254482
