Adsorption isotherm of Nitrogen on ZIF-95
DOI: 10.1039/C2cc35691k
Adsorbate Nitrogen: InChIKey IJGRMHOSHXDMSA-UHFFFAOYSA-N
Temperature: 298 K
Tabular data in the source: 0
pressure (bar)	uptake (mmol/g)
0.00869539	0.00420186
0.0985431	0.0106977
0.194187	0.0171772
0.399968	0.0402181
0.60285	0.0565188
0.799935	0.0728357
1.00282	0.0958848
