Adsorption isotherm of Nitrogen on UiO-66(25 nm)
DOI: 10.1002/anie.201506888
Article source: Figure 3a- UiO 66 25nm
Adsorbate Nitrogen: InChIKey IJGRMHOSHXDMSA-UHFFFAOYSA-N
Kind: experiment
Temperature: 77 K
Tabular data in the source: 0
pressure (bar)	uptake (cm3(STP)/g)
1e-06	4.414
5e-06	60.636
1e-05	62.83
0.000111	111.709
0.000122	112.054
0.000517	140.355
0.000517	140.713
0.000618	168.776
0.002705	199.617
0.003293	212.437
0.005573	228.704
0.007741	233.663
0.008238	236.862
0.008836	253.74
0.022383	281.436
0.030479	287.726
0.053905	298.854
0.0795	307.381
0.103311	313.067
0.104395	313.427
0.113494	314.277
0.123475	316.817
0.148178	320.81
0.158645	322.02
0.167936	323.653
0.176143	325.588
0.184239	326.859
0.203015	329.278
0.221294	329.34
0.231973	330.61
0.242643	333.695
0.242937	333.695
0.252816	335.268
0.253708	335.268
0.261915	336.901
0.264772	337.324
0.274165	339.018
0.279505	339.2
0.284338	339.26
0.287996	339.442
0.295109	339.805
0.297977	339.926
0.304796	340.978
0.306772	341.257
0.348082	347.609
0.356573	348.395
0.401541	353.054
0.408157	354.022
0.452234	359.224
0.460036	360.011
0.503514	365.818
0.506382	365.939
0.530001	369.387
0.555595	372.896
0.601637	379.49
0.611425	380.458
0.645217	385.902
0.654012	387.051
0.696893	395.882
0.704411	395.701
0.731982	403.141
0.754314	407.823
0.756584	408.101
0.805899	424.793
0.808563	426.353
0.827835	448.076
0.856298	451.464
0.865093	487.082
0.875073	505.95
0.889309	545.378
0.893555	486.539
0.901772	593.937
0.90848	506.737
0.925178	544.049
0.934075	573.439
