Adsorption isotherm of Nitrogen on DOPA-UiO-66(225 nm)
DOI: 10.1002/anie.201506888
Article source: Figure 3b- DOPA UiO 66 225nm
Adsorbate Nitrogen: InChIKey IJGRMHOSHXDMSA-UHFFFAOYSA-N
Kind: experiment
Temperature: 77 K
Tabular data in the source: 0
pressure (bar)	uptake (cm3(STP)/g)
9.1e-05	61.401
9.1e-05	-5.765
0.000101	4.166
0.000172	149.728
0.000274	89.827
0.000284	90.561
0.001054	178.346
0.002726	208.11
0.005472	234.795
0.009798	260.696
0.019535	298.61
0.03135	317.265
0.053489	334.894
0.081242	343.647
0.103787	348.234
0.153001	353.243
0.158705	353.182
0.203987	356.078
0.206055	356.212
0.23627	357.827
0.25468	358.427
0.255957	358.49
0.304289	360.661
0.354678	362.168
0.404783	363.777
0.406354	363.795
0.455476	364.578
0.456854	365.302
0.503504	364.998
0.5101	365.662
0.531166	365.782
0.555575	366.928
0.603998	367.468
0.608426	367.891
0.657549	368.915
0.659322	368.915
0.707451	369.637
0.710501	369.701
0.733238	370.119
0.759522	371.216
0.761386	371.264
0.809526	372.469
0.812576	372.549
0.846043	373.132
0.858344	373.674
0.895946	376.148
0.907061	376.208
0.932068	379.165
0.938959	378.319
1.00116	404.639
