Adsorption isotherm of Nitrogen on UiO-66(225 nm)
DOI: 10.1002/anie.201506888
Article source: Figure 3b- UiO 66 225nm
Adsorbate Nitrogen: InChIKey IJGRMHOSHXDMSA-UHFFFAOYSA-N
Kind: experiment
Temperature: 77 K
Tabular data in the source: 0
pressure (bar)	uptake (cm3(STP)/g)
8.1e-05	3.962
9.1e-05	2.185
0.000101	0.242
0.000294	18.057
0.000375	106.532
0.000669	164.509
0.00076	167.167
0.002624	183.412
0.003415	211.857
0.005573	246.764
0.010487	277.927
0.018553	310.6
0.030063	333.67
0.053003	353.118
0.079378	361.997
0.104871	366.116
0.106249	366.226
0.153994	371.845
0.162161	373.053
0.204585	375.108
0.209115	376.075
0.238256	379.579
0.254103	378.949
0.260507	379.278
0.302729	381.756
0.305292	381.515
0.353817	382.967
0.355296	382.846
0.403334	384.712
0.405796	384.841
0.45501	385.387
0.456196	385.416
0.505318	386.96
0.510333	386.115
0.531693	387.143
0.556406	387.748
0.606309	389.381
0.609662	389.743
0.657792	390.471
0.660457	390.048
0.70888	391.681
0.711443	391.76
0.733887	392.165
0.759775	392.287
0.762724	392.529
0.806831	393.618
0.813721	394.343
0.848364	394.104
0.858699	395.976
0.898378	397.669
0.909888	398.334
0.93371	399.966
0.940407	399.845
0.998679	418.63
0.998781	418.662
