Adsorption isotherm of Nitrogen on DOPA-UiO-66(25 nm)
DOI: 10.1002/anie.201506888
Article source: Figure 3a- DOPA UiO 66 25nm
Adsorbate Nitrogen: InChIKey IJGRMHOSHXDMSA-UHFFFAOYSA-N
Kind: experiment
Temperature: 77 K
Tabular data in the source: 0
pressure (bar)	uptake (cm3(STP)/g)
0.000203	2.963
0.000294	18.081
0.003263	81.818
0.008998	89.437
0.018978	97.056
0.033306	103.103
0.048423	106.791
0.079358	111.324
0.101984	115.193
0.102774	118.761
0.122046	117.853
0.155838	123.657
0.172151	122.023
0.185982	123.655
0.195274	124.925
0.202782	127.585
0.212965	127.827
0.222449	128.431
0.231933	129.035
0.239441	130.002
0.24933	129.82
0.257031	131.574
0.26692	132.057
0.276597	132.782
0.284997	133.87
0.297257	134.656
0.301503	134.026
0.304269	134.232
0.351314	136.649
0.35408	138.644
0.403486	139.307
0.407245	142.391
0.453591	142.328
0.458729	146.681
0.503788	147.405
0.512583	150.912
0.531358	150.004
0.555474	152.059
0.604495	157.015
0.613189	161.429
0.65459	162.455
0.66299	169.53
0.704594	170.193
0.710329	180.049
0.730888	176.057
0.75628	182.284
0.764092	200.728
0.778612	208.589
0.806486	198.791
0.813204	241.06
0.837806	269.964
0.857372	226.424
0.864586	312.777
0.874171	328.983
0.894831	264.459
0.909655	284.414
0.92912	402.695
0.929414	401.139
0.936922	334.906
0.963114	382.073
0.998001	407.771
