Adsorption isotherm of Carbon Dioxide on C41H57Mn5N13O19
DOI: 10.1021/Ic2021929
Adsorbate Carbon Dioxide: InChIKey CURLTUGMZLYLDI-UHFFFAOYSA-N
Temperature: 298 K
Tabular data in the source: 0
pressure (bar)	uptake (cm3(STP)/g)
0.139831	1.73913
0.314383	4.7205
0.489008	7.45342
0.733949	9.68944
0.979107	11.1801
1.18925	12.4224
2.59141	16.646
4.09911	19.8758
5.53701	21.8634
7.01007	23.6025
8.48327	24.8447
9.92145	25.8385
11.3596	27.0807
12.8681	27.5776
14.3064	28.0745
15.7097	28.5714
17.2534	28.5714
18.6217	28.5714
20.0252	28.0745
21.6042	27.5776
