Adsorption isotherm of Hydrogen on C41H57Mn5N13O19
DOI: 10.1021/Ic2021929
Adsorbate Hydrogen: InChIKey UFHFLCQGNIYNRP-UHFFFAOYSA-N
Temperature: 77 K
Tabular data in the source: 0
pressure (bar)	uptake (cm3(STP)/g)
0.0224456	43.2298
0.0296369	18.6335
0.0446732	87.205
0.214795	105.342
0.354262	108.323
0.634433	110.062
0.844796	110.559
1.09017	111.304
2.21289	111.304
3.3003	112.05
4.4581	112.05
5.58067	112.547
