Adsorption isotherm of Carbon Dioxide on C41H57Mn5N13O19
DOI: 10.1021/Ic2021929
Adsorbate Carbon Dioxide: InChIKey CURLTUGMZLYLDI-UHFFFAOYSA-N
Temperature: 275 K
Tabular data in the source: 0
pressure (bar)	uptake (cm3(STP)/g)
0.103947	4.47205
0.522931	11.4286
0.697556	14.1615
1.1177	17.1429
2.55502	21.118
3.99263	24.0994
5.43038	26.5839
6.83319	28.5714
8.3414	30.0621
9.7445	31.0559
12.5511	31.5528
13.9896	31.8012
15.3579	31.5528
16.7966	31.0559
18.2703	30.559
21.0779	27.5776
