Adsorption isotherm of Nitrogen on Mo-AMP-Cu-BTC
DOI: 10.1016/j.molcata.2015.01.014
Article source: Figure 6
Adsorbate Nitrogen: InChIKey IJGRMHOSHXDMSA-UHFFFAOYSA-N
Kind: experiment
Temperature: 77 K
Tabular data in the source: 0
pressure (bar)	uptake (ml/g)
0.025797	0
0.054625	0.813008
0.10318	1.62602
0.154774	1.62602
0.203329	2.43902
0.251888	2.43902
0.292856	3.25203
0.303481	2.43902
0.353554	3.25203
0.394522	4.06504
0.403626	4.06504
0.499223	4.87805
0.590264	6.50407
0.600889	5.69106
0.693444	8.13008
0.701034	7.31707
0.798142	9.7561
0.801183	8.13008
0.895256	10.5691
0.902834	13.0081
0.986173	44.7154
