Adsorption isotherm of Nitrogen on CuBTC
DOI: 10.1016/j.molcata.2015.01.014
Article source: Figure 6
Adsorbate Nitrogen: InChIKey IJGRMHOSHXDMSA-UHFFFAOYSA-N
Kind: experiment
Temperature: 77 K
Tabular data in the source: 0
pressure (bar)	uptake (ml/g)
0.035438	258.537
0.052115	262.602
0.096093	269.919
0.105198	269.919
0.146147	275.61
0.150712	272.358
0.197728	278.862
0.200772	276.423
0.243245	280.488
0.246287	278.862
0.296344	283.74
0.299385	282.114
0.347934	284.553
0.38889	288.618
0.394972	285.366
0.498079	306.504
0.498143	289.431
0.596697	310.569
0.599797	293.496
0.698354	313.821
0.698419	296.748
0.795449	319.512
0.795517	301.626
0.892557	321.951
0.897131	316.26
0.985026	347.154
