Adsorption isotherm of Ethane on [NH2(CH3)2][Zn3(4-Pca)3(ade)].10DMF.8H2O
DOI: 10.1002/chem.201406323
Article source: Figure 3a
Adsorbate Ethane: InChIKey OTMSDBZUPAUEDD-UHFFFAOYSA-N
Kind: experiment
Temperature: 273 K
Tabular data in the source: 0
pressure (bar)	uptake (cm3(STP)/g)
0.004402	4.60786
0.007328	8.06386
0.01326	11.231
0.023718	13.2446
0.026669	15.5484
0.038589	19.29
0.040145	16.697
0.051905	27.9284
0.055115	18.1333
0.066499	46.9368
0.068586	19.57
0.080568	20.4309
0.100854	53.8411
0.107521	22.7282
0.131498	23.8739
0.132258	58.4416
0.15997	25.3066
0.186947	26.4516
0.201121	65.0486
0.212424	27.5969
0.239402	28.7419
0.264885	29.5992
0.293363	30.7438
0.32034	31.8888
0.332946	73.6549
0.347323	32.7457
0.369715	37.9248
0.398031	46.5592
0.461827	79.6695
0.463722	61.2328
0.532487	72.4488
0.598351	79.0565
0.599733	84.5294
0.662763	83.3601
0.665701	86.24
0.733176	87.6621
0.796163	88.5092
0.79915	89.0846
0.86213	90.2198
0.866643	89.6425
0.929617	91.0658
0.937106	91.6399
1.01059	92.4843
1.01209	92.7719
