Adsorption isotherm of Ethene on [NH2(CH3)2][Zn3(4-Pca)3(ade)].10DMF.8H2O
DOI: 10.1002/chem.201406323
Article source: Figure 3b
Adsorbate Ethene: InChIKey VGGSQFUCUMXWEO-UHFFFAOYSA-N
Kind: experiment
Temperature: 273 K
Tabular data in the source: 0
pressure (bar)	uptake (cm3(STP)/g)
0	0
0.00145	1.38665
0.005879	3.46566
0.017827	5.31019
0.026789	6.69359
0.040222	8.9999
0.052171	10.8444
0.070128	12.6864
0.097064	15.4492
0.117879	21.2206
0.127057	16.8235
0.155539	18.4297
0.174383	36.6874
0.182528	19.8053
0.209524	20.9496
0.222063	47.0714
0.24102	22.3232
0.268017	23.4676
0.272984	51.2111
0.298018	24.6107
0.325441	54.4254
0.326517	25.7544
0.355035	26.4357
0.379426	56.9453
0.412042	28.4919
0.431918	59.2347
0.465028	57.6018
0.472071	30.0843
0.484401	61.7553
0.527585	31.91
0.532551	59.6535
0.539916	63.5809
0.578435	37.8995
0.590913	65.6398
0.597079	61.4752
0.638152	47.8158
0.643423	67.4667
0.666121	63.0638
0.69594	69.0624
0.702401	57.0365
0.73216	64.6537
0.749978	70.1951
0.754771	62.5629
0.801002	71.5602
0.811675	67.3938
0.83551	72.7013
0.868647	70.3748
0.888046	73.8346
0.925637	72.8935
0.940581	74.9679
0.984155	74.7178
1.01114	76.0934
