Adsorption isotherm of Acetylene on [NH2(CH3)2][Zn3(4-Pca)3(ade)].10DMF.8H2O
DOI: 10.1002/chem.201406323
Article source: Figure 3a
Adsorbate Acetylene: InChIKey HSFWRNGVRCDJHI-UHFFFAOYSA-N
Kind: experiment
Temperature: 273 K
Tabular data in the source: 0
pressure (bar)	uptake (cm3(STP)/g)
0.004365	6.33627
0.014686	14.6874
0.026372	29.3756
0.031027	22.1727
0.039738	35.7094
0.039935	26.4913
0.054609	41.7548
0.054831	31.3844
0.069481	47.8002
0.069753	35.1252
0.081692	38.0026
0.095131	40.8797
0.099261	58.1625
0.123535	45.481
0.126066	67.3734
0.15045	49.5067
0.178095	89.5404
0.178879	52.9558
0.205807	56.4053
0.233333	101.912
0.234222	60.4306
0.261113	65.6085
0.287974	72.2267
0.288678	109.387
0.316315	79.7088
0.343145	87.7674
0.34554	115.997
0.371505	94.3853
0.397951	120.304
0.399866	101.003
0.42675	106.469
0.453641	111.647
0.454869	124.322
0.508787	128.34
0.510473	119.698
0.564354	125.444
0.565731	131.205
0.618265	129.751
0.61968	133.783
0.673695	133.193
0.67514	135.785
0.729151	135.482
0.730596	138.074
0.783093	138.348
0.784557	140.076
0.82204	140.93
0.841555	140.349
0.879009	142.643
0.895522	142.063
0.935982	144.068
0.950983	144.064
1.01095	145.776
