Adsorption isotherm of N-propane on [NH2(CH3)2][Zn3(4-Pca)3(ade)].10DMF.8H2O
DOI: 10.1002/chem.201406323
Article source: Figure 3a
Adsorbate N-propane: InChIKey ATUOYWHBWRKTHZ-UHFFFAOYSA-N
Kind: experiment
Temperature: 273 K
Tabular data in the source: 0
pressure (bar)	uptake (cm3(STP)/g)
0.002655	16.131
0.007093	19.0104
0.00855	21.0265
0.012408	50.9843
0.013032	21.8895
0.018989	23.9043
0.024965	25.055
0.025786	56.742
0.032422	27.0694
0.038182	38.3024
0.039232	59.331
0.051313	55.5828
0.052696	61.0557
0.066166	62.4924
0.072222	59.8982
0.088686	61.6221
0.099101	65.6522
0.118639	63.9186
0.13206	67.6598
0.132122	64.7791
0.159099	65.9241
0.16352	69.6678
0.18457	67.3576
0.197985	71.3869
0.211541	68.7906
0.238526	69.6475
0.263997	71.081
0.265429	74.2493
0.29098	71.9379
0.317963	72.7948
0.331378	76.8241
0.346441	73.9394
0.371924	74.7967
0.397341	78.8227
0.398909	75.6536
0.431886	76.7969
0.466308	80.5325
0.466371	77.6518
0.497848	78.7956
0.532278	82.2431
0.532332	79.6505
0.565316	80.5058
0.599757	83.3771
0.599801	81.3606
0.631291	81.9283
0.664281	82.4955
0.665739	84.5116
0.698772	83.0623
0.731725	85.3579
0.731762	83.6295
0.764752	84.1967
0.799212	86.2039
0.799237	85.0516
0.832233	85.3308
0.865205	86.7622
0.865224	85.898
0.898219	86.1772
0.931217	86.4563
0.934193	87.6078
0.970202	87.31
0.973189	87.8853
1.01069	87.8752
1.01219	87.8748
