Adsorption isotherm of Ethane on [NH2(CH3)2][Zn3(4-Pca)3(ade)].10DMF.8H2O
DOI: 10.1002/chem.201406323
Article source: Figure 3b
Adsorbate Ethane: InChIKey OTMSDBZUPAUEDD-UHFFFAOYSA-N
Kind: experiment
Temperature: 273 K
Tabular data in the source: 0
pressure (bar)	uptake (cm3(STP)/g)
0	0
0.00145	1.38665
0.005905	2.77201
0.013303	5.77458
0.014875	3.92419
0.022308	6.00189
0.026702	9.00576
0.032728	8.54072
0.038616	11.7752
0.046075	13.1592
0.047655	11.0776
0.062504	15.6954
0.065621	12.6883
0.079107	13.6073
0.099739	24.2342
0.104584	15.2148
0.133084	16.3585
0.135358	35.7795
0.157076	17.5042
0.187078	18.6472
0.196604	45.0015
0.211088	19.3304
0.238094	20.2436
0.263597	21.1574
0.26404	49.3653
0.290611	21.8393
0.32063	22.5199
0.330017	52.5737
0.34464	23.2032
0.371655	23.8851
0.397514	55.319
0.400171	24.5664
0.465028	57.6018
0.466218	25.925
0.532256	27.5149
0.532551	59.6535
0.595064	35.1177
0.597079	61.4752
0.666121	63.0638
0.666877	42.9479
0.731221	49.6252
0.73216	64.6537
0.778685	65.7896
0.79858	56.07
0.846244	66.9163
0.867483	61.358
0.913801	68.0431
0.931923	65.4919
1.01141	68.9257
