Adsorption isotherm of Acetylene on [NH2(CH3)2][Zn3(4-Pca)3(ade)].10DMF.8H2O
DOI: 10.1002/chem.201406323
Article source: Figure 3b
Adsorbate Acetylene: InChIKey HSFWRNGVRCDJHI-UHFFFAOYSA-N
Kind: experiment
Temperature: 273 K
Tabular data in the source: 0
pressure (bar)	uptake (cm3(STP)/g)
0	0
0.004376	3.46631
0.011775	6.46888
0.016012	13.6347
0.026354	18.2545
0.026641	10.6243
0.03971	22.6417
0.040031	14.0867
0.053091	26.3354
0.054932	17.3172
0.066481	29.7978
0.066863	19.6242
0.081799	21.9299
0.093252	36.9538
0.095249	23.7737
0.118573	42.7232
0.12216	27.2303
0.150581	30.4549
0.179028	32.986
0.179627	57.0319
0.207467	35.7482
0.231712	70.1886
0.234429	37.8174
0.261375	40.3491
0.286982	78.4883
0.288302	43.3432
0.315194	47.2622
0.340872	83.5516
0.343554	52.1054
0.370378	57.8741
0.394761	88.615
0.398678	64.3358
0.427012	69.8727
0.451699	92.5209
0.453861	74.9477
0.508637	96.4269
0.509114	83.7099
0.56409	99.871
0.56442	91.0848
0.619552	103.084
0.619794	96.6099
0.675048	105.372
0.675222	100.748
0.729033	107.892
0.729172	104.193
0.784538	109.949
0.784642	107.174
0.823554	111.088
0.84013	109.694
0.879058	113.145
0.89712	112.212
0.93459	114.508
0.952626	114.269
1.01113	116.556
