Adsorption isotherm of Ethene on [NH2(CH3)2][Zn3(4-Pca)3(ade)].10DMF.8H2O
DOI: 10.1002/chem.201406323
Article source: Figure 3a
Adsorbate Ethene: InChIKey VGGSQFUCUMXWEO-UHFFFAOYSA-N
Kind: experiment
Temperature: 273 K
Tabular data in the source: 0
pressure (bar)	uptake (cm3(STP)/g)
0.011847	7.19845
0.011915	4.0297
0.016322	8.3495
0.022273	10.6524
0.028243	12.0911
0.029613	18.1402
0.040176	15.2566
0.053622	17.8456
0.06103	22.1646
0.068586	19.57
0.100033	22.1541
0.118843	54.4123
0.128479	24.739
0.155433	27.0362
0.171199	61.3118
0.183897	28.7569
0.212363	30.4776
0.223604	65.9067
0.240828	32.1983
0.270799	33.6306
0.273022	69.9263
0.299265	35.3513
0.326236	36.7843
0.329953	73.3677
0.351632	41.6746
0.380894	76.2346
0.406804	57.2152
0.433343	78.813
0.47705	69.295
0.485792	81.3914
0.524955	73.8911
0.539753	83.3933
0.581873	77.9087
0.590719	85.1079
0.640291	81.9258
0.644687	86.8218
0.69566	88.2483
0.697223	85.3672
0.749634	89.6741
0.754178	87.6564
0.800607	91.1006
0.811139	89.6575
0.836586	92.2432
0.869594	91.9462
0.887571	93.0936
0.926561	93.6592
0.940051	94.2317
0.982035	95.0846
1.01052	95.653
