Adsorption isotherm of N-propane on [NH2(CH3)2][Zn3(4-Pca)3(ade)].10DMF.8H2O
DOI: 10.1002/chem.201406323
Article source: Figure 3b
Adsorbate N-propane: InChIKey ATUOYWHBWRKTHZ-UHFFFAOYSA-N
Kind: experiment
Temperature: 273 K
Tabular data in the source: 0
pressure (bar)	uptake (cm3(STP)/g)
0.00117	8.83695
0.008524	13.0214
0.010612	37.4395
0.012987	14.1832
0.023887	43.9483
0.027818	19.2963
0.038779	47.4334
0.052666	37.6629
0.064186	50.9162
0.077819	47.89
0.09713	53.6998
0.103253	50.6752
0.131612	55.5527
0.148232	52.9909
0.163097	57.1737
0.17674	53.915
0.197605	58.329
0.200741	54.84
0.209736	55.3031
0.238244	56.2271
0.263625	60.4076
0.263756	56.9192
0.290769	57.611
0.316282	58.3031
0.329672	61.7886
0.346301	58.9943
0.37031	59.6867
0.397219	63.1692
0.397342	59.9134
0.430355	60.8364
0.464776	64.3173
0.464872	61.7591
0.532334	65.4653
0.532438	62.6746
0.595488	63.8236
0.598396	66.3812
0.66446	67.297
0.664548	64.9714
0.732025	68.2125
0.732104	66.1194
0.798098	68.8957
0.798168	67.0353
0.846152	69.3504
0.862729	67.9514
0.912224	70.0337
0.931779	69.3317
0.951282	70.0251
0.972313	70.0206
1.01135	70.7097
