Adsorption isotherm of Nitrogen on [NH2(CH3)2][Zn3(4-Pca)3(ade)].10DMF.8H2O
DOI: 10.1002/chem.201406323
Article source: Figure 2
Adsorbate Nitrogen: InChIKey IJGRMHOSHXDMSA-UHFFFAOYSA-N
Kind: experiment
Temperature: 77 K
Tabular data in the source: 0
pressure (bar)	uptake (cm3(STP)/g)
0.0015	23.9779
0.001613	48.4894
0.001722	71.9352
0.00183	95.381
0.003328	118.826
0.004813	139.607
0.025765	165.706
0.035501	168.899
0.05394	252.016
0.07024	173.144
0.084135	174.736
0.103583	175.792
0.106738	257.318
0.124422	177.38
0.145259	178.435
0.155358	259.958
0.164709	180.024
0.185543	180.547
0.20536	261.532
0.206376	181.069
0.255362	262.572
0.256378	182.11
0.30638	183.684
0.306748	263.079
0.356747	263.587
0.357771	184.724
0.40777	185.764
0.408133	264.094
0.459158	186.271
0.459518	264.069
0.509158	187.312
0.512294	264.575
0.542703	233.654
0.56355	236.841
0.566456	264.548
0.608119	264.527
0.609405	242.147
0.659503	264.502
0.663576	244.251
0.712275	263.943
0.713581	246.358
0.763583	247.398
0.765045	263.383
0.813585	248.972
0.817814	262.291
0.834422	250.027
0.864982	251.61
0.870584	261.732
0.889985	252.664
0.913634	261.178
0.916377	253.716
0.939991	254.77
0.964997	256.356
0.965014	260.086
0.980278	257.414
0.99695	259.005
