Adsorption isotherm of Methane on [NH2(CH3)2][Zn3(4-Pca)3(ade)].10DMF.8H2O
DOI: 10.1002/chem.201406323
Article source: Figure 3b
Adsorbate Methane: InChIKey VNWKTOKETHGBQD-UHFFFAOYSA-N
Kind: experiment
Temperature: 273 K
Tabular data in the source: 0
pressure (bar)	uptake (cm3(STP)/g)
0	0
0.004507	-0.001954
0.012001	0.457225
0.019521	0.222751
0.027014	0.681929
0.033032	0.448106
0.040535	0.676067
0.052535	1.13329
0.058562	0.668252
0.067558	1.12678
0.081078	1.12092
0.106599	1.57228
0.13212	2.02364
0.159143	2.47435
0.184673	2.6945
0.2147	3.14391
0.24022	3.59527
0.26575	3.81542
0.292773	4.26613
0.321307	4.48497
0.360349	4.93047
0.39939	5.37597
0.466964	6.04032
0.53454	6.70466
0.600613	7.36966
0.668188	8.034
0.734269	8.46778
0.780822	8.91002
0.800342	9.13277
0.846886	9.80623
0.867918	9.79711
0.91447	10.2394
0.933999	10.2309
1.01509	10.8894
