Adsorption isotherm of Nitrogen on Clinoptilolite
DOI: 10.1007/s10450-018-0001-z
Article source: Figure 4
Adsorbate Nitrogen: InChIKey IJGRMHOSHXDMSA-UHFFFAOYSA-N
Kind: experiment
Temperature: 303 K
Tabular data in the source: 0
pressure (bar)	uptake (mmol/g)
0	0
0.536821	0.275058
0.972988	0.417249
1.96275	0.594406
2.76798	0.69697
3.9255	0.787879
5.85471	0.895105
7.76713	0.965035
10.3338	1.03497
