Adsorption isotherm of Nitrogen, Methane on Cs+ Clinoptilolite
DOI: 10.1007/s10450-018-0001-z
Article source: Figure 8
Adsorbate Nitrogen: InChIKey IJGRMHOSHXDMSA-UHFFFAOYSA-N
Adsorbate Methane: InChIKey VNWKTOKETHGBQD-UHFFFAOYSA-N
Kind: experiment
Temperature: 303 K
Tabular data in the source: 0
pressure (bar)	Nitrogen fraction	Nitrogen uptake (mmol/g)	Methane fraction	Methane uptake (mmol/g)	total uptake (mmol/g)
1.01325	1	0.0782	0	0	
1.01325	0.9782	0.0735	0.0218	0.00611	
1.01325	0.9497	0.0674	0.0503	0.0107	
1.01325	0.9245	0.0635	0.0755	0.0183	
1.01325	0.898	0.0582	0.102	0.0237	
1.01325	0.849	0.0489	0.151	0.0344	
1.01325	0.8	0.0405	0.2	0.0451	
1.01325	0.701	0.0304	0.299	0.0672	
1.01325	0.599	0.0227	0.401	0.0886	
1.01325	0.498	0.0172	0.502	0.111	
1.01325	0.398	0.0141	0.602	0.137	
1.01325	0.299	0.0133	0.701	0.165	
1.01325	0.198	0.00782	0.802	0.199	
1.01325	0.097	0.00467	0.903	0.238	
1.01325	0	0	1	0.282	
