Adsorption isotherm of Nitrogen on Cs+ Clinoptilolite
DOI: 10.1007/s10450-018-0001-z
Article source: Figure 5
Adsorbate Nitrogen: InChIKey IJGRMHOSHXDMSA-UHFFFAOYSA-N
Kind: experiment
Temperature: 303 K
Tabular data in the source: 0
pressure (bar)	uptake (mmol/g)
0	0
0.273417	0.026194
0.514667	0.046225
0.691583	0.058552
1.07758	0.083205
1.33492	0.093991
1.96217	0.123267
2.58942	0.149461
3.26492	0.172573
5.19492	0.220339
7.75217	0.263482
