Adsorption isotherm of Nitrogen, Methane on Fe3+ Clinoptilolite
DOI: 10.1007/s10450-018-0001-z
Article source: Figure 8
Adsorbate Nitrogen: InChIKey IJGRMHOSHXDMSA-UHFFFAOYSA-N
Adsorbate Methane: InChIKey VNWKTOKETHGBQD-UHFFFAOYSA-N
Kind: experiment
Temperature: 303 K
Tabular data in the source: 0
pressure (bar)	Nitrogen fraction	Nitrogen uptake (mmol/g)	Methane fraction	Methane uptake (mmol/g)	total uptake (mmol/g)
1.01325	1	0.212186	0	0	
1.01325	0.976821	0.197849	0.023179	0.022939	
1.01325	0.953642	0.183513	0.046358	0.045878	
1.01325	0.923841	0.172043	0.076159	0.06595	
1.01325	0.900662	0.160573	0.099338	0.083154	
1.01325	0.850993	0.137634	0.149007	0.117563	
1.01325	0.801325	0.12043	0.198675	0.149104	
1.01325	0.698675	0.086022	0.301325	0.203584	
1.01325	0.599338	0.063082	0.400662	0.25233	
1.01325	0.5	0.043011	0.5	0.301075	
1.01325	0.400662	0.031541	0.599338	0.346953	
1.01325	0.298013	0.022939	0.701987	0.398566	
1.01325	0.198675	0.014337	0.801325	0.458781	
1.01325	0.099338	0.008602	0.900662	0.533333	
1.01325	0	0	1	0.62509	
