Adsorption isotherm of Nitrogen, Methane on Fe3+ Clinoptilolite
DOI: 10.1007/s10450-018-0001-z
Article source: Figure 8
Adsorbate Nitrogen: InChIKey IJGRMHOSHXDMSA-UHFFFAOYSA-N
Adsorbate Methane: InChIKey VNWKTOKETHGBQD-UHFFFAOYSA-N
Kind: experiment
Temperature: 288 K
Tabular data in the source: 0
pressure (bar)	Nitrogen fraction	Nitrogen uptake (mmol/g)	Methane fraction	Methane uptake (mmol/g)	total uptake (mmol/g)
1.01325	1	0.26	0	0	
1.01325	0.973597	0.24	0.026403	0.025714	
1.01325	0.950495	0.22	0.049505	0.048571	
1.01325	0.924092	0.205714	0.075908	0.074286	
1.01325	0.89769	0.188571	0.10231	0.097143	
1.01325	0.848185	0.16	0.151815	0.137143	
1.01325	0.79868	0.137143	0.20132	0.177143	
1.01325	0.69967	0.097143	0.30033	0.251429	
1.01325	0.59736	0.071429	0.40264	0.322857	
1.01325	0.49835	0.051429	0.50165	0.388571	
1.01325	0.39934	0.04	0.60066	0.457143	
1.01325	0.30033	0.031429	0.69967	0.528571	
1.01325	0.19802	0.022857	0.80198	0.605714	
1.01325	0.09901	0.011429	0.90099	0.691429	
1.01325	0	0	1	0.788571	
