Adsorption isotherm of Nitrogen, Methane on Fe3+ Clinoptilolite
DOI: 10.1007/s10450-018-0001-z
Article source: Figure 8
Adsorbate Nitrogen: InChIKey IJGRMHOSHXDMSA-UHFFFAOYSA-N
Adsorbate Methane: InChIKey VNWKTOKETHGBQD-UHFFFAOYSA-N
Kind: experiment
Temperature: 303 K
Tabular data in the source: 0
pressure (bar)	Nitrogen fraction	Nitrogen uptake (mmol/g)	Methane fraction	Methane uptake (mmol/g)	total uptake (mmol/g)
1.01325	1	0.209	0	0	
1.01325	0.9746	0.197	0.0254	0.0236	
1.01325	0.9508	0.183	0.0492	0.0398	
1.01325	0.9254	0.171	0.0746	0.0619	
1.01325	0.9	0.159	0.1	0.081	
1.01325	0.849	0.137	0.151	0.115	
1.01325	0.8	0.121	0.2	0.146	
1.01325	0.698	0.0869	0.302	0.203	
1.01325	0.598	0.0634	0.402	0.252	
1.01325	0.5	0.0457	0.5	0.299	
1.01325	0.4	0.0309	0.6	0.348	
1.01325	0.302	0.0221	0.698	0.396	
1.01325	0.202	0.0147	0.798	0.46	
1.01325	0.1	0.00589	0.9	0.53	
1.01325	0	0	1	0.619	
