Adsorption isotherm of Nitrogen, Methane on Clinoptilolite
DOI: 10.1007/s10450-018-0001-z
Article source: Figure 8
Adsorbate Nitrogen: InChIKey IJGRMHOSHXDMSA-UHFFFAOYSA-N
Adsorbate Methane: InChIKey VNWKTOKETHGBQD-UHFFFAOYSA-N
Kind: experiment
Temperature: 307 K
Tabular data in the source: 0
pressure (bar)	Nitrogen fraction	Nitrogen uptake (mmol/g)	Methane fraction	Methane uptake (mmol/g)	total uptake (mmol/g)
1.01325	1	0.421399	0	0	
1.01325	0.976879	0.40823	0.023121	0.013169	
1.01325	0.953757	0.39177	0.046243	0.026337	
1.01325	0.924855	0.378601	0.075145	0.039506	
1.01325	0.901734	0.365432	0.098266	0.052675	
1.01325	0.849711	0.339095	0.150289	0.072428	
1.01325	0.800578	0.312757	0.199422	0.092181	
1.01325	0.702312	0.260082	0.297688	0.125103	
1.01325	0.601156	0.213992	0.398844	0.154733	
1.01325	0.5	0.167901	0.5	0.184362	
1.01325	0.401734	0.128395	0.598266	0.220576	
1.01325	0.300578	0.088889	0.699422	0.263374	
1.01325	0.202312	0.055967	0.797688	0.325926	
1.01325	0.101156	0.023045	0.898844	0.404938	
1.01325	0	0	1	0.506996	
