Adsorption isotherm of Nitrogen, Methane on Cs+ Clinoptilolite
DOI: 10.1007/s10450-018-0001-z
Article source: Figure 8
Adsorbate Nitrogen: InChIKey IJGRMHOSHXDMSA-UHFFFAOYSA-N
Adsorbate Methane: InChIKey VNWKTOKETHGBQD-UHFFFAOYSA-N
Kind: experiment
Temperature: 303 K
Tabular data in the source: 0
pressure (bar)	Nitrogen fraction	Nitrogen uptake (mmol/g)	Methane fraction	Methane uptake (mmol/g)	total uptake (mmol/g)
1.01325	1	0.079104	0	0	
1.01325	0.977124	0.073134	0.022876	0.00597	
1.01325	0.95098	0.067164	0.04902	0.013433	
1.01325	0.924837	0.061194	0.075163	0.01791	
1.01325	0.901961	0.056716	0.098039	0.023881	
1.01325	0.852941	0.049254	0.147059	0.035821	
1.01325	0.803922	0.041791	0.196078	0.046269	
1.01325	0.702614	0.031343	0.297386	0.067164	
1.01325	0.601307	0.023881	0.398693	0.089552	
1.01325	0.5	0.01791	0.5	0.11194	
1.01325	0.401961	0.014925	0.598039	0.137313	
1.01325	0.300654	0.013433	0.699346	0.165672	
1.01325	0.199346	0.008955	0.800654	0.198507	
1.01325	0.101307	0.00597	0.898693	0.237313	
1.01325	0	0	1	0.28209	
