Adsorption isotherm of Nitrogen on Clinoptilolite
DOI: 10.1007/s10450-018-0001-z
Article source: Figure 4
Adsorbate Nitrogen: InChIKey IJGRMHOSHXDMSA-UHFFFAOYSA-N
Kind: experiment
Temperature: 303 K
Tabular data in the source: 0
pressure (bar)	uptake (mmol/g)
0.508652	0.277
0.956508	0.42
1.95557	0.603
2.75604	0.702
3.91114	0.792
5.84645	0.899
7.77163	0.97
10.3351	1.04
