Adsorption isotherm of Nitrogen, Methane on Fe3+ Clinoptilolite
DOI: 10.1007/s10450-018-0001-z
Article source: Figure 8
Adsorbate Nitrogen: InChIKey IJGRMHOSHXDMSA-UHFFFAOYSA-N
Adsorbate Methane: InChIKey VNWKTOKETHGBQD-UHFFFAOYSA-N
Kind: experiment
Temperature: 288 K
Tabular data in the source: 0
pressure (bar)	Nitrogen fraction	Nitrogen uptake (mmol/g)	Methane fraction	Methane uptake (mmol/g)	total uptake (mmol/g)
1.01325	1	0.257	0	0	
1.01325	0.9762	0.239	0.0238	0.025	
1.01325	0.9508	0.222	0.0492	0.047	
1.01325	0.9253	0.206	0.0747	0.0719	
1.01325	0.9015	0.189	0.0985	0.0939	
1.01325	0.851	0.16	0.149	0.137	
1.01325	0.8	0.137	0.2	0.176	
1.01325	0.698	0.0983	0.302	0.251	
1.01325	0.601	0.069	0.399	0.32	
1.01325	0.503	0.0514	0.497	0.389	
1.01325	0.399	0.0367	0.601	0.457	
1.01325	0.301	0.0323	0.699	0.527	
1.01325	0.2	0.022	0.8	0.605	
1.01325	0.098	0.0117	0.902	0.691	
1.01325	0	0	1	0.788	
