Adsorption isotherm of Methane on Clinoptilolite
DOI: 10.1007/s10450-018-0001-z
Article source: Figure 4
Adsorbate Methane: InChIKey VNWKTOKETHGBQD-UHFFFAOYSA-N
Kind: experiment
Temperature: 303 K
Tabular data in the source: 0
pressure (bar)	uptake (mmol/g)
0	0
0.520046	0.312354
0.989764	0.498834
1.96275	0.736597
2.76798	0.843823
4.07649	0.965035
5.82116	1.05128
7.80068	1.1352
10.3674	1.18182
