Adsorption isotherm of Nitrogen, Methane on Cs+ Clinoptilolite
DOI: 10.1007/s10450-018-0001-z
Article source: Figure 8
Adsorbate Nitrogen: InChIKey IJGRMHOSHXDMSA-UHFFFAOYSA-N
Adsorbate Methane: InChIKey VNWKTOKETHGBQD-UHFFFAOYSA-N
Kind: experiment
Temperature: 288 K
Tabular data in the source: 0
pressure (bar)	Nitrogen fraction	Nitrogen uptake (mmol/g)	Methane fraction	Methane uptake (mmol/g)	total uptake (mmol/g)
1.01325	1	0.108571	0	0	
1.01325	0.98	0.1	0.022727	0.007143	
1.01325	0.95	0.091429	0.048701	0.012857	
1.01325	0.93	0.082857	0.074675	0.02	
1.01325	0.9	0.077143	0.100649	0.025714	
1.01325	0.85	0.062857	0.149351	0.038571	
1.01325	0.8	0.052857	0.201299	0.048571	
1.01325	0.7	0.035714	0.301948	0.07	
1.01325	0.6	0.025714	0.399351	0.091429	
1.01325	0.5	0.02	0.5	0.114286	
1.01325	0.4	0.017143	0.600649	0.142857	
1.01325	0.3	0.014286	0.698052	0.178571	
1.01325	0.2	0.011429	0.801948	0.221429	
1.01325	0.1	0.007143	0.899351	0.275714	
1.01325	0	0	1	0.344286	
