Adsorption isotherm of Nitrogen on Fe3+ Clinoptilolite
DOI: 10.1007/s10450-018-0001-z
Article source: Figure 5
Adsorbate Nitrogen: InChIKey IJGRMHOSHXDMSA-UHFFFAOYSA-N
Kind: experiment
Temperature: 288 K
Tabular data in the source: 0
pressure (bar)	uptake (mmol/g)
0	0
0.273851	0.096916
0.483267	0.15859
0.676574	0.187959
1.0793	0.273128
1.28871	0.305433
1.93307	0.399413
2.60964	0.487518
3.27011	0.555066
5.20318	0.704846
7.73227	0.845815
10.3258	0.942731
