Adsorption isotherm of Nitrogen, Methane on Cs+ Clinoptilolite
DOI: 10.1007/s10450-018-0001-z
Article source: Figure 8
Adsorbate Nitrogen: InChIKey IJGRMHOSHXDMSA-UHFFFAOYSA-N
Adsorbate Methane: InChIKey VNWKTOKETHGBQD-UHFFFAOYSA-N
Kind: experiment
Temperature: 288 K
Tabular data in the source: 0
pressure (bar)	Nitrogen fraction	Nitrogen uptake (mmol/g)	Methane fraction	Methane uptake (mmol/g)	total uptake (mmol/g)
1.01325	1	0.111	0	0	
1.01325	0.9766	0.101	0.0234	0.00812	
1.01325	0.9515	0.093	0.0485	0.014	
1.01325	0.9264	0.0849	0.0736	0.0207	
1.01325	0.9013	0.0768	0.0987	0.0273	
1.01325	0.851	0.0642	0.149	0.0391	
1.01325	0.801	0.0524	0.199	0.0502	
1.01325	0.702	0.0369	0.298	0.0701	
1.01325	0.599	0.028	0.401	0.0923	
1.01325	0.498	0.0199	0.502	0.115	
1.01325	0.401	0.0177	0.599	0.144	
1.01325	0.301	0.0148	0.699	0.179	
1.01325	0.199	0.0118	0.801	0.223	
1.01325	0.1	0.00738	0.9	0.277	
1.01325	0	0	1	0.345	
