Adsorption isotherm of Nitrogen on Cs+ Clinoptilolite
DOI: 10.1007/s10450-018-0001-z
Article source: Figure 5
Adsorbate Nitrogen: InChIKey IJGRMHOSHXDMSA-UHFFFAOYSA-N
Kind: experiment
Temperature: 303 K
Tabular data in the source: 0
pressure (bar)	uptake (mmol/g)
0.265472	0.0247
0.495479	0.0433
0.662666	0.0553
1.06391	0.0813
1.31722	0.0933
1.94544	0.122
2.57365	0.148
3.25253	0.171
5.18784	0.22
7.75136	0.263
