Adsorption isotherm of Methane on Cs+ Clinoptilolite
DOI: 10.1007/s10450-018-0001-z
Article source: Figure 5
Adsorbate Methane: InChIKey VNWKTOKETHGBQD-UHFFFAOYSA-N
Kind: experiment
Temperature: 288 K
Tabular data in the source: 0
pressure (bar)	uptake (mmol/g)
0	0
0.24125	0.16641
0.466417	0.24037
0.772	0.305085
1.351	0.377504
1.94608	0.423729
2.58942	0.457627
3.87608	0.505393
5.85433	0.5547
7.78433	0.585516
10.3577	0.616333
