Adsorption isotherm of Methane on Clinoptilolite
DOI: 10.1007/s10450-018-0001-z
Article source: Figure 4
Adsorbate Methane: InChIKey VNWKTOKETHGBQD-UHFFFAOYSA-N
Kind: experiment
Temperature: 303 K
Tabular data in the source: 0
pressure (bar)	uptake (mmol/g)
0.515744	0.311
1.00413	0.496
1.96571	0.737
2.74591	0.845
4.07327	0.966
5.81605	1.05
7.80202	1.14
10.3351	1.18
