Adsorption isotherm of Nitrogen on Fe3+ Clinoptilolite
DOI: 10.1007/s10450-018-0001-z
Article source: Figure 5
Adsorbate Nitrogen: InChIKey IJGRMHOSHXDMSA-UHFFFAOYSA-N
Kind: experiment
Temperature: 288 K
Tabular data in the source: 0
pressure (bar)	uptake (mmol/g)
0.258379	0.0926
0.495479	0.155
0.666718	0.19
1.06391	0.269
1.31722	0.308
1.92517	0.398
2.61419	0.481
3.26267	0.549
5.19797	0.7
7.7615	0.837
10.3351	0.936
