Adsorption isotherm of Nitrogen on Cs+ Clinoptilolite
DOI: 10.1007/s10450-018-0001-z
Article source: Figure 5
Adsorbate Nitrogen: InChIKey IJGRMHOSHXDMSA-UHFFFAOYSA-N
Kind: experiment
Temperature: 288 K
Tabular data in the source: 0
pressure (bar)	uptake (mmol/g)
0.265472	0.0373
0.495479	0.0653
0.655573	0.0813
1.06391	0.114
1.31722	0.13
1.93531	0.17
2.60405	0.202
3.25253	0.228
5.18784	0.287
7.75136	0.337
