Adsorption isotherm of Methane on Fe3+ Clinoptilolite
DOI: 10.1007/s10450-018-0001-z
Article source: Figure 5
Adsorbate Methane: InChIKey VNWKTOKETHGBQD-UHFFFAOYSA-N
Kind: experiment
Temperature: 303 K
Tabular data in the source: 0
pressure (bar)	uptake (mmol/g)
0.460016	0.385
0.869368	0.575
1.31722	0.733
1.94544	0.866
3.87062	1.11
5.85659	1.25
7.78176	1.33
10.3351	1.41
