Adsorption isotherm of Nitrogen, Methane on Clinoptilolite
DOI: 10.1007/s10450-018-0001-z
Article source: Figure 8
Adsorbate Nitrogen: InChIKey IJGRMHOSHXDMSA-UHFFFAOYSA-N
Adsorbate Methane: InChIKey VNWKTOKETHGBQD-UHFFFAOYSA-N
Kind: experiment
Temperature: 303 K
Tabular data in the source: 0
pressure (bar)	Nitrogen fraction	Nitrogen uptake (mmol/g)	Methane fraction	Methane uptake (mmol/g)	total uptake (mmol/g)
1.01325	1	0.423	0	0	
1.01325	0.9747	0.408	0.0253	0.0152	
1.01325	0.9509	0.394	0.0491	0.0271	
1.01325	0.9256	0.381	0.0744	0.0406	
1.01325	0.9003	0.365	0.0997	0.0541	
1.01325	0.85	0.337	0.15	0.0727	
1.01325	0.799	0.311	0.201	0.0913	
1.01325	0.699	0.26	0.301	0.125	
1.01325	0.598	0.215	0.402	0.154	
1.01325	0.5	0.167	0.5	0.184	
1.01325	0.4	0.129	0.6	0.218	
1.01325	0.301	0.0913	0.699	0.266	
1.01325	0.201	0.0558	0.799	0.325	
1.01325	0.1	0.0237	0.9	0.403	
1.01325	0	0	1	0.506	
