Adsorption isotherm of Methane on Cs+ Clinoptilolite
DOI: 10.1007/s10450-018-0001-z
Article source: Figure 5
Adsorbate Methane: InChIKey VNWKTOKETHGBQD-UHFFFAOYSA-N
Kind: experiment
Temperature: 303 K
Tabular data in the source: 0
pressure (bar)	uptake (mmol/g)
0.265472	0.0934
0.467108	0.17
0.745752	0.238
1.32736	0.325
1.93531	0.378
2.58379	0.417
3.91114	0.473
5.84645	0.525
7.77163	0.562
10.3351	0.596
