Adsorption isotherm of Nitrogen on Fe3+ Clinoptilolite
DOI: 10.1007/s10450-018-0001-z
Article source: Figure 5
Adsorbate Nitrogen: InChIKey IJGRMHOSHXDMSA-UHFFFAOYSA-N
Kind: experiment
Temperature: 303 K
Tabular data in the source: 0
pressure (bar)	uptake (mmol/g)
0.114497	0.00389
0.48028	0.0873
1.30709	0.232
1.94544	0.318
2.58379	0.395
3.89088	0.52
5.81605	0.664
7.75136	0.772
10.3351	0.88
