Adsorption isotherm of Nitrogen on Cs+ Clinoptilolite
DOI: 10.1007/s10450-018-0001-z
Article source: Figure 5
Adsorbate Nitrogen: InChIKey IJGRMHOSHXDMSA-UHFFFAOYSA-N
Kind: experiment
Temperature: 288 K
Tabular data in the source: 0
pressure (bar)	uptake (mmol/g)
0	0
0.273417	0.035439
0.498583	0.061633
0.659417	0.083205
1.07758	0.117103
1.33492	0.12943
1.94608	0.169492
2.62158	0.206471
3.24883	0.228043
5.19492	0.285054
7.75217	0.337442
