Adsorption isotherm of Methane on Cs+ Clinoptilolite
DOI: 10.1007/s10450-018-0001-z
Article source: Figure 5
Adsorbate Methane: InChIKey VNWKTOKETHGBQD-UHFFFAOYSA-N
Kind: experiment
Temperature: 288 K
Tabular data in the source: 0
pressure (bar)	uptake (mmol/g)
0.265472	0.167
0.474201	0.242
0.752845	0.304
1.34762	0.375
1.94544	0.42
2.59392	0.456
3.86048	0.504
5.84645	0.551
7.77163	0.583
10.3351	0.614
