Adsorption isotherm of Methane on Fe3+ Clinoptilolite
DOI: 10.1007/s10450-018-0001-z
Article source: Figure 5
Adsorbate Methane: InChIKey VNWKTOKETHGBQD-UHFFFAOYSA-N
Kind: experiment
Temperature: 303 K
Tabular data in the source: 0
pressure (bar)	uptake (mmol/g)
0	0
0.483267	0.387665
0.869881	0.581498
1.35315	0.740088
1.9975	0.875184
3.86614	1.11894
5.86364	1.24816
7.7806	1.33627
10.358	1.41557
