Adsorption isotherm of Methane on Fe3+ Clinoptilolite
DOI: 10.1007/s10450-018-0001-z
Article source: Figure 5
Adsorbate Methane: InChIKey VNWKTOKETHGBQD-UHFFFAOYSA-N
Kind: experiment
Temperature: 288 K
Tabular data in the source: 0
pressure (bar)	uptake (mmol/g)
0.252299	0.367
0.461029	0.534
0.747779	0.692
1.29696	0.891
1.96571	1.03
2.58379	1.12
3.94154	1.25
5.86672	1.36
7.81216	1.44
10.3351	1.5
