Adsorption isotherm of Methane on Fe3+ Clinoptilolite
DOI: 10.1007/s10450-018-0001-z
Article source: Figure 5
Adsorbate Methane: InChIKey VNWKTOKETHGBQD-UHFFFAOYSA-N
Kind: experiment
Temperature: 288 K
Tabular data in the source: 0
pressure (bar)	uptake (mmol/g)
0	0
0.225525	0.370044
0.451049	0.540382
0.74101	0.696035
1.30482	0.895742
1.96529	1.03671
2.57742	1.13069
3.94668	1.25698
5.86364	1.36858
7.79671	1.43906
10.3419	1.50367
