Adsorption isotherm of Methane on Cs+ Clinoptilolite
DOI: 10.1007/s10450-018-0001-z
Article source: Figure 5
Adsorbate Methane: InChIKey VNWKTOKETHGBQD-UHFFFAOYSA-N
Kind: experiment
Temperature: 303 K
Tabular data in the source: 0
pressure (bar)	uptake (mmol/g)
0	0
0.273417	0.095532
0.4825	0.171032
0.772	0.238829
1.351	0.325116
1.94608	0.379045
2.58942	0.420647
3.92433	0.476117
5.85433	0.528505
7.76825	0.563945
10.3416	0.597843
