Adsorption isotherm of Nitrogen on Fe3+ Clinoptilolite
DOI: 10.1007/s10450-018-0001-z
Article source: Figure 5
Adsorbate Nitrogen: InChIKey IJGRMHOSHXDMSA-UHFFFAOYSA-N
Kind: experiment
Temperature: 303 K
Tabular data in the source: 0
pressure (bar)	uptake (mmol/g)
0	0
0.128871	0.011747
0.483267	0.093979
1.28871	0.234949
1.96529	0.323054
2.60964	0.399413
3.89836	0.531571
5.81531	0.669604
7.73227	0.77533
10.3258	0.883994
