Adsorption isotherm of Carbon Dioxide on CuBTC
DOI: 10.1002/cssc.201100716
Adsorbate Carbon Dioxide: InChIKey CURLTUGMZLYLDI-UHFFFAOYSA-N
Temperature: 303 K
Tabular data in the source: 0
pressure (bar)	uptake (mol/m3)
0.474938	1761.24
0.760967	1950.02
1.16141	2138.8
2.87758	2567.84
3.90728	2928.24
4.73676	3391.6
5.30882	3889.29
5.79507	4730.22
6.1097	5021.97
6.93918	6171.8
7.88308	6823.95
9.82807	7373.12
12.0019	7767.84
