Adsorption isotherm of Carbon Dioxide on Carbon
DOI: 10.1002/cssc.201100716
Adsorbate Carbon Dioxide: InChIKey CURLTUGMZLYLDI-UHFFFAOYSA-N
Temperature: 303 K
Tabular data in the source: 0
pressure (bar)	uptake (mol/m3)
0.103101	72.2291
0.360526	266.729
0.989789	541.316
1.44744	718.654
1.99089	844.506
2.96339	1044.73
3.99309	1216.34
5.96669	1479.49
8.02609	1679.71
9.97109	1845.61
12.0591	1994.34
14.0041	2108.75
16.0349	2223.16
18.0371	2320.41
19.9821	2406.22
