Adsorption isotherm of Carbon Dioxide on MIL-47(V)
DOI: 10.1002/cssc.201100716
Adsorbate Carbon Dioxide: InChIKey CURLTUGMZLYLDI-UHFFFAOYSA-N
Temperature: 303 K
Tabular data in the source: 0
pressure (bar)	uptake (mol/m3)
0.337723	400.061
0.647582	676.117
1.09829	946.54
1.49265	1177.53
2.05603	1385.98
3.07012	1724
4.02786	1966.26
6.05603	2354.99
8.05603	2647.95
10.1124	2873.3
12.056	3064.85
13.9997	3245.13
16.0279	3380.34
18.1124	3526.82
18.9856	3588.79
19.9715	3633.86
