Adsorption isotherm of Carbon Dioxide on MIL-100(Cr)
DOI: 10.1002/cssc.201100716
Adsorbate Carbon Dioxide: InChIKey CURLTUGMZLYLDI-UHFFFAOYSA-N
Temperature: 303 K
Tabular data in the source: 0
pressure (bar)	uptake (mol/m3)
0.14054	264.85
0.478568	478.934
1.04195	749.357
1.57716	924.005
1.9997	1064.85
3.07012	1335.27
5.01378	1735.27
7.01378	2045.13
9.01378	2315.55
10.9856	2552.17
13.0138	2754.99
14.9574	2935.27
17.0138	3121.19
18.9856	3262.03
19.9997	3335.27
