Adsorption isotherm of Carbon Dioxide on MIL-100(Cr)
DOI: 10.1002/cssc.201100716
Adsorbate Carbon Dioxide: InChIKey CURLTUGMZLYLDI-UHFFFAOYSA-N
Temperature: 303 K
Tabular data in the source: 0
pressure (bar)	uptake (mol/m3)
0.389129	817.347
0.532144	1555.3
0.932584	2842.43
1.44744	4301.18
2.0481	5348.04
2.87758	6652.33
3.87868	7596.23
4.87978	8317.02
6.39573	9072.13
7.94028	9621.31
9.97109	10101.8
14.8336	10822.6
19.9535	11303.2
