Adsorption isotherm of Carbon Dioxide on MIL-140(Zr)-A
DOI: 10.1002/cssc.201100716
Adsorbate Carbon Dioxide: InChIKey CURLTUGMZLYLDI-UHFFFAOYSA-N
Temperature: 303 K
Tabular data in the source: 0
pressure (bar)	uptake (mol/m3)
0.589349	542.76
0.703761	817.347
1.99089	1829.89
4.0789	2790.94
5.1086	3151.34
6.96779	3649.03
10.0569	4284.01
15.0624	5039.13
