Adsorption isotherm of Carbon Dioxide on MIL-100(Cr)
DOI: 10.1002/cssc.201100716
Adsorbate Carbon Dioxide: InChIKey CURLTUGMZLYLDI-UHFFFAOYSA-N
Temperature: 303 K
Tabular data in the source: 0
pressure (bar)	uptake (mol/m3)
0.0744979	62.232
0.103101	1006.13
0.474938	1795.57
0.789569	2224.61
1.96229	3185.66
3.27802	4078.07
4.56515	4850.35
5.76647	5502.5
6.79617	6068.83
8.59815	6926.92
10.3429	7750.68
11.5728	8179.72
12.5739	8591.6
14.5189	9260.91
16.9502	10119
18.5805	10651
19.41	10839.8
