Adsorption isotherm of Carbon Dioxide on Zeolite 13X
DOI: 10.1002/cssc.201100716
Adsorbate Carbon Dioxide: InChIKey CURLTUGMZLYLDI-UHFFFAOYSA-N
Temperature: 303 K
Tabular data in the source: 0
pressure (bar)	uptake (mol/m3)
0.0744979	1847.05
0.160306	3872.13
0.217512	5382.36
0.274718	6463.55
0.446335	7424.61
0.818172	8265.53
1.21861	8677.41
2.1053	9278.07
4.1075	9947.38
6.1097	10256.3
9.17021	10616.7
12.2021	10857
