Adsorption isotherm of Carbon Dioxide on Carbon
DOI: 10.1002/cssc.201100716
Adsorbate Carbon Dioxide: InChIKey CURLTUGMZLYLDI-UHFFFAOYSA-N
Temperature: 303 K
Tabular data in the source: 0
pressure (bar)	uptake (mol/m3)
0.246115	10.7468
0.703761	577.083
1.1042	1109.1
1.99089	1658.27
3.87868	2533.52
5.76647	3151.34
7.88308	3717.68
9.79947	4146.72
14.8622	4987.64
19.8677	5571.14
