Adsorption isotherm of Carbon Dioxide on CuBTC
DOI: 10.1002/cssc.201100716
Adsorbate Carbon Dioxide: InChIKey CURLTUGMZLYLDI-UHFFFAOYSA-N
Temperature: 303 K
Tabular data in the source: 0
pressure (bar)	uptake (mol/m3)
0.168709	78.9342
0.394061	270.484
1.04195	546.54
1.57716	715.554
2.02786	839.498
3.04195	1053.58
5.07012	1374.71
7.07012	1594.43
9.07012	1769.08
10.9856	1915.55
13.1265	2056.4
15.0419	2163.44
17.0138	2276.12
19.0983	2377.53
20.0279	2405.69
