Adsorption isotherm of Carbon Dioxide on Zeolite 13X
DOI: 10.1002/cssc.201100716
Adsorbate Carbon Dioxide: InChIKey CURLTUGMZLYLDI-UHFFFAOYSA-N
Temperature: 303 K
Tabular data in the source: 0
pressure (bar)	uptake (mol/m3)
0.14054	980.343
0.253216	1205.69
0.450399	1453.58
0.760258	1690.2
1.04195	1842.31
1.74617	2101.47
3.04195	2371.89
4.98561	2625.41
7.09829	2816.96
9.01378	2957.81
10.9856	3070.48
13.0419	3154.99
15.0419	3250.77
17.0138	3329.64
18.9856	3402.88
19.9434	3419.78
