Adsorption isotherm of Carbon Dioxide on MIL-47(V)
DOI: 10.1002/cssc.201100716
Adsorbate Carbon Dioxide: InChIKey CURLTUGMZLYLDI-UHFFFAOYSA-N
Temperature: 303 K
Tabular data in the source: 0
pressure (bar)	uptake (mol/m3)
0.932584	1126.26
1.33302	1572.46
1.90508	2173.12
2.93478	3391.6
5.02279	4644.41
7.91168	5622.63
9.94248	6000.19
14.948	6618.01
19.8677	6995.57
