Adsorption isotherm of Argon on Pitch Based Activated Carbon Fiber P15
DOI: 10.1021/la991011c
Article source: Figure 7c
Adsorbate Argon: InChIKey XKRFYHLGVUSROY-UHFFFAOYSA-N
Kind: experiment
Temperature: 77 K
Tabular data in the source: 0
pressure (bar)	uptake (mmol/g)
1e-06	0.087719
2e-06	0.263158
2e-06	0.482456
2e-06	0.526316
3e-06	0.614035
4e-06	0.789474
4e-06	0.921053
6e-06	1.09649
9e-06	1.44737
1.1e-05	1.79825
1.3e-05	1.97368
1.6e-05	2.41228
1.9e-05	2.54386
2.1e-05	2.76316
2.4e-05	2.98246
2.9e-05	3.33333
3.8e-05	3.85965
5.3e-05	4.34211
6.2e-05	4.82456
8.4e-05	5.4386
0.000114	6.14035
0.000142	6.75439
0.000171	7.14912
0.000199	7.63158
0.000236	7.9386
0.000265	8.20175
0.000294	8.50877
0.000359	8.90351
0.000448	9.42982
0.000596	10.0877
0.000682	10.3509
0.000909	10.9211
0.00119	11.4474
0.001507	11.886
0.001784	12.193
0.002076	12.4561
0.002416	12.6754
0.002719	12.9386
0.00306	13.1579
0.003683	13.5088
0.004664	13.9912
0.006212	14.5614
0.007605	15.0877
0.008853	15.6579
0.015978	17.4123
0.02165	18.5526
0.026962	19.386
0.031386	20
0.03415	20.3509
0.036537	20.7018
0.038436	20.9649
0.041121	21.2281
0.047869	21.886
0.05572	22.4123
0.062713	22.9825
0.07177	23.2895
0.078088	23.5526
0.08936	23.7281
0.102258	23.9035
0.109396	24.0789
0.117025	24.1667
0.136189	24.2982
0.158507	24.6053
0.184469	24.7807
0.211101	25
0.237546	25.2193
0.271842	25.4386
0.295784	25.7895
0.301067	27.3246
