Adsorption isotherm of Carbon Dioxide on T3A Carbon Molecular Sieve
DOI: 10.1021/la991011c
Article source: Figure 4c
Adsorbate Carbon Dioxide: InChIKey CURLTUGMZLYLDI-UHFFFAOYSA-N
Kind: experiment
Temperature: 273 K
Tabular data in the source: 0
pressure (bar)	uptake (mmol/g)
0.006736	1.45888
0.013862	2.51037
0.024185	4.13294
0.034498	5.02492
0.044771	6.08048
0.057425	7.2989
0.079092	9.00493
0.100254	10.2235
0.201875	14.6929
0.252925	16.237
0.295136	17.4562
0.406614	19.7319
0.503492	21.4388
0.601578	22.6579
0.701927	23.7144
0.809379	24.771
0.91126	25.4209
0.979179	27.2105
1.94833	31.5173
3.92197	35.4171
5.86807	37.2038
7.43916	38.6664
9.54226	39.9662
11.2648	40.7785
