Adsorption isotherm of Carbon Dioxide on Carbon B
DOI: 10.1021/la991011c
Article source: Figure 8c
Adsorbate Carbon Dioxide: InChIKey CURLTUGMZLYLDI-UHFFFAOYSA-N
Kind: experiment
Temperature: 273 K
Tabular data in the source: 0
pressure (bar)	uptake (mmol/g)
0.006864	0.034551
0.010334	0.070208
0.013743	0.106366
0.020689	0.179335
0.028912	0.17798
0.035255	0.289116
0.045737	0.400002
0.062354	0.473373
0.069714	0.472921
0.079899	0.621623
0.104948	0.732458
0.204971	1.21482
0.253053	1.43785
0.297305	1.66108
0.410367	1.99559
0.519352	2.33046
0.595226	2.66573
0.699298	2.92627
0.811469	3.14955
0.929998	3.41019
1.03978	3.5963
2.03073	5.45926
4.11639	7.24744
8.24133	9.07299
12.1029	10.1908
16.2965	11.0105
20.6244	11.6439
25.4626	12.4266
29.915	14.1797
31.0485	14.9631
