Adsorption isotherm of Nitrogen on Pitch Based Activated Carbon Fiber P10
DOI: 10.1021/la991011c
Article source: Figure 6c
Adsorbate Nitrogen: InChIKey IJGRMHOSHXDMSA-UHFFFAOYSA-N
Kind: experiment
Temperature: 77 K
Tabular data in the source: 0
pressure (bar)	uptake (mmol/g)
1e-06	0.026887
1e-06	0.304146
2e-06	0.612959
2e-06	0.674579
2e-06	0.828834
2e-06	1.07592
3e-06	1.29204
3e-06	1.50815
4e-06	1.94027
5e-06	2.31077
6e-06	2.71232
8e-06	2.9283
8e-06	3.021
9e-06	3.26799
1.2e-05	3.63839
1.5e-05	3.97804
2e-05	4.44118
2.3e-05	4.56452
3e-05	4.93499
4e-05	5.36721
5.2e-05	5.70673
6.2e-05	5.92278
7.3e-05	6.13886
8.1e-05	6.38595
9.5e-05	6.50929
0.000121	6.7252
0.000148	7.00303
0.000199	7.40431
0.00023	7.46586
0.000294	7.74359
0.000404	8.0521
0.000491	8.2372
0.000629	8.45311
0.000725	8.51466
0.000835	8.69986
0.000962	8.76142
0.001088	8.823
0.001254	9.0082
0.001577	9.16232
0.002093	9.4709
0.00241	9.50154
0.003198	9.74829
0.004318	9.9641
0.005338	10.0873
0.006149	10.2416
0.007469	10.3958
0.00816	10.5502
0.009565	10.6117
0.011213	10.6732
0.021961	11.4757
0.026671	11.5989
0.031836	11.8459
0.038663	11.9692
0.041499	12.0618
0.050408	12.2469
0.063432	12.4628
0.073085	12.6789
0.0872	12.7713
0.093604	12.8948
0.105946	13.0492
0.11574	13.1417
0.138128	13.3269
0.170779	13.5428
0.203864	13.8207
0.247789	14.2531
0.301031	14.5
0.334929	14.8398
0.372493	15.0251
0.429316	15.3649
0.469234	15.6429
0.512906	15.9518
0.550797	16.2299
0.570849	16.4153
0.591633	16.6007
0.613122	16.7552
0.670131	17.0333
0.694699	17.3114
0.74608	17.6204
0.787065	17.8367
0.815786	18.053
0.845417	18.2075
0.876698	18.6092
0.90869	18.8256
0.941618	18.9491
0.97582	19.1036
0.99383	19.3509
1.03035	19.6599
