Adsorption isotherm of Nitrogen on Pitch Based Activated Carbon Fiber P15
DOI: 10.1021/la991011c
Article source: Figure 7c
Adsorbate Nitrogen: InChIKey IJGRMHOSHXDMSA-UHFFFAOYSA-N
Kind: experiment
Temperature: 77 K
Tabular data in the source: 0
pressure (bar)	uptake (mmol/g)
1e-06	0.04386
1e-06	0.087719
2e-06	0.307018
2e-06	0.350877
2e-06	0.394737
3e-06	0.482456
3e-06	0.570175
4e-06	0.789474
5e-06	1.09649
6e-06	1.27193
6e-06	1.40351
8e-06	1.75439
9e-06	1.97368
1e-05	2.0614
1.2e-05	2.2807
1.5e-05	2.63158
2e-05	3.02632
2.3e-05	3.15789
3.1e-05	3.59649
4e-05	4.07895
5e-05	4.38596
6.1e-05	4.64912
7.1e-05	4.86842
8.6e-05	5.13158
0.000101	5.57018
0.000118	5.78947
0.000149	6.18421
0.000199	6.71053
0.000232	6.92982
0.000314	7.36842
0.000411	7.76316
0.000503	7.9386
0.000637	8.33333
0.000705	8.59649
0.000806	8.68421
0.000954	8.99123
0.001038	9.16667
0.00125	9.25439
0.001556	9.5614
0.002179	9.95614
0.002452	10.1316
0.003053	10.3947
0.004205	10.7018
0.005062	10.9649
0.006302	11.1842
0.007334	11.4912
0.008681	11.6667
0.010274	11.886
0.020508	13.0263
0.025967	13.4211
0.03179	13.7719
0.036382	14.1228
0.041637	14.4298
0.050124	14.8684
0.059334	15.3509
0.073882	15.9211
0.083141	16.2719
0.093561	16.5789
0.105292	16.9737
0.112652	17.3246
0.137934	17.9825
0.163297	18.6404
0.186906	19.1667
0.213923	19.6491
0.248985	20
0.2709	20.2632
0.28983	20.5702
0.337325	20.8772
0.386065	21.2719
0.406093	21.3596
0.488833	21.6667
0.523002	22.0175
0.578731	22.3684
0.608828	22.6754
0.662417	22.9386
0.720742	23.2456
0.784219	23.5965
0.86776	23.9035
0.897664	24.2544
0.944396	24.6491
1.02755	24.9561
