Adsorption isotherm of Argon on Pitch Based Activated Carbon Fiber P10
DOI: 10.1021/la991011c
Article source: Figure 6c
Adsorbate Argon: InChIKey XKRFYHLGVUSROY-UHFFFAOYSA-N
Kind: experiment
Temperature: 77 K
Tabular data in the source: 0
pressure (bar)	uptake (mmol/g)
1e-06	0.426914
1e-06	0.70468
1e-06	0.766131
1e-06	1.01332
1e-06	1.04393
2e-06	1.19808
2e-06	1.35227
2e-06	1.5373
3e-06	1.93848
4e-06	2.24732
5e-06	2.58678
7e-06	3.14255
1e-05	3.29653
1.1e-05	3.94537
1.4e-05	4.16138
1.7e-05	4.47016
1.8e-05	4.71725
2.1e-05	4.84063
2.6e-05	5.33481
3.5e-05	5.79795
4.8e-05	6.32284
5.6e-05	6.53892
7.2e-05	7.03303
9.9e-05	7.52701
0.000122	7.95937
0.000151	8.26808
0.000177	8.54598
0.000204	8.70027
0.000231	8.91641
0.000262	8.978
0.000318	9.31766
0.000394	9.53364
0.000532	9.96582
0.000602	10.1201
0.000827	10.4287
0.001079	10.7991
0.001358	11.0769
0.001592	11.262
0.0019	11.3853
0.002189	11.6014
0.002477	11.7558
0.00266	11.9102
0.003231	12.0953
0.003925	12.3731
0.005492	12.7125
0.006672	12.9594
0.008106	13.2063
0.017964	14.0394
0.023834	14.2553
0.026976	14.4096
0.031071	14.5021
0.034544	14.5637
0.039089	14.6253
0.045026	14.7487
0.051865	14.872
0.059738	14.9645
0.0688	15.0261
0.073841	15.0877
0.086584	15.2729
0.105171	15.458
0.114884	15.5197
0.127726	15.5813
0.142028	15.7047
0.157944	15.8591
0.175615	15.9516
0.191865	16.0751
0.205955	16.1986
0.224995	16.2912
0.254826	16.6928
0.259912	17.4965
0.261682	20.0621
