Adsorption isotherm of Carbon Dioxide on Pitch Based Activated Carbon Fiber P10
DOI: 10.1021/la991011c
Article source: Figure 6c
Adsorbate Carbon Dioxide: InChIKey CURLTUGMZLYLDI-UHFFFAOYSA-N
Kind: experiment
Temperature: 273 K
Tabular data in the source: 0
pressure (bar)	uptake (mmol/g)
0.000598	-0.009876
0.000752	-0.010315
0.000946	-0.041667
0.001233	-0.011262
0.001634	-0.011803
0.00213	0.049513
0.002496	0.018297
0.003309	0.048667
0.004312	0.04816
0.005423	0.109544
0.006469	0.109206
0.007993	0.077888
0.00873	0.077719
0.009879	0.139306
0.021853	0.292343
0.025168	0.353896
0.028478	0.384571
0.032795	0.415212
0.037776	0.538588
0.043506	0.600141
0.051905	0.661626
0.059779	0.723179
0.072601	0.846454
0.085102	0.907973
0.09297	1.00054
0.105192	1.03121
0.116969	1.15466
0.137146	1.30891
0.169536	1.46307
0.188552	1.64833
0.217171	1.7408
0.23727	1.86428
0.278216	2.04944
0.303957	2.17292
0.326304	2.32734
0.350302	2.48177
0.369447	2.60531
0.403573	2.66697
0.418198	2.79055
0.440983	2.85227
0.465063	2.9449
0.508092	3.06838
0.545497	3.25371
0.606669	3.43898
0.639841	3.56253
0.674873	3.71699
0.724556	3.90232
0.791739	4.08762
0.865211	4.30383
0.945501	4.52005
1.0156	4.89085
