Adsorption isotherm of Argon on CFCMS Carbon Fiber
DOI: 10.1021/la991011c
Article source: Figure 5c
Adsorbate Argon: InChIKey XKRFYHLGVUSROY-UHFFFAOYSA-N
Kind: experiment
Temperature: 77 K
Tabular data in the source: 0
pressure (bar)	uptake (mmol/g)
0	0.544554
0	0.643564
0	0.891089
0	1.08911
0	1.16337
0	1.33663
0	1.41089
0	1.55941
0	1.68317
0	2.40099
0	2.89604
0	3.21782
1e-06	3.4901
1e-06	3.66337
1e-06	3.88614
1e-06	4.03465
2e-06	4.13366
2e-06	4.25743
5e-06	4.90099
1e-05	5.27228
1.4e-05	5.4703
2e-05	5.61881
2.6e-05	5.74257
3.3e-05	5.81683
4e-05	5.94059
4.6e-05	6.01485
5.1e-05	6.06436
0.000133	6.48515
0.000233	6.68317
0.000336	6.85644
0.000468	6.9802
0.000571	7.05446
0.000745	7.17822
0.00088	7.22772
0.001005	7.25248
0.001226	7.35149
0.003003	7.67327
0.004049	7.77228
0.005108	7.84653
0.014774	8.19307
0.021285	8.26733
0.026852	8.31683
0.031699	8.36634
0.036199	8.41584
0.041339	8.4901
0.047208	8.51485
0.057611	8.56436
0.070306	8.63861
0.082997	8.66337
0.094781	8.71287
0.108238	8.76238
0.123605	8.78713
0.132088	8.81188
0.145917	8.83663
0.161195	8.88614
0.172258	8.93564
0.190293	8.98515
0.203354	8.98515
0.210216	9.0099
0.224644	9.05941
0.240062	9.08416
0.274146	9.13366
0.292961	9.15842
0.302848	9.20792
0.323634	9.23267
0.357517	9.28218
0.382055	9.35644
0.422055	9.43069
0.466243	9.4802
0.481977	9.5297
0.532439	9.62871
0.550407	10.5446
