Adsorption isotherm of Nitrogen on CFCMS Carbon Fiber
DOI: 10.1021/la991011c
Article source: Figure 5c
Adsorbate Nitrogen: InChIKey IJGRMHOSHXDMSA-UHFFFAOYSA-N
Kind: experiment
Temperature: 77 K
Tabular data in the source: 0
pressure (bar)	uptake (mmol/g)
0	0.569307
0	0.990099
0	1.21287
0	1.31188
0	1.41089
0	1.53465
0	1.9802
0	2.27723
0	2.5
0	2.67327
0	2.79703
0	2.87129
0	2.9703
0	3.14356
1e-06	3.66337
2e-06	3.9604
3e-06	4.13366
4e-06	4.28218
4e-06	4.35644
6e-06	4.50495
7e-06	4.55446
9e-06	4.62871
3e-05	5.07426
4.4e-05	5.19802
6.4e-05	5.32178
8.6e-05	5.4703
0.000105	5.49505
0.000133	5.56931
0.000173	5.61881
0.000191	5.64356
0.000218	5.69307
0.000572	5.96535
0.00094	6.11386
0.001448	6.23762
0.001952	6.31188
0.002382	6.38614
0.003106	6.43564
0.003547	6.4604
0.004187	6.53465
0.010606	6.78218
0.020598	6.93069
0.026862	7.00495
0.030676	7.0297
0.041355	7.12871
0.053932	7.20297
0.065815	7.22772
0.085831	7.30198
0.108279	7.32673
0.1509	7.4505
0.184152	7.47525
0.232315	7.52475
0.293074	7.59901
0.382203	7.67327
0.498435	7.74752
0.588411	7.82178
0.742304	7.89604
0.936445	8.0198
1.10549	8.14356
1.30505	8.19307
1.49034	8.34158
1.75937	8.44059
2.00916	8.56436
2.21951	8.81188
