Adsorption isotherm of Nitrogen on Carbon Black CC N990 UP
DOI: 10.1016/s0008-6223(00)00205-0
Adsorbate Nitrogen: InChIKey IJGRMHOSHXDMSA-UHFFFAOYSA-N
Temperature: 77 K
Tabular data in the source: 0
pressure (bar)	uptake (volume/volume)
1.17829e-06	0.0149626
2.10209e-06	0.0224439
3.60813e-06	0.0336658
5.3074e-06	0.0336658
9.11007e-06	0.0486284
1.62522e-05	0.063591
2.78966e-05	0.0785536
4.60714e-05	0.0935162
9.59095e-05	0.127182
0.000135738	0.149626
0.00024216	0.17581
0.000342722	0.205736
0.000565994	0.246883
0.000770711	0.273067
0.00122465	0.321696
0.00148529	0.340399
0.00245291	0.392768
0.00334012	0.422693
0.00437604	0.452618
0.0061933	0.490025
0.00946851	0.534913
0.0204867	0.617207
0.0258245	0.665835
0.0365487	0.703242
0.0497682	0.74813
0.0603603	0.785536
0.0732052	0.819202
0.0922788	0.856608
0.111919	0.9202
0.1306	0.972569
0.14663	1.03616
0.177837	1.08853
0.20752	1.1409
0.224171	1.20075
0.251686	1.25312
0.271881	1.30175
0.293696	1.36534
0.317262	1.42519
0.342719	1.4813
