Adsorption isotherm of Nitrogen on Graphitized Carbon Black
DOI: 10.1016/s0008-6223(00)00205-0
Adsorbate Nitrogen: InChIKey IJGRMHOSHXDMSA-UHFFFAOYSA-N
Temperature: 77 K
Tabular data in the source: 0
pressure (bar)	uptake (volume/volume)
1.28006e-05	0.0255501
2.46236e-05	0.0403726
3.76003e-05	0.0590077
5.74172e-05	0.0963928
7.23305e-05	0.12258
8.76762e-05	0.160028
0.000102266	0.189986
0.000114781	0.231205
0.000133885	0.272413
0.000139137	0.302403
0.000168656	0.36235
0.000189296	0.392319
0.000204443	0.426048
0.000220801	0.463527
0.000257544	0.519735
0.000289062	0.560954
0.00035039	0.594652
0.000393271	0.63212
0.000441399	0.650839
0.000535059	0.680787
0.000648577	0.710735
0.000817037	0.740672
0.000952997	0.76688
0.00129659	0.789297
0.00163336	0.807984
0.0020576	0.826671
0.00279938	0.845338
0.00380857	0.867754
0.00538495	0.88266
0.00628104	0.897618
0.00791246	0.916306
0.00959139	0.942503
0.0111875	0.957462
0.0164385	0.972357
0.0215205	0.979784
0.0292794	0.987201
0.0430221	0.998346
0.0656949	1.02448
0.0860066	1.04691
0.108344	1.0656
0.147404	1.11801
0.192975	1.18919
0.243098	1.30538
0.272847	1.43659
