Adsorption isotherm of Nitrogen on Carbon Black GP N991
DOI: 10.1016/s0008-6223(00)00205-0
Adsorbate Nitrogen: InChIKey IJGRMHOSHXDMSA-UHFFFAOYSA-N
Temperature: 77 K
Tabular data in the source: 0
pressure (bar)	uptake (volume/volume)
2.2609e-06	0.0146972
5.90407e-06	0.0330947
1.37424e-05	0.0552546
2.35289e-05	0.0737661
4.35153e-05	0.107182
6.64021e-05	0.125725
9.0332e-05	0.155492
0.000113787	0.177818
0.000148968	0.207596
0.000187682	0.237384
0.000236457	0.267173
0.000309536	0.293219
0.000421126	0.326718
0.000491283	0.349065
0.000595486	0.36767
0.000810162	0.401168
0.00094513	0.423515
0.00149921	0.456972
0.00247139	0.494151
0.00349327	0.520177
0.00475129	0.542482
0.0062173	0.553603
0.00878642	0.572166
0.0204688	0.627908
0.0289349	0.657665
0.0364587	0.691185
0.0442122	0.728446
0.0649938	0.788044
0.0851867	0.862598
0.152093	1.01916
0.184529	1.07508
0.207341	1.13101
0.261825	1.25035
0.305966	1.33986
0.330879	1.39954
0.344382	1.46297
