Adsorption isotherm of Nitrogen on Carbon Black EC N991
DOI: 10.1016/s0008-6223(00)00205-0
Adsorbate Nitrogen: InChIKey IJGRMHOSHXDMSA-UHFFFAOYSA-N
Temperature: 77 K
Tabular data in the source: 0
pressure (bar)	uptake (volume/volume)
1.09139e-05	0.0478541
3.32454e-05	0.0848667
5.47774e-05	0.103389
0.000101308	0.136805
0.000194765	0.185136
0.000490255	0.266976
0.00074831	0.296712
0.00094287	0.330232
0.00188522	0.412134
0.00493346	0.512621
0.0119575	0.616859
0.0205041	0.695072
0.0278992	0.732302
0.0497304	0.82543
0.073126	0.896221
0.0760014	0.903673
0.103472	0.963291
0.12555	1.02294
0.14659	1.07887
0.177853	1.13479
0.306521	1.41076
0.331448	1.46671
