Adsorption isotherm of Nitrogen on Carbon Black AS N880
DOI: 10.1016/s0008-6223(00)00205-0
Adsorbate Nitrogen: InChIKey IJGRMHOSHXDMSA-UHFFFAOYSA-N
Temperature: 77 K
Tabular data in the source: 0
pressure (bar)	uptake (volume/volume)
5.92887e-06	0.0482591
9.77781e-06	0.0631233
1.6758e-05	0.081727
2.46236e-05	0.0928726
3.2236e-05	0.115299
4.22019e-05	0.133976
5.74172e-05	0.156393
7.51678e-05	0.17507
9.11154e-05	0.193767
0.000139137	0.238653
0.000182151	0.264829
0.000247823	0.294746
0.000300401	0.317194
0.000393271	0.34712
0.000495418	0.373308
0.000624096	0.403245
0.000786198	0.425682
0.00102925	0.459359
0.00129659	0.485547
0.00145526	0.504265
0.00190516	0.530442
0.00249414	0.545369
0.00314197	0.567806
0.00395805	0.593994
0.00498611	0.608931
0.00628104	0.631368
0.00791246	0.650056
0.0146461	0.698639
0.0207082	0.724795
0.0260869	0.747232
0.0316214	0.76968
0.0383311	0.792127
0.0501813	0.818304
0.0563225	0.848273
0.0709515	0.87071
0.0860066	0.908158
0.112595	0.953085
0.131332	0.990543
0.171934	1.09547
0.262547	1.26036
0.306238	1.37281
0.318252	1.4253
0.371214	1.47026
