Adsorption isotherm of Nitrogen on Carbon Black SRB N762
DOI: 10.1016/s0008-6223(00)00205-0
Adsorbate Nitrogen: InChIKey IJGRMHOSHXDMSA-UHFFFAOYSA-N
Temperature: 77 K
Tabular data in the source: 0
pressure (bar)	uptake (volume/volume)
4.68707e-06	0.010769
7.15289e-06	0.0330429
2.54034e-05	0.070014
4.35113e-05	0.103451
6.1508e-05	0.133208
6.90402e-05	0.148102
9.39208e-05	0.17787
0.000286888	0.323091
0.00049194	0.401303
0.000669425	0.442265
0.000911028	0.486958
0.00196762	0.583765
0.00378496	0.654483
0.00816999	0.728903
0.0134692	0.769812
0.0279815	0.847973
0.0444029	0.896356
0.0791192	0.974558
0.0996997	1.01181
0.130612	1.06771
0.164839	1.16466
0.224631	1.26159
0.306638	1.42568
0.307048	1.47792
