Adsorption isotherm of Nitrogen on Carbon Black TC N550
DOI: 10.1016/s0008-6223(00)00205-0
Adsorbate Nitrogen: InChIKey IJGRMHOSHXDMSA-UHFFFAOYSA-N
Temperature: 77 K
Tabular data in the source: 0
pressure (bar)	uptake (volume/volume)
2.01522e-06	0.0184597
3.58535e-06	0.0369608
5.46993e-06	0.0480407
1.17927e-05	0.0739526
3.45853e-05	0.129632
5.48658e-05	0.166821
0.000143536	0.256113
0.000405734	0.371504
0.000983789	0.490668
0.002478	0.598628
0.00600498	0.695404
0.0163246	0.784686
0.0380664	0.877741
0.0627931	0.941038
0.0959471	1.01182
0.125682	1.06399
0.171271	1.16092
0.224609	1.25786
0.272849	1.36228
0.318999	1.47045
