Adsorption isotherm of Nitrogen on Carbon Black CC N991 Lot 1
DOI: 10.1016/s0008-6223(00)00205-0
Adsorbate Nitrogen: InChIKey IJGRMHOSHXDMSA-UHFFFAOYSA-N
Temperature: 77 K
Tabular data in the source: 0
pressure (bar)	uptake (volume/volume)
1.2714e-06	0.0148527
1.93973e-06	0.0259327
3.19515e-06	0.0332605
5.06491e-06	0.0405988
7.43484e-06	0.0442265
1.48403e-05	0.0589652
2.01791e-05	0.0700762
2.96184e-05	0.0699726
4.51962e-05	0.0885151
7.73752e-05	0.103295
9.37674e-05	0.114437
0.00015453	0.140422
0.000210122	0.151533
0.000296969	0.173828
0.000403879	0.192401
0.000489544	0.211006
0.000616654	0.233332
0.000807164	0.255647
0.00105641	0.274231
0.0012324	0.296578
0.00155236	0.318903
0.00195561	0.34496
0.00266043	0.374728
0.00310357	0.397074
0.00390978	0.423131
0.00473949	0.445467
0.00620429	0.471514
0.00781595	0.497571
0.0162406	0.583195
0.0212658	0.620435
0.0312494	0.665107
0.0441877	0.706059
0.051548	0.728405
0.0787575	0.795455
0.107243	0.862535
0.130089	0.910991
0.15189	0.966919
0.17731	1.01538
0.207045	1.07504
0.223946	1.14219
0.26155	1.20931
0.282901	1.27645
0.317996	1.34732
0.343824	1.39953
0.357786	1.45549
