Adsorption isotherm of Nitrogen on Carbon Black CC N880
DOI: 10.1016/s0008-6223(00)00205-0
Adsorbate Nitrogen: InChIKey IJGRMHOSHXDMSA-UHFFFAOYSA-N
Temperature: 77 K
Tabular data in the source: 0
pressure (bar)	uptake (volume/volume)
1.58694e-06	0.0111247
2.61716e-06	0.0222389
4.48549e-06	0.0370926
7.1182e-06	0.0482173
1.04592e-05	0.0556128
1.47884e-05	0.0592688
2.34677e-05	0.0741435
3.19286e-05	0.0890599
5.26563e-05	0.111424
8.684e-05	0.145038
0.000118146	0.171205
0.000160742	0.193621
0.000202493	0.212308
0.000265094	0.238485
0.000321336	0.257183
0.0004048	0.27587
0.000509941	0.298308
0.000642392	0.320745
0.000840988	0.343172
0.00101944	0.36937
0.00128422	0.391807
0.00168124	0.410484
0.00211792	0.429171
0.00247036	0.44788
0.00323407	0.470306
0.00423389	0.492733
0.00513228	0.511431
0.00646517	0.526368
0.00814442	0.548806
0.0129247	0.58618
0.0175845	0.619847
0.0239238	0.649763
0.0301377	0.679701
0.0379656	0.694638
0.0460204	0.728336
0.0516523	0.754554
0.0626123	0.777002
0.0730315	0.80696
0.0956093	0.855637
0.10731	0.900606
0.140486	0.956783
0.157678	1.00925
0.214524	1.11792
0.270243	1.23411
0.280846	1.28659
0.315215	1.35031
0.340434	1.40654
0.367672	1.46652
