Adsorption isotherm of Nitrogen on Carbon Black EC N990
DOI: 10.1016/s0008-6223(00)00205-0
Adsorbate Nitrogen: InChIKey IJGRMHOSHXDMSA-UHFFFAOYSA-N
Temperature: 77 K
Tabular data in the source: 0
pressure (bar)	uptake (volume/volume)
1.5045e-05	0.0336658
1.62522e-05	0.0374065
4.10347e-05	0.0598504
4.60714e-05	0.0972569
7.04355e-05	0.104738
9.59095e-05	0.119701
0.000184834	0.164589
0.000485034	0.23192
0.000686454	0.258105
0.000934742	0.295511
0.00187228	0.370324
0.00491317	0.478803
0.00669024	0.523691
0.0114837	0.5798
0.0204867	0.654613
0.0278966	0.703242
0.0497682	0.822943
0.0677691	0.879052
0.0821905	0.908978
0.0959095	0.957606
0.120899	1.0212
0.14663	1.07731
0.184834	1.12594
0.199664	1.1783
0.215685	1.22693
0.251686	1.27556
0.261589	1.32419
0.293696	1.3803
0.317262	1.43267
0.342719	1.48504
