Adsorption isotherm of Nitrogen on Carbon Black SC N990
DOI: 10.1016/s0008-6223(00)00205-0
Adsorbate Nitrogen: InChIKey IJGRMHOSHXDMSA-UHFFFAOYSA-N
Temperature: 77 K
Tabular data in the source: 0
pressure (bar)	uptake (volume/volume)
1.87228e-06	0.0187032
6.69024e-06	0.0448878
1.75562e-05	0.0710723
3.79867e-05	0.0860349
5.58768e-05	0.112219
6.52036e-05	0.123441
7.32052e-05	0.142145
9.22788e-05	0.17207
0.000199665	0.261845
0.00028258	0.317955
0.000384788	0.359102
0.000504117	0.392768
0.000565994	0.418953
0.000660468	0.445137
0.000770711	0.452618
0.00086531	0.478803
0.00097152	0.493766
0.00202252	0.57606
0.00297496	0.613466
0.004051	0.639651
0.0053074	0.662095
0.0061933	0.688279
0.00780696	0.703242
0.00984106	0.721945
0.0230013	0.789277
0.0289942	0.815461
0.0338339	0.834165
0.0426493	0.860349
0.0537615	0.890274
0.0627353	0.912718
0.0732052	0.942643
0.0887854	0.98005
0.103606	1.00623
0.1306	1.05112
0.152399	1.11097
0.184834	1.1596
0.199664	1.20823
0.215685	1.27182
0.242159	1.32045
0.261589	1.3803
0.305252	1.43267
0.329745	1.48504
