Adsorption isotherm of Nitrogen on Carbon Black CC N990
DOI: 10.1016/s0008-6223(00)00205-0
Adsorbate Nitrogen: InChIKey IJGRMHOSHXDMSA-UHFFFAOYSA-N
Temperature: 77 K
Tabular data in the source: 0
pressure (bar)	uptake (volume/volume)
1.22465e-06	0.0074813
1.60447e-06	0.0112219
2.10209e-06	0.0149626
3.09202e-06	0.0224439
4.37604e-06	0.0299252
6.43697e-06	0.0374065
9.84106e-06	0.0448878
1.68916e-05	0.0598504
2.39063e-05	0.0673317
3.38339e-05	0.0860349
5.58768e-05	0.0935162
8.54244e-05	0.11596
0.000135738	0.130923
0.000251688	0.164589
0.000317265	0.179551
0.000415654	0.194514
0.000504117	0.216958
0.000635465	0.22818
0.000741535	0.250623
0.00100975	0.269327
0.00127283	0.295511
0.00160447	0.314214
0.00194595	0.332918
0.00254942	0.355362
0.00309202	0.381546
0.004051	0.407731
0.00510648	0.433915
0.0061933	0.456359
0.00811413	0.482544
0.0175563	0.57606
0.0221305	0.602244
0.0248469	0.628429
0.030135	0.643392
0.0351651	0.677057
0.0394813	0.69202
0.0497682	0.725686
0.0603603	0.763092
0.0760855	0.800499
0.0887854	0.841646
0.103606	0.897756
0.125656	0.957606
0.152399	1.01746
0.184834	1.06983
0.199664	1.12594
0.224171	1.17456
0.261589	1.23441
0.282578	1.29426
0.305252	1.35411
0.342719	1.42519
0.370218	1.47007
