Adsorption isotherm of Nitrogen on Micro Crystalline Graphite
DOI: 10.1016/s0008-6223(00)00205-0
Adsorbate Nitrogen: InChIKey IJGRMHOSHXDMSA-UHFFFAOYSA-N
Temperature: 77 K
Tabular data in the source: 0
pressure (bar)	uptake (volume/volume)
3.86983e-06	0.0220148
6.62509e-06	0.0367949
1.09139e-05	0.0478541
1.42788e-05	0.0515129
2.01731e-05	0.0588823
3.58973e-05	0.084846
6.64082e-05	0.129456
0.000113852	0.200206
0.000149125	0.24864
0.000195417	0.315732
0.000219428	0.345551
0.000298704	0.401438
0.000391284	0.453604
0.000474408	0.483403
0.000575032	0.502007
0.000752752	0.528054
0.000948553	0.565305
0.00124137	0.580158
0.00150467	0.598762
0.00189532	0.621088
0.0022104	0.632241
0.00300616	0.650814
0.00476861	0.684272
0.00882169	0.728882
0.0139921	0.758608
0.0197775	0.784634
0.0279526	0.806929
0.0326056	0.825544
0.0426778	0.847859
0.0558575	0.866443
0.0731411	0.903684
0.0853241	0.92603
0.103462	0.95956
0.120754	1.00056
0.146478	1.04902
0.17101	1.10122
0.192132	1.15342
0.224352	1.21308
0.262	1.27647
0.272719	1.34363
0.283983	1.42571
0.31906	1.47791
