Adsorption isotherm of Nitrogen on Carbon Black LU N880
DOI: 10.1016/s0008-6223(00)00205-0
Adsorbate Nitrogen: InChIKey IJGRMHOSHXDMSA-UHFFFAOYSA-N
Temperature: 77 K
Tabular data in the source: 0
pressure (bar)	uptake (volume/volume)
2.15904e-06	0.0110411
3.29693e-06	0.0146762
3.84556e-06	0.0221344
5.87219e-06	0.0332695
7.39742e-06	0.0369568
1.04592e-05	0.0443628
1.21997e-05	0.044321
1.65982e-05	0.0517375
2.34677e-05	0.0591435
2.95631e-05	0.0590808
4.87551e-05	0.081445
7.73713e-05	0.10007
9.02464e-05	0.107528
0.000122783	0.118694
0.000160742	0.129871
0.000202493	0.144808
0.000245454	0.152256
0.000321336	0.167183
0.00038952	0.182131
0.000490693	0.200818
0.00066759	0.215735
0.000809245	0.230682
0.00101944	0.25312
0.00128422	0.275557
0.00155668	0.294255
0.00203793	0.316682
0.00256726	0.339119
0.00323407	0.361556
0.00407408	0.383994
0.00513228	0.406431
0.00671893	0.432608
0.007837	0.458816
0.0162817	0.533618
0.0230208	0.574774
0.0365317	0.649648
0.0426118	0.675857
0.0497027	0.702065
0.0650684	0.746992
0.0730315	0.77696
0.0819691	0.814429
0.0956093	0.833137
0.11152	0.878095
0.130079	0.941804
0.151725	1.00176
0.191134	1.0617
0.214524	1.11792
0.231688	1.1779
0.260041	1.22287
0.291864	1.28283
0.303315	1.34282
0.340434	1.40654
0.353791	1.45903
