Adsorption isotherm of Nitrogen on Carbon Black CC N991 Lot 2
DOI: 10.1016/s0008-6223(00)00205-0
Adsorbate Nitrogen: InChIKey IJGRMHOSHXDMSA-UHFFFAOYSA-N
Temperature: 77 K
Tabular data in the source: 0
pressure (bar)	uptake (volume/volume)
3.72453e-06	0.0257565
1.60255e-05	0.0626758
2.35267e-05	0.0700348
3.19906e-05	0.0811458
0.000194689	0.17021
0.000489781	0.229663
0.000666364	0.263162
0.000942154	0.300381
0.00188344	0.374821
0.00493017	0.486502
0.00697062	0.523722
0.0119507	0.594471
0.0212923	0.668942
0.0289769	0.713635
0.0478357	0.806783
0.0676911	0.877585
0.0995666	0.95957
0.135579	1.02665
0.158315	1.08631
0.177904	1.14598
0.224502	1.2392
0.318513	1.41075
0.331385	1.45925
