Adsorption isotherm of Methane on Zn2(dhtp)
DOI: 10.1021/Ja900258t
Adsorbate Methane: InChIKey VNWKTOKETHGBQD-UHFFFAOYSA-N
Temperature: 298 K
Tabular data in the source: 0
pressure (bar)	uptake (cm3(STP)/cm3)
0.160643	3.7931
0.321285	7.04433
0.481928	10.8374
0.64257	14.0887
0.803213	17.8818
1.1245	22.2167
1.36546	29.2611
1.76707	37.3892
2.40964	48.2266
3.05221	59.064
3.61446	67.734
4.73896	81.8227
6.82731	102.414
9.55823	120.296
13.494	137.094
18.7952	151.724
24.257	160.936
29.4779	165.813
35.0201	170.148
37.4297	172.315
38.5542	173.399
