Adsorption isotherm of Methane on Co2(dhtp)
DOI: 10.1021/Ja900258t
Adsorbate Methane: InChIKey VNWKTOKETHGBQD-UHFFFAOYSA-N
Temperature: 298 K
Tabular data in the source: 0
pressure (bar)	uptake (cm3(STP)/cm3)
0.562249	18.4236
0.722892	24.3842
0.963855	29.2611
1.44578	38.4729
1.68675	48.2266
2.32932	59.6059
3.05221	73.1527
3.69478	83.9901
5.06024	98.6207
7.30924	118.67
10.3614	134.384
14.8594	149.557
20.4016	160.936
25.9438	166.897
33.3333	173.399
36.9478	175.567
38.4739	176.65
39.0361	177.192
