Adsorption isotherm of Methane on Ni2(dhtp)
DOI: 10.1021/Ja900258t
Adsorbate Methane: InChIKey VNWKTOKETHGBQD-UHFFFAOYSA-N
Temperature: 298 K
Tabular data in the source: 0
pressure (bar)	uptake (cm3(STP)/cm3)
0.401606	15.1724
0.481928	18.4236
0.803213	24.9261
0.963855	31.4286
1.36546	41.1823
1.76707	50.936
2.249	63.9409
3.05221	78.0296
3.69478	89.9507
4.97992	105.123
7.22892	126.256
10.3614	144.138
14.8594	159.31
20.4016	171.232
25.9438	179.901
33.4137	188.03
36.9478	190.739
38.3936	191.281
39.0361	191.823
