Adsorption isotherm of Methane on Mg2(dhtp)
DOI: 10.1021/Ja900258t
Adsorbate Methane: InChIKey VNWKTOKETHGBQD-UHFFFAOYSA-N
Temperature: 298 K
Tabular data in the source: 0
pressure (bar)	uptake (cm3(STP)/cm3)
0.722892	11.9212
0.963855	17.3399
1.36546	22.7586
1.68675	30.3448
2.249	38.4729
2.81124	44.9754
3.69478	56.3547
4.8996	68.8177
7.14859	86.1576
10.0402	102.414
14.0562	117.044
19.5984	130.049
25.0602	138.177
29.6386	143.596
34.2169	147.931
37.5904	151.182
38.2329	152.266
