Adsorption isotherm of Methane on Mn2(dhtp)
DOI: 10.1021/Ja900258t
Adsorbate Methane: InChIKey VNWKTOKETHGBQD-UHFFFAOYSA-N
Temperature: 298 K
Tabular data in the source: 0
pressure (bar)	uptake (cm3(STP)/cm3)
0.321285	5.41872
0.562249	9.75369
0.963855	15.1724
1.04418	19.5074
1.36546	26.5517
1.92771	33.5961
2.32932	42.8079
3.21285	53.1034
4.09639	63.399
5.54217	78.0296
8.11245	97.5369
11.9679	115.961
16.7068	132.217
22.249	144.138
27.7912	152.266
34.6185	157.685
37.4297	159.31
38.6345	159.852
