Adsorption isotherm of Oxygen on C32H24N2O8.98Rh2
DOI: 10.1039/B316963d
Adsorbate Oxygen: InChIKey MYMOFIZGZYHOMD-UHFFFAOYSA-N
Temperature: 77 K
Tabular data in the source: 0
pressure (bar)	uptake (cm3(STP)/g)
1.1241e-06	36.4094
1.21321e-06	42.863
2.65941e-06	58.7908
6.27603e-06	73.1976
9.11685e-06	79.6431
1.32277e-05	82.2911
1.7165e-05	84.1826
4.03613e-05	86.8174
8.48799e-05	88.6957
0.00013257	89.4429
0.00019224	90.1922
0.000435236	90.5495
0.000849366	90.9108
0.00142858	90.8965
0.00214968	91.265
0.00705577	91.6121
0.0091505	91.605
0.0207221	92.7218
0.0268745	92.7146
0.0452166	93.8395
0.0631624	93.8304
0.0789467	94.5837
0.102397	94.9563
0.128016	96.4692
0.154192	97.6033
0.192838	100.255
0.200393	104.432
