Adsorption isotherm of Argon on Carbon
DOI: 10.1021/jp205497s
Adsorbate Argon: InChIKey XKRFYHLGVUSROY-UHFFFAOYSA-N
Temperature: 87 K
Tabular data in the source: 0
pressure (bar)	uptake (micromoles/m2)
1.04061e-05	-0.103415
2.03682e-05	0.0354739
6.9771e-05	0.0354739
0.000210301	0.521585
0.000498702	1.77158
0.000886832	5.86881
0.00155202	11.0771
0.00254786	13.091
0.0114539	15.3827
0.0318711	16.0077
0.0323848	25.591
0.0323848	42.9521
0.0901127	37.0494
0.124072	44.4799
0.392351	44.341
1.00785	44.4105
