Adsorption isotherm of Argon on Carbon
DOI: 10.1021/jp205497s
Adsorbate Argon: InChIKey XKRFYHLGVUSROY-UHFFFAOYSA-N
Temperature: 55 K
Tabular data in the source: 0
pressure (bar)	uptake (micromoles/m2)
9.92e-09	0.0267398
1.3e-07	0.585378
1.52e-07	9.15969
2.44e-06	11.2761
0.000538449	12.4115
0.000588889	23.1557
0.00176369	23.529
0.0020629	33.988
0.0028861	37.4104
0.00422269	84.5587
