Adsorption isotherm of Argon on Carbon
DOI: 10.1021/jp205497s
Adsorbate Argon: InChIKey XKRFYHLGVUSROY-UHFFFAOYSA-N
Temperature: 87 K
Tabular data in the source: 0
pressure (bar)	uptake (micromoles/m2)
11.2551	0.161362
19.1684	0.3222
30.9929	0.461991
30.9929	0.656011
50.1117	1.15411
54.8805	0.766638
62.491	1.80644
67.5549	3.08653
79.979	1.41604
81.0244	2.49122
81.0244	3.64233
81.0244	4.692
93.4662	2.07035
116.556	3.33665
119.623	5.98558
131.006	4.09392
155.1	2.59019
416.145	9.099
16633.4	12.671
98548.1	53.5602
