Adsorption isotherm of Argon on Carbon
DOI: 10.1021/jp205497s
Adsorbate Argon: InChIKey XKRFYHLGVUSROY-UHFFFAOYSA-N
Temperature: 87 K
Tabular data in the source: 0
pressure (bar)	uptake (micromoles/m2)
9.9e-05	0.144363
0.000152352	0.236407
0.000256663	0.41439
0.000403955	0.714123
0.000712106	1.61554
0.00122718	4.33239
0.00197573	8.12874
0.00586751	10.1402
0.0250471	11.4222
0.125314	13.3115
0.355656	22.553
0.641343	36.3097
0.98676	87.9253
