Adsorption isotherm of Argon on Carbon
DOI: 10.1021/jp205497s
Adsorbate Argon: InChIKey XKRFYHLGVUSROY-UHFFFAOYSA-N
Temperature: 55 K
Tabular data in the source: 0
pressure (bar)	uptake (micromoles/m2)
1.77e-09	0.00654708
5.67e-09	0.019734
1.94e-08	0.0614143
4.35e-08	0.130214
1.3e-07	0.709201
1.39e-07	10.5774
2.66e-07	10.9212
1.02e-06	11.2761
5.35e-06	11.6425
2.14e-05	12.4115
7.51e-05	12.6116
0.000294201	25.4874
0.000550639	13.2313
0.000963657	38.0134
0.00140994	25.4874
0.00230722	38.0134
0.00241287	75.6045
