Adsorption isotherm of Argon on Carbon
DOI: 10.1021/jp205497s
Adsorbate Argon: InChIKey XKRFYHLGVUSROY-UHFFFAOYSA-N
Temperature: 87 K
Tabular data in the source: 0
pressure (bar)	uptake (micromoles/m2)
0.000128159	0.211953
0.000251781	0.431543
0.000457572	0.845064
0.00112102	3.05662
0.00176608	6.04417
0.00598635	10.8426
0.0205567	12.1869
0.0715131	13.565
0.121793	14.3814
0.935597	66.3591
0.972766	82.2165
0.972766	98.9299
