Adsorption isotherm of Argon on Carbon
DOI: 10.1021/jp205497s
Adsorbate Argon: InChIKey XKRFYHLGVUSROY-UHFFFAOYSA-N
Temperature: 87 K
Tabular data in the source: 0
pressure (bar)	uptake (micromoles/m2)
0.000186769	0.319077
0.000352908	0.62483
0.000548805	1.09925
0.000720869	1.7716
0.00124375	4.09392
0.0020639	7.63581
0.00455747	9.83633
0.0303495	11.7212
0.227163	18.5259
0.397058	24.3342
0.667499	39.9893
0.960215	61.9856
