Adsorption isotherm of Argon on Carbon
DOI: 10.1021/jp205497s
Adsorbate Argon: InChIKey XKRFYHLGVUSROY-UHFFFAOYSA-N
Temperature: 87 K
Tabular data in the source: 0
pressure (bar)	uptake (micromoles/m2)
0.000242161	0.499428
0.000381505	0.169414
0.000481969	0.34159
0.000720869	0.606837
0.00226031	0.781718
0.00254055	0.96852
0.00285553	1.54577
0.00325152	1.11001
0.00351501	1.37526
0.00473853	2.37281
0.00622418	1.78894
0.00746519	2.39603
0.00786322	2.74607
0.0107389	4.29822
0.013219	3.50316
0.0142901	4.64652
0.0142901	6.3458
0.0178203	5.70108
0.0180532	7.06343
0.02597	8.01686
0.0270018	9.74099
