Adsorption isotherm of Argon on Carbon
DOI: 10.1021/jp205497s
Adsorbate Argon: InChIKey XKRFYHLGVUSROY-UHFFFAOYSA-N
Temperature: 55 K
Tabular data in the source: 0
pressure (bar)	uptake (micromoles/m2)
1.05e-08	0.0211378
1.98e-08	0.0479309
4.1e-08	0.108685
6.88e-08	0.216856
1.32e-07	0.677042
1.35e-07	10.3264
3.58e-07	11.4391
9.71e-07	12.1947
5.79e-06	11.8867
1.01e-05	11.8867
3.07e-05	12.3517
0.000102899	12.3517
0.000201408	12.1947
0.000505914	13.1675
0.000515715	25.6091
0.00145348	37.5889
0.00148164	24.9622
0.00217475	38.563
0.00325394	100.656
