Adsorption isotherm of Argon on Carbon
DOI: 10.1021/jp205497s
Adsorbate Argon: InChIKey XKRFYHLGVUSROY-UHFFFAOYSA-N
Temperature: 55 K
Tabular data in the source: 0
pressure (bar)	uptake (micromoles/m2)
1.82101e-07	0.594813
2.08279e-07	1.0082
2.12994e-07	1.30214
2.43613e-07	4.18411
2.49128e-07	5.85378
2.54768e-07	9.45735
2.60536e-07	2.42936
7.46125e-07	12.0209
1.22096e-06	13.2313
2.33692e-06	12.6116
8.9532e-06	13.6613
