Adsorption isotherm of Argon on Carbon
DOI: 10.1021/jp205497s
Adsorbate Argon: InChIKey XKRFYHLGVUSROY-UHFFFAOYSA-N
Temperature: 55 K
Tabular data in the source: 0
pressure (bar)	uptake (micromoles/m2)
1.76e-07	0.627021
2.22e-07	1.35088
2.44e-07	9.6866
2.49e-07	2.40224
2.63e-07	6.03414
1.2e-06	12.6718
2.26e-06	13.5088
9.71e-06	13.8588
