Adsorption isotherm of Argon on Carbon
DOI: 10.1021/jp205497s
Adsorbate Argon: InChIKey XKRFYHLGVUSROY-UHFFFAOYSA-N
Temperature: 87 K
Tabular data in the source: 0
pressure (bar)	uptake (micromoles/m2)
1.14539e-05	0.0354739
0.000157704	0.382696
0.000460383	1.49381
0.00122104	9.34103
0.00220635	12.8133
0.0339762	16.5633
0.0392351	39.1327
0.081869	41.1466
0.0991865	42.3271
0.267306	42.8827
0.743794	43.4383
