Adsorption isotherm of Argon on Carbon
DOI: 10.1021/jp205497s
Adsorbate Argon: InChIKey XKRFYHLGVUSROY-UHFFFAOYSA-N
Temperature: 87 K
Tabular data in the source: 0
pressure (bar)	uptake (micromoles/m2)
12.999	0.213472
25.6663	0.436082
45.2455	0.846519
77.972	1.75894
161.098	5.40444
242.305	8.12874
2089.15	12.0201
11707.2	14.2486
31753.2	18.0793
67110	31.6907
100939	64.738
