Adsorption isotherm of Argon on Carbon
DOI: 10.1021/jp205497s
Adsorbate Argon: InChIKey XKRFYHLGVUSROY-UHFFFAOYSA-N
Temperature: 55 K
Tabular data in the source: 0
pressure (bar)	uptake (micromoles/m2)
1.03e-08	0.027652
1.37e-08	0.0380729
2.49e-08	0.0677042
3.45e-08	0.096866
1.45e-07	0.799536
1.48e-07	3.35012
1.48e-07	9.6866
0.000535891	12.6718
0.000556856	23.1179
0.00172747	25.2835
0.00201408	34.3693
0.00263477	35.26
0.00325394	46.7202
0.00372171	65.994
0.0043392	96.866
