Adsorption isotherm of Krypton on Carbon
DOI: 10.1007/s10450-007-9013-9
Adsorbate Krypton: InChIKey DNNSSWSSYDEUBZ-UHFFFAOYSA-N
Temperature: 77 K
Tabular data in the source: 0
pressure (bar)	uptake (cm3(STP)/g)
1.46e-05	9.55102
2.94e-05	15.4286
3.67e-05	19.8367
5.91e-05	22.7755
7.4e-05	26.449
8.9e-05	27.9184
0.000133943	30.1224
0.000178887	33.0612
0.000223862	35.2653
0.00029137	37.4694
0.000471514	40.4082
0.000689245	42.6122
0.000906975	44.8163
0.00112468	47.7551
0.00141752	49.9592
0.00165781	51.4286
0.00181545	53.6327
0.00183044	54.3673
0.00198061	55.8367
0.00207071	56.5714
0.00216078	58.0408
0.00216826	58.7755
0.00226587	59.5102
0.00236346	60.9796
