Adsorption isotherm of Argon on Carbon
DOI: 10.1007/s10450-007-9013-9
Adsorbate Argon: InChIKey XKRFYHLGVUSROY-UHFFFAOYSA-N
Temperature: 77 K
Tabular data in the source: 0
pressure (bar)	uptake (cm3(STP)/g)
0.000379836	23.1908
0.00113951	29.5121
0.00265885	35.1265
0.00417819	39.3354
0.0053177	40.735
0.00797655	43.5322
0.0121547	46.3215
0.0189918	49.7995
0.0281078	53.2655
0.0402626	57.4183
0.053177	60.1614
0.0691301	64.2942
0.0896413	68.403
0.112431	73.2025
