Adsorption isotherm of Carbon Dioxide on MIL-101
DOI: 10.1021/Ef101548g
Adsorbate Carbon Dioxide: InChIKey CURLTUGMZLYLDI-UHFFFAOYSA-N
Temperature: 328 K
Tabular data in the source: 0
pressure (bar)	uptake (mmol/g)
0.582524	1.50602
1.06796	2.25904
3.00971	3.53916
5.04854	5.19578
8.05825	7.37952
11.068	9.33735
14.0777	11.2952
17.0874	13.253
20.0971	14.9849
25.0485	17.8464
29.1262	19.9548
