Adsorption isotherm of Carbon Dioxide on MIL-101
DOI: 10.1021/Ef101548g
Adsorbate Carbon Dioxide: InChIKey CURLTUGMZLYLDI-UHFFFAOYSA-N
Temperature: 328 K
Tabular data in the source: 0
pressure (bar)	uptake (mmol/g)
1.35922	1.95783
1.94175	2.56024
2.52427	3.16265
3.39806	3.91566
4.07767	4.51807
4.66019	5.04518
5.43689	5.64759
6.1165	6.1747
6.79612	6.70181
7.57282	7.22892
8.4466	7.83133
9.12621	8.35843
9.90291	8.88554
10.5825	9.33735
11.4563	9.86446
12.1359	10.3163
12.9126	10.8434
13.6893	11.2952
14.466	11.747
15.1456	12.1988
15.9223	12.6506
16.699	13.1024
17.4757	13.5542
18.2524	14.006
19.0291	14.4578
19.8058	14.9096
20.4854	15.2108
21.165	15.738
21.9417	16.1145
22.8155	16.5663
23.5922	17.0181
24.3689	17.3946
25.534	18.0723
26.3107	18.4488
27.1845	18.9006
27.9612	19.2771
28.7379	19.7289
