Adsorption isotherm of Carbon Dioxide on MIL-101
DOI: 10.1021/Ef101548g
Adsorbate Carbon Dioxide: InChIKey CURLTUGMZLYLDI-UHFFFAOYSA-N
Temperature: 318 K
Tabular data in the source: 0
pressure (bar)	uptake (mmol/g)
1.06796	2.56024
3.00971	4.06627
5.04854	5.79819
8.05825	7.83133
11.068	9.86446
14.0777	11.747
17.0874	13.7048
20.0971	15.5873
25.0485	18.4488
29.1262	20.6325
