Adsorption isotherm of Carbon Dioxide on MIL-101
DOI: 10.1021/Ef101548g
Adsorbate Carbon Dioxide: InChIKey CURLTUGMZLYLDI-UHFFFAOYSA-N
Temperature: 308 K
Tabular data in the source: 0
pressure (bar)	uptake (mmol/g)
0.485437	2.40964
1.06796	3.01205
3.00971	4.66867
5.04854	6.4006
8.05825	8.65964
11.068	10.4669
13.9806	12.4247
17.0874	14.3072
20.0971	16.3404
25.0485	19.1265
29.1262	21.4608
