Adsorption isotherm of Carbon Dioxide on MIL-101
DOI: 10.1021/Ef101548g
Adsorbate Carbon Dioxide: InChIKey CURLTUGMZLYLDI-UHFFFAOYSA-N
Temperature: 308 K
Tabular data in the source: 0
pressure (bar)	uptake (mmol/g)
1.5534	2.86145
2.13592	3.46386
3.39806	4.89458
3.98058	5.49699
4.66019	6.0241
5.43689	6.70181
6.1165	7.30422
6.79612	7.83133
7.47573	8.35843
8.34951	9.03614
9.02913	9.48795
9.80583	10.0904
10.4854	10.5422
11.068	10.9187
11.7476	11.3705
12.5243	11.8976
13.2039	12.3494
14.2718	12.9518
14.9515	13.4036
15.7282	13.8554
16.5049	14.3072
17.6699	14.9849
18.4466	15.4367
19.2233	15.8886
20.4854	16.5663
21.2621	17.0181
22.0388	17.4699
22.8155	17.8464
23.6893	18.2982
24.466	18.6747
25.534	19.2018
26.3107	19.6536
27.0874	20.0301
27.9612	20.4819
28.7379	20.8584
