Adsorption isotherm of Carbon Dioxide on MIL-101
DOI: 10.1021/Ef101548g
Adsorbate Carbon Dioxide: InChIKey CURLTUGMZLYLDI-UHFFFAOYSA-N
Temperature: 318 K
Tabular data in the source: 0
pressure (bar)	uptake (mmol/g)
1.45631	2.33434
2.03883	2.93675
2.62136	3.53916
3.30097	4.29217
3.98058	4.81928
5.53398	6.25
6.21359	6.77711
6.8932	7.30422
7.6699	7.83133
8.54369	8.50904
9.32039	9.03614
10	9.48795
10.7767	10.0151
11.4563	10.4669
12.233	10.9187
12.9126	11.3705
13.6893	11.8976
14.466	12.3494
15.2427	12.8012
16.0194	13.253
17.2816	14.0813
18.0583	14.4578
18.835	14.9096
19.6117	15.3614
20.3883	15.738
21.165	16.1898
21.9417	16.6416
22.7184	17.0181
23.4951	17.4699
24.3689	17.8464
25.4369	18.4488
26.2136	18.9006
26.9903	19.2771
27.8641	19.7289
28.6408	20.1054
