Adsorption isotherm of Carbon Dioxide on MIL-101
DOI: 10.1021/Ef101548g
Adsorbate Carbon Dioxide: InChIKey CURLTUGMZLYLDI-UHFFFAOYSA-N
Temperature: 298 K
Tabular data in the source: 0
pressure (bar)	uptake (mmol/g)
0.582524	2.86145
1.06796	3.61446
3.1068	5.57229
4.95146	7.37952
8.05825	9.78916
11.068	11.8976
13.9806	14.0813
16.9903	16.1145
20.0971	18.2229
25.1456	20.9337
29.1262	22.8916
