Adsorption isotherm of Carbon Dioxide on MIL-101
DOI: 10.1021/Ef101548g
Adsorbate Carbon Dioxide: InChIKey CURLTUGMZLYLDI-UHFFFAOYSA-N
Temperature: 298 K
Tabular data in the source: 0
pressure (bar)	uptake (mmol/g)
1.26214	3.23795
1.94175	4.06627
2.42718	4.74398
3.00971	5.34639
3.39806	5.79819
3.98058	6.4006
4.56311	7.00301
4.95146	7.45482
5.63107	7.98193
6.21359	8.58434
6.8932	9.11145
7.57282	9.71386
8.25243	10.241
8.93204	10.7681
9.61165	11.2952
10.2913	11.8223
10.9709	12.2741
11.6505	12.8012
12.4272	13.3283
13.1068	13.7801
13.8835	14.2319
14.2718	14.5331
15.0485	14.9849
15.7282	15.4367
16.5049	15.8886
17.4757	16.491
18.2524	16.9428
19.0291	17.3946
19.8058	17.8464
20.4854	18.2229
21.2621	18.6747
22.0388	19.1265
22.8155	19.5783
23.5922	19.9548
24.3689	20.4066
25.1456	20.7831
25.9223	21.1596
26.4078	21.3855
27.1845	21.8373
27.9612	22.2139
28.835	22.5904
