Adsorption isotherm of Nitrogen on MIL-101
DOI: 10.1021/Ef101548g
Adsorbate Nitrogen: InChIKey IJGRMHOSHXDMSA-UHFFFAOYSA-N
Temperature: 77 K
Tabular data in the source: 0
pressure (bar)	uptake (mmol/g)
0.00665425	0.00665425
0.00998137	15.5921
0.0166356	19.5395
0.0232899	22.1053
0.0365984	24.2763
0.0499068	26.4474
0.0632153	28.4211
0.0831781	30.5921
0.0964866	32.7632
0.126431	36.1184
0.133085	36.7105
0.143066	36.9079
0.166356	38.2895
0.182992	39.0789
0.189646	39.6711
0.202955	40.2632
0.246207	44.2105
0.279478	44.4079
0.329385	44.6053
0.369311	45
0.419218	45.3947
0.465797	45.5921
0.515704	45.7895
0.565611	46.1842
0.612191	46.1842
0.662098	46.5789
0.712004	46.7763
0.765238	46.9737
0.788528	46.9737
0.808491	47.3684
0.838435	47.3684
0.865052	47.7632
0.891669	48.3553
0.944903	49.3421
0.951557	50.9211
0.961539	52.5
