Adsorption isotherm of Nitrogen on 40% PhTEOS
DOI: 10.1007/s10450-019-00075-9
Article source: Figure 7A
Adsorbate Nitrogen: InChIKey IJGRMHOSHXDMSA-UHFFFAOYSA-N
Kind: experiment
Temperature: 77 K
Tabular data in the source: 0
pressure (bar)	uptake (mmol/g)
0.012469	0.859664
0.017652	1.62454
0.071054	2.52185
0.107325	2.84412
0.198977	3.1722
0.254388	3.2417
0.30733	3.18355
0.350702	3.25179
0.408582	3.44894
0.483287	3.58415
0.562868	3.84727
0.627911	3.91777
0.668875	3.98576
0.731479	3.99232
0.799113	4.44526
0.859401	4.64266
0.931759	4.90502
0.965684	5.35443
1.05051	6.50982
1.10845	6.83436
1.14302	8.62142
1.16546	10.2161
1.18518	11.1736
