Adsorption isotherm of Nitrogen on 80% PhTEOS
DOI: 10.1007/s10450-019-00075-9
Article source: Figure 7A
Adsorbate Nitrogen: InChIKey IJGRMHOSHXDMSA-UHFFFAOYSA-N
Kind: experiment
Temperature: 77 K
Tabular data in the source: 0
pressure (bar)	uptake (mmol/g)
0.026701	0.415295
0.079674	0.420845
0.135054	0.426647
0.178365	0.36749
0.250631	0.438756
0.313173	0.31792
0.337252	0.320442
0.370931	0.260277
0.443197	0.331542
0.457644	0.333056
0.498577	0.337344
0.520248	0.339615
0.529879	0.340624
0.585198	0.219031
0.626132	0.22332
0.645394	0.225338
0.693551	0.230383
0.695959	0.230635
0.748932	0.236185
0.763379	0.237699
0.814035	0.434089
0.845307	0.373671
0.874262	0.504093
0.888709	0.505607
0.924827	0.509391
0.936866	0.510652
0.946498	0.511661
0.989808	0.452504
1.03559	0.520995
1.06689	0.524274
1.08375	0.52604
1.09819	0.527554
1.10782	0.528563
1.13431	0.531338
1.15836	0.470163
1.16799	0.471172
1.18966	0.473443
