Adsorption isotherm of Carbon Dioxide on 30% PhTEOS
DOI: 10.1007/s10450-019-00075-9
Article source: Figure 7B
Adsorbate Carbon Dioxide: InChIKey CURLTUGMZLYLDI-UHFFFAOYSA-N
Kind: experiment
Temperature: 273 K
Tabular data in the source: 0
pressure (bar)	uptake (mmol/g)
0.038906	0.090185
0.056442	0.121415
0.085736	0.147512
0.10527	0.16318
0.138452	0.199678
0.214618	0.267532
0.296642	0.340605
0.31619	0.351083
0.345443	0.392751
0.484221	0.471298
0.525287	0.487073
0.648446	0.549971
0.683694	0.544956
0.836146	0.633951
0.857679	0.634059
