Adsorption isotherm of Argon on 50% PhTEOS
DOI: 10.1007/s10450-019-00075-9
Article source: Figure S5
Adsorbate Argon: InChIKey XKRFYHLGVUSROY-UHFFFAOYSA-N
Kind: experiment
Temperature: 87 K
Tabular data in the source: 0
pressure (bar)	uptake (mmol/g)
5.8e-05	0.285946
0.004201	0.694276
0.004251	0.939176
0.010374	1.10269
0.01658	1.67437
0.018677	2.00098
0.039044	2.32833
0.061424	2.57413
0.1021	2.94312
0.148842	3.1899
0.205725	3.39627
0.256519	3.6024
0.311331	3.60461
0.351966	3.76951
0.425073	3.89491
0.465741	4.22308
0.518515	4.18439
0.559125	4.22684
0.61397	4.39231
0.687111	4.68098
0.715532	4.68212
0.802891	5.01217
0.849658	5.3814
0.87406	5.58647
0.886273	5.75023
0.900517	5.91406
0.86792	5.34132
0.845548	5.13634
0.835364	4.97266
0.810962	4.7676
0.776426	4.64376
0.756108	4.56131
0.703335	4.6
0.682976	4.31346
0.636284	4.31158
0.626125	4.27036
0.607822	4.10635
0.577354	4.02349
0.554998	3.90014
0.530637	3.89916
0.502191	3.77557
0.473787	3.85605
0.451456	3.85515
0.416878	3.52723
0.390487	3.52617
0.374238	3.4847
0.360011	3.40249
0.335642	3.36069
0.305166	3.23702
0.274674	3.0317
0.248291	3.07146
0.242201	3.07121
0.219853	2.98868
0.203604	2.94721
0.191416	2.9059
0.171098	2.82345
0.146721	2.74083
0.120321	2.69896
0.087799	2.49356
0.067465	2.32948
0.041041	2.16515
0.032896	2.04237
