Adsorption isotherm of Carbon Dioxide on 40% PhTEOS
DOI: 10.1007/s10450-019-00075-9
Article source: Figure 7B
Adsorbate Carbon Dioxide: InChIKey CURLTUGMZLYLDI-UHFFFAOYSA-N
Kind: experiment
Temperature: 273 K
Tabular data in the source: 0
pressure (bar)	uptake (mmol/g)
0.040944	0.059054
0.070252	0.079961
0.087815	0.10081
0.115152	0.126898
0.140532	0.152976
0.216751	0.200068
0.273423	0.236683
0.316379	0.27842
0.351587	0.288976
0.49239	0.34158
0.51781	0.352088
0.666415	0.415112
0.691822	0.43081
0.83851	0.478254
0.875648	0.4992
