Adsorption isotherm of Carbon Dioxide on 50% PhTEOS
DOI: 10.1007/s10450-019-00075-9
Article source: Figure S5
Adsorbate Carbon Dioxide: InChIKey CURLTUGMZLYLDI-UHFFFAOYSA-N
Kind: experiment
Temperature: 273 K
Tabular data in the source: 0
pressure (bar)	uptake (mmol/g)
0.139131	0.000393
0.279115	0.123006
0.348964	0.163905
0.48838	0.204885
0.558513	0.2866
0.558513	0.2866
0.697929	0.32758
0.767778	0.368479
0.90691	0.368642
0.976759	0.409541
1.04661	0.450439
