Adsorption isotherm of Nitrogen on 60% PhTEOS
DOI: 10.1007/s10450-019-00075-9
Article source: Figure 7A
Adsorbate Nitrogen: InChIKey IJGRMHOSHXDMSA-UHFFFAOYSA-N
Kind: experiment
Temperature: 77 K
Tabular data in the source: 0
pressure (bar)	uptake (mmol/g)
0.026732	0.478992
0.082081	0.421097
0.125515	0.61673
0.197781	0.687996
0.260446	0.82195
0.320642	0.828256
0.364075	1.02389
0.429148	1.1581
0.491783	1.22835
0.532716	1.23264
0.580904	1.30138
0.624245	1.30592
0.674749	1.18383
0.747076	1.38249
0.788009	1.38678
0.84339	1.39258
0.901239	1.52603
0.932511	1.46561
0.971189	1.78813
1.02416	1.79368
1.08965	2.78781
1.12371	3.52386
1.14801	3.97226
1.16245	3.97378
1.20128	4.61479
