Adsorption isotherm of Nitrogen on 20% PhTEOS
DOI: 10.1007/s10450-019-00075-9
Article source: Figure 7A
Adsorbate Nitrogen: InChIKey IJGRMHOSHXDMSA-UHFFFAOYSA-N
Kind: experiment
Temperature: 77 K
Tabular data in the source: 0
pressure (bar)	uptake (mmol/g)
0.010398	1.56008
0.025244	2.38966
0.071453	3.34992
0.141587	3.99421
0.189775	4.06295
0.255063	4.64304
0.317728	4.777
0.368416	5.03708
0.433519	5.23499
0.501215	5.81533
0.532517	5.81861
0.566319	6.01323
0.612191	6.27281
0.674887	6.47047
0.732859	6.85871
0.793178	7.1198
0.863312	7.76409
0.916438	8.08813
0.979318	8.66797
1.0497	9.82184
1.07692	11.3534
1.13649	15.0539
1.17506	20.1534
1.18753	21.0465
1.2142	21.4314
