Adsorption isotherm of Nitrogen on 50% PhTEOS
DOI: 10.1007/s10450-019-00075-9
Article source: Figure S5
Adsorbate Nitrogen: InChIKey IJGRMHOSHXDMSA-UHFFFAOYSA-N
Kind: experiment
Temperature: 77 K
Tabular data in the source: 0
pressure (bar)	uptake (mmol/g)
0.002163	0.653377
0.002221	0.939094
0.008363	1.18424
0.018582	1.51118
0.049148	2.04303
0.09184	2.28964
0.144643	2.33259
0.211719	2.66182
0.276714	2.74607
0.315311	2.82926
0.37017	2.99473
0.398607	3.03669
0.429098	3.20119
0.457526	3.20233
0.492055	3.24454
0.567203	3.3292
0.626131	3.53566
0.676912	3.61933
0.743937	3.70367
0.76629	3.7862
0.817096	3.99233
0.876074	4.44368
0.951388	5.34468
0.949498	6.03848
0.963928	7.10028
0.972647	10.0394
0.993135	10.9382
1.01351	11.2655
0.966671	10.6106
0.9461	9.30365
0.915186	7.0575
0.845665	4.68736
0.811079	4.35943
0.756204	4.11232
0.701328	3.86522
0.664803	3.98619
0.611983	3.86162
0.565238	3.65565
0.502265	3.53067
0.455562	3.52878
0.404814	3.60837
0.309319	3.31881
