Adsorption isotherm of Carbon Dioxide on 20% PhTEOS
DOI: 10.1007/s10450-019-00075-9
Article source: Figure 7B
Adsorbate Carbon Dioxide: InChIKey CURLTUGMZLYLDI-UHFFFAOYSA-N
Kind: experiment
Temperature: 273 K
Tabular data in the source: 0
pressure (bar)	uptake (mmol/g)
0.029051	0.116088
0.046532	0.168078
0.056252	0.194078
0.065972	0.220078
0.075678	0.251268
0.099086	0.282527
0.153692	0.360654
0.206476	0.386868
0.278673	0.475463
0.315702	0.537932
0.364558	0.569317
0.493575	0.637434
0.515039	0.663493
0.653898	0.710898
0.692953	0.747424
0.829773	0.825961
0.890373	0.857405
