Adsorption isotherm of Nitrogen on 50% PhTEOS
DOI: 10.1007/s10450-019-00075-9
Article source: Figure 7A
Adsorbate Nitrogen: InChIKey IJGRMHOSHXDMSA-UHFFFAOYSA-N
Kind: experiment
Temperature: 77 K
Tabular data in the source: 0
pressure (bar)	uptake (mmol/g)
0.0196	0.669328
0.019999	1.4974
0.070901	2.20337
0.138413	2.40152
0.208271	2.47253
0.270875	2.47909
0.319185	2.80263
0.364995	2.93481
0.422876	3.13196
0.473532	3.32835
0.524097	3.33365
0.61081	3.40643
0.685576	3.66904
0.755404	3.67635
0.791521	3.68014
0.866195	3.75166
0.912159	4.20233
0.972508	4.52712
1.02567	4.91486
1.09111	5.81344
1.1154	6.26184
1.1375	7.15588
1.16046	9.83344
1.19234	11.047
1.2142	11.4314
