Adsorption isotherm of Nitrogen on 70%PhTEOS
DOI: 10.1007/s10450-019-00075-9
Article source: Figure 7A
Adsorbate Nitrogen: InChIKey IJGRMHOSHXDMSA-UHFFFAOYSA-N
Kind: experiment
Temperature: 77 K
Tabular data in the source: 0
pressure (bar)	uptake (mmol/g)
0.026793	0.606387
0.082112	0.484795
0.137462	0.426899
0.200158	0.624551
0.279555	0.505481
0.318173	0.700609
0.361514	0.70515
0.424241	0.966499
0.484375	0.845411
0.544694	1.10651
0.60486	1.04912
0.681972	1.18458
0.725191	0.934335
0.802426	1.32459
0.855337	1.20275
0.89627	1.20704
0.959058	1.59578
1.02169	1.66604
1.09152	1.67335
1.12538	1.99537
1.15922	2.25369
1.18851	3.08479
1.19857	3.97756
