Adsorption isotherm of Carbon Dioxide on 80% PhTEOS
DOI: 10.1007/s10450-019-00075-9
Article source: Figure 7B
Adsorbate Carbon Dioxide: InChIKey CURLTUGMZLYLDI-UHFFFAOYSA-N
Kind: experiment
Temperature: 273 K
Tabular data in the source: 0
pressure (bar)	uptake (mmol/g)
0.052811	0.0124
0.072345	0.028068
0.097738	0.048956
0.125143	0.049093
0.150563	0.0596
0.213189	0.065102
0.281605	0.101776
0.31877	0.112341
0.35985	0.122927
0.487086	0.123561
0.526154	0.154898
0.66122	0.155571
0.706174	0.181746
0.827551	0.177161
0.874476	0.198156
