Adsorption isotherm of Carbon Dioxide on 60% PhTEOS
DOI: 10.1007/s10450-019-00075-9
Article source: Figure 7B
Adsorbate Carbon Dioxide: InChIKey CURLTUGMZLYLDI-UHFFFAOYSA-N
Kind: experiment
Temperature: 273 K
Tabular data in the source: 0
pressure (bar)	uptake (mmol/g)
0.03514	0.033073
0.062463	0.064351
0.085899	0.085229
0.103489	0.095698
0.119135	0.100966
0.162145	0.121941
0.211014	0.148137
0.279458	0.174429
0.314625	0.200556
0.359661	0.19559
0.492688	0.227395
0.529866	0.232771
0.668698	0.290556
0.692214	0.280293
0.837013	0.301776
0.866281	0.338254
1.03846	0.370254
