Adsorption isotherm of Carbon Dioxide on 70%PhTEOS
DOI: 10.1007/s10450-019-00075-9
Article source: Figure 7B
Adsorbate Carbon Dioxide: InChIKey CURLTUGMZLYLDI-UHFFFAOYSA-N
Kind: experiment
Temperature: 273 K
Tabular data in the source: 0
pressure (bar)	uptake (mmol/g)
0.029321	0.012283
0.048869	0.022761
0.072291	0.048829
0.105528	0.064566
0.140749	0.069932
0.215065	0.096254
0.281619	0.096585
0.316772	0.127902
0.353924	0.143659
0.490866	0.175483
0.663001	0.223054
0.698222	0.22842
0.821448	0.265366
0.882062	0.29162
