Adsorption isotherm of Nitrogen on 10% PhTEOS
DOI: 10.1007/s10450-019-00075-9
Article source: Figure 7A
Adsorbate Nitrogen: InChIKey IJGRMHOSHXDMSA-UHFFFAOYSA-N
Kind: experiment
Temperature: 77 K
Tabular data in the source: 0
pressure (bar)	uptake (mmol/g)
0.012622	1.17815
0.022806	2.32572
0.076146	3.09563
0.141342	3.48463
0.19206	3.80842
0.254787	4.06977
0.324737	4.33187
0.380271	4.65616
0.442997	4.91751
0.4864	5.04944
0.520079	4.98928
0.553789	4.99281
0.602099	5.31634
0.676865	5.57895
0.734837	5.96719
0.797533	6.16484
0.869953	6.5546
0.915824	6.81418
0.95935	7.20091
1.02229	7.90814
1.08548	9.12495
1.11239	10.0195
1.16193	12.8909
1.17319	16.2679
1.19713	20.9838
1.21259	23.0873
