Adsorption isotherm of Carbon Dioxide on 50% PhTEOS
DOI: 10.1007/s10450-019-00075-9
Article source: Figure 7B
Adsorbate Carbon Dioxide: InChIKey CURLTUGMZLYLDI-UHFFFAOYSA-N
Kind: experiment
Temperature: 273 K
Tabular data in the source: 0
pressure (bar)	uptake (mmol/g)
0.048815	0.043522
0.070293	0.06439
0.083955	0.080029
0.101545	0.090498
0.126965	0.101005
0.160147	0.137502
0.214902	0.158537
0.279418	0.19
0.318554	0.195385
0.349846	0.205922
0.480807	0.279239
0.519943	0.284624
0.652957	0.32162
0.688137	0.342556
0.832855	0.39518
0.869992	0.416127
1.03635	0.427337
