Adsorption isotherm of Nitrogen on 30% PhTEOS
DOI: 10.1007/s10450-019-00075-9
Article source: Figure 7A
Adsorbate Nitrogen: InChIKey IJGRMHOSHXDMSA-UHFFFAOYSA-N
Kind: experiment
Temperature: 77 K
Tabular data in the source: 0
pressure (bar)	uptake (mmol/g)
-0.002162	0.475965
0.019907	1.3063
0.03963	2.26378
0.073432	2.45841
0.116803	2.52665
0.19663	3.29934
0.271335	3.43456
0.324338	3.5038
0.377433	3.76414
0.452169	3.96305
0.488286	3.96684
0.55086	3.9097
0.606455	4.36138
0.688413	4.56106
0.746324	4.8219
0.811367	4.89241
0.857147	4.9609
0.917557	5.41309
0.956144	5.54452
1.04819	6.70066
1.11526	10.9752
1.13017	11.9322
1.15962	13.0818
1.18619	13.2756
1.21027	13.2781
