Adsorption isotherm of Carbon Dioxide on 10% PhTEOS
DOI: 10.1007/s10450-019-00075-9
Article source: Figure 7B
Adsorbate Carbon Dioxide: InChIKey CURLTUGMZLYLDI-UHFFFAOYSA-N
Kind: experiment
Temperature: 273 K
Tabular data in the source: 0
pressure (bar)	uptake (mmol/g)
0.021315	0.079717
0.042631	0.162868
0.050366	0.199239
0.062016	0.235629
0.069805	0.251239
0.081455	0.287629
0.09509	0.313649
0.139936	0.381346
0.200414	0.459502
0.278469	0.553317
0.303876	0.569015
0.342971	0.589971
0.489457	0.715268
0.516848	0.720595
0.6536	0.825083
0.698581	0.840878
0.835469	0.893463
0.874578	0.909229
