Adsorption isotherm of Bromine on Graphene
DOI: 10.1021/nn500265f
Adsorbate Bromine: InChIKey GDTBXPJZTBHREO-UHFFFAOYSA-N
Temperature: 298 K
Tabular data in the source: 0
pressure (bar)	uptake (coverage)
0.000156227	0.0028777
0.000174959	-0.00107914
0.000240238	0.0028777
0.000369425	0.00683453
0.000542924	0.0107914
0.000712479	0.018705
0.000934986	0.0226619
0.00131325	0.0384892
0.00164705	0.0464029
0.00211302	0.0622302
0.0029014	0.0780576
0.00339985	0.0899281
0.00426404	0.113669
0.00547039	0.13741
0.00670721	0.165108
0.00822369	0.196763
0.00963649	0.228417
0.011292	0.252158
0.013232	0.279856
0.015158	0.315468
0.0173641	0.343165
0.0190109	0.366906
0.0203476	0.382734
0.0227873	0.410432
0.0261038	0.438129
0.0292336	0.461871
0.0327388	0.501439
0.0383639	0.533094
0.0470374	0.580576
0.0551179	0.620144
0.0660668	0.667626
0.0791905	0.699281
0.0886856	0.730935
0.103921	0.754676
0.121776	0.782374
0.1395	0.806115
0.171042	0.83777
0.200426	0.857554
0.240239	0.881295
0.294553	0.901079
0.369422	0.916906
0.432895	0.928777
0.518875	0.936691
0.650763	0.952518
