Adsorption isotherm of Bromine on Graphene
DOI: 10.1021/nn500265f
Adsorbate Bromine: InChIKey GDTBXPJZTBHREO-UHFFFAOYSA-N
Temperature: 298 K
Tabular data in the source: 0
pressure (bar)	uptake (coverage)
0.000209712	0.0345324
0.000308203	0.0543165
0.000696524	0.0701439
0.000873567	0.113669
0.00247602	0.184892
0.00701801	0.283813
0.0158604	0.323381
0.0350407	0.481655
0.070712	0.552878
0.127419	0.679496
