Adsorption isotherm of Bromine on Graphene
DOI: 10.1021/nn500265f
Adsorbate Bromine: InChIKey GDTBXPJZTBHREO-UHFFFAOYSA-N
Temperature: 298 K
Tabular data in the source: 0
pressure (bar)	uptake (coverage)
0.000136376	0.0226619
0.000171041	0.0266187
0.000240238	0.042446
0.000345158	0.0543165
0.000442807	0.0661871
0.000555361	0.0741007
0.000762571	0.0978417
0.000978311	0.113669
0.00131325	0.133453
0.00168477	0.149281
0.0020657	0.173022
0.00271082	0.196763
0.00332372	0.216547
0.00426404	0.236331
0.0055957	0.264029
0.00734323	0.295683
0.00920973	0.319424
0.010792	0.335252
0.0144868	0.366906
0.0190109	0.398561
0.0238431	0.422302
0.0312891	0.453957
0.0410604	0.485612
0.0503446	0.509353
0.0603452	0.533094
0.0866988	0.572662
0.103921	0.592446
0.130336	0.620144
0.159806	0.639928
0.205018	0.667626
0.245738	0.68741
0.3082	0.711151
0.395397	0.738849
0.518875	0.766547
0.665676	0.786331
