Adsorption isotherm of Bromine on Graphene
DOI: 10.1021/nn500265f
Adsorbate Bromine: InChIKey GDTBXPJZTBHREO-UHFFFAOYSA-N
Temperature: 298 K
Tabular data in the source: 0
pressure (bar)	uptake (coverage)
0.00018726	0.0384892
0.000229598	0.0622302
0.000484796	0.0741007
0.000797907	0.12554
0.00109561	0.129496
0.00283643	0.180935
0.00717879	0.323381
0.0173641	0.36295
0.0401414	0.556835
0.0756838	0.552878
0.130336	0.996043
0.240239	1
