Adsorption isotherm of Carbon Dioxide, Methane on Sodium chabazite
DOI: 10.1021/je200812y
Article source: Table 3
Adsorbate Carbon Dioxide: InChIKey CURLTUGMZLYLDI-UHFFFAOYSA-N
Adsorbate Methane: InChIKey VNWKTOKETHGBQD-UHFFFAOYSA-N
Kind: experiment
Temperature: 304 K
Tabular data in the source: 0
pressure (bar)	Carbon Dioxide fraction	Carbon Dioxide uptake (mmol/g)	Methane fraction	Methane uptake (mmol/g)	total uptake (mmol/g)
6.399	0.00067	0.36	0.99933	1.36	
11.841	0.000842	0.62	0.999158	1.49	
17.342	0.001126	0.87	0.998874	1.54	
22.096	0.001528	1.09	0.998472	1.51	
27.438	0.002298	1.33	0.997702	1.44	
17.704	0.002358	1.32	0.997642	1.29	
10.042	0.002942	1.31	0.997058	1.09	
3.749	0.004727	1.3	0.995273	0.93	
