Adsorption isotherm of Carbon Dioxide on Sodium chabazite
DOI: 10.1021/je200812y
Article source: Table 1
Adsorbate Carbon Dioxide: InChIKey CURLTUGMZLYLDI-UHFFFAOYSA-N
Kind: experiment
Temperature: 304 K
Tabular data in the source: 0
pressure (bar)	uptake (mmol/g)
0.058	2.37
0.985	3.27
2.44	3.57
7.572	4
19.61	4.56
29.951	5.09
12.095	4.42
4.712	4.02
1.889	3.72
