Adsorption isotherm of Methane on Sodium chabazite
DOI: 10.1021/je200812y
Article source: Table 1
Adsorbate Methane: InChIKey VNWKTOKETHGBQD-UHFFFAOYSA-N
Kind: experiment
Temperature: 304 K
Tabular data in the source: 0
pressure (bar)	uptake (mmol/g)
0.701	1.48
19.448	2.9
29.725	3.08
13.995	2.82
6.168	2.43
2.719	2.03
1.22	1.69
