Adsorption isotherm of Carbon Dioxide, Methane on Sodium chabazite
DOI: 10.1021/je200812y
Article source: Table 3
Adsorbate Carbon Dioxide: InChIKey CURLTUGMZLYLDI-UHFFFAOYSA-N
Adsorbate Methane: InChIKey VNWKTOKETHGBQD-UHFFFAOYSA-N
Kind: experiment
Temperature: 244 K
Tabular data in the source: 0
pressure (bar)	Carbon Dioxide fraction	Carbon Dioxide uptake (mmol/g)	Methane fraction	Methane uptake (mmol/g)	total uptake (mmol/g)
6.226	0.000123	0.44	0.999877	2.11	
9.899	0.000153	0.67	0.999847	2.16	
15.107	0.000215	1	0.999785	2.06	
19.989	0.000229	1.32	0.999771	1.9	
25.522	0.000257	1.72	0.999743	1.65	
19.913	0.000241	1.68	0.999759	1.62	
12.912	0.000258	1.6	0.999742	1.67	
10.032	0.000264	1.6	0.999736	1.61	
4.488	0.000332	1.6	0.999668	1.59	
