Adsorption isotherm of Methane on Graphite
DOI: 10.1021/la7034938
Adsorbate Methane: InChIKey VNWKTOKETHGBQD-UHFFFAOYSA-N
Temperature: 80 K
Tabular data in the source: 0
pressure (bar)	uptake (mol/m2)
0.000197044	8.85496e-06
0.00182266	8.85496e-06
0.00251232	9.46565e-06
0.00315271	9.46565e-06
0.00472906	9.46565e-06
0.00571429	9.77099e-06
0.00674877	1.03817e-05
0.00714286	1.31298e-05
0.00748768	1.64885e-05
0.0079803	1.61832e-05
0.00881773	1.70992e-05
0.00970443	1.77099e-05
0.0105911	1.74046e-05
0.0116256	1.77099e-05
0.0123645	1.80153e-05
0.013202	1.8626e-05
0.0137931	1.80153e-05
0.0144335	2.01527e-05
0.0147783	2.38168e-05
0.0153695	2.74809e-05
0.0156158	2.71756e-05
0.0159606	2.90076e-05
0.0163054	3.45038e-05
0.016798	3.38931e-05
0.0170936	3.57252e-05
0.0174384	3.63359e-05
0.0178818	3.9084e-05
0.0179803	4.30534e-05
0.0181281	4.51908e-05
0.0184729	4.94656e-05
0.0186207	5.34351e-05
0.018867	5.46565e-05
0.0190148	5.43511e-05
0.0191626	5.67939e-05
0.0193596	6.0458e-05
