Adsorption isotherm of Methane on Graphite
DOI: 10.1021/la7034938
Adsorbate Methane: InChIKey VNWKTOKETHGBQD-UHFFFAOYSA-N
Temperature: 113 K
Tabular data in the source: 0
pressure (bar)	uptake (mol/m2)
0.00013584	4.37e-06
0.00771739	8.19e-06
0.0500314	9.01e-06
0.0848828	9.83e-06
0.142114	1.04e-05
0.194352	1.04e-05
0.234187	1.15e-05
0.26903	1.2e-05
0.336271	1.45e-05
0.413462	1.69e-05
0.448322	1.8e-05
0.483173	1.88e-05
0.523008	1.99e-05
0.567869	2.27e-05
0.573251	3.58e-05
0.57849	4.42e-05
0.589009	6.25e-05
0.599341	7.48e-05
0.602016	8.08e-05
