Adsorption isotherm of Methane on Graphite
DOI: 10.1021/la7034938
Adsorbate Methane: InChIKey VNWKTOKETHGBQD-UHFFFAOYSA-N
Temperature: 113 K
Tabular data in the source: 0
pressure (bar)	uptake (mol/m2)
0.000203759	6.55e-06
0.00771739	8.19e-06
0.0276518	9.28e-06
0.134651	1.04e-05
0.296393	1.2e-05
0.46317	1.56e-05
0.592617	1.86e-05
0.697163	2.08e-05
