Adsorption isotherm of Methane on Graphite
DOI: 10.1021/la7034938
Adsorbate Methane: InChIKey VNWKTOKETHGBQD-UHFFFAOYSA-N
Temperature: 80 K
Tabular data in the source: 0
pressure (bar)	uptake (mol/m2)
4.93e-05	4.27481e-06
9.85e-05	7.63359e-06
0.000344828	9.16031e-06
0.00147783	9.16031e-06
0.00236453	9.16031e-06
0.0035468	9.16031e-06
0.0044335	9.77099e-06
0.00502463	9.77099e-06
0.00546798	1.34351e-05
0.00571429	1.64885e-05
0.00591133	1.64885e-05
0.00660099	1.67939e-05
0.00748768	1.74046e-05
0.00832512	1.70992e-05
0.00891626	1.74046e-05
0.00970443	1.80153e-05
0.0100493	1.9542e-05
0.0103448	2.59542e-05
0.0106897	2.65649e-05
0.0108374	3.35878e-05
0.0110345	4.61069e-05
0.0110837	5.52672e-05
0.0111823	6.25954e-05
0.0112315	7.26718e-05
0.0112808	8.58015e-05
0.01133	7.78626e-05
