Adsorption isotherm of Methane on Graphite
DOI: 10.1021/la7034938
Adsorbate Methane: InChIKey VNWKTOKETHGBQD-UHFFFAOYSA-N
Temperature: 80 K
Tabular data in the source: 0
pressure (bar)	uptake (mol/m2)
9.85e-05	9.85e-10
0.001133	8.85496e-06
0.00206897	9.16031e-06
0.0035468	9.46565e-06
0.00423645	9.46565e-06
0.0044335	9.77099e-06
0.00507389	1.00763e-05
0.00591133	9.77099e-06
0.00635468	1.00763e-05
0.00669951	1.03817e-05
0.00704433	1.16031e-05
0.00719212	1.37405e-05
0.0073399	1.55725e-05
0.00857143	1.77099e-05
0.0102463	1.80153e-05
0.0121182	1.89313e-05
0.0141379	2.01527e-05
0.0146305	2.16794e-05
0.0149754	2.44275e-05
0.015468	2.65649e-05
0.0168473	2.9313e-05
0.017931	3.23664e-05
0.0185714	3.78626e-05
0.0195074	4.33588e-05
