Adsorption isotherm of Methane on Graphite
DOI: 10.1021/la7034938
Adsorbate Methane: InChIKey VNWKTOKETHGBQD-UHFFFAOYSA-N
Temperature: 103 K
Tabular data in the source: 0
pressure (bar)	uptake (mol/m2)
0.00876712	8.63e-06
0.0273973	8.63e-06
0.050411	8.96e-06
0.0657534	8.96e-06
0.0909589	9.63e-06
0.113973	1.13e-05
0.134795	1.16e-05
0.155616	1.33e-05
0.173151	1.46e-05
0.19726	1.66e-05
0.21589	1.79e-05
0.233425	1.86e-05
0.254247	1.96e-05
0.269589	2.26e-05
0.283836	2.42e-05
0.29589	2.56e-05
0.307945	2.82e-05
0.321096	2.72e-05
0.329863	2.99e-05
0.340822	3.29e-05
0.352877	3.78e-05
0.361644	4.22e-05
0.372603	4.18e-05
0.38137	4.55e-05
0.387945	4.81e-05
