Adsorption isotherm of Methane on Graphite
DOI: 10.1021/la7034938
Adsorbate Methane: InChIKey VNWKTOKETHGBQD-UHFFFAOYSA-N
Temperature: 103 K
Tabular data in the source: 0
pressure (bar)	uptake (mol/m2)
0.00109589	7.3e-06
0.00547945	8.96e-06
0.0120548	9.63e-06
0.029589	9.96e-06
0.08	1.13e-05
0.143562	1.43e-05
0.18411	1.86e-05
0.26411	2.22e-05
0.314521	2.85e-05
0.380274	5.48e-05
