Adsorption isotherm of Methane on Graphite
DOI: 10.1021/la7034938
Adsorbate Methane: InChIKey VNWKTOKETHGBQD-UHFFFAOYSA-N
Temperature: 113 K
Tabular data in the source: 0
pressure (bar)	uptake (mol/m2)
0.000220739	7.1e-06
0.0226767	9.28e-06
0.0649823	9.83e-06
0.112246	9.83e-06
0.179427	1.04e-05
0.224229	1.12e-05
0.26656	1.26e-05
0.298915	1.31e-05
0.358684	1.53e-05
0.423386	1.61e-05
0.485618	1.75e-05
0.550329	1.86e-05
0.612552	1.97e-05
0.662371	2.18e-05
0.722174	2.51e-05
0.767001	2.68e-05
0.801963	3.11e-05
0.831805	3.09e-05
0.871742	3.52e-05
0.901618	3.6e-05
0.931596	4.01e-05
0.954112	4.42e-05
0.97166	4.86e-05
