Adsorption isotherm of Methane on Graphite
DOI: 10.1021/la7034938
Adsorbate Methane: InChIKey VNWKTOKETHGBQD-UHFFFAOYSA-N
Temperature: 103 K
Tabular data in the source: 0
pressure (bar)	uptake (mol/m2)
0.00109589	6.64e-06
0.00657534	8.96e-06
0.0186301	9.63e-06
0.0306849	9.63e-06
0.0460274	9.63e-06
0.0657534	9.96e-06
0.0821918	9.96e-06
0.0953425	1.06e-05
0.110685	1.26e-05
0.130411	1.56e-05
0.14137	1.66e-05
0.154521	1.73e-05
0.168767	1.79e-05
0.185205	1.93e-05
0.199452	1.99e-05
0.210411	2.06e-05
0.218082	2.22e-05
0.225753	2.62e-05
0.227945	3.05e-05
0.230137	3.49e-05
0.231233	3.88e-05
0.232329	4.45e-05
0.233425	5.18e-05
0.234521	5.68e-05
0.235616	6.14e-05
0.237808	6.61e-05
0.238904	7.4e-05
0.24	8.33e-05
0.241096	7.77e-05
