Adsorption isotherm of Nitrogen on PI-COF
DOI: 10.1021/acsami.6b16423
Article source: Figure S3A
Adsorbate Nitrogen: InChIKey IJGRMHOSHXDMSA-UHFFFAOYSA-N
Kind: experiment
Temperature: 77 K
Tabular data in the source: 0
pressure (bar)	uptake (cm3(STP)/g)
0.091351	8.99306
0.091351	19.327
0.091351	29.661
0.091351	39.995
0.092948	50.329
0.092948	61.1797
0.091351	70.997
0.092948	80.8143
0.092948	90.6316
0.092948	99.9322
0.094545	108.199
0.092948	118.017
0.092948	127.317
0.092948	136.618
0.094545	142.818
0.094545	146.952
0.096142	151.602
0.094545	155.736
0.099336	160.903
0.108917	172.27
0.116901	178.471
0.126483	183.638
0.134467	186.738
0.147242	191.388
0.153629	192.421
0.160017	193.972
0.169598	196.038
0.185567	199.139
0.201536	203.272
0.222295	205.856
0.238264	207.922
0.257426	211.539
0.276589	213.606
0.295751	215.673
0.314913	217.74
0.330882	218.773
0.348448	221.357
0.366013	222.907
0.385176	223.94
0.405935	226.007
0.421904	227.557
0.441066	228.59
0.461826	231.174
0.477794	232.207
0.498554	234.274
0.512926	234.791
0.535282	236.341
0.551251	237.891
0.570413	238.408
0.591172	240.475
0.608738	240.475
0.6279	243.058
0.643869	243.058
0.664628	244.608
0.683791	246.675
0.69976	246.675
0.717325	247.192
0.738085	248.742
0.75565	248.225
0.770022	249.258
0.793975	250.809
0.809944	250.809
0.827509	250.809
0.862641	251.325
0.884997	253.909
0.918531	253.909
0.936097	254.425
0.956856	255.459
0.993584	257.526
1.01115	289.044
1.00317	258.559
0.976019	258.559
0.958453	257.526
0.942484	257.526
0.918531	258.042
0.904159	257.526
0.880206	257.526
0.854656	258.042
0.809944	258.042
0.784394	256.492
0.741278	257.526
0.714132	257.009
0.688582	257.009
0.666225	255.976
0.643869	256.492
0.618319	255.976
0.59756	255.976
0.575204	255.976
0.554444	255.976
0.532088	255.976
0.509732	251.842
0.484182	247.708
0.463423	245.642
0.436276	244.091
0.415516	241.508
0.38837	239.441
0.36761	238.408
0.343657	237.374
0.322898	234.791
0.297348	232.724
0.278185	229.624
0.252635	228.074
0.230279	224.974
0.20952	221.357
0.18397	217.223
0.166404	212.056
0.139257	204.306
0.116901	190.871
