Adsorption isotherm of Nitrogen on C-PDA-2
DOI: 10.1002/aic.15283
Article source: Figure 1A
Adsorbate Nitrogen: InChIKey IJGRMHOSHXDMSA-UHFFFAOYSA-N
Kind: experiment
Temperature: 77 K
Tabular data in the source: 0
pressure (bar)	uptake (mmol/g)
0.010092	12.9389
0.032295	14.7137
0.058534	15.9733
0.079728	16.4313
0.10294	16.8893
0.124133	17.2328
0.144317	17.3473
0.164502	17.5191
0.185695	17.6336
0.203861	17.7481
0.304782	17.9771
0.354234	18.0916
0.404694	18.0916
0.456164	18.1489
0.659016	18.3206
0.759937	18.3779
0.829573	18.3206
0.85985	18.3779
0.887098	18.4351
0.911319	18.4924
0.93655	18.4924
0.962789	18.5496
0.989029	18.7214
1.00013	18.8931
1.00719	18.9504
0.98701	18.7786
0.945633	18.5496
0.918384	18.4924
0.893154	18.4924
0.868933	18.4351
0.841684	18.4351
0.835628	18.4351
0.810398	18.4351
0.742781	18.3206
0.709477	18.3206
0.607546	18.3206
0.557086	18.2061
0.507634	18.2061
0.456164	18.0916
0.335059	17.9771
0.303773	17.9198
0.252303	17.7481
0.202852	17.6336
0.142299	17.2328
