Adsorption isotherm of Methane on C-PDA-3
DOI: 10.1002/aic.15283
Article source: Figure S4
Adsorbate Methane: InChIKey VNWKTOKETHGBQD-UHFFFAOYSA-N
Kind: experiment
Temperature: 298 K
Tabular data in the source: 0
pressure (bar)	uptake (mmol/g)
0.010711	0.026087
0.115871	0.280435
0.209348	0.48913
0.33593	0.723913
0.415774	0.86087
0.552093	1.06957
0.620253	1.16087
0.722493	1.28478
0.824732	1.40217
0.927945	1.51304
0.995131	1.59783
