Adsorption isotherm of Hydrogen on C-PDA-3
DOI: 10.1002/aic.15283
Article source: Figure S4
Adsorbate Hydrogen: InChIKey UFHFLCQGNIYNRP-UHFFFAOYSA-N
Kind: experiment
Temperature: 298 K
Tabular data in the source: 0
pressure (bar)	uptake (mmol/g)
0.010711	0.026087
0.142162	0.058696
0.224927	0.084783
0.347614	0.130435
0.446933	0.169565
0.555015	0.195652
0.655307	0.215217
0.757546	0.247826
0.825706	0.267391
0.91334	0.293478
0.996105	0.313043
