Adsorption isotherm of Nitrogen on C-PDA-3
DOI: 10.1002/aic.15283
Article source: Figure S4
Adsorbate Nitrogen: InChIKey IJGRMHOSHXDMSA-UHFFFAOYSA-N
Kind: experiment
Temperature: 298 K
Tabular data in the source: 0
pressure (bar)	uptake (mmol/g)
0.010711	0.013043
0.115871	0.071739
0.195716	0.15
0.278481	0.202174
0.311587	0.234783
0.380721	0.280435
0.51704	0.358696
0.586173	0.41087
0.620253	0.417391
0.689387	0.463043
0.823759	0.528261
0.892892	0.580435
0.996105	0.632609
