Adsorption isotherm of Carbon Dioxide on C-PDA-4
DOI: 10.1002/aic.15283
Article source: Figure 7
Adsorbate Carbon Dioxide: InChIKey CURLTUGMZLYLDI-UHFFFAOYSA-N
Kind: experiment
Temperature: 303 K
Tabular data in the source: 0
pressure (bar)	uptake (mmol/g)
1.00407	2.21538
2.50381	5.22831
5.00763	9.34892
7.49873	12.8271
10.0025	15.8843
12.4936	18.6314
14.9975	21.2234
17.5013	23.7268
19.9924	26.0086
22.4962	28.3126
25	30.6388
