Adsorption isotherm of Carbon Dioxide on C-PDA-2
DOI: 10.1002/aic.15283
Article source: Figure 7
Adsorbate Carbon Dioxide: InChIKey CURLTUGMZLYLDI-UHFFFAOYSA-N
Kind: experiment
Temperature: 303 K
Tabular data in the source: 0
pressure (bar)	uptake (mmol/g)
0.978648	4.09846
2.47839	6.22523
5.00763	7.88677
7.49873	8.928
10.0025	9.37108
12.5191	9.74769
14.9847	10.0578
17.5013	10.4345
20.0051	10.656
22.4962	10.9662
25	11.1212
