Adsorption isotherm of Carbon Dioxide on C-PDA-3
DOI: 10.1002/aic.15283
Article source: Figure 6
Adsorbate Carbon Dioxide: InChIKey CURLTUGMZLYLDI-UHFFFAOYSA-N
Kind: experiment
Temperature: 298 K
Tabular data in the source: 0
pressure (bar)	uptake (mmol/g)
0.011336	0.192787
0.124692	1.34164
0.207491	1.94754
0.312962	2.65967
0.437654	3.3482
0.562839	3.97771
0.669788	4.45377
0.750123	4.81574
0.873829	5.33902
0.997043	5.83082
