Adsorption isotherm of Nitrogen on C-PDA-3
DOI: 10.1002/aic.15283
Article source: Figure 1A
Adsorbate Nitrogen: InChIKey IJGRMHOSHXDMSA-UHFFFAOYSA-N
Kind: experiment
Temperature: 77 K
Tabular data in the source: 0
pressure (bar)	uptake (mmol/g)
0.002018	0.572519
0	1.25954
0	1.94657
0	2.51908
0	3.20611
0.001009	4.46565
0	5.03817
0	5.83969
0	7.09924
0	7.67176
0	8.64504
0	9.67557
0	10.1336
0	11.2214
0	12.3664
0	13.4542
0	14.771
0	15.8588
0.009083	19.9809
0.030276	22.3282
0.061562	24.5611
0.090829	25.8779
0.10294	26.2214
0.124133	26.7366
0.143308	27.0229
0.165511	27.4809
0.185695	27.7672
0.203861	27.8244
0.252303	28.0534
0.303773	28.2824
0.354234	28.626
0.403685	28.7405
0.456164	28.855
0.505616	29.084
0.829573	29.542
0.85985	29.5992
0.887098	29.6565
0.912329	29.7137
0.938568	29.771
0.96178	30.0573
0.98701	30.1145
0.991047	30.229
1.00316	30.5725
1.00719	30.8015
0.98701	30.3435
0.970863	30.1145
0.944624	29.8855
0.917375	29.7137
0.891135	29.6565
0.867923	29.5992
0.841684	29.542
0.834619	29.542
0.809389	29.542
0.758928	29.4847
0.707458	29.313
0.658007	29.2557
0.606537	29.2557
0.556076	29.084
0.506625	29.084
0.456164	28.9122
0.405704	28.626
0.355243	28.5114
0.303773	28.3397
0.253312	28.0534
0.202852	27.5954
0.143308	26.9084
