Adsorption isotherm of Carbon Dioxide on C-PDA-4
DOI: 10.1002/aic.15283
Article source: Figure 6
Adsorbate Carbon Dioxide: InChIKey CURLTUGMZLYLDI-UHFFFAOYSA-N
Kind: experiment
Temperature: 298 K
Tabular data in the source: 0
pressure (bar)	uptake (mmol/g)
0.007393	0.07082
0.116313	0.692459
0.240513	1.33771
0.337605	1.78229
0.444554	2.24656
0.555446	2.69115
0.665352	3.11213
0.776244	3.51344
0.885658	3.92262
0.996057	4.3082
