Adsorption isotherm of Carbon Dioxide on C-PDA-5
DOI: 10.1002/aic.15283
Article source: Figure 6
Adsorbate Carbon Dioxide: InChIKey CURLTUGMZLYLDI-UHFFFAOYSA-N
Kind: experiment
Temperature: 298 K
Tabular data in the source: 0
pressure (bar)	uptake (mmol/g)
0.061114	0.216393
0.112371	0.393443
0.225727	0.75541
0.337112	1.09771
0.44554	1.40852
0.554953	1.72328
0.665352	2.02623
0.775752	2.32131
0.885658	2.62033
0.99655	2.90361
