Adsorption isotherm of Carbon Dioxide on C-PDA-3
DOI: 10.1002/aic.15283
Article source: Figure 7
Adsorbate Carbon Dioxide: InChIKey CURLTUGMZLYLDI-UHFFFAOYSA-N
Kind: experiment
Temperature: 303 K
Tabular data in the source: 0
pressure (bar)	uptake (mmol/g)
0.991357	4.94031
2.50381	6.66831
5.00763	8.59569
7.52415	10.2572
9.98983	11.3871
12.5064	12.2068
14.9847	12.8049
17.514	13.3588
20.0051	13.9126
22.5089	14.2228
25	14.7545
