Adsorption isotherm of Nitrogen on C-PDA-4
DOI: 10.1002/aic.15283
Article source: Figure 1A
Adsorbate Nitrogen: InChIKey IJGRMHOSHXDMSA-UHFFFAOYSA-N
Kind: experiment
Temperature: 77 K
Tabular data in the source: 0
pressure (bar)	uptake (mmol/g)
0	1.71756
0	2.9771
0	4.35114
0	5.66794
0	6.87023
0	8.30153
0	9.56107
0	10.6489
0	12.0229
0	13.0534
0	14.4275
0	15.5725
0.001009	16.5458
0.014129	23.8168
0.028258	25.9924
0.062571	29.542
0.0767	30.8015
0.100921	32.6908
0.119087	34.2366
0.142299	35.8397
0.161474	37.2137
0.182668	38.7023
0.202852	40.1908
0.249276	43.2824
0.305792	46.7748
0.353225	49.4084
0.403685	51.7557
0.456164	53.7023
0.507634	54.7901
0.558095	55.8779
0.607546	56.5649
0.656998	56.8511
0.707458	57.0229
0.759937	57.1374
0.810398	57.2519
0.829573	57.3092
0.878015	57.2519
0.886089	57.1374
0.929485	57.3664
0.93655	57.3664
0.976918	57.4809
0.991047	57.8244
1.00013	58.1107
1.00518	58.4542
0.984992	57.8244
0.970863	57.4809
0.944624	57.5954
0.919393	57.2519
0.893154	57.3092
0.868933	57.4809
0.841684	57.5954
0.817463	57.7099
0.791223	57.5382
0.741772	57.5954
0.690302	57.0802
0.639841	56.7939
0.583325	56.3359
0.540938	55.7634
0.505616	55.4198
0.459192	54.5038
0.408731	52.6145
0.358271	50.4962
0.311847	47.5763
0.25634	44.1412
0.206889	40.6489
0.145327	36.6985
