Adsorption isotherm of Carbon Dioxide on C-PDA-5
DOI: 10.1002/aic.15283
Article source: Figure 7
Adsorbate Carbon Dioxide: InChIKey CURLTUGMZLYLDI-UHFFFAOYSA-N
Kind: experiment
Temperature: 303 K
Tabular data in the source: 0
pressure (bar)	uptake (mmol/g)
1.00407	2.83569
2.50381	5.02892
4.98221	7.75385
7.49873	10.368
10.0025	12.4062
12.5064	14.3778
15.0102	16.2609
17.5013	18.0997
20.0051	19.7834
22.4962	21.5114
25.0127	22.9735
