Adsorption isotherm of Carbon Dioxide on C-PDA-2
DOI: 10.1002/aic.15283
Article source: Figure 6
Adsorbate Carbon Dioxide: InChIKey CURLTUGMZLYLDI-UHFFFAOYSA-N
Kind: experiment
Temperature: 298 K
Tabular data in the source: 0
pressure (bar)	uptake (mmol/g)
0.008379	0.059016
0.125185	0.676721
0.219813	1.12131
0.336619	1.66033
0.445047	2.12853
0.555446	2.56131
0.66486	2.96656
0.775259	3.33639
0.884672	3.7141
0.995564	4.10754
