Adsorption isotherm of Nitrogen on C-PDA-5
DOI: 10.1002/aic.15283
Article source: Figure 1A
Adsorbate Nitrogen: InChIKey IJGRMHOSHXDMSA-UHFFFAOYSA-N
Kind: experiment
Temperature: 77 K
Tabular data in the source: 0
pressure (bar)	uptake (mmol/g)
0	0.458015
0	1.14504
0	1.71756
0	2.23282
0	2.74809
0	3.32061
0	3.83588
0	4.46565
0	4.92366
0	5.49618
0	6.0687
0	6.58397
0	7.15649
0	7.6145
0	8.18702
0	8.75954
0	9.27481
0	9.79008
0	10.2481
0	10.8206
0	11.2786
0	11.8511
0	12.3664
0	12.9389
0	13.3969
0	13.9695
0	14.542
0	15
0	15.5725
0	16.145
0	16.6031
0	17.1756
0	17.8053
0.001009	18.3206
0.003028	18.8931
0.004037	19.6374
0.005046	19.9809
0.006055	20.7252
0.008074	20.8969
0.009083	21.4122
0.028258	24.1603
0.058534	26.5649
0.0767	28.1679
0.099912	29.771
0.121106	30.9733
0.140281	32.2328
0.161474	33.3206
0.181658	34.2939
0.201843	35.3817
0.252303	37.3282
0.308819	39.4466
0.362308	40.7634
0.402676	41.6794
0.455155	42.3664
0.505616	42.8244
0.556076	43.1107
0.607546	43.3969
0.656998	43.5115
0.707458	43.7977
0.758928	43.9122
0.80838	44.084
0.831592	44.084
0.85985	44.1985
0.884071	44.3702
0.913338	44.4847
0.93655	44.771
0.962789	45
0.984992	45.6298
0.991047	45.8588
1.00316	46.2595
1.00719	46.6031
0.986001	46.0878
0.946642	45.229
0.918384	44.8855
0.894163	44.7137
0.867923	44.6565
0.839665	44.542
0.834619	44.4847
0.810398	44.3702
0.760947	44.1985
0.709477	44.084
0.656998	43.855
0.607546	43.6832
0.557086	43.4542
0.506625	43.2824
0.457174	42.9389
0.405704	42.0802
0.354234	40.9351
0.302764	39.5038
0.252303	37.6718
0.201843	35.3817
0.142299	32.3473
0.080737	28.4542
