Adsorption isotherm of Carbon Dioxide on Zn(Im)1.05(5-NibIM)0.95
DOI: 10.1016/j.micromeso.2011.12.009
Adsorbate Carbon Dioxide: InChIKey CURLTUGMZLYLDI-UHFFFAOYSA-N
Temperature: 303 K
Tabular data in the source: 0
pressure (bar)	uptake (mmol/g)
0.0315789	6.17e-05
0.347368	0.147199
0.473684	0.381878
0.694737	0.440918
1.01053	0.617359
1.29474	0.676522
1.61053	0.794355
2.08421	0.883193
4.98947	1.26982
9.69474	1.63066
13.8947	1.8733
