Adsorption isotherm of Carbon Dioxide on Zn(Im)1.2(5-BrbIM)0.8
DOI: 10.1016/j.micromeso.2011.12.009
Adsorbate Carbon Dioxide: InChIKey CURLTUGMZLYLDI-UHFFFAOYSA-N
Temperature: 303 K
Tabular data in the source: 0
pressure (bar)	uptake (mmol/g)
0.189474	0.234802
0.505263	0.469852
0.757895	0.646169
0.978947	0.793121
1.26316	0.998805
1.54737	1.17518
2.11579	1.44003
4.89474	2.64693
7.92632	3.7371
11.7474	4.88742
