Adsorption isotherm of Carbon Dioxide on Co(Im)1.3(5-ClbIM)0.7
DOI: 10.1016/j.micromeso.2011.12.009
Adsorbate Carbon Dioxide: InChIKey CURLTUGMZLYLDI-UHFFFAOYSA-N
Temperature: 303 K
Tabular data in the source: 0
pressure (bar)	uptake (mmol/g)
1.70526	1.29271
1.95789	1.43972
3.97895	2.17627
7.04211	3.06138
9.85263	3.79947
14.7474	4.74676
