Adsorption isotherm of Carbon Dioxide on Zn(Im)1.25(5-ClbIM)0.75
DOI: 10.1016/j.micromeso.2011.12.009
Adsorbate Carbon Dioxide: InChIKey CURLTUGMZLYLDI-UHFFFAOYSA-N
Temperature: 303 K
Tabular data in the source: 0
pressure (bar)	uptake (mmol/g)
0.663158	0.821808
0.852632	1.05661
1.13684	1.49673
1.95789	2.08441
3.91579	3.17249
5.87368	4.14334
7.92632	5.05578
9.91579	5.82157
14.9053	7.41373
