Adsorption isotherm of Methane on Zn(Im)1.25(5-ClbIM)0.75
DOI: 10.1016/j.micromeso.2011.12.009
Adsorbate Methane: InChIKey VNWKTOKETHGBQD-UHFFFAOYSA-N
Temperature: 303 K
Tabular data in the source: 0
pressure (bar)	uptake (mmol/g)
1.03992	0.711111
1.95378	1.03704
2.86765	1.34815
4.88445	1.80741
6.96429	2.19259
8.88655	2.51852
11.9118	2.93333
15.2206	3.28889
