Adsorption isotherm of Methane on Zn(Im)1.2(5-BrbIM)0.8
DOI: 10.1016/j.micromeso.2011.12.009
Adsorbate Methane: InChIKey VNWKTOKETHGBQD-UHFFFAOYSA-N
Temperature: 303 K
Tabular data in the source: 0
pressure (bar)	uptake (mmol/g)
0.157563	0.148148
0.409664	0.296296
0.661765	0.42963
0.85084	0.548148
1.19748	0.696296
1.54412	0.814815
2.04832	0.948148
4.94748	1.7037
8.0042	2.25185
11.8487	2.84444
15.2836	3.33333
