Adsorption isotherm of Methane on Zn(Im)1.1(5-MebIM)0.9
DOI: 10.1016/j.micromeso.2011.12.009
Adsorbate Methane: InChIKey VNWKTOKETHGBQD-UHFFFAOYSA-N
Temperature: 303 K
Tabular data in the source: 0
pressure (bar)	uptake (mmol/g)
0.0945378	0.148148
0.441176	0.325926
0.661765	0.4
0.693277	0.459259
0.945378	0.548148
1.19748	0.651852
2.01681	0.903704
3.97059	1.34815
6.9958	1.83704
9.89496	2.25185
14.7479	2.75556
