Adsorption isotherm of Methane on Zn(Im)1.05(5-NibIM)0.95
DOI: 10.1016/j.micromeso.2011.12.009
Adsorbate Methane: InChIKey VNWKTOKETHGBQD-UHFFFAOYSA-N
Temperature: 303 K
Tabular data in the source: 0
pressure (bar)	uptake (mmol/g)
0.0945378	0
0.346639	0.0296296
0.598739	0.0888889
1.0084	0.133333
1.19748	0.162963
1.54412	0.222222
2.07983	0.266667
4.97899	0.459259
9.83193	0.666667
13.9916	0.785185
