Adsorption isotherm of Carbon Dioxide on Zn(Im)1.1(5-MebIM)0.9
DOI: 10.1016/j.micromeso.2011.12.009
Adsorbate Carbon Dioxide: InChIKey CURLTUGMZLYLDI-UHFFFAOYSA-N
Temperature: 303 K
Tabular data in the source: 0
pressure (bar)	uptake (mmol/g)
0.347368	0.381631
0.473684	0.587006
0.757895	0.880602
0.947368	0.998188
1.2	1.17451
1.98947	1.70352
2.81053	2.02747
3.94737	2.58647
5.49474	3.08766
6.91579	3.61791
8.27368	4.00151
9.85263	4.53207
12.2842	5.1229
14.6842	5.77228
