Adsorption isotherm of Methane on Co(Im)1.3(5-ClbIM)0.7
DOI: 10.1016/j.micromeso.2011.12.009
Adsorbate Methane: InChIKey VNWKTOKETHGBQD-UHFFFAOYSA-N
Temperature: 303 K
Tabular data in the source: 0
pressure (bar)	uptake (mmol/g)
0.283613	0.148148
0.441176	0.222222
0.661765	0.311111
0.976891	0.42963
2.01681	0.696296
3.93908	1.03704
6.96429	1.40741
9.45378	1.65926
9.92647	1.68889
14.3697	2.05926
