Adsorption isotherm of Carbon Dioxide, Methane on Dry Sulcis Coal Province
DOI: 10.1007/s10450-008-9114-0
Article source: Table 3
Adsorbate Carbon Dioxide: InChIKey CURLTUGMZLYLDI-UHFFFAOYSA-N
Adsorbate Methane: InChIKey VNWKTOKETHGBQD-UHFFFAOYSA-N
Kind: experiment
Temperature: 318 K
Tabular data in the source: 0
pressure (bar)	Carbon Dioxide fraction	Carbon Dioxide uptake (mmol/g)	Methane fraction	Methane uptake (mmol/g)	total uptake (mmol/g)
9.3	0.287	0.595	0.713	0.319	
20.1	0.32	0.846	0.68	0.372	
39	0.347	1.065	0.653	0.4	
61.2	0.364	1.177	0.636	0.409	
80.1	0.372	1.233	0.628	0.415	
100.3	0.377	1.272	0.623	0.383	
119.9	0.381	1.278	0.619	0.39	
140.2	0.384	1.282	0.616	0.353	
160.3	0.387	1.25	0.613	0.357	
179.6	0.388	1.23	0.612	0.349	
