Adsorption isotherm of Carbon Dioxide, Methane on Dry Sulcis Coal Province
DOI: 10.1007/s10450-008-9114-0
Article source: Table 3
Adsorbate Carbon Dioxide: InChIKey CURLTUGMZLYLDI-UHFFFAOYSA-N
Adsorbate Methane: InChIKey VNWKTOKETHGBQD-UHFFFAOYSA-N
Kind: experiment
Temperature: 318 K
Tabular data in the source: 0
pressure (bar)	Carbon Dioxide fraction	Carbon Dioxide uptake (mmol/g)	Methane fraction	Methane uptake (mmol/g)	total uptake (mmol/g)
20.5	0.758	1.328	0.242	0.079	
35.2	0.772	1.537	0.228	0.08	
46.6	0.778	1.628	0.222	0.08	
69.7	0.786	1.723	0.214	0.064	
88.3	0.791	1.711	0.209	0.084	
108	0.794	1.645	0.206	0.079	
126.7	0.795	1.563	0.205	0.062	
139.9	0.796	1.49	0.204	0.063	
159.9	0.797	1.41	0.203	0.031	
171.3	0.797	1.368	0.203	0.03	
