Adsorption isotherm of Methane on Dry Sulcis Coal Province
DOI: 10.1007/s10450-008-9114-0
Article source: Table 2
Adsorbate Methane: InChIKey VNWKTOKETHGBQD-UHFFFAOYSA-N
Kind: experiment
Temperature: 318 K
Tabular data in the source: 0
pressure (bar)	uptake (mmol/g)
4.9	0.507
10	0.665
19.8	0.849
30.1	0.959
40.2	1.033
50	1.088
60.1	1.128
69.7	1.16
79.9	1.184
90	1.202
99.8	1.213
109.7	1.221
119.3	1.226
130.2	1.228
139.8	1.222
150.1	1.226
160	1.222
169.8	1.218
179.9	1.212
191	1.207
