Adsorption isotherm of Carbon Dioxide on Dry Sulcis Coal Province
DOI: 10.1007/s10450-008-9114-0
Article source: Table 1
Adsorbate Carbon Dioxide: InChIKey CURLTUGMZLYLDI-UHFFFAOYSA-N
Kind: experiment
Temperature: 318 K
Tabular data in the source: 0
pressure (bar)	uptake (mmol/g)
5.1	1.01
10.1	1.373
14.5	1.517
20.1	1.693
30.2	1.857
40	1.968
49.9	2.017
61.3	2.041
74.2	2.017
81.8	1.982
82.2	1.969
89.4	1.878
93.6	1.783
97	1.689
99.8	1.601
102.7	1.534
107.6	1.449
115.5	1.369
129.3	1.297
144.5	1.246
176.6	1.18
