Adsorption isotherm of Carbon Dioxide, Methane on Dry Sulcis Coal Province
DOI: 10.1007/s10450-008-9114-0
Article source: Table 3
Adsorbate Carbon Dioxide: InChIKey CURLTUGMZLYLDI-UHFFFAOYSA-N
Adsorbate Methane: InChIKey VNWKTOKETHGBQD-UHFFFAOYSA-N
Kind: experiment
Temperature: 318 K
Tabular data in the source: 0
pressure (bar)	Carbon Dioxide fraction	Carbon Dioxide uptake (mmol/g)	Methane fraction	Methane uptake (mmol/g)	total uptake (mmol/g)
9.7	0.118	0.335	0.882	0.463	
20	0.136	0.494	0.864	0.558	
39.5	0.157	0.652	0.843	0.63	
60.8	0.166	0.774	0.834	0.62	
80.8	0.174	0.82	0.826	0.65	
99.8	0.178	0.849	0.822	0.663	
120.2	0.182	0.852	0.818	0.691	
140	0.184	0.873	0.816	0.641	
159.1	0.186	0.881	0.814	0.6	
180.9	0.187	0.893	0.813	0.513	
