Adsorption isotherm of Carbon Dioxide, Methane on Dry Sulcis Coal Province
DOI: 10.1007/s10450-008-9114-0
Article source: Table 3
Adsorbate Carbon Dioxide: InChIKey CURLTUGMZLYLDI-UHFFFAOYSA-N
Adsorbate Methane: InChIKey VNWKTOKETHGBQD-UHFFFAOYSA-N
Kind: experiment
Temperature: 318 K
Tabular data in the source: 0
pressure (bar)	Carbon Dioxide fraction	Carbon Dioxide uptake (mmol/g)	Methane fraction	Methane uptake (mmol/g)	total uptake (mmol/g)
10.4	0.495	0.874	0.505	0.179	
19.3	0.53	1.089	0.47	0.219	
40.5	0.559	1.344	0.441	0.229	
61.1	0.571	1.463	0.429	0.216	
79.3	0.577	1.524	0.423	0.181	
101	0.582	1.539	0.418	0.14	
121	0.585	1.526	0.415	0.105	
140.7	0.589	1.482	0.411	0.13	
160.8	0.591	1.422	0.409	0.114	
180.7	0.592	1.374	0.408	0.113	
190.1	0.592	1.365	0.408	0.083	
