Adsorption isotherm of Ethane on Ni-4PyC
DOI: 10.1021/acs.iecr.9b00997
Article source: Figure 3a
Adsorbate Ethane: InChIKey OTMSDBZUPAUEDD-UHFFFAOYSA-N
Kind: experiment
Temperature: 298 K
Tabular data in the source: 0
pressure (bar)	uptake (mmol/g)
0.00627	0.19
0.00896	0.343
0.0273	0.759
0.0393	1.01
0.0764	1.56
0.11	1.92
0.132	2.1
0.163	2.32
0.194	2.5
0.235	2.69
0.287	2.88
0.34	3.03
0.385	3.13
0.436	3.23
0.487	3.32
0.538	3.4
0.589	3.47
0.639	3.53
0.689	3.58
0.74	3.63
0.79	3.68
0.841	3.72
0.892	3.77
0.943	3.79
0.994	3.83
