Adsorption isotherm of Ethene on Ni-4PyC
DOI: 10.1021/acs.iecr.9b00997
Article source: Figure 3a
Adsorbate Ethene: InChIKey VGGSQFUCUMXWEO-UHFFFAOYSA-N
Kind: experiment
Temperature: 298 K
Tabular data in the source: 0
pressure (bar)	uptake (mmol/g)
0.00447	0.102
0.0107	0.207
0.0268	0.472
0.0406	0.684
0.0687	1.02
0.111	1.42
0.132	1.57
0.163	1.78
0.192	1.96
0.235	2.17
0.287	2.38
0.34	2.55
0.386	2.68
0.437	2.8
0.487	2.91
0.538	3
0.587	3.09
0.64	3.16
0.688	3.23
0.74	3.3
0.791	3.35
0.841	3.41
0.892	3.46
0.942	3.5
0.993	3.55
