Adsorption isotherm of Carbon Dioxide on Vacuuated CuMOF with silica filler
DOI: 10.1016/j.jssc.2014.09.022
Article source: Figure 5b
Adsorbate Carbon Dioxide: InChIKey CURLTUGMZLYLDI-UHFFFAOYSA-N
Kind: experiment
Temperature: 273 K
Tabular data in the source: 0
pressure (bar)	uptake (mg/g)
0	0
0.035131	2.00573
0.057716	2.86533
0.067753	8.30946
0.085319	5.15759
0.097866	12.3209
0.110412	7.73639
0.117941	16.0458
0.132997	9.74212
0.140525	20.0573
0.158091	12.6074
0.173147	24.0688
0.185694	15.1862
0.195731	27.2206
0.208278	17.4785
0.220825	30.3725
0.233372	20.6304
0.245919	33.5244
0.258465	23.7822
0.271012	37.2493
0.28105	27.2206
0.298615	40.1146
0.311162	30.659
0.31869	43.2665
0.333747	33.8109
0.346293	46.7049
0.363858	36.1032
0.373897	49.5702
0.386442	39.5415
0.401501	52.4355
0.414046	42.4069
0.451686	58.1662
0.459215	48.7106
0.501874	62.4642
0.511913	53.5817
0.549552	67.3352
0.562101	58.4527
0.604759	71.3467
0.609779	64.1834
0.654948	75.0716
0.664983	69.341
0.702626	79.0831
0.715171	74.212
0.75281	82.808
0.762849	79.0831
0.800489	85.9599
0.815547	83.0946
0.853187	89.1117
0.870751	87.3926
0.905884	92.2636
0.920939	91.1175
0.956072	94.5559
0.971127	94.2693
1.01379	97.4212
