Adsorption isotherm of Carbon Dioxide on Vacuuated CuMOF
DOI: 10.1016/j.jssc.2014.09.022
Article source: Figure 5b
Adsorbate Carbon Dioxide: InChIKey CURLTUGMZLYLDI-UHFFFAOYSA-N
Kind: experiment
Temperature: 273 K
Tabular data in the source: 0
pressure (bar)	uptake (mg/g)
0	0
0.007528	4.58453
0.017566	2.5788
0.027603	4.01146
0.04015	6.30372
0.050187	13.467
0.067753	11.1748
0.0803	18.0516
0.100375	14.0401
0.115431	22.063
0.122959	17.192
0.145544	26.0745
0.150562	20.0573
0.178166	22.9226
0.205769	32.0917
0.210787	26.361
0.233372	34.6705
0.243409	30.086
0.255956	37.2493
0.278541	33.2378
0.308653	41.8338
0.311162	35.8166
0.343784	44.1261
0.376407	41.5473
0.381426	46.9914
0.419066	44.1261
0.424085	50.1433
0.451686	46.4183
0.466744	52.7221
0.484309	48.9971
0.514422	51.2894
0.519442	55.8739
0.549552	53.5817
0.577156	59.3123
0.584685	55.5874
0.619815	57.8797
0.644909	62.4642
0.657457	60.1719
0.692587	62.1777
0.720191	65.616
0.72772	63.6103
0.765359	65.616
0.795473	67.0487
0.805508	68.7679
0.833112	68.4814
0.868242	70.2006
0.903375	71.6332
0.941014	72.7794
0.981166	74.4986
1.01128	75.0716
