Adsorption isotherm of Nitrogen on Vacuuated CuMOF with silica filler
DOI: 10.1016/j.jssc.2014.09.022
Article source: Figure 5a
Adsorbate Nitrogen: InChIKey IJGRMHOSHXDMSA-UHFFFAOYSA-N
Kind: experiment
Temperature: 77 K
Tabular data in the source: 0
pressure (bar)	uptake (mg/g)
0	0
0.00023	28.3666
0.007833	67.0421
0.022272	49.8378
0.027299	70.4639
0.049028	53.2535
0.075903	71.2823
0.08063	54.9459
0.107365	55.7828
0.124507	72.1007
0.13896	56.6156
0.168133	58.3101
0.170674	72.0615
0.20215	58.2812
0.2217	72.0182
0.233752	59.9736
0.272629	59.9406
0.275163	72.8325
0.301794	60.7755
0.333473	71.9234
0.335819	61.6062
0.36985	63.2965
0.394219	71.8719
0.403875	64.1273
0.433041	64.9621
0.457401	72.6779
0.467066	65.7929
0.4938	66.6298
0.527874	73.4777
0.530248	66.5989
0.56428	68.2892
0.591057	74.2837
0.595875	69.122
0.629899	69.9527
0.661487	69.9259
0.661529	75.0835
0.693082	70.7587
0.729544	72.447
0.736861	75.8792
0.761138	73.2798
0.790304	74.1146
0.824329	74.9454
0.8268	80.1009
0.914309	84.3246
