Adsorption isotherm of Nitrogen on IRMOF-1
DOI: 10.1021/Es9032309
Adsorbate Nitrogen: InChIKey IJGRMHOSHXDMSA-UHFFFAOYSA-N
Temperature: 298 K
Tabular data in the source: 0
pressure (bar)	uptake (wt%)
0.0448562	0.0186483
0.0828142	0.0311038
0.136294	0.05595
0.191516	0.0622826
0.208772	0.065419
0.227759	0.0623875
0.246733	0.0747881
0.267432	0.0871936
0.350255	0.109038
0.415818	0.130833
0.479664	0.143363
0.498638	0.155764
0.507267	0.155789
0.534865	0.174387
0.619413	0.196237
0.688434	0.211869
0.748823	0.230562
0.772979	0.236805
0.786778	0.246104
0.805749	0.261591
0.888577	0.277263
0.950689	0.299047
1.02143	0.320857
1.03695	0.333248
1.05248	0.339465
1.07146	0.33952
