Adsorption isotherm of Carbon Dioxide on IRMOF-1
DOI: 10.1021/Es9032309
Adsorbate Carbon Dioxide: InChIKey CURLTUGMZLYLDI-UHFFFAOYSA-N
Temperature: 298 K
Tabular data in the source: 0
pressure (bar)	uptake (wt%)
0.0299507	0.107953
0.0565736	0.287096
0.121467	0.610121
0.179704	0.861622
0.221303	1.14822
0.259573	1.32775
0.321138	1.57936
0.356081	1.79443
0.404335	1.93865
0.440941	2.01117
0.48254	2.08387
0.524138	2.22786
0.582375	2.47936
0.625638	2.55211
0.70717	2.80439
0.765408	2.98459
0.825309	3.05789
0.86358	3.20177
0.915161	3.16784
0.971735	3.34799
1.00501	3.4204
1.0516	3.49326
1.0749	3.60099
