Adsorption isotherm of Methane on IRMOF-1
DOI: 10.1021/Es9032309
Adsorbate Methane: InChIKey VNWKTOKETHGBQD-UHFFFAOYSA-N
Temperature: 298 K
Tabular data in the source: 0
pressure (bar)	uptake (wt%)
0.0937485	0.0324283
0.117619	0.0462562
0.182388	0.0671222
0.204546	0.07408
0.226707	0.0833254
0.250571	0.0925781
0.313629	0.106574
0.357947	0.122777
0.386912	0.122902
0.444853	0.1323
0.468715	0.139265
0.495975	0.139382
0.560734	0.151098
0.589702	0.15351
0.62549	0.160526
0.666393	0.169852
0.690246	0.169954
0.736254	0.174727
0.760119	0.18398
0.802711	0.181875
0.847021	0.191215
0.887916	0.193678
0.933932	0.205313
0.976539	0.214646
1.02254	0.217131
1.06345	0.226457
