Adsorption isotherm of Methane on Zeolite 5A
DOI: 10.1021/Es9032309
Adsorbate Methane: InChIKey VNWKTOKETHGBQD-UHFFFAOYSA-N
Temperature: 298 K
Tabular data in the source: 0
pressure (bar)	uptake (wt%)
0.0290316	0.0550265
0.0956305	0.178842
0.169022	0.284385
0.206562	0.330298
0.233878	0.376167
0.26972	0.426647
0.300449	0.477106
0.334576	0.518429
0.366998	0.559744
0.399415	0.596485
0.435254	0.644678
0.467671	0.681418
0.501797	0.722741
0.532516	0.764049
0.568351	0.809954
0.600771	0.848982
0.633196	0.892585
0.667314	0.927045
0.732156	1.00739
0.802099	1.0786
0.865229	1.15208
0.935157	1.21185
0.950522	1.23708
0.981238	1.2761
1.01876	1.306
1.06994	1.36341
