Adsorption isotherm of Nitrous oxide on IRMOF-1
DOI: 10.1021/Es9032309
Adsorbate Nitrous oxide: InChIKey GQPLMRYTRLFLPF-UHFFFAOYSA-N
Temperature: 298 K
Tabular data in the source: 0
pressure (bar)	uptake (wt%)
0.0624967	0.526316
0.10304	0.804954
0.138516	1.05263
0.179057	1.36223
0.214532	1.60991
0.251703	1.79567
0.297323	2.01238
0.331116	2.16718
0.366602	2.29102
0.408836	2.56966
0.4477	2.72446
0.489941	2.91022
0.527112	3.09598
0.571047	3.25077
0.609911	3.40557
0.648769	3.62229
0.682576	3.62229
0.723132	3.74613
0.760311	3.83901
0.804248	3.96285
0.839734	4.08669
0.880296	4.14861
0.917475	4.24149
0.964796	4.33437
1.00536	4.33437
1.03916	4.39628
1.0662	4.48916
