Adsorption isotherm of Nitrogen on MOF-177
DOI: 10.1021/Es9032309
Adsorbate Nitrogen: InChIKey IJGRMHOSHXDMSA-UHFFFAOYSA-N
Temperature: 298 K
Tabular data in the source: 0
pressure (bar)	uptake (wt%)
0.0465767	0.0248261
0.0621067	0.0279575
0.0724618	0.0279875
0.131114	0.0590214
0.200122	0.0900853
0.212197	0.0962931
0.226001	0.0994194
0.236351	0.105622
0.253604	0.111845
0.26568	0.118053
0.351943	0.152253
0.417502	0.18022
0.486506	0.214371
0.500308	0.220584
0.515838	0.223715
0.527911	0.233009
0.54171	0.242308
0.622803	0.267234
0.686636	0.295197
0.755649	0.320088
0.767714	0.338641
0.78151	0.351027
0.795317	0.351067
0.807398	0.351102
0.888483	0.385287
