Adsorption isotherm of Carbon Dioxide on MOF-177
DOI: 10.1021/Es9032309
Adsorbate Carbon Dioxide: InChIKey CURLTUGMZLYLDI-UHFFFAOYSA-N
Temperature: 298 K
Tabular data in the source: 0
pressure (bar)	uptake (wt%)
0.103164	0.752111
0.163065	1.21757
0.193016	1.43248
0.222967	1.61173
0.311155	2.11379
0.34277	2.40005
0.371056	2.6149
0.399343	2.7941
0.429294	3.0803
0.459245	3.18826
0.487531	3.40311
0.519146	3.58241
0.549097	3.76167
0.57572	4.04776
0.60567	4.22702
0.637285	4.37068
0.663908	4.40722
0.695523	4.76478
0.723809	4.94398
0.755424	5.12329
0.785375	5.30254
0.807006	5.51717
0.843612	5.76795
0.866907	5.98263
0.895194	6.19748
0.923481	6.41233
0.951768	6.48458
0.980055	6.66377
1.01001	6.80738
1.03829	7.12918
1.06991	7.37979
