Adsorption isotherm of Methane on MOF-177
DOI: 10.1021/Es9032309
Adsorbate Methane: InChIKey VNWKTOKETHGBQD-UHFFFAOYSA-N
Temperature: 298 K
Tabular data in the source: 0
pressure (bar)	uptake (wt%)
0.0614374	0.0826165
0.099013	0.158268
0.141689	0.224791
0.182656	0.286731
0.230426	0.339551
0.269683	0.396908
0.310625	0.438261
0.353279	0.486483
0.397642	0.539287
0.438583	0.58064
0.476114	0.619689
0.522179	0.670214
0.561408	0.704696
0.604039	0.734617
0.644967	0.764531
0.687596	0.792165
0.730235	0.828949
0.769448	0.849706
0.81037	0.875045
0.852996	0.900391
0.890499	0.916565
0.931416	0.937329
0.972321	0.948942
1.01152	0.960548
1.05585	0.983614
1.06437	0.981363
