Adsorption isotherm of Nitrous oxide on Zeolite 5A
DOI: 10.1021/Es9032309
Adsorbate Nitrous oxide: InChIKey GQPLMRYTRLFLPF-UHFFFAOYSA-N
Temperature: 298 K
Tabular data in the source: 0
pressure (bar)	uptake (wt%)
0.0615678	11.517
0.0716494	12.2291
0.0868176	12.7554
0.105359	13.3746
0.128973	13.9628
0.152598	14.4272
0.172856	14.7368
0.199864	15.1703
0.226888	15.418
0.291069	16.0062
0.323169	16.192
0.362033	16.3467
0.400894	16.5325
0.434687	16.6873
0.461722	16.8111
0.497208	16.935
0.537767	17.0279
0.58171	17.0898
0.618883	17.2446
0.654377	17.2755
0.693246	17.3684
0.733803	17.4923
0.770984	17.5542
0.835205	17.678
0.880843	17.678
0.931547	17.7399
0.963663	17.7399
1.00253	17.8328
1.04479	17.8638
