Adsorption isotherm of Nitrous oxide on MOF-177
DOI: 10.1021/Es9032309
Adsorbate Nitrous oxide: InChIKey GQPLMRYTRLFLPF-UHFFFAOYSA-N
Temperature: 298 K
Tabular data in the source: 0
pressure (bar)	uptake (wt%)
0.140292	0.0309598
0.18086	0.0309598
0.219739	-7.11e-15
0.255235	-7.11e-15
0.294105	0.0928793
0.331294	0.0619195
0.365097	0.0928793
0.405667	0.0619195
0.446237	0.0309598
0.481728	0.0928793
0.520605	0.0928793
0.556101	0.0928793
0.594978	0.0928793
0.632157	0.185759
0.669346	0.154799
0.706533	0.154799
0.742032	0.123839
0.816397	0.216718
0.853581	0.247678
0.890765	0.278638
0.927957	0.216718
0.966829	0.278638
1.00402	0.278638
1.03782	0.247678
1.05472	0.278638
