Adsorption isotherm of Nitrogen on Zeolite 5A
DOI: 10.1021/Es9032309
Adsorbate Nitrogen: InChIKey IJGRMHOSHXDMSA-UHFFFAOYSA-N
Temperature: 298 K
Tabular data in the source: 0
pressure (bar)	uptake (wt%)
0.00859197	0.0432347
0.0189364	0.0556104
0.0637233	0.154505
0.0981685	0.237938
0.161916	0.364666
0.232574	0.482154
0.296332	0.596537
0.36355	0.701669
0.40146	0.76968
0.432494	0.806807
0.466957	0.868635
0.492816	0.902661
0.529013	0.955235
0.565211	1.00781
0.597965	1.05111
0.632447	1.09134
0.666922	1.14082
0.728978	1.22742
0.799671	1.30478
0.87037	1.37598
0.928988	1.44713
0.946227	1.46879
0.960024	1.48117
0.98072	1.49667
1.0152	1.53689
1.06176	1.58641
