Adsorption isotherm of Carbon Dioxide on Zeolite 5A
DOI: 10.1021/Es9032309
Adsorbate Carbon Dioxide: InChIKey CURLTUGMZLYLDI-UHFFFAOYSA-N
Temperature: 298 K
Tabular data in the source: 0
pressure (bar)	uptake (wt%)
0.00665572	0.42803
0.00831965	2.88798
0.0382704	10.3756
0.0615654	13.2641
0.1015	15.2975
0.128123	16.154
0.166393	16.8327
0.204663	17.2974
0.236278	17.7619
0.274548	18.191
0.302835	18.4058
0.34277	18.6211
0.37272	18.9073
0.405999	18.9797
0.437614	19.2303
0.500843	19.375
0.570728	19.6626
0.600679	19.7705
0.633957	19.8786
0.665572	19.9509
0.728801	20.0957
0.802014	20.1338
0.926809	20.4588
1.01999	20.4619
1.06658	20.6774
