Adsorption isotherm of Oxygen on Zeolite Li-LSX
DOI: 10.1021/Jp993777r
Adsorbate Oxygen: InChIKey MYMOFIZGZYHOMD-UHFFFAOYSA-N
Temperature: 298 K
Tabular data in the source: 0
pressure (bar)	uptake (mmol/g)
0.0788123	0.0282071
0.298531	0.0739818
0.647826	0.123278
1.01966	0.169052
1.98304	0.295813
4.00557	0.56694
