Adsorption isotherm of Nitrogen on Zeolite Li-LSX
DOI: 10.1021/Jp993777r
Adsorbate Nitrogen: InChIKey IJGRMHOSHXDMSA-UHFFFAOYSA-N
Temperature: 298 K
Tabular data in the source: 0
pressure (bar)	uptake (mmol/g)
0.0721053	0.122819
0.300928	0.594766
0.661324	1.00665
0.752853	1.13107
0.993117	1.32843
1.99994	1.87331
4.0193	2.48255
