Adsorption isotherm of Oxygen on Zeolite Li-LSX
DOI: 10.1021/Jp993777r
Adsorbate Oxygen: InChIKey MYMOFIZGZYHOMD-UHFFFAOYSA-N
Temperature: 298 K
Tabular data in the source: 0
pressure (bar)	uptake (mmol/g)
0.0675447	-0.0337571
0.315432	0.0127218
0.664728	0.0676514
1.01402	0.156384
2.01684	0.270468
4.01121	0.557792
