Adsorption isotherm of Nitrogen on Zeolite Li-LSX
DOI: 10.1021/Jp993777r
Adsorbate Nitrogen: InChIKey IJGRMHOSHXDMSA-UHFFFAOYSA-N
Temperature: 298 K
Tabular data in the source: 0
pressure (bar)	uptake (mmol/g)
0.0731785	0.131032
0.3267	0.65075
0.65346	1.07751
1.02529	1.46202
2.00557	2.07892
4.00557	2.96624
