Adsorption isotherm of Oxygen on Zeolite Li-LSX
DOI: 10.1021/Jp993777r
Adsorbate Oxygen: InChIKey MYMOFIZGZYHOMD-UHFFFAOYSA-N
Temperature: 298 K
Tabular data in the source: 0
pressure (bar)	uptake (mmol/g)
0.281629	0.063426
0.737967	0.156384
1.00839	0.207088
2.00557	0.376102
4.00557	0.667651
