Adsorption isotherm of Oxygen on Zeolite Li-LSX
DOI: 10.1021/Jp993777r
Adsorbate Oxygen: InChIKey MYMOFIZGZYHOMD-UHFFFAOYSA-N
Temperature: 298 K
Tabular data in the source: 0
pressure (bar)	uptake (mmol/g)
0.129516	4.57e-05
0.647826	0.0592007
0.783038	0.126806
1.99431	0.371877
3.99431	0.646525
