Adsorption isotherm of Oxygen on Zeolite Li-LSX
DOI: 10.1021/Jp993777r
Adsorbate Oxygen: InChIKey MYMOFIZGZYHOMD-UHFFFAOYSA-N
Temperature: 298 K
Tabular data in the source: 0
pressure (bar)	uptake (mmol/g)
0.0949876	0.0241388
0.627001	0.109947
0.752853	0.13998
0.998838	0.200046
2.0171	0.363083
4.01358	0.671994
