Adsorption isotherm of Oxygen on Zeolite Li-LSX
DOI: 10.1021/Jp993777r
Adsorbate Oxygen: InChIKey MYMOFIZGZYHOMD-UHFFFAOYSA-N
Temperature: 298 K
Tabular data in the source: 0
pressure (bar)	uptake (mmol/g)
0.0731785	0.0106015
0.315432	0.0422916
0.642193	0.0986297
0.777404	0.151447
0.991488	0.200742
2.02247	0.362714
3.99994	0.658489
