Adsorption isotherm of Nitrogen on Zeolite Li-LSX
DOI: 10.1021/Jp993777r
Adsorbate Nitrogen: InChIKey IJGRMHOSHXDMSA-UHFFFAOYSA-N
Temperature: 298 K
Tabular data in the source: 0
pressure (bar)	uptake (mmol/g)
0.0393756	0.101454
0.106981	0.23244
0.219657	0.481736
0.377404	0.828215
0.597122	1.17892
0.811207	1.26765
1.19994	1.60568
1.59994	1.91413
2.39994	2.16765
3.21121	2.48878
3.99994	2.63667
