Adsorption isotherm of Nitrogen on Zeolite Li-LSX
DOI: 10.1021/Jp993777r
Adsorbate Nitrogen: InChIKey IJGRMHOSHXDMSA-UHFFFAOYSA-N
Temperature: 298 K
Tabular data in the source: 0
pressure (bar)	uptake (mmol/g)
0.0619108	0.109905
0.309798	0.612722
0.664728	1.14512
1.01966	1.44512
1.99431	2.15498
3.98867	2.75075
