Adsorption isotherm of Oxygen on Zeolite Li-LSX
DOI: 10.1021/Jp993777r
Adsorbate Oxygen: InChIKey MYMOFIZGZYHOMD-UHFFFAOYSA-N
Temperature: 298 K
Tabular data in the source: 0
pressure (bar)	uptake (mmol/g)
0.0721053	0.0198484
0.312369	0.0541719
0.661324	0.13998
0.987397	0.157142
2.02282	0.303017
4.01358	0.581895
