Adsorption isotherm of Nitrogen on Zeolite Li-LSX
DOI: 10.1021/Jp993777r
Adsorbate Nitrogen: InChIKey IJGRMHOSHXDMSA-UHFFFAOYSA-N
Temperature: 298 K
Tabular data in the source: 0
pressure (bar)	uptake (mmol/g)
0.0450094	0.177511
0.292897	0.718356
0.647826	1.30145
1.00839	1.76624
2.01121	2.42962
3.98867	3.18174
