Adsorption isotherm of Oxygen on Zeolite Li-LSX
DOI: 10.1021/Jp993777r
Adsorbate Oxygen: InChIKey MYMOFIZGZYHOMD-UHFFFAOYSA-N
Temperature: 298 K
Tabular data in the source: 0
pressure (bar)	uptake (mmol/g)
0.028108	0.0169471
0.292897	0.0676514
0.642193	0.122581
1.00839	0.173285
2.00557	0.283144
4.00557	0.58737
