Adsorption isotherm of Nitrogen on Zeolite Li-LSX
DOI: 10.1021/Jp993777r
Adsorbate Nitrogen: InChIKey IJGRMHOSHXDMSA-UHFFFAOYSA-N
Temperature: 298 K
Tabular data in the source: 0
pressure (bar)	uptake (mmol/g)
0.028108	0.0930035
0.281629	0.53244
0.630925	1.03526
0.743601	1.12399
1.01966	1.34371
1.99431	1.8761
4.02247	2.46765
