Adsorption isotherm of Nitrogen on Zeolite Li-LSX
DOI: 10.1021/Jp993777r
Adsorbate Nitrogen: InChIKey IJGRMHOSHXDMSA-UHFFFAOYSA-N
Temperature: 298 K
Tabular data in the source: 0
pressure (bar)	uptake (mmol/g)
0.0731785	0.10568
0.3267	0.578919
0.664728	0.984553
0.77177	1.09864
1.01966	1.31836
2.01684	1.87188
3.99994	2.47188
