Adsorption isotherm of Oxygen on Zeolite Li-LSX
DOI: 10.1021/Jp993777r
Adsorbate Oxygen: InChIKey MYMOFIZGZYHOMD-UHFFFAOYSA-N
Temperature: 298 K
Tabular data in the source: 0
pressure (bar)	uptake (mmol/g)
0.0337418	4.57e-05
0.118249	0.00849644
0.242193	4.57e-05
0.405573	0.0169471
0.60839	0.0169471
0.794305	0.0211725
1.20557	0.0296232
1.58867	0.0380739
2.3774	0.0761021
3.18867	0.0803274
4.00557	0.101454
