Adsorption isotherm of Hydrogen on MOF-210
DOI: 10.1016/j.micromeso.2013.08.048
Adsorbate Hydrogen: InChIKey UFHFLCQGNIYNRP-UHFFFAOYSA-N
Temperature: 77 K
Tabular data in the source: 0
pressure (bar)	uptake (mg/g)
4.0409	33.9154
5.1592	39.7199
6.13698	45.5233
7.1161	49.9892
8.09523	54.4551
8.93339	59.3657
10.053	63.8327
15.0954	79.9211
20.0018	91.5499
25.0509	100.95
30.1031	107.23
35.0158	112.617
40.0707	116.221
45.1265	118.934
50.3238	120.756
60.017	123.057
