Adsorption isotherm of Methane on MOF-210
DOI: 10.1016/j.micromeso.2013.08.048
Adsorbate Methane: InChIKey VNWKTOKETHGBQD-UHFFFAOYSA-N
Temperature: 298 K
Tabular data in the source: 0
pressure (bar)	uptake (cm3(STP)/cm3)
38.4401	104.885
44.5489	116.866
48.3049	125.255
53.001	135.441
59.5921	144.421
63.3462	153.41
69.4683	161.192
75.1137	170.175
79.8192	177.361
84.5266	183.946
90.6505	191.128
94.4141	197.117
99.5962	203.101
109.019	213.873
118.917	223.443
129.768	231.211
140.141	240.18
149.575	247.351
159.485	253.322
168.923	259.293
179.306	265.262
189.689	271.231
200.078	275.4
