Adsorption isotherm of Methane on MOF-200
DOI: 10.1016/j.micromeso.2013.08.048
Adsorbate Methane: InChIKey VNWKTOKETHGBQD-UHFFFAOYSA-N
Temperature: 298 K
Tabular data in the source: 0
pressure (bar)	uptake (mg/g)
19.1406	188.865
23.8114	227.837
29.4159	275.803
35.0235	314.775
40.6291	359.743
44.8325	395.717
50.4431	425.696
56.0516	461.67
60.2551	497.645
65.8666	524.625
70.0721	554.604
75.6836	581.585
80.3575	611.563
84.5669	629.55
90.6469	656.531
94.8563	674.518
100.002	695.503
109.356	734.475
120.119	764.454
129.943	800.428
139.771	824.411
150.065	854.39
159.894	875.375
169.257	890.364
179.555	911.349
189.853	929.336
199.684	944.325
