Adsorption isotherm of Hydrogen on NU-109
DOI: 10.1016/j.micromeso.2013.08.048
Adsorbate Hydrogen: InChIKey UFHFLCQGNIYNRP-UHFFFAOYSA-N
Temperature: 298 K
Tabular data in the source: 0
pressure (bar)	uptake (mg/g)
101.87	33.8747
120.181	40.3712
139.645	45.9397
160.258	51.0441
180.871	56.1485
199.187	61.7169
249.58	73.3179
299.977	83.9907
350.377	94.1995
398.487	103.944
450.042	112.761
498.161	120.65
