Adsorption isotherm of Hydrogen on NU-100
DOI: 10.1016/j.micromeso.2013.08.048
Adsorbate Hydrogen: InChIKey UFHFLCQGNIYNRP-UHFFFAOYSA-N
Temperature: 77 K
Tabular data in the source: 0
pressure (bar)	uptake (mg/g)
1.65664	29.4391
13.9771	74.1166
26.3236	92.9345
34.8842	103.699
45.2742	111.801
56.5118	115.452
