Adsorption isotherm of Hydrogen on NU-108
DOI: 10.1016/j.micromeso.2013.08.048
Adsorbate Hydrogen: InChIKey UFHFLCQGNIYNRP-UHFFFAOYSA-N
Temperature: 298 K
Tabular data in the source: 0
pressure (bar)	uptake (mg/g)
141.965	41.2993
160.282	46.8677
182.044	51.5081
200.369	55.6845
249.63	64.5012
300.03	74.71
350.441	83.0626
399.703	91.8794
448.969	99.768
498.239	107.193
