Adsorption isotherm of Hydrogen on MOF-210
DOI: 10.1016/j.micromeso.2013.08.048
Adsorbate Hydrogen: InChIKey UFHFLCQGNIYNRP-UHFFFAOYSA-N
Temperature: 77 K
Tabular data in the source: 0
pressure (bar)	uptake (mg/g)
7.82762	41.0773
9.50798	46.8859
13.1537	54.4926
16.3784	61.6504
22.5516	71.0593
26.482	75.1012
30.5533	78.6984
34.3454	80.51
40.2443	83.229
43.7554	85.0385
50.6397	85.9814
55.6982	86.019
