Adsorption isotherm of Methane on MOF-399
DOI: 10.1016/j.micromeso.2013.08.048
Adsorbate Methane: InChIKey VNWKTOKETHGBQD-UHFFFAOYSA-N
Temperature: 298 K
Tabular data in the source: 0
pressure (bar)	uptake (cm3(STP)/cm3)
15.9775	31.1521
20.6735	41.338
25.3733	50.3239
30.0693	60.5098
35.7148	69.4929
39.9455	77.2802
45.1182	86.2646
49.8199	94.6505
55.4672	103.034
60.1708	110.819
64.8744	118.605
70.0527	125.79
75.2291	133.574
80.4093	140.159
85.1166	146.745
90.7697	153.328
95.0061	159.315
100.188	165.299
109.61	176.071
119.504	187.441
129.875	197.01
139.772	207.181
149.671	216.751
159.101	225.123
169.481	232.292
179.385	240.062
189.764	247.231
199.2	253.802
