Adsorption isotherm of Hydrogen on NU-100
DOI: 10.1016/j.micromeso.2013.08.048
Adsorbate Hydrogen: InChIKey UFHFLCQGNIYNRP-UHFFFAOYSA-N
Temperature: 298 K
Tabular data in the source: 0
pressure (bar)	uptake (mg/g)
20.605	6.49652
33.201	9.74478
43.5008	13.4571
52.6592	16.2413
64.1164	18.0974
82.4331	23.6659
103.043	29.2343
121.365	33.8747
139.69	38.051
161.447	43.6195
182.065	47.7958
200.393	51.5081
249.649	61.2529
301.201	70.5336
351.612	78.8863
399.732	86.7749
449.001	94.1995
499.425	100.232
