Adsorption isotherm of Methane on NU-108
DOI: 10.1016/j.micromeso.2013.08.048
Adsorbate Methane: InChIKey VNWKTOKETHGBQD-UHFFFAOYSA-N
Temperature: 298 K
Tabular data in the source: 0
pressure (bar)	uptake (mg/g)
40.1642	349.101
44.837	382.219
49.5108	412.332
54.6539	439.448
60.2634	472.579
64.4718	493.672
71.0242	508.792
75.2326	529.885
79.9113	544.977
84.5891	563.073
89.7343	584.181
95.8182	599.293
100.498	611.381
110.792	641.578
120.622	659.752
130.451	680.93
140.748	705.119
149.174	720.267
160.877	738.468
171.174	759.653
181.007	768.813
190.84	777.974
200.202	796.14
