Adsorption isotherm of Hydrogen on MOF-180
DOI: 10.1016/j.micromeso.2013.08.048
Adsorbate Hydrogen: InChIKey UFHFLCQGNIYNRP-UHFFFAOYSA-N
Temperature: 298 K
Tabular data in the source: 0
pressure (bar)	uptake (mg/g)
13.7375	4.17633
21.7491	6.96056
30.9048	10.2088
41.2072	13.4571
50.3656	16.2413
62.9643	19.0255
82.4251	25.058
100.739	31.0905
121.352	36.1949
141.965	41.2993
160.282	46.8677
180.897	51.5081
200.366	56.1485
249.614	67.2854
300.017	77.0302
350.423	86.3109
398.537	95.1276
448.951	103.016
499.367	110.441
