Adsorption isotherm of Methane on NU-100
DOI: 10.1016/j.micromeso.2013.08.048
Adsorbate Methane: InChIKey VNWKTOKETHGBQD-UHFFFAOYSA-N
Temperature: 298 K
Tabular data in the source: 0
pressure (bar)	uptake (cm3(STP)/cm3)
3.26055	15.5902
4.66009	21.586
6.06531	25.7818
6.99959	29.379
8.4067	32.9748
10.2828	37.7692
16.3765	54.5509
21.0574	69.5368
25.2712	82.7242
29.4849	95.9115
35.1209	107.895
39.8113	119.881
45.451	130.664
49.2014	140.852
55.3178	150.434
60.0195	158.82
64.7193	167.806
70.3685	175.589
75.0721	183.375
80.727	189.358
85.4325	196.544
90.6165	201.928
95.3219	209.114
99.5622	213.901
110.403	224.669
179.281	273.062
188.719	279.034
200.055	282.6
