Adsorption isotherm of Methane on MOF-210
DOI: 10.1016/j.micromeso.2013.08.048
Adsorbate Methane: InChIKey VNWKTOKETHGBQD-UHFFFAOYSA-N
Temperature: 298 K
Tabular data in the source: 0
pressure (bar)	uptake (mg/g)
1.31251	8.57909
2.62502	17.1582
4.10425	23.5925
5.25359	30.0268
6.56698	37.5335
7.71543	45.0402
8.86476	51.4745
9.84826	58.9812
14.7746	85.7909
19.8659	112.601
24.6291	137.265
29.8888	159.786
34.8205	180.161
39.9162	201.609
44.8514	217.694
49.6207	234.853
54.8885	247.721
59.6614	260.59
64.4369	270.241
69.7073	279.893
74.6505	286.327
79.7559	295.979
