Adsorption isotherm of Hydrogen on MOF-200
DOI: 10.1016/j.micromeso.2013.08.048
Adsorbate Hydrogen: InChIKey UFHFLCQGNIYNRP-UHFFFAOYSA-N
Temperature: 298 K
Tabular data in the source: 0
pressure (bar)	uptake (mg/g)
18.3034	7.88863
30.9021	10.6729
41.1993	14.8492
52.6379	19.9536
82.3905	31.0905
100.699	38.051
119.013	44.0835
141.912	50.58
161.373	56.6125
180.833	62.645
199.155	67.2854
249.534	81.2065
299.924	93.2715
350.316	104.872
398.423	115.081
448.823	125.29
498.09	133.179
