Adsorption isotherm of Hydrogen on MOF-399
DOI: 10.1016/j.micromeso.2013.08.048
Adsorbate Hydrogen: InChIKey UFHFLCQGNIYNRP-UHFFFAOYSA-N
Temperature: 298 K
Tabular data in the source: 0
pressure (bar)	uptake (mg/g)
9.13972	6.03248
20.5704	12.529
31.9983	19.4896
42.2849	25.522
52.5687	32.0186
61.7058	38.5151
81.132	50.58
101.71	61.7169
119.992	73.3179
141.72	83.9907
161.157	94.1995
180.599	103.48
198.895	112.761
249.218	136.427
299.554	157.773
349.901	177.262
399.109	195.36
448.323	212.529
499.832	229.234
