Adsorption isotherm of Hydrogen on NU-110
DOI: 10.1016/j.micromeso.2013.08.048
Adsorbate Hydrogen: InChIKey UFHFLCQGNIYNRP-UHFFFAOYSA-N
Temperature: 298 K
Tabular data in the source: 0
pressure (bar)	uptake (mg/g)
29.7473	12.065
41.1966	15.3132
50.347	19.4896
60.6468	23.2019
80.0996	30.6265
100.702	37.587
119.016	43.6195
139.624	49.652
179.695	61.2529
200.308	66.3573
249.54	80.2784
298.793	90.4872
350.332	102.088
398.441	111.833
448.844	121.578
499.252	130.394
