Adsorption isotherm of Hydrogen on MOF-200
DOI: 10.1016/j.micromeso.2013.08.048
Adsorbate Hydrogen: InChIKey UFHFLCQGNIYNRP-UHFFFAOYSA-N
Temperature: 77 K
Tabular data in the source: 0
pressure (bar)	uptake (mg/g)
15.2391	76.8011
20.1468	87.0924
24.9158	95.5992
29.9685	101.433
35.0216	106.821
39.9356	110.87
44.9914	113.583
49.9071	115.849
55.1053	116.779
60.0228	117.261
