Adsorption isotherm of Methane on MOF-399
DOI: 10.1016/j.micromeso.2013.08.048
Adsorbate Methane: InChIKey VNWKTOKETHGBQD-UHFFFAOYSA-N
Temperature: 298 K
Tabular data in the source: 0
pressure (bar)	uptake (mg/g)
15.3995	170.878
20.5317	230.835
26.1352	281.799
30.3316	338.758
35.4668	389.722
40.604	434.69
44.8024	485.653
50.4059	536.617
55.5421	584.582
60.6793	629.55
65.3481	674.518
70.4883	710.493
75.6275	749.465
80.2983	788.437
84.5017	824.411
90.1083	866.381
95.2495	899.358
99.9213	935.332
110.204	1001.28
120.019	1064.24
129.835	1124.2
140.591	1172.16
149.941	1226.12
160.229	1274.09
170.05	1319.06
180.34	1364.03
190.632	1400
199.987	1438.97
