Adsorption isotherm of Methane on NU-110
DOI: 10.1016/j.micromeso.2013.08.048
Adsorbate Methane: InChIKey VNWKTOKETHGBQD-UHFFFAOYSA-N
Temperature: 298 K
Tabular data in the source: 0
pressure (bar)	uptake (mg/g)
2.79526	44.9679
5.13217	59.9572
6.5323	74.9465
7.93144	92.9336
9.79795	113.919
14.9351	158.887
21.0091	203.854
24.2747	242.827
28.9465	278.801
34.5551	314.775
39.6923	359.743
43.8977	389.722
49.5083	419.7
64.0001	503.64
69.6117	530.621
74.7539	560.6
79.8961	590.578
84.5739	608.565
89.2507	629.55
94.8653	647.537
100.011	668.522
109.366	704.497
119.661	734.475
129.955	764.454
139.781	794.433
150.078	815.418
159.907	839.4
169.267	860.385
180.034	878.373
190.332	896.36
199.226	914.347
