Adsorption isotherm of Methane on NU-108
DOI: 10.1016/j.micromeso.2013.08.048
Adsorbate Methane: InChIKey VNWKTOKETHGBQD-UHFFFAOYSA-N
Temperature: 298 K
Tabular data in the source: 0
pressure (bar)	uptake (cm3(STP)/cm3)
20.1042	71.9397
24.7775	89.3257
29.4547	105.512
35.0869	118.695
39.7715	132.481
44.9347	144.465
49.6307	154.651
54.3305	163.637
59.9703	174.42
64.6739	182.206
69.8484	190.59
75.0286	197.175
80.205	204.959
84.4396	211.547
90.0945	217.53
94.8056	222.916
99.9896	228.3
109.416	237.872
119.791	246.241
130.167	254.609
139.129	261.183
149.513	267.151
159.419	274.322
169.333	279.092
179.243	285.062
189.163	288.033
199.077	292.803
