Adsorption isotherm of Methane on MOF-180
DOI: 10.1016/j.micromeso.2013.08.048
Adsorbate Methane: InChIKey VNWKTOKETHGBQD-UHFFFAOYSA-N
Temperature: 298 K
Tabular data in the source: 0
pressure (bar)	uptake (mg/g)
1.39813	20.985
3.26866	29.9786
6.07395	44.9679
7.47409	59.9572
8.40785	68.9507
10.7458	80.9422
15.4166	119.914
20.5567	155.889
24.7592	194.861
29.433	224.839
35.5089	263.812
40.6471	305.782
45.3209	335.76
49.9957	362.741
55.6063	392.719
61.2179	419.7
64.9549	449.679
70.0981	476.66
75.2433	497.645
79.9192	521.627
84.596	542.612
90.2126	554.604
95.8282	569.593
100.502	599.572
110.33	623.555
120.155	656.531
130.451	680.514
140.748	704.497
150.579	719.486
160.408	740.471
169.771	755.46
181.474	773.448
190.838	785.439
200.667	806.424
