Adsorption isotherm of Hydrogen on NU-100
DOI: 10.1016/j.micromeso.2013.08.048
Adsorbate Hydrogen: InChIKey UFHFLCQGNIYNRP-UHFFFAOYSA-N
Temperature: 77 K
Tabular data in the source: 0
pressure (bar)	uptake (mg/g)
1.94259	24.5367
3.19916	32.5715
4.03553	39.2657
5.15427	44.6243
6.13116	51.3194
7.11029	55.7853
8.08896	60.6971
9.06809	65.1629
10.0486	68.2912
15.091	84.3797
20.1383	95.5637
25.0478	104.071
30.1	110.351
35.1541	114.847
39.9284	118.004
45.1252	120.272
50.0418	121.646
54.9594	122.128
60.0183	121.72
