Adsorption isotherm of Hydrogen on NU-100
DOI: 10.1016/j.micromeso.2013.08.048
Adsorbate Hydrogen: InChIKey UFHFLCQGNIYNRP-UHFFFAOYSA-N
Temperature: 77 K
Tabular data in the source: 0
pressure (bar)	uptake (mg/g)
0.138277	2.23033
0.553554	8.47545
0.828318	14.7195
2.08489	22.7543
3.2014	30.3423
4.17873	36.5916
4.87593	41.9471
5.99512	46.8598
7.11476	51.3268
8.09478	54.9009
9.0748	58.4751
10.0548	62.0492
15.1012	74.125
20.0103	83.0786
25.0634	88.4665
30.1179	92.5168
35.1746	94.3378
40.0913	95.7119
45.1498	95.7495
50.0682	95.3402
54.9871	94.485
59.9065	93.184
