Adsorption isotherm of Methane on MOF-210
DOI: 10.1016/j.micromeso.2013.08.048
Adsorbate Methane: InChIKey VNWKTOKETHGBQD-UHFFFAOYSA-N
Temperature: 298 K
Tabular data in the source: 0
pressure (bar)	uptake (mg/g)
65.8941	442.621
70.5688	469.73
75.2446	493.834
80.3868	523.954
85.0646	542.05
90.6801	557.156
95.8283	569.251
100.505	590.351
110.33	623.546
120.623	656.748
129.984	677.918
140.75	699.11
150.579	720.288
159.472	738.447
168.834	756.613
180.537	774.815
190.368	789.984
