Adsorption isotherm of Hydrogen on MOF-210
DOI: 10.1016/j.micromeso.2013.08.048
Adsorbate Hydrogen: InChIKey UFHFLCQGNIYNRP-UHFFFAOYSA-N
Temperature: 77 K
Tabular data in the source: 0
pressure (bar)	uptake (mg/g)
0.556687	5.35446
1.25478	9.81824
2.09071	16.9582
3.209	22.7627
4.04761	27.2275
5.02584	32.5851
6.14638	36.1603
7.12595	40.1803
8.24648	43.7555
8.94547	47.3276
10.0673	49.5653
15.1142	61.1951
20.1651	68.8123
25.0782	73.7532
30.1331	77.3577
35.0489	79.6235
40.1065	80.5528
45.165	80.5904
50.0835	80.1811
55.0015	80.2176
60.0613	78.9177
