Adsorption isotherm of Methane on NU-100
DOI: 10.1016/j.micromeso.2013.08.048
Adsorbate Methane: InChIKey VNWKTOKETHGBQD-UHFFFAOYSA-N
Temperature: 298 K
Tabular data in the source: 0
pressure (bar)	uptake (mg/g)
61.2213	409.503
65.8971	433.608
70.5749	451.704
75.2537	466.796
80.3988	487.903
85.0786	499.99
90.2238	521.098
96.3087	533.206
100.051	548.284
110.346	575.477
120.174	599.659
130.004	617.833
140.771	636.02
150.133	651.182
160.432	669.363
170.263	684.532
180.563	696.704
190.864	708.876
200.227	721.033
