Adsorption isotherm of Methane on MOF-210
DOI: 10.1016/j.micromeso.2013.08.048
Adsorbate Methane: InChIKey VNWKTOKETHGBQD-UHFFFAOYSA-N
Temperature: 298 K
Tabular data in the source: 0
pressure (bar)	uptake (mg/g)
-0.166714	2.14127
1.47661	9.60593
3.28577	15.9989
5.91528	27.7284
7.72355	35.1909
11.1699	56.5352
16.2674	75.7183
19.5541	90.6477
21.0325	98.1145
25.6352	117.304
30.5696	134.351
35.8313	154.601
40.1085	168.448
44.8779	185.496
49.9791	200.401
54.7511	214.241
59.6891	227.01
64.4629	238.71
74.3441	257.83
79.6181	263.107
