Adsorption isotherm of Methane on MOF-180
DOI: 10.1016/j.micromeso.2013.08.048
Adsorbate Methane: InChIKey VNWKTOKETHGBQD-UHFFFAOYSA-N
Temperature: 298 K
Tabular data in the source: 0
pressure (bar)	uptake (cm3(STP)/cm3)
2.81988	5.39154
4.69224	11.3859
6.56649	16.7803
7.02985	19.7789
8.43507	23.9747
9.37125	26.9719
15.4687	42.5536
20.1553	55.7395
24.3652	70.1269
30.0012	82.11
36.1025	96.4917
39.8529	106.68
45.4851	119.864
49.7064	130.651
54.8771	140.235
60.046	150.42
64.7439	160.006
71.335	168.986
75.091	177.375
78.8509	184.563
85.4419	193.544
90.6221	200.128
95.3295	206.714
100.51	213.298
109.461	223.472
119.835	232.44
129.736	241.411
140.113	249.18
149.545	256.951
159.457	262.322
169.834	270.09
179.277	274.262
188.717	279.634
200.049	284.4
