Adsorption isotherm of Hydrogen on MOF-210
DOI: 10.1016/j.micromeso.2013.08.048
Adsorbate Hydrogen: InChIKey UFHFLCQGNIYNRP-UHFFFAOYSA-N
Temperature: 298 K
Tabular data in the source: 0
pressure (bar)	uptake (mg/g)
178.593	53.3643
201.502	58.0046
249.601	69.6056
300.001	79.8144
350.404	89.5592
398.521	97.9118
448.932	106.265
499.343	114.617
