Adsorption isotherm of Methane on NU-109
DOI: 10.1016/j.micromeso.2013.08.048
Adsorbate Methane: InChIKey VNWKTOKETHGBQD-UHFFFAOYSA-N
Temperature: 298 K
Tabular data in the source: 0
pressure (bar)	uptake (mg/g)
30.8261	260.814
34.0968	284.797
40.1727	323.769
44.3761	359.743
50.4521	398.715
55.1269	425.696
59.8027	449.679
64.0071	482.655
70.0901	500.642
89.2688	575.589
94.8794	605.567
100.494	623.555
109.852	653.533
120.613	686.51
129.504	713.49
140.736	740.471
150.097	761.456
160.393	785.439
169.755	803.426
180.523	815.418
190.822	833.405
199.716	848.394
