Adsorption isotherm of Methane on NU-109
DOI: 10.1016/j.micromeso.2013.08.048
Adsorbate Methane: InChIKey VNWKTOKETHGBQD-UHFFFAOYSA-N
Temperature: 298 K
Tabular data in the source: 0
pressure (bar)	uptake (cm3(STP)/cm3)
14.5042	48.5565
20.1345	62.3396
25.2939	75.5241
29.5114	87.5115
34.6746	99.496
38.8959	110.283
65.228	156.404
70.3988	165.989
76.5189	174.37
79.8003	183.361
84.9843	188.745
91.1101	195.327
96.2922	201.311
100.052	208.5
109.478	218.072
119.848	228.24
130.222	237.209
139.177	246.182
149.085	252.753
159.939	259.32
169.844	267.09
179.285	271.862
188.724	277.234
200.057	282
