Adsorption isotherm of Hydrogen on MOF-200
DOI: 10.1016/j.micromeso.2013.08.048
Adsorbate Hydrogen: InChIKey UFHFLCQGNIYNRP-UHFFFAOYSA-N
Temperature: 77 K
Tabular data in the source: 0
pressure (bar)	uptake (mg/g)
2.09474	12.9455
2.65321	16.5165
4.05254	22.3231
6.01392	28.1339
8.39371	37.0687
12.6006	45.5713
14.1432	48.7038
19.616	55.8783
24.5296	60.3734
29.4426	65.3143
34.9196	68.476
40.6771	72.0857
45.7351	72.5692
50.5122	73.0505
55.5702	73.534
