Adsorption isotherm of Methane on MOF-200
DOI: 10.1016/j.micromeso.2013.08.048
Adsorbate Methane: InChIKey VNWKTOKETHGBQD-UHFFFAOYSA-N
Temperature: 298 K
Tabular data in the source: 0
pressure (bar)	uptake (mg/g)
2.29601	16.0858
2.94961	23.5925
3.6041	30.0268
4.75343	36.4611
6.23266	42.8954
6.72132	50.4021
8.03471	57.9088
9.0191	64.3432
9.83853	70.7775
14.9254	102.949
19.8464	136.193
24.6061	165.147
29.6965	193.029
34.7886	218.767
39.8817	243.432
44.6484	263.807
49.5809	283.11
54.6802	300.268
59.7812	315.282
64.7182	329.223
69.6551	343.164
74.7614	351.743
79.7037	359.249
