Adsorption isotherm of Methane on MOF-200
DOI: 10.1016/j.micromeso.2013.08.048
Adsorbate Methane: InChIKey VNWKTOKETHGBQD-UHFFFAOYSA-N
Temperature: 298 K
Tabular data in the source: 0
pressure (bar)	uptake (mg/g)
9.53448	39.4447
12.6553	55.4458
16.4377	69.299
20.3868	81.0109
24.3333	95.9314
28.2806	109.782
35.519	133.215
36.8351	137.475
39.6322	145.994
42.9224	156.645
49.1764	173.674
54.939	186.431
59.8769	199.2
64.4867	209.833
69.0983	218.328
74.3696	226.813
79.4778	233.162
