Adsorption isotherm of Hydrogen on MOF-200
DOI: 10.1016/j.micromeso.2013.08.048
Adsorbate Hydrogen: InChIKey UFHFLCQGNIYNRP-UHFFFAOYSA-N
Temperature: 77 K
Tabular data in the source: 0
pressure (bar)	uptake (mg/g)
5.02003	38.3813
6.27973	43.2951
7.25885	47.7609
8.23843	51.781
9.21845	55.3551
10.1989	58.4834
15.2449	71.005
20.2962	78.1763
25.0675	84.4538
30.2629	88.0593
35.1791	89.8793
40.0958	91.2534
45.1538	91.7368
50.0727	90.8816
55.1317	90.4734
60.0506	89.6182
