Adsorption isotherm of Carbon Dioxide on Zeolite 13X
DOI: 10.1021/Je1002225
Adsorbate Carbon Dioxide: InChIKey CURLTUGMZLYLDI-UHFFFAOYSA-N
Temperature: 293 K
Tabular data in the source: 0
pressure (bar)	uptake (mmol/g)
0.00219011	0.679181
0.00481196	0.434475
0.00743381	1.01128
0.0126775	1.27347
0.0231649	1.60557
0.0651145	2.28725
0.133283	2.8291
0.264375	3.52826
0.534425	4.10506
0.93819	4.52456
