Adsorption isotherm of Carbon Dioxide on CuBTC
DOI: 10.1021/Je1002225
Adsorbate Carbon Dioxide: InChIKey CURLTUGMZLYLDI-UHFFFAOYSA-N
Temperature: 343 K
Tabular data in the source: 0
pressure (bar)	uptake (mmol/g)
0.0126775	0.0149791
0.0651145	0.0674161
0.130661	0.154811
0.28535	0.382038
0.537047	0.766576
0.932946	1.3259
1.01685	1.44826
