Adsorption isotherm of Carbon Dioxide on CuBTC
DOI: 10.1021/Je1002225
Adsorbate Carbon Dioxide: InChIKey CURLTUGMZLYLDI-UHFFFAOYSA-N
Temperature: 318 K
Tabular data in the source: 0
pressure (bar)	uptake (mmol/g)
0.0152994	0.0499371
0.0651145	0.17229
0.130661	0.364559
0.277484	0.836492
0.529182	1.55313
0.93819	2.60187
1.0116	2.75918
