Adsorption isotherm of Carbon Dioxide on Zeolite 13X
DOI: 10.1021/Je1002225
Adsorbate Carbon Dioxide: InChIKey CURLTUGMZLYLDI-UHFFFAOYSA-N
Temperature: 343 K
Tabular data in the source: 0
pressure (bar)	uptake (mmol/g)
0.00219011	0.162303
0.0126775	0.468185
0.141148	1.49508
0.552778	2.47827
0.943434	2.87155
