Adsorption isotherm of Carbon Dioxide on CuBTC
DOI: 10.1021/Je1002225
Adsorbate Carbon Dioxide: InChIKey CURLTUGMZLYLDI-UHFFFAOYSA-N
Temperature: 293 K
Tabular data in the source: 0
pressure (bar)	uptake (mmol/g)
0.00481196	0.0324581
0.0257867	0.17229
0.0624926	0.416996
0.141148	0.958845
0.264375	1.78036
0.537047	3.4059
0.943434	5.31111
