Adsorption isotherm of Nitrogen on Zeolite 13X
DOI: 10.1021/Je1002225
Adsorbate Nitrogen: InChIKey IJGRMHOSHXDMSA-UHFFFAOYSA-N
Temperature: 293 K
Tabular data in the source: 0
pressure (bar)	uptake (mmol/g)
0.00219011	0.0149791
0.0624926	-0.0199789
0.130661	-0.00249988
0.266997	-0.00249988
0.534425	0.0499371
0.93819	0.0848951
