Adsorption isotherm of Carbon Dioxide on Zeolite 13X
DOI: 10.1021/Je1002225
Adsorbate Carbon Dioxide: InChIKey CURLTUGMZLYLDI-UHFFFAOYSA-N
Temperature: 318 K
Tabular data in the source: 0
pressure (bar)	uptake (mmol/g)
0.00481196	0.260622
0.0100557	0.883312
0.0284086	1.22197
0.0677363	1.73541
0.138526	2.20516
0.274862	2.68583
0.539669	3.13373
0.951299	3.58163
