Adsorption isotherm of Carbon Dioxide on Zeolite 13X
DOI: 10.1021/Je1002225
Adsorbate Carbon Dioxide: InChIKey CURLTUGMZLYLDI-UHFFFAOYSA-N
Temperature: 293 K
Tabular data in the source: 0
pressure (bar)	uptake (mmol/g)
0	0.47911
0.00743381	1.02533
0.0152994	1.29844
0.0310304	1.63709
0.0677363	2.28163
0.133283	2.8497
0.266997	3.52701
0.531804	4.12785
0.940812	4.54298
