Adsorption isotherm of Carbon Dioxide on Zeolite 13X
DOI: 10.1021/Je1002225
Adsorbate Carbon Dioxide: InChIKey CURLTUGMZLYLDI-UHFFFAOYSA-N
Temperature: 283 K
Tabular data in the source: 0
pressure (bar)	uptake (mmol/g)
0.00219011	0.752219
0.00219011	1.34214
0.0126775	1.71356
0.0231649	2.12869
0.0703582	2.806
0.146392	3.31945
0.272241	3.75642
0.547535	4.33541
0.946056	4.81608
