Adsorption isotherm of Carbon Dioxide on CuBTC
DOI: 10.1021/Je1002225
Adsorbate Carbon Dioxide: InChIKey CURLTUGMZLYLDI-UHFFFAOYSA-N
Temperature: 283 K
Tabular data in the source: 0
pressure (bar)	uptake (mmol/g)
0.0257867	0.242206
0.0703582	0.679181
0.141148	1.43078
0.272241	2.58439
0.52656	4.50708
0.935568	6.74439
1.02733	7.09397
