Adsorption isotherm of Carbon Dioxide on CuBTC
DOI: 10.1021/Je1002225
Adsorbate Carbon Dioxide: InChIKey CURLTUGMZLYLDI-UHFFFAOYSA-N
Temperature: 293 K
Tabular data in the source: 0
pressure (bar)	uptake (mmol/g)
0.0126775	0.0848951
0.0703582	0.434475
0.141148	0.958845
0.264375	1.76288
0.537047	3.37095
0.948677	5.31111
1.02471	5.62574
