Adsorption isotherm of Carbon Dioxide on Zeolite 13X
DOI: 10.1021/Je1002225
Adsorbate Carbon Dioxide: InChIKey CURLTUGMZLYLDI-UHFFFAOYSA-N
Temperature: 293 K
Tabular data in the source: 0
pressure (bar)	uptake (mol/m2)
0.00219011	0.731618
0.00219011	1.11616
0.00481196	1.658
0.0100557	2.0775
0.0179212	2.61935
0.0598708	3.70305
0.128039	4.61195
0.261753	5.71313
0.534425	6.69195
0.940812	7.35616
