Adsorption isotherm of Nitrogen on CuBTC
DOI: 10.1021/Je1002225
Adsorbate Nitrogen: InChIKey IJGRMHOSHXDMSA-UHFFFAOYSA-N
Temperature: 293 K
Tabular data in the source: 0
pressure (bar)	uptake (mmol/g)
0.00743381	-0.00249988
0.0651145	0.0324581
0.130661	0.0499371
0.266997	0.0848951
0.534425	0.119853
0.932946	0.17229
