Adsorption isotherm of Carbon Dioxide on CuBTC
DOI: 10.1021/Je1002225
Adsorbate Carbon Dioxide: InChIKey CURLTUGMZLYLDI-UHFFFAOYSA-N
Temperature: 293 K
Tabular data in the source: 0
pressure (bar)	uptake (mol/m2)
0.00219011	0.0149791
0.020543	0.137332
0.0624926	0.364559
0.141148	0.731618
0.266997	1.27347
0.537047	2.42708
0.951299	3.77296
