Adsorption isotherm of Nitrogen on CuBTC
DOI: 10.1021/Je1002225
Adsorbate Nitrogen: InChIKey IJGRMHOSHXDMSA-UHFFFAOYSA-N
Temperature: 77 K
Tabular data in the source: 0
pressure (bar)	uptake (cm3(STP)/g)
0.00182509	91.6397
0.00182509	151.068
0.00182509	213.119
0.00182509	304.009
0.00400996	29.5893
0.0105646	327.606
0.0542621	339.841
0.156951	356.446
0.403842	364.312
0.622329	362.564
0.917287	360.816
1.0025	367.808
