Adsorption isotherm of Nitrogen on IRMOF-1
DOI: 10.1021/Cm502399q
Adsorbate Nitrogen: InChIKey IJGRMHOSHXDMSA-UHFFFAOYSA-N
Temperature: 77 K
Tabular data in the source: 0
pressure (bar)	uptake (cm3(STP)/g)
0.00038148	89.8413
0.00396012	132.638
0.0142056	145.517
0.0312087	149.87
0.0447966	149.93
0.0686119	158.591
0.0923908	158.696
0.146761	163.213
0.19094	167.686
0.241912	172.188
0.292886	176.691
0.333649	176.87
0.388038	185.666
0.435614	190.154
0.486568	190.378
0.537541	194.88
0.58172	199.353
0.632675	199.577
0.680251	204.065
0.731206	204.289
0.775385	208.762
0.826376	217.543
0.873988	230.587
0.925071	260.758
0.948976	290.81
0.963636	543.281
