Adsorption isotherm of Carbon Dioxide on IRMOF-1
DOI: 10.1021/Cm502399q
Adsorbate Carbon Dioxide: InChIKey CURLTUGMZLYLDI-UHFFFAOYSA-N
Temperature: 298 K
Tabular data in the source: 0
pressure (bar)	uptake (mmol/g)
0.0553633	0.0403846
0.103806	0.0807692
0.152249	0.115385
0.200692	0.155769
0.256055	0.1875
0.304498	0.222115
0.352941	0.248077
0.404844	0.282692
0.456747	0.311538
0.50519	0.340385
0.553633	0.369231
0.605536	0.398077
0.657439	0.426923
0.705882	0.455769
0.754325	0.484615
0.802768	0.507692
0.858131	0.525
0.903114	0.556731
0.958478	0.585577
0.99654	0.611538
