Adsorption isotherm of Nitrogen on IRMOF-1
DOI: 10.1021/Cm502399q
Adsorbate Nitrogen: InChIKey IJGRMHOSHXDMSA-UHFFFAOYSA-N
Temperature: 77 K
Tabular data in the source: 0
pressure (bar)	uptake (cm3(STP)/g)
0.009319	594.693
0.019728	646.076
0.0197643	654.632
0.0368582	680.376
0.0436703	684.684
0.0674856	693.345
0.0913008	702.006
0.145707	715.08
0.19332	728.124
0.24431	736.905
0.291905	745.67
0.339499	754.436
0.39049	763.217
0.438048	763.426
0.492491	785.056
0.533255	785.236
0.584227	789.738
0.631821	798.504
0.68621	807.3
0.730406	816.051
0.781397	824.831
0.828974	829.319
0.876532	829.528
0.927486	829.753
0.95806	829.887
