Adsorption isotherm of Carbon Dioxide on IRMOF-1
DOI: 10.1021/Cm502399q
Adsorbate Carbon Dioxide: InChIKey CURLTUGMZLYLDI-UHFFFAOYSA-N
Temperature: 298 K
Tabular data in the source: 0
pressure (bar)	uptake (mmol/g)
0.0502629	0.12
0.0817185	0.171429
0.10371	0.222857
0.150849	0.325714
0.204326	0.411429
0.251495	0.497143
0.311281	0.582857
0.355295	0.668571
0.399324	0.745714
0.449662	0.822857
0.500045	0.874286
0.556692	0.951429
0.603891	1.02
0.651089	1.08857
0.704597	1.15714
0.75178	1.23429
0.802178	1.27714
0.852531	1.34571
0.896605	1.39714
0.953282	1.45714
0.991047	1.50857
