Adsorption isotherm of Nitrogen on IRMOF-1
DOI: 10.1021/Cm502399q
Adsorbate Nitrogen: InChIKey IJGRMHOSHXDMSA-UHFFFAOYSA-N
Temperature: 77 K
Tabular data in the source: 0
pressure (bar)	uptake (cm3(STP)/g)
-0.00212538	299.456
0.00477758	325.155
0.00850155	402.176
0.00861054	427.845
0.0155499	462.101
0.0326438	487.844
0.0462499	492.182
0.0530438	492.212
0.0700833	505.121
0.100692	513.812
0.148269	518.3
0.195881	531.344
0.240078	540.095
0.294466	548.89
0.338645	553.363
0.389618	557.865
0.437194	562.353
0.484788	571.119
0.535761	575.621
0.586716	575.846
0.634292	580.333
0.681868	584.821
0.729462	593.587
0.780453	602.367
0.821272	615.381
0.879202	658.417
0.930938	842.602
