Adsorption isotherm of Carbon Dioxide on IRMOF-1
DOI: 10.1021/Cm502399q
Adsorbate Carbon Dioxide: InChIKey CURLTUGMZLYLDI-UHFFFAOYSA-N
Temperature: 298 K
Tabular data in the source: 0
pressure (bar)	uptake (mmol/g)
0.0553633	0.0288462
0.083045	0.0346154
0.100346	0.0403846
0.148789	0.0519231
0.207612	0.0692308
0.256055	0.0836538
0.301038	0.0951923
0.349481	0.100962
0.404844	0.118269
0.449827	0.132692
0.50519	0.141346
0.553633	0.15
0.605536	0.158654
0.650519	0.164423
0.705882	0.178846
0.754325	0.190385
0.802768	0.199038
0.854671	0.204808
0.906574	0.213462
0.955017	0.219231
0.99654	0.233654
