Adsorption isotherm of Carbon Dioxide on IRMOF-1
DOI: 10.1021/Cm502399q
Adsorbate Carbon Dioxide: InChIKey CURLTUGMZLYLDI-UHFFFAOYSA-N
Temperature: 298 K
Tabular data in the source: 0
pressure (bar)	uptake (mmol/g)
0.258315	0.205714
0.308713	0.248571
0.359126	0.282857
0.40323	0.317143
0.453643	0.351429
0.51035	0.394286
0.554454	0.428571
0.601712	0.462857
0.667883	0.505714
0.702524	0.54
0.752937	0.574286
0.806504	0.608571
0.853733	0.66
0.904161	0.685714
0.948265	0.72
0.992384	0.745714
