Adsorption isotherm of Carbon Dioxide on IRMOF-1
DOI: 10.1021/Cm502399q
Adsorbate Carbon Dioxide: InChIKey CURLTUGMZLYLDI-UHFFFAOYSA-N
Temperature: 298 K
Tabular data in the source: 0
pressure (bar)	uptake (mmol/g)
0.308592	0.317143
0.352696	0.351429
0.39994	0.394286
0.447168	0.445714
0.50703	0.488571
0.547995	0.514286
0.598363	0.574286
0.651915	0.617143
0.702298	0.668571
0.755851	0.711429
0.799955	0.745714
0.853508	0.788571
0.900751	0.831429
0.951149	0.874286
0.995268	0.9
