Adsorption isotherm of Carbon Dioxide on IRMOF-1
DOI: 10.1021/Cm502399q
Adsorbate Carbon Dioxide: InChIKey CURLTUGMZLYLDI-UHFFFAOYSA-N
Temperature: 298 K
Tabular data in the source: 0
pressure (bar)	uptake (mmol/g)
0.0519031	0.0288462
0.083045	0.0403846
0.103806	0.0461538
0.152249	0.0692308
0.200692	0.0865385
0.252595	0.103846
0.304498	0.115385
0.359862	0.126923
0.408304	0.152885
0.460208	0.167308
0.50519	0.178846
0.553633	0.1875
0.605536	0.204808
0.657439	0.222115
0.705882	0.236538
0.757785	0.250962
0.809689	0.2625
0.858131	0.274038
0.906574	0.288462
0.955017	0.305769
1	0.323077
