Adsorption isotherm of Nitrogen on IRMOF-1
DOI: 10.1021/Cm502399q
Adsorbate Nitrogen: InChIKey IJGRMHOSHXDMSA-UHFFFAOYSA-N
Temperature: 77 K
Tabular data in the source: 0
pressure (bar)	uptake (cm3(STP)/g)
0.00038148	89.8413
0.00396012	132.638
0.0142056	145.517
0.0312087	149.87
0.0447966	149.93
0.0686119	158.591
0.0923908	158.696
0.146761	163.213
0.19094	167.686
0.241912	172.188
0.292886	176.691
0.333649	176.87
0.388038	185.666
0.435614	190.154
0.486568	190.378
0.534162	199.144
0.581738	203.631
0.622502	203.811
0.680269	208.343
0.734639	212.861
0.778836	221.611
0.829846	234.67
0.874043	243.421
0.92863	299.276
0.952918	419.169
0.970411	539.033
