Adsorption isotherm of Carbon Dioxide on IRMOF-1
DOI: 10.1021/Cm502399q
Adsorbate Carbon Dioxide: InChIKey CURLTUGMZLYLDI-UHFFFAOYSA-N
Temperature: 298 K
Tabular data in the source: 0
pressure (bar)	uptake (mmol/g)
0.204612	0.248571
0.25498	0.308571
0.302208	0.36
0.352591	0.411429
0.402974	0.462857
0.456497	0.522857
0.503725	0.574286
0.550984	0.608571
0.604507	0.668571
0.65175	0.711429
0.705288	0.762857
0.752531	0.805714
0.802914	0.857143
0.850158	0.9
0.900556	0.942857
0.950939	0.994286
0.991873	1.03714
