Adsorption isotherm of Nitrogen on IRMOF-1
DOI: 10.1021/Cm502399q
Adsorbate Nitrogen: InChIKey IJGRMHOSHXDMSA-UHFFFAOYSA-N
Temperature: 77 K
Tabular data in the source: 0
pressure (bar)	uptake (cm3(STP)/g)
0.00338509	0.00348432
0.0101553	209.626
0.0304658	218.182
0.0440062	222.46
0.074472	231.016
0.0947825	231.016
0.145559	239.572
0.189565	239.572
0.240341	243.85
0.287732	252.406
0.338509	256.684
0.3859	260.963
0.436676	260.963
0.484068	260.963
0.531458	265.241
0.582235	265.241
0.626241	265.241
0.673633	269.519
0.731179	273.797
0.775185	282.353
0.822576	290.909
0.873353	303.743
0.920744	333.69
0.944439	397.861
