Adsorption isotherm of Carbon Dioxide on IRMOF-1
DOI: 10.1021/Cm502399q
Adsorbate Carbon Dioxide: InChIKey CURLTUGMZLYLDI-UHFFFAOYSA-N
Temperature: 298 K
Tabular data in the source: 0
pressure (bar)	uptake (mmol/g)
0.00941866	0.0257143
0.0566922	0.0514286
0.107075	0.102857
0.154334	0.137143
0.204747	0.171429
0.261439	0.222857
0.308698	0.257143
0.359096	0.3
0.406354	0.334286
0.453583	0.385714
0.507135	0.428571
0.554409	0.454286
0.601652	0.497143
0.655205	0.54
0.705588	0.591429
0.752847	0.625714
0.806414	0.66
0.853673	0.694286
0.900916	0.737143
0.954469	0.78
