Adsorption isotherm of Carbon Dioxide on IRMOF-1
DOI: 10.1021/Cm502399q
Adsorbate Carbon Dioxide: InChIKey CURLTUGMZLYLDI-UHFFFAOYSA-N
Temperature: 298 K
Tabular data in the source: 0
pressure (bar)	uptake (mmol/g)
0.204657	0.222857
0.255025	0.282857
0.305438	0.317143
0.352651	0.377143
0.399895	0.42
0.453432	0.471429
0.503816	0.522857
0.557353	0.574286
0.601427	0.625714
0.654965	0.677143
0.699069	0.711429
0.749467	0.754286
0.799865	0.797143
0.853402	0.848571
0.906925	0.908571
0.954184	0.942857
0.995118	0.985714
