Adsorption isotherm of Nitrogen on IRMOF-1
DOI: 10.1021/Cm502399q
Adsorbate Nitrogen: InChIKey IJGRMHOSHXDMSA-UHFFFAOYSA-N
Temperature: 77 K
Tabular data in the source: 0
pressure (bar)	uptake (cm3(STP)/g)
0.00894585	150
0.0178917	164.634
0.030416	171.951
0.0483077	177.439
0.0697777	186.585
0.0948261	190.244
0.143134	197.561
0.198598	204.878
0.23796	208.537
0.288057	214.024
0.336365	219.512
0.38825	223.171
0.436557	226.829
0.481287	234.146
0.529595	237.805
0.579691	241.463
0.627999	246.951
0.678096	252.439
0.728193	259.756
0.7765	270.732
0.823018	289.024
0.873116	336.585
0.921424	548.78
0.948261	782.927
