Adsorption isotherm of Nitrogen on IRMOF-1
DOI: 10.1021/Cm502399q
Adsorbate Nitrogen: InChIKey IJGRMHOSHXDMSA-UHFFFAOYSA-N
Temperature: 77 K
Tabular data in the source: 0
pressure (bar)	uptake (cm3(STP)/g)
-0.00257953	192.502
0.000708462	166.848
0.00770226	213.938
0.0213447	226.832
0.034969	235.448
0.048557	235.508
0.0621812	244.124
0.0927541	244.259
0.14716	257.333
0.187942	261.79
0.388401	271.229
0.578704	289.179
0.775785	302.881
0.877785	324.721
0.922254	397.644
0.951083	787.076
