Adsorption isotherm of Nitrogen on IRMOF-1
DOI: 10.1021/Cm502399q
Adsorbate Nitrogen: InChIKey IJGRMHOSHXDMSA-UHFFFAOYSA-N
Temperature: 77 K
Tabular data in the source: 0
pressure (bar)	uptake (cm3(STP)/g)
0.00338509	269.519
0.00677017	316.578
0.0236956	337.968
0.0372359	350.802
0.0507763	355.08
0.0677017	355.08
0.0947825	363.636
0.138788	367.914
0.196335	380.749
0.236956	385.027
0.291118	389.305
0.341893	393.583
0.389285	393.583
0.440062	397.861
0.480683	397.861
0.531458	402.139
0.58562	410.695
0.633011	414.973
0.677017	414.973
0.727794	419.251
0.7718	423.529
0.829347	432.086
0.873353	444.92
0.920744	483.422
0.944439	568.984
0.964749	928.342
