Adsorption isotherm of Carbon Dioxide on IRMOF-1
DOI: 10.1021/Cm502399q
Adsorbate Carbon Dioxide: InChIKey CURLTUGMZLYLDI-UHFFFAOYSA-N
Temperature: 298 K
Tabular data in the source: 0
pressure (bar)	uptake (mmol/g)
0.0597566	0.102857
0.0818086	0.12
0.107015	0.137143
0.154214	0.205714
0.207706	0.282857
0.25492	0.342857
0.305288	0.402857
0.349377	0.445714
0.402869	0.522857
0.450128	0.557143
0.50365	0.617143
0.554033	0.668571
0.604386	0.737143
0.648475	0.78
0.695704	0.831429
0.752396	0.882857
0.799624	0.934286
0.853162	0.985714
0.90356	1.02857
0.947649	1.07143
0.994893	1.11429
