Adsorption isotherm of Carbon Dioxide on IRMOF-1
DOI: 10.1021/Cm502399q
Adsorbate Carbon Dioxide: InChIKey CURLTUGMZLYLDI-UHFFFAOYSA-N
Temperature: 298 K
Tabular data in the source: 0
pressure (bar)	uptake (mmol/g)
0.056888	0.0412371
0.113723	0.103093
0.155093	0.134021
0.201619	0.175258
0.253325	0.216495
0.305005	0.268041
0.351584	0.28866
0.408445	0.340206
0.454997	0.371134
0.50665	0.43299
0.55841	0.453608
0.599701	0.515464
0.651461	0.536082
0.703141	0.587629
0.754821	0.639175
0.81689	0.680412
0.847898	0.71134
0.904759	0.762887
0.951285	0.804124
