Adsorption isotherm of Carbon Dioxide on IRMOF-1
DOI: 10.1021/Cm502399q
Adsorbate Carbon Dioxide: InChIKey CURLTUGMZLYLDI-UHFFFAOYSA-N
Temperature: 298 K
Tabular data in the source: 0
pressure (bar)	uptake (mmol/g)
0.157353	0.214286
0.21403	0.274286
0.25492	0.342857
0.308442	0.402857
0.358825	0.454286
0.406039	0.514286
0.456422	0.565714
0.506805	0.617143
0.550879	0.668571
0.607556	0.728571
0.654799	0.771429
0.705167	0.831429
0.755551	0.882857
0.799639	0.925714
0.850053	0.96
0.903605	1.00286
0.950879	1.02857
0.991828	1.06286
