Adsorption isotherm of Carbon Dioxide on IRMOF-1
DOI: 10.1021/Cm502399q
Adsorbate Carbon Dioxide: InChIKey CURLTUGMZLYLDI-UHFFFAOYSA-N
Temperature: 298 K
Tabular data in the source: 0
pressure (bar)	uptake (mmol/g)
0.10691	0.197143
0.150924	0.282857
0.204386	0.377143
0.257894	0.445714
0.308232	0.522857
0.352261	0.6
0.402599	0.677143
0.452982	0.728571
0.50332	0.805714
0.553658	0.882857
0.604011	0.951429
0.64807	1.01143
0.704732	1.08
0.7551	1.14
0.802298	1.20857
0.852666	1.26857
0.903019	1.33714
0.950248	1.38857
0.994307	1.44857
