Adsorption isotherm of Nitrogen on IRMOF-1
DOI: 10.1021/Cm502399q
Adsorbate Nitrogen: InChIKey IJGRMHOSHXDMSA-UHFFFAOYSA-N
Temperature: 77 K
Tabular data in the source: 0
pressure (bar)	uptake (cm3(STP)/g)
0.00536751	20.122
0.00715668	43.9024
0.00894585	56.7073
0.0161026	62.1951
0.030416	65.8537
0.0375726	69.5122
0.0483077	71.3415
0.0715668	73.1707
0.0984043	73.1707
0.146712	80.4878
0.19502	84.1463
0.241538	87.8049
0.295213	91.4634
0.343521	91.4634
0.393618	95.122
0.440136	95.122
0.486655	102.439
0.536751	106.098
0.585059	107.927
0.633367	111.585
0.678096	113.415
0.726404	117.073
0.7765	126.22
0.823018	139.024
0.874904	164.634
0.917844	254.268
0.942893	417.073
0.966152	684.146
