Adsorption isotherm of Nitrogen on IRMOF-1
DOI: 10.1021/Cm502399q
Adsorbate Nitrogen: InChIKey IJGRMHOSHXDMSA-UHFFFAOYSA-N
Temperature: 77 K
Tabular data in the source: 0
pressure (bar)	uptake (cm3(STP)/g)
0.00338509	269.519
0.00677017	312.299
0.0236956	346.524
0.040621	350.802
0.0710868	363.636
0.0981672	372.193
0.148944	376.471
0.19295	385.027
0.243726	393.583
0.291118	397.861
0.335124	402.139
0.389285	410.695
0.436676	414.973
0.480683	423.529
0.534844	423.529
0.582235	427.807
0.626241	432.086
0.680402	436.364
0.731179	436.364
0.77857	444.92
0.822576	457.754
0.873353	483.422
0.927514	778.61
0.944439	924.064
