Adsorption isotherm of Nitrogen on IRMOF-1
DOI: 10.1021/Cm502399q
Adsorbate Nitrogen: InChIKey IJGRMHOSHXDMSA-UHFFFAOYSA-N
Temperature: 77 K
Tabular data in the source: 0
pressure (bar)	uptake (cm3(STP)/g)
0.00930084	590.415
0.0128976	637.49
0.0231976	663.204
0.0402552	680.391
0.0470673	684.699
0.0708826	693.36
0.094716	706.299
0.145707	715.08
0.19332	728.124
0.247726	741.198
0.288507	745.655
0.342896	754.451
0.393869	758.954
0.434651	763.411
0.495814	767.959
0.536597	772.416
0.584155	772.626
0.641958	785.715
0.689533	790.202
0.726901	790.367
0.777892	799.147
0.828883	807.928
0.879892	820.987
0.927468	825.474
0.968232	825.654
