Adsorption isotherm of Carbon Dioxide on IRMOF-1
DOI: 10.1021/Cm502399q
Adsorbate Carbon Dioxide: InChIKey CURLTUGMZLYLDI-UHFFFAOYSA-N
Temperature: 298 K
Tabular data in the source: 0
pressure (bar)	uptake (mmol/g)
0.0102826	0.0309278
0.0567812	0.0824742
0.108301	0.195876
0.149538	0.278351
0.206319	0.360825
0.257946	0.43299
0.304337	0.525773
0.345601	0.597938
0.402329	0.701031
0.454009	0.752577
0.500481	0.814433
0.552081	0.896907
0.603734	0.958763
0.650179	1.03093
0.70704	1.08247
0.753485	1.15464
0.799957	1.21649
0.851584	1.28866
0.903237	1.35052
0.949736	1.40206
