Adsorption isotherm of Carbon Dioxide on IRMOF-1
DOI: 10.1021/Cm502399q
Adsorbate Carbon Dioxide: InChIKey CURLTUGMZLYLDI-UHFFFAOYSA-N
Temperature: 298 K
Tabular data in the source: 0
pressure (bar)	uptake (mmol/g)
0.0138408	0.00288462
0.0553633	0.0375
0.083045	0.0490385
0.103806	0.0663462
0.152249	0.0980769
0.207612	0.126923
0.256055	0.15
0.304498	0.173077
0.359862	0.1875
0.408304	0.219231
0.460208	0.245192
0.50173	0.271154
0.564014	0.282692
0.602076	0.3
0.657439	0.323077
0.705882	0.343269
0.754325	0.377885
0.809689	0.403846
0.858131	0.415385
0.903114	0.435577
0.955017	0.467308
0.99308	0.490385
