Adsorption isotherm of Nitrogen on IRMOF-1
DOI: 10.1021/Cm502399q
Adsorbate Nitrogen: InChIKey IJGRMHOSHXDMSA-UHFFFAOYSA-N
Temperature: 77 K
Tabular data in the source: 0
pressure (bar)	uptake (cm3(STP)/g)
-0.00257953	192.502
0.000708462	166.848
0.00770226	213.938
0.0213447	226.832
0.034969	235.448
0.048557	235.508
0.0621812	244.124
0.0927541	244.259
0.14716	257.333
0.191321	257.527
0.249088	262.059
0.296646	262.269
0.340806	262.463
0.388364	262.673
0.449547	271.498
0.483517	271.648
0.53449	276.15
0.585445	276.375
0.629624	280.847
0.690769	281.117
0.738327	281.326
0.77573	290.047
0.823306	294.535
0.87773	311.886
0.925434	346.321
0.949395	389.207
0.974901	795.737
