Adsorption isotherm of Nitrogen on IRMOF-1
DOI: 10.1021/Cm502399q
Adsorbate Nitrogen: InChIKey IJGRMHOSHXDMSA-UHFFFAOYSA-N
Temperature: 77 K
Tabular data in the source: 0
pressure (bar)	uptake (cm3(STP)/g)
0.0125242	7.31707
0.0178917	7.31707
0.0322051	10.9756
0.0393618	10.9756
0.0554643	10.9756
0.0697777	12.8049
0.0984043	10.9756
0.148502	12.8049
0.19502	14.6341
0.245116	14.6341
0.295213	14.6341
0.343521	16.4634
0.390039	18.2927
0.438347	18.2927
0.486655	18.2927
0.538541	18.2927
0.585059	21.9512
0.631577	21.9512
0.681674	21.9512
0.726404	23.7805
0.77829	25.6098
0.824808	29.2683
0.871326	31.0976
0.921424	49.3902
0.942893	93.2927
0.964364	281.707
