Adsorption isotherm of Nitrogen on IRMOF-1
DOI: 10.1021/Cm502399q
Adsorbate Nitrogen: InChIKey IJGRMHOSHXDMSA-UHFFFAOYSA-N
Temperature: 77 K
Tabular data in the source: 0
pressure (bar)	uptake (cm3(STP)/g)
0	414.973
0.00677017	568.984
0.0169254	616.043
0.040621	641.711
0.0507763	654.545
0.074472	667.38
0.0981672	675.936
0.145559	688.77
0.19295	701.604
0.243726	710.16
0.291118	718.717
0.335124	727.273
0.389285	735.829
0.436676	740.107
0.477297	752.941
0.531458	752.941
0.582235	761.497
0.629627	770.053
0.680402	778.61
0.727794	791.444
0.77857	817.112
0.825961	847.059
0.873353	864.171
0.913974	864.171
0.951209	868.449
0.97152	868.449
