Adsorption isotherm of Nitrogen on IRMOF-1
DOI: 10.1021/Cm502399q
Adsorbate Nitrogen: InChIKey IJGRMHOSHXDMSA-UHFFFAOYSA-N
Temperature: 77 K
Tabular data in the source: 0
pressure (bar)	uptake (cm3(STP)/g)
0.0196809	10.9756
0.030416	10.9756
0.0447293	12.8049
0.073356	18.2927
0.0948261	18.2927
0.144923	18.2927
0.198598	20.122
0.23796	21.9512
0.288057	23.7805
0.338153	25.6098
0.391829	25.6098
0.434769	29.2683
0.486655	29.2683
0.529595	32.9268
0.581481	32.9268
0.631577	36.5854
0.681674	36.5854
0.724614	40.2439
0.7765	47.561
0.826597	67.6829
0.874904	91.4634
0.917844	139.024
0.95005	281.707
0.960785	329.268
