Adsorption isotherm of Nitrogen on IRMOF-1
DOI: 10.1021/Cm502399q
Adsorbate Nitrogen: InChIKey IJGRMHOSHXDMSA-UHFFFAOYSA-N
Temperature: 77 K
Tabular data in the source: 0
pressure (bar)	uptake (cm3(STP)/g)
0	111.23
0.00338509	470.588
0.00677017	658.824
0.0135404	705.882
0.0236956	727.273
0.0440062	752.941
0.0677017	774.332
0.0913974	782.888
0.145559	795.722
0.19295	808.556
0.236956	817.112
0.291118	825.668
0.338509	834.225
0.3859	838.503
0.433291	842.781
0.480683	847.059
0.531458	851.337
0.582235	855.615
0.629627	855.615
0.677017	855.615
0.727794	859.893
0.775185	859.893
0.825961	859.893
0.876738	864.171
0.927514	864.171
