Adsorption isotherm of Nitrogen on IRMOF-1
DOI: 10.1021/Cm502399q
Adsorbate Nitrogen: InChIKey IJGRMHOSHXDMSA-UHFFFAOYSA-N
Temperature: 77 K
Tabular data in the source: 0
pressure (bar)	uptake (cm3(STP)/g)
0.00894585	150
0.0178917	164.634
0.030416	171.951
0.0483077	177.439
0.073356	181.098
0.0966152	186.585
0.144923	192.073
0.19502	197.561
0.245116	201.22
0.297002	204.878
0.34531	210.366
0.398985	215.854
0.438347	217.683
0.484865	219.512
0.534963	226.829
0.588637	226.829
0.631577	234.146
0.678096	237.805
0.724614	241.463
0.772922	250.61
0.81944	259.756
0.869538	283.537
0.917844	362.195
0.939315	510.366
0.964364	793.902
