Adsorption isotherm of Nitrogen on IRMOF-1
DOI: 10.1021/Cm502399q
Adsorbate Nitrogen: InChIKey IJGRMHOSHXDMSA-UHFFFAOYSA-N
Temperature: 77 K
Tabular data in the source: 0
pressure (bar)	uptake (cm3(STP)/g)
0.0196809	10.9756
0.030416	10.9756
0.0447293	12.8049
0.073356	18.2927
0.0948261	18.2927
0.144923	18.2927
0.198598	20.122
0.23796	21.9512
0.288057	23.7805
0.338153	25.6098
0.381093	25.6098
0.434769	25.6098
0.488443	27.439
0.534963	29.2683
0.581481	27.439
0.82123	43.9024
0.871326	54.878
0.919634	95.122
0.941104	140.854
0.964364	329.268
