Adsorption isotherm of Carbon Dioxide on IRMOF-1
DOI: 10.1021/Cm502399q
Adsorbate Carbon Dioxide: InChIKey CURLTUGMZLYLDI-UHFFFAOYSA-N
Temperature: 298 K
Tabular data in the source: 0
pressure (bar)	uptake (mmol/g)
0.150774	0.368571
0.204251	0.454286
0.257714	0.548571
0.326874	0.685714
0.383446	0.805714
0.42749	0.874286
0.471504	0.96
0.506114	1.01143
0.553282	1.09714
0.600466	1.17429
0.653958	1.25143
0.701112	1.34571
0.757759	1.42286
0.804957	1.49143
0.871068	1.56857
0.905648	1.63714
0.96231	1.70571
