Adsorption isotherm of Carbon Dioxide on IRMOF-1
DOI: 10.1021/Cm502399q
Adsorbate Carbon Dioxide: InChIKey CURLTUGMZLYLDI-UHFFFAOYSA-N
Temperature: 298 K
Tabular data in the source: 0
pressure (bar)	uptake (mmol/g)
0.0566209	0.14433
0.0823407	0.216495
0.102852	0.298969
0.159527	0.42268
0.205865	0.536082
0.25215	0.670103
0.334651	0.824742
0.381016	0.927835
0.417098	1
0.46349	1.09278
0.504754	1.16495
0.556327	1.25773
0.613028	1.37113
0.654319	1.43299
0.716228	1.53608
0.767774	1.63918
0.803937	1.68041
0.855537	1.76289
0.901982	1.83505
0.969099	1.92784
