Adsorption isotherm of Carbon Dioxide on IRMOF-1
DOI: 10.1021/Cm502399q
Adsorbate Carbon Dioxide: InChIKey CURLTUGMZLYLDI-UHFFFAOYSA-N
Temperature: 298 K
Tabular data in the source: 0
pressure (bar)	uptake (mmol/g)
0.0533874	0.137143
0.0784738	0.222857
0.10676	0.282857
0.153868	0.402857
0.204131	0.522857
0.254379	0.651429
0.332958	0.814286
0.380111	0.908571
0.417831	0.985714
0.46186	1.06286
0.502704	1.15714
0.553012	1.25143
0.609614	1.35429
0.653628	1.44
0.719709	1.53429
0.770047	1.61143
0.804627	1.68
0.858119	1.75714
0.902163	1.82571
0.971414	1.91143
