Adsorption isotherm of Nitrogen on IRMOF-1
DOI: 10.1021/Cm502399q
Adsorbate Nitrogen: InChIKey IJGRMHOSHXDMSA-UHFFFAOYSA-N
Temperature: 77 K
Tabular data in the source: 0
pressure (bar)	uptake (cm3(STP)/g)
0.00536751	20.122
0.00715668	43.9024
0.00894585	56.7073
0.0161026	62.1951
0.030416	65.8537
0.0375726	69.5122
0.0483077	71.3415
0.0715668	73.1707
0.0984043	73.1707
0.148502	82.3171
0.19502	85.9756
0.245116	89.6341
0.295213	95.122
0.347099	96.9512
0.393618	98.7805
0.440136	102.439
0.484865	111.585
0.531384	117.073
0.581481	118.902
0.627999	120.732
0.674518	128.049
0.731771	133.537
0.77829	142.683
0.828386	164.634
0.876694	206.707
0.925002	428.049
0.95005	665.854
