Adsorption isotherm of Nitrogen on IRMOF-1
DOI: 10.1021/Cm502399q
Adsorbate Nitrogen: InChIKey IJGRMHOSHXDMSA-UHFFFAOYSA-N
Temperature: 77 K
Tabular data in the source: 0
pressure (bar)	uptake (cm3(STP)/g)
0.0125242	7.31707
0.0178917	7.31707
0.0322051	10.9756
0.0393618	10.9756
0.0554643	10.9756
0.0697777	12.8049
0.0984043	10.9756
0.141345	14.6341
0.198598	16.4634
0.239749	16.4634
0.295213	18.2927
0.334575	20.122
0.390039	21.9512
0.431191	21.9512
0.484865	23.7805
0.533173	25.6098
0.577902	27.439
0.631577	29.2683
0.678096	29.2683
0.731771	31.0976
0.774711	34.7561
0.824808	36.5854
0.871326	47.561
0.923212	102.439
0.95005	225
0.962574	283.537
