Adsorption isotherm of Nitrogen on IRMOF-1
DOI: 10.1021/Cm502399q
Adsorbate Nitrogen: InChIKey IJGRMHOSHXDMSA-UHFFFAOYSA-N
Temperature: 77 K
Tabular data in the source: 0
pressure (bar)	uptake (cm3(STP)/g)
0.00338509	0.00348432
0.0101553	213.904
0.0304658	213.904
0.0440062	222.46
0.074472	231.016
0.0913974	231.016
0.142173	235.294
0.18618	239.572
0.240341	248.128
0.291118	256.684
0.335124	260.963
0.39267	265.241
0.429906	269.519
0.480683	273.797
0.538229	278.075
0.575464	278.075
0.636396	286.631
0.673633	290.909
0.731179	295.187
0.775185	303.743
0.822576	308.021
0.869967	325.134
0.920744	376.471
