Adsorption isotherm of Argon on UiO-66 cuboctahedron
DOI: 10.1039/c5ce00729a
Article source: Figure 7
Adsorbate Argon: InChIKey XKRFYHLGVUSROY-UHFFFAOYSA-N
Kind: experiment
Temperature: 87 K
Tabular data in the source: 0
pressure (bar)	uptake (cm3(STP)/g)
0	188.832
0.00165	67.0051
0.00165	109.645
0.004951	268.02
0.006601	274.112
0.009901	277.157
0.011552	280.203
0.014852	284.264
0.018153	287.31
0.023103	292.386
0.026404	295.431
0.029704	298.477
0.033005	301.523
0.039606	305.584
0.052808	310.66
0.062709	312.69
0.070961	314.721
0.077561	316.751
0.080862	315.736
0.094064	317.766
0.103966	317.766
0.127069	320.812
0.151822	323.858
0.178227	326.904
0.20298	329.949
0.231034	332.995
0.255788	335.025
0.278891	338.071
0.301995	340.102
0.330049	343.147
0.3317	344.162
0.354803	346.193
0.381206	348.223
0.40596	351.269
0.40761	353.299
0.429064	353.299
0.455467	356.345
0.457118	359.391
0.481871	357.36
0.506625	364.467
0.534679	361.421
0.556132	369.543
0.559433	365.482
0.587487	368.528
0.60729	374.619
0.612241	371.574
0.630393	374.619
0.653497	376.65
0.660098	381.726
0.68155	379.695
0.707955	386.802
0.714556	381.726
0.737659	384.772
0.759113	386.802
0.762413	390.863
0.788817	388.832
0.80862	395.939
0.813571	391.878
0.833374	392.893
0.863078	401.015
0.864728	397.97
0.889482	400
0.914235	408.122
0.915886	405.076
0.942289	407.107
0.957141	413.198
0.962092	410.152
0.985196	413.198
1.005	417.259
1.0116	429.442
