Adsorption isotherm of Argon on UiO-66 large truncated cube
DOI: 10.1039/c5ce00729a
Article source: Figure 7
Adsorbate Argon: InChIKey XKRFYHLGVUSROY-UHFFFAOYSA-N
Kind: experiment
Temperature: 87 K
Tabular data in the source: 0
pressure (bar)	uptake (cm3(STP)/g)
0	0
0.00165	25.3807
0.00165	221.32
0.004951	269.036
0.016502	279.188
0.028054	286.294
0.046207	297.462
0.059409	303.553
0.077561	308.629
0.103966	313.706
0.132019	316.751
0.173276	321.827
0.224433	326.904
0.252488	336.041
0.275591	332.995
0.301995	343.147
0.3317	340.102
0.354803	350.254
0.382857	346.193
0.40761	348.223
0.409261	357.36
0.434014	350.254
0.453817	362.437
0.458768	355.33
0.485171	360.406
0.504974	363.452
0.508276	370.558
0.534679	367.513
0.556132	375.635
0.561083	368.528
0.584186	373.604
0.60564	383.756
0.612241	377.665
0.635344	381.726
0.658447	390.863
0.661747	383.756
0.688152	387.817
0.709605	389.848
0.711255	396.954
0.737659	393.909
0.760762	396.954
0.762413	405.076
0.785516	401.015
0.80862	404.061
0.81192	410.152
0.841625	408.122
0.861428	412.183
0.864728	420.305
0.887831	416.244
0.912585	419.289
0.914235	426.396
0.940639	423.35
0.958792	432.487
0.962092	426.396
0.991796	433.503
1.00665	438.579
1.0083	453.807
