Adsorption isotherm of Argon on UiO-66 small cube
DOI: 10.1039/c5ce00729a
Article source: Figure 7
Adsorbate Argon: InChIKey XKRFYHLGVUSROY-UHFFFAOYSA-N
Kind: experiment
Temperature: 87 K
Tabular data in the source: 0
pressure (bar)	uptake (cm3(STP)/g)
0	0
0.00165	157.36
0.0033	178.68
0.004951	183.756
0.008251	188.832
0.009901	192.893
0.021453	198.985
0.029704	202.03
0.039606	205.076
0.052808	209.137
0.06766	211.168
0.074261	212.183
0.082512	213.198
0.090763	213.198
0.099015	214.213
0.100665	215.228
0.127069	216.244
0.148522	218.274
0.174925	219.289
0.20298	221.32
0.227734	223.35
0.250837	224.365
0.278891	226.396
0.303645	227.411
0.306946	228.426
0.328398	228.426
0.353152	230.457
0.379556	233.503
0.40596	232.487
0.40761	234.518
0.429064	236.548
0.457118	237.563
0.480221	239.594
0.503325	239.594
0.504974	242.64
0.533029	243.655
0.556132	245.685
0.582537	246.701
0.60564	242.64
0.60729	245.685
0.633694	248.731
0.658447	252.792
0.665049	245.685
0.68155	252.792
0.709605	247.716
0.734359	256.853
0.759113	250.761
0.760762	258.883
0.785516	260.914
0.81027	262.944
0.836674	264.975
0.859777	267.005
0.863078	258.883
0.886181	269.036
0.912585	272.081
0.938989	275.127
0.963743	276.142
0.965393	280.203
0.988496	285.279
1.00335	308.629
1.0083	340.102
