Adsorption isotherm of Argon on UiO-66 heterogeneous agglomeration
DOI: 10.1039/c5ce00729a
Article source: Figure 7
Adsorbate Argon: InChIKey XKRFYHLGVUSROY-UHFFFAOYSA-N
Kind: experiment
Temperature: 87 K
Tabular data in the source: 0
pressure (bar)	uptake (cm3(STP)/g)
0	0
0.00165	226.396
0.0033	253.807
0.004951	262.944
0.006601	265.99
0.009901	272.081
0.019803	285.279
0.024754	290.355
0.028054	293.401
0.037956	295.431
0.047857	298.477
0.057759	300.508
0.06931	301.523
0.075911	303.553
0.084162	304.569
0.092414	305.584
0.102315	306.599
0.128719	309.645
0.153473	312.69
0.176576	315.736
0.20133	317.766
0.229384	320.812
0.254137	323.858
0.278891	325.888
0.305295	328.934
0.330049	330.964
0.354803	334.01
0.379556	336.041
0.40596	339.086
0.430713	341.117
0.457118	344.162
0.480221	345.178
0.504974	347.208
0.53798	350.254
0.559433	353.299
0.584186	355.33
0.60894	359.391
0.632044	360.406
0.658447	363.452
0.684852	365.482
0.711255	369.543
0.737659	371.574
0.760762	375.635
0.787167	375.635
0.81192	379.695
0.838325	381.726
0.863078	383.756
0.886181	385.787
0.910935	388.832
0.938989	391.878
0.963743	395.939
0.988496	397.97
1.00665	408.122
1.0083	400
