Adsorption isotherm of Acetylene on M'MOF-5a
DOI: 10.1021/Ja302380x
Adsorbate Acetylene: InChIKey HSFWRNGVRCDJHI-UHFFFAOYSA-N
Temperature: 296 K
Tabular data in the source: 0
pressure (bar)	uptake (cm3(STP)/g)
0.0133922	1.20879
0.021384	2.41758
0.0266657	3.73626
0.0373676	4.83516
0.064063	8.24176
0.0801059	10
0.0962082	11.0989
0.131133	13.0769
0.157986	14.7253
0.19296	16.1538
0.222554	17.3626
0.254867	18.3516
0.284471	19.4505
0.314103	20.2198
0.349137	20.989
0.413803	22.5275
0.478499	23.7363
0.535114	24.7253
0.60254	25.6044
0.656455	26.5934
0.721201	27.2527
0.756264	27.6923
0.780536	28.022
0.847991	28.5714
0.883054	29.011
0.904636	29.2308
0.969392	29.7802
1.00176	30.1099
1.03416	30.2198
1.06384	30.4396
