Adsorption isotherm of Carbon Dioxide on M'MOF-4a
DOI: 10.1021/Ja302380x
Adsorbate Carbon Dioxide: InChIKey CURLTUGMZLYLDI-UHFFFAOYSA-N
Temperature: 196 K
Tabular data in the source: 0
pressure (bar)	uptake (cm3(STP)/g)
0.0113852	41.1885
0.011498	35.6557
0.0138151	71.9262
0.014028	61.4754
0.0142159	52.2541
0.0167084	79.918
0.0225951	90.9836
0.0252504	110.656
0.0254508	100.82
0.0312875	114.344
0.0648044	119.262
0.0983463	122.951
0.128895	123.566
0.153231	129.098
0.19286	134.016
0.220315	136.475
0.250851	137.705
0.287486	139.549
0.311923	140.164
0.376063	142.008
0.440204	143.852
0.47074	145.082
0.531837	146.311
0.599046	147.541
0.657099	148.156
0.718196	149.385
0.782374	149.385
0.907624	151.844
0.941241	151.844
0.968746	151.844
0.996251	151.844
