Adsorption isotherm of Ethene on M'MOF-7a
DOI: 10.1021/Ja302380x
Adsorbate Ethene: InChIKey VGGSQFUCUMXWEO-UHFFFAOYSA-N
Temperature: 296 K
Tabular data in the source: 0
pressure (bar)	uptake (cm3(STP)/g)
0.0135033	0.101351
0.027043	0.304054
0.107917	0.506757
0.126844	0.709459
0.153778	0.709459
0.183459	0.861486
0.21851	0.962838
0.24821	1.16554
0.280585	1.31757
0.315653	1.46959
0.345317	1.57095
0.383097	1.77365
0.412761	1.875
0.442479	2.12838
0.469449	2.22973
0.496419	2.33108
0.531488	2.48311
0.56925	2.63514
0.593527	2.73649
0.62592	2.93919
0.65562	3.14189
0.690688	3.29392
0.72037	3.44595
0.758114	3.5473
0.782409	3.69932
0.814802	3.90203
0.879535	4.15541
0.906541	4.35811
0.938916	4.51014
0.971273	4.61149
1.00365	4.76351
1.03604	4.96622
1.06842	5.11824
