Adsorption isotherm of Acetylene on M'MOF-4a
DOI: 10.1021/Ja302380x
Adsorbate Acetylene: InChIKey HSFWRNGVRCDJHI-UHFFFAOYSA-N
Temperature: 296 K
Tabular data in the source: 0
pressure (bar)	uptake (cm3(STP)/g)
0.00592616	1.00746
0.0118849	2.35075
0.0617952	6.15672
0.0940248	7.94776
0.123286	9.1791
0.155461	10.4104
0.18469	11.306
0.216854	12.4254
0.286946	13.9925
0.345359	15.3358
0.409601	16.6791
0.467993	17.7985
0.532213	18.9179
0.596455	20.2612
0.62564	20.709
0.689903	22.2761
0.751242	23.7313
0.812591	25.2985
0.879758	26.7537
0.944	28.097
1.00821	29.1045
1.04032	29.6642
1.06657	29.8881
