Adsorption isotherm of Acetylene on M'MOF-7a
DOI: 10.1021/Ja302380x
Adsorbate Acetylene: InChIKey HSFWRNGVRCDJHI-UHFFFAOYSA-N
Temperature: 273 K
Tabular data in the source: 0
pressure (bar)	uptake (cm3(STP)/g)
0.0055696	2.14227
0.0111392	3.72063
0.0362024	5.86083
0.0612656	8.79051
0.100253	11.042
0.125316	12.1672
0.161518	13.7423
0.189366	14.98
0.217215	15.7665
0.247847	17.0039
0.28405	17.7895
0.345315	19.362
0.409366	20.483
0.442783	21.269
0.473416	21.8296
0.534682	22.8382
0.595948	23.734
0.662783	24.6292
0.721264	25.638
0.782529	26.3082
0.843795	27.0912
0.913415	27.9861
0.974681	28.6563
1.00253	28.9917
1.03595	29.5521
1.06379	29.6619
