Adsorption isotherm of Acetylene on M'MOF-5a
DOI: 10.1021/Ja302380x
Adsorbate Acetylene: InChIKey HSFWRNGVRCDJHI-UHFFFAOYSA-N
Temperature: 296 K
Tabular data in the source: 0
pressure (bar)	uptake (mmol/g)
0.0352733	0.00141343
0.0599333	0.00310954
0.0810973	0.0039576
0.112837	0.00537102
0.134001	0.00621908
0.165741	0.00763251
0.183371	0.00848057
0.197493	0.00876325
0.232754	0.0104594
0.264518	0.0113074
0.282174	0.0115901
0.320968	0.0132862
0.352745	0.0138516
0.373934	0.0141343
0.42685	0.0161131
0.493926	0.0175265
0.568068	0.0189399
0.613967	0.019788
0.652799	0.020636
0.702244	0.0212014
0.75521	0.0220495
0.811722	0.0226148
0.868209	0.0237456
0.935334	0.0240283
0.995355	0.025159
