Adsorption isotherm of Ethene on M'MOF-5a
DOI: 10.1021/Ja302380x
Adsorbate Ethene: InChIKey VGGSQFUCUMXWEO-UHFFFAOYSA-N
Temperature: 273 K
Tabular data in the source: 0
pressure (bar)	uptake (cm3(STP)/g)
0.0165361	0.692287
0.0330722	1.55832
0.0496083	3.11933
0.0633884	3.98581
0.0964606	5.89162
0.129533	7.10245
0.159849	7.96624
0.220481	9.86756
0.253554	10.5572
0.289382	11.0726
0.35277	11.931
0.416159	12.9631
0.449231	13.3052
0.476791	13.6482
0.54018	14.5066
0.573252	14.8487
0.603568	15.0175
0.633884	15.7076
0.666956	15.7022
0.727589	16.3873
0.785465	17.0728
0.85161	17.4095
0.887438	17.4037
0.923266	17.9191
0.94807	18.0888
1.01146	18.426
1.04453	18.7681
1.07209	18.7636
