Adsorption isotherm of Ethene on M'MOF-5a
DOI: 10.1021/Ja302380x
Adsorbate Ethene: InChIKey VGGSQFUCUMXWEO-UHFFFAOYSA-N
Temperature: 296 K
Tabular data in the source: 0
pressure (bar)	uptake (cm3(STP)/g)
0.0188717	0.32967
0.043134	0.769231
0.0673962	1.20879
0.102449	1.75824
0.124011	2.1978
0.161775	2.63736
0.183337	3.07692
0.22381	3.40659
0.253482	3.73626
0.285845	4.17582
0.318218	4.50549
0.380253	5.27473
0.409926	5.6044
0.442309	5.82418
0.480072	6.26374
0.501644	6.59341
0.536717	6.92308
0.569079	7.36264
0.601452	7.69231
0.631135	7.91209
0.658107	8.24176
0.69048	8.57143
0.728253	8.9011
0.755235	9.12088
0.784908	9.45055
0.81729	9.67033
0.873925	10.4396
0.909028	10.4396
0.944091	10.8791
0.968373	11.0989
1.0007	11.978
