Adsorption isotherm of Acetylene on M'MOF-4a
DOI: 10.1021/Ja302380x
Adsorbate Acetylene: InChIKey HSFWRNGVRCDJHI-UHFFFAOYSA-N
Temperature: 296 K
Tabular data in the source: 0
pressure (bar)	uptake (mmol/g)
0.0209642	0.00537102
0.0314525	0.00791519
0.0560626	0.010742
0.0735931	0.0138516
0.101737	0.0166784
0.126372	0.0189399
0.147473	0.0212014
0.17568	0.0226148
0.196794	0.0245936
0.221479	0.0257244
0.246126	0.0277032
0.281349	0.0302473
0.323677	0.0319435
0.348325	0.0339223
0.369464	0.0353357
0.432943	0.0381625
0.461149	0.039576
0.496398	0.0415548
0.531659	0.0432509
0.573974	0.0452297
0.609222	0.0472085
0.655059	0.04947
0.704441	0.0514488
0.753811	0.0537102
0.806703	0.0562544
0.827866	0.0571025
0.884304	0.059364
0.912497	0.0610601
0.926619	0.0613428
0.997166	0.0641696
