Adsorption isotherm of Acetylene on M'MOF-6a
DOI: 10.1021/Ja302380x
Adsorbate Acetylene: InChIKey HSFWRNGVRCDJHI-UHFFFAOYSA-N
Temperature: 273 K
Tabular data in the source: 0
pressure (bar)	uptake (cm3(STP)/g)
0.0054004	3.58491
0.013501	6.22642
0.0351026	9.0566
0.0621046	13.5849
0.0972072	16.6038
0.124209	18.8679
0.159312	21.1321
0.189014	23.3962
0.218716	25.283
0.251119	26.9811
0.280821	28.8679
0.345626	32.0755
0.41043	35.283
0.472535	37.9245
0.504937	39.434
0.53464	40.566
0.564342	42.0755
0.596744	43.2075
0.658849	45.283
0.723654	47.3585
0.750656	48.1132
0.780358	48.8679
0.81276	49.6226
0.850563	50.3774
0.909967	51.5094
0.936969	52.2642
0.972072	53.0189
0.996374	53.5849
