Adsorption isotherm of Carbon Dioxide on M'MOF-5a
DOI: 10.1021/Ja302380x
Adsorbate Carbon Dioxide: InChIKey CURLTUGMZLYLDI-UHFFFAOYSA-N
Temperature: 196 K
Tabular data in the source: 0
pressure (bar)	uptake (cm3(STP)/g)
0.0118236	19.6721
0.0147294	27.0492
0.0359718	34.4262
0.0695138	38.1148
0.106137	40.5738
0.124436	42.418
0.161072	44.2623
0.19162	44.877
0.252667	48.5656
0.313739	51.0246
0.341231	51.6393
0.383979	53.4836
0.41454	53.4836
0.435933	53.4836
0.472568	55.3279
0.533665	56.5574
0.567282	56.5574
0.631448	57.1721
0.655859	59.0164
0.723068	60.2459
0.759741	60.2459
0.820851	60.8607
0.851412	60.8607
0.906409	61.4754
0.936945	62.7049
0.976674	62.7049
1.01025	64.5492
