Adsorption isotherm of Ethene on M'MOF-6a
DOI: 10.1021/Ja302380x
Adsorbate Ethene: InChIKey VGGSQFUCUMXWEO-UHFFFAOYSA-N
Temperature: 296 K
Tabular data in the source: 0
pressure (bar)	uptake (cm3(STP)/g)
0.0188537	0.27027
0.035014	1.08108
0.0700279	2.16216
0.0969617	3.10811
0.129282	3.64865
0.161603	4.32432
0.19123	4.72973
0.223551	5.27027
0.253178	5.94595
0.285498	6.21622
0.320512	6.75676
0.355526	7.2973
0.379767	7.7027
0.412087	7.97297
0.447101	8.37838
0.476728	8.64865
0.509049	8.91892
0.54137	9.32432
0.568303	9.32432
0.597931	9.86486
0.630251	10.1351
0.662572	10.5405
0.694892	10.6757
0.72452	10.9459
0.759533	11.3514
0.791854	11.6216
0.818788	12.027
0.853802	12.2973
0.886122	12.4324
0.91575	12.7027
0.945377	12.973
0.977697	13.2432
1.00732	13.5135
1.03965	13.7838
