Adsorption isotherm of Acetylene on M'MOF-6a
DOI: 10.1021/Ja302380x
Adsorbate Acetylene: InChIKey HSFWRNGVRCDJHI-UHFFFAOYSA-N
Temperature: 296 K
Tabular data in the source: 0
pressure (bar)	uptake (mmol/g)
0.0281187	0.00339223
0.0492202	0.00565371
0.08091	0.00819788
0.123163	0.0115901
0.144252	0.0141343
0.179488	0.0163958
0.211215	0.0180919
0.257039	0.020636
0.302876	0.0228975
0.348725	0.0248763
0.405162	0.0271378
0.45804	0.0299647
0.532158	0.0319435
0.613305	0.0347703
0.655646	0.0361837
0.705066	0.0373145
0.754461	0.0390106
0.807402	0.040424
0.86741	0.0418375
0.934473	0.0435336
0.99799	0.0455124
