Adsorption isotherm of Acetylene on M'MOF-6a
DOI: 10.1021/Ja302380x
Adsorbate Acetylene: InChIKey HSFWRNGVRCDJHI-UHFFFAOYSA-N
Temperature: 295 K
Tabular data in the source: 0
pressure (bar)	uptake (cm3(STP)/g)
0.00907685	3.23944
0.0245699	3.94366
0.0399754	5.77465
0.070841	8.73239
0.0986738	10.7042
0.132715	12.8169
0.166788	14.507
0.191555	15.9155
0.228761	17.3239
0.250462	18.169
0.284558	19.5775
0.315566	20.7042
0.349694	21.6901
0.383823	22.6761
0.414852	23.5211
0.439663	24.3662
0.473781	25.493
0.535863	26.9014
0.604141	28.5915
0.656905	29.8592
0.725151	31.9718
0.787233	33.3803
0.843118	34.507
0.91144	35.6338
0.942492	36.1972
0.973544	36.7606
1.00454	38.0282
