Adsorption isotherm of Ethene on M'MOF-4a
DOI: 10.1021/Ja302380x
Adsorbate Ethene: InChIKey VGGSQFUCUMXWEO-UHFFFAOYSA-N
Temperature: 296 K
Tabular data in the source: 0
pressure (bar)	uptake (cm3(STP)/g)
0.0146251	0.559701
0.032197	1.45522
0.0643723	2.68657
0.0936116	3.69403
0.125733	4.36567
0.157832	4.81343
0.187038	5.48507
0.216223	5.93284
0.283314	6.60448
0.347491	7.27612
0.376654	7.5
0.408731	7.72388
0.437895	7.94776
0.475811	8.28358
0.531213	8.6194
0.572011	8.6194
0.630315	8.84328
0.691534	9.06716
0.752732	9.06716
0.819757	9.06716
0.875137	9.1791
0.910117	9.29104
0.977143	9.29104
1.00628	9.29104
1.03833	9.1791
1.07331	9.29104
