Adsorption isotherm of Carbon Dioxide on M'MOF-6a
DOI: 10.1021/Ja302380x
Adsorbate Carbon Dioxide: InChIKey CURLTUGMZLYLDI-UHFFFAOYSA-N
Temperature: 196 K
Tabular data in the source: 0
pressure (bar)	uptake (cm3(STP)/g)
0.0179108	20.9016
0.0329658	31.9672
0.0572017	42.418
0.0631886	48.5656
0.087437	58.4016
0.0934616	62.7049
0.11771	72.541
0.129872	75.6148
0.148083	81.7623
0.190731	88.5246
0.218186	90.9836
0.257852	94.0574
0.282263	95.9016
0.312799	97.1311
0.343323	98.9754
0.373834	101.434
0.410482	102.664
0.434906	103.893
0.471579	103.893
0.526564	105.123
0.563212	106.352
0.593735	108.197
0.654857	108.197
0.69153	108.197
0.722066	109.426
0.755683	109.426
0.783188	109.426
0.847354	110.041
0.880958	110.656
0.939012	111.27
0.975698	110.656
1.0001	113.115
