Adsorption isotherm of Ethene on M'MOF-4a
DOI: 10.1021/Ja302380x
Adsorbate Ethene: InChIKey VGGSQFUCUMXWEO-UHFFFAOYSA-N
Temperature: 273 K
Tabular data in the source: 0
pressure (bar)	uptake (cm3(STP)/g)
0.00833265	1.94235
0.0333306	4.33088
0.0666612	6.26973
0.0944367	7.61135
0.12499	8.50407
0.15832	9.39641
0.222204	10.8825
0.249979	11.1776
0.286088	11.7705
0.347194	12.659
0.405522	13.3983
0.477738	14.1357
0.530512	14.7263
0.569398	15.3189
0.599951	15.6136
0.661057	16.6515
0.716608	17.5407
0.783269	18.7274
0.84993	19.9141
0.880483	20.3583
0.911036	20.952
0.972142	21.8405
1.00547	22.2843
1.0388	22.5786
1.0638	23.0236
