Adsorption isotherm of Acetylene on M'MOF-7a
DOI: 10.1021/Ja302380x
Adsorbate Acetylene: InChIKey HSFWRNGVRCDJHI-UHFFFAOYSA-N
Temperature: 296 K
Tabular data in the source: 0
pressure (bar)	uptake (cm3(STP)/g)
0.0298092	0.506757
0.0600551	2.22973
0.098272	3.64865
0.128227	4.56081
0.155488	5.47297
0.18537	6.18243
0.223314	6.84122
0.250484	7.5
0.282987	8.00676
0.318183	8.51351
0.347992	9.02027
0.380495	9.52703
0.412924	9.83108
0.440004	10.2365
0.477839	10.5912
0.504845	10.7939
0.537275	11.098
0.569723	11.4527
0.599423	11.6554
0.631853	11.9595
0.664246	12.1622
0.693982	12.4662
0.723719	12.7703
0.756094	12.9223
0.823574	13.3277
0.880244	13.6318
0.918024	13.8345
0.945013	13.9865
0.974713	14.1892
1.00973	14.1892
1.03943	14.3919
