Adsorption isotherm of Acetylene on M'MOF-6a
DOI: 10.1021/Ja302380x
Adsorbate Acetylene: InChIKey HSFWRNGVRCDJHI-UHFFFAOYSA-N
Temperature: 296 K
Tabular data in the source: 0
pressure (bar)	uptake (cm3(STP)/g)
0.00538676	1.62162
0.0134669	2.43243
0.021547	3.51351
0.0404007	5.81081
0.0700279	8.51351
0.0969617	10.6757
0.129282	12.5676
0.161603	14.1892
0.193923	15.6757
0.223551	16.8919
0.255871	18.2432
0.285498	19.0541
0.317819	20.2703
0.35014	21.4865
0.379767	22.4324
0.409394	23.2432
0.444408	24.1892
0.506356	25.9459
0.570997	27.5676
0.630251	29.0541
0.662572	29.5946
0.692199	30.9459
0.770307	32.5676
0.786467	32.973
0.818788	33.6486
0.853802	34.0541
0.883429	34.7297
0.913056	35.5405
0.945377	35.9459
0.975004	36.6216
1.00194	37.5676
