Adsorption isotherm of Ethene on M'MOF-7a
DOI: 10.1021/Ja302380x
Adsorbate Ethene: InChIKey VGGSQFUCUMXWEO-UHFFFAOYSA-N
Temperature: 273 K
Tabular data in the source: 0
pressure (bar)	uptake (cm3(STP)/g)
0.027848	0.222619
0.0668352	0.444061
0.0946832	0.66668
0.122531	0.889299
0.161518	0.885176
0.189366	1.1078
0.222784	1.21704
0.247847	1.55274
0.317467	1.77094
0.378733	2.10281
0.439999	2.54746
0.470631	2.76978
0.534682	2.98857
0.568099	3.32339
0.595948	3.32044
0.634935	3.76745
0.662783	3.99007
0.693416	3.98683
0.729618	4.32135
0.751896	4.54455
0.785314	4.6538
0.821516	4.87554
0.84658	4.87289
0.877212	5.20799
0.941263	5.53957
0.98025	5.76101
1.00531	6.66061
