Adsorption isotherm of Acetylene on M'MOF-7a
DOI: 10.1021/Ja302380x
Adsorbate Acetylene: InChIKey HSFWRNGVRCDJHI-UHFFFAOYSA-N
Temperature: 296 K
Tabular data in the source: 0
pressure (bar)	uptake (mmol/g)
0.04942	0.00113074
0.0882643	0.00169611
0.123563	0.00254417
0.169474	0.00310954
0.204772	0.0039576
0.254217	0.00452297
0.285994	0.00508834
0.328372	0.00565371
0.370738	0.00650177
0.406061	0.00678445
0.434292	0.00763251
0.462548	0.00791519
0.497871	0.00819788
0.533169	0.00904594
0.56848	0.00961131
0.607337	0.00989399
0.656769	0.010742
0.702668	0.0115901
0.755634	0.0124382
0.808613	0.0130035
0.872167	0.0141343
0.928692	0.014417
0.999313	0.0155477
