Adsorption isotherm of Ethene on M'MOF-6a
DOI: 10.1021/Ja302380x
Adsorbate Ethene: InChIKey VGGSQFUCUMXWEO-UHFFFAOYSA-N
Temperature: 295 K
Tabular data in the source: 0
pressure (bar)	uptake (cm3(STP)/g)
0.031019	0.985915
0.0713447	2.25352
0.0992541	3.23944
0.130284	4.08451
0.161358	4.3662
0.192399	5.07042
0.254513	6.05634
0.288674	6.61972
0.313529	6.90141
0.378764	7.74648
0.409838	8.02817
0.444021	8.30986
0.471974	8.73239
0.506147	9.15493
0.571403	9.71831
0.596247	10.1408
0.630441	10.2817
0.658395	10.7042
0.695709	10.7042
0.757824	11.6901
0.819971	12.2535
0.857286	12.2535
0.913203	12.9577
0.944288	13.0986
0.972252	13.3803
1.04061	14.0845
1.07169	14.2254
