Adsorption isotherm of Acetylene on M'MOF-4a
DOI: 10.1021/Ja302380x
Adsorbate Acetylene: InChIKey HSFWRNGVRCDJHI-UHFFFAOYSA-N
Temperature: 273 K
Tabular data in the source: 0
pressure (bar)	uptake (cm3(STP)/g)
0.00277755	1.04612
0.00833265	2.24136
0.0166653	5.67873
0.0333306	8.21792
0.0666612	11.8013
0.0916591	14.0403
0.127767	16.2778
0.161098	17.7681
0.188873	19.5582
0.216649	21.1989
0.249979	22.6892
0.280532	23.5819
0.311086	24.7737
0.347194	25.9646
0.377747	27.0069
0.4083	28.0491
0.44163	29.3899
0.474961	30.7308
0.499959	32.2223
0.533289	33.4136
0.563843	34.3063
0.594396	35.1991
0.661057	36.5352
0.722163	38.0217
0.780491	39.2095
0.84993	40.3958
0.911036	40.9853
0.977697	41.8729
1.03325	42.7621
1.0638	43.0569
