Adsorption isotherm of Acetylene on M'MOF-5a
DOI: 10.1021/Ja302380x
Adsorbate Acetylene: InChIKey HSFWRNGVRCDJHI-UHFFFAOYSA-N
Temperature: 273 K
Tabular data in the source: 0
pressure (bar)	uptake (cm3(STP)/g)
0.00826805	5.03726
0.0110241	7.99048
0.0248042	11.2894
0.0303162	13.3734
0.0633884	18.2329
0.0964606	21.7024
0.110241	23.0901
0.129533	24.6507
0.157093	26.2099
0.190165	28.1157
0.253554	31.0591
0.28387	32.0966
0.316942	33.1337
0.347258	34.345
0.383086	35.0341
0.410647	36.2458
0.446475	36.935
0.509863	38.4884
0.570496	40.0422
0.631128	41.0748
0.694517	42.4544
0.757905	43.4866
0.824049	44.8658
0.881926	45.5513
0.912242	46.2414
0.945314	46.931
0.972874	47.274
1.03902	48.3056
1.07485	48.9948
