Adsorption isotherm of Ethene on M'MOF-6a
DOI: 10.1021/Ja302380x
Adsorbate Ethene: InChIKey VGGSQFUCUMXWEO-UHFFFAOYSA-N
Temperature: 273 K
Tabular data in the source: 0
pressure (bar)	uptake (cm3(STP)/g)
0.013501	1.69811
0.027002	2.45283
0.067505	4.5283
0.094507	5.66038
0.126909	6.60377
0.159312	7.16981
0.189014	8.11321
0.218716	8.67925
0.253819	9.43396
0.280821	9.81132
0.310523	10.1887
0.351026	11.1321
0.383428	11.6981
0.41043	12.0755
0.445533	12.6415
0.472535	13.2075
0.507638	13.5849
0.53464	14.1509
0.564342	14.717
0.596744	15.283
0.629147	15.6604
0.664249	16.2264
0.688551	16.6038
0.726354	17.1698
0.753356	17.5472
0.788458	17.9245
0.818161	18.3019
0.850563	18.6792
0.880265	19.434
0.907267	19.434
0.93967	20
0.974772	20.566
1.00177	21.1321
1.03418	21.3208
1.06928	21.8868
