Adsorption isotherm of Carbon Dioxide on M'MOF-7a
DOI: 10.1021/Ja302380x
Adsorbate Carbon Dioxide: InChIKey CURLTUGMZLYLDI-UHFFFAOYSA-N
Temperature: 196 K
Tabular data in the source: 0
pressure (bar)	uptake (cm3(STP)/g)
0.00288075	8.60656
0.015005	13.5246
0.0332664	17.2131
0.106588	18.4426
0.173784	20.2869
0.222669	20.9016
0.286835	21.5164
0.344888	22.1311
0.41211	22.7459
0.494625	22.7459
0.534342	23.3607
0.595451	23.9754
0.659629	23.9754
0.742156	23.3607
0.806322	23.9754
0.867456	23.3607
0.928578	23.3607
0.992757	23.3607
1.02334	22.1311
