Adsorption isotherm of Nitrogen on IRMOF-3
DOI: 10.1021/Ar1000617
Adsorbate Nitrogen: InChIKey IJGRMHOSHXDMSA-UHFFFAOYSA-N
Temperature: 77 K
Tabular data in the source: 0
pressure (bar)	uptake (cm3(STP)/g)
0.0325804	-0.345132
0.101392	-9.54864
0.199072	6.36576
0.300403	13.7669
0.354703	13.1917
0.506776	3.10619
0.705879	0.997047
0.85065	7.93803
