Adsorption isotherm of Nitrogen on IRMOF-3
DOI: 10.1021/Ar1000617
Adsorbate Nitrogen: InChIKey IJGRMHOSHXDMSA-UHFFFAOYSA-N
Temperature: 77 K
Tabular data in the source: 0
pressure (bar)	uptake (cm3(STP)/g)
0	0
0.00363636	771.148
0.0218182	872.65
0.105455	914.137
0.250909	946.495
0.458182	978.197
0.650909	984.63
0.898182	1007.43
