Adsorption isotherm of Nitrogen on IRMOF-10-NH2
DOI: 10.1021/Ar1000617
Adsorbate Nitrogen: InChIKey IJGRMHOSHXDMSA-UHFFFAOYSA-N
Temperature: 77 K
Tabular data in the source: 0
pressure (bar)	uptake (cm3(STP)/g)
0.00429185	0.00429185
0.0600858	360.424
0.201717	390.685
0.407725	408.507
0.609442	434.786
0.811159	456.827
0.95279	495.563
