Adsorption isotherm of Nitrogen on IRMOF-16
DOI: 10.1021/Ar1000617
Adsorbate Nitrogen: InChIKey IJGRMHOSHXDMSA-UHFFFAOYSA-N
Temperature: 77 K
Tabular data in the source: 0
pressure (bar)	uptake (cm3(STP)/g)
-0.0073844	26.7857
0.00124224	96.4286
0.0904762	123.214
0.148654	139.286
0.303175	133.929
0.450311	155.357
0.655487	182.143
0.752519	214.286
0.908144	294.643
