Adsorption isotherm of Nitrogen on IRMOF-16
DOI: 10.1021/Ar1000617
Adsorbate Nitrogen: InChIKey IJGRMHOSHXDMSA-UHFFFAOYSA-N
Temperature: 77 K
Tabular data in the source: 0
pressure (bar)	uptake (cm3(STP)/g)
-0.0031746	53.5714
-0.00234645	117.857
0.00124224	396.429
0.0523119	460.714
0.16087	487.5
0.455072	525
0.714493	562.5
0.912215	610.714
