Adsorption isotherm of Nitrogen on IRMOF-10-NH2
DOI: 10.1021/Ar1000617
Adsorbate Nitrogen: InChIKey IJGRMHOSHXDMSA-UHFFFAOYSA-N
Temperature: 77 K
Tabular data in the source: 0
pressure (bar)	uptake (cm3(STP)/g)
0	8.47458
0.0729614	34.2075
0.16309	38.8267
0.253219	47.6831
0.407725	48.3378
0.613734	49.2107
0.854077	54.4664
0.948498	93.0021
