Adsorption isotherm of Nitrogen on IRMOF-3
DOI: 10.1021/Ar1000617
Adsorbate Nitrogen: InChIKey IJGRMHOSHXDMSA-UHFFFAOYSA-N
Temperature: 77 K
Tabular data in the source: 0
pressure (bar)	uptake (cm3(STP)/g)
-0.00363636	59.3606
0	364.407
0.00363636	483.012
0.0472727	541.872
0.145455	574.73
0.298182	581.587
0.447273	580.008
0.654545	603.236
0.850909	601.156
