Adsorption isotherm of Nitrogen on IRMOF-10-NH2
DOI: 10.1021/Ar1000617
Adsorbate Nitrogen: InChIKey IJGRMHOSHXDMSA-UHFFFAOYSA-N
Temperature: 77 K
Tabular data in the source: 0
pressure (bar)	uptake (cm3(STP)/g)
0	38.1356
0.00429185	110.188
0.0686695	123.172
0.206009	132.229
0.351931	132.847
0.51073	141.995
0.708155	138.594
0.95279	143.868
