Adsorption isotherm of Nitrogen on IRMOF-1
DOI: 10.1016/j.micromeso.2008.08.054
Adsorbate Nitrogen: InChIKey IJGRMHOSHXDMSA-UHFFFAOYSA-N
Temperature: 77 K
Tabular data in the source: 0
pressure (bar)	uptake (cm3(STP)/g)
0.00280786	0.00280786
0.00561572	286.765
0.00842358	370.588
0.0252708	401.471
0.0505415	425.735
0.101083	438.971
0.146009	445.588
0.193742	454.412
0.247092	458.824
0.297633	463.235
0.348175	465.441
0.393101	472.059
0.435218	474.265
0.491376	474.265
0.539109	480.882
0.592459	483.088
0.643	485.294
0.687926	489.706
0.738468	491.912
0.786201	496.324
0.833935	502.941
0.878861	509.559
0.923786	525
0.97152	553.676
