Adsorption isotherm of Methyl Orange on Sn6O4 (OH)4 –NPs‐AC
DOI: 10.1002/aoc.3860
Article source: Figure 7
Adsorbate Methyl Orange: InChIKey STZCRXQWRGQSJD-GEEYTBSJSA-M
Kind: experiment
Temperature: 298 K
Tabular data in the source: 0
pressure (bar)	uptake (mg/g)
1.01325	4.82603
1.01325	9.38923
1.01325	14.0217
1.01325	18.2684
1.01325	22.4171
1.01325	26.3688
1.01325	26.421
