Adsorption isotherm of Methylene blue on Sn6O4 (OH)4 –NPs‐AC
DOI: 10.1002/aoc.3860
Article source: Figure 7
Adsorbate Methylene blue: InChIKey CXKWCBBOMKCUKX-UHFFFAOYSA-M
Kind: experiment
Temperature: 298 K
Tabular data in the source: 0
pressure (bar)	uptake (mg/g)
1.01325	4.63991
1.01325	9.20577
1.01325	12.9787
1.01325	16.3629
1.01325	19.9444
1.01325	21.756
1.01325	22.3285
