Adsorption isotherm of N-Hexane on MIL-100(Cr)
DOI: 10.1016/j.micromeso.2010.05.018
Adsorbate N-Hexane: InChIKey VLKZOEOYAKHREP-UHFFFAOYSA-N
Temperature: 313 K
Tabular data in the source: 0
pressure (bar)	uptake (ml/g)
0.000111714	0.2343
0.000138888	0.291292
0.000169081	0.354616
0.000196255	0.411608
0.000220409	0.462267
0.00139492	0.525582
0.00199425	0.582569
0.00201991	0.636394
0.00376356	0.693372
0.00721765	0.737669
0.00838763	0.791485
0.0152716	0.829421
0.0261562	0.857824
0.03761	0.87989
0.0524921	0.892428
0.0685171	0.90179
0.0839699	0.911156
0.0999933	0.917352
0.117158	0.917205
0.139475	0.923347
0.158359	0.929518
0.178385	0.929347
0.194979	0.932372
0.212145	0.935391
0.229884	0.938406
0.248194	0.941416
0.263072	0.944455
0.279094	0.947485
0.297403	0.947328
0.315714	0.950338
0.32945	0.95972
0.345472	0.962749
0.358064	0.97214
