Adsorption isotherm of N-Heptane on MIL-100(Cr)
DOI: 10.1016/j.micromeso.2010.05.018
Adsorbate N-Heptane: InChIKey IMNFDUFMRHMDMM-UHFFFAOYSA-N
Temperature: 303 K
Tabular data in the source: 0
pressure (bar)	uptake (ml/g)
0.000123541	0.409085
0.000247082	0.535216
0.000370622	0.61362
0.000617704	0.654518
0.000864786	0.695416
0.00111187	0.732905
0.00148249	0.773798
0.00197665	0.811276
0.00308852	0.8385
0.00494163	0.858873
0.00741245	0.882627
0.0100068	0.896149
0.0130953	0.902831
0.0169251	0.912889
0.0201372	0.916156
0.0238434	0.922811
0.0273025	0.922658
0.0290321	0.925991
0.0310087	0.929313
0.0344679	0.92916
0.0386683	0.932384
0.042498	0.935624
0.0463278	0.938864
0.0481809	0.942191
0.050034	0.942109
0.0532461	0.941967
0.0562111	0.945245
0.0584348	0.945147
0.0600408	0.945076
0.0617704	0.945
0.0635	0.948333
0.0673297	0.954982
0.0698006	0.954873
0.0715301	0.954796
0.0731362	0.954725
0.0746186	0.958069
