Adsorption isotherm of N-Hexane on Cr-MIL(101)
DOI: 10.1016/j.micromeso.2010.05.018
Adsorbate N-Hexane: InChIKey VLKZOEOYAKHREP-UHFFFAOYSA-N
Temperature: 313 K
Tabular data in the source: 0
pressure (bar)	uptake (ml/g)
0.00978982	0.593501
0.0116081	0.658406
0.0122286	0.718688
0.0134471	0.778962
0.0152619	0.834592
0.0170767	0.890221
0.0206838	0.941191
0.0254868	0.992145
0.0290887	1.0292
0.0320977	1.08018
0.0345105	1.1358
0.0369216	1.18678
0.0423191	1.22846
0.0518923	1.24225
0.0608674	1.25605
0.0728309	1.26518
0.152382	1.31056
0.175707	1.31954
0.197833	1.31926
0.249268	1.33717
0.298305	1.3412
0.313255	1.34101
0.328207	1.34546
0.35213	1.35444
