Adsorption isotherm of N-Nonane on Cr-MIL(101)
DOI: 10.1016/j.micromeso.2010.05.018
Adsorbate N-Nonane: InChIKey BKIMMITUMNQMOS-UHFFFAOYSA-N
Temperature: 313 K
Tabular data in the source: 0
pressure (bar)	uptake (ml/g)
8.76e-05	0.153923
0.000131419	0.189437
0.000219031	0.38678
0.000262838	0.351242
0.000306644	0.670966
0.00035045	0.580164
0.000394256	0.738047
0.000438062	0.773561
0.000481869	0.868285
0.000525675	0.994589
0.000569481	0.935366
0.000657094	1.01034
0.000832319	1.03003
0.00127038	1.04175
0.00175225	1.05345
0.00183986	1.05343
0.00223412	1.06121
0.00262838	1.069
0.00306644	1.07282
0.00341689	1.07667
0.00354831	1.07269
0.00398637	1.08046
0.00442443	1.08033
0.00481869	1.08417
0.00525675	1.08799
0.00569481	1.08787
0.00595765	1.08385
0.00608907	1.08776
0.00652713	1.08764
0.00696519	1.09146
0.00740326	1.09528
0.00784132	1.09516
0.00827938	1.09504
0.00871744	1.09491
0.0091117	1.09086
0.00937454	1.09473
0.0098126	1.09461
0.0102507	1.09448
0.0106887	1.09436
0.0111268	1.09424
0.0115649	1.09411
0.0120029	1.09399
0.012441	1.09387
0.0127476	1.09378
0.0133171	1.08967
0.0134485	1.08963
