Adsorption isotherm of N-Pentane on Cr-MIL(101)
DOI: 10.1016/j.micromeso.2010.05.018
Adsorbate N-Pentane: InChIKey OFBQJSOFQDEBGM-UHFFFAOYSA-N
Temperature: 303 K
Tabular data in the source: 0
pressure (bar)	uptake (ml/g)
0.00239008	0.0681562
0.00478016	0.128289
0.00637355	0.196459
0.00796693	0.268639
0.00916197	0.348849
0.00995867	0.417031
0.0115521	0.493223
0.0135438	0.557374
0.0151372	0.621532
0.0175273	0.681665
0.019519	0.733782
0.0227058	0.773845
0.0266892	0.813895
0.029876	0.845935
0.0326644	0.898039
0.0350545	0.946138
0.0378429	0.994231
0.0422248	1.01422
0.0466066	1.02217
0.0521834	1.0301
0.0565652	1.03805
0.0617437	1.04198
0.0669222	1.04992
0.0709057	1.05387
0.0768809	1.05778
0.079271	1.06176
0.0852462	1.06567
0.0963999	1.0695
0.099985	1.06944
0.104367	1.07338
0.115122	1.07321
0.125479	1.08107
0.134243	1.08494
0.144202	1.08879
0.153363	1.09265
0.164119	1.09649
0.170492	1.09638
0.174874	1.10434
0.178459	1.10027
0.190011	1.10409
0.194393	1.10402
0.203157	1.10789
0.208734	1.11181
0.216701	1.10767
0.226261	1.11153
0.239805	1.11131
