Adsorption isotherm of N-Pentane on MIL-100(Cr)
DOI: 10.1016/j.micromeso.2010.05.018
Adsorbate N-Pentane: InChIKey OFBQJSOFQDEBGM-UHFFFAOYSA-N
Temperature: 303 K
Tabular data in the source: 0
pressure (bar)	uptake (ml/g)
0.00521952	0.334069
0.00913416	0.443144
0.0117439	0.507905
0.0182683	0.572651
0.0274025	0.616931
0.0365366	0.647575
0.0456708	0.681627
0.0574147	0.715669
0.0691586	0.732665
0.0769879	0.74286
0.0861221	0.746231
0.0939514	0.753016
0.0991709	0.752995
0.110915	0.763173
0.126573	0.766516
0.138317	0.769876
0.1605	0.780011
0.173549	0.786775
0.189208	0.790118
0.202256	0.793473
0.21661	0.796822
0.22183	0.7968
0.234878	0.800155
0.247927	0.803509
0.253147	0.806896
0.257061	0.803471
0.268805	0.806831
0.283159	0.806771
0.287074	0.806755
0.298818	0.810115
0.310561	0.810065
0.317086	0.810038
0.330135	0.809984
0.337964	0.809951
0.343183	0.813338
0.354927	0.813289
0.371891	0.813218
0.391464	0.816545
0.397988	0.816518
0.411037	0.819873
0.416257	0.816442
0.43844	0.823167
0.443659	0.819736
0.456708	0.823091
0.468452	0.823042
0.481501	0.822987
0.48933	0.822955
0.49455	0.822933
0.507598	0.826287
0.514123	0.822851
0.528476	0.8262
0.533696	0.826178
0.546745	0.826124
0.553269	0.826096
0.559794	0.829478
0.572842	0.832833
0.578062	0.829402
0.59894	0.832724
0.604159	0.832702
0.617208	0.832647
0.623733	0.83262
0.644611	0.835942
0.64983	0.83592
0.662879	0.835865
0.673318	0.835822
0.686367	0.835767
0.692891	0.832331
0.71116	0.835664
0.725513	0.835604
0.730733	0.838991
0.743782	0.842345
0.752916	0.838898
0.763355	0.842264
0.768574	0.845651
0.781623	0.845596
0.794672	0.845542
0.807721	0.848896
