Adsorption isotherm of N-Octane on MIL-100(Cr)
DOI: 10.1016/j.micromeso.2010.05.018
Adsorbate N-Octane: InChIKey TVMXDCGIABBOFY-UHFFFAOYSA-N
Temperature: 313 K
Tabular data in the source: 0
pressure (bar)	uptake (ml/g)
6.52e-05	6.52e-05
0.000130427	0.617431
0.00019564	0.655797
0.000260854	0.711606
0.000326067	0.784856
0.00039128	0.739502
0.000456494	0.753449
0.000521707	0.812746
0.000652134	0.837154
0.000847774	0.854579
0.00110863	0.861533
0.00149991	0.875454
0.00176076	0.889385
0.00228247	0.896317
0.0029346	0.910215
0.00345631	0.917147
0.00430408	0.92754
0.00502143	0.930968
0.00580399	0.941366
0.0068474	0.941277
0.00789082	0.948165
0.00886902	0.95157
0.00997765	0.954964
0.0111515	0.954864
0.0123253	0.958252
0.0132383	0.965151
0.0145426	0.968529
0.0160425	0.968401
0.0164338	0.968368
0.0176728	0.968262
0.0203466	0.968034
0.0231507	0.974772
0.0264114	0.977983
0.0285635	0.9778
0.0292808	0.981227
0.0326067	0.984432
0.0353456	0.987687
0.0371064	0.991025
