Adsorption isotherm of N-Octane on Cr-MIL(101)
DOI: 10.1016/j.micromeso.2010.05.018
Adsorbate N-Octane: InChIKey TVMXDCGIABBOFY-UHFFFAOYSA-N
Temperature: 313 K
Tabular data in the source: 0
pressure (bar)	uptake (ml/g)
0.000256765	0.000256765
0.000385147	0.529751
0.00051353	0.609205
0.000770295	0.874073
0.00102706	0.964106
0.00128382	1.00646
0.00154059	1.04881
0.00166897	1.16005
0.00179735	1.13884
0.00192574	1.2024
0.00205412	1.22358
0.00243927	1.23412
0.00308118	1.23934
0.00359471	1.24457
0.00397986	1.24982
0.00487853	1.2603
0.00526368	1.26554
0.00603397	1.27074
0.00706103	1.27061
0.00821648	1.28106
0.00962868	1.29147
0.0109125	1.2913
0.0128382	1.30165
0.0145072	1.30143
0.0173316	1.30637
0.0190006	1.30615
0.0197709	1.30605
0.020798	1.31651
0.0223385	1.31632
0.0238791	1.32141
0.0268319	1.32103
0.0287577	1.32078
0.0297847	1.32595
0.030555	1.33115
0.0320956	1.33095
0.0341497	1.32538
0.0344065	1.32535
0.0355619	1.3305
0.0367174	1.34095
0.0391566	1.33533
