Adsorption isotherm of N-Hexane on MIL-100(Cr)
DOI: 10.1016/j.micromeso.2010.05.018
Adsorbate N-Hexane: InChIKey VLKZOEOYAKHREP-UHFFFAOYSA-N
Temperature: 313 K
Tabular data in the source: 0
pressure (bar)	uptake (ml/g)
0.00295191	0.4116
0.00472306	0.54763
0.00590382	0.603433
0.0129884	0.701041
0.0188922	0.735869
0.0247961	0.760232
0.0330614	0.774108
0.0407364	0.791477
0.0495921	0.801859
0.0572671	0.812252
0.0667132	0.81914
0.0755689	0.819056
0.085015	0.825944
0.0920996	0.832854
0.100955	0.832771
0.10804	0.836193
0.115715	0.836121
0.12339	0.839537
0.130474	0.842958
0.134607	0.84292
0.142282	0.846336
0.146415	0.849785
0.15409	0.849713
0.161765	0.849641
0.17003	0.853051
0.176524	0.85299
0.180067	0.856445
0.18597	0.85639
0.191284	0.85634
0.197188	0.859773
0.202501	0.856234
0.206043	0.856201
0.212538	0.859628
0.21667	0.859589
0.222574	0.859534
0.229068	0.862961
0.233791	0.862917
0.240286	0.862856
0.248551	0.866266
0.257997	0.866177
0.26213	0.866138
0.268034	0.866083
0.274528	0.86951
0.280432	0.872943
0.285745	0.872893
0.288697	0.872865
0.295191	0.872804
0.301685	0.876231
0.307589	0.872687
0.311722	0.883114
0.321168	0.886513
0.331204	0.889907
0.336518	0.886369
0.341241	0.889813
0.343602	0.893279
0.348916	0.900206
0.35541	0.921075
