Adsorption isotherm of N-Octane on MIL-100(Cr)
DOI: 10.1016/j.micromeso.2010.05.018
Adsorbate N-Octane: InChIKey TVMXDCGIABBOFY-UHFFFAOYSA-N
Temperature: 313 K
Tabular data in the source: 0
pressure (bar)	uptake (ml/g)
0.000203374	0.712871
0.000206743	0.744554
0.000336852	0.768317
0.000339799	0.79604
0.000469487	0.815842
0.000855603	0.847525
0.00111287	0.867327
0.00149773	0.887129
0.00226491	0.90297
0.00290366	0.910891
0.00341568	0.926733
0.00430917	0.930693
0.00494793	0.938614
0.00571385	0.942574
0.00673535	0.950495
0.00775601	0.950495
0.00877751	0.958416
0.00992533	0.954455
0.0110744	0.962376
0.0123507	0.966337
0.0131166	0.970297
0.014648	0.974257
0.0159234	0.970297
0.0164341	0.974257
0.01771	0.974257
0.0203896	0.978218
0.0230693	0.982178
0.0262593	0.986139
0.0286829	0.982178
0.0293217	0.990099
0.0325117	0.994059
0.0353185	0.994059
0.037105	0.99802
