Adsorption isotherm of N-Heptane on MIL-100(Cr)
DOI: 10.1016/j.micromeso.2010.05.018
Adsorbate N-Heptane: InChIKey IMNFDUFMRHMDMM-UHFFFAOYSA-N
Temperature: 313 K
Tabular data in the source: 0
pressure (bar)	uptake (ml/g)
0.000779936	0.63835
0.00136489	0.690659
0.00233981	0.742957
0.00311975	0.79526
0.00506959	0.830088
0.0085793	0.857895
0.012674	0.882197
0.0173536	0.892529
0.0226182	0.906332
0.0278827	0.913159
0.0331473	0.916498
0.0388018	0.919825
0.0462112	0.926591
0.0522557	0.926418
0.0588852	0.933206
0.0643447	0.936539
0.0698043	0.936383
0.0762388	0.939689
0.0820883	0.94301
0.0869629	0.94636
0.0924225	0.949693
0.098272	0.949526
0.104316	0.956331
0.108801	0.959691
0.113871	0.966523
0.11816	0.973378
