Adsorption isotherm of N-Nonane on Cr-MIL(101)
DOI: 10.1016/j.micromeso.2010.05.018
Adsorbate N-Nonane: InChIKey BKIMMITUMNQMOS-UHFFFAOYSA-N
Temperature: 313 K
Tabular data in the source: 0
pressure (bar)	uptake (ml/g)
2.37e-05	0.0741951
4.67e-05	0.102014
0.000114948	0.134455
0.000115407	0.166918
0.000184088	0.227185
0.000252768	0.287453
0.00025421	0.389481
0.000275902	0.324546
0.000279048	0.547154
0.000298971	0.357003
0.000300412	0.459031
0.000302182	0.584248
0.000325643	0.64453
0.000346483	0.519306
0.000394521	0.71871
0.000463201	0.778977
0.000509272	0.839252
0.000532341	0.871708
0.000579002	0.973721
0.000601152	0.94125
0.000601939	0.996902
0.000851168	1.03392
0.00121305	1.04308
0.00175588	1.05681
0.00257002	1.07045
0.00345192	1.07944
0.0046503	1.08368
0.00596178	1.09252
0.00747669	1.09666
0.00924017	1.09144
0.0107551	1.09557
0.0127673	1.09491
0.0132647	1.09474
0.0134457	1.09932
