Adsorption isotherm of N-Nonane on MIL-100(Cr)
DOI: 10.1016/j.micromeso.2010.05.018
Adsorbate N-Nonane: InChIKey BKIMMITUMNQMOS-UHFFFAOYSA-N
Temperature: 313 K
Tabular data in the source: 0
pressure (bar)	uptake (ml/g)
6.7e-05	0.160448
8.93e-05	0.310443
0.000156252	0.359263
0.000178573	0.408095
0.000200895	0.460415
0.000245538	0.509241
0.00026786	0.558073
0.000312503	0.606899
0.000357146	0.652237
0.000424111	0.704546
0.000848223	0.749789
0.00194198	0.791377
0.00473219	0.808125
0.00837062	0.810708
0.0122992	0.816707
0.0129242	0.816551
0.0133037	0.819945
