Adsorption isotherm of N-Octane on Cr-MIL(101)
DOI: 10.1016/j.micromeso.2010.05.018
Adsorbate N-Octane: InChIKey TVMXDCGIABBOFY-UHFFFAOYSA-N
Temperature: 313 K
Tabular data in the source: 0
pressure (bar)	uptake (ml/g)
0.00035746	0.65851
0.000693668	0.80224
0.00082999	0.904254
0.00122995	0.992324
0.00156559	1.12214
0.00169942	1.16387
0.00183344	1.21023
0.00216429	1.2241
0.002561	1.23333
0.00302377	1.24256
0.00342028	1.24715
0.00401516	1.25636
0.00460984	1.26093
0.00513847	1.26551
0.00599718	1.26541
0.00665811	1.27461
0.00758306	1.27914
0.00923481	1.28823
0.0111506	1.29265
0.0121416	1.29718
0.0131987	1.30169
0.0145199	1.30618
0.0153786	1.30608
0.0165018	1.3106
0.0176245	1.30583
0.0186153	1.30572
0.0197384	1.31023
0.0208616	1.31474
0.0224469	1.31456
0.023834	1.3144
0.0250892	1.3189
0.0266747	1.32336
0.0280619	1.3232
0.0293171	1.32769
0.0300437	1.32761
0.0312325	1.32284
0.0323556	1.32735
0.0342053	1.33178
0.0347996	1.32707
0.0368477	1.33612
0.0392255	1.33121
