Adsorption isotherm of N-Nonane on MIL-100(Cr)
DOI: 10.1016/j.micromeso.2010.05.018
Adsorbate N-Nonane: InChIKey BKIMMITUMNQMOS-UHFFFAOYSA-N
Temperature: 313 K
Tabular data in the source: 0
pressure (bar)	uptake (ml/g)
0.000117403	0.303025
0.000158105	0.372034
0.00015884	0.357034
0.00016075	0.318034
0.000198072	0.456042
0.000199688	0.423043
0.00020057	0.405043
0.000237304	0.555051
0.000238921	0.522051
0.000239802	0.504051
0.000240978	0.480052
0.000279035	0.60306
0.000280504	0.57306
0.000320618	0.654069
0.000322087	0.624069
0.000406136	0.708087
0.00080081	0.750171
0.00132846	0.777284
0.00190093	0.789407
0.00326672	0.804699
0.00467717	0.808001
0.0063959	0.817369
0.00833548	0.817784
0.0104512	0.821237
0.0122586	0.821623
