Adsorption isotherm of N-Heptane on Cr-MIL(101)
DOI: 10.1016/j.micromeso.2010.05.018
Adsorbate N-Heptane: InChIKey IMNFDUFMRHMDMM-UHFFFAOYSA-N
Temperature: 313 K
Tabular data in the source: 0
pressure (bar)	uptake (ml/g)
0.00286173	0.78366
0.00326303	0.834659
0.00386182	0.885651
0.00406391	0.922745
0.00565534	1.01544
0.00664855	1.06178
0.00745001	1.1545
0.00785072	1.20086
0.00943703	1.25182
0.0131924	1.27486
0.0181316	1.28859
0.0226757	1.30233
0.0309724	1.31593
0.0372925	1.31569
0.0451941	1.3293
0.053292	1.33363
0.0572426	1.33812
0.0615876	1.33796
0.0690933	1.34231
0.0765986	1.34666
0.0854861	1.34633
0.0918068	1.35073
0.0997071	1.35506
0.105238	1.35949
0.114323	1.35915
0.118865	1.35898
