Adsorption isotherm of N-Heptane on Cr-MIL(101)
DOI: 10.1016/j.micromeso.2010.05.018
Adsorbate N-Heptane: InChIKey IMNFDUFMRHMDMM-UHFFFAOYSA-N
Temperature: 313 K
Tabular data in the source: 0
pressure (bar)	uptake (ml/g)
0.000360246	0.126912
0.000920391	0.170538
0.00147359	0.265722
0.00148107	0.210198
0.0020348	0.301416
0.00221279	0.380737
0.00221599	0.356941
0.00239612	0.420397
0.00276117	0.511615
0.00276759	0.464023
0.00313264	0.555241
0.00350411	0.598867
0.00368691	0.642493
0.00406052	0.670255
0.00424385	0.709915
0.00480346	0.757507
0.005176	0.793201
0.00592589	0.828895
0.00705313	0.864589
0.0081809	0.896317
0.00949735	0.928045
0.010057	0.975637
0.0108074	1.00737
0.0109912	1.04306
0.0115525	1.07875
0.0136247	1.10255
0.0164532	1.11445
0.0196596	1.12238
0.0230552	1.12635
0.0264508	1.13031
0.0296572	1.13824
0.0326755	1.14221
0.0364485	1.14618
0.0394667	1.15014
0.0441836	1.15014
0.0477679	1.15411
0.0519182	1.15807
0.0596528	1.16601
0.0619169	1.16601
0.0658785	1.16997
0.0692747	1.16997
0.0726698	1.1779
0.0753117	1.17394
0.0773866	1.1779
0.0792734	1.1779
0.0817262	1.1779
0.084745	1.1779
0.0856878	1.18187
0.0922914	1.18187
0.101725	1.18584
0.105686	1.1898
0.10946	1.1898
0.112101	1.1898
0.117195	1.1898
