Adsorption isotherm of N-Hexane on Cr-MIL(101)
DOI: 10.1016/j.micromeso.2010.05.018
Adsorbate N-Hexane: InChIKey VLKZOEOYAKHREP-UHFFFAOYSA-N
Temperature: 303 K
Tabular data in the source: 0
pressure (bar)	uptake (ml/g)
0.00119504	0.132359
0.00159339	0.172467
0.00278843	0.220585
0.00318677	0.30482
0.00438181	0.352938
0.00478016	0.377
0.00517851	0.42112
0.00557685	0.465239
0.00637355	0.553479
0.00717024	0.59358
0.00756859	0.641711
0.00836528	0.709893
0.00956032	0.754
0.010357	0.79009
0.0115521	0.826174
0.0143405	0.862232
0.0167306	0.894285
0.0191206	0.926338
0.0203157	0.962422
0.0215107	1.00252
0.0223074	1.04262
0.0239008	1.0787
0.0278843	1.09468
0.0342578	1.10661
0.040233	1.11454
0.0434198	1.12251
0.0478016	1.12244
0.0533785	1.12636
0.0601504	1.13026
0.0657272	1.13418
0.068914	1.13814
0.0740925	1.13806
0.0764826	1.13802
0.0800677	1.14197
0.0840512	1.14191
0.089628	1.14583
0.0971966	1.14972
0.105164	1.1536
0.113927	1.15346
0.121496	1.15735
0.125878	1.15728
0.133844	1.15715
0.140616	1.16506
0.148185	1.16895
0.152965	1.16887
0.157347	1.1688
0.16133	1.16874
0.166111	1.16866
0.172086	1.17258
0.173679	1.17255
0.187223	1.17634
0.206344	1.17603
0.214311	1.17591
0.222676	1.17978
0.227854	1.1797
0.237813	1.17553
