Adsorption isotherm of Methyl tertiary-butyl ether on Silicalite MFI
DOI: 10.1021/Jp061986n
Adsorbate Methyl tertiary-butyl ether: InChIKey BZLVMXJERCGZMT-UHFFFAOYSA-N
Temperature: 298 K
Tabular data in the source: 0
pressure (bar)	uptake (mmol/g)
4.9e-07	0.391594
6.47e-07	0.412868
9.09e-07	0.433255
1.22e-06	0.454529
1.71e-06	0.476689
2.51e-06	0.498849
3.99e-06	0.529874
5.78e-06	0.549375
8.37e-06	0.57774
1.29e-05	0.597241
1.68e-05	0.615855
2.66e-05	0.63447
4.23e-05	0.654857
7.03e-05	0.672585
0.000107	0.677017
0.000159	0.680563
0.000217	0.680563
0.000334	0.686768
0.000582	0.68854
0.000924	0.690313
0.00151296	0.692086
0.00236618	0.692086
0.0039972	0.693859
0.00664916	0.6912
0.0108913	0.6912
0.0192699	0.6912
0.0320547	0.693859
0.0493646	0.693859
