Adsorption isotherm of Methyl tertiary-butyl ether on Silicalite MFI
DOI: 10.1021/Jp061986n
Adsorbate Methyl tertiary-butyl ether: InChIKey BZLVMXJERCGZMT-UHFFFAOYSA-N
Temperature: 298 K
Tabular data in the source: 0
pressure (bar)	uptake (mmol/g)
5.06e-07	0.118581
6.88e-07	0.151378
9.23e-07	0.185948
1.2e-06	0.228495
1.38e-06	0.252428
1.63e-06	0.280793
1.96e-06	0.314477
2.4e-06	0.349933
2.93e-06	0.380071
3.48e-06	0.411095
4.45e-06	0.448324
5.44e-06	0.480235
6.64e-06	0.5086
8.12e-06	0.544056
1.07e-05	0.567989
1.53e-05	0.593695
2.21e-05	0.62206
2.87e-05	0.639788
5.01e-05	0.663721
7.14e-05	0.677903
0.000126	0.684995
0.000234	0.692086
0.000378	0.695632
0.0007	0.698291
0.0011287	0.698291
0.00184881	0.70095
0.0031232	0.698291
0.00544129	0.700064
0.009192	0.700064
0.0162634	0.701836
0.0266394	0.70095
0.0429675	0.700064
0.0549916	0.70095
