Adsorption isotherm of Methyl tertiary-butyl ether on Mordenite
DOI: 10.1021/Jp061986n
Adsorbate Methyl tertiary-butyl ether: InChIKey BZLVMXJERCGZMT-UHFFFAOYSA-N
Temperature: 298 K
Tabular data in the source: 0
pressure (bar)	uptake (mmol/g)
4.91e-07	0.033398
7.41e-07	0.0423132
1.48e-06	0.0932572
2.18e-06	0.126371
3.87e-06	0.188777
7.3e-06	0.267741
1.03e-05	0.330147
1.44e-05	0.386185
1.92e-05	0.433309
2.62e-05	0.476611
3.61e-05	0.526282
5.15e-05	0.572131
7.14e-05	0.606518
0.000114	0.629443
0.000157	0.635811
0.000216	0.649821
0.000277	0.656189
0.000387	0.676566
0.000766	0.694397
0.00209894	0.70968
0.00286232	0.718595
0.00399522	0.730058
0.00720289	0.750435
0.011294	0.761898
0.0223476	0.786096
0.0435387	0.795011
