Adsorption isotherm of Methyl tertiary-butyl ether on Zeolite Beta
DOI: 10.1021/Jp061986n
Adsorbate Methyl tertiary-butyl ether: InChIKey BZLVMXJERCGZMT-UHFFFAOYSA-N
Temperature: 298 K
Tabular data in the source: 0
pressure (bar)	uptake (mmol/g)
4.99e-07	0.413761
6.71e-07	0.499946
9.91e-07	0.590551
1.48e-06	0.676735
2.08e-06	0.76513
3.2e-06	0.864574
4.72e-06	0.957389
7.17e-06	1.04578
1.1e-05	1.12534
1.52e-05	1.21373
2.07e-05	1.29108
3.15e-05	1.38831
4.47e-05	1.47008
5.93e-05	1.54742
7.86e-05	1.61593
0.000102	1.67118
0.000165	1.72642
0.00024	1.78388
0.00036	1.82587
0.000531	1.88332
0.000806	1.901
0.00145767	1.91426
0.00305543	1.92973
0.00537669	1.94078
0.00884583	1.9452
0.0117344	1.95404
0.018294	1.96509
0.0245965	1.97614
0.0393921	1.99824
0.0482022	2.00045
