Adsorption isotherm of Methyl tertiary-butyl ether on Zeolite Beta
DOI: 10.1021/Jp061986n
Adsorbate Methyl tertiary-butyl ether: InChIKey BZLVMXJERCGZMT-UHFFFAOYSA-N
Temperature: 298 K
Tabular data in the source: 0
pressure (bar)	uptake (mmol/g)
4.86e-07	0.583921
8.9e-07	0.659057
1.63e-06	0.756291
2.65e-06	0.868994
4.18e-06	0.957389
6.7e-06	1.07672
1.02e-05	1.19605
1.37e-05	1.30655
2.13e-05	1.41925
3.15e-05	1.53416
4.71e-05	1.62919
6.87e-05	1.71758
0.000107	1.76399
0.000184	1.80156
0.00038	1.84576
0.000785	1.87448
0.00169021	1.88332
0.00463695	1.89879
0.0112701	1.90984
0.0212124	1.92531
0.0399257	1.96288
0.0529632	1.98277
