Adsorption isotherm of Methyl tertiary-butyl ether on Silicalite MFI
DOI: 10.1021/Jp061986n
Adsorbate Methyl tertiary-butyl ether: InChIKey BZLVMXJERCGZMT-UHFFFAOYSA-N
Temperature: 298 K
Tabular data in the source: 0
pressure (bar)	uptake (mmol/g)
5.01e-07	0.135976
7.01e-07	0.165398
9.38e-07	0.198498
1.37e-06	0.253665
2.05e-06	0.327221
2.81e-06	0.382387
3.84e-06	0.441232
5.63e-06	0.492721
8.23e-06	0.551565
1.32e-05	0.592021
2.16e-05	0.632476
3.69e-05	0.650865
6.76e-05	0.687643
0.000165	0.698676
0.000354	0.702354
0.000742	0.698676
0.00155343	0.702354
0.00311019	0.702354
0.00520569	0.702354
0.0119214	0.70971
0.0223176	0.70971
0.0382001	0.702354
0.0499773	0.694998
