Adsorption isotherm of Methyl tertiary-butyl ether on Zeolite Beta
DOI: 10.1021/Jp061986n
Adsorbate Methyl tertiary-butyl ether: InChIKey BZLVMXJERCGZMT-UHFFFAOYSA-N
Temperature: 298 K
Tabular data in the source: 0
pressure (bar)	uptake (mmol/g)
5.13e-07	0.30135
8.41e-07	0.410518
1.2e-06	0.497293
1.72e-06	0.595264
2.55e-06	0.701633
3.52e-06	0.796805
5.39e-06	0.905973
7.71e-06	1.00954
1.08e-05	1.09912
1.66e-05	1.21948
2.26e-05	1.32585
3.23e-05	1.42942
4.1e-05	1.505
5.2e-05	1.57218
6.95e-05	1.64496
9.28e-05	1.71773
0.000162886	1.80451
0.000311293	1.88568
0.000528008	1.94727
0.000880458	1.98366
0.00159878	1.98925
0.00338445	1.99765
0.0058393	2.01725
0.00990448	2.01725
0.0176811	2.01725
0.0310302	2.02844
0.0517431	2.03684
