Adsorption isotherm of Methyl tertiary-butyl ether on Zeolite Beta
DOI: 10.1021/Jp061986n
Adsorbate Methyl tertiary-butyl ether: InChIKey BZLVMXJERCGZMT-UHFFFAOYSA-N
Temperature: 298 K
Tabular data in the source: 0
pressure (bar)	uptake (mmol/g)
5.04e-07	0.127801
7.72e-07	0.178187
1.29e-06	0.290154
1.81e-06	0.402121
2.77e-06	0.553276
3.46e-06	0.637252
5.12e-06	0.771612
6.84e-06	0.891977
8.68e-06	1.01514
1.18e-05	1.12991
1.87e-05	1.25587
2.46e-05	1.34544
3.28e-05	1.44341
4.69e-05	1.53859
6.71e-05	1.61416
9.44e-05	1.67295
0.00016	1.73173
0.000258	1.79331
0.000469	1.86049
0.000822	1.91648
0.00157176	1.94447
0.00356201	1.98366
0.00807243	2.00325
0.0167997	2.03124
0.0299902	2.02844
0.0475161	2.03124
