Adsorption isotherm of Methyl tertiary-butyl ether on Silicalite MFI
DOI: 10.1021/Jp061986n
Adsorbate Methyl tertiary-butyl ether: InChIKey BZLVMXJERCGZMT-UHFFFAOYSA-N
Temperature: 298 K
Tabular data in the source: 0
pressure (bar)	uptake (mmol/g)
4.9e-07	0.0866705
9.97e-07	0.157583
5.03e-06	0.49619
1.04e-05	0.612309
5.01e-05	0.683222
0.000103	0.686768
0.000498	0.689427
0.0010132	0.690313
0.00503751	0.6912
0.00977686	0.693859
0.0195694	0.693859
0.0301371	0.693859
0.04231	0.692972
0.0486092	0.693859
