Adsorption isotherm of Methyl tertiary-butyl ether on Mordenite
DOI: 10.1021/Jp061986n
Adsorbate Methyl tertiary-butyl ether: InChIKey BZLVMXJERCGZMT-UHFFFAOYSA-N
Temperature: 298 K
Tabular data in the source: 0
pressure (bar)	uptake (mmol/g)
5.24e-07	0.0329984
1e-06	0.0513873
5.11e-06	0.219344
9.8e-06	0.333968
5.07e-05	0.589962
0.000102	0.638358
0.00101254	0.69567
0.00504173	0.699491
0.0104513	0.778455
0.0203617	0.812842
0.0314355	0.811568
0.0406035	0.78737
0.0516381	0.797559
