Adsorption isotherm of Methyl tertiary-butyl ether on Zeolite Beta
DOI: 10.1021/Jp061986n
Adsorbate Methyl tertiary-butyl ether: InChIKey BZLVMXJERCGZMT-UHFFFAOYSA-N
Temperature: 298 K
Tabular data in the source: 0
pressure (bar)	uptake (mmol/g)
5.23e-07	0.599121
1.02e-06	0.653651
5.19e-06	0.985789
1.01e-05	1.27826
5.11e-05	1.62536
0.000102807	1.67015
0.000484874	1.86609
0.00102643	1.8409
0.00500888	1.94167
0.0102479	1.96686
0.0202641	1.96406
0.0321062	1.99765
0.0400699	1.90808
0.0526326	1.97246
