Adsorption isotherm of Methyl tertiary-butyl ether on Zeolite Beta
DOI: 10.1021/Jp061986n
Adsorbate Methyl tertiary-butyl ether: InChIKey BZLVMXJERCGZMT-UHFFFAOYSA-N
Temperature: 298 K
Tabular data in the source: 0
pressure (bar)	uptake (mmol/g)
4.86e-07	0.590551
1e-06	0.676735
4.92e-06	0.994957
9.9e-06	1.20931
5.04e-05	1.65792
0.000102	1.76399
0.000503	1.86785
0.00102735	1.87448
0.00509494	1.89658
0.010257	1.91205
0.0203732	1.92531
0.0305053	1.94078
0.0404666	1.9673
0.0508678	1.98498
