Adsorption isotherm of Methyl tertiary-butyl ether on Silicalite MFI
DOI: 10.1021/Jp061986n
Adsorbate Methyl tertiary-butyl ether: InChIKey BZLVMXJERCGZMT-UHFFFAOYSA-N
Temperature: 298 K
Tabular data in the source: 0
pressure (bar)	uptake (mmol/g)
4.9e-07	0.221404
7.44e-07	0.263065
1.01e-06	0.302954
1.36e-06	0.334864
1.82e-06	0.375639
2.44e-06	0.413754
3.17e-06	0.448324
3.99e-06	0.483781
5.52e-06	0.516578
6.44e-06	0.544943
8.5e-06	0.572421
1.27e-05	0.599013
1.81e-05	0.619401
2.7e-05	0.636242
4.16e-05	0.657516
6.61e-05	0.674358
0.000123	0.67879
0.000309	0.686768
0.000638	0.692086
0.00133736	0.690313
0.00284718	0.68854
0.00535803	0.68854
0.0103989	0.6912
0.0181172	0.692086
0.0320547	0.6912
0.0525055	0.6912
