Adsorption isotherm of Methyl tertiary-butyl ether on Zeolite Beta
DOI: 10.1021/Jp061986n
Adsorbate Methyl tertiary-butyl ether: InChIKey BZLVMXJERCGZMT-UHFFFAOYSA-N
Temperature: 298 K
Tabular data in the source: 0
pressure (bar)	uptake (mmol/g)
5.13e-07	0.33774
1.03e-06	0.446908
5.03e-06	0.754817
1.03e-05	1.22788
5.2e-05	1.4854
0.000104574	1.77372
0.000528008	1.92487
0.00106202	1.95846
0.00518257	1.98086
0.0102479	2.04524
0.0213272	2.03964
0.0321062	2.04524
0.0414594	2.05084
0.0535373	1.99765
