Adsorption isotherm of Methyl tertiary-butyl ether on Silicalite MFI
DOI: 10.1021/Jp061986n
Adsorbate Methyl tertiary-butyl ether: InChIKey BZLVMXJERCGZMT-UHFFFAOYSA-N
Temperature: 298 K
Tabular data in the source: 0
pressure (bar)	uptake (mmol/g)
5.24e-07	0.0991984
1.03e-06	0.154365
5.26e-06	0.496398
1.01e-05	0.617765
5.16e-05	0.67661
0.000103	0.687643
0.000518	0.694998
0.00101509	0.687643
0.00509041	0.698676
0.0101918	0.698676
0.0208675	0.702354
0.0305357	0.702354
0.0399499	0.691321
0.0511091	0.698676
