Adsorption isotherm of Methyl tertiary-butyl ether on Zeolite Beta
DOI: 10.1021/Jp061986n
Adsorbate Methyl tertiary-butyl ether: InChIKey BZLVMXJERCGZMT-UHFFFAOYSA-N
Temperature: 298 K
Tabular data in the source: 0
pressure (bar)	uptake (mmol/g)
4.96e-07	0.592465
9.47e-07	0.659645
1.53e-06	0.74362
2.26e-06	0.830395
3.64e-06	0.922768
5.39e-06	1.01234
7.84e-06	1.11591
1.05e-05	1.22228
1.5e-05	1.31465
2.11e-05	1.40703
2.91e-05	1.51619
4.46e-05	1.62256
5.57e-05	1.67575
8.38e-05	1.74573
0.000135039	1.77932
0.000196476	1.80731
0.000311293	1.8353
0.000574979	1.87449
0.00085095	1.88009
0.00128103	1.88568
0.00171158	1.88289
0.00271181	1.89408
0.0045997	1.89408
0.0062513	1.90248
0.00957254	1.90808
0.0139276	1.91088
0.0189286	1.92487
0.0326581	1.95566
0.0500089	1.98925
