Adsorption isotherm of Methyl tertiary-butyl ether on Zeolite Beta
DOI: 10.1021/Jp061986n
Adsorbate Methyl tertiary-butyl ether: InChIKey BZLVMXJERCGZMT-UHFFFAOYSA-N
Temperature: 298 K
Tabular data in the source: 0
pressure (bar)	uptake (mmol/g)
5.13e-07	0.060621
1.01e-06	0.172588
5.12e-06	0.88078
1.03e-05	1.01234
5.11e-05	1.53859
0.000102807	1.68974
0.000510312	1.8409
0.00104407	1.94447
0.00518257	1.97806
0.00990448	2.03684
0.0213272	2.02005
0.0332195	2.05643
0.0414594	2.07603
0.0517431	2.06763
