Adsorption isotherm of Methyl tertiary-butyl ether on Zeolite Beta
DOI: 10.1021/Jp061986n
Adsorbate Methyl tertiary-butyl ether: InChIKey BZLVMXJERCGZMT-UHFFFAOYSA-N
Temperature: 298 K
Tabular data in the source: 0
pressure (bar)	uptake (mmol/g)
4.92e-07	0.475637
1.02e-06	0.519835
4.92e-06	0.997167
1e-05	1.12092
5.25e-05	1.52312
0.000104	1.64024
0.000503	1.8789
0.00102735	1.88553
0.00516396	1.92531
0.010396	1.96067
0.0212124	1.96067
0.0313374	2.04243
0.0399257	1.99824
0.0515569	1.99603
