Adsorption isotherm of Methyl tertiary-butyl ether on Silicalite MFI
DOI: 10.1021/Jp061986n
Adsorbate Methyl tertiary-butyl ether: InChIKey BZLVMXJERCGZMT-UHFFFAOYSA-N
Temperature: 298 K
Tabular data in the source: 0
pressure (bar)	uptake (mmol/g)
5.23e-07	0.381462
1.02e-06	0.457804
5.19e-06	0.525471
1.01e-05	0.583058
4.86e-05	0.67879
9.72e-05	0.686768
0.000506	0.692972
0.0051953	0.695632
0.0102398	0.692972
0.0195694	0.695632
0.029676	0.6912
0.04231	0.692086
0.0525055	0.692972
