Adsorption isotherm of Methyl tertiary-butyl ether on Zeolite Beta
DOI: 10.1021/Jp061986n
Adsorbate Methyl tertiary-butyl ether: InChIKey BZLVMXJERCGZMT-UHFFFAOYSA-N
Temperature: 298 K
Tabular data in the source: 0
pressure (bar)	uptake (mmol/g)
4.68e-07	0.135976
6.55e-07	0.172754
1.1e-06	0.257343
1.25e-06	0.316187
1.68e-06	0.41181
2.25e-06	0.503754
2.75e-06	0.57731
3.59e-06	0.665576
4.11e-06	0.724421
5.26e-06	0.801654
6.43e-06	0.878887
7.2e-06	0.959798
8.42e-06	1.02232
1.03e-05	1.09588
1.29e-05	1.16208
1.47e-05	1.21724
1.76e-05	1.28344
2.25e-05	1.33493
3.09e-05	1.41584
3.69e-05	1.47837
4.13e-05	1.52618
5.16e-05	1.58134
6.76e-05	1.61444
9.04e-05	1.67329
0.000129	1.71742
0.000194	1.76523
0.000283	1.80569
0.000388	1.84247
0.00062	1.89763
0.000993	1.92705
0.00198735	1.96751
0.00372043	2.00061
0.00532358	2.01532
0.00974535	2.02268
0.0142605	2.02635
0.0279193	2.0521
0.0408546	2.07049
0.0522666	2.09255
