Adsorption isotherm of Methyl tertiary-butyl ether on Silicalite MFI
DOI: 10.1021/Jp061986n
Adsorbate Methyl tertiary-butyl ether: InChIKey BZLVMXJERCGZMT-UHFFFAOYSA-N
Temperature: 298 K
Tabular data in the source: 0
pressure (bar)	uptake (mmol/g)
4.83e-07	0.218745
1.01e-06	0.301181
5.03e-06	0.501509
1.02e-05	0.592808
5.09e-05	0.674358
0.000102	0.667267
0.000522	0.68854
0.00104494	0.682335
0.00511579	0.689427
0.0100831	0.684995
0.020496	0.686768
0.0301371	0.686768
0.0403971	0.687654
0.0493646	0.687654
