Adsorption isotherm of Methyl tertiary-butyl ether on Zeolite Beta
DOI: 10.1021/Jp061986n
Adsorbate Methyl tertiary-butyl ether: InChIKey BZLVMXJERCGZMT-UHFFFAOYSA-N
Temperature: 298 K
Tabular data in the source: 0
pressure (bar)	uptake (mmol/g)
4.9e-07	0.0660984
1e-06	0.165398
5.03e-06	0.871532
1.03e-05	1.026
4.94e-05	1.53353
0.000106	1.70271
0.00053	1.84614
0.00103807	1.9528
0.00520569	1.97854
0.0106586	2.03739
0.0204054	2.02635
0.0305357	2.0521
0.0399499	2.08152
0.0499773	2.07784
