Adsorption isotherm of Nitrogen on CuBTC
DOI: 10.1016/j.memsci.2010.07.005
Adsorbate Nitrogen: InChIKey IJGRMHOSHXDMSA-UHFFFAOYSA-N
Temperature: 77 K
Tabular data in the source: 0
pressure (bar)	uptake (cm3(STP)/g)
0.00120773	4.00729
0.00241546	155.191
0.0144928	163.934
0.044686	169.035
0.0942029	172.678
0.176329	176.685
0.357488	181.421
0.5157	184.335
0.671498	187.25
0.817633	189.071
0.913043	191.257
0.967391	192.714
0.98913	197.814
