Adsorption isotherm of Carbon Dioxide, Methane on IFP-2
DOI: 10.1039/c2jm15811f
Article source: Table 4
Adsorbate Carbon Dioxide: InChIKey CURLTUGMZLYLDI-UHFFFAOYSA-N
Adsorbate Methane: InChIKey VNWKTOKETHGBQD-UHFFFAOYSA-N
Kind: experiment
Temperature: 273 K
Tabular data in the source: 0
pressure (bar)	Carbon Dioxide fraction	Carbon Dioxide uptake (mmol/g)	Methane fraction	Methane uptake (mmol/g)	total uptake (mmol/g)
0.948	0.451	2.01	0.549	0.49	2.5
0.97	0.514	2.14936	0.486	0.421644	2.571
