Adsorption isotherm of Methane on IFP-6
DOI: 10.1039/c2jm15811f
Article source: Figure 2
Adsorbate Methane: InChIKey VNWKTOKETHGBQD-UHFFFAOYSA-N
Kind: experiment
Temperature: 273 K
Tabular data in the source: 0
pressure (bar)	uptake (mmol/g)
0.139	0.314
0.186	0.368
0.371	0.568
0.626	0.729
0.696	0.827
0.928	0.944
1.44	1.18
1.95	1.49
4.99	2.25
7.52	2.72
10.1	3.01
15	3.29
20	3.38
30	3.5
39.7	3.55
49.7	3.55
