Adsorption isotherm of Carbon Dioxide, Methane on IFP-3
DOI: 10.1039/c2jm15811f
Article source: Table 4
Adsorbate Carbon Dioxide: InChIKey CURLTUGMZLYLDI-UHFFFAOYSA-N
Adsorbate Methane: InChIKey VNWKTOKETHGBQD-UHFFFAOYSA-N
Kind: experiment
Temperature: 273 K
Tabular data in the source: 0
pressure (bar)	Carbon Dioxide fraction	Carbon Dioxide uptake (mmol/g)	Methane fraction	Methane uptake (mmol/g)	total uptake (mmol/g)
0.989	0.492	1.45541	0.508	0.306588	1.762
11.009	0.521	1.50002	0.479	0.28998	1.79
