Adsorption isotherm of Carbon Dioxide on IFP-2
DOI: 10.1039/c2jm15811f
Article source: Figure 1
Adsorbate Carbon Dioxide: InChIKey CURLTUGMZLYLDI-UHFFFAOYSA-N
Kind: experiment
Temperature: 273 K
Tabular data in the source: 0
pressure (bar)	uptake (mmol/g)
0.0885	0.93
0.106	1.05
0.124	1.26
0.178	1.51
0.358	2.03
0.52	2.44
0.592	2.72
0.736	2.99
1.42	3.77
1.93	4.08
2.44	4.28
2.94	4.46
3.38	4.6
3.98	4.68
4.45	4.77
4.96	4.84
5.99	4.96
7	5.07
8	5.14
9.01	5.2
9.99	5.25
11	5.3
12	5.36
13	5.4
14	5.43
15.1	5.46
16	5.51
17	5.52
18	5.56
19.1	5.58
20	5.59
21	5.61
22	5.62
23	5.63
24	5.64
25	5.64
26	5.64
27	5.64
27.9	5.64
28.9	5.64
30	5.62
30.9	5.61
31.9	5.61
32.9	5.6
33.9	5.62
34.7	5.76
