Adsorption isotherm of Carbon Dioxide on IFP-1
DOI: 10.1039/c2jm15811f
Article source: Figure 1
Adsorbate Carbon Dioxide: InChIKey CURLTUGMZLYLDI-UHFFFAOYSA-N
Kind: experiment
Temperature: 273 K
Tabular data in the source: 0
pressure (bar)	uptake (mmol/g)
0.233	1.33
0.413	1.86
0.7	2.86
0.917	3.24
1.42	3.9
1.89	4.34
2.4	4.64
2.91	4.86
3.41	5.04
3.92	5.19
4.43	5.31
4.94	5.43
5.93	5.6
6.95	5.73
7.94	5.85
8.96	5.94
9.97	6.03
11	6.09
12	6.16
13	6.21
14	6.26
15	6.31
16	6.35
17	6.38
18	6.42
19	6.45
20	6.48
21	6.51
22	6.53
23	6.56
24	6.59
25	6.6
26	6.62
27	6.63
28	6.65
29	6.66
30	6.66
31	6.67
31.9	6.67
32.5	6.67
