Adsorption isotherm of Methane on IFP-1
DOI: 10.1039/c2jm15811f
Article source: Figure 2
Adsorbate Methane: InChIKey VNWKTOKETHGBQD-UHFFFAOYSA-N
Kind: experiment
Temperature: 273 K
Tabular data in the source: 0
pressure (bar)	uptake (mmol/g)
0.255	0.494
0.418	0.678
0.534	0.85
0.951	1.37
1.51	1.81
1.88	2.05
3.41	2.74
4.94	3.18
9.95	3.97
15	4.35
20	4.59
24.9	4.73
30	4.84
34.9	4.92
39.8	4.97
43.1	5
