Adsorption isotherm of Carbon Dioxide, Methane on IFP-4
DOI: 10.1039/c2jm15811f
Article source: Table 4
Adsorbate Carbon Dioxide: InChIKey CURLTUGMZLYLDI-UHFFFAOYSA-N
Adsorbate Methane: InChIKey VNWKTOKETHGBQD-UHFFFAOYSA-N
Kind: experiment
Temperature: 273 K
Tabular data in the source: 0
pressure (bar)	Carbon Dioxide fraction	Carbon Dioxide uptake (mmol/g)	Methane fraction	Methane uptake (mmol/g)	total uptake (mmol/g)
0.969	0.49	1.65056	0.51	0.284445	1.935
1.016	0.504	1.708	0.496	0.292	2
