Adsorption isotherm of Carbon Dioxide on IFP-4
DOI: 10.1039/c2jm15811f
Article source: Figure 1
Adsorbate Carbon Dioxide: InChIKey CURLTUGMZLYLDI-UHFFFAOYSA-N
Kind: experiment
Temperature: 273 K
Tabular data in the source: 0
pressure (bar)	uptake (mmol/g)
0.197	0.961
0.269	1.11
0.305	1.27
0.612	1.96
0.829	2.28
1.44	2.68
1.93	2.93
2.42	3.1
2.95	3.28
3.45	3.41
3.96	3.51
4.45	3.62
4.96	3.7
5.97	3.85
6.99	3.96
7.98	4.07
8.98	4.16
10	4.24
11	4.31
12	4.37
13	4.43
14	4.49
15	4.52
16	4.58
17	4.62
18	4.65
19	4.68
19.9	4.71
21	4.74
21.9	4.76
22.9	4.79
23.9	4.82
24.9	4.82
25.9	4.84
27	4.86
27.9	4.87
28.9	4.88
29.9	4.88
30.9	4.89
31.9	4.89
32.9	4.91
33.9	5.01
34.6	5.1
