Adsorption isotherm of Carbon Dioxide, Methane on IFP-5
DOI: 10.1039/c2jm15811f
Article source: Table 4
Adsorbate Carbon Dioxide: InChIKey CURLTUGMZLYLDI-UHFFFAOYSA-N
Adsorbate Methane: InChIKey VNWKTOKETHGBQD-UHFFFAOYSA-N
Kind: experiment
Temperature: 273 K
Tabular data in the source: 0
pressure (bar)	Carbon Dioxide fraction	Carbon Dioxide uptake (mmol/g)	Methane fraction	Methane uptake (mmol/g)	total uptake (mmol/g)
0.999	0.502	1.49404	0.498	0.197964	1.692
1.008	0.521	1.47473	0.479	0.18227	1.657
