Adsorption isotherm of Carbon Dioxide on IFP-3
DOI: 10.1039/c2jm15811f
Article source: Figure 1
Adsorbate Carbon Dioxide: InChIKey CURLTUGMZLYLDI-UHFFFAOYSA-N
Kind: experiment
Temperature: 273 K
Tabular data in the source: 0
pressure (bar)	uptake (mmol/g)
0.252	0.941
0.324	1.12
0.432	1.44
0.576	1.72
0.684	1.87
0.974	2.17
1.5	2.56
1.99	2.76
2.48	2.92
2.97	3.03
3.47	3.12
3.98	3.19
4.47	3.26
4.98	3.29
5.99	3.39
7.02	3.45
8	3.51
9.02	3.54
10	3.56
11	3.6
12	3.62
13	3.66
14	3.68
15	3.69
16	3.7
17	3.71
18.1	3.72
19	3.73
20	3.73
20.9	3.74
22	3.74
23	3.77
24	3.77
24.9	3.76
26	3.77
26.9	3.77
28	3.77
28.9	3.76
29.9	3.76
30.9	3.76
31.9	3.76
32.9	3.77
