Adsorption isotherm of Methane on IFP-5
DOI: 10.1039/c2jm15811f
Article source: Figure 2
Adsorbate Methane: InChIKey VNWKTOKETHGBQD-UHFFFAOYSA-N
Kind: experiment
Temperature: 273 K
Tabular data in the source: 0
pressure (bar)	uptake (mmol/g)
0.0696	0.0941
0.116	0.133
0.139	0.204
0.209	0.259
0.325	0.325
0.534	0.529
1.04	0.807
1.46	0.999
1.95	1.16
3.46	1.5
4.97	1.72
10	2.14
15.1	2.36
20	2.5
25	2.59
26.7	2.62
30	2.67
35	2.71
39.9	2.74
44.8	2.75
49.8	2.77
