Adsorption isotherm of Carbon Dioxide on IFP-5
DOI: 10.1039/c2jm15811f
Article source: Figrue 1
Adsorbate Carbon Dioxide: InChIKey CURLTUGMZLYLDI-UHFFFAOYSA-N
Kind: experiment
Temperature: 273 K
Tabular data in the source: 0
pressure (bar)	uptake (mmol/g)
0.0177	0.186
0.0357	0.269
0.0536	0.357
0.0534	0.444
0.108	0.537
0.125	0.641
0.143	0.703
0.161	0.786
0.161	0.832
0.215	0.92
0.288	1.09
0.396	1.32
0.504	1.5
0.631	1.65
0.757	1.82
0.938	1.98
1.46	2.29
1.95	2.51
2.46	2.67
2.97	2.79
3.46	2.89
3.94	2.96
4.47	3.04
4.98	3.11
5.99	3.21
6.97	3.3
7.99	3.38
9	3.44
10	3.49
11	3.54
12	3.58
13	3.62
14	3.66
15.1	3.69
16	3.72
17	3.74
18	3.77
19	3.8
20	3.82
21	3.84
21.9	3.86
23	3.87
24	3.88
24.9	3.9
25.9	3.93
27	3.94
27.9	3.95
28.9	3.97
29.9	4
30.9	4.05
31.9	4.1
32.8	4.22
33.8	4.77
