Adsorption isotherm of Carbon Dioxide on IFP-6
DOI: 10.1039/c2jm15811f
Article source: Figure 1
Adsorbate Carbon Dioxide: InChIKey CURLTUGMZLYLDI-UHFFFAOYSA-N
Kind: experiment
Temperature: 273 K
Tabular data in the source: 0
pressure (bar)	uptake (mmol/g)
0.396	1.22
0.431	1.63
0.629	2.19
0.936	2.84
1.44	3.5
1.93	3.92
4.97	4.76
7.51	5.11
10	5.29
15.1	5.52
20	5.64
25	5.75
30	5.79
33.9	6
34.8	6.12
