Adsorption isotherm of Methane on IFP-4
DOI: 10.1039/c2jm15811f
Article source: Figure 2
Adsorbate Methane: InChIKey VNWKTOKETHGBQD-UHFFFAOYSA-N
Kind: experiment
Temperature: 273 K
Tabular data in the source: 0
pressure (bar)	uptake (mmol/g)
0.0696	0.243
1.6	1.3
1.9	1.39
2.83	1.63
3.46	1.75
4.97	1.99
10	2.41
15	2.62
20	2.75
25	2.84
30	2.9
34.9	2.94
39.7	2.96
44.6	2.97
49.5	2.96
