Adsorption isotherm of Carbon Dioxide, Methane on IFP-6
DOI: 10.1039/c2jm15811f
Article source: Table 4
Adsorbate Carbon Dioxide: InChIKey CURLTUGMZLYLDI-UHFFFAOYSA-N
Adsorbate Methane: InChIKey VNWKTOKETHGBQD-UHFFFAOYSA-N
Kind: experiment
Temperature: 273 K
Tabular data in the source: 0
pressure (bar)	Carbon Dioxide fraction	Carbon Dioxide uptake (mmol/g)	Methane fraction	Methane uptake (mmol/g)	total uptake (mmol/g)
1.05	0.56	1.87394	0.44	0.30506	2.179
1.038	0.515	1.83765	0.485	0.284348	2.122
