Adsorption isotherm of Methane on IFP-2
DOI: 10.1039/c2jm15811f
Article source: Figure 2
Adsorbate Methane: InChIKey VNWKTOKETHGBQD-UHFFFAOYSA-N
Kind: experiment
Temperature: 273 K
Tabular data in the source: 0
pressure (bar)	uptake (mmol/g)
0.394	0.768
0.557	0.968
0.789	1.18
0.882	1.28
1.39	1.65
1.46	1.71
1.9	1.94
3.41	2.5
4.94	2.86
9.93	3.48
15	3.76
20	3.92
24.9	4.02
29.9	4.08
33.2	4.1
34.9	4.13
39.8	4.14
44.7	4.14
49.6	4.13
