Adsorption isotherm of Carbon Dioxide on [Cd(bipy)0.5(Himdc)]n
DOI: 10.1021/Ic202601y
Adsorbate Carbon Dioxide: InChIKey CURLTUGMZLYLDI-UHFFFAOYSA-N
Temperature: 195 K
Tabular data in the source: 0
pressure (bar)	uptake (cm3(STP)/g)
0.0049903	33.432
0.0103351	47.929
0.0120853	54.4379
0.0344779	58.284
0.0531708	59.7633
0.0587371	62.426
0.0642481	68.0473
0.0661533	66.2722
0.0809913	73.6686
0.0977844	76.6272
0.107111	78.4024
0.16509	81.3609
0.211847	83.7278
0.260498	84.9112
0.309144	86.3905
0.35779	87.8698
0.412063	88.7574
0.464464	89.645
0.514992	90.5325
0.516853	91.1243
0.563638	92.0118
0.565516	91.716
0.614167	92.8994
0.616039	92.8994
0.662818	94.0828
0.713353	94.6746
0.76762	95.858
0.810655	97.0414
0.846202	98.2249
0.883627	99.1124
