Adsorption isotherm of Hydrogen on [Cd(bipy)0.5(Himdc)]n
DOI: 10.1021/Ic202601y
Adsorbate Hydrogen: InChIKey UFHFLCQGNIYNRP-UHFFFAOYSA-N
Temperature: 87 K
Tabular data in the source: 0
pressure (bar)	uptake (cm3(STP)/g)
0.00599556	2.33233
0.0119911	6.61018
0.0179867	10.888
0.02698	15.1647
0.0329756	19.0535
0.0449667	22.5508
0.0599556	26.8252
0.0899334	33.0394
0.116913	35.7528
0.149889	40.4094
0.167876	42.348
0.191858	44.6734
0.227831	47.7724
0.24282	49.3231
0.278794	51.6439
0.317765	54.3527
0.353738	56.6735
0.374723	57.4436
0.4047	58.9886
0.449667	61.695
0.473649	63.2422
0.515618	65.1716
0.551592	66.3251
0.587565	68.2569
0.605552	68.6391
0.623538	69.7995
0.659512	71.3421
0.683494	72.5002
0.710474	73.268
0.734456	74.037
0.749445	75.1986
0.791414	76.7389
0.812399	77.1199
0.827388	77.8924
0.854368	79.0493
0.890341	80.2028
0.908328	80.9741
0.941303	82.1288
0.956292	82.9013
0.989268	83.6668
1.01025	84.0478
