Adsorption isotherm of Hydrogen on [Cd(bipy)0.5(Himdc)]n
DOI: 10.1021/Ic202601y
Adsorbate Hydrogen: InChIKey UFHFLCQGNIYNRP-UHFFFAOYSA-N
Temperature: 87 K
Tabular data in the source: 0
pressure (bar)	uptake (mmol/g)
0.000174178	0.216216
0.0132624	0.46332
0.0329196	0.864865
0.0621193	1.11197
0.0880843	1.34363
0.126963	1.60618
0.185238	1.94595
0.233759	2.17761
0.288712	2.39382
0.346863	2.57915
0.411458	2.76448
0.482485	2.93436
0.553475	3.05792
0.650281	3.2278
0.708357	3.32046
0.789014	3.44402
0.863214	3.55212
0.940623	3.64479
1.00834	3.70656
