Adsorption isotherm of Methane on [Cd(bipy)0.5(Himdc)]n
DOI: 10.1021/Ic202601y
Adsorbate Methane: InChIKey VNWKTOKETHGBQD-UHFFFAOYSA-N
Temperature: 298 K
Tabular data in the source: 0
pressure (bar)	uptake (cm3(STP)/g)
0.202532	0.31746
0.607595	3.01587
0.810127	5.39683
1.11392	7.77778
1.82278	11.5873
2.53165	15.3968
3.13924	18.7302
3.8481	21.2698
4.4557	23.8095
5.16456	25.3968
7.39241	30.3175
9.41772	33.4921
11.7468	36.1905
13.8734	37.9365
16.2025	39.2063
19.1392	40.4762
21.9747	41.746
24.9114	42.8571
27.8481	43.6508
30.8861	43.9683
34.6329	43.9683
38.9873	44.127
42.4304	44.2857
45.0633	44.127
47.1899	44.127
