Adsorption isotherm of Hydrogen on [Cd(bipy)0.5(Himdc)]n
DOI: 10.1021/Ic202601y
Adsorbate Hydrogen: InChIKey UFHFLCQGNIYNRP-UHFFFAOYSA-N
Temperature: 77 K
Tabular data in the source: 0
pressure (bar)	uptake (cm3(STP)/g)
0.0987969	22.6476
0.560274	79.079
0.568773	93.9304
0.915943	100.61
1.08995	104.693
1.26333	107.662
2.03819	111.739
2.46907	114.705
3.15746	117.669
4.18878	119.887
4.70549	122.852
5.65097	125.071
6.76854	128.031
7.97132	129.877
9.68868	130.974
11.0629	132.447
12.6936	132.06
14.3251	133.159
16.3852	133.14
18.4455	133.492
20.1622	133.476
21.5356	133.463
23.253	134.561
24.9695	134.174
26.6004	134.159
28.0598	134.517
29.8624	134.5
31.321	133.373
32.9521	133.729
34.4971	133.714
36.1276	132.957
37.7593	134.427
39.219	135.156
40.8499	135.141
