Adsorption isotherm of Carbon Dioxide on [Cd(bipy)0.5(Himdc)]n
DOI: 10.1021/Ic202601y
Adsorbate Carbon Dioxide: InChIKey CURLTUGMZLYLDI-UHFFFAOYSA-N
Temperature: 298 K
Tabular data in the source: 0
pressure (bar)	uptake (cm3(STP)/g)
0.202532	5.55556
0.405063	20.7937
0.607595	28.254
1.21519	32.0635
1.72152	36.8254
2.43038	39.6825
3.13924	41.746
3.8481	43.3333
4.75949	45.3968
5.26582	46.1905
6.07595	46.6667
6.68354	47.619
8.10127	48.8889
9.51899	49.5238
10.2278	49.3651
11.443	50.4762
11.9494	50.3175
12.8608	51.4286
13.7722	51.2698
14.8861	51.9048
16	51.9048
17.6203	52.381
18.6329	52.5397
20.557	52.6984
22.2785	52.8571
23.3924	52.5397
24.5063	52.8571
25.519	52.8571
27.5443	52.5397
28.4557	52.6984
29.3671	52.8571
30.8861	53.1746
32	53.1746
33.2152	53.3333
34.6329	53.9683
35.7468	53.6508
36.8608	53.8095
38.2785	53.6508
39.5949	53.6508
40.8101	53.9683
42.4304	53.9683
43.3418	54.127
44.4557	54.2857
45.6709	53.9683
