Adsorption isotherm of Hydrogen on [Cd(bipy)0.5(Himdc)]n
DOI: 10.1021/Ic202601y
Adsorbate Hydrogen: InChIKey UFHFLCQGNIYNRP-UHFFFAOYSA-N
Temperature: 77 K
Tabular data in the source: 0
pressure (bar)	uptake (mmol/g)
0.00320294	0.228629
0.00640588	0.781067
0.0160147	1.25743
0.0256235	1.52427
0.0320294	1.69581
0.0448412	1.94366
0.0704647	2.24888
0.0896823	2.4397
0.121712	2.66884
0.166553	2.91726
0.188973	3.03195
0.246626	3.22345
0.29467	3.39574
0.313888	3.47227
0.342715	3.54898
0.393962	3.66418
0.442006	3.74123
0.499659	3.83749
0.541297	3.91443
0.595747	4.01064
0.640588	4.08763
0.743082	4.22279
0.797532	4.26186
0.848779	4.33897
0.89362	4.39691
0.94807	4.47407
0.970491	4.49352
0.999317	4.53213
