Adsorption isotherm of Benzene on [Cd(bipy)0.5(Himdc)]n
DOI: 10.1021/Ic202601y
Adsorbate Benzene: InChIKey UHOVQNZJYSORNB-UHFFFAOYSA-N
Temperature: 298 K
Tabular data in the source: 0
pressure (bar)	uptake (cm3(STP)/g)
0.00202782	8.52904
0.00753629	10.2241
0.0162933	10.8455
0.0232986	11.2574
0.0300531	11.4564
0.038059	11.8661
0.0500678	12.4807
0.0633267	12.8793
0.0800882	13.4838
0.0925973	14.0974
0.114366	15.9713
0.121122	16.8103
