Adsorption isotherm of Hydrogen on [Cd(bipy)0.5(Himdc)]n
DOI: 10.1021/Ic202601y
Adsorbate Hydrogen: InChIKey UFHFLCQGNIYNRP-UHFFFAOYSA-N
Temperature: 87 K
Tabular data in the source: 0
pressure (bar)	uptake (mmol/g)
0.00654412	0.123552
0.0099157	0.30888
0.0100152	0.432432
0.0296351	0.787645
0.0426985	1.00386
0.0589593	1.18919
0.0914061	1.46718
0.110839	1.59073
0.127026	1.6834
0.149694	1.82239
0.185276	1.99228
0.220833	2.13127
0.272539	2.3166
0.314528	2.44015
0.366184	2.56371
0.398482	2.65637
0.443681	2.76448
0.46304	2.79537
0.505017	2.90347
0.576019	3.04247
0.595378	3.07336
0.653466	3.18147
0.721246	3.32046
0.782544	3.41313
0.84709	3.53668
0.882572	3.58301
0.930981	3.67568
0.998724	3.76834
