Adsorption isotherm of Hydrogen on [Cd(bipy)0.5(Himdc)]n
DOI: 10.1021/Ic202601y
Adsorbate Hydrogen: InChIKey UFHFLCQGNIYNRP-UHFFFAOYSA-N
Temperature: 77 K
Tabular data in the source: 0
pressure (bar)	uptake (mmol/g)
0.00320294	0.00320294
0.0128118	0.933562
0.0192176	1.35272
0.0320294	1.71486
0.0576529	2.05817
0.0832764	2.3253
0.112103	2.63057
0.172959	2.99356
0.214597	3.16574
0.27225	3.35724
0.323497	3.52959
0.371541	3.66378
0.419585	3.75987
0.474035	3.85608
0.522079	3.95218
0.570123	4.01018
0.643791	4.10674
0.714256	4.18418
0.787923	4.26169
0.864794	4.33925
0.935258	4.39765
0.996114	4.41779
