Adsorption isotherm of Nitrogen on [Cd(bipy)0.5(Himdc)]n
DOI: 10.1021/Ic202601y
Adsorbate Nitrogen: InChIKey IJGRMHOSHXDMSA-UHFFFAOYSA-N
Temperature: 77 K
Tabular data in the source: 0
pressure (bar)	uptake (cm3(STP)/g)
0.00636367	0.00636367
0.00848489	39.3506
0.0148486	93.5065
0.0275759	97.013
0.0466669	98.961
0.0657579	99.7403
0.076364	100.519
0.0912126	100.519
0.10394	100.519
0.148486	102.468
0.214243	104.026
0.248183	105.195
0.288486	106.753
0.343638	107.922
0.38182	109.87
0.436972	112.208
0.500609	116.104
0.536669	118.831
0.602427	123.506
0.636367	125.065
0.691519	128.182
0.729701	128.182
0.776368	129.351
0.823034	130.519
0.890914	132.857
0.922732	134.805
0.965156	137.143
