Adsorption isotherm of Ethanol on [Cd(bipy)0.5(Himdc)]n
DOI: 10.1021/Ic202601y
Adsorbate Ethanol: InChIKey LFQSCWFLJHTTHZ-UHFFFAOYSA-N
Temperature: 298 K
Tabular data in the source: 0
pressure (bar)	uptake (cm3(STP)/g)
0.00125039	4.4638
0.00480888	7.85587
0.00898478	11.4586
0.0128483	13.9985
0.0168684	17.1763
0.0201137	19.2928
0.0252136	22.6796
0.0281498	24.5844
0.0318575	26.6994
0.03711	29.6601
0.0406619	31.3501
0.0452945	33.4619
0.0497713	35.1487
0.0537865	37.0498
0.0576459	38.526
0.065209	41.0533
0.0726195	44.0066
