Adsorption isotherm of Acetonitrile on [Cd(bipy)0.5(Himdc)]n
DOI: 10.1021/Ic202601y
Adsorbate Acetonitrile: InChIKey WEVYAHXRMPXWCK-UHFFFAOYSA-N
Temperature: 298 K
Tabular data in the source: 0
pressure (bar)	uptake (cm3(STP)/g)
0.000257613	5.97276
0.00171124	11.0896
0.00388018	14.9248
0.00628372	17.0528
0.0134854	20.4502
0.0187642	22.1452
0.0247622	23.8387
0.0317177	25.1033
0.0384349	26.7951
0.0446706	27.848
0.0513852	28.6865
0.0573806	29.5266
0.0628973	30.5811
0.0708123	32.057
0.0775269	32.8955
0.083762	33.735
0.0892799	35.2162
0.0998318	36.6862
0.110865	38.7952
