Adsorption isotherm of Methanol on [Cd(bipy)0.5(Himdc)]n
DOI: 10.1021/Ic202601y
Adsorbate Methanol: InChIKey OKKJLVBELUTLKV-UHFFFAOYSA-N
Temperature: 293 K
Tabular data in the source: 0
pressure (bar)	uptake (cm3(STP)/g)
0.000813482	6.38131
0.00291429	12.76
0.0034484	15.7376
0.00554784	21.9035
0.00633256	23.8168
0.00892913	27.2157
0.0135936	31.887
0.0203138	35.9158
0.02729	39.7313
0.0350468	44.8218
0.0420285	49.4883
0.046678	51.8192
0.0559686	55.2044
0.0611275	56.6832
0.0675765	58.5848
0.0763468	61.12
0.0835709	63.4457
0.0905334	65.1335
0.0972412	67.2474
0.108601	72.1177
0.113244	73.3848
0.119176	75.0748
0.123367	86.13
