Adsorption isotherm of N-propane on Cu-BTC
DOI: 10.1016/j.micromeso.2011.06.024
Article source: Fig. 3a
Adsorbate N-propane: InChIKey ATUOYWHBWRKTHZ-UHFFFAOYSA-N
Kind: experiment
Temperature: 373 K
Tabular data in the source: 0
pressure (bar)	uptake (mmol/g)
0.0205	0
0.112	0
0.2138	0
0.3054	0
0.4069	0
0.5192	0
0.6731	0
0.8273	0
0.92	0
1.3223	0
1.5598	0
2.0246	0
2.583	0
2.9757	0
3.9994	0
4.992	0
