Adsorption isotherm of Propene on CuBTC
DOI: 10.1016/j.micromeso.2011.06.024
Adsorbate Propene: InChIKey QQONPFPTGQHPMA-UHFFFAOYSA-N
Temperature: 348 K
Tabular data in the source: 0
pressure (bar)	uptake (mmol/g)
0.0225796	1.56144
0.04168	1.80366
0.0610644	2.15357
0.0619164	2.47665
0.0819399	3.06886
0.0997621	2.82648
0.119573	3.33792
0.119928	3.47254
0.15756	3.7416
0.158057	3.93006
0.214222	4.22596
0.233181	4.41434
0.270884	4.71032
0.568183	5.43591
0.771754	5.62346
1.03085	5.86461
1.25267	5.9713
1.49295	6.07792
1.67771	6.13093
1.84393	6.15711
2.15792	6.20955
2.49029	6.23498
2.80427	6.28742
3.0628	6.31318
3.1921	6.33952
3.37672	6.33869
3.61679	6.36454
3.8014	6.36371
3.98601	6.36288
4.17063	6.36205
4.35531	6.38815
4.53992	6.38732
