Adsorption isotherm of Propene on CuBTC
DOI: 10.1016/j.micromeso.2011.06.024
Adsorbate Propene: InChIKey QQONPFPTGQHPMA-UHFFFAOYSA-N
Temperature: 348 K
Tabular data in the source: 0
pressure (bar)	uptake (mmol/g)
0.0237157	1.9922
0.0624135	2.6651
0.0822949	3.20348
0.120283	3.60715
0.176874	4.06459
0.251997	4.54887
0.326694	4.87161
0.419569	5.08658
0.530976	5.32839
0.697625	5.5161
0.919587	5.67664
1.19693	5.83694
1.41875	5.94363
2.02826	6.04859
3.09944	6.20532
4.65048	6.30606
