Adsorption isotherm of Propene on Cu-BTC
DOI: 10.1016/j.micromeso.2011.06.024
Article source: Fig. 3b
Adsorbate Propene: InChIKey QQONPFPTGQHPMA-UHFFFAOYSA-N
Kind: experiment
Temperature: 348 K
Tabular data in the source: 0
pressure (bar)	uptake (mmol/g)
0.0208	0
0.0237	0
0.0661	0
0.0876	0
0.14	0
0.1822	0
0.245	0
0.287	0
0.3599	0
0.4949	0
0.661	0
0.91	0
1.19	0
1.4285	0
2.0504	0
3.0973	0
4.6726	0
