Adsorption isotherm of N-propane on CuBTC
DOI: 10.1016/j.micromeso.2011.06.024
Article source: Figure 3a
Adsorbate N-propane: InChIKey ATUOYWHBWRKTHZ-UHFFFAOYSA-N
Kind: experiment
Temperature: 348 K
Tabular data in the source: 0
pressure (bar)	uptake (mmol/g)
0.0205	0.0605
0.0897	1.1662
0.18	2.1052
0.2404	2.6503
0.2902	3.3319
0.3924	3.7404
0.5053	4.0429
0.701	4.3146
0.8454	4.4654
1.0313	4.5857
2.0125	5.0959
2.974	5.3032
4.8772	5.3845
