Adsorption isotherm of Nitrogen on CuBTC
DOI: 10.1016/j.micromeso.2011.06.024
Article source: Figure 1
Adsorbate Nitrogen: InChIKey IJGRMHOSHXDMSA-UHFFFAOYSA-N
Kind: experiment
Temperature: 77 K
Tabular data in the source: 0
pressure (bar)	uptake (cm3(STP)/g)
0.003556	257.44
0.007121	269.11
0.014233	273.78
0.053385	286.22
0.088972	290.11
0.112094	292.44
0.135226	294
0.145903	294.78
0.15658	295.56
0.177934	297.89
0.195732	297.89
0.217076	299.44
0.243774	300.22
0.270461	301
0.290028	302.56
0.309604	303.33
0.348747	304.35
0.361201	304.89
0.533802	311.11
0.5516	309.56
0.731312	314.22
0.743767	311.89
0.816718	315.78
0.841628	314.22
0.870093	316.56
0.891447	316.56
0.912801	316.56
0.932377	317.33
0.94661	317.33
0.973298	321.22
