Adsorption isotherm of N-propane on CuBTC
DOI: 10.1016/j.micromeso.2011.06.024
Adsorbate N-propane: InChIKey ATUOYWHBWRKTHZ-UHFFFAOYSA-N
Temperature: 323 K
Tabular data in the source: 0
pressure (bar)	uptake (mmol/g)
0.0368098	0.675676
0.0736196	1.48649
0.0920245	2.72973
0.147239	3.21622
0.202454	3.81081
0.294479	4.37838
0.312883	4.43243
0.441718	4.75676
0.773006	5.02703
1.08589	5.21622
1.96933	5.51351
3.0184	5.64865
4.98773	5.78378
