Adsorption isotherm of Isobutane on CuBTC
DOI: 10.1016/j.micromeso.2011.06.024
Adsorbate Isobutane: InChIKey NNPPMTNAJDCUHE-UHFFFAOYSA-N
Temperature: 323 K
Tabular data in the source: 0
pressure (bar)	uptake (mmol/g)
0.0186916	3.82558
0.0373832	4.04264
0.0747664	4.28682
0.137072	4.42248
0.249221	4.50388
0.34891	4.55814
0.423676	4.6124
0.610592	4.66667
0.834891	4.6938
1.1215	4.77519
1.41433	4.74806
1.64486	4.80233
