Adsorption isotherm of Isobutane on CuBTC
DOI: 10.1016/j.micromeso.2011.06.024
Article source: Figure 3c
Adsorbate Isobutane: InChIKey NNPPMTNAJDCUHE-UHFFFAOYSA-N
Kind: experiment
Temperature: 323 K
Tabular data in the source: 0
pressure (bar)	uptake (mmol/g)
0.00703	0.0457
0.01593	3.836
0.03706	4.0649
0.06167	4.248
0.13531	4.415
0.24044	4.5203
0.34905	4.5798
0.42262	4.6093
0.61179	4.6675
0.83248	4.71
1.1127	4.7363
1.40694	4.7623
1.64163	4.7893
