Adsorption isotherm of Nitrogen on CuBTC
DOI: 10.1016/j.micromeso.2011.06.024
Adsorbate Nitrogen: InChIKey IJGRMHOSHXDMSA-UHFFFAOYSA-N
Temperature: 77 K
Tabular data in the source: 0
pressure (bar)	uptake (cm3(STP)/g)
0.00314408	257.312
0.00628816	266.996
0.0125763	273.913
0.0534493	286.364
0.0848901	291.897
0.110043	291.897
0.135195	293.281
0.147772	296.047
0.163492	297.431
0.176068	297.431
0.198077	300.198
0.213797	300.198
0.242094	301.581
0.273535	302.964
0.289255	304.348
0.30812	302.964
0.342704	307.115
0.358425	307.115
0.534493	312.648
0.54707	309.881
0.73257	315.415
0.738858	314.032
0.820604	316.798
0.842613	316.798
0.87091	316.798
0.892918	316.798
0.918071	318.182
0.940079	319.565
0.968376	325.099
