Adsorption isotherm of N-propane on CuBTC
DOI: 10.1016/j.micromeso.2011.06.024
Adsorbate N-propane: InChIKey ATUOYWHBWRKTHZ-UHFFFAOYSA-N
Temperature: 373 K
Tabular data in the source: 0
pressure (bar)	uptake (mmol/g)
0.110429	0.621622
0.202454	1.16216
0.294479	1.67568
0.404908	2.32432
0.533742	2.83784
0.699387	3.2973
0.828221	3.59459
0.957055	3.72973
1.32515	4.13514
1.56442	4.27027
2.02454	4.51351
2.57669	4.59459
3	4.72973
4.01227	4.86486
5.04294	5.05405
