Adsorption isotherm of N-propane, Propene on Cu-BTC
DOI: 10.1016/j.micromeso.2011.06.024
Article source: Fig. 10a
Adsorbate N-propane: InChIKey ATUOYWHBWRKTHZ-UHFFFAOYSA-N
Adsorbate Propene: InChIKey QQONPFPTGQHPMA-UHFFFAOYSA-N
Kind: experiment
Temperature: 373 K
Tabular data in the source: 0
pressure (bar)	N-propane fraction	N-propane uptake (mmol/g)	Propene fraction	Propene uptake (mmol/g)	total uptake (mmol/g)
1.5	0.00177	0.0291	0.99645	5.3991	0
1.5	0.25709	0.7094	0.74645	4.2603	0
1.5	1.00177	4.2349	0.00355	0.0292	0
