Adsorption isotherm of Isobutane on CuBTC
DOI: 10.1016/j.micromeso.2011.06.024
Adsorbate Isobutane: InChIKey NNPPMTNAJDCUHE-UHFFFAOYSA-N
Temperature: 373 K
Tabular data in the source: 0
pressure (bar)	uptake (mmol/g)
0.0498442	1.62791
0.0685358	2.3876
0.0934579	2.9845
0.143302	3.47287
0.267913	3.87984
0.361371	4.0155
0.461059	4.04264
0.716511	4.17829
0.965732	4.25969
1.61994	4.42248
