Adsorption isotherm of N-propane on CuBTC
DOI: 10.1016/j.micromeso.2011.06.024
Adsorbate N-propane: InChIKey ATUOYWHBWRKTHZ-UHFFFAOYSA-N
Temperature: 373 K
Tabular data in the source: 0
pressure (bar)	uptake (mmol/g)
0.0368098	0.162162
0.128834	0.513514
0.147239	0.702703
0.220859	1.02703
0.239264	1.24324
0.276074	1.86486
0.294479	1.54054
0.386503	2.21622
0.423313	2.43243
0.460123	2.67568
0.552147	3.02703
0.699387	3.43243
0.828221	3.75676
1.01227	4.05405
1.15951	4.21622
1.28834	4.37838
1.45399	4.51351
1.61963	4.64865
1.78528	4.72973
1.89571	4.81081
2.06135	4.89189
2.2454	4.97297
2.31902	5
2.50307	5.05405
3.09202	5.21622
3.27607	5.24324
3.46012	5.27027
3.57055	5.2973
3.7546	5.32432
3.93865	5.35135
4.1227	5.37838
4.30675	5.37838
4.4908	5.40541
4.67485	5.40541
5.00613	5.45946
