Adsorption isotherm of Propene on CuBTC
DOI: 10.1016/j.micromeso.2011.06.024
Adsorbate Propene: InChIKey QQONPFPTGQHPMA-UHFFFAOYSA-N
Temperature: 373 K
Tabular data in the source: 0
pressure (bar)	uptake (mmol/g)
0.0194554	0.376836
0.0580822	1.02282
0.0779636	1.56119
0.0970639	1.80341
0.097774	2.07264
0.153939	2.36854
0.191643	2.66452
0.210743	2.90675
0.266837	3.17573
0.285795	3.3641
0.360493	3.68684
0.453722	4.03643
0.602407	4.41268
0.695211	4.60073
0.806405	4.76177
0.93606	4.92272
1.1211	5.08343
1.25068	5.21746
1.36166	5.29774
1.62055	5.45811
1.78691	5.53814
2.11957	5.67126
2.30426	5.69735
2.37824	5.75087
2.56293	5.77696
2.72922	5.83006
3.32034	5.96202
3.50495	5.9612
3.68964	5.98729
3.85586	6.01347
4.04054	6.03956
4.22523	6.06566
4.40991	6.09175
4.5946	6.11784
4.77921	6.11702
