Adsorption isotherm of Isobutane on CuBTC
DOI: 10.1016/j.micromeso.2011.06.024
Adsorbate Isobutane: InChIKey NNPPMTNAJDCUHE-UHFFFAOYSA-N
Temperature: 373 K
Tabular data in the source: 0
pressure (bar)	uptake (mmol/g)
0.0124611	0.189922
0.0311526	0.542636
0.0436137	0.949612
0.0560748	1.27519
0.0747664	1.76357
0.0872274	2.17054
0.105919	2.60465
0.137072	3.01163
0.168224	3.28295
0.218069	3.55426
0.261682	3.71705
0.305296	3.87984
0.380062	3.98837
0.436137	4.0969
0.485981	4.12403
0.560748	4.17829
0.647975	4.23256
0.766355	4.28682
0.884735	4.34109
1.00935	4.39535
1.08411	4.39535
1.1838	4.42248
1.29595	4.47674
1.37072	4.44961
1.49533	4.50388
1.55763	4.50388
1.60125	4.50388
