Adsorption isotherm of Isobutane on CuBTC
DOI: 10.1016/j.micromeso.2011.06.024
Article source: Figure 3c
Adsorbate Isobutane: InChIKey NNPPMTNAJDCUHE-UHFFFAOYSA-N
Kind: experiment
Temperature: 348 K
Tabular data in the source: 0
pressure (bar)	uptake (mmol/g)
0.00703	0.0457
0.02176	1.4822
0.03266	2.7993
0.06131	3.5296
0.23329	4.2301
0.36645	4.3503
0.47856	4.4097
0.60818	4.4536
0.82536	4.4808
1.1126	4.5376
1.36481	4.5796
1.62401	4.5909
