Adsorption isotherm of Isobutane on Cu-BTC
DOI: 10.1016/j.micromeso.2011.06.024
Article source: Fig. 3c
Adsorbate Isobutane: InChIKey NNPPMTNAJDCUHE-UHFFFAOYSA-N
Kind: experiment
Temperature: 373 K
Tabular data in the source: 0
pressure (bar)	uptake (mmol/g)
0.00703	0
0.04984	0
0.06773	0
0.09257	0
0.13834	0
0.27516	0
0.36627	0
0.46088	0
0.70962	0
0.96535	0
1.61692	0
