Adsorption isotherm of N-propane on CuBTC
DOI: 10.1016/j.micromeso.2011.06.024
Adsorbate N-propane: InChIKey ATUOYWHBWRKTHZ-UHFFFAOYSA-N
Temperature: 348 K
Tabular data in the source: 0
pressure (bar)	uptake (mmol/g)
0.0736196	0.675676
0.0920245	1.16216
0.184049	2.10811
0.220859	2.64865
0.294479	3.32432
0.404908	3.72973
0.533742	4.08108
0.736196	4.37838
0.865031	4.48649
1.03067	4.62162
2.04294	5.10811
3.0184	5.2973
4.91411	5.40541
