Adsorption isotherm of N-propane, Propene on Cu-BTC
DOI: 10.1016/j.micromeso.2011.06.024
Article source: Fig. 10b
Adsorbate N-propane: InChIKey ATUOYWHBWRKTHZ-UHFFFAOYSA-N
Adsorbate Propene: InChIKey QQONPFPTGQHPMA-UHFFFAOYSA-N
Kind: experiment
Temperature: 373 K
Tabular data in the source: 0
pressure (bar)	N-propane fraction	N-propane uptake (mmol/g)	Propene fraction	Propene uptake (mmol/g)	total uptake (mmol/g)
2.5	0.00178	0.0435	0.99854	5.7826	0
2.5	0.57318	1.9192	0.42974	4.3685	0
2.5	1.00294	4.6231	0.00354	0.029	0
