Adsorption isotherm of Isobutane on CuBTC
DOI: 10.1016/j.micromeso.2011.06.024
Adsorbate Isobutane: InChIKey NNPPMTNAJDCUHE-UHFFFAOYSA-N
Temperature: 348 K
Tabular data in the source: 0
pressure (bar)	uptake (mmol/g)
0.0186916	1.49225
0.0249221	2.27907
0.0560748	3.55426
0.23053	4.23256
0.361371	4.36822
0.479751	4.39535
0.610592	4.44961
0.82866	4.50388
1.1215	4.53101
1.37695	4.53101
1.62617	4.58527
