Adsorption isotherm of Propene on CuBTC
DOI: 10.1016/j.micromeso.2011.06.024
Adsorbate Propene: InChIKey QQONPFPTGQHPMA-UHFFFAOYSA-N
Temperature: 373 K
Tabular data in the source: 0
pressure (bar)	uptake (mmol/g)
0.0390528	0.807517
0.0591472	1.42666
0.11588	1.93794
0.172755	2.50307
0.248092	3.06812
0.323002	3.47163
0.39777	3.82129
0.509532	4.19771
0.695069	4.54688
0.917528	4.89588
1.19509	5.13695
1.4725	5.32416
2.06405	5.61766
3.11705	5.88217
4.85355	6.30514
