Adsorption isotherm of N-propane on CuBTC
DOI: 10.1016/j.micromeso.2011.06.024
Adsorbate N-propane: InChIKey ATUOYWHBWRKTHZ-UHFFFAOYSA-N
Temperature: 323 K
Tabular data in the source: 0
pressure (bar)	uptake (mmol/g)
0.0552147	0.756757
0.0736196	1.59459
0.0920245	2.59459
0.128834	3.02703
0.165644	3.35135
0.184049	3.64865
0.220859	3.91892
0.331288	4.45946
0.496933	4.86486
0.625767	5.05405
0.791411	5.24324
0.957055	5.35135
1.10429	5.40541
1.28834	5.45946
1.45399	5.48649
1.63804	5.54054
1.8589	5.56757
2.04294	5.59459
2.22699	5.62162
2.41104	5.64865
2.59509	5.64865
2.77914	5.67568
2.96319	5.67568
3.07362	5.67568
3.25767	5.67568
3.3865	5.7027
3.57055	5.7027
3.7546	5.7027
3.93865	5.7027
4.1227	5.7027
4.30675	5.7027
4.4908	5.72973
4.67485	5.72973
4.8589	5.75676
5.02454	5.81081
