Adsorption isotherm of N-propane on CuBTC
DOI: 10.1016/j.micromeso.2011.06.024
Article source: Figure 3a
Adsorbate N-propane: InChIKey ATUOYWHBWRKTHZ-UHFFFAOYSA-N
Kind: experiment
Temperature: 323 K
Tabular data in the source: 0
pressure (bar)	uptake (mmol/g)
0.0205	0.0605
0.0393	0.7119
0.0575	1.5452
0.0939	3.2268
0.1055	2.8025
0.1749	3.8325
0.287	4.3925
0.472	4.8158
0.7299	5.0569
1.0707	5.2522
1.9181	5.5358
2.9936	5.6667
4.9587	5.7931
