Adsorption isotherm of Isobutane on CuBTC
DOI: 10.1016/j.micromeso.2011.06.024
Adsorbate Isobutane: InChIKey NNPPMTNAJDCUHE-UHFFFAOYSA-N
Temperature: 348 K
Tabular data in the source: 0
pressure (bar)	uptake (mmol/g)
0	0.569767
0.0249221	0.949612
0.0311526	1.84496
0.0373832	2.14341
0.0498442	2.41473
0.0560748	3.12016
0.0809969	3.52713
0.11215	3.77132
0.143302	3.96124
0.186916	4.0969
0.267913	4.23256
0.323988	4.31395
0.386293	4.36822
0.436137	4.42248
0.510903	4.44961
0.573209	4.44961
0.647975	4.50388
0.71028	4.53101
0.772586	4.55814
0.872274	4.58527
0.984424	4.58527
1.06542	4.6124
1.15265	4.63953
1.23364	4.66667
1.3271	4.66667
1.42679	4.6938
1.48287	4.6938
1.54517	4.6938
1.61371	4.6938
