Adsorption isotherm of Propene on CuBTC
DOI: 10.1016/j.micromeso.2011.06.024
Adsorbate Propene: InChIKey QQONPFPTGQHPMA-UHFFFAOYSA-N
Temperature: 323 K
Tabular data in the source: 0
pressure (bar)	uptake (mmol/g)
0.00532538	2.01921
0.0452302	3.1498
0.104093	4.46876
0.142507	5.03398
0.179998	5.24919
0.254695	5.57193
0.38435	5.73289
0.384635	5.84058
0.643519	6.00096
0.957716	6.13416
1.19793	6.21386
1.49359	6.32022
1.99219	6.37183
3.174	6.47422
5.00195	6.57371
