Adsorption isotherm of Propene on CuBTC
DOI: 10.1016/j.micromeso.2011.06.024
Adsorbate Propene: InChIKey QQONPFPTGQHPMA-UHFFFAOYSA-N
Temperature: 323 K
Tabular data in the source: 0
pressure (bar)	uptake (mmol/g)
0.00497036	1.88459
0.0457273	3.33826
0.0852771	4.33423
0.0859871	4.60346
0.12362	4.87252
0.161608	5.2762
0.217844	5.59902
0.329464	5.9216
0.533035	6.10915
0.736465	6.24285
1.05066	6.37605
1.34604	6.37473
1.51227	6.40091
1.75233	6.42675
1.95541	6.42584
2.30632	6.47811
2.49093	6.47728
2.67554	6.47646
2.86016	6.47563
3.04484	6.50172
3.21099	6.50098
3.3956	6.50015
3.58022	6.49932
3.74644	6.5255
3.93105	6.52467
4.11567	6.52384
4.30028	6.52301
4.48489	6.52218
4.66951	6.52135
4.85412	6.52053
