Adsorption isotherm of Propene on Cu-BTC
DOI: 10.1016/j.micromeso.2011.06.024
Article source: Fig. 3b
Adsorbate Propene: InChIKey QQONPFPTGQHPMA-UHFFFAOYSA-N
Kind: experiment
Temperature: 373 K
Tabular data in the source: 0
pressure (bar)	uptake (mmol/g)
0.0208	0
0.0633	0
0.1058	0
0.1479	0
0.1799	0
0.2325	0
0.3161	0
0.3995	0
0.5036	0
0.6907	0
0.9089	0
1.1994	0
1.438	0
2.0498	0
3.1175	0
4.8591	0
