Adsorption isotherm of Isobutane on CuBTC
DOI: 10.1016/j.micromeso.2011.06.024
Adsorbate Isobutane: InChIKey NNPPMTNAJDCUHE-UHFFFAOYSA-N
Temperature: 323 K
Tabular data in the source: 0
pressure (bar)	uptake (mmol/g)
0.00623053	1.62791
0.0186916	2.06202
0.0249221	3.4186
0.0623053	3.98837
0.0747664	4.12403
0.0934579	4.23256
0.161994	4.39535
0.199377	4.47674
0.261682	4.55814
0.317757	4.58527
0.361371	4.63953
0.448598	4.6938
0.510903	4.6938
0.579439	4.6938
0.660436	4.72093
0.778816	4.77519
0.890966	4.77519
0.978193	4.77519
1.07788	4.80233
1.14642	4.74806
1.20249	4.80233
1.2648	4.80233
1.3271	4.80233
1.4704	4.82946
1.53271	4.82946
1.59502	4.82946
1.6324	4.82946
