Adsorption isotherm of N-propane on CuBTC
DOI: 10.1016/j.micromeso.2011.06.024
Adsorbate N-propane: InChIKey ATUOYWHBWRKTHZ-UHFFFAOYSA-N
Temperature: 348 K
Tabular data in the source: 0
pressure (bar)	uptake (mmol/g)
0.0736196	0.756757
0.0920245	0.972973
0.128834	1.18919
0.147239	1.62162
0.184049	1.94595
0.202454	2.2973
0.239264	2.78378
0.276074	2.97297
0.312883	3.27027
0.368098	3.45946
0.386503	3.56757
0.460123	3.86486
0.478528	3.97297
0.588957	4.16216
0.625767	4.2973
0.828221	4.59459
0.957055	4.78378
1.1227	4.89189
1.30675	5
1.47239	5.08108
1.61963	5.16216
1.78528	5.24324
1.96933	5.32432
2.09816	5.37838
2.28221	5.40541
2.46626	5.43243
2.52147	5.45946
2.70552	5.45946
2.88957	5.51351
3.07362	5.54054
3.25767	5.54054
3.44172	5.54054
3.62577	5.56757
3.80982	5.56757
3.97546	5.59459
4.15951	5.59459
4.34356	5.59459
4.52761	5.62162
4.71166	5.62162
4.89571	5.64865
