Adsorption isotherm of Propene on Cu-BTC
DOI: 10.1016/j.micromeso.2011.06.024
Article source: Fig. 3b
Adsorbate Propene: InChIKey QQONPFPTGQHPMA-UHFFFAOYSA-N
Kind: experiment
Temperature: 323 K
Tabular data in the source: 0
pressure (bar)	uptake (mmol/g)
-0.0104	0
0.0104	0
0.0207	0
0.0311	0
0.0415	0
0.0725	0
0.1658	0
0.1865	0
0.2902	0
0.3627	0
0.3938	0
0.6114	0
0.9326	0
1.1606	0
1.4922	0
2	0
3.1606	0
4.9741	0
