Adsorption isotherm of Hydrogen on UiO-67 (1:1)
DOI: 10.1039/C4ra06295g
Adsorbate Hydrogen: InChIKey UFHFLCQGNIYNRP-UHFFFAOYSA-N
Temperature: 298 K
Tabular data in the source: 0
pressure (bar)	uptake (wt%)
7.71018	0.0492499
11.7185	0.100123
20.0457	0.149103
29.9173	0.144773
39.7869	0.193076
50.2745	0.214792
60.4546	0.210327
79.8874	0.254435
90.0665	0.276287
99.9371	0.298273
110.117	0.293808
119.987	0.342111
