Adsorption isotherm of Hydrogen on UiO-68
DOI: 10.1039/C4ra06295g
Adsorbate Hydrogen: InChIKey UFHFLCQGNIYNRP-UHFFFAOYSA-N
Temperature: 298 K
Tabular data in the source: 0
pressure (bar)	uptake (wt%)
5.03646	0.0356443
7.98487	0.306106
12.1855	0.420113
20.1638	0.570581
29.8253	0.836689
39.9031	1.02471
50.3989	1.17354
59.6343	1.28428
79.3655	1.54386
89.858	1.61488
99.9342	1.76399
109.588	1.83555
120.5	1.90629
