Adsorption isotherm of Hydrogen on UiO-68 (3:1)
DOI: 10.1039/C4ra06295g
Adsorbate Hydrogen: InChIKey UFHFLCQGNIYNRP-UHFFFAOYSA-N
Temperature: 298 K
Tabular data in the source: 0
pressure (bar)	uptake (g/l)
3.31373	2.35294
7.29779	4.26471
11.6189	5.73529
19.9326	8.08824
29.9154	10.1471
39.9007	11.9118
49.5576	13.0882
60.2157	14.1176
79.201	15.8824
89.5294	16.4706
99.1887	17.3529
109.52	17.6471
119.85	17.9412
