Adsorption isotherm of Hydrogen on UiO-66 (7:1)
DOI: 10.1039/C4ra06295g
Adsorbate Hydrogen: InChIKey UFHFLCQGNIYNRP-UHFFFAOYSA-N
Temperature: 298 K
Tabular data in the source: 0
pressure (bar)	uptake (g/l)
-0.394737	-0.394737
0	33.9223
0.394737	19.9286
1.57895	48.9725
3.55263	49.817
7.5	50.4461
11.8421	50.6505
20.9211	51.4825
30	51.2544
39.8684	51.449
50.1316	51.4309
59.6053	51.2021
80.1316	50.7418
89.6053	50.3011
100.263	50.2822
110.132	50.0528
120.395	49.1866
