Adsorption isotherm of Hydrogen on UiO-66
DOI: 10.1039/C4ra06295g
Adsorbate Hydrogen: InChIKey UFHFLCQGNIYNRP-UHFFFAOYSA-N
Temperature: 298 K
Tabular data in the source: 0
pressure (bar)	uptake (wt%)
-0.3508	1.12439
-0.0364358	0.636108
0.20421	1.43484
0.274539	0.206999
0.452482	2.10042
0.471971	1.76018
1.87094	2.33659
3.85457	2.70568
8.41328	3.11819
11.5501	3.35372
20.1329	3.51326
29.8629	3.6428
39.5972	3.69837
49.9077	3.69456
60.2165	3.72033
80.2647	3.71292
89.4295	3.70953
99.7392	3.72051
110.052	3.67232
120.363	3.6685
