Adsorption isotherm of Hydrogen on UiO-68 (7:1)
DOI: 10.1039/C4ra06295g
Adsorbate Hydrogen: InChIKey UFHFLCQGNIYNRP-UHFFFAOYSA-N
Temperature: 298 K
Tabular data in the source: 0
pressure (bar)	uptake (wt%)
-1.1983	1.44047
-0.796691	1.01219
-0.791794	1.12892
-0.421202	-0.0386374
-0.351001	1.63447
-0.337941	1.94574
-0.315085	2.49048
-0.293862	2.9963
-0.280801	3.30758
0.148563	3.54076
1.42523	3.96795
1.44482	4.43486
1.47257	5.09632
1.48074	5.29087
4.0308	6.06742
7.851	7.11553
12.0598	7.42409
30.1257	7.99603
40.2101	8.33968
49.8683	8.52797
59.5249	8.67735
79.2479	8.74238
89.7404	8.8134
99.8133	8.88469
109.883	8.87816
120.372	8.87135
