Adsorption isotherm of Hydrogen on UiO-68 (6:1)
DOI: 10.1039/C4ra06295g
Adsorbate Hydrogen: InChIKey UFHFLCQGNIYNRP-UHFFFAOYSA-N
Temperature: 298 K
Tabular data in the source: 0
pressure (bar)	uptake (wt%)
0.0228559	0.544732
0.0277536	0.661461
0.0881585	2.10111
0.109382	2.60693
2.23008	3.1503
2.66761	3.57804
3.54919	4.58914
7.79223	5.71479
11.5896	6.21816
19.5859	6.79664
29.2474	7.06274
39.7431	7.21158
49.8193	7.36069
59.4792	7.58789
79.6267	7.76937
90.1208	7.8793
100.192	7.91168
110.263	7.94406
120.333	7.93753
