Adsorption isotherm of Hydrogen on UiO-67 (2:1)
DOI: 10.1039/C4ra06295g
Adsorbate Hydrogen: InChIKey UFHFLCQGNIYNRP-UHFFFAOYSA-N
Temperature: 298 K
Tabular data in the source: 0
pressure (bar)	uptake (wt%)
4.93176	0.1031
9.55401	0.232652
12.0148	0.415783
20.6434	0.648841
29.5845	0.776498
40.3734	0.982292
49.9305	1.136
59.8001	1.1843
79.8437	1.38603
90.0188	1.51315
99.8884	1.56145
109.757	1.63607
119.936	1.65792
