Adsorption isotherm of Hydrogen on UiO-66 (3:1)
DOI: 10.1039/C4ra06295g
Adsorbate Hydrogen: InChIKey UFHFLCQGNIYNRP-UHFFFAOYSA-N
Temperature: 298 K
Tabular data in the source: 0
pressure (bar)	uptake (wt%)
2.55051	0.47243
3.67578	0.827043
7.95317	1.1509
11.9518	1.34173
20.2447	1.56056
29.9706	1.76406
39.9912	1.81953
49.7221	1.93427
59.742	2.00453
80.3613	2.02649
89.5261	2.0231
100.12	2.06356
109.859	2.04517
119.879	2.11543
