Adsorption isotherm of Hydrogen on UiO-67 (5:1)
DOI: 10.1039/C4ra06295g
Adsorbate Hydrogen: InChIKey UFHFLCQGNIYNRP-UHFFFAOYSA-N
Temperature: 298 K
Tabular data in the source: 0
pressure (bar)	uptake (wt%)
0.298341	0.263027
0.592623	0.631319
0.889949	0.920662
1.46126	2.10462
2.06606	2.42015
4.19402	3.235
7.86747	3.97023
11.5521	4.41599
18.9355	4.93906
30.0269	5.30262
39.8914	5.4825
49.7539	5.71502
59.932	5.76319
79.6661	5.99137
89.5368	6.01336
99.4084	6.00903
109.587	6.03088
119.459	6.02655
