Adsorption isotherm of Hydrogen on UiO-67 (6:1)
DOI: 10.1039/C4ra06295g
Adsorbate Hydrogen: InChIKey UFHFLCQGNIYNRP-UHFFFAOYSA-N
Temperature: 298 K
Tabular data in the source: 0
pressure (bar)	uptake (g/l)
0	0
0.359281	5.73379
0.718563	21.9113
1.07784	15.9727
2.51497	26.0068
3.9521	33.5836
7.90419	37.2696
11.8563	40.1365
20.1198	43.413
29.4611	45.4608
39.8802	46.6894
49.2216	47.5085
59.6407	48.3276
79.4012	49.5563
89.4611	49.5563
99.521	50.1706
109.581	49.9659
119.641	49.9659
