Adsorption isotherm of Hydrogen on UiO-66 (7:1)
DOI: 10.1039/C4ra06295g
Adsorbate Hydrogen: InChIKey UFHFLCQGNIYNRP-UHFFFAOYSA-N
Temperature: 298 K
Tabular data in the source: 0
pressure (bar)	uptake (wt%)
-0.667707	1.65705
-0.447398	2.81082
-0.441466	2.70726
-0.28725	0.0148991
-0.209294	3.65392
-0.203363	3.55037
-0.123712	2.15981
0.0694822	3.78696
0.349953	3.8904
0.666012	3.37253
2.6327	4.03749
4.63243	4.12551
7.49391	4.16883
10.6426	4.19725
20.0922	4.22334
29.8307	4.20494
39.8548	4.20124
49.5925	4.19764
59.903	4.19382
79.6664	4.15693
89.6922	4.12363
99.718	4.09034
109.457	4.05715
119.769	4.03855
