Adsorption isotherm of Hydrogen on UiO-68
DOI: 10.1039/C4ra06295g
Adsorbate Hydrogen: InChIKey UFHFLCQGNIYNRP-UHFFFAOYSA-N
Temperature: 298 K
Tabular data in the source: 0
pressure (bar)	uptake (g/l)
4.66054	0.735294
7.32353	1.17647
11.9853	1.76471
19.6434	2.79412
29.9657	4.11765
40.2929	4.85294
49.9534	5.58824
59.9485	6.17647
79.6054	7.35294
89.9326	8.08824
99.9314	8.23529
110.26	8.82353
120.256	9.26471
