Adsorption isotherm of Hydrogen on UiO-67 (3:1)
DOI: 10.1039/C4ra06295g
Adsorbate Hydrogen: InChIKey UFHFLCQGNIYNRP-UHFFFAOYSA-N
Temperature: 298 K
Tabular data in the source: 0
pressure (bar)	uptake (wt%)
2.76422	0.314577
3.67649	0.656282
8.28657	1.10163
11.9773	1.38948
19.9827	1.78071
30.1476	2.17099
40.0091	2.42982
50.1811	2.63589
60.3552	2.78932
79.4683	3.12304
89.9559	3.14476
100.132	3.24556
109.692	3.32031
119.563	3.3423
