Adsorption isotherm of Hydrogen on UiO-66 (3:1)
DOI: 10.1039/C4ra06295g
Adsorbate Hydrogen: InChIKey UFHFLCQGNIYNRP-UHFFFAOYSA-N
Temperature: 298 K
Tabular data in the source: 0
pressure (bar)	uptake (wt%)
-0.134728	2.35212
-0.0855817	1.49411
0.140659	2.54433
0.1754	1.9378
0.179637	1.86384
0.231325	0.961453
1.25237	3.13563
2.94876	3.51962
2.95893	3.3421
4.65531	3.72609
7.79472	3.91724
11.512	4.01941
19.2457	4.00176
29.8392	4.05701
39.865	4.02372
50.461	4.03459
59.6284	3.98682
79.6774	3.96462
89.4168	3.93143
100.301	3.91261
110.327	3.87932
119.493	3.84634
