Adsorption isotherm of Hydrogen on UiO-67 (1:1)
DOI: 10.1039/C4ra06295g
Adsorbate Hydrogen: InChIKey UFHFLCQGNIYNRP-UHFFFAOYSA-N
Temperature: 298 K
Tabular data in the source: 0
pressure (bar)	uptake (g/l)
7.54491	0.204778
11.8563	0.614334
19.7605	0.614334
29.8204	0.819113
39.521	1.22867
49.9401	1.43345
60	1.43345
79.4012	1.843
89.8204	1.843
99.521	2.04778
109.94	2.25256
119.281	2.45734
