Adsorption isotherm of Hydrogen on UiO-66 (4:1)
DOI: 10.1039/C4ra06295g
Adsorbate Hydrogen: InChIKey UFHFLCQGNIYNRP-UHFFFAOYSA-N
Temperature: 298 K
Tabular data in the source: 0
pressure (bar)	uptake (g/l)
-0.394737	5.51306
0.394737	8.69188
1.18421	14.4149
1.57895	18.0184
4.73684	21.8291
7.89474	26.2758
12.2368	28.3883
20.1316	30.9185
30	33.0212
39.8684	34.2759
50.1316	35.1058
59.6053	35.9371
80.1316	36.3249
89.2105	37.1569
99.8684	36.926
110.132	37.5439
120.395	37.9498
