Adsorption isotherm of Hydrogen on UiO-66 (1:1)
DOI: 10.1039/C4ra06295g
Adsorbate Hydrogen: InChIKey UFHFLCQGNIYNRP-UHFFFAOYSA-N
Temperature: 298 K
Tabular data in the source: 0
pressure (bar)	uptake (g/l)
7.89474	0.198066
11.4474	-0.020225
20.5263	0.599777
30	0.795053
39.4737	1.20234
50.5263	1.39483
60	1.16608
80.5263	1.76585
90	1.74912
100.263	1.943
110.132	1.92556
120.395	2.11944
