Adsorption isotherm of Hydrogen on UiO-67 (7:1)
DOI: 10.1039/C4ra06295g
Adsorbate Hydrogen: InChIKey UFHFLCQGNIYNRP-UHFFFAOYSA-N
Temperature: 298 K
Tabular data in the source: 0
pressure (bar)	uptake (wt%)
-0.405906	2.52649
-0.10655	2.7632
0.135978	4.47362
0.148156	4.15783
0.241514	1.73674
0.308489	-0.000135302
0.466792	3.89453
0.748896	4.57862
0.799635	3.26281
1.0929	3.65742
1.95342	5.34125
1.96458	5.05177
4.09153	5.89294
8.08057	6.44382
11.7713	6.73168
19.7798	7.04396
29.6372	7.40805
40.1218	7.50872
49.9883	7.63597
59.8589	7.65796
78.9812	7.75483
89.4688	7.77655
99.6479	7.7984
109.518	7.82039
118.773	7.81633
