Adsorption isotherm of Hydrogen on UiO-67 (4:1)
DOI: 10.1039/C4ra06295g
Adsorbate Hydrogen: InChIKey UFHFLCQGNIYNRP-UHFFFAOYSA-N
Temperature: 298 K
Tabular data in the source: 0
pressure (bar)	uptake (g/l)
0.718563	3.27645
2.87425	8.19113
3.9521	12.0819
7.90419	16.7918
11.497	20.273
19.7605	23.959
29.8204	27.2355
39.1617	29.0785
49.5808	30.5119
60.3593	31.7406
79.7605	33.1741
89.4611	33.5836
99.1617	33.9932
109.581	34.8123
120	35.0171
