Adsorption isotherm of Hydrogen on UiO-67 (5:1)
DOI: 10.1039/C4ra06295g
Adsorbate Hydrogen: InChIKey UFHFLCQGNIYNRP-UHFFFAOYSA-N
Temperature: 298 K
Tabular data in the source: 0
pressure (bar)	uptake (g/l)
0	0
1.07784	2.04778
1.43713	14.1297
1.79641	17.4061
3.23353	22.9352
7.54491	28.2594
11.497	31.1263
20.1198	34.8123
29.4611	37.6792
39.521	39.3174
49.5808	40.1365
59.2814	40.7509
79.7605	42.3891
89.8204	42.7986
99.8802	42.7986
109.94	43.2082
120	43.2082
