Adsorption isotherm of Hydrogen on UiO-67 (7:1)
DOI: 10.1039/C4ra06295g
Adsorbate Hydrogen: InChIKey UFHFLCQGNIYNRP-UHFFFAOYSA-N
Temperature: 298 K
Tabular data in the source: 0
pressure (bar)	uptake (g/l)
0	0
0.359281	23.3447
0.718563	28.6689
1.07784	31.1263
1.43713	32.7645
2.15569	38.0887
2.51497	35.6314
4.31138	41.7747
7.18563	45.256
11.8563	48.1229
20.1198	50.1706
29.8204	52.628
39.8802	53.4471
49.5808	54.471
60	54.6758
79.4012	55.2901
89.4611	55.2901
99.521	55.4949
109.94	55.6997
120.359	56.1092
