Adsorption isotherm of Hydrogen on UiO-66
DOI: 10.1039/C4ra06295g
Adsorbate Hydrogen: InChIKey UFHFLCQGNIYNRP-UHFFFAOYSA-N
Temperature: 298 K
Tabular data in the source: 0
pressure (bar)	uptake (g/l)
-0.789474	2.54556
-0.394737	13.3576
0.394737	8.26785
1.57895	26.499
3.55263	33.0679
7.89474	37.9366
12.2368	40.4731
20.1316	42.7913
30	44.258
39.4737	45.3013
50.5263	45.4938
60.3947	45.6883
80.1316	45.8655
90	45.636
99.8684	45.4066
110.526	44.7517
120.395	44.7343
