Adsorption isotherm of Hydrogen on UiO-67 (6:1)
DOI: 10.1039/C4ra06295g
Adsorbate Hydrogen: InChIKey UFHFLCQGNIYNRP-UHFFFAOYSA-N
Temperature: 298 K
Tabular data in the source: 0
pressure (bar)	uptake (wt%)
0.220204	2.28938
0.541884	1.94713
0.561165	1.44712
0.568268	1.26291
0.58146	0.920798
1.11117	3.18372
1.1132	3.13109
1.70683	3.73609
2.00619	3.9728
3.83074	4.65621
7.51027	5.23355
11.8119	5.67903
19.5068	6.12302
29.9833	6.43422
39.8488	6.58779
49.7143	6.74135
59.8914	6.81584
79.3191	6.99153
89.1917	6.96088
99.3688	7.03536
109.241	7.00472
119.424	6.94762
