Adsorption isotherm of Hydrogen on UiO-68 (3:1)
DOI: 10.1039/C4ra06295g
Adsorbate Hydrogen: InChIKey UFHFLCQGNIYNRP-UHFFFAOYSA-N
Temperature: 298 K
Tabular data in the source: 0
pressure (bar)	uptake (wt%)
2.52394	0.154005
3.37614	0.464737
7.58979	0.89002
11.8002	1.23748
19.7916	1.69923
29.8808	2.15961
39.5456	2.50354
49.6283	2.80828
59.7078	3.03521
79.8634	3.41124
89.938	3.52144
100.016	3.70946
110.089	3.78075
119.74	3.8134
