Adsorption isotherm of Hydrogen on UiO-68 (4:1)
DOI: 10.1039/C4ra06295g
Adsorbate Hydrogen: InChIKey UFHFLCQGNIYNRP-UHFFFAOYSA-N
Temperature: 298 K
Tabular data in the source: 0
pressure (bar)	uptake (wt%)
3.4039	1.1262
7.62734	1.78494
11.4182	2.13267
20.252	2.67169
29.5086	3.28826
39.5995	3.78755
49.6871	4.20902
60.191	4.55241
80.3499	5.00626
90.0098	5.23346
100.089	5.46038
110.164	5.57058
119.82	5.71996
