Adsorption isotherm of Hydrogen on UiO-67 (2:1)
DOI: 10.1039/C4ra06295g
Adsorbate Hydrogen: InChIKey UFHFLCQGNIYNRP-UHFFFAOYSA-N
Temperature: 298 K
Tabular data in the source: 0
pressure (bar)	uptake (g/l)
4.31138	1.22867
7.90419	1.843
12.2156	2.66212
20.1198	4.30034
29.8204	5.73379
39.8802	6.75768
49.9401	7.98635
60.3593	8.3959
79.7605	10.0341
89.4611	10.6485
100.24	11.058
109.94	11.4676
120	12.0819
