Adsorption isotherm of Hydrogen on UiO-66 (4:1)
DOI: 10.1039/C4ra06295g
Adsorbate Hydrogen: InChIKey UFHFLCQGNIYNRP-UHFFFAOYSA-N
Temperature: 298 K
Tabular data in the source: 0
pressure (bar)	uptake (wt%)
-0.0279623	0.488176
-0.0220309	0.384624
0.239798	0.813521
1.07358	1.257
2.49034	1.52275
3.9071	1.7885
8.1828	2.14194
11.8933	2.36247
19.9041	2.50743
30.4891	2.71062
39.9345	2.81068
50.2416	2.86603
60.2606	2.95109
80.5926	2.98795
89.4694	3.01425
100.067	2.99554
109.801	3.05111
119.824	3.07699
