Adsorption isotherm of Hydrogen on UiO-68 (5:1)
DOI: 10.1039/C4ra06295g
Adsorbate Hydrogen: InChIKey UFHFLCQGNIYNRP-UHFFFAOYSA-N
Temperature: 298 K
Tabular data in the source: 0
pressure (bar)	uptake (g/l)
-1.01348	1.61765
0.9375	7.5
1.2598	8.82353
4.22059	13.5294
7.51593	18.0882
11.8309	20.2941
19.1324	24.1176
29.4424	26.9118
39.4228	29.2647
49.7414	31.0294
59.3995	32.0588
79.3799	34.4118
89.3738	35.1471
99.3701	35.5882
110.701	35.8824
119.702	35.7353
