Adsorption isotherm of Hydrogen on UiO-66 (2:1)
DOI: 10.1039/C4ra06295g
Adsorbate Hydrogen: InChIKey UFHFLCQGNIYNRP-UHFFFAOYSA-N
Temperature: 298 K
Tabular data in the source: 0
pressure (bar)	uptake (wt%)
3.14619	0.072801
3.99946	0.176036
8.00147	0.307692
11.1477	0.380493
19.444	0.540146
29.746	0.684266
39.4752	0.828596
49.7832	0.869163
59.8038	0.924629
79.8444	1.05035
89.8684	1.04665
99.6036	1.08742
109.914	1.08361
119.649	1.12439
