Adsorption isotherm of Hydrogen on UiO-67 (3:1)
DOI: 10.1039/C4ra06295g
Adsorbate Hydrogen: InChIKey UFHFLCQGNIYNRP-UHFFFAOYSA-N
Temperature: 298 K
Tabular data in the source: 0
pressure (bar)	uptake (g/l)
2.15569	1.43345
3.59281	4.7099
7.90419	6.96246
11.8563	9.4198
19.4012	12.4915
30.1796	15.1536
39.8802	17.2014
49.5808	18.43
59.6407	19.6587
79.7605	21.9113
89.8204	22.5256
100.24	22.7304
109.94	23.5495
119.281	23.5495
