Adsorption isotherm of Hydrogen on UiO-68 (5:1)
DOI: 10.1039/C4ra06295g
Adsorbate Hydrogen: InChIKey UFHFLCQGNIYNRP-UHFFFAOYSA-N
Temperature: 298 K
Tabular data in the source: 0
pressure (bar)	uptake (wt%)
-0.408141	0.272638
1.76154	1.98329
1.7697	2.17784
3.4741	2.7993
7.29756	3.92523
11.0949	4.4286
19.9369	5.16217
30.0327	5.77819
40.1252	6.31639
49.7899	6.66032
60.7102	6.92561
80.0316	7.41892
90.1077	7.56802
100.182	7.67822
109.834	7.71087
120.746	7.78162
