Adsorption isotherm of Hydrogen on UiO-68 (7:1)
DOI: 10.1039/C4ra06295g
Adsorbate Hydrogen: InChIKey UFHFLCQGNIYNRP-UHFFFAOYSA-N
Temperature: 298 K
Tabular data in the source: 0
pressure (bar)	uptake (g/l)
-0.707108	4.85294
-0.481618	17.7941
-0.428922	11.4706
-0.409314	9.11765
-0.404412	8.52941
-0.133578	16.0294
-0.110294	13.2353
-0.060049	7.20588
0.165441	20.1471
0.333333	0
1.14093	23.0882
1.45956	24.8529
3.10049	27.9412
7.72794	32.6471
11.3824	34.1176
30.0245	37.0588
39.6789	38.5294
50.0061	39.2647
59	40
79.3272	40.7353
89.6593	40.8824
99.6569	41.1765
109.656	41.3235
119.988	41.4706
