Adsorption isotherm of Hydrogen on UiO-66 (2:1)
DOI: 10.1039/C4ra06295g
Adsorbate Hydrogen: InChIKey UFHFLCQGNIYNRP-UHFFFAOYSA-N
Temperature: 298 K
Tabular data in the source: 0
pressure (bar)	uptake (g/l)
3.15789	0.206435
3.94737	1.26511
8.28947	3.80161
11.8421	4.43137
20.1316	6.53687
30.3947	8.21485
41.0526	10.3162
50.1316	10.7241
60.3947	11.3421
79.7368	12.58
90.3947	12.7732
100.263	13.6038
110.132	13.5863
120.789	13.7795
