Adsorption isotherm of Hydrogen on UiO-68 (1:1)
DOI: 10.1039/C4ra06295g
Adsorbate Hydrogen: InChIKey UFHFLCQGNIYNRP-UHFFFAOYSA-N
Temperature: 298 K
Tabular data in the source: 0
pressure (bar)	uptake (g/l)
6.99877	0.147059
11.9963	0.441176
19.663	0.441176
29.6605	0.735294
39.9926	0.882353
49.6581	1.02941
59.6556	1.32353
79.6544	1.47059
90.3186	1.76471
99.9865	1.61765
109.985	1.76471
119.984	1.91176
