Adsorption isotherm of Hydrogen on UiO-68 (1:1)
DOI: 10.1039/C4ra06295g
Adsorbate Hydrogen: InChIKey UFHFLCQGNIYNRP-UHFFFAOYSA-N
Temperature: 298 K
Tabular data in the source: 0
pressure (bar)	uptake (wt%)
7.13431	0.0342838
11.7512	0.0702003
20.1442	0.103668
29.7959	0.136319
39.8672	0.168698
49.9385	0.201077
60.0082	0.194547
79.7295	0.220668
90.222	0.291685
99.8721	0.285427
109.943	0.317806
120.434	0.349913
