Adsorption isotherm of Hydrogen on UiO-66 (3:1)
DOI: 10.1039/C4ra06295g
Adsorbate Hydrogen: InChIKey UFHFLCQGNIYNRP-UHFFFAOYSA-N
Temperature: 298 K
Tabular data in the source: 0
pressure (bar)	uptake (g/l)
1.97368	5.72089
3.15789	9.74707
8.28947	13.7663
12.2368	16.0915
20.5263	19.045
30	21.5724
39.8684	22.191
49.7368	23.6577
60	24.2756
79.7368	24.8768
90	24.8587
99.8684	25.2653
109.737	25.0358
120.395	25.441
