Adsorption isotherm of Hydrogen on UiO-67 (4:1)
DOI: 10.1039/C4ra06295g
Adsorbate Hydrogen: InChIKey UFHFLCQGNIYNRP-UHFFFAOYSA-N
Temperature: 298 K
Tabular data in the source: 0
pressure (bar)	uptake (wt%)
0.288193	0.526189
1.80121	1.28868
4.55934	1.76116
7.6219	2.33876
11.614	2.8107
19.6103	3.43877
29.4667	3.82918
40.2537	4.08761
49.8057	4.37289
59.6732	4.47383
80.0233	4.72806
89.5855	4.75018
99.4551	4.79848
109.631	4.89928
120.12	4.89468
