Adsorption isotherm of Hydrogen on UiO-66 (6:1)
DOI: 10.1039/C4ra06295g
Adsorbate Hydrogen: InChIKey UFHFLCQGNIYNRP-UHFFFAOYSA-N
Temperature: 298 K
Tabular data in the source: 0
pressure (bar)	uptake (g/l)
-0.394737	-0.394737
0	23.5336
0.394737	23.1088
1.18421	35.8283
2.36842	40.7025
3.94737	45.3641
8.28947	47.9005
11.8421	48.5303
20.1316	48.9397
29.6053	49.347
41.0526	49.1147
50.1316	49.0987
60.3947	48.6565
79.3421	48.4111
90	47.9682
100.263	47.7381
110.526	47.2959
120.789	47.2778
