Adsorption isotherm of Hydrogen on UiO-68 (4:1)
DOI: 10.1039/C4ra06295g
Adsorbate Hydrogen: InChIKey UFHFLCQGNIYNRP-UHFFFAOYSA-N
Temperature: 298 K
Tabular data in the source: 0
pressure (bar)	uptake (g/l)
3.28554	5.73529
7.26716	7.94118
11.5858	9.70588
19.5637	12.3529
29.5404	15.1471
39.1863	17.6471
49.8358	19.7059
59.8235	21.1765
79.1385	23.3824
89.7953	24.5588
100.121	25.4412
109.451	25.8824
119.444	26.7647
