Adsorption isotherm of Hydrogen on UiO-68 (6:1)
DOI: 10.1039/C4ra06295g
Adsorbate Hydrogen: InChIKey UFHFLCQGNIYNRP-UHFFFAOYSA-N
Temperature: 298 K
Tabular data in the source: 0
pressure (bar)	uptake (g/l)
-0.0281863	3.38235
-0.0183824	2.20588
0.23652	11.6176
0.583333	10
1.54289	14.8529
2.53186	16.1765
2.83701	19.5588
3.49265	20.8824
7.1152	26.1765
11.7598	28.8235
18.7414	31.0294
29.7279	32.6471
39.7206	33.5294
50.3787	34.5588
60.038	35.4412
79.6985	36.1765
89.0294	36.4706
98.6912	37.0588
110.358	37.0588
120.026	36.9118
