Adsorption isotherm of Oxygen on Carbon Molecular Sieve
DOI: 10.1002/cite.201300063
Article source: Figure 1
Adsorbate Oxygen: InChIKey MYMOFIZGZYHOMD-UHFFFAOYSA-N
Kind: experiment
Temperature: 333 K
Tabular data in the source: 0
pressure (bar)	uptake (mmol/g)
0.137615	0.029028
0.321101	0.065312
0.527523	0.097968
0.917431	0.159652
1.42202	0.239478
1.92661	0.312046
2.95872	0.435414
3.96789	0.547896
4.97706	0.645864
7.5	0.852685
10.0229	1.01959
12.5459	1.1611
15.0459	1.28084
17.5688	1.38607
18.578	1.42598
19.5413	1.46226
20.0459	1.48403
