Adsorption isotherm of Oxygen on Carbon Molecular Sieve
DOI: 10.1002/cite.201300063
Article source: Figure 1
Adsorbate Oxygen: InChIKey MYMOFIZGZYHOMD-UHFFFAOYSA-N
Kind: experiment
Temperature: 313 K
Tabular data in the source: 0
pressure (bar)	uptake (mmol/g)
0.527523	0.137881
0.917431	0.239478
1.42202	0.348331
1.92661	0.439042
2.95872	0.605951
3.96789	0.743832
4.97706	0.86357
7.5	1.1103
10.0229	1.30261
12.5229	1.46226
15.0459	1.59652
17.5688	1.70537
18.578	1.74528
19.5642	1.7852
20.0459	1.80334
