Adsorption isotherm of Nitrogen on Carbon Molecular Sieve
DOI: 10.1002/cite.201300063
Article source: Figure 1
Adsorbate Nitrogen: InChIKey IJGRMHOSHXDMSA-UHFFFAOYSA-N
Kind: experiment
Temperature: 333 K
Tabular data in the source: 0
pressure (bar)	uptake (mmol/g)
0.321801	0.076308
0.551592	0.123547
0.9421	0.188953
1.44742	0.268895
1.95267	0.34157
2.98589	0.461483
3.97299	0.555959
4.98296	0.643169
7.5304	0.813953
10.0546	0.952035
12.5556	1.06105
15.0565	1.15552
17.5572	1.23183
18.5666	1.26453
19.5532	1.2936
20.0349	1.30451
