Adsorption isotherm of Oxygen on Carbon Molecular Sieve
DOI: 10.1002/cite.201300063
Article source: Figure 1
Adsorbate Oxygen: InChIKey MYMOFIZGZYHOMD-UHFFFAOYSA-N
Kind: experiment
Temperature: 298 K
Tabular data in the source: 0
pressure (bar)	uptake (mmol/g)
0.206422	0.090711
0.344037	0.145138
0.527523	0.221335
0.940367	0.359216
1.44495	0.500726
1.94954	0.624093
2.98165	0.827286
3.99083	0.997823
5	1.13933
7.52294	1.42598
10.0459	1.64006
12.5459	1.80697
15.0688	1.94848
17.5917	2.06821
18.6009	2.10813
19.6101	2.15167
19.8165	2.15893
