Adsorption isotherm of Nitrogen on Carbon Molecular Sieve
DOI: 10.1002/cite.201300063
Article source: Figure 1
Adsorbate Nitrogen: InChIKey IJGRMHOSHXDMSA-UHFFFAOYSA-N
Kind: experiment
Temperature: 313 K
Tabular data in the source: 0
pressure (bar)	uptake (mmol/g)
0.551992	0.167151
0.942801	0.265262
1.42539	0.367006
1.93081	0.457849
2.96425	0.603198
3.97456	0.726744
4.98467	0.828488
7.48653	1.03198
10.0109	1.18823
12.512	1.31177
15.013	1.41352
17.5137	1.49709
18.5232	1.52616
19.5326	1.55523
19.9915	1.56977
