Adsorption isotherm of Nitrogen on Carbon Molecular Sieve
DOI: 10.1002/cite.201300063
Article source: Figure 1
Adsorbate Nitrogen: InChIKey IJGRMHOSHXDMSA-UHFFFAOYSA-N
Kind: experiment
Temperature: 293 K
Tabular data in the source: 0
pressure (bar)	uptake (mmol/g)
0.552726	0.247093
0.943834	0.377907
1.44965	0.512355
1.97821	0.625
3.01195	0.803052
4.02243	0.944767
5.0327	1.06468
7.53474	1.28634
10.0592	1.44985
12.5604	1.58067
15.0613	1.67878
17.585	1.76599
18.5715	1.79142
20.0398	1.83503
