Adsorption isotherm of Methane on Binderless Beads of Zeolite 5A
DOI: 10.1021/acs.iecr.5b01608
Article source: Figure 2a
Adsorbate Methane: InChIKey VNWKTOKETHGBQD-UHFFFAOYSA-N
Kind: experiment
Temperature: 305 K
Tabular data in the source: 0
pressure (bar)	uptake (mmol/g)
0.03271	0.01519
0.074766	0.04557
0.140187	0.098734
0.21028	0.151899
0.280374	0.197468
0.420561	0.3
0.700935	0.474684
1.05607	0.691139
1.39252	0.86962
2.05607	1.17722
