Adsorption isotherm of Nitrogen on Binderless Beads of Zeolite 5A
DOI: 10.1021/acs.iecr.5b01608
Article source: Figure 2b
Adsorbate Nitrogen: InChIKey IJGRMHOSHXDMSA-UHFFFAOYSA-N
Kind: experiment
Temperature: 363 K
Tabular data in the source: 0
pressure (bar)	uptake (mmol/g)
0.15566	0.007676
0.212264	0.015352
0.292453	0.028145
0.415094	0.046055
0.712264	0.092111
1.05189	0.145842
1.40566	0.212367
2.09906	0.347974
