Adsorption isotherm of Methane on Binderless Beads of Zeolite 5A
DOI: 10.1021/acs.iecr.5b01608
Article source: Figure 2a
Adsorbate Methane: InChIKey VNWKTOKETHGBQD-UHFFFAOYSA-N
Kind: experiment
Temperature: 363 K
Tabular data in the source: 0
pressure (bar)	uptake (mmol/g)
0.028037	0.022785
0.074766	0.03038
0.14486	0.041772
0.219626	0.068354
0.28972	0.083544
0.425234	0.110127
0.705607	0.178481
1.04206	0.258228
1.41121	0.337975
2.09346	0.489873
