Adsorption isotherm of Nitrogen on Binderless Beads of Zeolite 5A
DOI: 10.1021/acs.iecr.5b01608
Article source: Figure 2b
Adsorbate Nitrogen: InChIKey IJGRMHOSHXDMSA-UHFFFAOYSA-N
Kind: experiment
Temperature: 305 K
Tabular data in the source: 0
pressure (bar)	uptake (mmol/g)
0.216981	0.066525
0.306604	0.09467
0.429245	0.143284
0.688679	0.237953
1.06132	0.365885
1.40566	0.486141
2.12264	0.726652
