Adsorption isotherm of Nitrogen on Binderless Beads of Zeolite 5A
DOI: 10.1021/acs.iecr.5b01608
Article source: Figure 2b
Adsorbate Nitrogen: InChIKey IJGRMHOSHXDMSA-UHFFFAOYSA-N
Kind: experiment
Temperature: 333 K
Tabular data in the source: 0
pressure (bar)	uptake (mmol/g)
0.141509	0.015352
0.212264	0.025586
0.278302	0.040938
0.415094	0.071642
0.712264	0.138166
1.07547	0.222601
1.40094	0.296802
2.10849	0.465672
