Adsorption isotherm of Methane on Binderless Beads of Zeolite 5A
DOI: 10.1021/acs.iecr.5b01608
Article source: Figure 2a
Adsorbate Methane: InChIKey VNWKTOKETHGBQD-UHFFFAOYSA-N
Kind: experiment
Temperature: 333 K
Tabular data in the source: 0
pressure (bar)	uptake (mmol/g)
0.079439	0.026582
0.14486	0.056962
0.219626	0.091139
0.308411	0.121519
0.425234	0.163291
0.696262	0.265823
1.03738	0.391139
1.40654	0.512658
2.06075	0.732911
3.00467	1.00253
