Adsorption isotherm of Nitrogen on MPCOF
DOI: 10.1016/j.jhazmat.2016.04.031
Article source: Figure 4A
Adsorbate Nitrogen: InChIKey IJGRMHOSHXDMSA-UHFFFAOYSA-N
Kind: experiment
Temperature: 77 K
Tabular data in the source: 0
pressure (bar)	uptake (cm3(STP)/g)
0.00588	1.15183
0.011759	2.15969
0.023518	2.59162
0.041157	3.16754
0.054876	3.4555
0.064676	3.59948
0.082314	3.88743
0.092114	4.17539
0.099953	4.46335
0.119552	4.89529
0.154829	5.61518
0.190107	6.33508
0.229304	6.911
0.262622	7.19895
0.297899	8.06283
0.333177	8.78272
0.366495	9.21466
0.403732	9.79058
0.44097	10.3665
0.474287	11.0864
0.507605	11.5183
0.546802	12.0942
0.58012	12.3822
0.617357	13.1021
0.650675	13.822
0.685953	14.2539
0.72123	14.9738
0.756508	15.6937
0.791785	16.7016
0.827063	17.5654
0.86626	19.1492
0.895658	20.445
0.934855	23.6126
0.966213	29.2277
1.00149	50.5366
0.047037	3.74345
0.086234	4.60733
0.123471	4.89529
0.156789	5.4712
0.188147	5.90314
0.221465	6.1911
0.258702	6.62304
0.297899	6.911
0.329257	7.63089
0.366495	8.20681
0.399812	8.63874
0.43509	9.21466
0.470368	9.35864
0.505645	9.93456
0.540923	10.7984
0.58012	11.2304
0.615397	11.8063
0.646755	12.5262
0.683993	12.9581
0.71927	13.966
0.754548	14.5419
0.791785	15.6937
0.830983	16.8456
0.8643	18.5733
0.899578	20.877
0.934855	25.6283
0.972093	33.5471
1.00149	50.5366
