Adsorption isotherm of Carbon Dioxide on [Ru2(p-F-PhCO2)4(phz)]
DOI: 10.1039/C2cc36153a
Adsorbate Carbon Dioxide: InChIKey CURLTUGMZLYLDI-UHFFFAOYSA-N
Temperature: 195 K
Tabular data in the source: 0
pressure (bar)	uptake (cm3(STP)/g)
0.00400996	1.56053
0.0127495	52.3589
0.0345982	56.1824
0.106699	63.2832
0.126363	84.5857
0.130733	126.098
0.135102	106.434
0.141657	139.208
0.1788	163.787
0.211573	179.082
0.239976	193.829
0.320817	204.208
0.416951	206.392
0.486867	212.947
0.60485	220.594
0.700985	236.981
0.808044	251.729
0.910733	263.199
0.96317	269.754
