Adsorption isotherm of Oxygen on Rh2(p-F-PhCO2)4(phz)]
DOI: 10.1039/C2cc36153a
Adsorbate Oxygen: InChIKey MYMOFIZGZYHOMD-UHFFFAOYSA-N
Temperature: 90 K
Tabular data in the source: 0
pressure (bar)	uptake (cm3(STP)/g)
0.00400996	22.8631
0.00400996	60.0059
0.0149343	72.5689
0.202833	80.216
0.303338	82.9471
0.408212	84.0395
0.510901	85.132
0.620144	84.5857
0.720649	86.2244
0.810228	87.3168
0.923842	87.3168
0.967539	90.5941
