Adsorption isotherm of Nitric oxide on Rh2(p-F-PhCO2)4(phz)]
DOI: 10.1039/C2cc36153a
Adsorbate Nitric oxide: InChIKey MWUXSHHQAYIFBG-UHFFFAOYSA-N
Temperature: 121 K
Tabular data in the source: 0
pressure (bar)	uptake (cm3(STP)/g)
0.00619484	32.1488
0.00837971	73.6614
0.0433377	76.3925
0.104514	78.0311
0.213758	79.1236
0.312077	80.216
0.410397	81.8547
0.517455	82.9471
0.620144	84.0395
0.718464	84.5857
0.823338	86.2244
0.923842	87.8631
0.960985	97.695
0.965355	111.897
