Adsorption isotherm of Nitrogen on [Ru2(p-F-PhCO2)4(phz)]
DOI: 10.1039/C2cc36153a
Adsorbate Nitrogen: InChIKey IJGRMHOSHXDMSA-UHFFFAOYSA-N
Temperature: 77 K
Tabular data in the source: 0
pressure (bar)	uptake (cm3(STP)/g)
0.00182509	3.19919
0.0433377	4.29163
0.0826654	5.38406
0.108884	5.93028
0.215943	7.02272
0.309892	7.02272
0.414766	7.02272
0.517455	8.66137
0.626699	7.56894
0.718464	9.20759
0.821153	10.3
0.912918	11.3925
0.960985	14.6698
