Adsorption isotherm of Nitrogen on Rh2(p-F-PhCO2)4(phz)]
DOI: 10.1039/C2cc36153a
Adsorbate Nitrogen: InChIKey IJGRMHOSHXDMSA-UHFFFAOYSA-N
Temperature: 120 K
Tabular data in the source: 0
pressure (bar)	uptake (cm3(STP)/g)
0.00619484	8.11516
0.00619484	25.5941
0.0193041	34.8799
0.0935898	49.0815
0.119808	50.7202
0.239976	52.3589
0.705355	53.9975
