Adsorption isotherm of Carbon Dioxide on Rh2(p-F-PhCO2)4(phz)]
DOI: 10.1039/C2cc36153a
Adsorbate Carbon Dioxide: InChIKey CURLTUGMZLYLDI-UHFFFAOYSA-N
Temperature: 195 K
Tabular data in the source: 0
pressure (bar)	uptake (cm3(STP)/g)
0.00619484	8.11516
0.00837971	45.258
0.0258587	54.5437
0.0695562	58.9135
0.106699	61.0984
0.198464	62.737
0.307707	62.737
0.408212	63.8294
0.508716	64.3757
0.611405	65.4681
0.718464	66.5605
0.821153	67.653
0.919472	68.1992
0.976279	69.2916
