Adsorption isotherm of Nitrogen on [Ru2(p-F-PhCO2)4(phz)]
DOI: 10.1039/C2cc36153a
Adsorbate Nitrogen: InChIKey IJGRMHOSHXDMSA-UHFFFAOYSA-N
Temperature: 120 K
Tabular data in the source: 0
pressure (bar)	uptake (cm3(STP)/g)
0.0105646	9.75381
0.0193041	32.695
0.0324133	42.5269
0.0542621	50.174
0.111069	54.5437
0.209388	55.6362
0.314262	56.7286
0.421321	57.2748
0.51964	56.7286
0.622329	58.3673
0.722834	58.3673
0.825523	58.3673
0.930396	58.3673
0.980649	58.3673
