Adsorption isotherm of Nitrogen on Rh2(p-F-PhCO2)4(phz)]
DOI: 10.1039/C2cc36153a
Adsorbate Nitrogen: InChIKey IJGRMHOSHXDMSA-UHFFFAOYSA-N
Temperature: 77 K
Tabular data in the source: 0
pressure (bar)	uptake (cm3(STP)/g)
0.00400996	3.19919
0.0498923	3.74541
0.106699	4.83784
0.207203	5.38406
0.309892	5.38406
0.410397	5.38406
0.513086	4.29163
0.615775	4.29163
0.720649	4.29163
0.816783	4.83784
0.921657	4.29163
0.969724	6.4765
