Adsorption isotherm of Nitric oxide on [Ru2(p-F-PhCO2)4(phz)]
DOI: 10.1039/C2cc36153a
Adsorbate Nitric oxide: InChIKey MWUXSHHQAYIFBG-UHFFFAOYSA-N
Temperature: 121 K
Tabular data in the source: 0
pressure (bar)	uptake (cm3(STP)/g)
0.00182509	19.0395
0.00400996	49.0815
0.0367831	52.3589
0.111069	57.821
0.207203	63.2832
0.307707	67.1068
0.412581	73.1152
0.51964	77.4849
0.615775	81.3084
0.709724	85.6782
0.803674	88.9555
0.901993	94.4177
0.969724	103.157
