Adsorption isotherm of Oxygen on [Ru2(p-F-PhCO2)4(phz)]
DOI: 10.1039/C2cc36153a
Adsorbate Oxygen: InChIKey MYMOFIZGZYHOMD-UHFFFAOYSA-N
Temperature: 90 K
Tabular data in the source: 0
pressure (bar)	uptake (cm3(STP)/g)
0.00619484	31.6026
0.0105646	72.0227
0.0389679	78.0311
0.113254	80.216
0.215943	82.4009
0.314262	82.9471
0.419136	83.4933
0.517455	83.4933
0.622329	85.132
0.714094	86.2244
0.821153	87.3168
0.921657	90.5941
0.965355	95.5101
