Adsorption isotherm of Water on ZIF-8
DOI: 10.1016/j.memsci.2014.11.038
Article source: Figure 2b
Adsorbate Water: InChIKey XLYOFNOQVPJJNP-UHFFFAOYSA-N
Kind: experiment
Temperature: 308 K
Tabular data in the source: 0
pressure (bar)	uptake (cm3(STP)/g)
0	0
1.9e-05	36.5297
2.8e-05	68.4932
3.8e-05	242.009
4.7e-05	259.132
5.6e-05	325.342
6.6e-05	340.183
0.000113	359.589
0.000141	401.826
0.000291	406.393
0.000432	407.534
0.000497	407.534
0.000563	407.534
0.000732	407.534
0.000901	407.534
0.001079	408.676
0.001248	408.676
0.001426	408.676
0.001604	408.676
0.001773	408.676
0.002055	408.676
0.002224	408.676
0.002402	408.676
0.002571	408.676
0.002749	408.676
0.002918	408.676
0.003087	409.817
0.003265	409.817
0.003434	408.676
0.003603	408.676
0.00379	409.817
0.003941	409.817
0.004119	409.817
0.004288	408.676
0.004344	409.817
0.004391	409.817
0.004644	408.676
0.004832	409.817
0.004898	409.817
0.005038	409.817
0.005095	409.817
0.005123	409.817
0.00517	410.959
0.005226	413.242
0.005273	413.242
0.00531	414.384
0.005348	416.667
0.005385	418.95
0.005423	424.658
0.00547	432.648
0.005517	457.763
