Adsorption isotherm of Nitrogen on ZIF-8
DOI: 10.1016/j.memsci.2014.11.038
Article source: Figure 2a
Adsorbate Nitrogen: InChIKey IJGRMHOSHXDMSA-UHFFFAOYSA-N
Kind: experiment
Temperature: 77 K
Tabular data in the source: 0
pressure (bar)	uptake (cm3(STP)/g)
0	0
0.003406	36.5297
0.005109	68.4932
0.006812	242.009
0.008515	259.132
0.010218	325.342
0.011921	340.183
0.020435	359.589
0.025544	401.826
0.052791	406.393
0.078335	407.534
0.090256	407.534
0.102176	407.534
0.132829	407.534
0.163483	407.534
0.195838	408.676
0.226491	408.676
0.258847	408.676
0.291203	408.676
0.321856	408.676
0.372944	408.676
0.403597	408.676
0.435953	408.676
0.466606	408.676
0.498962	408.676
0.529615	408.676
0.560267	409.817
0.592624	409.817
0.623276	408.676
0.653929	408.676
0.687989	409.817
0.715235	409.817
0.747591	409.817
0.778244	408.676
0.788462	409.817
0.796977	409.817
0.842956	408.676
0.877014	409.817
0.888935	409.817
0.914479	409.817
0.924697	409.817
0.929806	409.817
0.93832	410.959
0.948538	413.242
0.957053	413.242
0.963865	414.384
0.970676	416.667
0.977488	418.95
0.9843	424.658
0.992815	432.648
1.00133	457.763
