Adsorption isotherm of Carbon Dioxide on MEN-CuBTTri
DOI: 10.1039/C1sc00354b
Adsorbate Carbon Dioxide: InChIKey CURLTUGMZLYLDI-UHFFFAOYSA-N
Temperature: 318 K
Tabular data in the source: 0
pressure (bar)	uptake (mmol/g)
0.000105301	0.0467538
0.00923142	0.0987493
0.0251144	0.15078
0.0545695	0.228855
0.115592	0.322678
0.17435	0.411295
0.230821	0.484316
0.287291	0.557337
0.348243	0.619991
0.409195	0.682645
0.526548	0.787151
0.637096	0.870842
0.756678	0.96497
0.871731	1.04868
1.04764	1.15349
1.10637	1.22653
