Adsorption isotherm of Nitrogen on CuBTTri-mmen
DOI: 10.1039/C1sc00354b
Adsorbate Nitrogen: InChIKey IJGRMHOSHXDMSA-UHFFFAOYSA-N
Temperature: 318 K
Tabular data in the source: 0
pressure (bar)	uptake (mmol/g)
0.02407	0.00149427
0.0503282	0.00418909
0.0743982	0.00568336
0.100656	0.00747728
0.129103	0.0104717
0.150985	0.0116664
0.172867	0.0131613
0.201313	0.014354
0.253829	0.0173412
0.304158	0.0206294
0.354486	0.0227164
0.402626	0.0260052
0.452954	0.0292934
0.498906	0.031682
0.601751	0.0361556
0.700219	0.0412312
0.798687	0.0454058
0.901532	0.0495791
0.997812	0.0540547
1.10284	0.0591283
