Adsorption isotherm of Carbon Dioxide on Cu-BTTri
DOI: 10.1039/C1sc00354b
Adsorbate Carbon Dioxide: InChIKey CURLTUGMZLYLDI-UHFFFAOYSA-N
Temperature: 313 K
Tabular data in the source: 0
pressure (bar)	uptake (mmol/g)
0.0157174	0.0362468
0.0295311	0.0750551
0.0588884	0.159826
0.117427	0.32181
0.173904	0.469605
0.234158	0.621317
0.290089	0.766475
0.35093	0.894062
0.409641	1.04289
0.461406	1.21648
0.525932	1.34171
0.564856	1.47983
0.636236	1.60949
0.699779	1.72616
0.742679	1.8774
0.788208	1.98551
0.846542	2.12945
0.964931	2.38177
1.02408	2.51893
1.12637	2.62696
