Adsorption isotherm of Carbon Dioxide on CuBTTri-mmen
DOI: 10.1039/C1sc00354b
Adsorbate Carbon Dioxide: InChIKey CURLTUGMZLYLDI-UHFFFAOYSA-N
Temperature: 318 K
Tabular data in the source: 0
pressure (bar)	uptake (mmol/g)
0.00839661	0.151869
0.0271904	0.257009
0.0480724	0.373832
0.0731406	0.537383
0.0961011	0.642523
0.123253	0.806075
0.146223	0.934579
0.175438	1.0514
0.200487	1.16822
0.246417	1.40187
0.40293	2.03271
0.455087	2.20794
0.500974	2.33645
0.598992	2.58178
0.701158	2.78037
0.801222	2.93224
0.899187	3.04907
1.0034	3.16589
1.10345	3.28271
