Adsorption isotherm of Carbon Dioxide on Cu-BTTri
DOI: 10.1039/C1sc00354b
Adsorbate Carbon Dioxide: InChIKey CURLTUGMZLYLDI-UHFFFAOYSA-N
Temperature: 298 K
Tabular data in the source: 0
pressure (bar)	uptake (mmol/g)
0.0103624	0.0449293
0.0112603	0.0489035
0.0123817	0.0539846
0.0134546	0.0587598
0.0170593	0.0757635
0.0187586	0.0813205
0.0203836	0.0897656
0.022414	0.0977102
0.0246462	0.107864
0.0267818	0.117404
0.033556	0.147177
0.0364636	0.160194
0.040095	0.17684
0.044089	0.192494
0.0479082	0.209518
0.0526805	0.23129
0.0652274	0.285881
0.0708794	0.311165
0.0779381	0.343499
0.0857018	0.373906
0.0931258	0.412729
0.102402	0.449264
0.111274	0.488998
0.129838	0.563237
0.141086	0.613052
0.155139	0.676754
0.194384	0.848378
0.213746	0.923477
0.258447	1.10968
0.327691	1.37179
1.20913	4.37267
1.34545	4.62828
1.47946	5.03799
