Adsorption isotherm of Nitrogen on Cu-BTTri
DOI: 10.1039/C1sc00354b
Adsorbate Nitrogen: InChIKey IJGRMHOSHXDMSA-UHFFFAOYSA-N
Temperature: 298 K
Tabular data in the source: 0
pressure (bar)	uptake (mmol/g)
0.0669647	0.0232336
0.131764	0.034474
0.168497	0.0700902
0.233291	0.0693114
0.267848	0.0688961
0.300256	0.092545
0.336968	0.0800845
0.36721	0.0917403
0.406092	0.103292
0.438495	0.114922
0.462258	0.126656
0.501134	0.126188
0.535691	0.125773
0.602656	0.149007
0.669621	0.17224
0.736575	0.171435
0.805694	0.182624
0.872659	0.205857
0.902902	0.217513
0.937464	0.229117
0.972021	0.228702
1.00226	0.240357
1.03467	0.251987
1.06923	0.263591
1.10379	0.263176
