Adsorption isotherm of Nitrogen on MEN-CuBTTri
DOI: 10.1039/C1sc00354b
Adsorbate Nitrogen: InChIKey IJGRMHOSHXDMSA-UHFFFAOYSA-N
Temperature: 77 K
Tabular data in the source: 0
pressure (bar)	uptake (mmol/g)
0.00116531	6.10529
0.00233564	2.23691
0.00277765	4.55271
0.00286304	5.00008
0.00484708	5.39487
0.0049174	5.76329
0.00893068	6.78972
0.0127832	6.97403
0.0204833	7.31634
0.0357981	7.5536
0.0511078	7.76454
0.0702349	7.97559
0.0855245	8.08126
0.0969867	8.13421
0.190603	8.61043
0.249803	8.76992
0.299464	8.95548
0.345298	9.0883
0.391147	9.30007
0.48856	9.67113
0.689104	10.3608
0.78267	10.5738
0.876236	10.7869
0.925892	10.9461
