Adsorption isotherm of Carbon Dioxide on CuBTTri-mmen
DOI: 10.1039/C1sc00354b
Adsorbate Carbon Dioxide: InChIKey CURLTUGMZLYLDI-UHFFFAOYSA-N
Temperature: 308 K
Tabular data in the source: 0
pressure (bar)	uptake (mmol/g)
0.00101972	0.0488562
0.00156308	0.0614724
0.00228944	0.0734159
0.0033566	0.0923698
0.00538691	0.12502
0.00790133	0.160608
0.011596	0.212876
0.0166376	0.276329
0.020867	0.340436
0.0273571	0.415089
0.0392744	0.555925
0.0551201	0.729172
0.0722637	0.889069
0.103722	1.17838
0.148786	1.51377
0.223184	1.96508
0.279469	2.22736
0.366018	2.57793
0.573216	3.11128
1.02569	3.71662
2.04964	4.25904
