Adsorption isotherm of Carbon Dioxide on Cu-BTTri
DOI: 10.1039/C1sc00354b
Adsorbate Carbon Dioxide: InChIKey CURLTUGMZLYLDI-UHFFFAOYSA-N
Temperature: 298 K
Tabular data in the source: 0
pressure (bar)	uptake (mmol/g)
0.0302997	0.143867
0.0584396	0.287759
0.114709	0.551506
0.168803	0.779221
0.229382	1.01888
0.29212	1.25851
0.348374	1.4862
0.404612	1.67783
0.467346	1.90544
0.523589	2.10909
0.581987	2.3007
0.638226	2.49233
0.700943	2.68388
0.757171	2.85148
0.811239	3.0191
0.873952	3.19863
0.930185	3.37824
0.986413	3.54584
1.04696	3.71338
1.10318	3.86895
