Adsorption isotherm of Carbon Dioxide on CuBTTri-mmen
DOI: 10.1039/C1sc00354b
Adsorbate Carbon Dioxide: InChIKey CURLTUGMZLYLDI-UHFFFAOYSA-N
Temperature: 298 K
Tabular data in the source: 0
pressure (bar)	uptake (mmol/g)
0.00033539	0.049823
0.000589549	0.0748462
0.00096801	0.104524
0.00162585	0.149045
0.00254877	0.1895
0.00437099	0.251215
0.00733111	0.333021
0.0109903	0.419004
0.0150671	0.516263
0.0236439	0.691495
0.0354593	0.888353
0.0486127	1.09456
0.0697333	1.40609
0.102219	1.75075
0.133929	2.06897
0.214722	2.65818
0.314245	3.04505
0.503002	3.59934
1.09936	4.25604
1.75582	4.48601
