Adsorption isotherm of Carbon Dioxide on Cu-BTTri
DOI: 10.1039/C1sc00354b
Adsorbate Carbon Dioxide: InChIKey CURLTUGMZLYLDI-UHFFFAOYSA-N
Temperature: 318 K
Tabular data in the source: 0
pressure (bar)	uptake (mmol/g)
0.0102409	0.024494
0.0112637	0.0266397
0.0122422	0.0289741
0.0134648	0.0319566
0.0170828	0.0405415
0.0185665	0.0440941
0.0204211	0.0486329
0.0221947	0.0528932
0.0244118	0.0575281
0.026532	0.0634498
0.03287	0.0782744
0.0357248	0.0851314
0.0392934	0.0938945
0.0432175	0.102122
0.046971	0.111069
0.051663	0.122503
0.0647694	0.153253
0.0703963	0.16668
0.0774266	0.183839
0.0851589	0.199946
0.0925572	0.217463
0.101801	0.23985
0.127627	0.300057
0.138714	0.326346
0.152568	0.359941
0.191273	0.444034
0.207888	0.482938
0.257545	0.587485
0.319063	0.72474
1.20973	2.48392
1.33055	2.70154
1.46344	2.93822
1.6096	3.15123
1.77036	3.42731
1.94718	3.7276
