Adsorption isotherm of Carbon Dioxide on Cu-BTTri
DOI: 10.1039/C1sc00354b
Adsorbate Carbon Dioxide: InChIKey CURLTUGMZLYLDI-UHFFFAOYSA-N
Temperature: 308 K
Tabular data in the source: 0
pressure (bar)	uptake (mmol/g)
0.0157174	0.0440941
0.0298848	0.0925913
0.0595923	0.183839
0.116038	0.359941
0.171847	0.525249
0.234158	0.704732
0.283267	0.86938
0.35093	1.04289
0.404795	1.1829
0.472519	1.32306
0.525932	1.52185
0.571618	1.65518
0.621272	1.82557
0.760566	2.09985
0.826633	2.25208
0.898439	2.48392
1.11304	2.93822
