Adsorption isotherm of Carbon Dioxide on CuBTTri-mmen
DOI: 10.1039/C1sc00354b
Adsorbate Carbon Dioxide: InChIKey CURLTUGMZLYLDI-UHFFFAOYSA-N
Temperature: 318 K
Tabular data in the source: 0
pressure (bar)	uptake (mmol/g)
0.0031022	0.0494311
0.00464879	0.0609102
0.00712869	0.0782528
0.0106977	0.103722
0.0140249	0.126467
0.0175865	0.154191
0.0246922	0.206502
0.0338719	0.262513
0.043455	0.330233
0.0609762	0.428657
0.0837298	0.574068
0.11488	0.73742
0.157684	0.967204
0.202259	1.2041
0.265109	1.45293
0.339845	1.75313
0.465719	2.11551
0.624047	2.52629
0.934777	3.04881
1.25156	3.49218
1.79171	4.04223
2.19067	4.21522
