Adsorption isotherm of Carbon Dioxide on CuBTTri-mmen
DOI: 10.1039/C1sc00354b
Adsorbate Carbon Dioxide: InChIKey CURLTUGMZLYLDI-UHFFFAOYSA-N
Temperature: 308 K
Tabular data in the source: 0
pressure (bar)	uptake (mmol/g)
0.0126071	0.257009
0.0272683	0.443925
0.0419539	0.689252
0.0774825	0.957944
0.0900506	1.1215
0.121393	1.34346
0.146476	1.54206
0.171568	1.76402
0.19873	1.95093
0.246763	2.23131
0.303096	2.42991
0.351085	2.60514
0.405311	2.74533
0.455359	2.86215
0.494986	2.96729
0.601314	3.15421
0.697201	3.28271
0.799348	3.43458
0.897323	3.57477
1.0057	3.66822
1.10158	3.78505
