Adsorption isotherm of Carbon Dioxide on Cu-BTTri
DOI: 10.1039/C1sc00354b
Adsorbate Carbon Dioxide: InChIKey CURLTUGMZLYLDI-UHFFFAOYSA-N
Temperature: 313 K
Tabular data in the source: 0
pressure (bar)	uptake (mmol/g)
0.0108688	0.0297961
0.0118127	0.0324071
0.0129927	0.0357429
0.0141211	0.038875
0.0177035	0.0486329
0.0192415	0.0528932
0.0211631	0.0583391
0.0230017	0.0634498
0.0252988	0.069981
0.03287	0.091304
0.0361526	0.0993025
0.0392934	0.108003
0.0432175	0.119121
0.046971	0.129557
0.051663	0.140908
0.0647694	0.183839
0.0703963	0.191723
0.0765103	0.208521
0.0841511	0.229986
0.0914619	0.250136
0.100597	0.275886
0.127627	0.359941
0.138714	0.375377
0.150763	0.408265
0.191273	0.517948
0.210376	0.563326
0.263748	0.704732
0.319063	0.845379
1.20973	2.89738
1.33055	3.06423
1.46344	3.3327
1.6096	3.5743
1.79155	3.88746
1.97049	4.22805
