Adsorption isotherm of Carbon Dioxide on Cu-BTTri
DOI: 10.1039/C1sc00354b
Adsorbate Carbon Dioxide: InChIKey CURLTUGMZLYLDI-UHFFFAOYSA-N
Temperature: 318 K
Tabular data in the source: 0
pressure (bar)	uptake (mmol/g)
0.0153479	0.0306422
0.0302427	0.069981
0.0581916	0.142894
0.117427	0.283719
0.173904	0.419856
0.231388	0.555496
0.290089	0.685277
0.346778	0.822041
0.404795	0.945549
0.455948	1.08761
0.525932	1.19957
0.578461	1.34171
0.643852	1.47983
0.699779	1.58711
0.760566	1.67851
0.807192	1.82557
0.866931	1.9307
0.931091	2.04188
1	2.12945
1.04875	2.28383
1.09988	2.38177
