Adsorption isotherm of Carbon Dioxide on CuBTTri-mmen
DOI: 10.1039/C1sc00354b
Adsorbate Carbon Dioxide: InChIKey CURLTUGMZLYLDI-UHFFFAOYSA-N
Temperature: 298 K
Tabular data in the source: 0
pressure (bar)	uptake (mmol/g)
0.00437155	0.12014
0.00659886	0.276363
0.0132081	0.576764
0.026276	0.829011
0.0480507	1.2374
0.0741554	1.66978
0.108884	2.066
0.128384	2.21
0.152215	2.37798
0.18035	2.50985
0.201995	2.61776
0.251733	2.7614
0.303636	2.91702
0.355529	3.04861
0.405256	3.16821
0.457139	3.27576
0.504696	3.37134
0.604125	3.55043
0.699225	3.70554
0.802958	3.84852
0.902372	3.99156
1.00394	4.12255
1.10335	4.26558
