Adsorption isotherm of Carbon Dioxide on Cu-BTTri
DOI: 10.1039/C1sc00354b
Adsorbate Carbon Dioxide: InChIKey CURLTUGMZLYLDI-UHFFFAOYSA-N
Temperature: 303 K
Tabular data in the source: 0
pressure (bar)	uptake (mmol/g)
0.0159056	0.0493185
0.0298848	0.102122
0.0595923	0.208521
0.118832	0.408265
0.171847	0.61268
0.231388	0.810615
0.286658	0.9861
0.346778	1.16646
0.404795	1.37981
0.461406	1.52185
0.513563	1.67851
0.558174	1.82557
0.621272	1.98551
0.691501	2.18991
0.742679	2.38177
0.797643	2.55444
0.866931	2.73962
1.11304	3.28637
