Adsorption isotherm of Carbon Dioxide on Cu-BTTri
DOI: 10.1039/C1sc00354b
Adsorbate Carbon Dioxide: InChIKey CURLTUGMZLYLDI-UHFFFAOYSA-N
Temperature: 308 K
Tabular data in the source: 0
pressure (bar)	uptake (mmol/g)
0.0102409	0.032864
0.0112637	0.0357429
0.0122422	0.038875
0.0134648	0.0428766
0.0168807	0.0536389
0.0183472	0.0583391
0.0201795	0.0643443
0.0219326	0.069981
0.0241229	0.0771863
0.026218	0.0839479
0.0332629	0.106502
0.0365856	0.115832
0.0397631	0.127756
0.0437351	0.138949
0.0475335	0.151123
0.0522817	0.16668
0.0655451	0.208521
0.0712377	0.22679
0.0783538	0.250136
0.0861787	0.272051
0.0936656	0.295886
0.10302	0.326346
0.130701	0.41402
0.143755	0.450293
0.156242	0.489745
0.193563	0.604164
0.212895	0.657096
0.266905	0.810615
1.23886	3.24069
1.3626	3.52462
1.49869	3.83343
1.64837	4.11133
1.8347	4.47153
