Adsorption isotherm of Carbon Dioxide on MEN-CuBTTri
DOI: 10.1039/C1sc00354b
Adsorbate Carbon Dioxide: InChIKey CURLTUGMZLYLDI-UHFFFAOYSA-N
Temperature: 308 K
Tabular data in the source: 0
pressure (bar)	uptake (mmol/g)
0.0116124	0.155904
0.027507	0.21313
0.0547333	0.301583
0.113608	0.442149
0.172402	0.54635
0.231148	0.629772
0.29217	0.723596
0.348629	0.791421
0.407341	0.859259
0.407352	0.864454
0.4638	0.927085
0.52474	0.984544
0.581199	1.05237
0.642151	1.11502
0.700816	1.16208
0.755022	1.2299
0.815951	1.28216
0.872375	1.3344
0.931063	1.39185
0.987487	1.44409
1.04617	1.50154
1.1071	1.5538
