Adsorption isotherm of Nitrogen on CuBTTri-mmen
DOI: 10.1039/C1sc00354b
Adsorbate Nitrogen: InChIKey IJGRMHOSHXDMSA-UHFFFAOYSA-N
Temperature: 298 K
Tabular data in the source: 0
pressure (bar)	uptake (mmol/g)
0.0237632	0.0117336
0.049681	0.0114221
0.0756039	0.0231298
0.0972021	0.0228702
0.125275	0.0105135
0.149038	0.0222471
0.174961	0.0339548
0.200884	0.0456625
0.250554	0.0330462
0.300235	0.0444683
0.349916	0.0558904
0.451422	0.0426512
0.503263	0.0540473
0.60478	0.0648464
0.701971	0.0636782
0.805648	0.0744513
0.902845	0.0853023
1.00436	0.0840823
1.10371	0.0949073
