Adsorption isotherm of Nitrogen on CuBTTri-mmen
DOI: 10.1039/C1sc00354b
Adsorbate Nitrogen: InChIKey IJGRMHOSHXDMSA-UHFFFAOYSA-N
Temperature: 77 K
Tabular data in the source: 0
pressure (bar)	uptake (mmol/g)
8.54e-05	0.447371
0.000231052	1.21053
0.000612791	3.21054
0.00130595	6.84214
0.00306898	6.07903
0.00328998	7.23693
0.00526398	7.57909
0.00532927	7.9212
0.00921196	8.26341
0.0188509	8.76367
0.0303432	8.97451
0.0418305	9.15903
0.0571252	9.29102
0.0972479	9.50263
0.19654	9.71585
0.250004	9.82256
0.299635	9.85022
0.343545	9.90404
0.389358	9.9316
0.437076	9.93289
0.484803	9.98682
0.536348	10.0408
0.584065	10.0421
0.631788	10.0697
0.685246	10.1501
0.729141	10.125
0.778777	10.179
0.824601	10.2592
0.879973	10.3659
0.925797	10.4461
