Adsorption isotherm of Carbon Dioxide on Cu-BTTri
DOI: 10.1039/C1sc00354b
Adsorbate Carbon Dioxide: InChIKey CURLTUGMZLYLDI-UHFFFAOYSA-N
Temperature: 303 K
Tabular data in the source: 0
pressure (bar)	uptake (mmol/g)
0.0101198	0.0378016
0.0109987	0.0411131
0.0120973	0.0453451
0.013148	0.0493185
0.0144614	0.0536389
0.0155314	0.0575281
0.0168807	0.0625677
0.0185665	0.0690097
0.0201795	0.0750551
0.0221947	0.0827809
0.0241229	0.0900347
0.026532	0.0993025
0.0309713	0.115832
0.0340643	0.125981
0.0370237	0.137018
0.0407211	0.151123
0.0442578	0.164363
0.0486788	0.181284
0.0624986	0.233228
0.0687401	0.253662
0.0747119	0.275886
0.0821732	0.304287
0.08931	0.330946
0.0982313	0.359941
0.124626	0.45664
0.137073	0.496648
0.14898	0.540161
0.184565	0.666359
0.200598	0.72474
0.254498	0.906665
0.311559	1.10294
1.18128	3.5743
1.29926	3.83343
1.44613	4.16928
1.59056	4.47153
1.74942	4.86329
