Adsorption isotherm of Carbon Dioxide on MEN-CuBTTri
DOI: 10.1039/C1sc00354b
Adsorbate Carbon Dioxide: InChIKey CURLTUGMZLYLDI-UHFFFAOYSA-N
Temperature: 298 K
Tabular data in the source: 0
pressure (bar)	uptake (mmol/g)
0.00493746	0.192233
0.014087	0.254619
0.0278113	0.348196
0.0551194	0.473014
0.116305	0.639565
0.172846	0.743755
0.227135	0.847933
0.290386	0.931379
0.349132	1.0148
0.410119	1.09304
0.466579	1.16087
0.52529	1.2287
0.581761	1.30172
0.640472	1.36956
0.69916	1.42701
0.760124	1.49486
0.818823	1.5575
0.875271	1.62013
0.931718	1.68276
0.990429	1.7506
1.04689	1.81843
1.10782	1.87069
