Adsorption isotherm of Nitrogen on CuBTTri-mmen
DOI: 10.1039/C1sc00354b
Adsorbate Nitrogen: InChIKey IJGRMHOSHXDMSA-UHFFFAOYSA-N
Temperature: 308 K
Tabular data in the source: 0
pressure (bar)	uptake (mmol/g)
0.02407	0.00209487
0.0503282	0.00418909
0.0787746	0.00688325
0.105033	0.00957807
0.126915	0.0113733
0.150985	0.0131679
0.175055	0.015563
0.201313	0.0176573
0.245077	0.0212477
0.301969	0.0248342
0.354486	0.0287224
0.402626	0.0317109
0.450766	0.0343992
0.498906	0.0379883
0.603939	0.0445634
0.704595	0.0499386
0.796499	0.0547158
0.901532	0.0591887
1.00219	0.0648642
1.09847	0.0708413
