Adsorption isotherm of Nitrogen on C16H12O16P2Zn3
DOI: 10.1039/c2cc37174j
Adsorbate Nitrogen: InChIKey IJGRMHOSHXDMSA-UHFFFAOYSA-N
Temperature: 298 K
Tabular data in the source: 0
pressure (bar)	uptake (mmol/g)
0.00858369	0.0226649
0.0257511	0.0311642
0.0300429	0.0396636
0.0429185	0.0519404
0.0600858	0.0604397
0.0729614	0.0679947
0.0987124	0.0755496
0.120172	0.0821602
0.145923	0.0878264
0.171674	0.0934927
0.201717	0.100103
0.248927	0.106714
0.296137	0.11238
0.347639	0.118991
0.399142	0.122768
0.450644	0.128434
0.493562	0.133156
0.545064	0.137878
0.600858	0.1426
0.648069	0.147322
0.699571	0.150155
0.746781	0.154877
0.798283	0.158654
0.849785	0.162432
0.896996	0.166209
0.944206	0.169987
0.991416	0.173764
