Adsorption isotherm of Carbon Dioxide on C20H27NO19P2Zn3
DOI: 10.1039/c2cc37174j
Adsorbate Carbon Dioxide: InChIKey CURLTUGMZLYLDI-UHFFFAOYSA-N
Temperature: 298 K
Tabular data in the source: 0
pressure (bar)	uptake (mmol/g)
0.0215167	0.180775
0.0343148	0.241033
0.0428701	0.291248
0.0642003	0.391678
0.0769751	0.441894
0.0982819	0.532281
0.119589	0.622668
0.149311	0.703012
0.170595	0.783357
0.204513	0.853658
0.25116	0.954088
0.297806	1.05452
0.348649	1.14491
0.399468	1.22525
0.450265	1.29555
0.501037	1.35581
0.551787	1.40602
0.60256	1.46628
0.653286	1.50646
0.699793	1.54663
0.750542	1.59684
0.801245	1.62697
0.851971	1.66714
0.902697	1.70732
0.949181	1.73745
0.995664	1.76757
