Adsorption isotherm of Nitrogen on C20H27NO19P2Zn3
DOI: 10.1039/c2cc37174j
Adsorbate Nitrogen: InChIKey IJGRMHOSHXDMSA-UHFFFAOYSA-N
Temperature: 298 K
Tabular data in the source: 0
pressure (bar)	uptake (mmol/g)
0	0.0094437
0.00858369	0.0132212
0.0257511	0.0160543
0.0343348	0.0207761
0.0429185	0.0245536
0.0600858	0.0311642
0.0729614	0.0339973
0.0944206	0.0396636
0.124464	0.0462741
0.145923	0.050996
0.171674	0.0547735
0.197425	0.0594953
0.248927	0.0661059
0.296137	0.0736609
0.343348	0.0802715
0.399142	0.0868821
0.446352	0.0925483
0.493562	0.0982145
0.549356	0.102936
0.596567	0.110491
0.648069	0.116158
0.699571	0.122768
0.742489	0.12749
0.798283	0.132212
0.845494	0.138822
0.896996	0.144489
0.948498	0.150155
0.995708	0.154877
