Adsorption isotherm of Carbon Dioxide on C16H12O16P2Zn3
DOI: 10.1039/c2cc37174j
Adsorbate Carbon Dioxide: InChIKey CURLTUGMZLYLDI-UHFFFAOYSA-N
Temperature: 298 K
Tabular data in the source: 0
pressure (bar)	uptake (mmol/g)
0.0169476	0.0301291
0.0339418	0.0803443
0.0466699	0.110473
0.0721029	0.160689
0.101732	0.200861
0.122922	0.241033
0.152505	0.261119
0.177868	0.281205
0.203231	0.301291
0.249738	0.341463
0.300417	0.361549
0.346877	0.381635
0.39758	0.411764
0.448236	0.421807
0.498916	0.441894
0.549572	0.451937
0.600252	0.472023
0.646689	0.482066
0.697345	0.492109
0.748001	0.502152
0.798681	0.522238
0.849313	0.522238
0.899946	0.522238
0.950626	0.542324
1.00128	0.552367
