Adsorption isotherm of Carbon Dioxide on C20H27NO19P2Zn3
DOI: 10.1039/c2cc37174j
Adsorbate Carbon Dioxide: InChIKey CURLTUGMZLYLDI-UHFFFAOYSA-N
Temperature: 298 K
Tabular data in the source: 0
pressure (bar)	uptake (mmol/g)
0.156699	0.71969
0.164398	0.397797
0.235955	1.04167
0.240031	0.871251
0.406241	1.19331
0.490025	1.32594
0.658047	1.57225
0.660764	1.45864
0.915287	1.72398
1.17389	1.8189
1.43203	1.93276
1.77713	2.0467
2.20919	2.16072
2.6417	2.2558
3.24811	2.35105
3.85499	2.42737
4.2884	2.48459
4.72181	2.5418
5.24263	2.58017
6.02341	2.65665
6.54424	2.69501
7.06415	2.77124
7.58452	2.82854
7.93143	2.86674
8.27789	2.92387
8.79781	3.00011
9.14472	3.03831
9.57813	3.09552
9.83809	3.13364
10.9667	3.21045
11.9223	3.24922
13.92	3.34579
15.9177	3.44236
18.0032	3.50114
19.8279	3.55967
