Adsorption isotherm of Carbon Dioxide on C21H31NO20P2Zn3
DOI: 10.1039/c2cc37174j
Adsorbate Carbon Dioxide: InChIKey CURLTUGMZLYLDI-UHFFFAOYSA-N
Temperature: 298 K
Tabular data in the source: 0
pressure (bar)	uptake (mmol/g)
0.012938	0.120516
0.0218663	0.33142
0.0350607	0.56241
0.0479288	0.652797
0.0609134	0.7934
0.0737348	0.863701
0.099331	0.984217
0.124834	1.06456
0.150314	1.13486
0.17577	1.19512
0.20118	1.23529
0.251999	1.31564
0.302795	1.38594
0.349325	1.43615
0.404294	1.48637
0.450801	1.52654
0.501527	1.56671
0.556449	1.59684
0.602956	1.63701
0.653659	1.66714
0.700142	1.69727
0.750845	1.7274
0.801525	1.74749
0.852204	1.76757
0.902907	1.7977
0.95361	1.82783
1.00005	1.83788
