Adsorption isotherm of Carbon Dioxide on C21H31NO20P2Zn3
DOI: 10.1039/c2cc37174j
Adsorbate Carbon Dioxide: InChIKey CURLTUGMZLYLDI-UHFFFAOYSA-N
Temperature: 298 K
Tabular data in the source: 0
pressure (bar)	uptake (mmol/g)
0.0602341	1.11724
0.072915	0.587064
0.143566	1.2688
0.22735	1.40143
0.398542	1.5152
0.656235	1.64799
0.740925	1.74275
0.913476	1.79972
1.08557	1.87562
1.34417	1.97054
1.60277	2.06547
1.94923	2.1226
2.29478	2.2176
2.72775	2.29375
3.16025	2.38884
3.50626	2.46491
3.93968	2.52213
4.37309	2.57934
4.8065	2.63656
5.23992	2.69377
5.84679	2.77009
6.2802	2.82731
6.62666	2.88444
6.88526	2.97936
7.14477	3.03641
7.66513	3.09371
8.09945	3.11306
8.53377	3.1324
8.96809	3.15175
9.48982	3.15225
9.75068	3.15249
10.8797	3.21037
11.9227	3.23029
13.9213	3.28899
15.8334	3.32867
18.0059	3.38753
19.8311	3.42713
