Adsorption isotherm of Carbon Dioxide on C16H12O16P2Zn3
DOI: 10.1039/c2cc37174j
Adsorbate Carbon Dioxide: InChIKey CURLTUGMZLYLDI-UHFFFAOYSA-N
Temperature: 298 K
Tabular data in the source: 0
pressure (bar)	uptake (mmol/g)
0.252259	0.36001
0.510858	0.454931
0.85777	0.49313
1.11682	0.569117
1.63719	0.626415
2.07106	0.664697
2.59188	0.70306
3.1127	0.741424
3.63398	0.760853
4.1548	0.799216
4.50262	0.799546
5.02389	0.818975
5.45821	0.838321
5.80558	0.857585
6.3273	0.858079
6.84858	0.877508
7.19594	0.896772
7.54331	0.916036
7.97853	0.897513
8.41285	0.91686
8.93503	0.898419
9.36935	0.917765
9.71717	0.918095
10.9341	0.938182
11.9771	0.958105
13.8896	0.978851
15.9765	0.980827
17.8891	1.00157
19.8021	1.00338
