Adsorption isotherm of Nitrogen on C21H31NO20P2Zn3
DOI: 10.1039/c2cc37174j
Adsorbate Nitrogen: InChIKey IJGRMHOSHXDMSA-UHFFFAOYSA-N
Temperature: 298 K
Tabular data in the source: 0
pressure (bar)	uptake (mmol/g)
0.0170044	0.00374163
0.0340314	0.00654383
0.0382375	0.00935808
0.0467172	0.0121683
0.0765424	0.0158979
0.102094	0.0196315
0.127713	0.0205468
0.15331	0.0224016
0.17461	0.0251998
0.204526	0.0251717
0.251423	0.0298246
0.302661	0.0316553
0.349603	0.0344294
0.400841	0.03626
0.447761	0.0399736
0.494703	0.0427477
0.550215	0.0445743
0.597134	0.0482879
0.648328	0.0519974
0.699566	0.053828
0.750737	0.058477
0.797679	0.0612511
0.844598	0.0649646
0.895837	0.0667953
0.947052	0.0695653
0.993994	0.0723394
