Adsorption isotherm of Methane on Zn(tbip)
DOI: 10.1080/08927022.2011.561431
Adsorbate Methane: InChIKey VNWKTOKETHGBQD-UHFFFAOYSA-N
Temperature: 298 K
Tabular data in the source: 0
pressure (bar)	uptake (wt%)
0.404455	0.458213
1.08797	0.813038
1.90915	1.19745
2.72999	1.59664
4.10486	1.96638
5.61841	2.32138
7.96132	2.70611
10.9963	3.07621
14.7246	3.37257
18.3156	3.62456
21.4937	3.78779
25.5014	3.96597
28.4042	4.07004
32.1373	4.15949
36.0081	4.27854
38.9125	4.30871
42.923	4.36867
45.8271	4.41362
50.1149	4.44408
53.8491	4.4892
57.3079	4.47515
61.042	4.52028
64.3618	4.53576
69.4804	4.53684
