Adsorption isotherm of Hydrogen on Zn(tbip)
DOI: 10.1080/08927022.2011.561431
Adsorbate Hydrogen: InChIKey UFHFLCQGNIYNRP-UHFFFAOYSA-N
Temperature: 77 K
Tabular data in the source: 0
pressure (bar)	uptake (wt%)
1.78e-15	1.78e-15
0.214286	0.229954
0.285714	0.327245
0.357143	0.471709
0.428571	0.524774
0.571429	0.589624
0.714286	0.636785
0.857143	0.666255
1.21429	0.704549
1.5	0.72516
1.71429	0.748726
2.28571	0.784051
2.64286	0.795809
3.14286	0.804605
3.71429	0.807497
4.14286	0.8163
4.64286	0.8192
6	0.83086
7.07143	0.836651
7.42857	0.821874
8.71429	0.8188
9.42857	0.806936
9.71429	0.815753
11.1429	0.827406
12.1429	0.815514
13.6429	0.806522
14.4286	0.800548
17.2857	0.77668
18.7143	0.761797
19.2143	0.755851
22	0.73199
24	0.731794
24.8571	0.728761
27.2857	0.734419
28.8571	0.716574
31.7143	0.707448
33.4286	0.733815
