Adsorption isotherm of Hydrogen on Zn(tbip)
DOI: 10.1080/08927022.2011.561431
Adsorbate Hydrogen: InChIKey UFHFLCQGNIYNRP-UHFFFAOYSA-N
Temperature: 77 K
Tabular data in the source: 0
pressure (bar)	uptake (wt%)
0.142857	0.713499
0.285714	0.790144
1.28571	0.857859
1.78571	0.860758
3.14286	0.881264
3.5	0.887125
5.07143	0.892868
5.57143	0.892819
6.5	0.889779
7.07143	0.892671
8.42857	0.889589
9	0.883636
10.2857	0.880562
10.7857	0.883461
12	0.877445
12.5714	0.871492
14.0714	0.865448
16.1429	0.865244
17.8571	0.853282
19.6429	0.850158
21.1429	0.844114
23.2857	0.835058
25	0.823096
26.7857	0.817024
28.3571	0.813921
30	0.807862
30.4286	0.804872
31.7857	0.798842
32.1429	0.798807
33.8571	0.786845
34.3571	0.789744
