Adsorption isotherm of Hydrogen on Zn(tbip)
DOI: 10.1080/08927022.2011.561431
Adsorbate Hydrogen: InChIKey UFHFLCQGNIYNRP-UHFFFAOYSA-N
Temperature: 298 K
Tabular data in the source: 0
pressure (bar)	uptake (wt%)
1.71806	0.0040201
4.36123	0.0100503
6.74009	0.0211055
8.59031	0.0246231
10.1762	0.0271357
14.141	0.0417085
18.37	0.0552764
28.1498	0.0849246
40.9692	0.125126
52.467	0.163317
62.2467	0.188442
