Adsorption isotherm of Methane on Zn(tbip)
DOI: 10.1080/08927022.2011.561431
Adsorbate Methane: InChIKey VNWKTOKETHGBQD-UHFFFAOYSA-N
Temperature: 298 K
Tabular data in the source: 0
pressure (bar)	uptake (wt%)
0.129139	0.399042
0.252486	1.04931
0.514172	1.69962
0.520305	1.43361
0.777221	2.2908
0.784036	1.99524
1.04061	2.86721
1.0464	2.61598
1.44575	3.29587
1.45052	3.08898
1.85531	3.53241
2.1279	3.70981
2.39981	3.91676
2.66899	4.24194
3.49324	4.49335
4.45582	4.74478
5.69542	4.9815
7.07506	5.14435
8.59305	5.30723
10.5278	5.39631
12.6015	5.45586
14.3985	5.51536
17.3023	5.57508
19.791	5.63472
22.8352	5.60581
25.6016	5.62117
27.8144	5.65119
32.2412	5.65213
36.9454	5.62356
39.5742	5.60934
42.7567	5.58046
45.3845	5.61057
48.0143	5.55201
51.0577	5.55265
54.3786	5.5238
57.6987	5.5245
61.8503	5.46626
64.4794	5.43726
67.6612	5.43793
69.7366	5.42359
69.8753	5.40884
