Adsorption isotherm of Hydrogen on Zn(tbip)
DOI: 10.1080/08927022.2011.561431
Adsorbate Hydrogen: InChIKey UFHFLCQGNIYNRP-UHFFFAOYSA-N
Temperature: 298 K
Tabular data in the source: 0
pressure (bar)	uptake (wt%)
0.528634	0.00100503
2.51101	0.00753769
4.49339	0.0135678
5.94714	0.0175879
7.6652	0.0221106
10.5727	0.0311558
12.1586	0.0351759
13.2159	0.038191
15.1982	0.0437186
16.5198	0.0472362
17.7093	0.0502513
19.5595	0.0547739
21.1454	0.058794
22.467	0.061809
23.6564	0.0653266
25.1101	0.0673367
26.4317	0.0708543
27.6211	0.0738693
29.207	0.0768844
30.9251	0.0809045
32.1145	0.0844221
33.7004	0.0869347
35.1542	0.0899497
37.2687	0.0944724
39.1189	0.0979899
40.837	0.101508
42.4229	0.10402
44.2731	0.107538
45.7269	0.11005
47.4449	0.113065
49.2952	0.11608
50.8811	0.118593
52.467	0.121608
54.5815	0.125126
56.5639	0.127638
58.2819	0.130653
60.793	0.134673
62.6432	0.137688
