Adsorption isotherm of Hydrogen on Zn(tbip)
DOI: 10.1080/08927022.2011.561431
Adsorbate Hydrogen: InChIKey UFHFLCQGNIYNRP-UHFFFAOYSA-N
Temperature: 77 K
Tabular data in the source: 0
pressure (bar)	uptake (wt%)
1.78e-15	1.78e-15
0.0714286	0.527757
0.142857	0.807848
0.357143	0.85795
0.857143	0.890333
2	0.907912
3.57143	0.916602
5.14286	0.916448
6.64286	0.913352
8.42857	0.910228
10.7143	0.901158
12.2857	0.895107
14.2857	0.889014
16.1429	0.882934
18.1429	0.873893
19.6429	0.867848
22.1429	0.858757
24	0.846781
26.5714	0.837683
30.1429	0.82259
32.8571	0.813478
34.8571	0.804437
