Adsorption isotherm of Xenon on Zn(tbip)
DOI: 10.1080/08927022.2011.561431
Adsorbate Xenon: InChIKey FHNFHKCVQCLJFQ-UHFFFAOYSA-N
Temperature: 298 K
Tabular data in the source: 0
pressure (bar)	uptake (wt%)
0	17.5854
0.108225	14.3415
0.21645	18.1829
0.541126	22.7073
1.08225	23.4756
2.92208	24.0732
4.65368	24.5854
6.38528	24.6707
8.22511	25.0122
10.1732	25.439
14.1775	26.0366
18.0736	26.7195
26.2987	27.7439
30.4113	28.0854
34.632	28.5976
38.4199	28.6829
43.3983	28.8537
48.1602	28.8537
52.381	28.7683
