Adsorption isotherm of Carbon Tetrafluoride on Zn(tbip)
DOI: 10.1080/08927022.2011.561431
Adsorbate Carbon Tetrafluoride: InChIKey TXEYQDLBPFQVAA-UHFFFAOYSA-N
Temperature: 298 K
Tabular data in the source: 0
pressure (bar)	uptake (wt%)
0.108225	0.108225
0.21645	2.04878
1.19048	6.57317
3.0303	6.57317
4.87013	6.57317
6.49351	6.40244
8.33333	6.31707
10.1732	6.31707
18.1818	5.89024
26.2987	5.54878
34.8485	5.12195
