Adsorption isotherm of Nitrogen on cTNT
DOI: 10.1039/c5ra25064a
Article source: Figure 3
Adsorbate Nitrogen: InChIKey IJGRMHOSHXDMSA-UHFFFAOYSA-N
Kind: experiment
Temperature: 77 K
Tabular data in the source: 0
pressure (bar)	uptake (cm3(STP)/g)
0.029901	37.79
0.066885	42.16
0.080067	43.5
0.120982	47.03
0.14144	48.37
0.163113	50.14
0.182669	52.07
0.659585	95.59
0.683984	97.82
0.710815	103.15
0.758934	113.34
0.808847	126.3
0.833499	138.05
0.861121	154.13
0.88475	175.68
0.909726	212.03
0.934237	273.47
0.967015	413.35
0.986146	564
0.989895	615.34
0.101548	44.71
0.151116	48.59
0.201738	52.57
0.252411	56.38
0.303195	61.15
0.354334	64.58
0.405341	69.78
0.455223	73.27
0.506321	77.6
0.557571	83.62
0.608517	88.28
0.662291	95.12
0.713298	104.52
0.759715	114.98
0.816072	140.08
0.832202	151.83
0.855902	178.01
0.892005	250.97
0.911135	312.71
0.93906	406.92
0.963611	507.96
0.990442	744.94
0.994292	781.87
0.996704	809.9
1.00512	836.36
