Adsorption isotherm of Nitrogen on TNT
DOI: 10.1039/c5ra25064a
Article source: Figure 3
Adsorbate Nitrogen: InChIKey IJGRMHOSHXDMSA-UHFFFAOYSA-N
Kind: experiment
Temperature: 77 K
Tabular data in the source: 0
pressure (bar)	uptake (cm3(STP)/g)
0.031634	55.48
0.065892	62.77
0.079723	65.73
0.120749	69.95
0.141267	73.01
0.161492	75.12
0.181625	77.54
0.25238	86.54
0.303347	91.98
0.355529	97.92
0.405006	104.45
0.502146	119.62
0.606045	135.62
0.682941	148.22
0.711676	155.01
0.80374	187.39
0.858425	218.98
0.905937	272.16
0.956012	406.82
0.986946	593.82
0.990462	629.64
0.997139	726.04
0.100484	66.61
0.203217	79.82
0.301614	91.16
0.411207	107.17
0.498955	120.37
0.598263	136.79
0.700936	165.11
0.810874	228.34
0.853825	271.56
0.91228	370.28
0.939384	432.17
0.965708	535.52
0.988496	733.15
0.993157	762.44
0.996754	789.13
1.00167	808.62
