Adsorption isotherm of N-propane on Zeolite AFI
DOI: 10.1021/Jp2112389
Adsorbate N-propane: InChIKey ATUOYWHBWRKTHZ-UHFFFAOYSA-N
Temperature: 388 K
Tabular data in the source: 0
pressure (bar)	uptake (molecules/unitcell)
0.0286306	0.122172
0.0417178	0.162896
0.0578098	0.244344
0.0842347	0.40724
0.119696	0.529412
0.150028	0.651584
0.188049	0.81448
0.260592	1.05882
0.318531	1.22172
0.430468	1.46606
0.526176	1.66968
0.643178	1.79186
0.826649	2.0362
1.06246	2.1991
1.40024	2.36199
1.75506	2.52489
2.14532	2.64706
2.75728	2.80995
3.63388	2.93213
4.78919	3.01357
6.15537	3.09502
7.15565	3.21719
9.19689	3.25792
