Adsorption isotherm of Ethane on Zeolite LTL
DOI: 10.1021/Jp2112389
Adsorbate Ethane: InChIKey OTMSDBZUPAUEDD-UHFFFAOYSA-N
Temperature: 320 K
Tabular data in the source: 0
pressure (bar)	uptake (molecules/unitcell)
0.0568038	0.145455
0.0833753	0.145455
0.116275	0.290909
0.166356	0.436364
0.220428	0.581818
0.284693	0.727273
0.367695	0.945455
0.451209	1.16364
0.568038	1.45455
0.697055	1.81818
0.833753	2.10909
0.99728	2.54545
1.16275	2.90909
1.28803	3.2
1.39081	3.56364
1.66356	4
1.98984	4.50909
2.32	5.09091
2.77503	5.6
3.23539	6.10909
3.86997	6.61818
4.39812	6.98182
4.99825	7.34545
6.13348	7.78182
7.7216	8.07273
9.47537	8.43636
