Adsorption isotherm of N-Hexane on Zeolite AFI
DOI: 10.1021/Jp2112389
Adsorbate N-Hexane: InChIKey VLKZOEOYAKHREP-UHFFFAOYSA-N
Temperature: 533 K
Tabular data in the source: 0
pressure (bar)	uptake (molecules/unitcell)
0.01142	0
0.0170627	0.081448
0.0236449	0.081448
0.033599	0.122172
0.0477438	0.162896
0.0645219	0.244344
0.0871961	0.325792
0.106583	0.40724
0.136989	0.447964
0.171703	0.488688
0.220682	0.61086
0.276603	0.692308
0.355506	0.81448
0.505169	0.895928
0.633194	1.0181
0.793646	1.05882
0.970101	1.14027
1.15642	1.22172
1.60253	1.30317
2.05967	1.34389
2.6472	1.46606
3.40234	1.46606
4.3729	1.54751
5.48104	1.62896
7.2236	1.66968
9.76212	1.71041
