Adsorption isotherm of Methane on Zeolite LTL
DOI: 10.1021/Jp2112389
Adsorbate Methane: InChIKey VNWKTOKETHGBQD-UHFFFAOYSA-N
Temperature: 200 K
Tabular data in the source: 0
pressure (bar)	uptake (molecules/unitcell)
0.0187834	0.218182
0.0242596	0.218182
0.0313324	0.290909
0.0394451	0.436364
0.0509452	0.581818
0.0641362	0.727273
0.0828368	0.945455
0.104285	1.16364
0.131288	1.52727
0.165281	1.89091
0.202817	2.32727
0.248882	2.76364
0.297696	3.27273
0.356085	3.78182
0.415168	4.36364
0.484042	4.87273
0.564356	5.45455
0.657996	6.10909
0.767156	6.69091
0.894445	7.27273
1.04285	7.85455
1.21586	8.43636
1.4176	8.94545
1.69564	9.52727
2.02817	10.0364
2.48882	10.4727
3.0541	10.9091
3.74777	11.3455
4.599	11.7818
5.64355	12.1455
7.10481	12.5091
8.94442	12.8727
10.9759	13.2364
13.8179	13.6
17.3957	13.8909
21.8999	14.1818
27.5703	14.4727
35.6084	14.6909
44.8283	14.9818
