Adsorption isotherm of Ethane on Zeolite MFI
DOI: 10.1021/Jp2112389
Adsorbate Ethane: InChIKey OTMSDBZUPAUEDD-UHFFFAOYSA-N
Temperature: 320 K
Tabular data in the source: 0
pressure (bar)	uptake (molecules/unitcell)
0.00806394	0.271493
0.011093	0.361991
0.0147808	0.542986
0.0196951	0.723982
0.0262426	0.995475
0.0349677	1.35747
0.0465926	1.71946
0.0601336	2.26244
0.0751757	2.80543
0.0970236	3.43891
0.121291	4.0724
0.146868	4.79638
0.183606	5.42986
0.222324	6.15385
0.277931	6.78733
0.336548	7.51131
0.420724	8.1448
0.525953	8.68778
0.678809	9.32127
0.876107	9.86425
1.13073	10.3167
1.50663	10.7692
2.00755	11.1312
2.67496	11.4027
3.56432	11.6742
4.74927	12.0362
6.53328	12.3077
8.70533	12.5792
11.5995	12.9412
15.4558	13.3032
19.3217	13.3937
25.7454	13.6652
34.3046	14.0271
45.7095	14.2986
