Adsorption isotherm of N-Butane on Zeolite LTL
DOI: 10.1021/Jp2112389
Adsorbate N-Butane: InChIKey IJDNQMDRQITEOD-UHFFFAOYSA-N
Temperature: 446 K
Tabular data in the source: 0
pressure (bar)	uptake (molecules/unitcell)
0.0738272	0
0.105625	0.145455
0.143584	0.218182
0.180762	0.218182
0.239511	0.290909
0.301527	0.363636
0.389436	0.654545
0.490271	0.8
0.617215	1.01818
0.797161	1.30909
0.953512	1.52727
1.17008	1.74545
1.47305	2.18182
1.90251	2.54545
2.27565	2.83636
2.65318	3.12727
3.17356	3.27273
3.60667	3.49091
4.42581	3.70909
5.43103	4
6.83726	4.21818
8.17823	4.50909
10.0357	4.65455
