Adsorption isotherm of N-Hexane on Zeolite MFI
DOI: 10.1021/Jp2112389
Adsorbate N-Hexane: InChIKey VLKZOEOYAKHREP-UHFFFAOYSA-N
Temperature: 533 K
Tabular data in the source: 0
pressure (bar)	uptake (molecules/unitcell)
0.0130124	0.0904977
0.0203356	0.0904977
0.0270967	0.180995
0.0372749	0.271493
0.049668	0.361991
0.06618	0.542986
0.0910389	0.633484
0.121307	0.904977
0.166873	1.08597
0.222355	1.35747
0.305877	1.62896
0.407565	1.99095
0.543071	2.35294
0.747063	2.62443
0.995444	2.89593
1.28474	3.07692
1.76733	3.34842
2.43124	3.52941
3.2395	3.71041
4.45638	3.8914
5.93794	4.0724
8.16846	4.25339
10.8841	4.52489
14.9726	4.70588
19.9504	4.97738
27.4445	5.15837
