Adsorption isotherm of Propene on Zeolite AFI
DOI: 10.1021/Jp2112389
Adsorbate Propene: InChIKey QQONPFPTGQHPMA-UHFFFAOYSA-N
Temperature: 382 K
Tabular data in the source: 0
pressure (bar)	uptake (molecules/unitcell)
0.0374989	0.122172
0.0494206	0.162896
0.0738411	0.244344
0.102327	0.325792
0.141801	0.488688
0.201497	0.651584
0.252556	0.773756
0.3246	0.895928
0.386944	1.09955
0.536202	1.30317
0.655433	1.50679
0.801158	1.62896
1.02969	1.83258
1.25866	2.0362
1.70098	2.1991
2.35716	2.44344
2.80982	2.60633
3.79724	2.76923
5.13168	2.97285
7.11129	3.13575
8.47702	3.17647
10.3618	3.21719
