Adsorption isotherm of Ethene on Zeolite AFI
DOI: 10.1021/Jp2112389
Adsorbate Ethene: InChIKey VGGSQFUCUMXWEO-UHFFFAOYSA-N
Temperature: 296 K
Tabular data in the source: 0
pressure (bar)	uptake (molecules/unitcell)
0.0455159	0.0727273
0.195656	0.581818
0.252699	0.727273
0.352406	1.01818
0.5042	1.45455
0.603091	1.74545
0.685382	1.89091
0.841052	2.32727
0.980602	2.61818
1.14331	3.05455
1.36752	3.49091
1.63573	4
1.90714	4.36364
2.40095	5.23636
3.10094	5.81818
3.90385	6.61818
5.44422	7.34545
6.18717	7.56364
6.85387	7.85455
8.41056	8.07273
9.806	8.36364
