Adsorption isotherm of Methane on Zeolite AFI
DOI: 10.1021/Jp2112389
Adsorbate Methane: InChIKey VNWKTOKETHGBQD-UHFFFAOYSA-N
Temperature: 200 K
Tabular data in the source: 0
pressure (bar)	uptake (molecules/unitcell)
0.00521391	0.040724
0.00819112	0.081448
0.0131957	0.122172
0.0217978	0.244344
0.0388234	0.488688
0.069147	0.855204
0.111394	1.26244
0.154367	1.66968
0.208614	2.07692
0.303965	2.68778
0.410784	3.25792
0.555141	3.74661
0.769296	4.23529
0.940358	4.64253
1.23932	5.00905
1.47732	5.37557
1.76106	5.57919
2.1526	5.86425
2.50238	6.14932
2.983	6.43439
3.7389	6.59729
4.57029	6.88235
6.02323	7.16742
8.99946	7.45249
13.788	7.65611
20.0905	7.819
27.1507	7.9819
38.5806	8.1448
45.99	8.18552
