Adsorption isotherm of N-Pentane on Zeolite AFI
DOI: 10.1021/Jp2112389
Adsorbate N-Pentane: InChIKey OFBQJSOFQDEBGM-UHFFFAOYSA-N
Temperature: 493 K
Tabular data in the source: 0
pressure (bar)	uptake (molecules/unitcell)
0.0159254	0.040724
0.0226297	0.040724
0.0305822	0.081448
0.0413294	0.162896
0.0531189	0.20362
0.0834525	0.285068
0.109984	0.366516
0.148634	0.488688
0.211207	0.61086
0.264728	0.733032
0.323586	0.855204
0.415891	0.977376
0.495769	1.0181
0.605995	1.14027
0.798655	1.26244
0.952049	1.34389
1.25473	1.42534
1.5337	1.50679
2.02129	1.62896
2.53349	1.71041
3.33902	1.79186
4.18511	1.8733
5.37897	1.95475
6.91338	1.99548
9.34289	2.0362
