Adsorption isotherm of Ethane on Zeolite AFI
DOI: 10.1021/Jp2112389
Adsorbate Ethane: InChIKey OTMSDBZUPAUEDD-UHFFFAOYSA-N
Temperature: 320 K
Tabular data in the source: 0
pressure (bar)	uptake (molecules/unitcell)
0.0132947	0.040724
0.0236787	0.081448
0.0353791	0.122172
0.0584423	0.244344
0.10409	0.40724
0.151669	0.570136
0.220997	0.855204
0.306251	1.14027
0.403615	1.38462
0.518749	1.58824
0.634085	1.79186
0.775064	1.99548
0.923926	2.1991
1.15805	2.40271
1.4515	2.60633
1.73028	2.76923
2.33834	3.01357
3.00537	3.17647
4.06151	3.42081
5.91802	3.58371
7.60619	3.74661
9.77596	3.86878
