Adsorption isotherm of Methane on Zeolite MFI
DOI: 10.1021/Jp2112389
Adsorbate Methane: InChIKey VNWKTOKETHGBQD-UHFFFAOYSA-N
Temperature: 200 K
Tabular data in the source: 0
pressure (bar)	uptake (molecules/unitcell)
0.000674316	0.180995
0.000927627	0.180995
0.00102076	0.271493
0.00140418	0.361991
0.00187104	0.452489
0.00257385	0.633484
0.0034296	0.904977
0.00471784	1.26697
0.00628628	1.62896
0.00811341	2.08145
0.0104714	2.62443
0.0135146	3.25792
0.0163649	3.8914
0.020458	4.52489
0.0247721	5.24887
0.029996	5.97285
0.0351822	6.69683
0.0426014	7.51131
0.0499659	8.23529
0.0605025	8.95928
0.0732628	9.68326
0.0887122	10.4977
0.10742	11.2217
0.130072	11.8552
0.162609	12.5792
0.203279	13.2127
0.254123	13.8462
0.327985	14.3891
0.423305	14.8416
0.564032	15.2941
0.75156	15.7466
1.00141	16.0181
1.33433	16.3801
1.83558	16.6516
2.44581	16.9231
3.25899	17.1946
4.48315	17.3756
5.9736	17.6471
8.21753	17.8281
10.9495	17.9186
15.0625	18.19
20.7207	18.2805
27.6094	18.4615
37.9805	18.6425
