Adsorption isotherm of N-Butane on Zeolite AFI
DOI: 10.1021/Jp2112389
Adsorbate N-Butane: InChIKey IJDNQMDRQITEOD-UHFFFAOYSA-N
Temperature: 446 K
Tabular data in the source: 0
pressure (bar)	uptake (molecules/unitcell)
0.0363292	0.122172
0.0516222	0.20362
0.0680356	0.325792
0.0942814	0.40724
0.127414	0.529412
0.155742	0.61086
0.190369	0.733032
0.2327	0.81448
0.299079	0.977376
0.365575	1.14027
0.446855	1.30317
0.546218	1.42534
0.667661	1.54751
0.816124	1.71041
0.972851	1.83258
1.18915	1.95475
1.56721	2.11765
1.86821	2.1991
2.28358	2.28054
2.93499	2.40271
3.7723	2.48416
4.72818	2.56561
5.77946	2.64706
6.88941	2.72851
8.21252	2.76923
9.54709	2.76923
