Adsorption isotherm of N-Butane on Zeolite MFI
DOI: 10.1021/Jp2112389
Adsorbate N-Butane: InChIKey IJDNQMDRQITEOD-UHFFFAOYSA-N
Temperature: 446 K
Tabular data in the source: 0
pressure (bar)	uptake (molecules/unitcell)
0.0143971	0.180995
0.0247586	0.271493
0.0386933	0.452489
0.0532275	0.633484
0.0755955	0.904977
0.0945031	1.17647
0.11814	1.44796
0.138566	1.53846
0.184632	1.90045
0.230811	2.26244
0.27949	2.80543
0.372406	3.25792
0.480636	3.71041
0.620335	4.1629
0.853348	4.88688
1.10135	5.33937
1.46753	6.06335
2.01877	6.42534
2.77713	6.96833
3.82029	7.33032
5.09038	7.60181
6.36361	7.8733
8.75401	8.1448
12.0423	8.23529
17.1028	8.41629
22.7887	8.50679
29.4119	8.59729
36.7685	8.68778
