Adsorption isotherm of Ethene on Zeolite AFI
DOI: 10.1021/Jp2112389
Adsorbate Ethene: InChIKey VGGSQFUCUMXWEO-UHFFFAOYSA-N
Temperature: 296 K
Tabular data in the source: 0
pressure (bar)	uptake (molecules/unitcell)
0.00758388	0
0.0234618	0.081448
0.0333389	0.122172
0.0510777	0.244344
0.0690274	0.366516
0.0822852	0.488688
0.105758	0.570136
0.135926	0.692308
0.166147	0.81448
0.208253	0.977376
0.254555	1.14027
0.311151	1.30317
0.390006	1.54751
0.476718	1.75113
0.582709	1.91403
0.748931	2.15837
0.938732	2.36199
1.17661	2.56561
1.30086	2.68778
1.55068	2.80995
1.94362	2.97285
2.31692	3.13575
2.90403	3.25792
3.92457	3.42081
5.04411	3.58371
6.81671	3.74661
8.12585	3.82805
9.68641	3.82805
