Adsorption isotherm of N-Hexane on Zeolite LTL
DOI: 10.1021/Jp2112389
Adsorbate N-Hexane: InChIKey VLKZOEOYAKHREP-UHFFFAOYSA-N
Temperature: 533 K
Tabular data in the source: 0
pressure (bar)	uptake (molecules/unitcell)
0.075859	0
0.0979754	0.145455
0.147536	0.145455
0.181045	0.218182
0.239887	0.290909
0.309825	0.363636
0.390047	0.509091
0.503764	0.654545
0.634201	0.8
0.798412	1.01818
1.00514	1.30909
1.29819	1.52727
1.63432	1.81818
2.05749	2.10909
2.65734	2.32727
3.34542	2.61818
4.21164	2.83636
5.43955	3.05455
6.84799	3.27273
8.84451	3.41818
10.0515	3.49091
