Adsorption isotherm of Carbon Dioxide on {[Mn(L)(H2O)](H2O)1.5(DMF)}n
DOI: 10.1021/Ja9006035
Adsorbate Carbon Dioxide: InChIKey CURLTUGMZLYLDI-UHFFFAOYSA-N
Temperature: 273 K
Tabular data in the source: 0
pressure (bar)	uptake (cm3(STP)/g)
0.000229	1.30155
0.00136544	11.5268
0.00285115	16.1805
0.00398729	18.2125
0.00564779	20.3755
0.0073083	22.0142
0.00923099	23.5217
0.0149991	25.7503
0.0244377	27.7822
0.0327402	28.9621
