Adsorption isotherm of Carbon Dioxide on tetra(4-cyanophenyl)ethylene, compound 1
DOI: 10.1039/c3cc41382a
Article source: Figure S19
Adsorbate Carbon Dioxide: InChIKey CURLTUGMZLYLDI-UHFFFAOYSA-N
Kind: experiment
Temperature: 273 K
Tabular data in the source: 0
pressure (bar)	uptake (cm3(STP)/g)
0.012183	0.101729
0.039147	0.302594
0.118067	0.887179
0.17331	1.30474
0.244338	1.81564
0.311419	2.34618
0.382447	2.85708
0.449528	3.40728
0.520556	3.91818
0.591583	4.46838
0.658665	5.01857
0.729692	5.54912
0.796774	6.07475
0.867801	6.61021
0.938829	7.17515
1.00591	7.71061
1.07891	8.28439
1.14796	8.8896
0.033228	0.184695
0.17331	2.36583
0.311419	3.58413
0.451501	4.70417
0.591583	5.72597
0.729692	6.70846
0.848071	7.4699
0.988153	8.3512
1.12823	9.18435
1.21505	9.5184
