Adsorption isotherm of Hydrogen on tetra(4-cyanophenyl)ethylene, compound 1
DOI: 10.1039/c3cc41382a
Article source: Figure S18
Adsorbate Hydrogen: InChIKey UFHFLCQGNIYNRP-UHFFFAOYSA-N
Kind: experiment
Temperature: 77 K
Tabular data in the source: 0
pressure (bar)	uptake (cm3(STP)/g)
0.00204	0.007945
0.018316	0.619592
0.036589	0.970038
0.050463	1.16304
0.0727	1.56355
0.084302	1.69124
0.104605	1.97566
0.1266	2.2804
0.153671	2.5699
0.180742	2.8594
0.204429	3.07271
0.2315	3.29619
0.258571	3.51966
0.282258	3.7025
0.309329	3.90058
0.334708	4.12507
0.360087	4.31197
0.387158	4.47958
0.414229	4.70813
0.437916	4.90112
0.464987	5.10428
0.490366	5.26681
0.515745	5.44457
0.542816	5.63249
0.568195	5.8519
0.593574	6.0388
0.620645	6.2572
0.646024	6.44512
0.671403	6.58733
0.698474	6.77017
0.725545	6.95301
0.749232	7.12062
0.776303	7.29838
0.801682	7.48935
0.827061	7.70469
0.854132	7.88753
0.879511	8.05006
0.906582	8.19227
0.931961	8.41574
0.959032	8.6189
0.984411	8.81528
1.01148	9.04959
1.03517	9.269
0.01041	0.454545
0.006625	0.295455
0.004732	0.193182
0.041641	1.05682
0.00918	4.25102
0.024842	4.4832
0.040311	4.73779
0.062306	4.93499
0.077534	5.0027
0.101221	5.17336
0.129984	5.23295
0.160439	5.4141
0.204429	5.5106
0.234884	5.59863
0.282258	5.75438
0.312713	5.86273
0.339784	5.99817
0.387158	6.08959
0.414229	6.1607
0.437916	6.28259
0.464987	6.37909
0.492058	6.48575
0.515745	6.60256
0.542816	6.7143
0.569887	6.85143
0.593574	6.97333
0.620645	7.11046
0.646024	7.21711
0.671403	7.37964
0.698474	7.48122
0.725545	7.62343
0.749232	7.76564
0.776303	7.94848
0.801682	8.09069
0.827061	8.25321
0.854132	8.37511
0.881203	8.53763
0.906582	8.63515
0.935344	8.82205
0.964107	8.94395
0.989486	9.09632
