Adsorption isotherm of Nitrogen on PCTF-2
DOI: 10.1039/c3cc41382a
Article source: Figure 3
Adsorbate Nitrogen: InChIKey IJGRMHOSHXDMSA-UHFFFAOYSA-N
Kind: experiment
Temperature: 77 K
Tabular data in the source: 0
pressure (bar)	uptake (cm3(STP)/g)
0.024387	156.341
0.065955	183.521
0.113609	203.062
0.164651	215.727
0.225862	226.998
0.256172	236.308
0.305719	242.07
0.35455	253.722
0.403381	263.854
0.455829	278.419
0.506469	289.185
0.557109	301.216
0.607748	314.515
0.658388	329.713
0.709028	344.911
0.763285	364.542
0.813924	387.339
0.860947	415.836
0.915204	466.497
0.961291	538.804
0.992972	567.818
0.958765	494.305
0.9116	423.69
0.857928	380.41
0.810763	359.909
0.761971	339.408
0.709926	325.74
0.659507	309.795
0.607462	296.128
0.557044	287.016
0.506625	275.626
0.456206	268.793
0.405788	255.125
0.353743	246.014
0.303324	241.458
0.282181	239.18
0.280555	234.624
0.256159	230.068
0.22851	220.957
0.202487	223.235
0.202487	220.957
0.178091	218.679
0.176465	214.123
0.150442	214.123
0.150442	207.289
0.139058	205.011
0.127673	202.733
0.129299	207.289
0.104903	200.456
0.104903	193.622
0.090265	193.622
0.0431	169.704
0.052858	177.677
0.078881	186.788
0.013824	134.396
0.008945	125.285
0.004879	107.062
0.004066	93.3941
0.004066	77.4487
0.004066	63.7813
0.004066	47.836
0.004066	36.4465
0.004066	20.5011
0.004066	9.11162
