Adsorption isotherm of Methane on PCTF-2
DOI: 10.1039/c3cc41382a
Article source: Figure S17
Adsorbate Methane: InChIKey VNWKTOKETHGBQD-UHFFFAOYSA-N
Kind: experiment
Temperature: 273 K
Tabular data in the source: 0
pressure (bar)	uptake (cm3(STP)/g)
0.01937	0.284081
0.04755	1.06622
0.070078	1.49686
0.092225	2.08878
0.114563	2.51526
0.136328	2.99828
0.160957	3.40065
0.183867	3.89447
0.209069	4.31846
0.229688	4.68359
0.253744	5.13152
0.269209	5.32606
0.296702	6.00693
0.331067	6.54814
0.365433	7.05443
0.399799	7.56073
0.465094	8.5384
0.532107	9.50908
0.599121	10.4152
0.664416	11.3143
0.733147	12.1697
0.798442	12.9379
0.863737	13.6013
0.930751	14.3485
1.01151	15.2075
0.030503	0.640496
0	-0.867769
0.006101	-0.392562
0.004067	-0.661157
0.264357	5.12397
0.296893	5.66116
0.331463	6.23967
0.366033	6.73554
0.398569	7.31405
0.465675	8.26446
0.531764	9.29752
0.597854	10.2066
0.913049	14.0083
0.991339	14.9793
0.843909	13.2645
0.799172	12.8099
0.732066	11.9835
0.662926	11.1157
0.201318	3.96694
0.148447	3.26446
0.166748	3.30578
0.132179	2.43802
0.099642	1.81818
0.081341	1.81818
1.11233	16.3223
