Adsorption isotherm of Hydrogen on PCTF-1
DOI: 10.1039/c3cc41382a
Article source: Figure 5
Adsorbate Hydrogen: InChIKey UFHFLCQGNIYNRP-UHFFFAOYSA-N
Kind: experiment
Temperature: 77 K
Tabular data in the source: 0
pressure (bar)	uptake (wt%)
0.027936	0.297534
0.04247	0.389725
0.054727	0.480611
0.073413	0.565505
0.096621	0.646502
0.128267	0.748118
0.158859	0.832945
0.221941	0.970788
0.253165	1.03335
0.286078	1.09485
0.314982	1.14044
0.347683	1.19346
0.378064	1.23693
0.409288	1.28147
0.442201	1.32706
0.471104	1.36179
0.503806	1.40287
0.534187	1.4384
0.565411	1.47339
0.598323	1.51156
0.629548	1.54443
0.659929	1.56855
0.69263	1.60169
0.721534	1.62502
0.754446	1.66001
0.785671	1.68863
0.816895	1.71408
0.84812	1.73953
0.884619	1.77134
0.916477	1.79573
0.947701	1.82118
0.978926	1.8392
1.01226	1.86324
1.04559	1.88904
1.07133	1.90521
1.10931	1.93569
1.08546	1.91864
1.05669	1.89153
1.02971	1.87797
0.621422	1.53446
0.594442	1.4983
0.669984	1.58418
0.698762	1.60904
0.803082	1.70396
0.774304	1.67458
0.878624	1.76497
0.905603	1.78531
0.959561	1.83277
0.490123	1.38531
0.518901	1.42599
0.517102	1.41017
0.547678	1.45311
0.437963	1.31299
0.463143	1.34463
0.412782	1.28588
0.385803	1.2452
0.360622	1.20678
0.33724	1.17288
0.335442	1.16384
0.310261	1.11638
0.285081	1.07345
0.254504	1.01921
0.222129	0.955932
0.20774	0.942373
0.20774	0.924294
0.182559	0.892655
0.180761	0.861017
0.157379	0.79774
0.1304	0.707345
0.087233	0.60791
0.062052	0.522034
0.029677	0.368362
0.03867	0.436158
0.045865	0.436158
0.060254	0.485876
0.065649	0.512994
0.074643	0.549153
0.080038	0.567232
0.085434	0.60339
0.096226	0.630508
0.020684	0.241808
0.008094	0.219209
0.009892	0.146893
0.004497	0.110734
0.003597	0.061017
0.003597	0.022599
0.020684	0.305085
