Adsorption isotherm of Carbon Dioxide on PCTF-1
DOI: 10.1039/c3cc41382a
Article source: Figure S14
Adsorbate Carbon Dioxide: InChIKey CURLTUGMZLYLDI-UHFFFAOYSA-N
Kind: experiment
Temperature: 293 K
Tabular data in the source: 0
pressure (bar)	uptake (cm3(STP)/g)
0.056427	3.73102
0.114171	7.31412
0.171915	10.3998
0.228009	13.2835
0.285753	16.1673
0.343497	18.6906
0.401241	21.3004
0.457335	23.7324
0.515079	26.1164
0.571173	28.5676
0.628917	30.7016
0.686661	32.8932
0.744405	35.0561
0.800499	37.2189
0.840095	38.6608
0.897839	40.6795
0.960533	42.9144
1.11397	48.1196
0.9722	43.5477
0.91537	41.4191
0.85854	39.1131
0.799681	37.694
0.74488	35.6541
0.68602	33.4368
0.62919	31.1308
0.571345	28.2927
0.51553	26.5188
0.457685	23.3259
0.40187	21.02
0.344025	18.3592
0.28618	15.8758
0.228335	12.949
0.17252	10.1996
0.11366	7.36142
0.055815	3.81375
0.00203	0.266075
0	0.266075
