Adsorption isotherm of Methane on PCTF-1
DOI: 10.1039/c3cc41382a
Article source: Figure S15
Adsorbate Methane: InChIKey VNWKTOKETHGBQD-UHFFFAOYSA-N
Kind: experiment
Temperature: 273 K
Tabular data in the source: 0
pressure (bar)	uptake (cm3(STP)/g)
0.006345	0.013567
0.067879	2.00135
0.104914	3.18262
0.145367	4.30482
0.226354	6.53597
0.271967	7.88406
0.356178	10.0508
0.396631	11.0212
0.467851	12.7846
0.534513	14.3034
0.599466	15.8323
0.666128	17.2397
0.73279	18.6775
0.799452	20.0747
0.847311	20.9354
0.915683	22.2095
0.997728	23.6439
1.11567	25.7549
0.036743	0.937122
0.014289	0.151149
0.26741	6.98307
0.249039	6.55985
0.234749	6.07618
0.216378	5.5925
0.200047	5.16929
0.181676	4.80653
0.171469	4.32285
0.149015	3.83918
0.136767	3.53688
0.118395	2.99274
0.097982	2.69045
0.083693	2.20677
0.165345	4.92745
0.202089	5.95526
0.295988	7.76904
0.330691	8.61548
0.304154	8.58525
0.332732	9.46191
0.369475	9.37122
0.400095	10.2479
0.467458	11.8198
0.532779	13.3918
0.600142	14.9033
0.665464	16.5659
0.735888	17.9867
0.800189	19.3773
0.865511	20.8585
0.930833	22.1886
1.01453	23.8513
