Adsorption isotherm of Carbon Dioxide on PCTF-2
DOI: 10.1039/c3cc41382a
Article source: Figure S16
Adsorbate Carbon Dioxide: InChIKey CURLTUGMZLYLDI-UHFFFAOYSA-N
Kind: experiment
Temperature: 273 K
Tabular data in the source: 0
pressure (bar)	uptake (cm3(STP)/g)
0.103127	8.82971
0.174675	12.88
0.244559	16.3708
0.312779	19.4775
0.384328	22.367
0.452548	25.0101
0.524096	27.5948
0.592316	29.9164
0.662201	32.1712
0.732085	34.259
0.800305	36.3635
0.87019	38.2564
0.920107	39.6873
0.991655	41.441
1.06154	43.2783
0.033577	3.46964
0.001975	0.099133
0	0.39653
0.102708	8.62453
0.175788	12.689
0.244918	16.0595
0.314048	19.3309
0.383178	22.1066
0.452308	24.5849
0.523414	27.4597
0.592544	29.4424
0.661674	31.8216
0.730804	33.9033
0.799934	36.0843
0.871039	38.0669
0.94017	39.8513
1.01128	41.7348
1.0804	43.5192
