Adsorption isotherm of Hydrogen on PCTF-2
DOI: 10.1039/c3cc41382a
Article source: Figure 5
Adsorbate Hydrogen: InChIKey UFHFLCQGNIYNRP-UHFFFAOYSA-N
Kind: experiment
Temperature: 77 K
Tabular data in the source: 0
pressure (bar)	uptake (wt%)
0.013285	0.159632
0.038813	0.28157
0.028405	0.21795
0.062864	0.327518
0.088181	0.372583
0.113499	0.414112
0.162023	0.472431
0.187341	0.500706
0.212658	0.520146
0.237975	0.542678
0.263292	0.562559
0.28439	0.578464
0.309707	0.599671
0.335024	0.619111
0.362451	0.630156
0.387769	0.646061
0.413086	0.663291
0.438403	0.673894
0.46372	0.684498
0.491147	0.700403
0.518574	0.717633
0.543891	0.725586
0.569209	0.737515
0.594526	0.748118
0.619843	0.758721
0.64516	0.767999
0.672587	0.779928
0.700014	0.789206
0.725332	0.799809
0.750649	0.807762
0.775966	0.811738
0.801283	0.824992
0.8266	0.83427
0.854027	0.843548
0.879345	0.854151
0.906772	0.863429
0.932089	0.868731
0.957406	0.875358
0.982723	0.885962
1.01226	0.894798
1.0418	0.905843
1.06711	0.907168
1.11424	0.924294
1.08367	0.915254
1.05489	0.910734
1.036	0.901695
0.101622	0.39774
0.076441	0.350282
0.049462	0.296045
0.009892	0.124294
0.006295	0.083616
0.003597	0.033898
0.10342	0.359322
0.085434	0.345763
0.074643	0.323164
0.058455	0.296045
0.051261	0.277966
0.03867	0.255367
0.033274	0.232768
0.020684	0.178531
0.128601	0.427119
0.128601	0.418079
0.158278	0.445198
0.184358	0.472316
0.209539	0.490395
0.232921	0.519774
0.256303	0.540113
0.283282	0.567232
0.308463	0.589831
0.335442	0.60339
0.362421	0.612429
0.387602	0.630508
0.412782	0.644068
0.438862	0.653107
0.463143	0.671186
0.491022	0.684746
0.518901	0.698305
0.544081	0.711864
0.619623	0.743503
0.595342	0.729944
0.570161	0.716384
