Adsorption isotherm of Methane on PCTF-2
DOI: 10.1039/c3cc41382a
Article source: Figure S17
Adsorbate Methane: InChIKey VNWKTOKETHGBQD-UHFFFAOYSA-N
Kind: experiment
Temperature: 293 K
Tabular data in the source: 0
pressure (bar)	uptake (cm3(STP)/g)
0.009747	0.025698
0.036667	0.391159
0.112845	1.42536
0.136901	1.70469
0.160957	1.9516
0.185013	2.24341
0.209069	2.46787
0.236562	2.77215
0.26119	2.975
0.300138	3.37072
0.332786	3.67799
0.365433	3.98176
0.399799	4.27855
0.465094	4.76739
0.532107	5.36796
0.599121	5.84981
0.664416	6.36483
0.803597	7.14173
0.865456	7.43503
0.930751	7.83308
1.01151	8.18923
1.11437	8.55372
0.994389	8.09917
0.911015	7.60331
0.845943	7.2314
0.801205	6.94215
0.730032	6.81818
0.730032	6.61157
0.66496	6.07438
0.597854	5.49587
0.530748	5.16529
0.465675	4.6281
0.400603	4.00826
0.366033	3.67769
0.331463	3.42975
0.30096	3.05785
0.262324	2.64463
0.248089	2.85124
0.229787	2.27273
0.176916	1.73554
0.142346	1.44628
0.111843	1.03306
0.081341	0.578512
0.054905	0.247934
0.020335	0.247934
0.046771	0.702479
0.061005	0.867769
0.083374	1.1157
0.096592	1.26033
0.026436	-0.289256
