Adsorption isotherm of Nitrogen on PCTF-1
DOI: 10.1039/c3cc41382a
Article source: Figure 3
Adsorbate Nitrogen: InChIKey IJGRMHOSHXDMSA-UHFFFAOYSA-N
Kind: experiment
Temperature: 77 K
Tabular data in the source: 0
pressure (bar)	uptake (cm3(STP)/g)
0.007306	295.517
0.034434	398.105
0.070605	463.602
0.10316	510.709
0.142948	554.922
0.181531	597.651
0.223248	638.743
0.267739	681.382
0.307527	721.066
0.350933	762.228
0.405189	812.255
0.455829	859.116
0.506469	897.112
0.557109	923.075
0.607748	943.339
0.658388	955.371
0.707219	962.97
0.759668	972.469
0.810307	980.702
0.860947	993.367
0.911587	1000.97
0.962226	1008.56
0.090265	492.027
0.114662	526.196
0.127673	537.585
0.153695	569.476
0.16508	585.421
0.202487	619.59
0.012198	330.296
0.010572	313.212
0.005692	280.182
0.006506	266.515
0.005692	250.569
0.005692	232.346
0.005692	211.845
0.005692	189.066
0.005692	173.121
0.005692	154.897
0.004879	134.396
0.005692	111.617
0.004879	93.3941
0.004879	72.8929
0.004879	52.3918
0.004066	34.1686
0.004066	14.8064
0.991294	1011.39
0.947381	1006.83
0.896962	1004.56
0.844917	997.722
0.809136	993.166
0.761971	986.333
0.708299	981.777
0.657881	972.665
0.610715	963.554
0.557044	952.164
0.503372	943.052
0.464338	922.551
0.397656	822.323
0.352117	776.765
0.298445	728.929
0.283808	706.15
0.252906	685.649
0.226703	659.01
0.200725	635.282
0.174748	605.227
0.1499	576.753
0.125052	551.443
0.07818	477.094
0.07818	485.004
0.102463	519.805
0.049379	443.875
0.053897	443.875
0.039214	415.401
0.02679	382.182
