Adsorption isotherm of Carbon Dioxide on PCTF-2
DOI: 10.1039/c3cc41382a
Article source: Figure S16
Adsorbate Carbon Dioxide: InChIKey CURLTUGMZLYLDI-UHFFFAOYSA-N
Kind: experiment
Temperature: 293 K
Tabular data in the source: 0
pressure (bar)	uptake (cm3(STP)/g)
0.050991	2.83079
0.114774	4.8462
0.173011	6.70016
0.22792	8.3871
0.286157	9.95712
0.344394	11.4436
0.400967	12.7965
0.45754	14.1661
0.514113	15.3687
0.572349	16.5963
0.630586	17.7738
0.687159	18.8929
0.743732	19.9117
0.800305	21.0475
0.838575	21.6905
0.895148	22.5674
0.955049	23.5695
1.11596	25.9727
0.973747	23.891
0.914493	22.8996
0.857213	21.8092
0.799934	20.917
0.742655	19.7274
0.685376	18.6369
0.630072	17.5465
0.568842	16.3569
0.517488	15.1673
0.458234	13.9777
0.40293	12.7881
0.345651	11.4994
0.288371	9.91326
0.227142	8.42627
0.171838	6.74102
0.053329	2.47832
0.116534	4.75836
0.013826	0.495663
0.007901	1.09046
0.007901	0.693928
