Adsorption isotherm of Methane on PCTF-1
DOI: 10.1039/c3cc41382a
Article source: Figure S15
Adsorbate Methane: InChIKey VNWKTOKETHGBQD-UHFFFAOYSA-N
Kind: experiment
Temperature: 293 K
Tabular data in the source: 0
pressure (bar)	uptake (cm3(STP)/g)
0.073349	1.45616
0.103774	2.07223
0.147239	2.73181
0.194936	3.55388
0.235633	4.3446
0.271967	4.92752
0.313674	5.63628
0.356178	6.33829
0.396631	6.97111
0.466142	8.12707
0.534513	9.13958
0.599466	10.0812
0.666128	11.0127
0.73279	11.924
0.799452	12.8353
0.847311	13.4048
0.915683	14.295
0.99431	15.2147
1.11567	16.6322
1.01453	15.5079
0.932874	14.5405
0.865511	13.7545
0.732826	11.9408
0.665464	11.1548
0.600142	10.127
0.798148	12.9686
0.734868	12.0012
0.400095	7.16445
0.36131	6.68077
0.334773	6.13664
0.334773	5.95526
0.302112	5.53204
0.25108	4.68561
0.216378	4.14148
0.171469	3.29504
0.030619	0.876663
0.028578	0.634825
0.012248	0.392987
0.003062	0.090689
0.048991	1.14873
0.073487	1.7231
0.083693	1.96493
0.11023	2.44861
0.122478	2.44861
0.132684	2.62999
