Adsorption isotherm of Carbon Dioxide on PCTF-1
DOI: 10.1039/c3cc41382a
Article source: Figure S14
Adsorbate Carbon Dioxide: InChIKey CURLTUGMZLYLDI-UHFFFAOYSA-N
Kind: experiment
Temperature: 273 K
Tabular data in the source: 0
pressure (bar)	uptake (cm3(STP)/g)
0.031679	4.89174
0.100972	12.8221
0.173564	18.9934
0.242857	24.7321
0.3138	30.0816
0.383093	35.3445
0.452386	40.1027
0.523328	44.8033
0.592621	49.302
0.661914	53.6565
0.731207	57.8091
0.800499	61.8176
0.869792	65.7395
0.924237	68.7723
0.995179	72.4587
1.06447	76.2076
1.0818	77.0732
1.01279	73.3481
0.939726	69.4457
0.870718	65.5432
0.799681	61.4634
0.732702	57.2062
0.661665	52.949
0.592657	49.0466
0.522634	44.2572
0.452611	39.8226
0.383603	34.8559
0.312565	29.8891
0.243558	24.5676
0.176579	18.714
0.105542	12.5055
0.012178	0.798226
0.006089	1.15299
0.034504	4.87805
