Adsorption isotherm of N-Hexane on Spheron 6
DOI: 10.1016/0008-6223(91)90031-d
Article source: Figure 1
Adsorbate N-Hexane: InChIKey VLKZOEOYAKHREP-UHFFFAOYSA-N
Kind: experiment
Temperature: 323 K
Tabular data in the source: 0
pressure (bar)	uptake (mmol/g)
0.000599	0.032877
0.000617	0.042009
0.001709	0.054795
0.002834	0.084018
0.005022	0.111416
0.008281	0.140639
0.013135	0.168037
0.021193	0.19726
0.03138	0.224658
0.053329	0.266667
0.073112	0.292237
0.096102	0.321461
0.121751	0.347032
0.152747	0.379909
0.184795	0.405479
0.214714	0.432877
0.2425	0.460274
0.26815	0.485845
0.297002	0.513242
0.339208	0.551598
0.376626	0.595434
0.396402	0.617352
