Adsorption isotherm of N-Hexane on Spheron 6
DOI: 10.1016/0008-6223(91)90031-d
Article source: Figure 1
Adsorbate N-Hexane: InChIKey VLKZOEOYAKHREP-UHFFFAOYSA-N
Kind: experiment
Temperature: 313 K
Tabular data in the source: 0
pressure (bar)	uptake (mmol/g)
0	0.045662
0.000139	0.069406
0.000701	0.084018
0.001275	0.10411
0.00294	0.136986
0.006728	0.164384
0.01266	0.19726
0.020192	0.230137
0.038422	0.279452
0.051809	0.306849
0.068944	0.341553
0.096766	0.387215
0.124596	0.43653
0.155089	0.484018
0.19148	0.547945
0.218233	0.591781
0.244992	0.639269
0.261052	0.67032
0.283001	0.712329
