Adsorption isotherm of Carbon Dioxide on [Cd2L(H2O)]2*5H2O
DOI: 10.1039/C1cc10990a
Adsorbate Carbon Dioxide: InChIKey CURLTUGMZLYLDI-UHFFFAOYSA-N
Temperature: 273 K
Tabular data in the source: 0
pressure (bar)	uptake (cm3(STP)/g)
0.00595567	0.592464
0.0104345	15.9727
0.0164064	23.2404
0.031336	28.9868
0.0567162	33.0432
0.0955331	36.9305
0.144801	40.0573
0.271702	43.9446
0.374716	46.2263
0.482209	48.508
0.586716	50.3671
0.713618	52.5643
0.824097	54.3389
0.888294	55.184
0.958463	56.3671
0.995787	56.9587
