Adsorption isotherm of Carbon Dioxide on [Cd2L(H2O)]2*5H2O
DOI: 10.1039/C1cc10990a
Adsorbate Carbon Dioxide: InChIKey CURLTUGMZLYLDI-UHFFFAOYSA-N
Temperature: 195 K
Tabular data in the source: 0
pressure (bar)	uptake (cm3(STP)/g)
0.000526	40.3069
0.000804	2.06489
0.000804	21.3861
0.000804	36.8031
0.00612422	42.6094
0.0446952	49.4169
0.107207	54.2222
0.147108	55.6237
0.266811	58.3267
0.366563	60.3289
0.511537	62.7316
0.609959	64.934
0.711042	66.9362
0.809464	69.2387
0.913207	70.9406
0.989019	72.5423
