Adsorption isotherm of Nitrogen on [Cd2L(H2O)]2*5H2O
DOI: 10.1039/C1cc10990a
Adsorbate Nitrogen: InChIKey IJGRMHOSHXDMSA-UHFFFAOYSA-N
Temperature: 77 K
Tabular data in the source: 0
pressure (bar)	uptake (cm3(STP)/g)
0.000526	9.77336
0.000804	1.1639
0.000804	20.4851
0.00185598	26.5918
0.00213412	32.7987
0.00479418	34.8009
0.0274047	36.3025
0.0819361	38.3047
0.190999	41.7085
0.284101	43.0099
0.389174	44.8119
0.528827	46.8141
0.675131	48.8163
0.788184	50.8185
0.846705	52.0198
0.911877	53.7217
0.946458	54.6226
0.959758	55.6237
