Adsorption isotherm of Carbon Dioxide on [Cd2L(H2O)]2*5H2O
DOI: 10.1039/C1cc10990a
Adsorbate Carbon Dioxide: InChIKey CURLTUGMZLYLDI-UHFFFAOYSA-N
Temperature: 293 K
Tabular data in the source: 0
pressure (bar)	uptake (cm3(STP)/g)
0.00446271	0.761478
0.0134205	8.53613
0.0238712	15.5502
0.0373078	21.4657
0.0567162	24.846
0.0910543	28.9868
0.141815	31.7756
0.213477	34.5643
0.298575	37.015
0.423984	39.8882
0.544913	42.4235
0.616575	43.2685
0.686744	44.1136
0.797223	45.2967
0.907702	46.4798
0.95697	46.9868
1.01072	47.4939
