Adsorption isotherm of Nitrogen on [Cd2L(H2O)]2*5H2O
DOI: 10.1039/C1cc10990a
Adsorbate Nitrogen: InChIKey IJGRMHOSHXDMSA-UHFFFAOYSA-N
Temperature: 293 K
Tabular data in the source: 0
pressure (bar)	uptake (cm3(STP)/g)
0.0164064	0.0854218
0.0597022	0.338943
0.122406	0.507957
0.198547	0.592464
0.244829	0.507957
0.347843	0.592464
0.440406	0.676971
0.540435	0.676971
0.630012	0.761478
0.737505	0.845985
0.803195	0.845985
0.859927	0.761478
0.927111	1.09951
0.968913	1.09951
1.00027	1.09951
