Adsorption isotherm of Nitrogen on COF-OAl
DOI: 10.1021/jacs.9b11401
Article source: Figure S15a
Adsorbate Nitrogen: InChIKey IJGRMHOSHXDMSA-UHFFFAOYSA-N
Kind: experiment
Temperature: 77 K
Tabular data in the source: 0
pressure (bar)	uptake (cm3(STP)/g)
0.006757	4.21066
0.009861	13.0722
0.010157	15.6048
0.009561	28.2705
0.012075	32.0668
0.010545	36.7125
0.015033	39.6621
0.029781	41.7544
0.063323	45.0898
0.086408	47.594
0.121825	49.2383
0.168044	54.6687
0.220281	58.4029
0.270447	62.1396
0.316518	66.3037
0.364612	70.0431
0.423065	73.7695
0.473329	78.3504
0.511064	82.1027
0.577804	85.8188
0.634234	89.9699
0.676161	94.1391
0.728251	96.607
0.772152	99.9294
0.826412	103.239
0.877021	110.775
0.935867	117.878
0.950615	119.97
0.967534	122.904
0.982381	125.841
0.995205	129.202
1.00393	132.991
1.01469	136.355
1.01745	142.261
1.03106	152.376
0.061596	48.0471
0.086851	51.3929
0.116102	53.4671
0.164097	56.3623
0.206123	61.3757
0.264675	65.9463
0.319131	70.9442
0.371369	74.6784
0.421682	79.6815
0.467704	83.4234
0.517722	85.8939
0.570107	90.8944
0.632703	94.6156
0.672559	98.7874
0.722774	102.946
0.771064	108.374
0.827495	112.525
0.888216	117.937
0.930094	121.685
0.953179	124.189
0.963833	126.708
0.991258	130.896
1.00635	135.943
0.982775	129.218
1.01562	144.374
1.02909	153.223
