Adsorption isotherm of Nitrogen on COF-OEt
DOI: 10.1021/jacs.9b11401
Article source: Figure 2a
Adsorbate Nitrogen: InChIKey IJGRMHOSHXDMSA-UHFFFAOYSA-N
Kind: experiment
Temperature: 77 K
Tabular data in the source: 0
pressure (bar)	uptake (cm3(STP)/g)
0.006482	13.0686
0.006823	32.6865
0.009135	45.7618
0.017673	57.1922
0.02424	75.1653
0.045315	88.2103
0.068333	93.0778
0.08721	99.5868
0.110228	104.454
0.164718	120.715
0.221121	127.164
0.273469	140.158
0.311138	148.272
0.365599	162.898
0.417918	174.258
0.470124	179.078
0.522415	188.803
0.578932	201.791
0.606148	208.286
0.681571	229.418
0.723608	248.969
0.76556	263.615
0.822106	278.238
0.862058	297.792
0.921058	333.664
0.952841	363.04
0.963635	384.276
0.980654	403.867
0.991504	428.373
0.996185	457.793
1.00721	492.108
1.00969	514.992
1.01226	542.781
0.047911	117.634
0.075213	129.034
0.110825	138.786
0.15906	155.057
0.223916	168.031
0.267783	172.865
0.317989	182.593
0.36828	197.226
0.403864	205.343
0.454127	218.341
0.512985	246.039
0.565275	255.764
0.621764	267.117
0.661575	278.497
0.707753	296.406
0.762242	312.667
0.810449	327.303
0.854741	356.659
0.909486	387.633
0.932874	413.754
0.945695	431.717
0.954347	449.686
0.969196	464.376
0.979933	482.343
0.992726	498.671
1.00563	521.538
1.01631	536.235
1.02285	552.573
