Adsorption isotherm of Nitrogen on ZIF-69
DOI: 10.1021/Jp101531m
Adsorbate Nitrogen: InChIKey IJGRMHOSHXDMSA-UHFFFAOYSA-N
Temperature: 298 K
Tabular data in the source: 0
pressure (bar)	uptake (mmol/g)
0.150127	0.0237885
0.252339	0.0396476
0.309842	0.0502203
0.41204	0.0634361
0.514252	0.0792952
0.606861	0.0898678
0.705853	0.100441
0.808065	0.1163
0.919852	0.132159
1.02204	0.142731
1.09548	0.150661
