Adsorption isotherm of Nitrogen on ZIF-68
DOI: 10.1021/Jp101531m
Adsorbate Nitrogen: InChIKey IJGRMHOSHXDMSA-UHFFFAOYSA-N
Temperature: 298 K
Tabular data in the source: 0
pressure (bar)	uptake (mmol/g)
0.144494	0.0204545
0.272897	0.0318182
0.37246	0.05
0.475207	0.0636364
0.574733	0.075
0.715994	0.0909091
0.825158	0.104545
0.979266	0.122727
1.08842	0.134091
