Adsorption isotherm of Methane on ZIF-68
DOI: 10.1021/Jp101531m
Adsorbate Methane: InChIKey VNWKTOKETHGBQD-UHFFFAOYSA-N
Temperature: 273 K
Tabular data in the source: 0
pressure (bar)	uptake (mmol/g)
0.0479268	0.0571964
0.201356	0.190983
0.30367	0.258078
0.405972	0.334643
0.498662	0.420602
0.607376	0.487748
0.709666	0.573782
0.808792	0.631383
1.00062	0.765472
1.10613	0.832593
