Adsorption isotherm of Methane on ZIF-69
DOI: 10.1021/Jp101531m
Adsorbate Methane: InChIKey VNWKTOKETHGBQD-UHFFFAOYSA-N
Temperature: 273 K
Tabular data in the source: 0
pressure (bar)	uptake (mmol/g)
0.0672364	0.0987426
0.134329	0.161396
0.246198	0.277848
0.354849	0.385302
0.50173	0.501491
0.635844	0.608753
0.776252	0.697923
0.907183	0.805209
1.07309	0.90321
