Adsorption isotherm of Methane on ZIF-69
DOI: 10.1021/Jp101531m
Adsorbate Methane: InChIKey VNWKTOKETHGBQD-UHFFFAOYSA-N
Temperature: 298 K
Tabular data in the source: 0
pressure (bar)	uptake (mmol/g)
0.172309	0.106975
0.325448	0.196049
0.417933	0.240467
0.529587	0.302785
0.625254	0.347179
0.704971	0.382669
0.81337	0.426967
0.918586	0.471289
1.01425	0.515682
