Adsorption isotherm of Methane on ZIF-68
DOI: 10.1021/Jp101531m
Adsorbate Methane: InChIKey VNWKTOKETHGBQD-UHFFFAOYSA-N
Temperature: 298 K
Tabular data in the source: 0
pressure (bar)	uptake (mmol/g)
0.201465	0.105757
0.297427	0.134923
0.399741	0.202018
0.498892	0.240679
0.604418	0.29833
0.700381	0.327497
0.802731	0.366183
0.99782	0.45295
1.10338	0.482192
