Adsorption isotherm of Methane on ZIF-68
DOI: 10.1021/Jp101531m
Adsorbate Methane: InChIKey VNWKTOKETHGBQD-UHFFFAOYSA-N
Temperature: 298 K
Tabular data in the source: 0
pressure (bar)	uptake (mmol/g)
0.201428	0.134165
0.297367	0.182271
0.399657	0.268305
0.501995	0.316461
0.604309	0.383557
0.703423	0.450627
0.79935	0.508202
1.00083	0.604489
1.10635	0.66214
