Adsorption isotherm of Carbon Dioxide on ZIF-69
DOI: 10.1021/Jp101531m
Adsorbate Carbon Dioxide: InChIKey CURLTUGMZLYLDI-UHFFFAOYSA-N
Temperature: 273 K
Tabular data in the source: 0
pressure (bar)	uptake (mmol/g)
0.1024	0.524295
0.192	0.895267
0.2592	1.14296
0.3456	1.4527
0.432	1.76244
0.5312	2.0423
0.6432	2.29227
0.7616	2.54258
0.848	2.76071
0.9536	3.01036
1.0496	3.16792
