Adsorption isotherm of Nitrogen on ZIF-69
DOI: 10.1021/Jp101531m
Adsorbate Nitrogen: InChIKey IJGRMHOSHXDMSA-UHFFFAOYSA-N
Temperature: 283 K
Tabular data in the source: 0
pressure (bar)	uptake (mmol/g)
0.134211	0.0317181
0.194878	0.0370044
0.297118	0.0581498
0.412096	0.0740088
0.517541	0.0977974
0.603782	0.111013
0.699625	0.129515
0.789099	0.150661
0.900886	0.16652
0.996729	0.185022
1.08613	0.192952
