Adsorption isotherm of Carbon Dioxide on ZIF-68
DOI: 10.1021/Jp101531m
Adsorbate Carbon Dioxide: InChIKey CURLTUGMZLYLDI-UHFFFAOYSA-N
Temperature: 298 K
Tabular data in the source: 0
pressure (bar)	uptake (mmol/g)
0.0730159	0.180451
0.24127	0.541353
0.320635	0.691729
0.409524	0.81203
0.48254	0.932331
0.609524	1.08271
0.714286	1.23308
0.866667	1.44361
0.971429	1.59398
1.06032	1.68421
