Adsorption isotherm of Nitrogen on ZIF-68
DOI: 10.1021/Jp101531m
Adsorbate Nitrogen: InChIKey IJGRMHOSHXDMSA-UHFFFAOYSA-N
Temperature: 273 K
Tabular data in the source: 0
pressure (bar)	uptake (mmol/g)
0.109212	0.0227273
0.218449	0.05
0.314779	0.0636364
0.414378	0.0886364
0.497885	0.104545
0.623177	0.134091
0.761266	0.156818
0.931514	0.193182
1.09533	0.227273
