Adsorption isotherm of Carbon Dioxide on ZIF-69
DOI: 10.1021/Jp101531m
Adsorbate Carbon Dioxide: InChIKey CURLTUGMZLYLDI-UHFFFAOYSA-N
Temperature: 298 K
Tabular data in the source: 0
pressure (bar)	uptake (mmol/g)
0.0608	0.0946972
0.1344	0.312183
0.272	0.624529
0.384	0.782901
0.496	0.971807
0.5856	1.12904
0.672	1.28611
0.7808	1.47485
0.8736	1.60171
0.9728	1.66783
1.0496	1.85494
