Adsorption isotherm of Methane on ZIF-69
DOI: 10.1021/Jp101531m
Adsorbate Methane: InChIKey VNWKTOKETHGBQD-UHFFFAOYSA-N
Temperature: 283 K
Tabular data in the source: 0
pressure (bar)	uptake (mmol/g)
0.150244	0.161276
0.255496	0.21462
0.386319	0.29484
0.526763	0.393032
0.612917	0.446519
0.695925	0.509053
0.791664	0.571491
0.900171	0.642856
0.992583	0.669229
