Adsorption isotherm of Carbon Dioxide on ZIF-68
DOI: 10.1021/Jp101531m
Adsorbate Carbon Dioxide: InChIKey CURLTUGMZLYLDI-UHFFFAOYSA-N
Temperature: 273 K
Tabular data in the source: 0
pressure (bar)	uptake (mmol/g)
0.047619	0.270677
0.174603	0.81203
0.288889	1.20301
0.393651	1.53383
0.488889	1.80451
0.606349	2.13534
0.698413	2.34586
0.796825	2.52632
0.980952	2.88722
1.05079	2.97744
