Adsorption isotherm of Nitrogen on ZIF-68
DOI: 10.1021/Jp101531m
Adsorbate Nitrogen: InChIKey IJGRMHOSHXDMSA-UHFFFAOYSA-N
Temperature: 283 K
Tabular data in the source: 0
pressure (bar)	uptake (mmol/g)
0.160598	0.0318182
0.263357	0.0477273
0.353306	0.0681818
0.462494	0.0863636
0.549186	0.0977273
0.66157	0.113636
0.780408	0.136364
0.94097	0.161364
1.07262	0.179545
