Adsorption isotherm of Carbon Dioxide on ZIF-69
DOI: 10.1021/Jp101531m
Adsorbate Carbon Dioxide: InChIKey CURLTUGMZLYLDI-UHFFFAOYSA-N
Temperature: 283 K
Tabular data in the source: 0
pressure (bar)	uptake (mmol/g)
0.1184	0.433506
0.2464	0.867501
0.32	1.08499
0.3872	1.24108
0.4896	1.55163
0.5728	1.73907
0.6624	1.92684
0.7648	2.11526
0.8544	2.27249
0.9568	2.43037
1.0432	2.58744
