Adsorption isotherm of Carbon Dioxide on ZIF-68
DOI: 10.1021/Jp101531m
Adsorbate Carbon Dioxide: InChIKey CURLTUGMZLYLDI-UHFFFAOYSA-N
Temperature: 283 K
Tabular data in the source: 0
pressure (bar)	uptake (mmol/g)
0.0730159	0.330827
0.231746	0.721805
0.288889	0.87218
0.393651	1.14286
0.488889	1.41353
0.603175	1.62406
0.698413	1.83459
0.819048	2.04511
0.971429	2.28571
1.05714	2.40602
