Adsorption isotherm of Nitrogen on ZIF-69
DOI: 10.1021/Jp101531m
Adsorbate Nitrogen: InChIKey IJGRMHOSHXDMSA-UHFFFAOYSA-N
Temperature: 273 K
Tabular data in the source: 0
pressure (bar)	uptake (mmol/g)
0.0958712	0.0237885
0.198139	0.0502203
0.287614	0.0713656
0.383457	0.0898678
0.479356	0.118943
0.581596	0.140088
0.683822	0.15859
0.782885	0.182379
0.897919	0.208811
0.987365	0.22467
1.08641	0.245815
