Adsorption isotherm of Carbon Dioxide on ROD-6
DOI: 10.1039/C3cc49684h
Adsorbate Carbon Dioxide: InChIKey CURLTUGMZLYLDI-UHFFFAOYSA-N
Temperature: 298 K
Tabular data in the source: 0
pressure (bar)	uptake (cm3(STP)/g)
0.685056	0.538922
2.05516	1.79641
3.42527	2.69461
5.48043	4.31138
6.16548	5.20958
7.12455	5.7485
8.08361	6.64671
9.59077	8.26347
10.8238	9.16168
12.605	10.0599
13.9751	11.1377
15.3452	12.3952
17.2634	13.8323
18.4965	14.5509
19.8665	15.6287
21.6477	16.5269
22.8808	17.4251
24.1139	18.1437
25.347	19.4012
26.5801	20.1198
27.9502	21.018
30.0054	22.2754
31.2384	22.8144
32.6085	23.7126
34.3897	24.7904
35.7598	25.6886
37.2669	26.4072
39.048	27.485
40.1441	28.024
41.3772	28.2036
43.0213	29.1018
44.6655	29.8204
46.0356	30.7186
47.4057	31.2575
48.9128	31.7964
50.2829	32.6946
51.927	33.4132
53.2972	34.1317
54.6673	34.6707
56.1744	35.5689
57.6815	36.1078
59.1886	36.4671
60.9698	37.3653
61.6548	37.7246
63.0249	38.2635
63.71	38.8024
64.8058	39.3413
