Adsorption isotherm of Carbon Dioxide on ROD-7
DOI: 10.1039/C3cc49684h
Adsorbate Carbon Dioxide: InChIKey CURLTUGMZLYLDI-UHFFFAOYSA-N
Temperature: 273 K
Tabular data in the source: 0
pressure (bar)	uptake (cm3(STP)/g)
0.593384	2.69461
1.18677	5.20958
2.00267	8.08383
3.18944	11.6766
3.63449	12.5749
4.45038	14.7305
5.19213	16.3473
6.00802	18.8623
6.67559	20.6587
7.71399	21.9162
8.52989	23.1737
9.27163	24.4311
10.1617	25.6886
10.9035	26.9461
11.6452	27.6647
12.4611	28.7425
13.1286	29.6407
13.722	30.5389
14.6121	31.6168
15.3538	32.8743
16.2439	33.7725
16.9114	34.491
17.8757	35.2096
18.6174	35.7485
19.3592	37.006
20.1009	37.5449
20.9168	38.6228
21.5844	39.1617
22.5486	40.0599
23.3645	40.5988
24.1804	41.1377
24.9222	42.0359
25.5155	42.3952
26.4056	43.2934
27.2215	44.012
28.1858	44.5509
28.8533	45.2695
29.6692	45.8084
30.4109	46.1677
31.301	46.8862
34.2679	48.8623
