Adsorption isotherm of Carbon Dioxide on ROD-7
DOI: 10.1039/C3cc49684h
Adsorbate Carbon Dioxide: InChIKey CURLTUGMZLYLDI-UHFFFAOYSA-N
Temperature: 298 K
Tabular data in the source: 0
pressure (bar)	uptake (cm3(STP)/g)
1.09608	1.79641
2.46619	2.51497
2.87722	2.87425
3.69929	3.59281
5.34341	5.56886
5.89146	6.10778
6.57651	6.82635
8.08361	7.90419
9.45374	8.98204
10.9608	10.0599
12.605	11.497
14.2491	12.3952
15.2082	13.1138
16.9893	14.3713
18.3594	15.4491
20.0036	15.988
21.3736	16.8862
22.7438	17.6048
24.1139	18.503
25.484	19.2216
26.9911	19.9401
28.0872	20.6587
30.0054	21.5569
31.3754	22.2754
32.7456	22.6347
34.1156	23.1737
35.4858	23.8922
37.2669	24.7904
38.774	25.6886
40.1441	26.0479
41.5142	26.5868
43.0213	27.1257
44.6655	27.8443
46.0356	28.3832
47.1317	28.5629
49.0498	29.1018
50.2829	29.2814
51.79	30
53.2972	30.5389
54.5302	30.8982
56.1744	31.4371
57.9555	31.976
59.3256	32.1557
60.4217	32.515
61.2438	32.8743
62.0659	33.0539
62.7509	33.2335
63.573	33.4132
64.532	34.3114
