Adsorption isotherm of Carbon Dioxide on ROD-6
DOI: 10.1039/C3cc49684h
Adsorbate Carbon Dioxide: InChIKey CURLTUGMZLYLDI-UHFFFAOYSA-N
Temperature: 273 K
Tabular data in the source: 0
pressure (bar)	uptake (cm3(STP)/g)
1.26094	3.9521
2.00267	6.82635
2.67023	8.62275
3.70867	11.6766
4.59874	14.3713
5.11795	16.1677
6.0822	18.6826
6.82392	20.479
7.63981	22.8144
8.45574	24.6108
9.19745	26.5868
10.0875	28.2036
10.8293	29.6407
11.571	31.4371
12.3869	33.2335
13.2028	34.6707
13.7962	35.9281
14.4638	37.1856
15.3538	38.6228
16.2439	40.0599
16.6889	40.7784
17.2823	40.7784
17.8016	42.5749
18.2466	42.9341
18.84	43.2934
19.285	44.5509
19.73	45.0898
20.3234	45.4491
20.9168	46.8862
21.436	47.2455
22.1036	47.0659
22.1778	47.9641
22.7711	48.503
22.9936	49.2216
23.587	49.4012
23.8837	50.1198
24.1804	50.6587
24.6996	51.018
25.293	51.018
25.8122	51.9162
26.2573	52.8144
26.7765	52.4551
27.2215	53.3533
27.7407	54.0719
28.4083	54.2515
29.0759	54.9701
30.1884	55.8683
30.7076	56.0479
31.2269	57.3054
34.0454	58.9222
34.713	58.7425
