Adsorption isotherm of Nitrogen on ED-MIL-101
DOI: 10.1016/j.cej.2013.01.002
Adsorbate Nitrogen: InChIKey IJGRMHOSHXDMSA-UHFFFAOYSA-N
Temperature: 77 K
Tabular data in the source: 0
pressure (bar)	uptake (cm3(STP)/g)
0.0123058	294.534
0.0323278	367.757
0.0723718	440.98
0.110986	497.042
0.128147	559.968
0.178202	602.301
0.218246	638.912
0.233978	666.371
0.254	699.55
0.318356	708.703
0.391294	713.28
0.45279	720.144
0.535738	723.577
0.615826	728.153
0.674462	732.73
0.735958	733.874
0.796024	738.45
0.85752	740.738
0.95334	748.747
0.974792	754.468
0.993384	783.071
