Adsorption isotherm of Nitrogen on AMSA-MIL-101
DOI: 10.1016/j.cej.2013.01.002
Adsorbate Nitrogen: InChIKey IJGRMHOSHXDMSA-UHFFFAOYSA-N
Temperature: 77 K
Tabular data in the source: 0
pressure (bar)	uptake (cm3(STP)/g)
0.0123058	280.804
0.0337579	349.451
0.0537799	387.207
0.0680813	420.386
0.0938239	450.133
0.110986	476.448
0.128147	527.933
0.145309	551.96
0.181063	575.986
0.219676	604.589
0.254	662.939
0.291184	672.092
0.35268	676.668
0.432768	683.533
0.494264	686.965
0.55147	689.253
0.611536	692.686
0.674462	694.974
0.733098	699.55
0.791734	699.55
0.85609	704.127
0.916156	708.703
0.95906	710.991
0.976222	717.856
0.991954	741.883
