Adsorption isotherm of Nitrogen on MIL-101
DOI: 10.1016/j.cej.2013.01.002
Adsorbate Nitrogen: InChIKey IJGRMHOSHXDMSA-UHFFFAOYSA-N
Temperature: 77 K
Tabular data in the source: 0
pressure (bar)	uptake (cm3(STP)/g)
0.0123058	349.451
0.035188	437.548
0.0523498	483.313
0.0923938	563.401
0.109555	596.58
0.132438	662.939
0.146739	691.542
0.175342	720.144
0.219676	757.9
0.226827	791.079
0.266871	834.556
0.335518	844.853
0.412746	851.718
0.474242	856.294
0.531448	862.015
0.612966	864.303
0.675892	868.879
0.733098	872.312
0.794594	874.6
0.85609	879.176
0.917586	884.897
0.95763	888.329
0.974792	895.194
0.996244	931.806
