Adsorption isotherm of Benzene, P-Xylene on Activated carbon: Sorbonorit B
DOI: 10.1002/aic.690450410
Article source: Figure 4
Adsorbate Benzene: InChIKey UHOVQNZJYSORNB-UHFFFAOYSA-N
Adsorbate P-Xylene: InChIKey URLKBWYHVLBVBO-UHFFFAOYSA-N
Kind: experiment
Temperature: 303 K
Tabular data in the source: 0
pressure (bar)	Benzene fraction	Benzene uptake (mmol/g)	P-Xylene fraction	P-Xylene uptake (mmol/g)	total uptake (mmol/g)
0.00344	0.095201	0.044917	0.904799	3.6701	
0.00344	0.216358	0.08415	0.783642	3.66618	
0.00344	0.414162	0.143295	0.585838	3.47255	
0.00344	0.590959	0.214383	0.409041	3.29084	
0.00344	0.803673	0.427935	0.196327	3.0482	
0.00344	0.933644	0.794087	0.066356	2.56969	
