Adsorption isotherm of P-Xylene on Activated carbon: Sorbonorit B
DOI: 10.1002/aic.690450410
Article source: Figure 2
Adsorbate P-Xylene: InChIKey URLKBWYHVLBVBO-UHFFFAOYSA-N
Kind: experiment
Temperature: 303 K
Tabular data in the source: 0
pressure (bar)	uptake (mmol/g)
0.0001	3.31
0.0002	3.42
0.000326	3.5
0.000737	3.59
0.00111	3.6
0.00213	3.6
0.00354	3.66
