Adsorption isotherm of Benzene on Activated carbon: Sorbonorit B
DOI: 10.1002/aic.690450410
Article source: Figure 2
Adsorbate Benzene: InChIKey UHOVQNZJYSORNB-UHFFFAOYSA-N
Kind: experiment
Temperature: 303 K
Tabular data in the source: 0
pressure (bar)	uptake (mmol/g)
3.4e-05	0.345
0.00013	0.944
0.000434	1.72
0.00139	2.76
0.00368	3.33
0.00722	3.5
0.0136	3.58
0.0208	3.64
0.0294	3.68
0.0443	3.68
