Adsorption isotherm of Benzene, Toluene on Activated carbon: Sorbonorit B
DOI: 10.1002/aic.690450410
Article source: Figure 3
Adsorbate Benzene: InChIKey UHOVQNZJYSORNB-UHFFFAOYSA-N
Adsorbate Toluene: InChIKey YXFVVABEGXRONW-UHFFFAOYSA-N
Kind: experiment
Temperature: 303 K
Tabular data in the source: 0
pressure (bar)	Benzene fraction	Benzene uptake (mmol/g)	Toluene fraction	Toluene uptake (mmol/g)	total uptake (mmol/g)
0.00328	0.066666	0.030826	0.933334	4.02589	
0.00328	0.206172	0.049322	0.793828	3.91492	
0.00328	0.395061	0.055487	0.604939	3.71147	
0.00328	0.59506	0.123305	0.40494	3.2984	
0.00328	0.80864	0.807645	0.19136	2.39827	
0.00328	0.938269	1.91739	0.061731	1.27004	
