Adsorption isotherm of P-Xylene, Toluene on Activated carbon: Sorbonorit B
DOI: 10.1002/aic.690450410
Article source: Figure 5
Adsorbate P-Xylene: InChIKey URLKBWYHVLBVBO-UHFFFAOYSA-N
Adsorbate Toluene: InChIKey YXFVVABEGXRONW-UHFFFAOYSA-N
Kind: experiment
Temperature: 303 K
Tabular data in the source: 0
pressure (bar)	P-Xylene fraction	P-Xylene uptake (mmol/g)	Toluene fraction	Toluene uptake (mmol/g)	total uptake (mmol/g)
0.00325	0.048135	3.689	0.951865	0.080613	
0.00325	0.196182	3.40142	0.803818	0.230195	
0.00325	0.421038	3.28719	0.578962	0.528551	
0.00325	0.614748	2.92628	0.385252	1.04205	
0.00325	0.806783	2.12199	0.193217	1.73405	
0.00325	0.924628	1.29216	0.075372	2.66531	
