Adsorption isotherm of Toluene on Activated carbon: Sorbonorit B
DOI: 10.1002/aic.690450410
Article source: Figure 2
Adsorbate Toluene: InChIKey YXFVVABEGXRONW-UHFFFAOYSA-N
Kind: experiment
Temperature: 303 K
Tabular data in the source: 0
pressure (bar)	uptake (mmol/g)
5.3e-05	1.89
0.000123	2.59
0.000266	3.25
0.000461	3.6
0.000885	3.81
0.00208	4.02
0.0048	4.1
0.00885	4.22
