Adsorption isotherm of Carbon Dioxide on F400
DOI: 10.1016/j.carbon.2009.06.046
Article source: Figure 2(a)- FP Mons_1
Adsorbate Carbon Dioxide: InChIKey CURLTUGMZLYLDI-UHFFFAOYSA-N
Kind: experiment
Isotherm type: excess
Temperature: 318 K
Tabular data in the source: 0
pressure (bar)	uptake (mmol/g)
8.776	4.8329
18.916	6.4588
27.912	7.2158
44.165	7.8155
57.435	7.8969
67.872	7.7699
77.215	7.4652
86.459	6.8912
93.416	6.1393
99.181	5.2096
104.249	4.412
109.02	3.8938
115.083	3.4062
122.389	2.9947
136.156	2.5985
