Adsorption isotherm of Carbon Dioxide on F400
DOI: 10.1016/j.carbon.2009.06.046
Article source: Figure 2(a)- INERIS
Adsorbate Carbon Dioxide: InChIKey CURLTUGMZLYLDI-UHFFFAOYSA-N
Kind: experiment
Isotherm type: excess
Temperature: 318 K
Tabular data in the source: 0
pressure (bar)	uptake (mmol/g)
0.85	1.5169
4.801	3.6655
9.973	5.1127
15.341	6.0318
20.274	6.5639
25.048	6.9589
30.612	7.2491
35.465	7.4547
40.199	7.5715
50.062	7.6924
