Adsorption isotherm of Carbon Dioxide on F400
DOI: 10.1016/j.carbon.2009.06.046
Article source: Figure 2(a)- TU Delft_2
Adsorbate Carbon Dioxide: InChIKey CURLTUGMZLYLDI-UHFFFAOYSA-N
Kind: experiment
Isotherm type: excess
Temperature: 318 K
Tabular data in the source: 0
pressure (bar)	uptake (mmol/g)
10.99	5.4063
47.368	7.9081
77.698	7.4973
90.438	6.4572
96.473	5.5217
101.167	4.7677
106.492	4.1709
113.158	3.7154
120.889	3.3486
129.369	3.0785
137.73	2.8771
146.052	2.7079
154.887	2.5548
