Adsorption isotherm of Nitrogen on F400
DOI: 10.1016/j.carbon.2009.06.046
Article source: Figure 1(a)
Adsorbate Nitrogen: InChIKey IJGRMHOSHXDMSA-UHFFFAOYSA-N
Kind: experiment
Temperature: 77 K
Tabular data in the source: 0
pressure (bar)	uptake (cm3(STP)/g)
7e-06	48.09
1e-05	60.85
1.3e-05	73.62
1.6e-05	86.38
2.1e-05	98.72
2.8e-05	111.06
3.6e-05	121.7
4.7e-05	131.91
6.1e-05	140.43
7.7e-05	147.66
9.5e-05	155.32
0.000124	163.4
0.000159	170.21
0.0002	177.87
0.000254	185.11
0.000324	191.91
0.000407	197.45
0.000511	202.98
0.000646	208.94
0.000823	213.19
0.001041	218.3
0.001296	223.83
0.001638	227.66
0.00204	231.91
0.00258	237.02
0.003262	242.55
0.004093	247.23
0.005136	251.91
0.006546	257.45
0.008278	262.98
0.015121	276.6
0.020677	285.11
0.025342	290.21
0.029867	295.32
0.034651	300.85
0.036035	300.85
0.042136	306.38
0.049273	311.06
0.058986	316.17
0.060862	316.6
0.072286	323.4
0.083872	327.66
0.091411	329.36
0.107725	336.17
0.137296	342.13
0.161814	345.96
0.183386	350.21
0.209467	354.47
0.235546	357.87
0.254722	359.57
0.284208	362.55
0.300204	364.26
0.324628	366.81
0.353799	369.36
0.3796	371.91
0.394754	372.34
0.413711	374.47
0.436975	377.02
0.450844	379.15
0.476252	379.57
0.506963	383.4
0.535521	383.83
0.565648	386.38
0.583602	388.51
0.592757	391.06
0.616363	393.62
0.630981	395.32
0.651008	397.02
0.687617	400.43
0.726251	404.26
0.749284	406.81
0.797584	411.49
0.797676	411.49
0.829233	417.87
0.829348	417.89
0.842241	420.43
0.882626	424.68
0.910451	431.91
0.917353	438.72
0.968226	460.85
0.968739	460.85
0.982826	478.72
