Adsorption isotherm of Carbon Dioxide on F400
DOI: 10.1016/j.carbon.2009.06.046
Article source: Figure 2(a)- FP Mons_2
Adsorbate Carbon Dioxide: InChIKey CURLTUGMZLYLDI-UHFFFAOYSA-N
Kind: experiment
Isotherm type: excess
Temperature: 318 K
Tabular data in the source: 0
pressure (bar)	uptake (mmol/g)
1.128	1.5988
4.833	3.1438
8.319	4.6624
12.307	5.5008
15.307	5.9522
18.228	6.3513
21.74	6.6979
26.121	7.0405
29.081	7.2218
31.33	7.3467
32.79	7.4153
34.21	7.4493
35.434	7.5442
53.031	7.8705
64.433	7.7937
99.064	5.4067
107.227	4.2134
115.706	3.3868
125.292	2.9473
143.122	2.3222
