Adsorption isotherm of Carbon Dioxide on F400
DOI: 10.1016/j.carbon.2009.06.046
Article source: Figure 2(a)- RWTH_2
Adsorbate Carbon Dioxide: InChIKey CURLTUGMZLYLDI-UHFFFAOYSA-N
Kind: experiment
Isotherm type: excess
Temperature: 318 K
Tabular data in the source: 0
pressure (bar)	uptake (mmol/g)
0.233	0.7583
1.921	2.2949
3.048	3.012
4.452	3.6794
6.206	4.3006
7.685	4.7302
10.287	5.3372
13.165	5.9181
16.477	6.3578
19.75	6.7492
23.102	7.076
26.375	7.3261
29.687	7.54
32.763	7.6772
35.8	7.8024
38.284	7.9033
41.439	7.972
56.621	8.1298
68.886	7.9527
77.01	7.6626
83.123	7.3362
87.501	6.9854
90.696	6.683
93.102	6.3847
94.719	6.1024
97.914	5.5863
100.99	5.1427
104.58	4.6105
108.681	4.2033
113.257	3.8324
118.305	3.5301
123.55	3.2883
134.79	2.9257
140.193	2.7968
