Adsorption isotherm of Carbon Dioxide on F400
DOI: 10.1016/j.carbon.2009.06.046
Article source: Figure 2(a)- TU Delft_1
Adsorbate Carbon Dioxide: InChIKey CURLTUGMZLYLDI-UHFFFAOYSA-N
Kind: experiment
Isotherm type: excess
Temperature: 318 K
Tabular data in the source: 0
pressure (bar)	uptake (mmol/g)
11.291	5.4606
46.548	7.8685
78.73	7.3763
91.151	6.3567
97.184	5.2764
102.374	4.5061
108.256	3.9436
115.766	3.5025
124.342	3.1701
133.138	2.9304
142.873	2.7098
152.453	2.5468
