Adsorption isotherm of Carbon Dioxide on F400
DOI: 10.1016/j.carbon.2009.06.046
Article source: Figure 2(a)- RWTH_1
Adsorbate Carbon Dioxide: InChIKey CURLTUGMZLYLDI-UHFFFAOYSA-N
Kind: experiment
Isotherm type: excess
Temperature: 318 K
Tabular data in the source: 0
pressure (bar)	uptake (mmol/g)
0.28	0.9665
1.345	1.9625
2.885	2.8899
4.739	3.7932
6.83	4.5554
9.71	5.2571
16.456	6.4145
20.243	6.9047
23.951	7.1969
48.802	8.1569
71.995	7.9355
84.696	7.2663
91.441	6.5325
95.858	5.835
99.092	5.2543
101.971	4.7665
105.205	4.3592
108.755	4.0286
112.305	3.7343
116.13	3.5166
119.956	3.3231
123.861	3.1458
127.608	3.0248
131.237	2.9039
134.669	2.8193
137.785	2.7145
140.585	2.6661
143.189	2.5896
145.477	2.5614
147.646	2.509
149.539	2.4687
151.275	2.4284
