Adsorption isotherm of Argon on IRMOF-1
DOI: 10.1021/Ie801294n
Adsorbate Argon: InChIKey XKRFYHLGVUSROY-UHFFFAOYSA-N
Temperature: 78 K
Tabular data in the source: 0
pressure (bar)	uptake (mmol/g)
0.0191939	53.1323
0.0383877	53.036
0.0729367	53.3798
0.140115	53.0635
0.270633	53.1598
0.370441	53.146
0.514395	53.2285
0.714012	53.0772
0.998081	52.9397
