Adsorption isotherm of Hydrogen on IRMOF-1
DOI: 10.1021/Ie801294n
Adsorbate Hydrogen: InChIKey UFHFLCQGNIYNRP-UHFFFAOYSA-N
Temperature: 298 K
Tabular data in the source: 0
pressure (bar)	uptake (mmol/g)
0.875	0.0173478
2.25	0.0577167
4.875	0.132699
9.5	0.271093
13.25	0.374934
20.125	0.565311
35.75	0.957835
49.5	1.2411
68.375	1.64562
