Adsorption isotherm of Argon on IRMOF-1
DOI: 10.1021/Ie801294n
Adsorbate Argon: InChIKey XKRFYHLGVUSROY-UHFFFAOYSA-N
Temperature: 78 K
Tabular data in the source: 0
pressure (bar)	uptake (mmol/g)
0.0211132	53.3523
0.0403071	53.1048
0.074856	53.0222
0.142035	53.146
0.270633	53.0497
0.370441	52.7747
0.518234	52.8434
0.714012	52.6646
0.998081	52.7059
