Adsorption isotherm of Argon on IRMOF-1
DOI: 10.1021/Ie801294n
Adsorbate Argon: InChIKey XKRFYHLGVUSROY-UHFFFAOYSA-N
Temperature: 298 K
Tabular data in the source: 0
pressure (bar)	uptake (g/l)
4.77064	25.6967
5.41284	28.5572
6.69725	36.165
7.24771	39.9645
7.98165	42.8293
9.26606	52.3239
10.5505	58.0448
11.1927	60.9053
12.9358	71.3649
14.4954	78.0422
15.9633	86.602
17.3394	93.2707
18.2569	98.9744
19.1743	103.735
20.2752	108.504
21.6514	115.172
22.5688	118.989
24.1284	127.553
25.4128	134.218
26.8807	139.947
28.5321	147.572
30.0917	154.25
31.8349	161.879
33.7615	170.46
35.7798	179.046
38.2569	189.54
