Adsorption isotherm of Xenon on IRMOF-1
DOI: 10.1021/Ie801294n
Adsorbate Xenon: InChIKey FHNFHKCVQCLJFQ-UHFFFAOYSA-N
Temperature: 292 K
Tabular data in the source: 0
pressure (bar)	uptake (mmol/g)
0.154105	0.237327
0.277032	0.480174
0.439616	0.866521
0.618844	1.26391
0.748061	1.55643
0.918991	1.97037
