Adsorption isotherm of Argon on IRMOF-1
DOI: 10.1021/Ie801294n
Adsorbate Argon: InChIKey XKRFYHLGVUSROY-UHFFFAOYSA-N
Temperature: 298 K
Tabular data in the source: 0
pressure (bar)	uptake (g/l)
1.65138	8.56846
3.21101	18.076
11.9266	64.7135
16.6972	90.4102
19.7248	105.647
23.4862	124.693
27.7064	143.76
32.844	167.587
38.8991	193.344
