Adsorption isotherm of Hydrogen on IRMOF-1
DOI: 10.1021/Ie801294n
Adsorbate Hydrogen: InChIKey UFHFLCQGNIYNRP-UHFFFAOYSA-N
Temperature: 298 K
Tabular data in the source: 0
pressure (bar)	uptake (mmol/g)
2.5	0.0745421
4.875	0.143355
6.75	0.20641
9.5	0.28669
13.25	0.395644
20	0.573462
35.5	0.969289
49.375	1.27921
68.25	1.68103
