Adsorption isotherm of Krypton on IRMOF-1
DOI: 10.1021/Ie801294n
Adsorbate Krypton: InChIKey DNNSSWSSYDEUBZ-UHFFFAOYSA-N
Temperature: 298 K
Tabular data in the source: 0
pressure (bar)	uptake (g/l)
1.2844	32.1361
1.65138	42.5307
2.29358	59.5421
2.75229	71.8279
3.11927	82.2226
3.3945	92.6129
3.85321	103.955
4.49541	122.854
5.04587	139.861
5.59633	153.094
5.87156	159.711
6.33028	173.884
6.78899	189.943
7.33945	201.29
7.70642	213.571
7.98165	223.018
8.62385	235.312
9.26606	252.324
9.81651	268.388
10.2752	282.56
11.0092	298.633
11.6514	319.418
12.2018	333.594
12.6606	345.88
