Adsorption isotherm of Xenon on IRMOF-1
DOI: 10.1021/Ie801294n
Adsorbate Xenon: InChIKey FHNFHKCVQCLJFQ-UHFFFAOYSA-N
Temperature: 298 K
Tabular data in the source: 0
pressure (bar)	uptake (g/l)
0.458716	36.8141
0.550459	60.4033
0.825688	88.7182
1.10092	125.524
1.19266	137.792
1.2844	154.778
1.37615	166.103
1.46789	175.541
1.55963	194.413
1.74312	224.611
1.83486	243.483
1.92661	252.921
2.01835	277.454
2.11009	286.892
2.29358	324.636
2.38532	347.282
