Adsorption isotherm of Xenon on IRMOF-1
DOI: 10.1021/Ie801294n
Adsorbate Xenon: InChIKey FHNFHKCVQCLJFQ-UHFFFAOYSA-N
Temperature: 292 K
Tabular data in the source: 0
pressure (bar)	uptake (mmol/g)
0.0479014	0.0772694
0.0978758	0.149019
0.191582	0.287001
0.268631	0.402905
0.379011	0.57952
0.533128	0.827886
0.633107	0.998983
0.747669	1.19768
0.895544	1.44052
1.06219	1.73856
