Adsorption isotherm of Hydrogen on IRMOF-1
DOI: 10.1021/Ie801294n
Adsorbate Hydrogen: InChIKey UFHFLCQGNIYNRP-UHFFFAOYSA-N
Temperature: 298 K
Tabular data in the source: 0
pressure (bar)	uptake (mmol/g)
20	0.493406
35.125	0.797711
50.125	1.09057
65	1.39485
