Adsorption isotherm of Argon on IRMOF-1
DOI: 10.1021/Ie801294n
Adsorbate Argon: InChIKey XKRFYHLGVUSROY-UHFFFAOYSA-N
Temperature: 298 K
Tabular data in the source: 0
pressure (bar)	uptake (mmol/g)
0.998081	0.171927
1.68906	0.25789
3.07102	0.51578
4.45298	0.722093
6.14203	0.997175
8.59885	1.4098
11.977	1.94277
16.737	2.64767
19.8081	3.11188
23.4165	3.62766
27.7159	4.19501
32.8599	4.84834
38.9251	5.53604
