Adsorption isotherm of Xenon on IRMOF-1
DOI: 10.1021/Ie801294n
Adsorbate Xenon: InChIKey FHNFHKCVQCLJFQ-UHFFFAOYSA-N
Temperature: 298 K
Tabular data in the source: 0
pressure (bar)	uptake (g/l)
0.183486	11.3294
0.366972	33.9796
0.458716	47.1914
0.642202	68.8982
0.733945	83.0535
0.917431	99.0999
1.00917	117.972
1.10092	143.448
1.65138	212.342
2.11009	314.25
