Adsorption isotherm of Krypton on IRMOF-1
DOI: 10.1021/Ie801294n
Adsorbate Krypton: InChIKey DNNSSWSSYDEUBZ-UHFFFAOYSA-N
Temperature: 298 K
Tabular data in the source: 0
pressure (bar)	uptake (g/l)
1.2844	24.5889
2.01835	50.0952
3.57798	98.282
5.9633	166.319
8.25688	227.748
10.5505	290.12
