Adsorption isotherm of Hydrogen on IRMOF-1
DOI: 10.1021/Ie801294n
Adsorbate Hydrogen: InChIKey UFHFLCQGNIYNRP-UHFFFAOYSA-N
Temperature: 298 K
Tabular data in the source: 0
pressure (bar)	uptake (mmol/g)
2.75	0.103154
4.625	0.171926
6.25	0.229242
8.125	0.298015
9.875	0.355341
17.25	0.601831
24.5	0.83687
31.625	1.05475
38.875	1.27835
46	1.47336
53.75	1.67413
61.625	1.88063
69.125	2.07566
