Adsorption isotherm of Argon on IRMOF-1
DOI: 10.1021/Ie801294n
Adsorbate Argon: InChIKey XKRFYHLGVUSROY-UHFFFAOYSA-N
Temperature: 298 K
Tabular data in the source: 0
pressure (bar)	uptake (mmol/g)
1.07486	0.206312
1.61228	0.292276
3.14779	0.584551
4.3762	0.808056
6.06526	1.11752
8.59885	1.56453
11.977	2.14909
16.737	2.92276
19.8081	3.40415
23.4165	3.95432
27.7927	4.55606
32.8599	5.22657
38.9251	5.96586
