Adsorption isotherm of Copper(II) Ion on Graphite/Zeolite composite
DOI: 10.1134/s1070427217070230
Article source: Figure 5
Adsorbate Copper(II) Ion: InChIKey JPVYNHNXODAKFH-UHFFFAOYSA-N
Kind: experiment
Temperature: 303 K
Tabular data in the source: 0
pressure (bar)	uptake (mg/g)
1.01325	22.966
1.01325	34.457
1.01325	39.8
1.01325	40.368
