Adsorption isotherm of Copper(II) Ion on Graphite/Zeolite composite
DOI: 10.1134/s1070427217070230
Article source: Figure 5
Adsorbate Copper(II) Ion: InChIKey JPVYNHNXODAKFH-UHFFFAOYSA-N
Kind: experiment
Temperature: 293 K
Tabular data in the source: 0
pressure (bar)	uptake (mg/g)
1.01325	12.531
1.01325	20.939
1.01325	29.876
1.01325	34.997
1.01325	37.749
