Adsorption isotherm of Copper(II) Ion on Graphite/Zeolite composite
DOI: 10.1134/s1070427217070230
Article source: Figure 5
Adsorbate Copper(II) Ion: InChIKey JPVYNHNXODAKFH-UHFFFAOYSA-N
Kind: experiment
Temperature: 313 K
Tabular data in the source: 0
pressure (bar)	uptake (mg/g)
1.01325	12.993
1.01325	32.446
1.01325	36.003
1.01325	38.923
