Adsorption isotherm of Copper(II) Ion, Methyl Orange, Water on Graphite/Zeolite composite
DOI: 10.1134/s1070427217070230
Article source: Figure 5
Adsorbate Copper(II) Ion: InChIKey JPVYNHNXODAKFH-UHFFFAOYSA-N
Adsorbate Methyl Orange: InChIKey STZCRXQWRGQSJD-GEEYTBSJSA-M
Adsorbate Water: InChIKey XLYOFNOQVPJJNP-UHFFFAOYSA-N
Kind: experiment
Temperature: 313 K
Tabular data in the source: 0
pressure (bar)	Copper(II) Ion fraction	Copper(II) Ion uptake (mg/g)	Methyl Orange fraction	Methyl Orange uptake (mg/g)	Water fraction	Water uptake (mg/g)	total uptake (mg/g)
1.01325	2.983	17.907	0.2297	1.49752			
1.01325	5.004	29.855	0.5061	2.63974			
1.01325	5.983	34.848	1.0129	3.24664			
1.01325	14.966	42.505	2.5125	3.28045			
1.01325	34.082	41.949	4.8046	3.34841			
