Adsorption isotherm of Copper(II) Ion, Methyl Orange, Water on Graphite/Zeolite composite
DOI: 10.1134/s1070427217070230
Article source: Figure 5
Adsorbate Copper(II) Ion: InChIKey JPVYNHNXODAKFH-UHFFFAOYSA-N
Adsorbate Methyl Orange: InChIKey STZCRXQWRGQSJD-GEEYTBSJSA-M
Adsorbate Water: InChIKey XLYOFNOQVPJJNP-UHFFFAOYSA-N
Kind: experiment
Temperature: 293 K
Tabular data in the source: 0
pressure (bar)	Copper(II) Ion fraction	Copper(II) Ion uptake (mg/g)	Methyl Orange fraction	Methyl Orange uptake (mg/g)	Water fraction	Water uptake (mg/g)	total uptake (mg/g)
1.01325	0.025	17.885	0.1062	1.49758			
1.01325	1.05	31.45	0.2079	2.78664			
1.01325	9.083	45.921	0.3055	3.58365			
1.01325	14.066	46.152	1.4984	3.68666			
1.01325	24.098	46.219	3.6925	3.68561			
