Adsorption isotherm of Copper(II) Ion, Methyl Orange, Water on Graphite/Zeolite composite
DOI: 10.1134/s1070427217070230
Article source: Figure 5
Adsorbate Copper(II) Ion: InChIKey JPVYNHNXODAKFH-UHFFFAOYSA-N
Adsorbate Methyl Orange: InChIKey STZCRXQWRGQSJD-GEEYTBSJSA-M
Adsorbate Water: InChIKey XLYOFNOQVPJJNP-UHFFFAOYSA-N
Kind: experiment
Temperature: 303 K
Tabular data in the source: 0
pressure (bar)	Copper(II) Ion fraction	Copper(II) Ion uptake (mg/g)	Methyl Orange fraction	Methyl Orange uptake (mg/g)	Water fraction	Water uptake (mg/g)	total uptake (mg/g)
1.01325	2.048	17.965	0.1871	1.49466			
1.01325	3.072	31.433	0.3953	2.74338			
1.01325	7.062	40.938	0.7913	3.34458			
1.01325	14.472	44.983	1.7967	3.39014			
1.01325	32.052	43.991	3.9994	3.38908			
