Adsorption isotherm of R-115 on Activated Charcoal
DOI: 10.1021/je025636f
Article source: Figure 1
Adsorbate R-115: InChIKey RFCAUADVODFSLZ-UHFFFAOYSA-N
Kind: experiment
Temperature: 298 K
Tabular data in the source: 0
pressure (bar)	uptake (mmol/g)
0.007379	0.893717
0.023525	1.75934
0.070529	2.72681
0.146941	3.39577
0.24953	3.84079
0.348667	4.10896
0.451035	4.30259
0.581966	4.48637
0.711757	4.62362
0.838235	4.7423
0.993268	4.84184
