Adsorption isotherm of R-115 on Activated Charcoal
DOI: 10.1021/je025636f
Article source: Figure 1
Adsorbate R-115: InChIKey RFCAUADVODFSLZ-UHFFFAOYSA-N
Kind: experiment
Temperature: 318 K
Tabular data in the source: 0
pressure (bar)	uptake (mmol/g)
0.011816	0.94019
0.036556	1.58219
0.088842	2.30747
0.164041	2.84611
0.254485	3.22617
0.354737	3.51295
0.453816	3.71594
0.559473	3.9002
0.68709	4.06542
0.836686	4.23023
0.958768	4.349
