Adsorption isotherm of R-115 on Activated Charcoal
DOI: 10.1021/je025636f
Article source: Figure 1
Adsorbate R-115: InChIKey RFCAUADVODFSLZ-UHFFFAOYSA-N
Kind: experiment
Temperature: 358 K
Tabular data in the source: 0
pressure (bar)	uptake (mmol/g)
0.004592	0.223378
0.025823	0.623355
0.059149	1.03242
0.117734	1.42239
0.186184	1.78424
0.265582	2.09934
0.353656	2.28392
0.456082	2.54272
0.579402	2.81975
0.721248	2.91953
0.852211	3.14055
0.96989	3.2501
