Adsorption isotherm of R-115 on Activated Charcoal
DOI: 10.1021/je025636f
Article source: Figure 1
Adsorbate R-115: InChIKey RFCAUADVODFSLZ-UHFFFAOYSA-N
Kind: experiment
Temperature: 338 K
Tabular data in the source: 0
pressure (bar)	uptake (mmol/g)
0.016064	0.772513
0.045109	1.31201
0.100496	1.81377
0.169036	2.27804
0.258356	2.6302
0.341002	2.88937
0.455572	3.21312
0.585412	3.40623
0.696522	3.54383
0.843977	3.77386
0.982535	3.88301
