Adsorption isotherm of Nitrogen on MgOâ€“TiO2 with 10 mol% TiO2
DOI: 10.1016/j.cattod.2015.07.048
Article source: Figure 1
Adsorbate Nitrogen: InChIKey IJGRMHOSHXDMSA-UHFFFAOYSA-N
Kind: experiment
Temperature: 77 K
Tabular data in the source: 0
pressure (bar)	uptake (cm3(STP)/g)
0.012382	12.947
0.014773	15.172
0.022687	17.886
0.042911	20.869
0.050693	21.759
0.060937	22.516
0.070461	23.184
0.087129	24.076
0.094587	24.699
0.113788	26.081
0.123566	26.082
0.139818	26.578
0.146617	26.72
0.162049	27.71
0.168848	27.711
0.183256	28.277
0.189843	28.277
0.205376	29.409
0.21639	29.975
0.228326	30.117
0.234294	30.117
0.248297	31.249
0.253434	31.461
0.259716	31.885
0.271754	32.31
0.276486	32.31
0.291927	32.877
0.298098	32.948
0.314462	33.938
0.319305	33.868
0.335254	34.222
0.354597	35.848
0.360565	35.849
0.378641	37.234
0.400619	38.245
0.422505	39.031
0.443337	40.603
0.445293	41.107
0.462853	41.95
0.465639	42.398
0.487201	44.474
0.508682	45.933
0.530163	48.345
0.550083	50.409
0.573935	51.167
0.593582	53.616
0.616796	56.554
0.658319	62.201
0.68062	66.351
0.701524	70.837
0.722589	75.248
0.744111	82.057
0.765379	88.687
0.794682	101.057
0.809718	108.266
0.842517	127.398
0.857554	135.897
0.874283	144.351
0.905795	157.454
0.919352	161.267
0.944177	168.892
0.967704	176.909
0.98804	186.552
0.995711	190.813
1.00086	194.288
1.00878	201.183
0.564249	54.137
0.591545	58.319
0.610412	62.322
0.650861	74.644
0.670772	82.874
0.698514	101.023
0.720745	117.838
0.740453	132.74
0.759573	147.064
0.784012	158.897
0.803396	164.457
0.844625	172.493
0.86716	176.406
0.891761	180.916
0.899807	183.674
0.910111	185.32
0.923294	187.121
0.943792	190.372
0.971403	193.511
0.993816	198.31
1.00522	202.758
