Adsorption isotherm of Nitrogen on MgOâ€“TiO2 with 25 mol% TiO2
DOI: 10.1016/j.cattod.2015.07.048
Article source: Figure 1
Adsorbate Nitrogen: InChIKey IJGRMHOSHXDMSA-UHFFFAOYSA-N
Kind: experiment
Temperature: 77 K
Tabular data in the source: 0
pressure (bar)	uptake (cm3(STP)/g)
0.001388	18.85
0.019617	31.002
0.052253	35.875
0.090554	39.194
0.124741	42.231
0.156841	44.152
0.188059	45.048
0.233068	48.77
0.289364	52.773
0.348811	56.929
0.394093	59.955
0.442963	63.766
0.466288	66.237
0.486674	68.285
0.506959	70.686
0.528998	73.582
0.551816	77.108
0.572821	79.238
0.594808	82.713
0.614252	86.79
0.662544	100.87
0.682586	109.907
0.703834	120.28
0.716743	127.849
0.727939	136.653
0.745104	149.662
0.769462	168.166
0.787934	179.999
0.811289	193.217
0.856439	212.264
0.882125	218.85
0.906899	224.635
0.921885	227.261
0.942383	231.132
0.963266	234.825
0.990644	242.301
0.999591	247.597
1.00466	251.959
1.00771	256.632
1.00991	261.795
0.592802	86.276
0.609976	94.835
0.631265	108.06
0.654195	129.06
0.659129	134.716
0.677783	155.655
0.700318	174.008
0.71652	186.347
0.742499	198.78
0.76168	205.778
0.783131	212.108
0.804774	217.104
0.845932	223.798
0.86719	226.434
0.888975	228.624
0.910162	231.215
0.92222	232.911
0.950611	236.262
0.966164	238.45
0.99565	248.168
1.00155	252.311
1.00491	256.853
1.0088	261.663
