Adsorption isotherm of Nitrogen on MgOâ€“TiO2 with 50 mol% TiO2
DOI: 10.1016/j.cattod.2015.07.048
Article source: Figure 1
Adsorbate Nitrogen: InChIKey IJGRMHOSHXDMSA-UHFFFAOYSA-N
Kind: experiment
Temperature: 77 K
Tabular data in the source: 0
pressure (bar)	uptake (cm3(STP)/g)
0.001996	18.462
0.012301	30.207
0.014763	31.363
0.02066	32.342
0.043995	35.722
0.052355	36.834
0.060785	37.1
0.070765	38.212
0.088781	39.59
0.092611	40.435
0.11393	41.102
0.124559	42.08
0.135968	43.014
0.14608	44.348
0.158077	45.193
0.168058	45.281
0.17972	46.082
0.188606	47.104
0.201049	47.771
0.213623	48.438
0.224384	48.971
0.233331	49.416
0.244801	50.928
0.256606	51.639
0.268785	52.973
0.275726	53.018
0.289273	54.174
0.298797	54.173
0.3128	55.819
0.32045	55.952
0.33879	56.796
0.348842	57.552
0.356036	59.509
0.369259	59.019
0.376584	60.042
0.395319	61.243
0.398552	62.444
0.413528	63.066
0.419749	64.356
0.443155	65.333
0.462275	67.17
0.463572	67.023
0.488204	71.248
0.506676	74.54
0.527417	77.297
0.550104	80.544
0.570774	83.078
0.59269	86.992
0.613168	91.93
0.657954	100.914
0.679273	105.851
0.700987	111.189
0.72115	115.904
0.749096	123.063
0.772137	130.76
0.794874	140.857
0.80907	148.766
0.85193	168.572
0.858861	170.529
0.877525	176
0.900729	183.117
0.923669	193.126
0.945697	207.94
0.9628	225.378
0.976591	246.064
0.983653	263.103
0.990837	280.72
0.994971	298.693
0.998457	318
1.0011	336.24
1.0031	355.415
1.00354	373.61
1.00508	391.939
0.48787	74.272
0.508945	78.01
0.530264	81.125
0.551461	84.329
0.570591	88.022
0.594504	93.495
0.612915	96.299
0.658227	105.999
0.680914	111.695
0.697511	117.256
0.720127	128.112
0.740098	139.211
0.759644	152.136
0.785978	161.671
0.80522	166.827
0.847492	176.743
0.864019	181.371
0.887941	189.024
0.912634	199.924
0.932595	213.628
0.935443	215.808
0.953255	234.849
0.955849	239.61
0.966337	259.007
0.975658	278.849
0.976763	283.565
0.982255	302.695
0.987534	321.973
0.991698	342.289
0.995903	364.089
0.99719	367.959
1.00269	388.157
1.00541	391.271
