Adsorption isotherm of Water on MIL-53(Al) Dehydrated
DOI: 10.1021/Ja109810w
Adsorbate Water: InChIKey XLYOFNOQVPJJNP-UHFFFAOYSA-N
Temperature: 298 K
Tabular data in the source: 0
pressure (bar)	uptake (molecules/unitcell)
0.00113113	0.0319396
0.00378629	0.0525806
0.0044745	0.0415687
0.00511387	0.0629011
0.00590116	0.127286
0.00644251	0.18098
0.00703292	0.223881
0.00747616	0.29916
0.00796845	0.363646
0.00855918	0.438875
0.00905158	0.514137
0.00954387	0.578623
0.00998679	0.621575
0.0104298	0.675302
0.0112662	0.728894
0.0123977	0.803937
0.0131844	0.803667
0.0139712	0.824949
0.0158397	0.84586
0.0169709	0.8778
0.018102	0.909739
0.0185445	0.909588
0.0194786	0.909267
0.0205604	0.919672
0.0215929	0.919318
0.0224778	0.919014
0.0235595	0.918643
0.0243954	0.929133
0.0250839	0.950448
0.0264606	0.949976
0.0274442	0.981966
0.0280342	0.981764
0.0286734	0.981545
0.0295094	1.00281
0.0302475	1.06721
0.0305921	1.1102
0.0309861	1.17472
