Adsorption isotherm of Water on MIL-53(Al)-NH2 Dehydrated
DOI: 10.1021/Ja109810w
Adsorbate Water: InChIKey XLYOFNOQVPJJNP-UHFFFAOYSA-N
Temperature: 298 K
Tabular data in the source: 0
pressure (bar)	uptake (molecules/unitcell)
0.000891658	0.678573
0.00167958	0.807614
0.00241791	0.893567
0.00458152	0.925153
0.00630275	0.967666
0.00704045	0.988964
0.00777793	0.988712
0.00851542	0.988459
0.00994144	1.00952
0.0112197	1.00908
0.0119083	1.0304
0.0132849	1.02993
0.0146124	1.02947
0.0157924	1.02907
0.0171201	1.05016
0.0184969	1.07124
0.0197259	1.06004
0.0210043	1.05961
0.0223317	1.05915
0.0233153	1.08037
0.0245935	1.06915
0.025626	1.07957
0.0265601	1.06848
0.0272979	1.10055
0.0279863	1.11109
0.0290188	1.11074
0.0298548	1.132
0.0305437	1.18564
0.0308395	1.27175
