Adsorption isotherm of Water on MIL-53(Al)-OH Dehydrated
DOI: 10.1021/Ja109810w
Adsorbate Water: InChIKey XLYOFNOQVPJJNP-UHFFFAOYSA-N
Temperature: 298 K
Tabular data in the source: 0
pressure (bar)	uptake (molecules/unitcell)
0.000494094	0.247675
0.00108557	0.398335
0.00138183	0.527543
0.00197341	0.688978
0.00246602	0.785792
0.00315529	0.882538
0.00418883	0.989943
0.00487758	1.03281
0.00566455	1.06487
0.00655006	1.11844
0.0073862	1.15048
0.00812421	1.20411
0.0112726	1.38622
0.0122564	1.42899
0.0130432	1.45027
0.0139778	1.49305
0.0145188	1.51442
0.0154041	1.54644
0.0164366	1.54609
0.017814	1.62105
0.0184042	1.64239
0.0218474	1.80285
0.0228804	1.85638
0.0235204	1.94236
0.0238174	2.147
0.0240651	2.34088
0.024313	2.54554
0.0248568	2.84708
0.0250552	3.0302
0.0253031	3.23486
0.0254033	3.42879
0.0256022	3.65501
0.0258498	3.83812
0.0259501	4.03205
0.0263947	4.24741
0.0268885	4.46276
0.0274311	4.64576
0.0278255	4.75339
0.0280721	4.83951
0.0292051	5.05464
0.0297959	5.14064
0.0307309	5.22653
