Adsorption isotherm of Water on MIL-53(Fe)-(COOH)2 Dehydrated
DOI: 10.1021/Ja109810w
Adsorbate Water: InChIKey XLYOFNOQVPJJNP-UHFFFAOYSA-N
Temperature: 298 K
Tabular data in the source: 0
pressure (bar)	uptake (molecules/unitcell)
0.000198888	0.226225
0.000298491	0.355501
0.000643817	0.473917
0.000891023	0.613919
0.00143291	0.721491
0.00197468	0.818288
0.00246697	0.882775
0.00340155	0.925557
0.00551663	1.02181
0.00925396	1.09596
0.0117619	1.14898
0.0152535	1.22322
0.0176631	1.27627
0.0201711	1.32929
0.0216956	1.37187
0.0238103	1.42502
0.0253351	1.48916
0.0280888	1.53131
0.0290234	1.5741
0.0297124	1.64929
0.0303034	1.74607
0.0306976	1.84292
0.030895	1.91828
