Adsorption isotherm of Ethene on MUF-15
DOI: 10.1021/jacs.9b00913
Article source: Figure 2a
Adsorbate Ethene: InChIKey VGGSQFUCUMXWEO-UHFFFAOYSA-N
Kind: experiment
Temperature: 293 K
Tabular data in the source: 0
pressure (bar)	uptake (cm3(STP)/g)
0.004733	1.53
0.009453	2.99
0.019465	5.99
0.040797	11.6
0.062662	17.2
0.088659	22.7
0.118257	28.7
0.149321	34.2
0.178652	39.1
0.218649	44.7
0.254646	49.1
0.290643	53.4
0.32664	56.9
0.361304	60.5
0.397301	62.7
0.431964	65.8
0.467962	68.5
0.503959	71.1
0.537289	73.4
0.573286	75.1
0.60795	77.1
0.642614	79
0.679944	80.8
0.714608	82.5
0.781269	85.4
0.850597	88
0.921258	90.5
1.01458	93.2
