Adsorption isotherm of Ethane on MUF-15
DOI: 10.1021/jacs.9b00913
Article source: Figure 2a
Adsorbate Ethane: InChIKey OTMSDBZUPAUEDD-UHFFFAOYSA-N
Kind: experiment
Temperature: 293 K
Tabular data in the source: 0
pressure (bar)	uptake (cm3(STP)/g)
0.004133	2.76
0.010053	5.3
0.021332	10.8
0.038397	18.5
0.059728	26.8
0.084526	35.4
0.115857	43.7
0.146655	51
0.177319	56.7
0.218649	63.2
0.254646	67.9
0.291976	72
0.327973	75.4
0.362637	78.1
0.398634	81.1
0.433298	83.3
0.469295	85.6
0.503959	87.7
0.538622	89.4
0.573286	91.2
0.609283	92.9
0.643947	94.2
0.678611	95.5
0.714608	96.9
0.781269	99.2
0.85193	101
0.921258	103
1.01458	105
