Adsorption isotherm of Water on Carbonized Fiber PCGF-N
DOI: 10.1039/c3ta10545h
Adsorbate Water: InChIKey XLYOFNOQVPJJNP-UHFFFAOYSA-N
Temperature: 293 K
Tabular data in the source: 0
pressure (bar)	uptake (cm3(STP)/g)
0.000382639	0.71334
0.00196786	4.27011
0.00289713	5
0.00399038	7.84012
0.00464633	10.667
0.0051383	11.3836
0.00573959	12.8054
0.00606756	14.2188
0.00655953	17.7425
0.00721548	21.2711
0.00814475	31.1238
0.00907401	41.6783
0.00929267	52.2112
0.00983929	63.4558
0.0101126	75.3939
0.0101673	85.2201
0.0104952	97.8616
0.0109325	109.805
0.0109872	121.034
0.0113152	131.571
0.0116978	142.109
0.0127911	161.791
0.0143763	176.576
0.0154149	182.923
0.0163988	185.76
0.0176014	190.007
0.0187493	193.55
0.0203345	197.107
0.0213185	201.347
0.0227944	207.006
