Adsorption isotherm of Benzene on Carbonized Fiber PCGF-N
DOI: 10.1039/c3ta10545h
Adsorbate Benzene: InChIKey UHOVQNZJYSORNB-UHFFFAOYSA-N
Temperature: 293 K
Tabular data in the source: 0
pressure (bar)	uptake (cm3(STP)/g)
0.000448536	11.6607
0.000897072	23.106
0.00112134	31.5979
0.00134561	36.5821
0.00179414	44.3351
0.00201841	45.627
0.00291548	47.1023
0.00448536	48.5763
0.00672804	49.3106
0.00897072	49.8603
0.0123347	50.4079
0.0141289	51.5123
0.0172686	51.6911
0.0197356	52.4249
0.0219783	52.6054
0.0248938	53.1538
0.0273607	53.3339
0.0296034	53.8836
0.0322946	54.2478
0.0379013	54.7913
0.0426109	55.3364
0.0479934	55.8802
0.0524787	56.2412
0.0589825	57.1522
0.0636921	57.6973
0.068626	58.0574
0.0740084	58.9705
0.0784938	59.3314
0.0832034	59.8765
0.0881373	60.7904
0.0932955	61.8886
