Adsorption isotherm of Benzene on Carbonized Fiber PCGF-H
DOI: 10.1039/c3ta10545h
Adsorbate Benzene: InChIKey UHOVQNZJYSORNB-UHFFFAOYSA-N
Temperature: 293 K
Tabular data in the source: 0
pressure (bar)	uptake (cm3(STP)/g)
0.000672804	11.8449
0.000897072	19.0445
0.00134561	21.0744
0.00179414	28.8274
0.00224268	34.5497
0.00291548	39.5331
0.00313975	42.1173
0.00381256	44.3314
0.00448536	45.6225
0.0062795	47.096
0.00807365	48.2004
0.0121105	49.116
0.015026	49.6644
0.0179414	50.2129
0.0230996	50.9418
0.028482	51.4857
0.0327431	52.2162
0.0385741	52.9439
0.043508	53.4886
0.0484419	54.0333
0.0531515	54.763
0.0598796	55.489
0.071093	57.1297
0.0798394	58.4058
0.0897072	60.7875
0.0939683	61.8873
