Adsorption isotherm of Benzene on Carbonized Fiber PCGF-H
DOI: 10.1039/c3ta10545h
Adsorbate Benzene: InChIKey UHOVQNZJYSORNB-UHFFFAOYSA-N
Temperature: 293 K
Tabular data in the source: 0
pressure (bar)	uptake (cm3(STP)/g)
0.000625523	24.4468
0.000820816	35.9291
0.00276126	47.0476
0.0040659	48.9044
0.00580959	49.2814
0.00820669	50.0313
0.0121287	51.5277
0.016489	51.9146
0.01845	52.6629
0.0230254	54.5321
0.0276023	55.6607
0.031089	56.7851
0.0343561	58.6494
0.0404564	61.2652
0.0443755	64.2431
0.0496036	66.8556
0.0543904	72.059
0.0598322	76.8945
0.0641815	82.837
0.0689669	88.7812
0.0744006	97.6908
0.0796199	104.748
0.0841843	112.172
0.0880938	119.965
0.0909189	124.791
