Adsorption isotherm of Nitrogen on Carbonized Fiber PCGF-N
DOI: 10.1039/c3ta10545h
Adsorbate Nitrogen: InChIKey IJGRMHOSHXDMSA-UHFFFAOYSA-N
Temperature: 77 K
Tabular data in the source: 0
pressure (bar)	uptake (cm3(STP)/g)
0.000417479	31.5584
0.00174723	132.078
0.00423664	140.26
0.00905311	144.351
0.0400857	150.195
0.075842	153.117
0.104439	154.87
0.156841	156.039
0.206869	157.792
0.2545	158.377
0.304512	158.961
0.352144	159.545
0.404545	160.714
0.449795	161.299
0.504562	161.299
0.549812	161.883
0.599825	162.468
0.647456	163.052
0.692706	163.636
0.742726	164.805
0.790365	165.974
0.840385	167.143
0.890398	167.727
0.949958	170.065
