Adsorption isotherm of Benzene on Carbonized Fiber PCF
DOI: 10.1039/c3ta10545h
Adsorbate Benzene: InChIKey UHOVQNZJYSORNB-UHFFFAOYSA-N
Temperature: 293 K
Tabular data in the source: 0
pressure (bar)	uptake (cm3(STP)/g)
0.000409674	23.3349
0.000430231	12.9646
0.000587346	43.7059
0.000607903	33.3356
0.00210931	45.934
0.00428616	47.7941
0.00668033	50.0254
0.00907817	50.4049
0.0116948	50.4149
0.0138738	51.1639
0.0167071	51.9155
0.0186688	52.2933
0.0212839	53.044
0.0243337	54.5371
0.0254233	54.9116
0.0289114	55.2953
0.031307	56.7859
0.0354471	58.2831
0.0398037	60.522
0.0443791	62.3912
0.0500441	64.635
0.0557032	69.8418
0.0600546	74.6732
0.0641881	79.5037
0.0696284	85.08
0.0737596	91.0216
0.079197	98.0794
0.0833268	104.762
0.0889792	113.302
0.0913697	117.385
