Adsorption isotherm of Benzene on Carbonized Fiber PCF
DOI: 10.1039/c3ta10545h
Adsorbate Benzene: InChIKey UHOVQNZJYSORNB-UHFFFAOYSA-N
Temperature: 293 K
Tabular data in the source: 0
pressure (bar)	uptake (cm3(STP)/g)
0.000897072	18.8599
0.00112134	21.2595
0.00156988	29.3817
0.00224268	38.4266
0.00269122	42.3027
0.0049339	48.0216
0.00672804	49.4952
0.00941926	50.4133
0.0127833	51.6994
0.0186142	52.7963
0.0230996	53.5264
0.028482	54.4395
0.0334159	54.9842
0.0387984	55.5281
0.0432837	56.4428
0.0484419	56.9871
0.0536001	57.3468
0.0605524	58.4416
0.0715415	59.7135
0.0809608	61.173
0.0906043	62.4474
