Adsorption isotherm of Nitrogen on Carbonized Fiber PCGF-H
DOI: 10.1039/c3ta10545h
Adsorbate Nitrogen: InChIKey IJGRMHOSHXDMSA-UHFFFAOYSA-N
Temperature: 77 K
Tabular data in the source: 0
pressure (bar)	uptake (cm3(STP)/g)
0.00156941	118.636
0.00367227	97.5974
0.00644773	127.403
0.0112642	131.494
0.0423277	139.675
0.0709405	142.597
0.101919	144.351
0.156717	146.688
0.209118	147.857
0.254376	149.026
0.302015	150.195
0.352035	151.364
0.40204	151.364
0.449679	152.532
0.497326	154.286
0.54733	154.286
0.592588	155.455
0.642608	156.623
0.690232	156.623
0.745022	158.377
0.790272	158.961
0.842674	160.13
0.890328	162.468
0.937975	164.221
0.95227	164.805
0.971381	169.481
