Adsorption isotherm of Water on Carbonized Fiber PCF
DOI: 10.1039/c3ta10545h
Adsorbate Water: InChIKey XLYOFNOQVPJJNP-UHFFFAOYSA-N
Temperature: 293 K
Tabular data in the source: 0
pressure (bar)	uptake (cm3(STP)/g)
0.000491965	0.0148957
0.00306111	4.30321
0.00409971	5.73817
0.00508363	10.6802
0.00552094	12.097
0.00639554	14.9305
0.00710616	21.9695
0.00819941	33.2307
0.00891003	43.0768
0.00929267	54.3165
0.0096753	66.2579
0.0100033	78.8994
0.0102219	90.1341
0.0104406	101.369
0.0105499	105.583
0.0107139	118.921
0.0110419	128.755
0.0113152	140.693
0.0117525	150.531
0.0129551	166.006
0.0143763	176.576
0.0152509	179.409
0.0162895	184.353
0.0177107	187.905
0.0189133	192.853
0.0202252	196.402
0.0213731	199.244
0.0229037	208.413
