Adsorption isotherm of Nitrogen on Carbonized Fiber PCF
DOI: 10.1039/c3ta10545h
Adsorbate Nitrogen: InChIKey IJGRMHOSHXDMSA-UHFFFAOYSA-N
Temperature: 77 K
Tabular data in the source: 0
pressure (bar)	uptake (cm3(STP)/g)
0.00136067	102.857
0.00337849	75.3896
0.00397378	120.39
0.00661008	139.675
0.0448249	148.442
0.0758034	150.195
0.106782	151.948
0.161572	153.701
0.211585	154.286
0.259216	154.87
0.314006	156.623
0.356875	157.208
0.40688	157.208
0.454511	157.792
0.504531	158.961
0.554544	159.545
0.599786	159.545
0.647417	160.13
0.697437	161.299
0.747442	161.299
0.795089	163.052
0.847475	163.052
0.895106	163.636
0.952308	167.727
