Adsorption isotherm of Benzene on Carbonized Fiber PCGF-N
DOI: 10.1039/c3ta10545h
Adsorbate Benzene: InChIKey UHOVQNZJYSORNB-UHFFFAOYSA-N
Temperature: 293 K
Tabular data in the source: 0
pressure (bar)	uptake (cm3(STP)/g)
0.000408205	24.0756
0.000648283	12.9654
0.000820082	36.2994
0.001671	47.0434
0.00428395	48.9052
0.00580959	49.2814
0.00820522	50.772
0.0138731	51.5343
0.016489	51.9146
0.0186673	53.0341
0.0230262	54.1618
0.0278204	55.6615
0.0310904	56.0443
0.0343568	58.279
0.0402391	60.894
0.0441574	64.2422
0.0496028	67.2259
0.0546085	72.0598
0.0596127	77.6344
0.0639642	82.4658
0.0691849	88.782
0.0744013	97.3204
0.0796191	105.118
0.0839662	112.172
0.0880945	119.595
0.0911363	125.162
