Adsorption isotherm of Water on Carbonized Fiber PCGF-H
DOI: 10.1039/c3ta10545h
Adsorbate Water: InChIKey XLYOFNOQVPJJNP-UHFFFAOYSA-N
Temperature: 293 K
Tabular data in the source: 0
pressure (bar)	uptake (cm3(STP)/g)
0.000819941	1.42833
0.00251449	1.47964
0.00448234	1.53923
0.00617689	4.39755
0.00754346	4.43893
0.00896469	6.58722
0.00972997	8.71566
0.0106592	13.6561
0.0116978	24.2138
0.0125724	41.0824
0.0129004	51.6187
0.0133924	69.1774
0.0138297	85.331
0.0139937	95.1605
0.0145403	113.423
0.0152509	127.479
0.0163988	143.654
0.0179294	153.525
0.0188586	157.764
0.0200612	161.309
0.0214825	164.861
0.0231223	174.033
