Adsorption isotherm of Carbon Dioxide on SNS2-20
DOI: 10.1039/c5ta01776a
Article source: Figure 5d
Adsorbate Carbon Dioxide: InChIKey CURLTUGMZLYLDI-UHFFFAOYSA-N
Kind: experiment
Temperature: 323 K
Tabular data in the source: 0
pressure (bar)	uptake (mmol/g)
0	0
0.013977	0.407407
0.023411	0.481481
0.028107	0.555556
0.042303	0.592593
0.070585	0.851852
0.10839	1.03704
0.1415	1.14815
0.150957	1.18519
0.193545	1.2963
0.19824	1.37037
0.231372	1.44444
0.259764	1.51852
0.273982	1.51852
0.311831	1.62963
0.325983	1.74074
0.34968	1.74074
0.397007	1.85185
0.4349	1.88889
0.453813	1.96296
0.468009	2
0.51062	2.07407
0.515315	2.14815
0.543751	2.14815
0.586339	2.25926
0.628949	2.33333
0.657364	2.37037
0.666842	2.37037
0.718909	2.48148
0.747323	2.51852
0.785194	2.59259
0.827804	2.66667
0.851479	2.7037
0.870436	2.7037
0.903568	2.77778
0.9462	2.81481
0.969853	2.88889
0.98881	2.88889
1.03142	2.96296
