Adsorption isotherm of Carbon Dioxide on NS2
DOI: 10.1039/c5ta01776a
Article source: Figure 5a
Adsorbate Carbon Dioxide: InChIKey CURLTUGMZLYLDI-UHFFFAOYSA-N
Kind: experiment
Temperature: 298 K
Tabular data in the source: 0
pressure (bar)	uptake (mmol/g)
0	0
0.018957	0.129032
0.028436	0.147465
0.037915	0.202765
0.07109	0.40553
0.137441	0.700461
0.146919	0.737327
0.199052	0.921659
0.232227	1.03226
0.260664	1.14286
0.270142	1.17972
0.317536	1.30876
0.327014	1.36406
0.350711	1.41935
0.393365	1.58525
0.43128	1.65899
0.459716	1.76959
0.478673	1.80645
0.511848	1.91705
0.526066	1.93548
0.554502	2.00922
0.587678	2.11982
0.630332	2.21198
0.658768	2.30415
0.677725	2.34101
0.706161	2.41475
0.720379	2.48848
0.753555	2.54378
0.791469	2.65438
0.829384	2.72811
0.85782	2.78341
0.872038	2.82028
0.909953	2.91244
0.924171	2.94931
0.947867	3.02304
0.990521	3.11521
1.02844	3.20737
