Adsorption isotherm of Carbon Dioxide on NS1
DOI: 10.1039/c5ta01776a
Article source: Figure 5a
Adsorbate Carbon Dioxide: InChIKey CURLTUGMZLYLDI-UHFFFAOYSA-N
Kind: experiment
Temperature: 298 K
Tabular data in the source: 0
pressure (bar)	uptake (mmol/g)
0	0
0.009479	0.147465
0.028436	0.276498
0.037915	0.368664
0.07109	0.608295
0.118483	0.847926
0.137441	0.976959
0.151659	1.01382
0.194313	1.23502
0.232227	1.36406
0.255924	1.49309
0.270142	1.49309
0.308057	1.64055
0.336493	1.73272
0.36019	1.76959
0.398104	1.91705
0.417062	1.97235
0.436019	2.06452
0.459716	2.11982
0.483412	2.17512
0.507109	2.21198
0.530806	2.28571
0.559242	2.35945
0.592417	2.45161
0.625592	2.52535
0.63981	2.59908
0.668246	2.63594
0.706161	2.72811
0.729858	2.76498
0.758294	2.83871
0.791469	2.91244
0.834123	3.00461
0.848341	3.02304
0.867299	3.05991
0.909953	3.15207
0.92891	3.18894
0.952607	3.22581
0.990521	3.29954
1.02844	3.37327
