Adsorption isotherm of Carbon Dioxide on SNS2-20
DOI: 10.1039/c5ta01776a
Article source: Figure 5d
Adsorbate Carbon Dioxide: InChIKey CURLTUGMZLYLDI-UHFFFAOYSA-N
Kind: experiment
Temperature: 273 K
Tabular data in the source: 0
pressure (bar)	uptake (mmol/g)
0	0
0	0.888889
0.009524	1.14815
0.014286	1.37037
0.019048	1.55556
0.038095	1.74074
0.071429	2.25926
0.104762	2.66667
0.128571	2.96296
0.147619	3.03704
0.185714	3.37037
0.22381	3.62963
0.271429	3.92593
0.309524	4.11111
0.338095	4.25926
0.357143	4.33333
0.385714	4.55556
0.395238	4.62963
0.433333	4.74074
0.461905	4.88889
0.509524	5.07407
0.528571	5.18519
0.552381	5.2963
0.595238	5.48148
0.628571	5.59259
0.666667	5.74074
0.719048	5.96296
0.747619	6.03704
0.8	6.22222
0.828571	6.25926
0.857143	6.37037
0.871429	6.44444
0.919048	6.55556
0.933333	6.62963
0.952381	6.7037
0.990476	6.81481
1.03333	6.92593
