Adsorption isotherm of Carbon Dioxide on SNS2-20
DOI: 10.1039/c5ta01776a
Article source: Figure 5d
Adsorbate Carbon Dioxide: InChIKey CURLTUGMZLYLDI-UHFFFAOYSA-N
Kind: experiment
Temperature: 298 K
Tabular data in the source: 0
pressure (bar)	uptake (mmol/g)
0	0
0.018497	0.777778
0.027909	0.888889
0.037278	1.07407
0.0703	1.33333
0.075018	1.37037
0.112757	1.66667
0.126865	1.85185
0.15054	1.88889
0.188345	2.07407
0.197736	2.22222
0.230867	2.2963
0.268672	2.48148
0.31126	2.59259
0.330152	2.7037
0.353805	2.77778
0.39161	2.96296
0.43422	3.03704
0.457851	3.14815
0.472069	3.14815
0.514635	3.2963
0.547744	3.40741
0.595072	3.51852
0.632921	3.62963
0.656574	3.7037
0.670792	3.7037
0.708641	3.81481
0.722837	3.85185
0.751229	3.92593
0.784338	4.03704
0.826948	4.11111
0.850601	4.18519
0.879015	4.22222
0.907407	4.2963
0.921603	4.33333
0.945278	4.37037
0.983127	4.48148
1.02574	4.55556
