Adsorption isotherm of Carbon Dioxide on SNS2-10
DOI: 10.1039/c5ta01776a
Article source: Figure 5c
Adsorbate Carbon Dioxide: InChIKey CURLTUGMZLYLDI-UHFFFAOYSA-N
Kind: experiment
Temperature: 323 K
Tabular data in the source: 0
pressure (bar)	uptake (mmol/g)
0	0
0.009615	0.330275
0.024039	0.440367
0.033654	0.513761
0.052885	0.66055
0.072115	0.770642
0.120192	0.917431
0.139423	1.02752
0.153846	1.02752
0.192308	1.21101
0.230769	1.2844
0.259615	1.3578
0.264423	1.3578
0.3125	1.50459
0.322115	1.50459
0.350962	1.57798
0.389423	1.68807
0.4375	1.76147
0.456731	1.83486
0.475962	1.83486
0.514423	1.90826
0.519231	1.94495
0.552885	1.98165
0.591346	2.09174
0.596154	2.09174
0.634615	2.12844
0.658654	2.20183
0.673077	2.20183
0.721154	2.27523
0.745192	2.31193
0.764423	2.34862
0.783654	2.38532
0.798077	2.42202
0.831731	2.45872
0.850962	2.49541
0.875	2.53211
0.918269	2.6055
0.951923	2.6422
0.980769	2.75229
0.995192	2.75229
1.03365	2.78899
