Adsorption isotherm of Nitrogen on NS2
DOI: 10.1039/c5ta01776a
Article source: Figure 2a
Adsorbate Nitrogen: InChIKey IJGRMHOSHXDMSA-UHFFFAOYSA-N
Kind: experiment
Temperature: 77 K
Tabular data in the source: 0
pressure (bar)	uptake (cm3(STP)/g)
0	0
0.002552	101.037
0.007657	421.576
0.010209	470.348
0.02297	515.6
0.033179	536.471
0.045941	557.333
0.053598	581.697
0.061254	602.577
0.071464	616.479
0.084225	633.857
0.094434	647.759
0.102091	654.701
0.130165	692.932
0.160793	727.67
0.188868	755.448
0.196525	758.906
0.222048	779.724
0.257779	803.992
0.273092	814.392
0.293511	817.806
0.319033	831.656
0.3369	838.563
0.354765	841.986
0.377736	848.875
0.400706	855.765
0.416019	855.712
0.433886	859.135
0.456856	862.54
0.472169	859.004
0.492587	862.418
0.507901	865.849
0.525767	869.272
0.553841	872.66
0.571708	872.598
0.589574	872.537
0.612544	875.942
0.625305	875.899
0.640619	875.846
0.648275	875.82
0.668694	879.234
0.691665	879.155
0.704426	879.111
0.729948	875.539
0.758023	878.926
0.768232	882.376
0.788651	882.305
0.796307	882.279
0.824382	885.667
0.829487	885.649
0.852457	885.57
0.860113	889.028
0.888189	892.416
0.921368	888.818
0.951996	895.681
0.987727	899.042
1.00049	898.999
1.00559	902.465
