Adsorption isotherm of Nitrogen on SNS2-10
DOI: 10.1039/c5ta01776a
Article source: Figure 2a
Adsorbate Nitrogen: InChIKey IJGRMHOSHXDMSA-UHFFFAOYSA-N
Kind: experiment
Temperature: 77 K
Tabular data in the source: 0
pressure (bar)	uptake (cm3(STP)/g)
0	0
0.002552	101.037
0.005105	393.711
0.012761	411.106
0.025523	442.421
0.038284	463.283
0.051045	480.661
0.066359	501.514
0.07912	511.923
0.089329	529.31
0.102091	539.719
0.132718	564.004
0.140375	574.43
0.165897	591.764
0.196525	612.565
0.214391	619.472
0.229704	622.903
0.255227	633.269
0.273092	636.692
0.285854	643.616
0.306272	647.03
0.331795	646.943
0.357318	653.824
0.385393	653.727
0.408363	660.617
0.428781	664.031
0.454304	667.427
0.469617	667.375
0.49514	667.287
0.520663	667.199
0.558946	667.067
0.584469	666.98
0.617649	666.866
0.63041	670.306
0.658485	677.178
0.671247	677.134
0.68656	677.082
0.699321	673.553
0.719739	673.483
0.729948	673.448
0.747814	676.871
0.768232	676.801
0.780994	676.757
0.796307	676.704
0.816725	680.118
0.829487	680.074
0.842248	680.031
0.857562	676.494
0.872875	676.441
0.890741	683.348
0.911159	679.794
0.926473	683.225
0.941786	679.688
0.985175	686.508
1.00814	689.913
