Adsorption isotherm of Carbon Dioxide on SNS2-10
DOI: 10.1039/c5ta01776a
Article source: Figure 5c
Adsorbate Carbon Dioxide: InChIKey CURLTUGMZLYLDI-UHFFFAOYSA-N
Kind: experiment
Temperature: 273 K
Tabular data in the source: 0
pressure (bar)	uptake (mmol/g)
0	0
0.004808	0.587156
0.009615	0.880734
0.014423	1.10092
0.028846	1.2844
0.033654	1.50459
0.067308	2.01835
0.076923	2.05505
0.105769	2.34862
0.129808	2.6055
0.149038	2.75229
0.192308	3.08257
0.235577	3.30275
0.269231	3.55963
0.3125	3.77982
0.341346	3.92661
0.350962	4
0.399038	4.22018
0.403846	4.25688
0.432692	4.40367
0.461538	4.55046
0.471154	4.58716
0.514423	4.73394
0.524038	4.84404
0.548077	4.95413
0.591346	5.10092
0.596154	5.17431
0.634615	5.24771
0.668269	5.3945
0.716346	5.61468
0.730769	5.65138
0.75	5.72477
0.798077	5.87156
0.836538	6.05505
0.860577	6.12844
0.870192	6.16514
0.913462	6.27523
0.932692	6.38532
0.951923	6.38532
0.995192	6.53211
1.03365	6.6789
