Adsorption isotherm of Carbon Dioxide on NS2
DOI: 10.1039/c5ta01776a
Article source: Figure 5b
Adsorbate Carbon Dioxide: InChIKey CURLTUGMZLYLDI-UHFFFAOYSA-N
Kind: experiment
Temperature: 323 K
Tabular data in the source: 0
pressure (bar)	uptake (mmol/g)
0	0
0.02837	0.096774
0.033066	0.16129
0.06622	0.193548
0.118287	0.290323
0.127722	0.354839
0.146657	0.387097
0.193963	0.516129
0.236596	0.548387
0.25077	0.612903
0.274467	0.612903
0.317055	0.709677
0.321773	0.741935
0.359665	0.774194
0.392775	0.870968
0.430668	0.903226
0.459039	1
0.473257	1
0.50641	1.03226
0.515845	1.09677
0.55376	1.09677
0.58687	1.19355
0.634241	1.22581
0.643676	1.29032
0.672112	1.29032
0.714701	1.3871
0.724158	1.41935
0.752594	1.41935
0.780986	1.48387
0.833053	1.58065
0.85201	1.58065
0.870946	1.6129
0.913556	1.67742
0.946688	1.74194
0.98932	1.77419
1.03191	1.87097
