Adsorption isotherm of Carbon Dioxide on NS3
DOI: 10.1039/c5ta01776a
Article source: Figure 5a
Adsorbate Carbon Dioxide: InChIKey CURLTUGMZLYLDI-UHFFFAOYSA-N
Kind: experiment
Temperature: 298 K
Tabular data in the source: 0
pressure (bar)	uptake (mmol/g)
0	0
0.014218	0.073733
0.028436	0.129032
0.066351	0.294931
0.104265	0.423963
0.137441	0.534562
0.151659	0.552995
0.189573	0.682028
0.194313	0.737327
0.232227	0.829493
0.255924	0.921659
0.274882	0.940092
0.312796	1.05069
0.322275	1.10599
0.35545	1.16129
0.393365	1.29032
0.436019	1.38249
0.459716	1.49309
0.469194	1.49309
0.511848	1.60369
0.521327	1.65899
0.549763	1.69585
0.587678	1.80645
0.635071	1.89862
0.654028	1.97235
0.672986	2.00922
0.7109	2.10138
0.71564	2.11982
0.758294	2.19355
0.791469	2.28571
0.834123	2.35945
0.853081	2.43318
0.872038	2.47005
0.909953	2.56221
0.919431	2.58065
0.952607	2.65438
0.990521	2.74654
1.02844	2.82028
