Adsorption isotherm of Carbon Dioxide on NS2
DOI: 10.1039/c5ta01776a
Article source: Figure 5b
Adsorbate Carbon Dioxide: InChIKey CURLTUGMZLYLDI-UHFFFAOYSA-N
Kind: experiment
Temperature: 273 K
Tabular data in the source: 0
pressure (bar)	uptake (mmol/g)
0	0
0.014087	0.193548
0.0235	0.290323
0.028152	0.419355
0.037565	0.516129
0.047	0.580645
0.065805	0.806452
0.075218	0.903226
0.112914	1.22581
0.131784	1.35484
0.150654	1.48387
0.193133	1.74194
0.202547	1.83871
0.235613	2
0.268613	2.25806
0.306397	2.45161
0.329984	2.6129
0.348876	2.70968
0.391399	2.90323
0.400834	2.96774
0.429183	3.09677
0.466967	3.29032
0.514207	3.51613
0.52836	3.6129
0.552013	3.67742
0.594514	3.90323
0.627602	4.03226
0.660646	4.22581
0.670125	4.22581
0.70793	4.3871
0.726822	4.48387
0.750453	4.58065
0.788259	4.74194
0.830804	4.90323
0.859174	5
0.863891	5.03226
0.906436	5.19355
0.920611	5.25806
0.944242	5.35484
0.991526	5.51613
1.02935	5.64516
