Adsorption isotherm of Nitrogen on SNS2-20
DOI: 10.1039/c5ta01776a
Article source: Figure 2a
Adsorbate Nitrogen: InChIKey IJGRMHOSHXDMSA-UHFFFAOYSA-N
Kind: experiment
Temperature: 77 K
Tabular data in the source: 0
pressure (bar)	uptake (cm3(STP)/g)
0	0
0.002552	101.037
0.007657	358.859
0.012761	379.747
0.020418	397.142
0.030627	418.013
0.040836	435.4
0.053598	452.777
0.063807	459.711
0.076568	480.573
0.084225	487.515
0.091882	490.973
0.109747	504.849
0.132718	532.645
0.15824	549.978
0.19142	570.77
0.229704	588.06
0.255227	594.941
0.262884	598.399
0.278197	601.831
0.290959	601.787
0.30372	601.743
0.324138	608.641
0.339452	612.073
0.377736	618.91
0.413467	618.787
0.441542	625.659
0.459409	622.114
0.482379	622.035
0.49514	621.991
0.51811	628.88
0.543633	628.793
0.594678	628.617
0.632962	628.485
0.671247	631.838
0.691665	635.252
0.717187	635.164
0.740158	631.601
0.765681	634.998
0.793755	641.87
0.816725	638.306
0.834592	638.245
0.867771	638.131
0.888189	638.061
0.916264	637.964
0.941786	637.876
0.959652	641.299
0.985175	648.18
1.00304	651.603
