Adsorption isotherm of Carbon Dioxide on SNS2-10
DOI: 10.1039/c5ta01776a
Article source: Figure 5c
Adsorbate Carbon Dioxide: InChIKey CURLTUGMZLYLDI-UHFFFAOYSA-N
Kind: experiment
Temperature: 298 K
Tabular data in the source: 0
pressure (bar)	uptake (mmol/g)
0	0
0.019231	0.697248
0.033654	0.880734
0.0625	1.13761
0.076923	1.21101
0.115385	1.43119
0.129808	1.61468
0.153846	1.68807
0.197115	1.90826
0.201923	1.90826
0.235577	2.05505
0.259615	2.12844
0.278846	2.20183
0.317308	2.34862
0.331731	2.45872
0.355769	2.49541
0.394231	2.6789
0.442308	2.75229
0.466346	2.86239
0.485577	2.93578
0.519231	3.04587
0.528846	3.08257
0.557692	3.11927
0.591346	3.26606
0.634615	3.33945
0.663462	3.41284
0.677885	3.44954
0.711538	3.55963
0.730769	3.59633
0.754808	3.63303
0.793269	3.70642
0.826923	3.77982
0.860577	3.85321
0.875	3.92661
0.913462	4
0.961538	4.11009
0.990385	4.14679
1.03365	4.22018
