Adsorption isotherm of Carbon Dioxide on NS2
DOI: 10.1039/c5ta01776a
Article source: Figure 5b
Adsorbate Carbon Dioxide: InChIKey CURLTUGMZLYLDI-UHFFFAOYSA-N
Kind: experiment
Temperature: 298 K
Tabular data in the source: 0
pressure (bar)	uptake (mmol/g)
0	0
0.03774	0.258065
0.066089	0.387097
0.113351	0.580645
0.155896	0.741935
0.193701	0.903226
0.236246	1.06452
0.264617	1.16129
0.31664	1.32258
0.326075	1.3871
0.349728	1.45161
0.397034	1.58065
0.434883	1.67742
0.458514	1.77419
0.472732	1.77419
0.515277	1.93548
0.553148	2
0.590976	2.12903
0.628825	2.22581
0.661913	2.35484
0.718719	2.45161
0.74709	2.54839
0.789678	2.64516
0.832267	2.74194
0.865377	2.83871
0.889051	2.87097
0.922161	2.96774
0.945814	3.03226
0.988403	3.12903
1.03101	3.19355
