Adsorption isotherm of Carbon Dioxide on Rht-MOF-7
DOI: 10.1039/C1cc15962c
Adsorbate Carbon Dioxide: InChIKey CURLTUGMZLYLDI-UHFFFAOYSA-N
Temperature: 273 K
Tabular data in the source: 0
pressure (bar)	uptake (mmol/g)
0.00212802	0.0772018
0.0300365	0.745423
0.119204	1.60872
0.176661	2.13762
0.272875	2.98881
0.370381	3.73382
0.527575	4.71896
0.629581	5.28298
0.787369	6.00912
0.897782	6.47013
0.991764	6.83231
1.04064	7.03712
