Adsorption isotherm of Carbon Dioxide on Rht-MOF-1
DOI: 10.1039/C1cc15962c
Adsorbate Carbon Dioxide: InChIKey CURLTUGMZLYLDI-UHFFFAOYSA-N
Temperature: 273 K
Tabular data in the source: 0
pressure (bar)	uptake (mmol/g)
0.00214934	0.0768148
0.111773	1.0486
0.168781	1.43671
0.269661	2.07081
0.378276	2.46517
0.478275	2.91669
0.57256	3.28991
0.675902	3.69727
0.777168	4.04303
0.892692	4.3947
0.997522	4.74194
1.0336	4.84804
