Adsorption isotherm of N-Butane on CuBTC
DOI: 10.1016/j.micromeso.2008.06.003
Adsorbate N-Butane: InChIKey IJDNQMDRQITEOD-UHFFFAOYSA-N
Temperature: 300 K
Tabular data in the source: 0
pressure (bar)	uptake (Fractional Occupancy)
9.95866e-06	0.00232339
2.06542e-05	0.00486741
4.98151e-05	0.0103521
0.000198701	0.034107
0.000969251	0.0869422
0.00206143	0.123023
0.00300631	0.168902
0.0193391	0.666967
0.0502994	0.741288
0.101729	0.775623
0.508867	0.836419
1.02917	0.875161
