Adsorption isotherm of N-Butane on CuBTC
DOI: 10.1016/j.micromeso.2008.06.003
Adsorbate N-Butane: InChIKey IJDNQMDRQITEOD-UHFFFAOYSA-N
Temperature: 300 K
Tabular data in the source: 0
pressure (bar)	uptake (Fractional Occupancy)
1.02123e-05	0.0160366
2.06542e-05	0.0280307
4.98151e-05	0.0497404
9.82469e-05	0.0682899
0.000203763	0.0830934
0.000491449	0.0966302
0.00101926	0.115816
0.00201022	0.161425
0.00608017	0.443741
0.0203369	0.69786
0.106978	0.775623
0.496227	0.82389
1.05539	0.862051
