Adsorption isotherm of Neopentane on CuBTC
DOI: 10.1016/j.micromeso.2008.06.003
Adsorbate Neopentane: InChIKey CRSOQBOWXPBRES-UHFFFAOYSA-N
Temperature: 300 K
Tabular data in the source: 0
pressure (bar)	uptake (Fractional Occupancy)
1.97103e-05	0.0129871
4.91945e-05	0.0279083
9.9738e-05	0.0533827
0.000193977	0.108229
0.000259501	0.154747
0.000347158	0.221259
0.000474181	0.332541
0.000689357	0.561493
0.00104472	0.714606
0.00194909	0.732656
0.0050712	0.789587
0.0100699	0.81629
0.020416	0.823106
0.0509558	0.843896
0.0991021	0.865212
