Adsorption isotherm of Neopentane on CuBTC
DOI: 10.1016/j.micromeso.2008.06.003
Adsorbate Neopentane: InChIKey CRSOQBOWXPBRES-UHFFFAOYSA-N
Temperature: 300 K
Tabular data in the source: 0
pressure (bar)	uptake (Fractional Occupancy)
9.11057e-06	0.0149336
1.70866e-05	0.0254543
3.54374e-05	0.0484647
7.34968e-05	0.0860005
0.000109915	0.123541
0.000168567	0.181077
0.000222301	0.252385
0.000278779	0.377445
0.000316142	0.490306
0.000316142	0.75573
0.00105743	0.962145
0.00304141	0.99163
0.010432	1.01179
0.0216359	1.01179
