Adsorption isotherm of Neopentane on CuBTC
DOI: 10.1016/j.micromeso.2008.06.003
Adsorbate Neopentane: InChIKey CRSOQBOWXPBRES-UHFFFAOYSA-N
Temperature: 300 K
Tabular data in the source: 0
pressure (bar)	uptake (Fractional Occupancy)
5.90314e-06	0.00987063
1.24762e-05	0.0188804
2.18692e-05	0.0332328
4.43381e-05	0.064098
8.10182e-05	0.107333
0.000122783	0.15998
0.000189986	0.283945
0.000243812	0.585329
0.000282	0.823106
0.000634356	0.87972
0.001909	0.894472
0.00496687	0.894472
0.0102815	0.909472
