Adsorption isotherm of Neopentane on CuBTC
DOI: 10.1016/j.micromeso.2008.06.003
Adsorbate Neopentane: InChIKey CRSOQBOWXPBRES-UHFFFAOYSA-N
Temperature: 300 K
Tabular data in the source: 0
pressure (bar)	uptake (Fractional Occupancy)
1.03316e-05	0.0150846
2.08954e-05	0.0267677
5.16806e-05	0.0520012
0.000101926	0.0842872
0.000211394	0.119868
0.000367644	0.162105
0.000592913	0.265407
0.00098057	0.42162
0.00203369	0.611789
0.00515806	0.77889
0.0200633	0.887733
0.052183	0.924191
0.102917	0.933537
