Adsorption isotherm of N-Butane on CuBTC
DOI: 10.1016/j.micromeso.2008.06.003
Adsorbate N-Butane: InChIKey IJDNQMDRQITEOD-UHFFFAOYSA-N
Temperature: 300 K
Tabular data in the source: 0
pressure (bar)	uptake (Fractional Occupancy)
1.21786e-05	0.00566036
2.52582e-05	0.0124075
6.40626e-05	0.0267898
0.000117163	0.0447535
0.000282581	0.102643
0.000664616	0.182141
0.00127822	0.299716
0.00211394	0.508301
0.00265101	0.764005
0.0072508	0.929622
0.0154212	0.95811
0.0311889	1.01773
