Adsorption isotherm of N-Butane on CuBTC
DOI: 10.1016/j.micromeso.2008.06.003
Adsorbate N-Butane: InChIKey IJDNQMDRQITEOD-UHFFFAOYSA-N
Temperature: 300 K
Tabular data in the source: 0
pressure (bar)	uptake (Fractional Occupancy)
0.00083347	0.0150971
0.00148645	0.029329
0.00222301	0.0489954
0.00332453	0.0747626
0.00956212	0.119365
0.00956212	0.95811
0.0336335	0.187723
0.0336335	1.00249
0.0584936	0.304274
0.0584936	1.00249
0.115363	0.531845
0.115363	1.01773
0.181428	0.875161
0.181428	1.04892
