Adsorption isotherm of Nitrogen on {[Zn2(L)(OH)]*2DMF*H2O}n
DOI: 10.1021/Ic202624e
Adsorbate Nitrogen: InChIKey IJGRMHOSHXDMSA-UHFFFAOYSA-N
Temperature: 77 K
Tabular data in the source: 0
pressure (bar)	uptake (cm3(STP)/g)
0	2.4
0.00167203	123.6
0.0117042	129.6
0.0267525	134.4
0.0401287	137.4
0.053505	141
0.0702252	145.8
0.105338	150
0.150483	155.4
0.193955	160.8
0.240772	167.4
0.285917	172.2
0.32939	178.8
0.374535	183.6
0.423024	189
0.468168	193.8
0.509969	201.6
0.56013	206.4
0.601931	211.8
0.648748	216
0.695564	222
0.739037	227.4
0.78251	231.6
0.829327	237.6
0.876144	242.4
0.919616	247.2
0.966433	254.4
1.00656	261.6
1.01325	269.4
