Adsorption isotherm of Carbon Dioxide on {[Zn2(L)(OH)]*2DMF*H2O}n
DOI: 10.1021/Ic202624e
Adsorbate Carbon Dioxide: InChIKey CURLTUGMZLYLDI-UHFFFAOYSA-N
Temperature: 273 K
Tabular data in the source: 0
pressure (bar)	uptake (cm3(STP)/g)
0.111726	5.21783
0.195374	9.25608
0.300744	13.8707
0.406125	18.3285
0.505321	22.3303
0.607638	26.168
0.706845	30.0129
0.806076	33.5442
0.908427	36.9113
0.998387	39.6801
