Adsorption isotherm of Nitrogen on Î±-CuV2O6
DOI: 10.1039/c6cy02561g
Article source: Figure 2
Adsorbate Nitrogen: InChIKey IJGRMHOSHXDMSA-UHFFFAOYSA-N
Kind: experiment
Temperature: 77 K
Tabular data in the source: 0
pressure (bar)	uptake (mmol/g)
0.008511	2.25
0.048787	2.838
0.085679	3.425
0.162502	4.262
0.193638	4.48
0.211917	4.758
0.230186	4.852
0.267756	5.193
0.302611	5.534
0.32089	5.874
0.351013	6.153
0.359474	6.308
0.401776	6.711
0.410237	6.742
0.4549	7.023
0.462347	7.116
0.509057	7.642
0.557104	8.046
0.605506	8.85
0.612619	9.066
0.656614	9.377
0.706708	10.242
0.717539	10.274
0.756457	10.892
0.767623	10.893
0.808588	11.943
0.81638	12.128
0.857345	13.393
0.866484	13.609
0.876981	14.01
0.90985	15.767
0.923752	17.061
0.95123	20.573
0.960035	20.666
0.965821	22.298
0.966905	25.284
0.974423	28.547
0.980969	33.504
0.98259	30.333
0.98721	40.123
0.991172	35.721
0.993482	48.158
0.996025	40.677
0.99713	44.587
0.998082	56.746
1.0025	57.424
1.00568	48.682
1.00605	64.72
