Adsorption isotherm of Nitrogen on P(EVPI-Br)
DOI: 10.1039/c6cy02561g
Article source: Figure 3
Adsorbate Nitrogen: InChIKey IJGRMHOSHXDMSA-UHFFFAOYSA-N
Kind: experiment
Temperature: 77 K
Tabular data in the source: 0
pressure (bar)	uptake (mmol/g)
0.006008	1.027
0.00842	2.388
0.016019	9.923
0.040945	12.906
0.058433	14.216
0.076316	14.845
0.097919	35.445
0.103866	15.683
0.126289	36.303
0.126573	17.49
0.15162	36.635
0.156129	18.146
0.175937	36.9
0.182665	19.299
0.197722	37.363
0.209202	20.242
0.225079	37.826
0.234532	21.054
0.24889	38.223
0.257046	21.893
0.276754	38.158
0.283583	22.941
0.300565	38.621
0.30711	23.597
0.350213	39.284
0.360983	24.777
0.398858	40.012
0.412861	26.35
0.452559	40.938
0.460503	27.53
0.503221	41.93
0.513576	29.025
0.553376	42.988
0.563437	30.467
0.597451	43.551
0.614098	31.882
0.660778	44.577
0.662956	33.403
0.702908	46.172
0.71301	35.342
0.756984	47.143
0.764472	37.229
0.806643	49.37
0.812317	39.429
0.861124	51.78
0.862573	42.31
0.909202	46.132
0.913781	55.55
0.933661	60.758
0.948789	51.628
0.95963	54.664
0.966003	67.117
0.966996	69.236
0.980837	76.013
0.981516	61.729
0.984323	63.299
0.992672	81.978
0.995144	70.807
0.999744	76.38
1.00714	83.784
