Adsorption isotherm of Methane on UMCM-1
DOI: 10.1021/Jp906417z
Adsorbate Methane: InChIKey VNWKTOKETHGBQD-UHFFFAOYSA-N
Temperature: 338 K
Tabular data in the source: 0
pressure (bar)	uptake (cm3(STP)/g)
0.380627	0.00366133
1.03299	0.010984
1.22318	0.01373
1.54929	0.017849
1.73961	0.0196796
1.98424	0.0224256
2.20166	0.0251716
2.44623	0.0283753
2.58216	0.0297483
2.79957	0.0324943
3.23452	0.0370709
3.53341	0.0411899
3.75089	0.0434783
3.9683	0.0462243
4.21294	0.0489703
4.34868	0.0517162
4.56628	0.0530892
4.81091	0.0558352
5.02832	0.0585812
5.24574	0.0613272
5.84371	0.0681922
6.22421	0.0727689
6.44163	0.0755149
6.65904	0.0782609
6.87645	0.0810069
7.09386	0.0837529
7.31128	0.0864989
7.52869	0.0892449
7.7461	0.0919908
7.93623	0.0951945
8.1266	0.0965675
8.34401	0.0993135
8.56143	0.102059
8.77884	0.104805
8.99631	0.107094
9.21372	0.10984
9.43114	0.112586
9.64855	0.115332
9.89312	0.118535
10.1105	0.121281
10.328	0.12357
10.5454	0.126773
10.7628	0.129062
10.9802	0.131808
11.1977	0.134554
