Adsorption isotherm of Methane on UMCM-1
DOI: 10.1021/Jp906417z
Adsorbate Methane: InChIKey VNWKTOKETHGBQD-UHFFFAOYSA-N
Temperature: 318 K
Tabular data in the source: 0
pressure (bar)	uptake (cm3(STP)/g)
0.516182	0.00778032
0.950944	0.01373
1.60306	0.0228833
2.63567	0.0366133
3.315	0.0457666
4.67374	0.0636156
5.95086	0.0810069
6.6302	0.0901602
8.72277	0.116705
10.7068	0.140961
12.3917	0.162014
