Adsorption isotherm of Methane on UMCM-1
DOI: 10.1021/Jp906417z
Adsorbate Methane: InChIKey VNWKTOKETHGBQD-UHFFFAOYSA-N
Temperature: 298 K
Tabular data in the source: 0
pressure (bar)	uptake (cm3(STP)/g)
0.543281	0.00869565
1.11379	0.0173913
1.71139	0.0270023
3.64019	0.0567506
5.10731	0.0782609
6.52006	0.0993135
7.30816	0.109382
9.61784	0.140961
11.7644	0.170709
13.6395	0.194966
