Adsorption isotherm of Methane on UMCM-1
DOI: 10.1021/Jp906417z
Adsorbate Methane: InChIKey VNWKTOKETHGBQD-UHFFFAOYSA-N
Temperature: 298 K
Tabular data in the source: 0
pressure (bar)	uptake (cm3(STP)/g)
0.624577	0.0114416
0.814703	0.0146453
1.14063	0.0201373
1.33082	0.0228833
1.54811	0.0265446
1.79262	0.0302059
1.98275	0.0334096
2.17294	0.0361556
2.39029	0.0393593
2.58048	0.0421053
2.79783	0.0453089
2.96079	0.0480549
3.1782	0.0508009
3.36833	0.0540046
3.5858	0.0562929
3.72161	0.0585812
3.91174	0.0617849
4.12915	0.0645309
4.31934	0.0672769
4.53669	0.0704805
4.72687	0.0732265
4.94422	0.0764302
5.16182	0.0778032
5.29744	0.0814645
5.51485	0.0842105
5.70498	0.0874142
5.92239	0.0901602
6.11258	0.0929062
6.32993	0.0961098
6.52018	0.0983982
6.71037	0.101144
6.90056	0.10389
7.11797	0.106636
7.28094	0.109382
7.49841	0.11167
7.6886	0.114416
7.90595	0.11762
8.12336	0.120366
8.31355	0.123112
8.53096	0.125858
8.74831	0.129062
8.96572	0.131808
9.15598	0.134096
9.37333	0.1373
9.53623	0.140503
9.75377	0.142334
9.97118	0.14508
10.1614	0.147826
10.3788	0.150572
10.5962	0.153318
10.8136	0.156064
11.031	0.159268
11.2211	0.162014
11.4386	0.16476
11.656	0.167506
11.7373	0.170252
11.9549	0.171625
12.1723	0.174371
12.3897	0.177117
12.6071	0.179863
12.8245	0.182609
13.0147	0.185355
13.2321	0.188101
13.4495	0.190847
13.6124	0.194508
