Adsorption isotherm of Oxygen on UMCM-1
DOI: 10.1021/Jp906417z
Adsorbate Oxygen: InChIKey MYMOFIZGZYHOMD-UHFFFAOYSA-N
Temperature: 318 K
Tabular data in the source: 0
pressure (bar)	uptake (mmol/g)
0.747872	0.144176
1.94934	0.361027
3.15081	0.554435
5.20211	0.906085
6.43288	1.09363
9.15817	1.53905
11.649	1.96103
13.0556	2.17789
14.8432	2.48265
17.0703	2.82844
18.7406	3.10976
20.9677	3.49657
24.2205	3.95958
