Adsorption isotherm of Methane on UMCM-1
DOI: 10.1021/Jp906417z
Adsorbate Methane: InChIKey VNWKTOKETHGBQD-UHFFFAOYSA-N
Temperature: 318 K
Tabular data in the source: 0
pressure (bar)	uptake (cm3(STP)/g)
0.298895	0.298895
0.489021	0.00732265
1.84763	0.026087
2.0651	0.0283753
2.28245	0.0315789
2.47264	0.0343249
2.69012	0.0366133
2.90747	0.0398169
3.09765	0.0425629
3.31507	0.0453089
3.36945	0.0457666
3.58686	0.0485126
3.77705	0.0512586
3.99446	0.0540046
4.21188	0.0567506
4.42929	0.0594966
4.61941	0.0627002
4.75534	0.0640732
4.97276	0.0668192
5.19017	0.0695652
5.40758	0.0723112
5.59777	0.0750572
5.81518	0.0778032
6.73909	0.0901602
6.95656	0.0924485
7.17391	0.0956522
7.39133	0.0983982
7.6088	0.100686
7.79893	0.10389
8.0164	0.106178
8.23375	0.109382
8.45116	0.112128
8.66857	0.114874
8.80444	0.116705
9.02185	0.119451
9.23927	0.122197
9.45668	0.124943
9.67409	0.127689
9.8915	0.130435
10.1089	0.133181
10.3263	0.135927
10.5165	0.138673
10.7067	0.141419
10.9242	0.143707
11.1416	0.146453
11.359	0.149199
11.5764	0.151945
11.7938	0.154691
11.984	0.157437
12.2014	0.160183
