Adsorption isotherm of Carbon Dioxide on UMCM-1
DOI: 10.1021/Jp906417z
Adsorbate Carbon Dioxide: InChIKey CURLTUGMZLYLDI-UHFFFAOYSA-N
Temperature: 298 K
Tabular data in the source: 0
pressure (bar)	uptake (cm3(STP)/g)
0.924591	0.0317855
1.84918	0.0582612
2.89985	0.0900368
4.79106	0.142985
5.96782	0.17829
8.4474	0.255971
10.7589	0.338975
11.9777	0.383126
15.8021	0.517338
19.4164	0.628557
22.4003	0.713278
