Adsorption isotherm of Carbon Dioxide on UMCM-1
DOI: 10.1021/Jp906417z
Adsorbate Carbon Dioxide: InChIKey CURLTUGMZLYLDI-UHFFFAOYSA-N
Temperature: 338 K
Tabular data in the source: 0
pressure (bar)	uptake (cm3(STP)/g)
0.786517	0.0123397
1.83521	0.0299725
2.25468	0.0387955
2.62172	0.0476219
3.0412	0.0529051
3.51311	0.0617248
4.19476	0.0793809
4.66667	0.0846608
5.19101	0.0987869
5.55805	0.102304
5.97753	0.111127
6.44944	0.119946
6.86891	0.128769
7.07865	0.137606
7.44569	0.141122
7.9176	0.149942
8.38951	0.158762
8.80899	0.167585
9.17603	0.179951
9.38577	0.179938
9.80524	0.188761
10.1723	0.201127
10.5393	0.204644
10.9588	0.213467
11.3783	0.22406
11.7978	0.232883
12.2172	0.241706
12.6891	0.250525
13.1086	0.261118
13.5805	0.271708
14	0.280531
14.4195	0.291124
14.8914	0.301714
15.3109	0.310537
15.7303	0.32113
16.2022	0.328179
16.5169	0.337009
16.8839	0.349375
17.3034	0.359968
17.7753	0.368788
18.1948	0.379381
18.6142	0.388204
