Adsorption isotherm of Nitrogen on UMCM-1
DOI: 10.1021/Jp906417z
Adsorbate Nitrogen: InChIKey IJGRMHOSHXDMSA-UHFFFAOYSA-N
Temperature: 318 K
Tabular data in the source: 0
pressure (bar)	uptake (cm3(STP)/g)
0.0132911	0.00244123
0.0221519	0.00366055
0.0265823	0.00467838
0.0316456	0.00569583
0.0379747	0.00752888
0.0424051	0.00793446
0.0481013	0.00915563
0.0531646	0.0101731
0.0582278	0.0111905
0.0607595	0.0124136
0.0658228	0.0128188
0.0708861	0.0140403
0.0759494	0.0150578
0.0778481	0.0160771
0.0835443	0.0164819
0.0886076	0.0177034
0.0936709	0.018925
0.0987342	0.0199424
0.10443	0.0211636
0.110127	0.0227929
0.11519	0.0236063
0.120253	0.0246238
0.125949	0.0258449
0.131013	0.0268624
0.136076	0.0280839
0.137975	0.0295114
0.143038	0.0295084
0.148101	0.03073
0.153165	0.0319515
0.15443	0.0329712
0.159494	0.0331723
0.164557	0.0343938
0.16962	0.0356154
0.175949	0.0378566
0.181013	0.0382618
0.186709	0.0392789
0.191772	0.0405004
0.196835	0.041722
0.201899	0.0429435
0.203797	0.0433506
0.208861	0.044368
0.213924	0.0455895
0.21962	0.0468107
0.223418	0.0478289
0.228481	0.0488464
0.233544	0.0500679
0.239241	0.051085
0.244304	0.0523065
0.249367	0.0535281
0.25443	0.0547496
0.259494	0.0559711
0.264557	0.0569886
0.270253	0.0582098
0.275316	0.0592272
0.28038	0.0604488
0.285443	0.0616703
0.286709	0.0618736
0.291772	0.0630952
0.296835	0.0643167
0.301899	0.0653342
