Adsorption isotherm of Carbon Dioxide on UMCM-1
DOI: 10.1021/Jp906417z
Adsorbate Carbon Dioxide: InChIKey CURLTUGMZLYLDI-UHFFFAOYSA-N
Temperature: 338 K
Tabular data in the source: 0
pressure (bar)	uptake (mmol/g)
0.419526	0.250148
2.01509	1.15962
3.1619	1.78189
5.15636	2.8589
6.49015	3.58887
7.54971	4.17524
9.1702	5.08471
11.7007	6.47285
12.9971	7.23872
17.1605	9.66797
20.9624	11.9895
24.2533	13.964
