Adsorption isotherm of Carbon Dioxide on UMCM-1
DOI: 10.1021/Jp906417z
Adsorbate Carbon Dioxide: InChIKey CURLTUGMZLYLDI-UHFFFAOYSA-N
Temperature: 318 K
Tabular data in the source: 0
pressure (bar)	uptake (mmol/g)
1.99615	1.58369
3.14199	2.38369
5.22532	3.75036
6.47532	4.68369
9.11421	6.61703
11.7184	8.55036
13.0378	9.58369
17.0656	12.7837
21.0239	16.017
24.3225	18.617
