Adsorption isotherm of Oxygen on UMCM-1
DOI: 10.1021/Jp906417z
Adsorbate Oxygen: InChIKey MYMOFIZGZYHOMD-UHFFFAOYSA-N
Temperature: 318 K
Tabular data in the source: 0
pressure (bar)	uptake (cm3(STP)/g)
0.0104722	0.00310502
0.0145714	0.00456621
0.0195787	0.00584475
0.0232213	0.00694064
0.0305054	0.00894977
0.034148	0.0100457
0.0377906	0.0111416
0.0414332	0.0122374
0.0450747	0.0131507
0.0496274	0.0144292
0.05327	0.0155251
0.0569126	0.016621
0.0605542	0.0175342
0.0641968	0.0186301
0.0678394	0.019726
0.0714809	0.0206393
0.0751235	0.0217352
0.0787661	0.0228311
0.0824076	0.0237443
0.0860492	0.0246575
0.0896928	0.0259361
0.0933344	0.0268493
0.096977	0.0279452
0.10062	0.0290411
0.104261	0.0299543
0.10745	0.0312329
0.111545	0.0319635
0.115188	0.0330594
0.118829	0.0339726
0.122471	0.0348858
0.126115	0.0361644
0.129756	0.0370776
0.133853	0.0381735
0.137041	0.0392694
0.140683	0.0401826
0.144324	0.0410959
0.147966	0.0420091
0.151609	0.043105
0.155706	0.0442009
0.159347	0.0451142
0.162535	0.04621
0.166631	0.0471233
0.170274	0.0482192
0.173462	0.0493151
0.177103	0.0500457
0.180745	0.0511416
0.184387	0.0520548
0.188029	0.0531507
0.191672	0.0542466
0.196225	0.0555251
0.199866	0.0564384
0.203963	0.0575342
0.207605	0.0584475
0.211247	0.0595434
0.214889	0.0604566
0.218532	0.0615525
0.222629	0.0626484
