Adsorption isotherm of Oxygen on UMCM-1
DOI: 10.1021/Jp906417z
Adsorbate Oxygen: InChIKey MYMOFIZGZYHOMD-UHFFFAOYSA-N
Temperature: 318 K
Tabular data in the source: 0
pressure (bar)	uptake (cm3(STP)/g)
0.0173018	0.00511416
0.0286831	0.00821918
0.0473506	0.0136986
0.059644	0.0173516
0.08423	0.0244749
0.107905	0.0312329
0.120652	0.0347032
0.137952	0.0396347
0.158437	0.0449315
0.174372	0.0494977
0.195315	0.0555251
0.226267	0.0630137
