Adsorption isotherm of Nitrogen on UMCM-1
DOI: 10.1021/Jp906417z
Adsorbate Nitrogen: InChIKey IJGRMHOSHXDMSA-UHFFFAOYSA-N
Temperature: 318 K
Tabular data in the source: 0
pressure (bar)	uptake (mmol/g)
1.25184	0.178567
3.10339	0.484968
5.16398	0.80212
6.47798	0.990262
9.13585	1.40955
11.7041	1.82883
12.9883	2.04923
14.8697	2.33413
17.0796	2.65665
18.752	2.92543
20.9619	3.25871
24.2767	3.75325
