Adsorption isotherm of Methane on UMCM-1
DOI: 10.1021/Jp906417z
Adsorbate Methane: InChIKey VNWKTOKETHGBQD-UHFFFAOYSA-N
Temperature: 338 K
Tabular data in the source: 0
pressure (bar)	uptake (mmol/g)
1.07002	0.288515
3.15272	0.857928
5.12806	1.33244
6.5022	1.72665
9.12168	2.42016
11.6982	3.00418
13.0724	3.35458
17.066	4.38391
20.9522	5.32563
24.2373	5.99724
