Adsorption isotherm of Oxygen on UMCM-1
DOI: 10.1021/Jp906417z
Adsorbate Oxygen: InChIKey MYMOFIZGZYHOMD-UHFFFAOYSA-N
Temperature: 298 K
Tabular data in the source: 0
pressure (bar)	uptake (cm3(STP)/g)
0.00683375	0.00273973
0.00865712	0.00365297
0.0191355	0.00785388
0.0305199	0.0115068
0.0510108	0.0178995
0.0642165	0.0221005
0.0910803	0.030137
0.115668	0.0376256
0.129329	0.0418265
0.148451	0.0473059
0.170305	0.0536986
0.187152	0.0588128
0.209007	0.0652055
0.241788	0.0747032
