Adsorption isotherm of Nitrogen on UMCM-1
DOI: 10.1021/Jp906417z
Adsorbate Nitrogen: InChIKey IJGRMHOSHXDMSA-UHFFFAOYSA-N
Temperature: 318 K
Tabular data in the source: 0
pressure (bar)	uptake (cm3(STP)/g)
0.0126582	0.00284976
0.0240506	0.00549618
0.0386076	0.00936524
0.0639241	0.0150648
0.0810127	0.0189324
0.113924	0.0270764
0.14557	0.0348131
0.162658	0.0386807
0.186076	0.0441772
0.213291	0.0504879
0.234177	0.0555777
0.262025	0.061888
