Adsorption isotherm of Oxygen on UMCM-1
DOI: 10.1021/Jp906417z
Adsorbate Oxygen: InChIKey MYMOFIZGZYHOMD-UHFFFAOYSA-N
Temperature: 338 K
Tabular data in the source: 0
pressure (bar)	uptake (cm3(STP)/g)
0.0100125	0.00219178
0.0145641	0.00328767
0.0195724	0.00474886
0.0236685	0.0056621
0.0286758	0.00694064
0.0327709	0.00767123
0.0364134	0.00876712
0.040055	0.00968037
0.0436997	0.0111416
0.0473381	0.0115068
0.0509797	0.0124201
0.0555345	0.0140639
0.0591729	0.0144292
0.0628144	0.0153425
0.066457	0.0164384
0.0705531	0.0173516
0.0741947	0.0182648
0.0778383	0.0195434
0.0810222	0.0199087
0.0842103	0.0210046
0.0883064	0.0219178
0.0919479	0.0228311
0.0955905	0.0239269
0.0992331	0.0250228
0.102418	0.0255708
0.105605	0.026484
0.109701	0.0273973
0.112891	0.0288584
0.11653	0.0292237
0.120172	0.0303196
0.123814	0.0312329
0.127911	0.0323288
0.13155	0.0328767
0.134738	0.0339726
0.138381	0.0350685
0.142477	0.0359817
0.146119	0.036895
0.149308	0.0381735
0.151126	0.0381735
0.154769	0.0392694
0.15841	0.0401826
0.162507	0.0412785
0.165693	0.0420091
0.169336	0.043105
0.172977	0.0440183
0.177075	0.0451142
0.180716	0.0460274
0.184813	0.0471233
0.188455	0.0480365
0.192097	0.0491324
0.196193	0.0500457
0.199836	0.0511416
0.203932	0.0520548
0.207575	0.0531507
0.21167	0.0538813
