Adsorption isotherm of Oxygen on UMCM-1
DOI: 10.1021/Jp906417z
Adsorbate Oxygen: InChIKey MYMOFIZGZYHOMD-UHFFFAOYSA-N
Temperature: 298 K
Tabular data in the source: 0
pressure (bar)	uptake (cm3(STP)/g)
0.010934	0.00438356
0.0141231	0.0056621
0.0182254	0.00767123
0.0223205	0.00840183
0.0255085	0.00949772
0.0286976	0.0107763
0.0323391	0.0116895
0.0355272	0.0127854
0.0387152	0.0138813
0.0423578	0.0149772
0.0455459	0.0160731
0.0491885	0.0171689
0.0523744	0.0178995
0.0555635	0.0191781
0.0587526	0.0204566
0.0623952	0.0215525
0.0660357	0.0222831
0.0692248	0.0235616
0.0724128	0.0246575
0.0760554	0.0257534
0.079698	0.0268493
0.0833406	0.0279452
0.0865286	0.0290411
0.0901712	0.030137
0.0929027	0.0308676
0.0965463	0.0321461
0.100188	0.0330594
0.10383	0.0341553
0.107474	0.0354338
0.111116	0.036347
0.114758	0.0374429
0.117944	0.0381735
0.121588	0.0394521
0.124776	0.0405479
0.128418	0.0416438
0.131605	0.0425571
0.135247	0.0434703
0.13889	0.0445662
0.142532	0.0456621
0.146175	0.046758
0.149361	0.0474886
0.153003	0.0485845
0.156191	0.0496804
0.159834	0.0507763
0.163931	0.0518721
0.167574	0.052968
0.170306	0.0538813
0.173948	0.0547945
0.17759	0.0558904
0.181233	0.0569863
0.184874	0.0578995
0.188061	0.0588128
0.191704	0.0599087
0.195347	0.0610046
0.198988	0.0619178
0.202631	0.0630137
0.206273	0.0641096
0.209007	0.0652055
0.213102	0.0659361
0.216744	0.067032
0.220387	0.0681279
0.224483	0.0690411
0.228126	0.070137
0.231768	0.0712329
0.23541	0.0721461
0.239053	0.073242
