Adsorption isotherm of Oxygen on UMCM-1
DOI: 10.1021/Jp906417z
Adsorbate Oxygen: InChIKey MYMOFIZGZYHOMD-UHFFFAOYSA-N
Temperature: 338 K
Tabular data in the source: 0
pressure (bar)	uptake (cm3(STP)/g)
0.00364155	0.000913242
0.0063709	0.00127854
0.00773765	0.00182648
0.0163865	0.00401826
0.0268566	0.00675799
0.0446108	0.0115068
0.0559911	0.0144292
0.0796606	0.020274
0.10151	0.0257534
0.113348	0.0292237
0.129733	0.0330594
0.149307	0.0379909
0.163872	0.0414612
0.182992	0.0465753
0.21167	0.0538813
