Adsorption isotherm of Nitrogen on UMCM-1
DOI: 10.1021/Jp906417z
Adsorbate Nitrogen: InChIKey IJGRMHOSHXDMSA-UHFFFAOYSA-N
Temperature: 298 K
Tabular data in the source: 0
pressure (bar)	uptake (mmol/g)
0.236477	0.0549313
0.475387	0.087184
0.774023	0.119437
1.90884	0.334455
3.13325	0.544098
5.13412	0.893503
6.50785	1.13002
9.10599	1.58156
11.6444	2.00622
13.0181	2.24274
14.8995	2.54915
17.0497	2.9093
18.752	3.17807
20.932	3.53285
24.2469	4.04352
