Adsorption isotherm of Carbon Dioxide on UMCM-1
DOI: 10.1021/Jp906417z
Adsorbate Carbon Dioxide: InChIKey CURLTUGMZLYLDI-UHFFFAOYSA-N
Temperature: 318 K
Tabular data in the source: 0
pressure (bar)	uptake (cm3(STP)/g)
0.94382	0.0247191
1.94007	0.0441252
2.93633	0.0688409
4.92884	0.109423
6.0824	0.137669
8.65169	0.192373
11.0112	0.247092
12.2697	0.277101
16.0974	0.374204
19.7678	0.464237
22.9139	0.540145
