Adsorption isotherm of Methane on UMCM-1
DOI: 10.1021/Jp906417z
Adsorbate Methane: InChIKey VNWKTOKETHGBQD-UHFFFAOYSA-N
Temperature: 298 K
Tabular data in the source: 0
pressure (bar)	uptake (mmol/g)
0.790899	0.332316
3.10978	1.14993
5.171	1.86535
6.52368	2.32526
9.14315	3.23048
11.6553	4.07
12.9865	4.51531
17.0445	5.80744
24.2588	8.01939
