Adsorption isotherm of Methane on UMCM-1
DOI: 10.1021/Jp906417z
Adsorbate Methane: InChIKey VNWKTOKETHGBQD-UHFFFAOYSA-N
Temperature: 338 K
Tabular data in the source: 0
pressure (bar)	uptake (cm3(STP)/g)
0.108706	0.001373
0.217474	0.00228833
0.407663	0.00503432
0.489208	0.00594966
0.896872	0.010984
1.46762	0.017849
2.41888	0.0292906
3.04396	0.0370709
4.26695	0.0521739
5.46296	0.0654462
6.11532	0.0727689
7.99055	0.0961098
9.8117	0.116705
11.3341	0.131808
