Adsorption isotherm of Nitrogen on UMCM-1
DOI: 10.1021/Jp906417z
Adsorbate Nitrogen: InChIKey IJGRMHOSHXDMSA-UHFFFAOYSA-N
Temperature: 77 K
Tabular data in the source: 0
pressure (bar)	uptake (cm3(STP)/g)
0.0241391	776.401
0.0486171	882.223
0.0750534	930.598
0.0965941	960.833
0.12303	995.603
0.146529	1022.81
0.171007	1060.61
0.195485	1234.46
0.219963	1254.11
0.243462	1261.67
0.270878	1267.72
0.293398	1275.27
0.315917	1281.32
0.341375	1287.37
0.367811	1291.9
0.39131	1296.44
0.414809	1297.95
0.442224	1305.51
0.465723	1307.02
0.489222	1311.56
0.512721	1316.09
0.538178	1317.6
0.559719	1323.65
0.589092	1326.67
0.611612	1329.7
0.633153	1329.7
0.657631	1335.74
0.685046	1337.26
0.706587	1338.77
0.732044	1344.81
0.753585	1344.81
0.781979	1349.35
0.804499	1350.86
0.827998	1350.86
0.852476	1355.4
0.877933	1356.91
0.901432	1361.44
0.922973	1362.96
0.952347	1370.51
