Adsorption isotherm of Carbon Dioxide on UMCM-1
DOI: 10.1021/Jp906417z
Adsorbate Carbon Dioxide: InChIKey CURLTUGMZLYLDI-UHFFFAOYSA-N
Temperature: 338 K
Tabular data in the source: 0
pressure (bar)	uptake (cm3(STP)/g)
0.367041	0.00882636
0.786517	0.0141096
1.62547	0.0317557
2.51685	0.0493984
4.08989	0.0811574
5.13858	0.0987902
7.18352	0.141139
9.1236	0.179954
10.1723	0.201127
13.3708	0.266411
16.3596	0.331709
18.9288	0.386414
