Adsorption isotherm of Carbon Dioxide on UMCM-1
DOI: 10.1021/Jp906417z
Adsorbate Carbon Dioxide: InChIKey CURLTUGMZLYLDI-UHFFFAOYSA-N
Temperature: 298 K
Tabular data in the source: 0
pressure (bar)	uptake (cm3(STP)/g)
1.00864	0.0353187
1.38689	0.0476782
1.93324	0.0653343
2.60567	0.0847503
3.06796	0.0988731
3.40418	0.109466
3.74039	0.120059
4.03458	0.130655
4.37079	0.141248
4.66498	0.142995
4.83309	0.155371
5.16931	0.165964
5.50552	0.176557
5.79971	0.183613
5.96782	0.19068
6.30403	0.199503
6.59822	0.210099
6.93443	0.220692
7.27065	0.231285
7.60686	0.240108
7.94308	0.250701
8.27929	0.261294
8.53146	0.268354
8.86767	0.278947
9.16186	0.289543
9.49807	0.300136
9.83429	0.310729
10.1705	0.321322
10.5067	0.331915
10.8429	0.338968
11.0531	0.351341
11.3893	0.361934
11.7255	0.372527
11.9777	0.383126
12.3139	0.391949
12.6501	0.402542
12.9863	0.413135
13.3225	0.423728
13.6587	0.434321
13.9949	0.444914
14.3312	0.455507
14.6254	0.466103
14.9616	0.476696
15.2978	0.487289
15.634	0.497882
15.9282	0.508478
16.2644	0.519071
16.6006	0.529664
16.9368	0.540257
17.231	0.550853
17.5672	0.563216
17.9034	0.572039
18.2397	0.584402
18.5339	0.593229
18.8701	0.603822
19.2063	0.614415
19.4164	0.626787
19.7526	0.63384
20.0888	0.644433
20.4251	0.655026
20.7192	0.665623
21.0555	0.676216
21.3917	0.688578
21.6859	0.699175
22.0221	0.709768
22.3163	0.715054
