Adsorption isotherm of Carbon Dioxide on UMCM-1
DOI: 10.1021/Jp906417z
Adsorbate Carbon Dioxide: InChIKey CURLTUGMZLYLDI-UHFFFAOYSA-N
Temperature: 298 K
Tabular data in the source: 0
pressure (bar)	uptake (mmol/g)
2.0656	1.91703
3.14199	2.85036
5.1906	4.65036
6.47532	5.88369
9.11421	8.41703
11.6489	11.0504
13.0031	12.5504
17.0656	16.9504
20.9198	20.617
24.2878	23.417
