Adsorption isotherm of Nitrogen on UMCM-1
DOI: 10.1021/Jp906417z
Adsorbate Nitrogen: InChIKey IJGRMHOSHXDMSA-UHFFFAOYSA-N
Temperature: 298 K
Tabular data in the source: 0
pressure (bar)	uptake (cm3(STP)/g)
0.0126582	0.00325793
0.0253165	0.00671993
0.0411392	0.0109964
0.0683544	0.0179193
0.0860759	0.022807
0.120886	0.0315622
0.153797	0.0403185
0.172785	0.0447972
0.197468	0.0511093
0.225949	0.0580315
0.248734	0.0633244
0.278481	0.0704499
0.322152	0.0808326
0.343671	0.0859221
