Adsorption isotherm of Nitrogen on UMCM-1
DOI: 10.1021/Jp906417z
Adsorbate Nitrogen: InChIKey IJGRMHOSHXDMSA-UHFFFAOYSA-N
Temperature: 298 K
Tabular data in the source: 0
pressure (bar)	uptake (cm3(STP)/g)
0.0107595	0.00325903
0.0170886	0.00488799
0.0278481	0.00814703
0.035443	0.0101834
0.043038	0.0120157
0.0474684	0.0134417
0.0525316	0.0146632
0.0575949	0.0158848
0.0620253	0.0171067
0.0664557	0.0181245
0.0689873	0.0193475
0.0740506	0.020365
0.0791139	0.0217906
0.0841772	0.022604
0.0879747	0.0238263
0.0924051	0.0250482
0.0974684	0.0262697
0.102532	0.0276953
0.107595	0.0289169
0.112025	0.0301388
0.117089	0.0313603
0.122785	0.0327855
0.127848	0.0340071
0.132278	0.035229
0.137342	0.0364505
0.142405	0.0376721
0.147468	0.0390977
0.152532	0.0401151
0.156962	0.041133
0.161392	0.042559
0.166456	0.0437805
0.171519	0.0447979
0.175316	0.0460202
0.18038	0.0470377
0.185443	0.0482592
0.190506	0.0496848
0.194937	0.0507027
0.199367	0.0517205
0.20443	0.052942
0.208861	0.0541639
0.213924	0.0553855
0.218987	0.0564029
0.224051	0.0576245
0.228481	0.0584382
0.232911	0.0598642
0.237975	0.0608816
0.243038	0.0621032
0.247468	0.0633251
0.252532	0.0641385
0.257595	0.06536
0.262658	0.0665815
0.267089	0.0678034
0.272785	0.0690246
0.276582	0.0702469
0.281646	0.0710603
0.286709	0.0722818
0.291772	0.0735033
0.296835	0.0745208
0.302532	0.075742
0.306962	0.0769639
0.312025	0.0781854
0.317089	0.0794069
0.321519	0.0806289
0.327215	0.0814419
0.332278	0.0824593
0.337342	0.0836809
0.341772	0.0851068
