Adsorption isotherm of Carbon Dioxide on UMCM-1
DOI: 10.1021/Jp906417z
Adsorbate Carbon Dioxide: InChIKey CURLTUGMZLYLDI-UHFFFAOYSA-N
Temperature: 318 K
Tabular data in the source: 0
pressure (bar)	uptake (cm3(STP)/g)
1.25843	0.0264691
1.78277	0.0388254
2.14981	0.0458818
3.09363	0.068831
3.56554	0.0758808
5.19101	0.112946
5.61049	0.121769
6.29213	0.137655
6.71161	0.146478
7.13109	0.155301
7.603	0.165891
8.02247	0.176484
8.44195	0.185307
8.86142	0.19413
9.2809	0.204723
9.70037	0.215316
10.1199	0.224139
10.5393	0.234732
10.8539	0.245332
11.1161	0.245315
11.5356	0.255908
11.9551	0.266501
12.3745	0.277094
12.7416	0.28592
13.161	0.296513
13.633	0.307103
14	0.317699
14.4195	0.326522
14.839	0.335345
15.2584	0.347708
15.6779	0.356531
16.2547	0.372424
16.6742	0.381247
17.0936	0.39184
17.5131	0.402433
17.9326	0.413026
18.3521	0.423619
18.7715	0.434212
19.191	0.443035
19.6105	0.453628
19.9251	0.462457
20.3446	0.47305
20.764	0.483643
21.1835	0.494236
21.5506	0.504832
21.97	0.515425
22.3895	0.526018
