Adsorption isotherm of Nitrogen on UMCM-1
DOI: 10.1021/Jp906417z
Adsorbate Nitrogen: InChIKey IJGRMHOSHXDMSA-UHFFFAOYSA-N
Temperature: 338 K
Tabular data in the source: 0
pressure (bar)	uptake (cm3(STP)/g)
0.0056962	0.00101709
0.00949367	0.00142304
0.0107595	0.00223862
0.0227848	0.00468059
0.0360759	0.00752998
0.0607595	0.0128217
0.0765823	0.0162819
0.107595	0.0232026
0.137975	0.0297155
0.153797	0.0329715
0.175949	0.0378566
0.201899	0.0427394
0.221519	0.0470137
0.247468	0.0525088
0.286076	0.0606495
0.305696	0.0649238
