Adsorption isotherm of Nitrogen on UMCM-1
DOI: 10.1021/Jp906417z
Adsorbate Nitrogen: InChIKey IJGRMHOSHXDMSA-UHFFFAOYSA-N
Temperature: 318 K
Tabular data in the source: 0
pressure (bar)	uptake (cm3(STP)/g)
0.0164557	0.00345979
0.021519	0.00488541
0.0272152	0.00671882
0.0322785	0.00732812
0.043038	0.0105871
0.0474684	0.0109927
0.0525316	0.0122143
0.0575949	0.0134358
0.0626582	0.0146573
0.0670886	0.0156752
0.0727848	0.0168963
0.0772152	0.0181182
0.0822785	0.0189316
0.0867089	0.0203576
0.0917722	0.0215791
0.0968354	0.0225966
0.101899	0.0238181
0.106962	0.0250397
0.112025	0.0264653
0.11519	0.0268716
0.120253	0.0280931
0.125316	0.0293147
0.13038	0.0305362
0.135443	0.0317578
0.140506	0.0327752
0.147468	0.0346079
0.152532	0.0358294
0.157595	0.037051
0.164557	0.0388836
0.16962	0.039697
0.174684	0.0409186
0.179747	0.0421401
0.184177	0.043362
0.187342	0.0441765
0.192405	0.0451939
0.197468	0.0464155
0.202532	0.047637
0.207595	0.0488585
0.214557	0.0504871
0.21962	0.0515046
0.225316	0.0527258
0.23038	0.0539473
0.236076	0.0555766
0.241772	0.0563896
0.246835	0.0576112
0.251899	0.0588327
0.256962	0.0600542
0.263291	0.0616832
0.268354	0.0627007
0.274051	0.0639218
0.279114	0.0649393
0.284177	0.0661608
0.289241	0.0673824
0.294304	0.0686039
0.299367	0.0698254
0.30443	0.071047
0.309494	0.0722685
0.314557	0.073286
0.31962	0.0745075
