Adsorption isotherm of Hydrogen on UMCM-1
DOI: 10.1021/Jp906417z
Adsorbate Hydrogen: InChIKey UFHFLCQGNIYNRP-UHFFFAOYSA-N
Temperature: 298 K
Tabular data in the source: 0
pressure (bar)	uptake (mmol/g)
0.105651	0.0257715
4.95668	0.619348
9.06984	1.14404
14.8706	1.89236
20.9354	2.70081
25.8929	3.38021
