Adsorption isotherm of Oxygen on UMCM-1
DOI: 10.1021/Jp906417z
Adsorbate Oxygen: InChIKey MYMOFIZGZYHOMD-UHFFFAOYSA-N
Temperature: 338 K
Tabular data in the source: 0
pressure (bar)	uptake (mmol/g)
1.86143	0.267254
3.0629	0.431357
5.1728	0.759564
6.49149	0.94711
9.07026	1.33393
11.6197	1.6973
12.9677	1.92001
14.8432	2.17789
17.041	2.51195
18.7406	2.74639
20.9971	3.08045
24.2205	3.55518
