Adsorption isotherm of Oxygen on UMCM-1
DOI: 10.1021/Jp906417z
Adsorbate Oxygen: InChIKey MYMOFIZGZYHOMD-UHFFFAOYSA-N
Temperature: 298 K
Tabular data in the source: 0
pressure (bar)	uptake (mmol/g)
1.05485	0.23197
1.92578	0.475429
3.1186	0.695888
5.13714	1.07877
6.46762	1.32244
9.08274	1.79819
11.6519	2.27391
12.9823	2.52916
14.8635	2.8541
17.1118	3.23709
18.7176	3.52718
20.9199	3.91015
24.1776	4.47879
