Adsorption isotherm of Methane on UMCM-1
DOI: 10.1021/Jp906417z
Adsorbate Methane: InChIKey VNWKTOKETHGBQD-UHFFFAOYSA-N
Temperature: 318 K
Tabular data in the source: 0
pressure (bar)	uptake (mmol/g)
1.95034	0.609722
3.13125	0.989331
5.21394	1.60254
6.48073	1.98945
9.14315	2.79247
11.6767	3.54439
13.0509	3.9386
17.0874	5.06282
24.2803	7.03387
