Adsorption isotherm of Nitrogen on UMCM-1
DOI: 10.1021/Jp906417z
Adsorbate Nitrogen: InChIKey IJGRMHOSHXDMSA-UHFFFAOYSA-N
Temperature: 338 K
Tabular data in the source: 0
pressure (bar)	uptake (mmol/g)
1.96857	0.243072
3.10339	0.409712
5.10426	0.68386
6.47798	0.898879
9.04626	1.27516
11.6444	1.62994
13.0181	1.81808
14.9294	2.09223
17.1393	2.37176
18.8117	2.6029
20.9619	2.9093
24.2767	3.33934
