Adsorption isotherm of Benzene on [Co2(ndc)2(bpee)2](bpee)
DOI: 10.1039/C2ce25092f
Adsorbate Benzene: InChIKey UHOVQNZJYSORNB-UHFFFAOYSA-N
Temperature: 298 K
Tabular data in the source: 0
pressure (bar)	uptake (ml/g)
0.00163346	1.02273
0.0154012	5.25
0.0483038	12.6818
0.0599714	15.3409
0.0723391	17.9318
0.0903072	22.0909
0.106408	25.6364
0.121343	28.5682
