Adsorption isotherm of Carbon Dioxide on [Co2(ndc)2(bpee)2](bpee)
DOI: 10.1039/C2ce25092f
Adsorbate Carbon Dioxide: InChIKey CURLTUGMZLYLDI-UHFFFAOYSA-N
Temperature: 195 K
Tabular data in the source: 0
pressure (bar)	uptake (ml/g)
0.00735572	1.60804
0.0110336	2.31156
0.0220672	3.9196
0.0331007	6.23116
0.05149	11.5578
0.0717182	17.3869
0.0809129	18.4925
0.0937854	19.4975
0.101141	20.402
0.108497	21.407
0.112175	22.4121
0.117691	23.3166
0.121369	24.3216
0.126886	25.3266
0.136081	27.3367
0.150792	30.3518
0.161826	30.9548
0.172859	31.6583
0.185732	32.4623
0.196765	33.1658
0.207799	33.6683
0.22251	34.0704
0.239061	34.4724
0.251933	34.9749
0.270323	35.1759
0.288712	35.3769
0.303423	35.6784
0.321813	35.8794
0.338363	36.0804
0.354913	36.2814
0.373303	36.3819
0.391692	36.4824
0.408242	36.5829
0.424793	36.7839
0.443182	36.8844
0.450538	37.1859
0.461571	37.0854
0.478122	37.1859
0.496511	37.3869
0.5149	37.4874
0.531451	37.5879
0.548001	37.8894
0.56639	37.8894
0.582941	37.9899
0.60133	38.191
0.619719	38.2915
0.63627	38.392
0.654659	38.593
0.673048	38.6935
0.689598	38.794
0.707988	38.8945
0.724538	38.995
0.742927	39.0955
0.748444	39.2965
0.766833	39.196
0.783384	39.397
0.801773	39.4975
0.820162	39.4975
0.838552	39.598
0.851424	39.8995
0.897397	39.799
0.912109	40.1005
0.928659	40.3015
