Adsorption isotherm of Carbon Dioxide on MIL-53(Al)
DOI: 10.1155/2015/439382
Article source: Figure 2a
Adsorbate Carbon Dioxide: InChIKey CURLTUGMZLYLDI-UHFFFAOYSA-N
Kind: experiment
Isotherm type: absolute
Temperature: 294 K
Tabular data in the source: 0
pressure (bar)	uptake (mmol/g)
0.559	1.943
2.197	4.7816
5.939	7.0686
11.987	8.6705
18.35	9.4534
25.316	9.9699
31.689	10.2767
38.855	10.7552
45.427	11.1001
