Adsorption isotherm of Methane on MIL-53(Cr)
DOI: 10.1155/2015/439382
Article source: Figure 2b
Adsorbate Methane: InChIKey VNWKTOKETHGBQD-UHFFFAOYSA-N
Kind: experiment
Isotherm type: absolute
Temperature: 294 K
Tabular data in the source: 0
pressure (bar)	uptake (mmol/g)
0.4248	0.2
0.9477	0.2462
1.4052	0.3231
1.9935	0.4462
2.6144	0.3385
3.2026	0.2615
6.2745	0.2462
9.183	0.5385
12.3203	0.6923
15.098	1
19.085	1.1846
