Adsorption isotherm of Carbon Dioxide on MIL-53(Al)
DOI: 10.1155/2015/439382
Article source: Figure 2a
Adsorbate Carbon Dioxide: InChIKey CURLTUGMZLYLDI-UHFFFAOYSA-N
Kind: experiment
Temperature: 294 K
Tabular data in the source: 0
pressure (bar)	uptake (mmol/g)
0.641711	1.92661
2.24599	4.70948
6.09626	7.15596
12.1925	8.68502
18.4492	9.44954
25.3476	9.93884
31.6043	10.2752
39.3048	10.7034
45.8824	11.1009
