Adsorption isotherm of Methane on MIL-53(Cr)
DOI: 10.1155/2015/439382
Article source: Figure 2a
Adsorbate Methane: InChIKey VNWKTOKETHGBQD-UHFFFAOYSA-N
Kind: experiment
Isotherm type: absolute
Temperature: 294 K
Tabular data in the source: 0
pressure (bar)	uptake (mmol/g)
0.296	0.1715
0.689	0.4193
0.986	0.6075
1.182	0.7051
3.852	1.7536
6.828	2.4784
9.806	3.0507
14.778	3.6618
19.751	4.1777
