Adsorption isotherm of Methane on MIL-53(Al)
DOI: 10.1155/2015/439382
Article source: Figure 2a
Adsorbate Methane: InChIKey VNWKTOKETHGBQD-UHFFFAOYSA-N
Kind: experiment
Isotherm type: absolute
Temperature: 294 K
Tabular data in the source: 0
pressure (bar)	uptake (mmol/g)
1.963	0
7.11	0
15.757	0
24.315	0
36.263	0
48.814	0
61.867	0
