Adsorption isotherm of Carbon Dioxide on MIL-53(Cr)
DOI: 10.1155/2015/439382
Article source: Figure 2a
Adsorbate Carbon Dioxide: InChIKey CURLTUGMZLYLDI-UHFFFAOYSA-N
Kind: experiment
Isotherm type: absolute
Temperature: 294 K
Tabular data in the source: 0
pressure (bar)	uptake (mmol/g)
0.471	1.3525
0.953	2.1908
1.244	2.5718
1.836	2.8768
1.841	2.8758
2.728	3.1247
5.901	3.9447
9.109	8.0219
12.183	8.8229
15.259	9.5096
18.439	9.9678
21.92	10.3498
24.901	10.7889
