Adsorption isotherm of Methane on MIL-53(Al)
DOI: 10.1155/2015/439382
Article source: Figure 2a
Adsorbate Methane: InChIKey VNWKTOKETHGBQD-UHFFFAOYSA-N
Kind: experiment
Temperature: 294 K
Tabular data in the source: 0
pressure (bar)	uptake (mmol/g)
2.24599	1.55963
7.37968	3.30275
16.0428	4.52599
24.0642	5.1682
36.2567	5.77982
48.9305	6.14679
61.9251	6.33028
