Adsorption isotherm of Carbon Dioxide on MIL-53(Cr)
DOI: 10.1155/2015/439382
Article source: Figure 2b
Adsorbate Carbon Dioxide: InChIKey CURLTUGMZLYLDI-UHFFFAOYSA-N
Kind: experiment
Isotherm type: absolute
Temperature: 294 K
Tabular data in the source: 0
pressure (bar)	uptake (mmol/g)
0.5882	0.7385
0.9477	1.5231
1.4052	2
2.1569	2.3077
2.6471	2.5692
3.268	2.8
6.3072	3.6308
9.3137	4.2
12.3203	6.3846
15.2614	7.4
19.085	8.1846
