Adsorption isotherm of Nitrogen on SB-PORPy-COF
DOI: 10.1021/acsami.7b06968
Article source: Figure 4A
Adsorbate Nitrogen: InChIKey IJGRMHOSHXDMSA-UHFFFAOYSA-N
Kind: experiment
Temperature: 77 K
Tabular data in the source: 0
pressure (bar)	uptake (cm3(STP)/g)
0.008811	155.72
0.013216	164.619
0.013216	170.551
0.017622	176.483
0.017622	183.898
0.017622	189.831
0.017622	195.763
0.022027	201.695
0.017622	206.144
0.017622	212.076
0.022027	220.975
0.035243	231.356
0.066082	238.771
0.10573	249.153
0.15419	261.017
0.20265	266.949
0.273137	278.814
0.378867	292.161
0.464773	302.542
0.51103	306.992
0.563896	311.441
0.616761	312.924
0.665221	315.89
0.718086	317.373
0.766546	323.305
0.8106	326.271
0.863465	329.237
0.91633	333.686
0.962587	340.36
1.00444	347.034
0.955979	342.585
0.909005	337.823
0.861056	334.926
0.810647	331.615
0.755321	329.131
0.71106	326.234
0.652045	323.751
0.605325	322.095
0.551228	319.612
0.500819	317.128
0.45287	315.887
0.402461	312.576
0.349594	310.506
0.297956	307.195
0.251236	304.712
0.199598	299.745
0.154107	294.364
0.108616	287.742
0.070503	278.223
0.034848	269.117
