Adsorption isotherm of Nitrogen on TPAPC-COF
DOI: 10.1002/anie.201915569
Article source: Figure 2
Adsorbate Nitrogen: InChIKey IJGRMHOSHXDMSA-UHFFFAOYSA-N
Kind: experiment
Temperature: 77 K
Tabular data in the source: 0
pressure (bar)	uptake (cm3(STP)/g)
0	20.5838
-0.00102	40.0449
0	57.6347
0.00153	73.1662
0.00255	90.756
0.004589	106.1
0.006119	117.328
0.011757	127.214
0.016006	134.881
0.022735	140.989
0.027693	146.966
0.034421	152.294
0.040441	158.272
0.045753	164.639
0.050711	170.487
0.067709	181.793
0.091789	188.55
0.110912	191.279
0.131805	194.528
0.153407	197.127
0.173238	199.985
0.192006	202.065
0.2129	204.144
0.232731	206.093
0.252562	207.782
0.275226	209.602
0.294703	211.031
0.314179	212.331
0.33401	214.15
0.351717	215.579
0.375443	217.658
0.395628	219.218
0.416167	220.907
0.43529	221.817
0.457246	223.636
0.478493	225.325
0.498324	226.105
0.519572	227.275
0.53834	228.834
0.558171	230.393
0.57694	231.433
0.598187	232.992
0.619081	234.292
0.639266	235.721
0.659097	237.151
0.680699	238.97
0.700884	240.269
0.720006	241.829
0.740192	243.778
0.761439	245.857
0.780916	247.806
0.802517	249.886
0.822703	252.095
0.842534	255.084
0.864489	258.462
0.882904	262.361
0.904151	265.22
0.923274	270.677
0.944167	274.966
0.964352	281.073
0.950187	287.051
0.926815	284.244
0.904293	281.905
0.883895	278.474
0.863498	275.044
0.84395	271.925
0.822703	269.274
0.80358	266.779
0.781907	264.128
0.76236	262.257
0.741112	260.23
0.721989	258.826
0.701167	256.487
0.680344	255.24
0.661647	253.68
0.640399	252.433
0.620427	251.185
0.600029	250.249
0.578781	248.69
0.559234	247.443
0.539261	246.507
0.518439	245.259
0.497191	244.012
0.477218	239.958
0.458096	234.656
0.435998	232.161
0.416026	229.666
0.395203	229.042
0.375656	227.95
0.354408	226.547
0.33571	225.299
0.316163	224.364
0.294915	222.181
0.273668	220.777
0.253695	219.218
0.233722	217.347
0.21205	216.255
0.192927	214.228
0.17253	212.668
0.152557	210.173
0.131734	207.834
0.111337	204.716
0.090939	201.597
0.070542	196.607
0.050994	182.884
