Adsorption isotherm of Nitrogen on TPAC-COF (Solvent 7)
DOI: 10.1002/anie.201915569
Article source: Figure S3
Adsorbate Nitrogen: InChIKey IJGRMHOSHXDMSA-UHFFFAOYSA-N
Kind: experiment
Temperature: 77 K
Tabular data in the source: 0
pressure (bar)	uptake (cm3(STP)/g)
0.001221	16.4023
0.006256	26.5853
0.012149	31.1255
0.021419	34.4396
0.029002	37.8761
0.036164	41.0672
0.045014	43.6453
0.052177	46.1003
0.068619	48.68
0.090544	50.7702
0.111628	52.1242
0.130183	52.8642
0.151689	54.0956
0.172774	54.9589
0.193015	56.0674
0.214099	57.0533
0.233497	57.9162
0.252052	58.779
0.273138	59.1516
0.292958	60.1373
0.314042	61.1232
0.333441	61.8635
0.354527	62.3587
0.374768	63.3445
0.394588	64.0848
0.415252	64.7027
0.435494	65.3204
0.456369	65.9383
0.476189	66.6787
0.49622	67.4191
0.516885	67.6689
0.537549	68.1641
0.55779	69.1498
0.578033	69.7676
0.598696	70.6308
0.618938	71.1259
0.639181	71.621
0.659422	72.4841
0.679243	72.9791
0.69822	73.4739
0.721413	74.583
0.738703	75.2001
0.759367	75.9406
0.780873	77.2947
0.801534	78.7712
0.819666	80.1246
0.842437	81.3562
0.860988	83.5684
0.882914	85.4132
0.899778	87.8704
0.921279	90.9418
0.940667	95.6076
0.962585	100.765
0.946124	105.791
0.925458	106.277
0.900998	105.658
0.881179	104.427
0.860095	103.073
0.841121	101.352
0.819618	98.9549
0.800223	97.0493
0.780828	95.0823
0.759324	92.9922
0.739505	91.8838
0.718843	90.2846
0.698602	89.2988
0.678362	87.8223
0.657698	87.3272
0.638721	86.8323
0.618479	86.2146
0.597393	85.3513
0.577571	85.4697
0.555642	84.8516
0.536243	84.3567
0.516422	83.9843
0.496601	83.612
0.47636	82.5649
0.454855	81.1495
0.435456	80.4092
0.414792	79.7914
0.39455	79.1736
0.373886	78.8011
0.354487	78.3062
0.333821	78.1791
0.314	77.9294
0.293758	77.4344
0.273093	77.1845
0.252639	76.8121
0.231764	76.1942
0.212786	75.9447
0.19128	75.0813
0.171458	74.9544
0.152059	74.3368
0.130973	73.8415
0.110732	72.7331
0.090913	71.6247
0.070673	70.2709
0.050437	67.3224
