Adsorption isotherm of Nitrogen on TPAC-COF (Solvent 5)
DOI: 10.1002/anie.201915569
Article source: Figure S3
Adsorbate Nitrogen: InChIKey IJGRMHOSHXDMSA-UHFFFAOYSA-N
Kind: experiment
Temperature: 77 K
Tabular data in the source: 0
pressure (bar)	uptake (cm3(STP)/g)
0.008916	48.7357
0.017384	62.5162
0.026481	67.4644
0.034971	72.4124
0.042247	77.0069
0.048308	82.131
0.05558	88.1387
0.070144	92.5581
0.090785	95.7422
0.112033	98.7499
0.130857	99.9905
0.153323	101.939
0.173967	103.533
0.192183	104.95
0.212829	105.838
0.232868	106.902
0.252299	107.966
0.274768	108.501
0.293594	109.035
0.315454	110.1
0.334279	110.81
0.354925	111.698
0.374965	112.232
0.393182	113.119
0.412614	114.184
0.433867	115.425
0.455728	116.136
0.475768	116.67
0.495202	116.675
0.515242	117.032
0.534673	118.273
0.555321	118.454
0.576574	119.695
0.596613	120.76
0.616653	121.117
0.636692	122.181
0.65673	123.422
0.676769	124.31
0.698629	125.375
0.718059	126.969
0.738098	127.856
0.758744	129.097
0.778175	130.161
0.799426	132.109
0.819464	133.527
0.840715	135.474
0.860143	137.775
0.880176	140.959
0.900209	144.32
0.919633	148.21
0.939663	152.808
0.961508	159.878
0.94267	164.644
0.919595	163.225
0.898952	161.278
0.880132	158.624
0.860708	154.557
0.838246	151.196
0.820034	148.189
0.798179	145.181
0.779358	142.88
0.762966	140.58
0.737463	138.985
0.718035	136.684
0.698604	135.444
0.67735	134.556
0.657919	133.492
0.637882	131.897
0.61602	131.186
0.596589	130.122
0.57655	129.411
0.555902	128.877
0.537077	128.343
0.516432	127.102
0.496392	126.391
0.475748	124.443
0.455713	122.142
0.434461	120.724
0.415029	119.837
0.394988	119.479
0.375556	118.768
0.354302	118.234
0.333655	117.523
0.313616	116.635
0.291754	116.101
0.274145	115.037
0.25289	114.679
0.231637	113.438
0.212813	112.197
0.192166	111.839
0.171519	111.128
0.152088	109.888
0.132658	108.47
0.110799	106.699
0.091066	104.928
0.071943	101.921
0.05192	94.4973
