Adsorption isotherm of Nitrogen on TPAC-COF (Solvent 3)
DOI: 10.1002/anie.201915569
Article source: Figure S3
Adsorbate Nitrogen: InChIKey IJGRMHOSHXDMSA-UHFFFAOYSA-N
Kind: experiment
Temperature: 77 K
Tabular data in the source: 0
pressure (bar)	uptake (cm3(STP)/g)
0.001555	51.3642
0.004485	60.0747
0.009113	64.3692
0.015422	71.1176
0.020896	74.799
0.026368	79.0938
0.031421	82.2844
0.03605	86.2109
0.041524	89.4016
0.047	92.347
0.06806	103.024
0.091667	107.323
0.110641	109.167
0.132568	110.521
0.151753	112.427
0.171781	114.087
0.192865	115.319
0.213107	116.304
0.232505	117.167
0.253167	118.276
0.273408	119.507
0.29365	120.247
0.314312	121.356
0.33329	121.912
0.355218	122.837
0.375039	123.332
0.394437	123.949
0.414257	125.058
0.433235	124.939
0.453898	125.925
0.47414	126.788
0.49649	127.774
0.517154	128.331
0.537396	129.133
0.556795	129.505
0.577038	129.632
0.59686	129.882
0.618366	130.745
0.641139	131.486
0.660537	132.349
0.679513	133.089
0.700598	134.075
0.717466	134.815
0.737285	136.046
0.758791	137.216
0.779033	137.895
0.80096	139.249
0.819934	141.093
0.83933	142.692
0.860411	145.396
0.880648	147.976
0.901305	151.17
0.921119	154.609
0.939242	159.397
0.960737	164.738
0.945542	169.458
0.925725	167.614
0.899162	164.909
0.879768	162.451
0.859953	159.503
0.839716	156.922
0.8199	154.465
0.79924	152.375
0.779424	150.162
0.759606	148.563
0.738944	147.209
0.718703	146.224
0.698041	144.747
0.677799	143.884
0.657558	142.837
0.637316	142.158
0.617496	141.54
0.596412	140.186
0.576168	140.059
0.556349	139.196
0.536528	138.578
0.51502	138.328
0.496886	138.079
0.474959	136.357
0.455565	133.776
0.435746	132.913
0.41466	132.173
0.394839	131.923
0.374175	131.428
0.353511	130.81
0.334112	130.438
0.313025	130.065
0.293205	129.202
0.272963	128.585
0.253143	127.844
0.232901	127.349
0.212659	126.363
0.192839	125.746
0.171755	124.392
0.151514	123.406
0.131696	121.93
0.111034	120.33
0.090795	118.486
0.070137	115.537
0.052023	107.314
