Adsorption isotherm of Nitrogen on TPAC-COF (Solvent 2)
DOI: 10.1002/anie.201915569
Article source: Figure S3
Adsorbate Nitrogen: InChIKey IJGRMHOSHXDMSA-UHFFFAOYSA-N
Kind: experiment
Temperature: 77 K
Tabular data in the source: 0
pressure (bar)	uptake (cm3(STP)/g)
-0.000357	56.8841
0.000234	73.1385
0.001033	90.8649
0.003105	105.463
0.005606	117.363
0.011486	126.933
0.015685	134.417
0.021571	141.533
0.027039	147.3
0.035038	153.19
0.039874	158.589
0.045764	164.356
0.052286	170.368
0.068284	181.412
0.091463	188.41
0.112119	192.217
0.132355	195.043
0.151327	197.501
0.171143	199.958
0.192225	202.294
0.212041	204.383
0.232281	205.983
0.25252	207.95
0.27318	209.917
0.293419	211.761
0.312393	213.483
0.33432	215.205
0.353717	216.436
0.373534	218.403
0.394618	219.635
0.414014	221.356
0.434255	222.587
0.454917	223.941
0.475578	225.418
0.495398	226.281
0.516059	228.003
0.537565	229.357
0.556119	230.219
0.576359	231.941
0.597442	233.418
0.618104	235.017
0.636658	236.125
0.657319	237.724
0.678825	239.079
0.697799	240.8
0.718461	242.154
0.73849	243.753
0.759783	245.843
0.780864	248.178
0.799837	250.145
0.82134	252.849
0.840732	255.92
0.860546	258.991
0.88036	262.43
0.901438	265.992
0.920403	271.149
0.941901	275.815
0.960441	282.259
0.94651	287.715
0.924586	284.766
0.899712	281.571
0.880318	278.991
0.859661	275.674
0.840269	272.481
0.819188	270.023
0.799373	267.074
0.779135	264.862
0.758896	262.772
0.738658	260.682
0.717997	258.715
0.698179	257.484
0.678361	255.885
0.657277	254.531
0.637881	252.932
0.616796	251.7
0.596556	250.347
0.577159	249.238
0.556918	248.253
0.536677	247.021
0.516436	245.79
0.494931	244.314
0.475119	240.322
0.455732	234.982
0.432966	232.033
0.413571	229.943
0.394173	228.835
0.373932	227.849
0.35327	226.618
0.333451	225.387
0.312789	224.033
0.293392	222.557
0.27273	221.326
0.252912	219.726
0.23225	218.127
0.212432	216.528
0.191349	215.052
0.171955	212.717
0.15256	210.627
0.131057	208.169
0.111664	205.098
0.091429	201.781
0.071198	196.747
0.051831	183.494
