Adsorption isotherm of Nitrogen on TPAC-COF (Solvent 4)
DOI: 10.1002/anie.201915569
Article source: Figure S3
Adsorbate Nitrogen: InChIKey IJGRMHOSHXDMSA-UHFFFAOYSA-N
Kind: experiment
Temperature: 77 K
Tabular data in the source: 0
pressure (bar)	uptake (cm3(STP)/g)
-0.000138	53.572
0.005307	68.5393
0.01203	78.6
0.016228	85.9613
0.024225	92.4647
0.030957	98.7225
0.038114	103.999
0.045688	110.748
0.051577	116.883
0.068422	126.577
0.092871	131.49
0.110999	134.315
0.132503	136.405
0.153584	138.618
0.170872	140.339
0.191954	142.306
0.211773	143.537
0.233279	144.769
0.253518	146.491
0.273759	147.599
0.293999	148.953
0.312553	150.061
0.334903	151.17
0.355566	152.156
0.375385	153.387
0.393518	154.249
0.414182	154.745
0.435267	155.608
0.457617	156.471
0.476171	157.58
0.497256	158.566
0.516654	159.428
0.537317	160.292
0.556293	161.4
0.576112	162.508
0.596353	163.371
0.616595	164.112
0.637679	165.466
0.658553	166.574
0.678162	167.192
0.699246	168.669
0.72033	170.023
0.738883	171.131
0.758702	172.607
0.779364	173.961
0.798759	176.051
0.81942	177.65
0.839235	180.598
0.859051	182.933
0.878865	186.004
0.901209	189.567
0.921441	194.233
0.940405	199.88
0.96105	207.735
0.942057	213.742
0.927297	213.371
0.900313	210.421
0.879234	207.104
0.860265	203.175
0.839187	199.367
0.818954	195.315
0.79914	192.121
0.778904	189.172
0.757822	186.837
0.738428	184.625
0.718189	182.78
0.697949	181.181
0.676866	179.459
0.657469	178.351
0.637228	177.12
0.617409	176.134
0.595481	175.025
0.576082	174.285
0.556263	173.299
0.5356	172.313
0.51578	171.328
0.49596	170.526
0.475721	168.988
0.455272	166.408
0.433979	164.563
0.414581	163.577
0.393919	162.469
0.374942	161.851
0.354278	160.988
0.334459	160.002
0.312952	159.262
0.293131	158.644
0.273313	157.29
0.253071	156.427
0.231566	155.073
0.213011	154.21
0.19277	152.979
0.171686	151.748
0.151868	150.149
0.131207	148.427
0.111391	146.214
0.090309	144.247
0.071762	140.318
0.052389	129.395
