Adsorption isotherm of Nitrogen on TPAC-COF (Solvent 9)
DOI: 10.1002/anie.201915569
Article source: Figure S3
Adsorbate Nitrogen: InChIKey IJGRMHOSHXDMSA-UHFFFAOYSA-N
Kind: experiment
Temperature: 77 K
Tabular data in the source: 0
pressure (bar)	uptake (cm3(STP)/g)
-5e-05	18.6101
0.001594	35.6621
0.006203	47.8077
0.011244	55.5372
0.018821	61.3045
0.0264	66.0904
0.032716	70.14
0.039876	74.0671
0.047459	77.6263
0.055461	81.6762
0.069371	84.8688
0.091293	88.431
0.111108	90.8888
0.132191	92.7335
0.151165	94.5777
0.172669	96.6678
0.191643	98.3893
0.211884	99.4978
0.232545	100.974
0.252364	102.205
0.273448	103.559
0.29411	104.791
0.315194	106.39
0.335856	107.744
0.353988	108.852
0.373385	109.96
0.39489	111.805
0.415974	112.791
0.435794	113.899
0.456034	115.253
0.474588	116.484
0.494828	117.715
0.515068	119.191
0.536996	120.177
0.557238	121.163
0.577055	122.885
0.597296	124.116
0.617958	125.593
0.639462	127.315
0.656749	129.036
0.67699	130.267
0.697651	131.866
0.71789	133.833
0.737707	135.8
0.758789	137.768
0.779868	141.085
0.799263	143.297
0.8195	146
0.839315	148.703
0.860182	152.388
0.882315	155.828
0.902127	159.757
0.921095	163.932
0.940901	170.316
0.962392	177.558
0.94593	182.829
0.926112	181.353
0.900815	178.281
0.88058	174.964
0.860768	171.034
0.839269	166.859
0.819878	163.174
0.800064	160.349
0.780248	157.952
0.758745	155.555
0.739772	153.343
0.719533	151.499
0.699293	149.9
0.678633	147.932
0.65797	146.824
0.637729	145.715
0.617911	144.239
0.596826	143.253
0.576163	142.39
0.557187	141.282
0.536525	139.805
0.51544	139.187
0.495621	137.833
0.475383	135.498
0.453463	131.323
0.434072	127.515
0.413834	125.426
0.394858	124.317
0.37504	122.964
0.354377	121.978
0.334557	120.87
0.314316	120.129
0.293653	119.021
0.273411	118.28
0.252748	117.172
0.232929	116.063
0.212689	114.832
0.191605	113.478
0.171786	112.37
0.151546	110.648
0.131938	109.294
0.111489	107.45
0.090408	104.869
0.071014	102.289
0.051206	96.6414
