Adsorption isotherm of Nitrogen on TPAC-COF (Solvent 1)
DOI: 10.1002/anie.201915569
Article source: Figure S3
Adsorbate Nitrogen: InChIKey IJGRMHOSHXDMSA-UHFFFAOYSA-N
Kind: experiment
Temperature: 77 K
Tabular data in the source: 0
pressure (bar)	uptake (cm3(STP)/g)
-0.003243	54.0326
-0.000251	71.5215
0.003354	86.8908
0.007268	100.317
0.011798	110.21
0.016031	117.631
0.022694	124.521
0.026928	131.412
0.031769	138.302
0.037828	143.956
0.046314	150.317
0.051764	156.678
0.068723	174.7
0.092693	182.213
0.111815	185.661
0.132455	189.022
0.151883	191.323
0.171312	193.27
0.191955	195.395
0.211991	197.519
0.231876	199.358
0.252959	201.08
0.273199	202.618
0.293018	203.788
0.314101	205.51
0.334341	206.741
0.35416	208.094
0.3744	209.326
0.395484	210.802
0.41488	212.279
0.434277	213.632
0.455993	215.109
0.476445	216.095
0.494999	217.203
0.516083	218.557
0.53506	219.174
0.556988	220.283
0.576806	221.882
0.596624	223.359
0.617287	224.59
0.637527	225.944
0.656923	227.543
0.676742	228.712
0.697404	230.311
0.718487	231.911
0.739149	233.203
0.758966	235.048
0.778784	236.769
0.800286	239.596
0.81968	241.931
0.839917	244.634
0.860994	248.687
0.881228	252.617
0.900404	257.896
0.921268	262.93
0.939807	269.619
0.961716	278.273
0.943972	290.413
0.926895	289.306
0.900967	285.497
0.87989	281.322
0.859241	274.877
0.838591	268.923
0.819624	264.012
0.798547	260.204
0.779581	255.171
0.757237	251.976
0.73827	247.433
0.717187	245.466
0.696949	243.253
0.677553	241.532
0.657737	239.381
0.637496	238.334
0.616835	236.244
0.596172	235.503
0.577619	233.782
0.556534	233.041
0.53545	231.687
0.515209	230.824
0.495602	229.041
0.47473	227.503
0.45407	225.29
0.43383	223.691
0.414011	222.338
0.394616	220.432
0.354134	218.154
0.333472	217.045
0.312388	215.568
0.293412	214.583
0.272751	212.861
0.252932	211.507
0.232271	209.785
0.211609	208.432
0.191792	206.403
0.171554	204.497
0.151737	202.408
0.131921	199.95
0.11042	196.878
0.091449	193.685
0.0708	187.424
0.049755	170.49
