Adsorption isotherm of Nitrogen on TPAC-COF
DOI: 10.1002/anie.201915569
Article source: Figure S25
Adsorbate Nitrogen: InChIKey IJGRMHOSHXDMSA-UHFFFAOYSA-N
Kind: experiment
Temperature: 77 K
Tabular data in the source: 0
pressure (bar)	uptake (cm3(STP)/g)
0.000572	17.0336
0.00458	42.6443
0.014311	55.4497
0.025761	64.3893
0.036637	72.1208
0.047514	80.4564
0.057818	89.1544
0.069267	93.745
0.091021	97.8523
0.110484	100.631
0.131803	102.96
0.151018	104.777
0.171888	106.665
0.191765	108.063
0.212305	109.601
0.233176	110.999
0.252721	112.188
0.27293	113.516
0.293138	114.705
0.313678	115.893
0.334548	117.012
0.3531	118.2
0.374965	119.319
0.395173	120.507
0.415382	121.416
0.434927	122.395
0.455798	123.304
0.476006	124.282
0.496546	125.331
0.516754	126.31
0.5363	127.358
0.55684	128.267
0.577048	129.246
0.597256	130.225
0.617796	131.134
0.637673	132.043
0.657881	133.161
0.678752	134.21
0.698629	135.328
0.718837	136.657
0.739377	138.195
0.759254	139.523
0.779793	141.131
0.79967	142.529
0.819879	144.277
0.840418	146.794
0.861289	149.38
0.881166	152.037
0.901706	155.742
0.921914	159.308
0.941791	164.201
0.961999	170.214
0.939748	176.04
0.921803	172.894
0.900822	168.815
0.880393	166.019
0.861068	162.465
0.840087	159.96
0.82021	156.639
0.799505	154.426
0.779904	152.27
0.758922	150.639
0.739598	149.007
0.718616	147.609
0.698739	146.269
0.67831	145.221
0.658433	143.764
0.638004	143.007
0.617299	141.958
0.597422	140.968
0.576717	140.036
0.55684	139.162
0.536134	138.113
0.516533	137.414
0.495276	136.598
0.475399	134.268
0.454694	131.763
0.434817	130.248
0.414664	129.549
0.394511	128.442
0.374358	127.626
0.354205	126.753
0.332947	125.704
0.313346	125.005
0.292917	123.84
0.272488	122.849
0.252335	121.626
0.231906	120.577
0.212581	119.47
0.1916	118.13
0.171447	116.499
0.150741	115.101
0.131141	113.12
0.110711	111.081
0.090558	108.692
0.070681	104.847
0.05108	95.0016
