Adsorption isotherm of Nitrogen on TPAC-COF (Solvent 6)
DOI: 10.1002/anie.201915569
Article source: Figure S3
Adsorbate Nitrogen: InChIKey IJGRMHOSHXDMSA-UHFFFAOYSA-N
Kind: experiment
Temperature: 77 K
Tabular data in the source: 0
pressure (bar)	uptake (cm3(STP)/g)
-0.002035	56.6826
-0.000862	73.2879
0.001522	90.9533
0.003307	105.792
0.007528	117.629
0.011757	126.639
0.017809	134.766
0.022044	141.48
0.027496	146.78
0.035983	152.788
0.039613	158.265
0.045065	164.096
0.052337	170.103
0.068705	181.766
0.091767	188.307
0.110585	191.667
0.130618	194.675
0.152474	197.682
0.170687	200.159
0.192546	201.931
0.211367	204.231
0.232618	206.002
0.25144	208.126
0.272759	209.794
0.292998	211.516
0.312816	213.115
0.333055	214.96
0.353085	216.313
0.373535	218.158
0.395039	219.88
0.414014	221.479
0.434676	222.71
0.454494	224.186
0.474735	225.295
0.494555	226.281
0.516059	228.003
0.946088	287.715
0.924586	284.766
0.900133	281.572
0.879474	279.236
0.860083	275.429
0.839003	272.48
0.819609	270.145
0.799794	267.32
0.779135	264.616
0.758896	262.895
0.738658	260.682
0.717997	258.837
0.698178	257.729
0.677939	255.885
0.658121	254.408
0.637458	253.422
0.615953	251.578
0.597821	250.347
0.576737	249.361
0.556918	248.13
0.537099	247.022
0.516436	245.79
0.496197	244.191
0.475963	240.139
0.455733	234.859
0.432966	231.91
0.41357	230.066
0.394173	228.896
0.373932	227.972
0.35327	226.495
0.333451	225.264
0.314054	223.911
0.293392	222.679
0.272309	221.08
0.252912	219.726
0.231829	218.127
0.212011	216.283
0.190928	214.561
0.171954	212.839
0.151295	210.381
0.131479	207.923
0.111243	205.098
0.090586	201.536
0.071198	196.624
0.052253	183.372
