Adsorption isotherm of Nitrogen on TPAC-COF (Solvent 8)
DOI: 10.1002/anie.201915569
Article source: Figure S3
Adsorbate Nitrogen: InChIKey IJGRMHOSHXDMSA-UHFFFAOYSA-N
Kind: experiment
Temperature: 77 K
Tabular data in the source: 0
pressure (bar)	uptake (cm3(STP)/g)
-0.000687	20.3888
-0.00137	40.4457
-0.000152	59.215
0.000222	78.1067
0.002287	95.4041
0.007316	108.163
0.016148	117.979
0.024353	125.648
0.034036	132.09
0.043088	138.349
0.051509	143.993
0.068783	150.99
0.091124	155.411
0.112626	158.359
0.1316	160.081
0.151417	162.048
0.172078	163.893
0.194003	166.105
0.212556	167.336
0.231953	168.813
0.25388	170.289
0.272434	171.397
0.292252	172.996
0.312493	173.982
0.332311	175.459
0.353817	176.813
0.373636	177.921
0.395142	179.03
0.414538	180.751
0.436467	181.37
0.45502	182.846
0.474629	183.709
0.495923	185.431
0.516163	186.784
0.537248	187.893
0.55538	189.001
0.576044	189.619
0.597549	191.218
0.617368	192.327
0.636766	193.067
0.656586	193.807
0.677247	195.529
0.698754	196.515
0.72026	197.747
0.737549	198.609
0.758632	200.331
0.778871	202.176
0.79911	204.02
0.818928	205.619
0.838324	207.218
0.858561	210.044
0.880907	212.625
0.90072	215.941
0.9218	219.136
0.939924	223.188
0.963321	227.18
0.93779	233.492
0.917547	232.997
0.900681	231.644
0.880018	230.535
0.860623	228.445
0.839962	226.723
0.820146	224.388
0.799275	222.421
0.779245	221.067
0.759428	219.223
0.738344	217.746
0.718104	216.393
0.697864	214.916
0.678888	213.808
0.657381	213.067
0.637561	212.204
0.616899	211.096
0.596657	210.478
0.577259	209.37
0.556596	208.506
0.535932	207.766
0.51569	207.025
0.495449	206.04
0.476477	203.459
0.455402	198.548
0.432215	195.231
0.413245	191.853
0.392582	190.806
0.373606	189.698
0.353365	188.589
0.333123	187.971
0.313726	186.863
0.293906	186
0.273665	185.014
0.252159	183.906
0.23234	182.675
0.211888	181.566
0.191015	180.335
0.17204	178.736
0.1518	177.382
0.131351	175.17
0.110479	173.325
0.090665	170.254
0.070851	166.937
0.052315	158.96
