Adsorption isotherm of Nitrogen on MCoS-1
DOI: 10.1039/C0dt01483d
Adsorbate Nitrogen: InChIKey IJGRMHOSHXDMSA-UHFFFAOYSA-N
Temperature: 77 K
Tabular data in the source: 0
pressure (bar)	uptake (cm3(STP)/g)
0.00400996	27.779
0.00619484	35.4261
0.0149343	43.0731
0.0367831	50.174
0.0717411	58.9135
0.124178	64.3757
0.198464	69.8378
0.285859	74.7538
0.375439	78.0311
0.491237	84.0395
0.578632	88.9555
0.663842	94.9639
0.738128	100.972
0.816783	110.804
0.862665	120.09
0.895439	132.107
0.926027	147.947
0.943506	165.426
