Adsorption isotherm of Nitrogen on MCoS-1
DOI: 10.1039/C0dt01483d
Adsorbate Nitrogen: InChIKey IJGRMHOSHXDMSA-UHFFFAOYSA-N
Temperature: 77 K
Tabular data in the source: 0
pressure (bar)	uptake (cm3(STP)/g)
0.00400996	96.6026
0.021489	111.897
0.0389679	118.451
0.08922	131.014
0.159136	143.577
0.229052	149.586
0.272749	152.317
0.360144	158.325
0.471573	163.787
0.539304	166.519
0.600481	170.342
0.668212	176.897
0.738128	183.451
0.797119	191.645
0.845186	200.93
0.871405	210.762
0.899808	217.317
0.936951	236.434
