Adsorption isotherm of Nitrogen on MCoS-1
DOI: 10.1039/C0dt01483d
Adsorbate Nitrogen: InChIKey IJGRMHOSHXDMSA-UHFFFAOYSA-N
Temperature: 77 K
Tabular data in the source: 0
pressure (bar)	uptake (cm3(STP)/g)
0.00837971	79.1236
0.0236738	91.1404
0.0477074	97.695
0.102329	109.166
0.165691	116.266
0.257455	126.645
0.368884	131.014
0.495607	138.115
0.591741	144.124
0.666027	149.04
0.722834	153.409
0.797119	162.149
0.836447	168.703
0.897623	177.989
0.919472	186.729
0.95443	196.561
