Adsorption isotherm of Hydrogen on [Zn3(OH)(p-CDC)2.5(DEF)4]n
DOI: 10.1021/Ja076167a
Adsorbate Hydrogen: InChIKey UFHFLCQGNIYNRP-UHFFFAOYSA-N
Temperature: 77 K
Tabular data in the source: 0
pressure (bar)	uptake (wt%)
0.0105646	0.0415791
0.100144	0.275579
0.156951	0.344403
0.209388	0.390285
0.25964	0.426991
0.362329	0.477461
0.510901	0.541697
0.659472	0.582991
0.810228	0.670167
1.0025	0.711461
