Adsorption isotherm of Hydrogen on [Zn3(OH)(p-CDC)2.5(DEF)4]n
DOI: 10.1021/Ja076167a
Adsorbate Hydrogen: InChIKey UFHFLCQGNIYNRP-UHFFFAOYSA-N
Temperature: 77 K
Tabular data in the source: 0
pressure (bar)	uptake (wt%)
0.00400996	0.00487319
0.00619484	0.514167
0.0105646	0.725226
0.0520772	1.00511
0.100144	1.17487
0.154766	1.28499
0.25964	1.44558
0.458464	1.64287
0.714094	1.84934
1.0025	2.05581
