Adsorption isotherm of Hydrogen on [Zn3(OH)(p-CDC)2.5(DEF)4]n
DOI: 10.1021/Ja076167a
Adsorbate Hydrogen: InChIKey UFHFLCQGNIYNRP-UHFFFAOYSA-N
Temperature: 77 K
Tabular data in the source: 0
pressure (bar)	uptake (wt%)
0.0564469	0.0140497
0.152581	0.0140497
0.253086	0.00946143
0.35359	0.0232261
0.458464	0.0278144
0.550228	0.0278144
0.650733	0.0232261
0.751237	0.0369908
0.904178	0.0415791
1.00031	0.0461673
