Adsorption isotherm of Carbon Dioxide on Zeolite 4A S5.0
DOI: 10.1021/Jp911733e
Adsorbate Carbon Dioxide: InChIKey CURLTUGMZLYLDI-UHFFFAOYSA-N
Temperature: 303 K
Tabular data in the source: 0
pressure (bar)	uptake (mmol/g)
0.755786	0.0756147
0.991654	0.132642
1.70034	0.189217
1.98367	0.227115
2.12551	0.226979
2.55105	0.226573
3.02369	0.245206
3.44886	0.282969
3.73201	0.33995
3.87404	0.320731
4.20501	0.320415
4.63018	0.358177
5.10264	0.395894
5.29195	0.37663
5.52799	0.414573
5.52818	0.395488
6.00063	0.433206
6.37816	0.509181
6.89844	0.489601
7.22851	0.584706
7.32326	0.565531
7.65459	0.527047
8.07995	0.545725
8.55258	0.564358
9.02504	0.602075
9.40311	0.620799
9.45039	0.620753
9.82847	0.639477
10.3009	0.677194
10.7736	0.695827
11.1987	0.733589
11.6714	0.752222
12.144	0.770855
12.5692	0.808617
12.6166	0.789488
13.0418	0.82725
13.4672	0.845928
13.9396	0.883645
14.365	0.902323
14.8376	0.920956
15.3101	0.958674
15.7354	0.977352
15.7827	0.977307
16.1606	1.01511
16.6333	1.03375
17.1059	1.05238
17.5783	1.0901
18.0037	1.10878
18.3343	1.14663
18.4763	1.12741
18.9488	1.16513
19.3741	1.1838
19.8466	1.22152
20.3192	1.24015
20.4138	1.24006
