Adsorption isotherm of Methane on Zeolite 4A S0.3
DOI: 10.1021/Jp911733e
Adsorbate Methane: InChIKey VNWKTOKETHGBQD-UHFFFAOYSA-N
Temperature: 303 K
Tabular data in the source: 0
pressure (bar)	uptake (mmol/g)
2.2049	0.0190666
2.67261	0.0467962
3.34076	0.0561964
3.94209	0.0747715
4.87751	0.0658628
5.14477	0.093531
5.81292	0.102931
6.41425	0.121506
7.08241	0.130906
7.68374	0.149482
8.28508	0.158861
8.35189	0.149686
8.88641	0.177436
9.48775	0.186816
10.1559	0.196216
10.8241	0.214812
11.4254	0.224192
12.0267	0.251962
12.1604	0.270394
12.4944	0.270496
13.0958	0.270681
13.7639	0.289276
14.3653	0.307851
15.0334	0.326447
15.6347	0.345022
16.3029	0.363618
16.9042	0.382193
17.5056	0.409963
18.1737	0.428559
18.2405	0.428579
18.7751	0.447134
19.3764	0.474905
20.0445	0.4935
20.6459	0.521271
21.314	0.549062
21.9154	0.576832
22.5835	0.604623
23.2517	0.623219
23.3185	0.623239
23.6526	0.669319
24.3207	0.69711
24.922	0.734076
25.5234	0.771042
26.1247	0.808008
26.7929	0.844994
27.3942	0.88196
27.8619	0.92808
28.0624	0.928142
