Adsorption isotherm of Carbon Dioxide on Zeolite 4A
DOI: 10.1021/Jp911733e
Adsorbate Carbon Dioxide: InChIKey CURLTUGMZLYLDI-UHFFFAOYSA-N
Temperature: 303 K
Tabular data in the source: 0
pressure (bar)	uptake (mmol/g)
0.0268892	2.15646
0.0299571	1.83203
0.0431311	0.43889
0.0799459	1.54573
0.0840965	1.10679
0.0877058	0.725107
0.0922175	0.248004
0.213129	2.46163
0.352448	2.72867
0.445567	2.88125
0.822558	3.01448
1.0106	3.12881
1.05752	3.16693
1.24647	3.18583
1.6711	3.28085
2.04845	3.37591
2.42563	3.49005
2.85026	3.58507
3.27489	3.68008
3.69953	3.7751
4.07706	3.85107
4.26582	3.88906
4.45459	3.92705
4.8794	4.00298
5.30422	4.07891
5.77649	4.13571
6.20167	4.17347
6.67413	4.21119
6.95764	4.23
7.05238	4.21083
7.14658	4.24891
7.61922	4.26754
8.04439	4.3053
8.51703	4.32393
8.98967	4.34257
9.41502	4.36125
9.88766	4.37988
10.313	4.39856
10.7858	4.39811
11.2585	4.41674
11.6838	4.43542
12.1565	4.45405
12.6293	4.4536
13.1019	4.47223
13.5273	4.49091
14.1421	4.47124
14.3311	4.49014
14.8037	4.50878
15.2765	4.50832
15.7493	4.50787
16.2222	4.50742
16.695	4.50697
17.1678	4.50652
17.6408	4.48698
18.1136	4.48653
18.5864	4.48608
18.9649	4.46664
19.4377	4.46619
19.7686	4.46587
19.9105	4.46573
20.3833	4.46528
