Adsorption isotherm of Methane on Zeolite 4A
DOI: 10.1021/Jp911733e
Adsorbate Methane: InChIKey VNWKTOKETHGBQD-UHFFFAOYSA-N
Temperature: 303 K
Tabular data in the source: 0
pressure (bar)	uptake (mmol/g)
0.13363	0.0827996
0.334076	0.138033
0.467706	0.211638
0.601336	0.266851
0.734967	0.322064
0.868597	0.368082
1.06904	0.441707
1.20267	0.460139
1.73719	0.515475
2.2049	0.570791
2.73942	0.635322
3.27394	0.690659
3.74165	0.745974
4.27617	0.801311
4.81069	0.865842
5.34521	0.921179
5.87973	0.976515
6.34744	1.02264
6.94878	1.07799
7.08241	1.08723
7.34967	1.12409
7.951	1.17025
8.55234	1.20722
9.15367	1.25338
9.75501	1.28115
10.3563	1.31812
11.0245	1.34591
11.2249	1.36436
11.8263	1.40133
12.4944	1.42912
13.0958	1.46608
13.6971	1.49385
14.3653	1.52164
14.9666	1.54942
15.6347	1.57721
16.0356	1.58652
16.2361	1.61417
16.8374	1.64194
17.5056	1.66973
18.1069	1.7067
18.7751	1.73449
19.3764	1.76226
20.0445	1.79005
20.5791	1.79941
20.6459	1.80863
20.9131	1.8179
21.5813	1.8365
22.1826	1.85508
22.8508	1.86448
23.5189	1.88307
24.1203	1.89245
24.7884	1.91105
25.4566	1.92045
26.0579	1.93902
26.7261	1.94842
27.3274	1.9578
27.5278	1.95786
