Adsorption isotherm of Carbon Dioxide on Zeolite 4A S0.3
DOI: 10.1021/Jp911733e
Adsorbate Carbon Dioxide: InChIKey CURLTUGMZLYLDI-UHFFFAOYSA-N
Temperature: 303 K
Tabular data in the source: 0
pressure (bar)	uptake (mmol/g)
0.708685	0.0565757
1.5594	0.0939319
2.59959	0.0929393
2.78872	0.0927589
3.26154	0.0923077
3.73418	0.110941
4.20681	0.129574
4.67963	0.129122
5.0577	0.147846
5.48324	0.14744
5.95588	0.166073
6.33395	0.184796
6.80695	0.165261
7.2323	0.183939
7.70512	0.183487
8.17776	0.20212
8.55619	0.182675
9.02865	0.220393
9.50147	0.219941
9.92682	0.238619
10.3996	0.238168
10.8723	0.256801
11.3451	0.25635
11.7704	0.275028
12.2433	0.274577
12.7157	0.312294
13.1413	0.311888
13.6141	0.311437
14.0393	0.349199
14.465	0.329709
14.9378	0.329258
15.316	0.328897
15.7887	0.34753
16.214	0.366208
16.6868	0.365757
17.1595	0.38439
17.6323	0.383939
17.8214	0.383758
18.2941	0.402391
18.7194	0.421069
19.145	0.420663
19.6176	0.439296
20.0904	0.438845
20.4687	0.438484
