Adsorption isotherm of Methane on Zeolite 4A S5.0
DOI: 10.1021/Jp911733e
Adsorbate Methane: InChIKey VNWKTOKETHGBQD-UHFFFAOYSA-N
Temperature: 303 K
Tabular data in the source: 0
pressure (bar)	uptake (mmol/g)
1.53675	0.0188618
4.4098	0.0381333
5.14477	0.0291631
5.81292	0.0385633
6.41425	0.0479431
7.01559	0.0757136
7.14922	0.08495
7.55011	0.0574866
8.21826	0.0668868
8.88641	0.076287
9.48775	0.0856667
10.1559	0.0950669
10.8241	0.113663
11.4254	0.132238
12.0267	0.141617
12.6281	0.169388
12.7617	0.169429
13.2962	0.169593
13.9644	0.188188
14.5657	0.206763
15.2339	0.225359
15.5679	0.207071
15.7684	0.225523
16.3697	0.253293
16.971	0.281064
17.5724	0.290444
18.1737	0.318214
18.7751	0.345985
19.3096	0.327758
19.3764	0.336974
19.5768	0.373817
20.245	0.392412
20.8463	0.420183
21.5145	0.447974
21.6481	0.45721
22.049	0.475724
22.5835	0.466692
22.7171	0.475929
22.8508	0.512751
23.5189	0.540542
24.1203	0.568313
24.7216	0.605279
25.2561	0.65142
25.3898	0.65146
25.8575	0.660799
26.4588	0.697765
27.1269	0.725556
27.9287	0.79017
