Adsorption isotherm of Carbon Dioxide on [Co7(OH)4(H2O)2(ina)4(ip)3]
DOI: 10.1021/Ic401912k
Adsorbate Carbon Dioxide: InChIKey CURLTUGMZLYLDI-UHFFFAOYSA-N
Temperature: 273 K
Tabular data in the source: 0
pressure (bar)	uptake (cm3(STP)/g)
0.00595567	1.12798
0.0178993	5.18432
0.031336	8.5646
0.0522374	14.3111
0.0820965	19.6069
0.111956	24.1139
0.162716	31.8885
0.213477	37.0716
0.267223	41.6914
0.37173	48.2266
0.479223	52.8463
0.59866	57.128
0.731533	60.5083
0.858435	63.4378
1.00624	66.1421
