Adsorption isotherm of Nitrogen on [Ni7(OH)4(H2O)2(ina)4(ip)3]
DOI: 10.1021/Ic401912k
Adsorbate Nitrogen: InChIKey IJGRMHOSHXDMSA-UHFFFAOYSA-N
Temperature: 77 K
Tabular data in the source: 0
pressure (bar)	uptake (cm3(STP)/g)
0.000865	13.8637
0.00229475	35.9594
0.00229475	61.0584
0.00229475	96.0254
0.00229475	125.2
0.00801532	138.286
0.0137359	145.58
0.0337579	149.012
0.110986	150.299
0.161041	151.157
0.298334	151.586
0.419897	152.016
0.520007	151.372
0.618686	150.943
0.721657	150.728
0.860381	149.87
0.946189	150.299
0.981943	152.23
