Adsorption isotherm of Hydrogen on [Co7(OH)4(H2O)2(ina)4(ip)3]
DOI: 10.1021/Ic401912k
Adsorbate Hydrogen: InChIKey UFHFLCQGNIYNRP-UHFFFAOYSA-N
Temperature: 77 K
Tabular data in the source: 0
pressure (bar)	uptake (cm3(STP)/g)
0.00801532	7.21354
0.0165962	19.0122
0.0294675	28.6657
0.0409086	36.3885
0.0666512	44.5403
0.103835	54.1937
0.15675	64.2763
0.209665	71.1409
0.239698	74.5733
0.335518	83.1541
0.465661	92.164
0.724517	105.035
0.797454	107.61
0.887553	111.042
0.95763	113.402
