Adsorption isotherm of Carbon Dioxide on [Co7(OH)4(H2O)2(ina)4(ip)3]
DOI: 10.1021/Ic401912k
Adsorbate Carbon Dioxide: InChIKey CURLTUGMZLYLDI-UHFFFAOYSA-N
Temperature: 290 K
Tabular data in the source: 0
pressure (bar)	uptake (cm3(STP)/g)
0.0164064	2.25474
0.0477585	6.31108
0.0806036	10.7054
0.110463	13.7477
0.162716	18.5928
0.213477	23.0998
0.271702	26.7054
0.376209	32.5646
0.47773	37.0716
0.597167	41.3533
0.73004	44.7336
0.859927	47.6632
0.924125	48.79
1.00325	50.1421
