Adsorption isotherm of Nitrogen on [Co7(OH)4(H2O)2(ina)4(ip)3]
DOI: 10.1021/Ic401912k
Adsorbate Nitrogen: InChIKey IJGRMHOSHXDMSA-UHFFFAOYSA-N
Temperature: 77 K
Tabular data in the source: 0
pressure (bar)	uptake (cm3(STP)/g)
0.00372489	9.7878
0.00372489	30.1673
0.00372489	50.1178
0.00372489	79.7218
0.00372489	118.55
0.00515504	99.8868
0.015166	132.709
0.0294675	136.785
0.0680813	138.072
0.15961	138.715
0.248279	139.359
0.348389	139.144
0.469952	138.501
0.568631	138.072
0.673032	138.072
0.773142	137.857
0.873252	137.857
0.947619	137.428
0.969071	138.93
