Adsorption isotherm of Carbon Dioxide on [Ni7(OH)4(H2O)2(ina)4(ip)3]
DOI: 10.1021/Ic401912k
Adsorbate Carbon Dioxide: InChIKey CURLTUGMZLYLDI-UHFFFAOYSA-N
Temperature: 290 K
Tabular data in the source: 0
pressure (bar)	uptake (cm3(STP)/g)
0.0462655	8.33925
0.0671669	10.5928
0.0955331	13.8604
0.137336	18.3674
0.189589	23.4378
0.24035	28.0576
0.317984	33.3533
0.423984	38.9871
0.529984	43.7195
0.661364	48.0012
0.797223	51.8322
0.858435	53.1843
0.924125	54.4238
1.00176	56.0012
