Adsorption isotherm of Hydrogen on [Ni7(OH)4(H2O)2(ina)4(ip)3]
DOI: 10.1021/Ic401912k
Adsorbate Hydrogen: InChIKey UFHFLCQGNIYNRP-UHFFFAOYSA-N
Temperature: 77 K
Tabular data in the source: 0
pressure (bar)	uptake (cm3(STP)/g)
0.00372489	3.35216
0.00944547	17.0815
0.015166	29.0947
0.0266072	40.6789
0.0423388	49.6888
0.0666512	60.4149
0.0909636	69.8538
0.120997	76.504
0.189643	89.8043
0.239698	96.4545
0.334088	106.108
0.467091	115.332
0.600095	121.553
0.830348	129.062
0.860381	129.705
0.95906	132.28
