Adsorption isotherm of Carbon Dioxide on [Ni7(OH)4(H2O)2(ina)4(ip)3]
DOI: 10.1021/Ic401912k
Adsorbate Carbon Dioxide: InChIKey CURLTUGMZLYLDI-UHFFFAOYSA-N
Temperature: 273 K
Tabular data in the source: 0
pressure (bar)	uptake (cm3(STP)/g)
0.00744863	4.84629
0.02835	9.35333
0.0477585	14.8745
0.0701529	19.4942
0.0910543	24.5646
0.135843	31.4378
0.186604	38.3111
0.243336	44.2829
0.322463	50.7054
0.428463	56.9026
0.529984	61.1843
0.66435	65.5787
0.797223	68.8463
0.927111	71.6632
1.00474	73.0153
