Adsorption isotherm of Nitrogen on 3D-COOH-COF
DOI: 10.1002/anie.201712246
Article source: Figure 3b
Adsorbate Nitrogen: InChIKey IJGRMHOSHXDMSA-UHFFFAOYSA-N
Kind: experiment
Temperature: 77 K
Tabular data in the source: 0
pressure (bar)	uptake (cm3(STP)/g)
-0.000795	30.7692
0	1.18343
0	40.8284
0.000795	65.6805
0.003181	97.929
0.005567	104.438
0.007953	109.467
0.027837	118.935
0.050901	126.035
0.070784	131.065
0.08351	134.024
0.101007	136.982
0.152703	144.97
0.201218	151.183
0.25371	159.172
0.303021	165.089
0.355512	171.893
0.404823	176.627
0.454929	182.249
0.50583	187.278
0.556731	192.012
0.606837	197.633
0.657738	202.367
0.707843	210.651
0.758745	215.68
0.80885	220.414
0.861342	225.74
0.910652	230.769
0.960758	237.574
1.00132	249.704
0	79.8817
0.007158	117.456
0.021474	137.574
0.04931	152.071
0.101007	161.834
0.151113	168.935
0.201218	175.148
0.252915	180.769
0.302225	186.095
0.353922	191.716
0.404027	197.337
0.454929	202.367
0.503444	207.396
0.55514	211.243
0.606041	214.497
0.655352	218.047
0.707048	221.598
0.757154	225.148
0.80885	228.698
0.857365	232.249
0.908266	236.686
0.960758	240.237
