Adsorption isotherm of Nitrogen on 3D-OH-COF
DOI: 10.1002/anie.201712246
Article source: Figure 3a
Adsorbate Nitrogen: InChIKey IJGRMHOSHXDMSA-UHFFFAOYSA-N
Kind: experiment
Temperature: 77 K
Tabular data in the source: 0
pressure (bar)	uptake (cm3(STP)/g)
0	1.01729
0	43.235
0	82.9095
0	101.729
0	120.041
0	149.034
0	30.5188
0	65.6155
0.000797	182.096
0.000797	169.888
0.004779	212.614
0.007169	221.77
0.022304	238.047
0.028677	243.642
0.049388	253.306
0.070099	261.953
0.080455	266.022
0.101166	272.635
0.15135	284.334
0.201535	294.507
0.252516	303.662
0.303497	312.309
0.353682	319.939
0.404663	327.569
0.454847	334.69
0.505828	340.793
0.555216	347.406
0.607791	356.562
0.657975	362.665
0.70816	367.752
0.758344	373.856
0.808529	380.468
0.860307	386.572
0.910491	394.201
1.0021	427.263
0.001593	204.476
0.008762	243.133
0.049388	272.635
0.100369	291.455
0.15135	304.171
0.201535	313.835
0.252516	323.499
0.3027	331.638
0.353682	338.759
0.404663	345.88
0.454847	351.475
0.505828	357.579
0.55681	363.174
0.607791	369.278
0.658772	374.873
0.709753	380.977
0.759937	386.572
0.810919	392.675
0.857917	398.271
0.908898	404.883
0.963862	410.987
