Adsorption isotherm of Nitrogen on Al-MIL-53-COOH
DOI: 10.1021/Ic402900x
Adsorbate Nitrogen: InChIKey IJGRMHOSHXDMSA-UHFFFAOYSA-N
Temperature: 77 K
Tabular data in the source: 0
pressure (bar)	uptake (cm3(STP)/g)
0.686623	42.2851
0.741962	62.8778
0.832146	146.193
0.873138	310.33
0.901833	357.353
0.91823	371.229
0.938726	385.076
