Adsorption isotherm of Nitrogen on Tb3+@Al-MIL-53-COOH
DOI: 10.1021/Ic402900x
Adsorbate Nitrogen: InChIKey IJGRMHOSHXDMSA-UHFFFAOYSA-N
Temperature: 77 K
Tabular data in the source: 0
pressure (bar)	uptake (cm3(STP)/g)
0.0143473	80.3631
0.0286947	90.7554
0.0450916	95.8852
0.0676375	100.971
0.0983819	104.248
0.122977	107.569
0.149622	110.876
0.168069	112.492
0.192664	114.064
0.243905	122.442
0.291046	123.851
0.340237	126.996
0.391478	131.874
0.436569	135.048
0.481661	139.971
0.532901	144.85
0.582092	156.741
0.680474	177.023
0.733764	192.383
0.776806	207.816
0.821898	244.226
0.877238	317.297
0.901833	387.091
0.924379	458.649
0.951024	538.923
