Adsorption isotherm of Nitrogen on Eu3+/Tb3+@Al-MIL-53-COOH
DOI: 10.1021/Ic402900x
Adsorbate Nitrogen: InChIKey IJGRMHOSHXDMSA-UHFFFAOYSA-N
Temperature: 77 K
Tabular data in the source: 0
pressure (bar)	uptake (cm3(STP)/g)
0.731715	265.867
0.785005	293.472
0.825997	345.655
0.889535	570.853
0.91413	581.171
0.936676	582.758
