Adsorption isotherm of Nitrogen on Eu3+@Al-MIL-53-COOH
DOI: 10.1021/Ic402900x
Adsorbate Nitrogen: InChIKey IJGRMHOSHXDMSA-UHFFFAOYSA-N
Temperature: 77 K
Tabular data in the source: 0
pressure (bar)	uptake (cm3(STP)/g)
0.0122977	20.9027
0.0307443	31.2655
0.0491909	36.3804
0.0717367	41.4658
0.100432	43.0085
0.125027	44.5806
0.147573	46.1675
0.170118	47.7544
0.196764	49.3117
0.243905	54.22
0.297195	57.3348
0.344336	63.9923
0.37713	63.7561
0.442718	61.5345
0.48576	66.4723
0.53905	71.3363
0.590291	76.2151
0.635382	82.8874
0.688673	92.9992
0.729665	99.7011
0.782955	123.807
0.834196	161.922
0.885436	233.273
0.91413	304.787
0.926428	358.925
0.953074	435.701
