Adsorption isotherm of Nitrogen on Eu3+@Al-MIL-53-COOH
DOI: 10.1021/Ic402900x
Adsorbate Nitrogen: InChIKey IJGRMHOSHXDMSA-UHFFFAOYSA-N
Temperature: 77 K
Tabular data in the source: 0
pressure (bar)	uptake (cm3(STP)/g)
0.774756	136.111
0.834196	200.406
0.879287	357.516
0.897734	409.861
0.942825	439.274
