Adsorption isotherm of Nitrogen on Al-MIL-53-COOH
DOI: 10.1021/Ic402900x
Adsorbate Nitrogen: InChIKey IJGRMHOSHXDMSA-UHFFFAOYSA-N
Temperature: 77 K
Tabular data in the source: 0
pressure (bar)	uptake (cm3(STP)/g)
0.0163969	-31.605
0.0348436	-19.4929
0.0532901	-16.1272
0.0737864	-14.5256
0.100432	-11.219
0.122977	-9.63206
0.145523	-6.2959
0.170118	-2.9745
0.194714	-3.15164
0.248004	3.46164
0.295145	6.62066
0.346386	8.00089
0.373031	11.3075
0.385328	11.219
0.438619	14.3337
0.481661	17.5222
0.5411	17.0941
0.586192	22.0172
0.686623	37.0373
0.739913	54.1462
0.789104	73.0339
0.834196	102.447
0.883387	175.562
0.912081	252.323
0.928478	308.182
0.948974	378.005
