Adsorption isotherm of Nitrogen on Tb3+@Al-MIL-53-COOH
DOI: 10.1021/Ic402900x
Adsorbate Nitrogen: InChIKey IJGRMHOSHXDMSA-UHFFFAOYSA-N
Temperature: 77 K
Tabular data in the source: 0
pressure (bar)	uptake (cm3(STP)/g)
0.733764	202.879
0.785005	239.244
0.830096	307.141
0.887485	504.395
0.905932	521.755
0.930528	535.572
0.942825	544.23
