Adsorption isotherm of Nitrogen on Eu3+/Tb3+@Al-MIL-53-COOH
DOI: 10.1021/Ic402900x
Adsorbate Nitrogen: InChIKey IJGRMHOSHXDMSA-UHFFFAOYSA-N
Temperature: 77 K
Tabular data in the source: 0
pressure (bar)	uptake (cm3(STP)/g)
0.0143473	162.579
0.0245955	169.502
0.0471413	174.588
0.0696871	177.924
0.0963321	177.732
0.118878	181.068
0.145523	186.124
0.172168	185.932
0.194714	187.519
0.241855	194.176
0.293096	195.557
0.327939	198.804
0.385328	203.639
0.440668	206.739
0.489859	209.883
0.537001	211.293
0.584142	219.7
0.635382	229.826
0.686623	238.203
0.739913	255.312
0.797302	281.138
0.830096	315.887
0.897734	420.356
0.928478	511.097
0.948974	570.425
