Adsorption isotherm of Nitrogen on NS-01 Activated Carbon
DOI: 10.1021/acs.jced.1c00921
Article source: AIF Supplementary Data
Adsorbate Nitrogen: InChIKey IJGRMHOSHXDMSA-UHFFFAOYSA-N
Kind: experiment
Isotherm type: excess
Temperature: 77 K
Tabular data in the source: 0
pressure (bar)	uptake (cm3(STP)/g)
2e-06	6.8681
2e-06	13.7426
2e-06	20.7823
2e-06	27.6724
1e-05	34.675
1.2e-05	41.5308
1.3e-05	48.3801
1.5e-05	55.394
1.8e-05	62.2355
2.2e-05	69.0741
2.7e-05	75.8189
3.3e-05	82.7963
4.2e-05	89.7593
5.3e-05	96.7045
6.8e-05	103.467
8.7e-05	110.117
0.000113	116.987
0.000149	123.684
0.000199	130.545
0.000267	137.304
0.000359	143.669
0.000494	150.295
0.000678	156.551
0.000943	162.755
0.001362	169.394
0.001933	175.742
0.002711	181.82
0.003715	187.483
0.005073	193.23
0.006703	198.535
0.008617	203.47
0.010816	208.482
0.047169	246.087
0.080338	263.511
0.113935	275.506
0.152715	285.264
0.189782	291.89
0.227056	296.722
0.261706	299.995
0.296149	302.5
0.330799	304.341
0.364406	305.769
0.40013	306.946
0.435544	307.881
0.471089	308.625
0.506484	309.283
0.542137	309.822
0.577411	310.345
0.607934	310.758
0.633308	311.085
0.658534	311.312
0.683793	311.658
0.709275	311.954
0.734544	312.26
0.75987	312.576
0.785132	313.008
0.810448	313.566
0.835875	314.091
0.861122	314.678
0.886252	315.461
0.911807	316.397
0.936709	317.849
0.962068	319.938
0.986162	323.958
1.00616	330.181
1.00616	330.181
0.969339	324.231
0.941181	321.59
0.915037	319.998
0.889321	318.833
0.863849	317.935
0.83837	317.074
0.831297	316.718
0.80569	316.075
0.762237	315.318
0.736672	314.888
0.730053	314.5
0.704525	314.05
0.660696	313.387
0.635158	312.915
0.62836	312.82
0.608361	312.433
0.572849	311.977
0.537599	311.378
0.502896	309.767
0.4677	306.801
0.412924	305.133
0.377218	303.967
0.341761	302.566
0.306563	300.764
0.289335	299.708
0.254004	297.068
0.218853	293.432
0.183361	288.565
0.148446	282.034
0.113349	273.029
0.078568	260.433
0.050886	246.191
