Adsorption isotherm of 2,3,3,3-Tetrafluoropropene on NS-01 Activated Carbon
DOI: 10.1021/acs.jced.1c00921
Article source: AIF Supplementary Data
Adsorbate 2,3,3,3-Tetrafluoropropene: InChIKey FXRLMCRCYDHQFW-UHFFFAOYSA-N
Kind: experiment
Isotherm type: excess
Temperature: 333 K
Tabular data in the source: 0
pressure (bar)	uptake (mmol/g)
0.095	0.8657
0.2875	1.722
0.725	2.491
1.4575	3.032
2.2825	3.349
3.02	3.55
3.5775	3.684
4.01	3.769
4.39	3.843
4.705	3.894
5.01	3.938
