Adsorption isotherm of 2,3,3,3-Tetrafluoropropene on PA-01 Activated Carbon
DOI: 10.1021/acs.jced.1c00921
Article source: AIF Supplementary Data
Adsorbate 2,3,3,3-Tetrafluoropropene: InChIKey FXRLMCRCYDHQFW-UHFFFAOYSA-N
Kind: experiment
Isotherm type: excess
Temperature: 293 K
Tabular data in the source: 0
pressure (bar)	uptake (mmol/g)
0.0125	0.9758
0.0775	1.991
0.2725	2.988
0.825	3.781
1.6425	4.332
2.4825	4.631
3.2225	4.766
3.8	4.836
4.2125	4.89
