Adsorption isotherm of 2,3,3,3-Tetrafluoropropene on PA-01 Activated Carbon
DOI: 10.1021/acs.jced.1c00921
Article source: AIF Supplementary Data
Adsorbate 2,3,3,3-Tetrafluoropropene: InChIKey FXRLMCRCYDHQFW-UHFFFAOYSA-N
Kind: experiment
Isotherm type: excess
Temperature: 353 K
Tabular data in the source: 0
pressure (bar)	uptake (mmol/g)
0.12	0.9111
0.3725	1.762
0.825	2.49
1.455	3.019
2.13	3.401
2.7875	3.65
3.3275	3.831
3.8025	3.97
4.18	4.076
