Adsorption isotherm of 2,3,3,3-Tetrafluoropropene on PA-01 Activated Carbon
DOI: 10.1021/acs.jced.1c00921
Article source: AIF Supplementary Data
Adsorbate 2,3,3,3-Tetrafluoropropene: InChIKey FXRLMCRCYDHQFW-UHFFFAOYSA-N
Kind: experiment
Isotherm type: excess
Temperature: 273 K
Tabular data in the source: 0
pressure (bar)	uptake (mmol/g)
0.0325	1.393
0.0475	1.975
0.08	2.653
0.235	3.476
0.5925	4.133
1.13	4.579
1.76	4.804
2.34	4.862
2.605	4.93
