Adsorption isotherm of 2,3,3,3-Tetrafluoropropene on PA-01 Activated Carbon
DOI: 10.1021/acs.jced.1c00921
Article source: AIF Supplementary Data
Adsorbate 2,3,3,3-Tetrafluoropropene: InChIKey FXRLMCRCYDHQFW-UHFFFAOYSA-N
Kind: experiment
Isotherm type: excess
Temperature: 313 K
Tabular data in the source: 0
pressure (bar)	uptake (mmol/g)
0.0425	0.9519
0.14	1.917
0.41	2.81
1.0125	3.501
1.81	3.963
2.555	4.267
3.2075	4.453
3.7475	4.588
4.1575	4.666
