Adsorption isotherm of 2,3,3,3-Tetrafluoropropene on NS-01 Activated Carbon
DOI: 10.1021/acs.jced.1c00921
Article source: AIF Supplementary Data
Adsorbate 2,3,3,3-Tetrafluoropropene: InChIKey FXRLMCRCYDHQFW-UHFFFAOYSA-N
Kind: experiment
Isotherm type: excess
Temperature: 353 K
Tabular data in the source: 0
pressure (bar)	uptake (mmol/g)
0.145	0.7834
0.415	1.551
0.8575	2.186
1.5	2.66
2.1975	2.978
2.8525	3.182
3.42	3.307
3.8625	3.426
4.2525	3.511
4.5825	3.577
4.8725	3.634
