Adsorption isotherm of 2,3,3,3-Tetrafluoropropene on NS-01 Activated Carbon
DOI: 10.1021/acs.jced.1c00921
Article source: AIF Supplementary Data
Adsorbate 2,3,3,3-Tetrafluoropropene: InChIKey FXRLMCRCYDHQFW-UHFFFAOYSA-N
Kind: experiment
Isotherm type: excess
Temperature: 313 K
Tabular data in the source: 0
pressure (bar)	uptake (mmol/g)
0.065	0.8843
0.205	1.842
0.5425	2.704
1.22	3.331
2.055	3.698
2.79	3.898
3.4625	4.001
3.93	4.096
4.2975	4.149
4.645	4.196
4.945	4.225
