Adsorption isotherm of 2,3,3,3-Tetrafluoropropene on PA-01 Activated Carbon
DOI: 10.1021/acs.jced.1c00921
Article source: AIF Supplementary Data
Adsorbate 2,3,3,3-Tetrafluoropropene: InChIKey FXRLMCRCYDHQFW-UHFFFAOYSA-N
Kind: experiment
Isotherm type: excess
Temperature: 333 K
Tabular data in the source: 0
pressure (bar)	uptake (mmol/g)
0.07	0.949
0.2375	1.884
0.6	2.699
1.2375	3.3
1.99	3.703
2.6875	3.979
3.2675	4.156
3.74	4.29
4.155	4.402
