Adsorption isotherm of Nitrogen on PA-01 Activated Carbon
DOI: 10.1021/acs.jced.1c00921
Article source: AIF Supplementary Data
Adsorbate Nitrogen: InChIKey IJGRMHOSHXDMSA-UHFFFAOYSA-N
Kind: experiment
Isotherm type: excess
Temperature: 77 K
Tabular data in the source: 0
pressure (bar)	uptake (cm3(STP)/g)
1e-06	6.9434
2e-06	13.9661
2e-06	21.0081
7e-06	27.9514
9e-06	34.877
1e-05	41.8161
1.2e-05	48.8252
1.4e-05	55.7499
1.7e-05	62.7594
2.1e-05	69.7633
2.6e-05	76.6551
3.3e-05	83.5301
4e-05	90.3998
5e-05	97.2481
6.3e-05	104.072
7.9e-05	110.968
0.000101	117.901
0.000128	124.779
0.000165	131.691
0.000213	138.527
0.000276	145.197
0.000358	151.779
0.000469	158.285
0.000622	164.821
0.000828	171.161
0.001103	177.266
0.001521	183.794
0.002069	190.1
0.002807	196.333
0.00375	202.241
0.004904	207.799
0.006231	213.161
0.007878	218.067
0.009707	222.761
0.010917	225.532
0.045036	266.72
0.085162	292.532
0.11283	305.543
0.151054	319.618
0.188084	330.198
0.225285	338.576
0.262044	345.118
0.297076	350.021
0.331763	353.867
0.364232	356.652
0.435389	360.757
0.470855	362.065
0.506447	363.025
0.541914	363.796
0.577417	364.415
0.607901	364.865
0.633201	365.236
0.658711	365.527
0.683866	365.819
0.709275	366.133
0.73464	366.401
0.759861	366.765
0.785315	367.143
0.810602	367.526
0.83585	368.03
0.861243	368.64
0.886346	369.437
0.91151	370.66
0.936845	372.368
0.961772	375.002
0.986239	379.581
1.00553	387.018
1.00553	387.018
0.969289	380.731
0.941548	377.443
0.915452	375.151
0.889518	373.564
0.863814	372.42
0.838357	371.421
0.831203	371.03
0.80555	370.341
0.762347	369.416
0.736622	368.841
0.729789	368.66
0.704331	368.233
0.679373	367.836
0.653872	367.477
0.628562	367.068
0.608207	366.755
0.5728	366.308
0.537524	365.779
0.503021	364.067
0.467404	360.859
0.431585	358.845
0.396909	356.341
0.360637	353.743
0.325579	350.553
0.289837	346.394
0.254875	341.262
0.219737	334.807
0.184623	326.708
0.149056	316.332
0.113924	303.385
0.079083	286.7
0.051818	269.436
