Adsorption isotherm of 2,3,3,3-Tetrafluoropropene on NS-01 Activated Carbon
DOI: 10.1021/acs.jced.1c00921
Article source: AIF Supplementary Data
Adsorbate 2,3,3,3-Tetrafluoropropene: InChIKey FXRLMCRCYDHQFW-UHFFFAOYSA-N
Kind: experiment
Isotherm type: excess
Temperature: 293 K
Tabular data in the source: 0
pressure (bar)	uptake (mmol/g)
0.09	1.395
0.215	2.197
0.3775	2.763
0.775	3.409
1.54	3.954
2.395	4.232
3.16	4.366
3.77	4.427
4.2225	4.468
4.59	4.485
4.8625	4.506
