Adsorption isotherm of 2,3,3,3-Tetrafluoropropene on NS-01 Activated Carbon
DOI: 10.1021/acs.jced.1c00921
Article source: AIF Supplementary Data
Adsorbate 2,3,3,3-Tetrafluoropropene: InChIKey FXRLMCRCYDHQFW-UHFFFAOYSA-N
Kind: experiment
Isotherm type: excess
Temperature: 273 K
Tabular data in the source: 0
pressure (bar)	uptake (mmol/g)
0.0475	1.238
0.065	1.967
0.1525	2.829
0.5175	3.678
1.4225	4.171
2.465	4.588
2.7775	4.648
2.94	4.679
