Adsorption isotherm of Zn(II), Lead(II) Ion, Water on DTPA-functionalised, silicacoated magnetic nanoparticles
DOI: 10.1016/j.chemosphere.2017.05.146
Article source: Figure 3
Adsorbate Zn(II): InChIKey PTFCDOFLOPIGGS-UHFFFAOYSA-N
Adsorbate Lead(II) Ion: InChIKey RVPVRDXYQKGNMQ-UHFFFAOYSA-N
Adsorbate Water: InChIKey XLYOFNOQVPJJNP-UHFFFAOYSA-N
Kind: experiment
Temperature: 293 K
Tabular data in the source: 0
pressure (bar)	Zn(II) fraction	Zn(II) uptake (mmol/kg)	Lead(II) Ion fraction	Lead(II) Ion uptake (mmol/kg)	Water fraction	Water uptake (mmol/kg)	total uptake (mmol/kg)
1.01325	0.00449	6.46	0.00359	5.93			
1.01325	0.01494	83.87	0.01139	89.77			
1.01325	0.60102	538.01	0.5916	366.99			
1.01325	0.62176	523.15	0.60285	351.45			
1.01325	0.63345	507.58	0.61092	344.63			
