Adsorption isotherm of Zn(II), Lead(II) Ion, Water on DTPA-functionalised, silicacoated magnetic nanoparticles
DOI: 10.1016/j.chemosphere.2017.05.146
Article source: Figure 3
Adsorbate Zn(II): InChIKey PTFCDOFLOPIGGS-UHFFFAOYSA-N
Adsorbate Lead(II) Ion: InChIKey RVPVRDXYQKGNMQ-UHFFFAOYSA-N
Adsorbate Water: InChIKey XLYOFNOQVPJJNP-UHFFFAOYSA-N
Kind: experiment
Temperature: 293 K
Tabular data in the source: 0
pressure (bar)	Zn(II) fraction	Zn(II) uptake (mmol/kg)	Lead(II) Ion fraction	Lead(II) Ion uptake (mmol/kg)	Water fraction	Water uptake (mmol/kg)	total uptake (mmol/kg)
1.01325	0.00482	2.92	0.00226	6.41			
1.01325	0.02214	79.64	0.01362	81.18			
1.01325	0.65109	502.42	0.62642	307.97			
1.01325	0.66249	493.95	0.67554	259.27			
1.01325	0.68862	470.77	0.68262	254.5			
