Adsorption isotherm of Zn(II), Lead(II) Ion, Water on DTPA-functionalised, silicacoated magnetic nanoparticles
DOI: 10.1016/j.chemosphere.2017.05.146
Article source: Figure 3
Adsorbate Zn(II): InChIKey PTFCDOFLOPIGGS-UHFFFAOYSA-N
Adsorbate Lead(II) Ion: InChIKey RVPVRDXYQKGNMQ-UHFFFAOYSA-N
Adsorbate Water: InChIKey XLYOFNOQVPJJNP-UHFFFAOYSA-N
Kind: experiment
Temperature: 293 K
Tabular data in the source: 0
pressure (bar)	Zn(II) fraction	Zn(II) uptake (mmol/kg)	Lead(II) Ion fraction	Lead(II) Ion uptake (mmol/kg)	Water fraction	Water uptake (mmol/kg)	total uptake (mmol/kg)
1.01325	0.0019	1.67	0.00284	9.34			
1.01325	0.01125	94.62	0.00892	95.36			
1.01325	0.0172	92.13	0.5786	382.96			
1.01325	0.6691	497.56	0.60525	355.91			
1.01325	0.67872	488.58	0.62857	333.47			
