Adsorption isotherm of Zn(II), Lead(II) Ion, Water on DTPA-functionalised, silicacoated magnetic nanoparticles
DOI: 10.1016/j.chemosphere.2017.05.146
Article source: Figure 3
Adsorbate Zn(II): InChIKey PTFCDOFLOPIGGS-UHFFFAOYSA-N
Adsorbate Lead(II) Ion: InChIKey RVPVRDXYQKGNMQ-UHFFFAOYSA-N
Adsorbate Water: InChIKey XLYOFNOQVPJJNP-UHFFFAOYSA-N
Kind: experiment
Temperature: 293 K
Tabular data in the source: 0
pressure (bar)	Zn(II) fraction	Zn(II) uptake (mmol/kg)	Lead(II) Ion fraction	Lead(II) Ion uptake (mmol/kg)	Water fraction	Water uptake (mmol/kg)	total uptake (mmol/kg)
1.01325	0.00209	2.03	0.00479	9.16			
1.01325	0.01719	83.07	0.01041	94.72			
1.01325	0.0248	82.39	0.5943	374.9			
1.01325	0.67495	467.14	0.60548	363.83			
1.01325	0.69052	454.59	0.61904	348.87			
