Adsorption isotherm of Zn(II), Lead(II) Ion, Water on DTPA-functionalised, silicacoated magnetic nanoparticles
DOI: 10.1016/j.chemosphere.2017.05.146
Article source: Figure 3
Adsorbate Zn(II): InChIKey PTFCDOFLOPIGGS-UHFFFAOYSA-N
Adsorbate Lead(II) Ion: InChIKey RVPVRDXYQKGNMQ-UHFFFAOYSA-N
Adsorbate Water: InChIKey XLYOFNOQVPJJNP-UHFFFAOYSA-N
Kind: experiment
Temperature: 293 K
Tabular data in the source: 0
pressure (bar)	Zn(II) fraction	Zn(II) uptake (mmol/kg)	Lead(II) Ion fraction	Lead(II) Ion uptake (mmol/kg)	Water fraction	Water uptake (mmol/kg)	total uptake (mmol/kg)
1.01325	0.00268	7.83	0.0049	7.21			
1.01325	0.00955	104.17	0.01141	89.68			
1.01325	0.0143	101.72	0.59891	373.39			
1.01325	0.62551	570.23	0.61086	365.28			
1.01325	0.64323	558.55	0.61839	354.54			
