Adsorption isotherm of Ethene on ZIF-7
DOI: 10.1021/Ja1089765
Adsorbate Ethene: InChIKey VGGSQFUCUMXWEO-UHFFFAOYSA-N
Temperature: 298 K
Tabular data in the source: 0
pressure (bar)	uptake (mmol/g)
0.0672307	0.0287149
0.0794389	0.0334001
0.0966035	0.0380854
0.121603	0.0521412
0.141226	0.05995
0.174731	0.0740058
0.202927	0.0818146
0.237032	0.0989939
0.272132	0.109926
0.300095	0.1396
0.334762	0.198946
0.367043	0.51286
0.39555	0.845514
0.433693	1.10945
0.470074	1.30623
0.506583	1.41868
0.542796	1.50614
0.574943	1.56548
0.608993	1.61702
0.634022	1.65138
0.663888	1.68418
0.711345	1.7201
0.753475	1.75133
0.81668	1.77788
0.905796	1.79662
0.959442	1.80912
1.05803	1.83879
1.2008	1.87627
