Adsorption isotherm of Ethane on ZIF-7
DOI: 10.1021/Ja1089765
Adsorbate Ethane: InChIKey OTMSDBZUPAUEDD-UHFFFAOYSA-N
Temperature: 298 K
Tabular data in the source: 0
pressure (bar)	uptake (mmol/g)
0.0161385	0.0130973
0.0303901	0.0146591
0.042429	0.0224678
0.054339	0.0287149
0.0917284	0.0864999
0.103509	0.348875
0.109639	0.580015
0.120212	0.968893
0.131804	1.22814
0.162138	1.47646
0.210055	1.60609
0.2384	1.66075
0.286595	1.71229
0.414183	1.79194
0.524377	1.81693
0.675447	1.85909
0.79352	1.88564
0.91628	1.89658
1.05196	1.90751
1.18707	1.91219
