Adsorption isotherm of N-propane on ZIF-7
DOI: 10.1021/Ja1089765
Adsorbate N-propane: InChIKey ATUOYWHBWRKTHZ-UHFFFAOYSA-N
Temperature: 298 K
Tabular data in the source: 0
pressure (bar)	uptake (mmol/g)
0.0079526	0.737753
0.00823193	0.414469
0.00837526	0.573768
0.00852108	0.918916
0.0094509	1.11726
0.0128946	1.27344
0.0160459	1.37183
0.0295283	1.46865
0.0421856	1.52332
0.0531027	1.56236
0.0699938	1.59672
0.0922577	1.62952
0.116803	1.65138
0.134873	1.67324
0.168802	1.68262
0.200605	1.69199
0.23432	1.69823
0.264414	1.69667
0.300095	1.70292
0.330932	1.70448
0.371291	1.70448
0.409444	1.71385
0.446351	1.71697
0.489393	1.71541
0.545928	1.72166
0.598572	1.72166
0.660079	1.72478
0.719578	1.72634
0.81668	1.72947
0.880109	1.72947
0.970546	1.72478
1.08266	1.72166
1.20773	1.71697
