Adsorption isotherm of Methane on ZIF-7
DOI: 10.1021/Ja1089765
Adsorbate Methane: InChIKey VNWKTOKETHGBQD-UHFFFAOYSA-N
Temperature: 298 K
Tabular data in the source: 0
pressure (bar)	uptake (mmol/g)
0.0712125	0.00216501
0.0944056	0.00216501
0.132565	0.00528852
0.275281	0.00997379
0.404759	0.0130973
0.530446	0.0115355
0.648783	0.0130973
0.79352	0.0130973
0.926885	0.0240296
1.19392	0.0349619
