Adsorption isotherm of Propene on ZIF-7
DOI: 10.1021/Ja1089765
Adsorbate Propene: InChIKey QQONPFPTGQHPMA-UHFFFAOYSA-N
Temperature: 298 K
Tabular data in the source: 0
pressure (bar)	uptake (mmol/g)
0.0233231	0.213002
0.0242817	0.412907
0.0254255	0.534724
0.0261675	0.656541
0.0267768	0.81584
0.0277173	0.98451
0.0290229	1.12663
0.0312771	1.32185
0.0354977	1.46241
0.0400567	1.55924
0.052798	1.71229
0.0660802	1.79194
0.0922577	1.85441
0.113491	1.88096
0.137221	1.90126
0.267475	1.94968
0.400128	1.96998
0.539682	1.98716
0.671572	1.99497
0.798099	2.00278
0.926885	2.01371
1.04593	2.02152
1.2008	2.03245
