Adsorption isotherm of Ethane on Activated Carbon
DOI: 10.1016/j.fluid.2016.09.008
Article source: Figure 4a- C2H6 experiment at 303 K
Adsorbate Ethane: InChIKey OTMSDBZUPAUEDD-UHFFFAOYSA-N
Kind: experiment
Temperature: 303 K
Tabular data in the source: 0
pressure (bar)	uptake (mmol/g)
0.3401	1.1248
0.6171	2.3197
1.3681	3.7201
2.6489	4.5801
4.1311	5.03
5.2723	5.3572
8.0306	5.5423
10.6953	5.663
14.499	5.6806
