Adsorption isotherm of Methane on MCM-41 silica
DOI: 10.1016/j.fluid.2016.09.008
Article source: Figure 5- CH4 experiment at 373 K
Adsorbate Methane: InChIKey VNWKTOKETHGBQD-UHFFFAOYSA-N
Kind: experiment
Temperature: 373 K
Tabular data in the source: 0
pressure (bar)	uptake (mmol/g)
1.8346	0.1127
3.4537	0.1747
5.4775	0.2704
10.7765	0.4721
15.9635	0.6547
21.2017	0.8535
26.9364	1.0031
31.6867	1.1263
