Adsorption isotherm of Methane on Activated Carbon
DOI: 10.1016/j.fluid.2016.09.008
Article source: Figure 4a- experimental at 313 K
Adsorbate Methane: InChIKey VNWKTOKETHGBQD-UHFFFAOYSA-N
Kind: experiment
Temperature: 313 K
Tabular data in the source: 0
pressure (bar)	uptake (mmol/g)
0.6027	0.1814
0.9031	0.4206
1.3009	0.6796
1.6904	0.9479
2.1642	1.1899
2.8874	1.4852
3.784	1.7937
4.6938	2.0612
6.1701	2.3905
7.8413	2.7114
9.7404	2.9974
11.7404	3.2648
13.8312	3.4658
15.6479	3.6234
