Adsorption isotherm of Ethane on Activated Carbon
DOI: 10.1016/j.fluid.2016.09.008
Article source: Figure 4a- C2H6 experiment at 313 K
Adsorbate Ethane: InChIKey OTMSDBZUPAUEDD-UHFFFAOYSA-N
Kind: experiment
Temperature: 313 K
Tabular data in the source: 0
pressure (bar)	uptake (mmol/g)
0.3552	1.0778
0.753	2.4793
1.6019	3.6022
2.9309	4.3784
4.3138	4.805
6.1749	5.1119
8.2148	5.333
10.2587	5.4315
12.8454	5.4832
