Adsorption isotherm of Ethane on Activated Carbon
DOI: 10.1016/j.fluid.2016.09.008
Article source: Figure 4b- C2H6 experiment at 283 K
Adsorbate Ethane: InChIKey OTMSDBZUPAUEDD-UHFFFAOYSA-N
Kind: experiment
Temperature: 283 K
Tabular data in the source: 0
pressure (bar)	uptake (mmol/g)
0.03017	1.11603
0.05913	1.67042
0.10631	2.09655
0.17276	2.50519
0.26465	3.11666
0.39905	3.6173
0.54346	4.05531
0.7544	4.5185
0.9995	4.91964
1.2428	5.30211
