Adsorption isotherm of Ethane on MCM-41 silica
DOI: 10.1016/j.fluid.2016.09.008
Article source: Figure 5- C2H6 experiment at 303 K
Adsorbate Ethane: InChIKey OTMSDBZUPAUEDD-UHFFFAOYSA-N
Kind: experiment
Temperature: 303 K
Tabular data in the source: 0
pressure (bar)	uptake (mmol/g)
0.4417	0.3967
1.964	0.9834
5.3314	2.1241
6.9471	2.6308
11.5595	3.7521
17.4368	4.8028
24.1515	5.8364
29.8095	6.3627
32.1927	6.4625
