Adsorption isotherm of N-propane on Activated Carbon
DOI: 10.1016/j.fluid.2016.09.008
Article source: Figure 4b- C3H8 experiment at 333 K
Adsorbate N-propane: InChIKey ATUOYWHBWRKTHZ-UHFFFAOYSA-N
Kind: experiment
Temperature: 333 K
Tabular data in the source: 0
pressure (bar)	uptake (mmol/g)
0.02006	1.04913
0.05307	1.61832
0.09411	2.0942
0.16897	2.58123
0.25666	2.96238
0.39549	3.34332
0.66417	3.84863
0.81289	4.02123
1.00878	4.24569
1.21638	4.47382
