Adsorption isotherm of Ethane on Activated Carbon
DOI: 10.1016/j.fluid.2016.09.008
Article source: Figure 4a- C2H6 experiment at 293 K
Adsorbate Ethane: InChIKey OTMSDBZUPAUEDD-UHFFFAOYSA-N
Kind: experiment
Temperature: 293 K
Tabular data in the source: 0
pressure (bar)	uptake (mmol/g)
0.2275	1.1696
0.5067	2.8018
1.2973	4.2667
2.6612	5.1044
4.1371	5.5292
5.9414	5.804
7.9742	5.9406
10.0237	6.0324
12.7382	6.0289
