Adsorption isotherm of N-propane on Activated Carbon
DOI: 10.1016/j.fluid.2016.09.008
Article source: Figure 4b- C3H8 experiment at 283 K
Adsorbate N-propane: InChIKey ATUOYWHBWRKTHZ-UHFFFAOYSA-N
Kind: experiment
Temperature: 283 K
Tabular data in the source: 0
pressure (bar)	uptake (mmol/g)
0.01374	2.29938
0.02953	2.86847
0.05905	3.35813
0.1294	3.92769
0.31682	4.57038
0.44311	4.80093
0.61759	5.06359
0.80976	5.29114
1.04981	5.53242
1.25468	5.70544
