Adsorption isotherm of N-propane on Activated Carbon
DOI: 10.1016/j.fluid.2016.09.008
Article source: Figure 4b- C3H8 experiment at 303 K
Adsorbate N-propane: InChIKey ATUOYWHBWRKTHZ-UHFFFAOYSA-N
Kind: experiment
Temperature: 303 K
Tabular data in the source: 0
pressure (bar)	uptake (mmol/g)
0.00963	1.07663
0.01374	1.68755
0.03223	2.16715
0.06523	2.75884
0.12121	3.17586
0.22137	3.66062
0.45018	4.23446
0.59887	4.47936
0.77632	4.66829
0.96893	4.94642
1.22008	5.13489
