Adsorption isotherm of Ethane on MCM-41 silica
DOI: 10.1016/j.fluid.2016.09.008
Article source: Figure 5- C2H6 experiment at 373 K
Adsorbate Ethane: InChIKey OTMSDBZUPAUEDD-UHFFFAOYSA-N
Kind: experiment
Temperature: 373 K
Tabular data in the source: 0
pressure (bar)	uptake (mmol/g)
0.2163	0.1304
1.1986	0.2255
3.3594	0.5215
7.1484	0.9691
10.3693	1.2718
12.6099	1.4156
18.1314	1.7945
24.0847	1.9897
27.9132	2.1293
32.9486	2.1832
