Adsorption isotherm of Methane on MCM-41 silica
DOI: 10.1016/j.fluid.2016.09.008
Article source: Figure 5- CH4 experiment at 303 K
Adsorbate Methane: InChIKey VNWKTOKETHGBQD-UHFFFAOYSA-N
Kind: experiment
Temperature: 303 K
Tabular data in the source: 0
pressure (bar)	uptake (mmol/g)
0.6435	0.0345
2.5542	0.3213
4.8411	0.5174
8.2058	0.823
12.911	1.1832
18.8364	1.5819
24.8307	1.9468
30.6402	2.1817
