Adsorption isotherm of Methane on Activated Carbon
DOI: 10.1016/j.fluid.2016.09.008
Article source: Figure 4a- experimental at 303 K
Adsorbate Methane: InChIKey VNWKTOKETHGBQD-UHFFFAOYSA-N
Kind: experiment
Temperature: 303 K
Tabular data in the source: 0
pressure (bar)	uptake (mmol/g)
0.4777	0.211
1.1785	0.7931
1.6527	1.0713
2.1269	1.328
2.8847	1.6456
3.6904	1.9525
4.6529	2.2401
6.0739	2.5964
7.7754	2.9257
9.7245	3.2163
11.7809	3.476
13.7749	3.6716
15.6617	3.8679
