Adsorption isotherm of Ethane on Activated Carbon
DOI: 10.1016/j.fluid.2016.09.008
Article source: Figure 4b- C2H6 experiment at 303 K
Adsorbate Ethane: InChIKey OTMSDBZUPAUEDD-UHFFFAOYSA-N
Kind: experiment
Temperature: 303 K
Tabular data in the source: 0
pressure (bar)	uptake (mmol/g)
0.01105	0.31277
0.01914	0.58066
0.06062	1.05712
0.11019	1.44564
0.17696	1.90101
0.26222	2.26363
0.40655	2.76418
0.57616	3.21474
0.74655	3.57735
0.96598	3.99418
1.23227	4.37125
