Adsorption isotherm of Ethane on Activated Carbon
DOI: 10.1016/j.fluid.2016.09.008
Article source: Figure 4b- C2H6 experiment at 333 K
Adsorbate Ethane: InChIKey OTMSDBZUPAUEDD-UHFFFAOYSA-N
Kind: experiment
Temperature: 333 K
Tabular data in the source: 0
pressure (bar)	uptake (mmol/g)
0.01233	0.18001
0.05407	0.51114
0.11751	0.92896
0.20561	1.31246
0.30963	1.60686
0.43485	1.93197
0.61631	2.33534
0.82757	2.75497
1.02342	3.06562
1.26768	3.40819
