Adsorption isotherm of Methane on Activated Carbon
DOI: 10.1016/j.fluid.2016.09.008
Article source: Figure 4a- experimental at 293 K
Adsorbate Methane: InChIKey VNWKTOKETHGBQD-UHFFFAOYSA-N
Kind: experiment
Temperature: 293 K
Tabular data in the source: 0
pressure (bar)	uptake (mmol/g)
0.4922	0.3072
0.7856	0.641
1.1944	1.0166
1.6924	1.3455
2.1536	1.6376
2.6883	1.9052
3.2597	2.1409
3.9622	2.3962
4.8376	2.6688
6.2688	3.0248
7.9674	3.3588
9.8705	3.6658
11.8889	3.9041
13.8288	4.1154
15.5012	4.2628
