Adsorption isotherm of Carbon Dioxide on Carbon
DOI: 10.1002/aic.690461017
Adsorbate Carbon Dioxide: InChIKey CURLTUGMZLYLDI-UHFFFAOYSA-N
Temperature: 318 K
Tabular data in the source: 0
pressure (bar)	uptake (mmol/g)
53.6821	12.3937
58.3919	12.4723
62.8775	12.5116
67.4752	12.433
72.6335	12.2757
78.0162	12.02
82.5017	11.7448
85.978	11.4301
88.6694	11.1548
