Adsorption isotherm of Carbon Dioxide on Carbon
DOI: 10.1002/aic.690461017
Adsorbate Carbon Dioxide: InChIKey CURLTUGMZLYLDI-UHFFFAOYSA-N
Temperature: 309 K
Tabular data in the source: 0
pressure (bar)	uptake (mmol/g)
52.785	13.2785
59.5133	13.2982
65.5688	13.2785
68.7087	13.1212
74.5399	12.669
78.689	12.1184
80.1468	11.6858
82.5017	10.7812
83.8474	9.89635
84.8567	9.09013
86.0902	8.20525
87.0994	7.59567
88.4451	7.12374
