Adsorption isotherm of Carbon Dioxide on Carbon
DOI: 10.1002/aic.690461017
Adsorbate Carbon Dioxide: InChIKey CURLTUGMZLYLDI-UHFFFAOYSA-N
Temperature: 318 K
Tabular data in the source: 0
pressure (bar)	uptake (mmol/g)
77.6392	1.02247
85.0618	0.998868
92.2661	0.891607
142.259	0.61702
182.429	0.389627
