Adsorption isotherm of Carbon Dioxide on Carbon
DOI: 10.1002/aic.690461017
Adsorbate Carbon Dioxide: InChIKey CURLTUGMZLYLDI-UHFFFAOYSA-N
Temperature: 305 K
Tabular data in the source: 0
pressure (bar)	uptake (mmol/g)
52.4486	13.5538
56.7099	13.5932
60.7468	13.5735
64.4474	13.4555
67.0266	13.2392
70.1665	13.0426
72.97	12.8263
75.3249	12.0594
76.5584	11.7054
76.8948	11.1155
77.7919	9.48341
79.1376	7.45803
79.8104	6.63215
82.0532	6.10122
87.7723	5.58996
