Adsorption isotherm of Carbon Dioxide on Carbon
DOI: 10.1002/aic.690461017
Adsorbate Carbon Dioxide: InChIKey CURLTUGMZLYLDI-UHFFFAOYSA-N
Temperature: 313 K
Tabular data in the source: 0
pressure (bar)	uptake (mmol/g)
53.1214	12.8263
57.7191	12.9442
60.9711	12.9442
66.2416	12.8853
72.2971	12.669
76.8948	12.3543
81.0439	11.9217
83.7353	11.4498
86.0902	10.8599
87.8844	10.3683
