Adsorption isotherm of Carbon Dioxide on Carbon
DOI: 10.1002/aic.690461017
Adsorbate Carbon Dioxide: InChIKey CURLTUGMZLYLDI-UHFFFAOYSA-N
Temperature: 308 K
Tabular data in the source: 0
pressure (bar)	uptake (mmol/g)
62.794	1.22412
80.4773	1.05893
151.865	0.428241
182.21	0.194413
