Adsorption isotherm of Carbon Dioxide on Carbon
DOI: 10.1002/aic.690461017
Adsorbate Carbon Dioxide: InChIKey CURLTUGMZLYLDI-UHFFFAOYSA-N
Temperature: 328 K
Tabular data in the source: 0
pressure (bar)	uptake (mmol/g)
78.9491	0.895898
96.6323	0.827251
116.935	0.700683
151.865	0.544083
178.936	0.445403
