Adsorption isotherm of Nitrogen on TTF-TA
DOI: 10.1021/acsami.0c03280
Article source: Figure S12A
Adsorbate Nitrogen: InChIKey IJGRMHOSHXDMSA-UHFFFAOYSA-N
Kind: experiment
Temperature: 77 K
Tabular data in the source: 0
pressure (bar)	uptake (cm3(STP)/g)
0	67.1488
0	73.3471
0.006393	84.7107
0.009589	93.4917
0.021331	104.359
0.033663	110.337
0.044453	114.323
0.050619	116.814
0.059868	119.305
0.069117	121.297
0.079907	123.29
0.090697	125.283
0.103029	127.276
0.109195	129.269
0.121526	130.763
0.130775	132.258
0.141565	134.25
0.160063	136.741
0.180102	138.236
0.203224	141.225
0.226346	143.218
0.25255	146.705
0.280297	148.698
0.303419	150.691
0.328082	153.68
0.355828	156.171
0.37895	158.164
0.405155	161.153
0.43136	163.146
0.456023	164.64
0.480687	166.633
0.50535	167.131
0.608628	171.864
0.708823	177.095
0.812101	185.066
0.912295	202.005
0.963164	227.911
0.896881	209.976
0.793603	195.529
0.690325	189.55
0.587047	187.059
0.506891	185.066
0.457565	181.081
0.403614	180.583
0.354287	179.088
0.303419	176.597
0.254092	175.103
0.202453	172.113
0.150814	168.128
0.099946	163.146
0.050619	157.167
0.025956	149.695
0.010541	143.716
