Adsorption isotherm of Nitrogen on TTF-DMTA
DOI: 10.1021/acsami.0c03280
Article source: Figure S13A
Adsorbate Nitrogen: InChIKey IJGRMHOSHXDMSA-UHFFFAOYSA-N
Kind: experiment
Temperature: 77 K
Tabular data in the source: 0
pressure (bar)	uptake (cm3(STP)/g)
0.0018	110.82
0.0018	125.961
0.004978	148.391
0.008156	167.457
0.020869	180.915
0.031993	191.009
0.041527	195.495
0.051062	197.177
0.059007	200.542
0.070131	204.467
0.078076	206.15
0.090789	207.832
0.100323	209.514
0.109858	211.757
0.119392	214.561
0.132105	215.682
0.141639	216.243
0.163887	220.169
0.181366	222.412
0.202025	224.094
0.22745	226.898
0.256053	229.141
0.27989	230.823
0.303726	233.066
0.329151	235.309
0.354576	236.431
0.380002	238.674
0.402249	240.356
0.430852	241.758
0.454689	244.281
0.483292	244.842
0.507128	245.963
0.605652	249.889
0.707353	254.936
0.810643	262.225
0.910755	278.487
0.960017	300.918
0.896454	285.777
0.793163	272.88
0.688284	266.712
0.588172	263.347
0.50395	260.543
0.454689	253.814
0.403838	252.132
0.332329	249.328
0.302137	247.646
0.251286	244.842
0.200435	242.599
0.151968	237.552
0.101912	230.823
0.047884	221.29
0.027225	211.196
0.009746	193.813
