Adsorption isotherm of Argon on CuBTC
DOI: 10.1021/La061871a
Adsorbate Argon: InChIKey XKRFYHLGVUSROY-UHFFFAOYSA-N
Temperature: 112 K
Tabular data in the source: 0
pressure (bar)	uptake (cm3(STP)/g)
7.24e-05	2.69664
0.000273	7.59076
0.000778	15.2815
0.00260381	28.5656
0.00906688	47.4429
0.0202786	74.0109
0.0315723	125.05
0.0453542	157.91
0.0706133	174.69
0.119155	188.673
