Adsorption isotherm of Argon on CuBTC
DOI: 10.1021/La061871a
Adsorbate Argon: InChIKey XKRFYHLGVUSROY-UHFFFAOYSA-N
Temperature: 90 K
Tabular data in the source: 0
pressure (bar)	uptake (cm3(STP)/g)
5.51e-06	4.09496
0.000113	33.4597
0.000334	43.9471
0.000564	52.337
0.000844	62.8244
0.00126179	101.278
0.00148219	137.634
0.00271074	180.283
0.0165822	219.436
0.0356241	230.623
0.105603	242.508
0.367727	249.5
0.856217	248.801
1.38782	253.695
1.50415	292.848
