Adsorption isotherm of Argon on CuBTC
DOI: 10.1021/La061871a
Adsorbate Argon: InChIKey XKRFYHLGVUSROY-UHFFFAOYSA-N
Temperature: 132 K
Tabular data in the source: 0
pressure (bar)	uptake (cm3(STP)/g)
0.000844	1.29832
0.00174108	5.49328
0.00389403	8.98908
0.00803565	15.2815
0.0172632	22.2731
0.0303269	32.0613
0.0532762	45.3454
0.0829473	57.9303
0.124049	71.2143
0.164416	86.5958
0.201067	103.376
