Adsorption isotherm of Argon on CuBTC
DOI: 10.1021/La061871a
Adsorbate Argon: InChIKey XKRFYHLGVUSROY-UHFFFAOYSA-N
Temperature: 72 K
Tabular data in the source: 0
pressure (bar)	uptake (cm3(STP)/g)
3.84e-06	27.8664
7.61e-06	37.6546
1.84e-05	47.4429
2.76e-05	57.2311
5.25e-05	141.13
5.47e-05	165.601
6.96e-05	182.381
0.000156	204.055
0.000542	232.72
0.000991	241.809
0.00582357	253.695
0.119155	269.776
0.124049	283.06
0.124049	301.238
