Adsorption isotherm of Argon on CuBTC
DOI: 10.1021/La061871a
Adsorbate Argon: InChIKey XKRFYHLGVUSROY-UHFFFAOYSA-N
Temperature: 87 K
Tabular data in the source: 0
pressure (bar)	uptake (cm3(STP)/g)
9.85e-08	0.599164
1.88e-07	1.99748
1.02e-06	5.49328
1.94e-06	6.19244
1.09e-05	11.7857
1.77e-05	15.2815
8.86e-05	32.0613
0.000176	32.7605
0.000409	39.0529
0.000587	47.4429
0.00111828	92.1891
0.00142372	113.164
0.00305862	145.325
0.00374042	160.707
0.00684077	207.55
0.00943924	216.639
0.0187103	228.525
0.0935921	244.606
