Adsorption isotherm of Argon on CuBTC
DOI: 10.1021/La061871a
Adsorbate Argon: InChIKey XKRFYHLGVUSROY-UHFFFAOYSA-N
Temperature: 122 K
Tabular data in the source: 0
pressure (bar)	uptake (cm3(STP)/g)
0.000409	4.79412
0.00196452	11.0866
0.00359287	15.2815
0.00684077	22.2731
0.0135596	32.7605
0.0247989	43.2479
0.0386102	55.1336
0.0453542	67.7185
0.0601133	86.5958
