Adsorption isotherm of Argon on CuBTC
DOI: 10.1021/La061871a
Adsorbate Argon: InChIKey XKRFYHLGVUSROY-UHFFFAOYSA-N
Temperature: 78 K
Tabular data in the source: 0
pressure (bar)	uptake (cm3(STP)/g)
3.69e-06	13.8832
1.05e-05	32.0613
5.69e-05	45.3454
7.85e-05	53.0361
0.000113	69.816
0.000176	152.317
0.00019	166.999
0.000273	183.779
0.00111828	215.241
0.00657092	242.508
0.0735132	259.288
0.353221	306.132
0.367727	266.28
0.367727	285.856
