Adsorption isotherm of Argon on CuBTC
DOI: 10.1021/La061871a
Adsorbate Argon: InChIKey XKRFYHLGVUSROY-UHFFFAOYSA-N
Temperature: 66 K
Tabular data in the source: 0
pressure (bar)	uptake (cm3(STP)/g)
2.67e-06	38.3538
5.09e-06	46.0445
6.47e-06	51.6378
7.61e-06	58.6294
1.28e-05	113.164
1.39e-05	125.05
1.84e-05	165.601
2.35e-05	186.576
4.65e-05	206.152
9.6e-05	226.428
0.000521	245.305
0.00318423	256.492
0.0315723	268.377
0.0356241	311.026
0.0370871	281.661
