Adsorption isotherm of Argon on CuBTC
DOI: 10.1021/La061871a
Adsorbate Argon: InChIKey XKRFYHLGVUSROY-UHFFFAOYSA-N
Temperature: 143 K
Tabular data in the source: 0
pressure (bar)	uptake (cm3(STP)/g)
0.00136756	2.69664
0.00282207	4.09496
0.00495762	4.79412
0.00943924	6.8916
0.0159281	11.7857
0.0356241	18.7773
0.0511746	23.6714
0.0706133	32.7605
0.124049	41.8496
0.185516	51.6378
0.236187	64.9219
0.277442	74.0109
