Adsorption isotherm of Hydrogen on Desolvated PCN-13
DOI: 10.1021/Ic701507r
Adsorbate Hydrogen: InChIKey UFHFLCQGNIYNRP-UHFFFAOYSA-N
Temperature: 77 K
Tabular data in the source: 0
pressure (bar)	uptake (cm3(STP)/g)
0.0104406	7.44939
0.0207855	12.6316
0.027591	13.9271
0.0378266	16.5182
0.0412703	18.1377
0.0514512	19.4332
0.0616595	21.3765
0.0718677	23.3198
0.0854241	24.6154
0.105772	26.8826
0.122704	28.1781
0.139649	29.7976
0.15997	31.417
0.183653	32.7126
0.203933	33.3603
0.241131	34.9798
0.288455	36.5992
0.325612	37.247
0.36281	38.8664
0.389827	39.1903
0.450625	40.1619
0.484407	40.8097
0.531704	41.7814
0.565472	42.1053
0.612755	42.753
0.649898	43.0769
0.663413	43.4008
0.680304	43.7247
0.700557	43.7247
0.734324	44.0486
0.764731	44.6964
0.781621	45.0202
0.822126	45.0202
0.852505	45.0202
0.882911	45.668
0.906539	45.668
0.943669	45.668
0.974048	45.668
1.0112	46.3158
