Adsorption isotherm of Hydrogen on Desolvated PCN-13
DOI: 10.1021/Ic701507r
Adsorbate Hydrogen: InChIKey UFHFLCQGNIYNRP-UHFFFAOYSA-N
Temperature: 77 K
Tabular data in the source: 0
pressure (bar)	uptake (wt%)
0.000689185	0.090463
0.0102839	0.149878
0.0197925	0.197985
0.0260598	0.220633
0.0323056	0.240454
0.0385728	0.263102
0.0509351	0.285782
0.0601853	0.299966
0.0755735	0.319835
0.0786856	0.328332
0.103281	0.356731
0.121674	0.370963
0.140109	0.390849
0.161528	0.40227
0.182968	0.416518
0.207456	0.430782
0.25025	0.44797
0.286949	0.465125
0.329721	0.479486
0.372472	0.49102
0.415202	0.499727
0.457953	0.511261
0.500661	0.517142
0.54339	0.525849
0.583051	0.531713
0.628806	0.537609
0.662372	0.54344
0.692868	0.546429
0.720317	0.549401
0.747745	0.549547
0.784401	0.561048
0.814876	0.56121
0.833182	0.564134
0.872821	0.567171
0.91246	0.570208
0.955125	0.570434
0.982552	0.570579
1.01305	0.573568
1.0405	0.57654
