Adsorption isotherm of Carbon Dioxide on Desolvated PCN-13
DOI: 10.1021/Ic701507r
Adsorbate Carbon Dioxide: InChIKey CURLTUGMZLYLDI-UHFFFAOYSA-N
Temperature: 195 K
Tabular data in the source: 0
pressure (bar)	uptake (cm3(STP)/g)
0.00338186	0.00338186
0.00676371	13.8462
0.0101456	17.9757
0.0169093	22.3482
0.0270548	24.5344
0.0372004	25.749
0.047346	27.2065
0.0608734	28.664
0.0676371	29.6356
0.0845464	30.3644
0.104838	31.8219
0.118365	32.7935
0.142038	33.7652
0.158947	34.7368
0.172475	35.2227
0.199529	36.6802
0.250257	37.8947
0.280694	39.1093
0.321276	39.8381
0.36524	40.8097
0.405823	42.0243
0.449787	42.753
0.486987	43.4818
0.520806	44.2105
0.561388	44.9393
0.608734	45.668
0.652698	46.6397
0.672989	46.8826
0.689898	47.1255
0.71019	47.6113
0.730481	48.0972
0.750772	48.3401
0.771063	48.583
0.794736	48.8259
0.811645	49.3117
0.828555	49.5547
0.848846	49.7976
0.872519	50.2834
0.899573	50.7692
0.916483	51.2551
0.936774	51.498
0.953683	51.7409
0.977356	52.2267
1.00779	52.4696
