Adsorption isotherm of Carbon monoxide on Desolvated PCN-13
DOI: 10.1021/Ic701507r
Adsorbate Carbon monoxide: InChIKey UGFAIRIUMAVXCW-UHFFFAOYSA-N
Temperature: 77 K
Tabular data in the source: 0
pressure (bar)	uptake (cm3(STP)/g)
0.00563532	2.36975
0.0131491	3.16722
0.0281766	3.97474
0.0394472	5.17094
0.0488394	5.97092
0.0582316	5.9835
0.0845298	6.01872
0.107071	6.0489
0.129612	6.07909
0.16906	6.52562
0.195358	6.56084
0.206628	6.96964
0.232927	7.00486
0.257346	7.43126
0.279888	7.46145
0.304307	7.49415
0.336241	7.93062
0.355025	8.34948
0.375688	7.98345
0.392594	8.39979
0.411378	8.81865
0.432041	9.24002
0.448947	9.65636
0.471488	10.0802
0.486516	10.4941
0.495908	10.113
0.512814	10.5293
0.524085	10.9381
0.540991	11.3544
0.552261	11.7632
0.569167	12.1796
0.582316	12.5909
0.587952	14.1732
