Adsorption isotherm of Carbon monoxide on Dehydrated PCN-13
DOI: 10.1021/Ic701507r
Adsorbate Carbon monoxide: InChIKey UGFAIRIUMAVXCW-UHFFFAOYSA-N
Temperature: 77 K
Tabular data in the source: 0
pressure (bar)	uptake (cm3(STP)/g)
0.00187844	1.17772
0.00375688	3.13976
0.00751376	5.88736
0.0225413	6.6817
0.030055	7.86318
0.0413257	7.8707
0.0713807	9.06722
0.0864082	8.68508
0.093922	9.08225
0.112706	9.09478
0.118342	9.09854
0.139005	9.50448
0.165303	9.52202
0.187844	9.53705
0.210385	9.94425
0.234805	9.96053
0.259225	10.369
0.281766	10.7762
0.304307	10.7912
0.330605	11.2009
0.353147	11.2159
0.375688	11.6231
0.386959	11.6306
0.401986	11.6407
0.4095	12.0378
0.424527	12.0479
0.437676	12.4488
0.456461	12.8535
0.473367	13.2569
0.486516	14.05
0.497787	14.4497
0.514692	15.2453
0.527842	15.254
0.539112	15.6537
0.55414	16.0559
0.569167	16.4581
0.578559	17.2486
0.587952	18.0392
