Adsorption isotherm of Nitrogen on Desolvated PCN-13
DOI: 10.1021/Ic701507r
Adsorbate Nitrogen: InChIKey IJGRMHOSHXDMSA-UHFFFAOYSA-N
Temperature: 77 K
Tabular data in the source: 0
pressure (bar)	uptake (cm3(STP)/g)
0.00657739	1.94332
0.0131416	3.56275
0.0294272	4.53441
0.0457129	5.50607
0.0619853	6.15385
0.0782578	6.80162
0.0945039	6.80162
0.113999	6.80162
0.146492	6.80162
0.156252	7.12551
0.191994	7.12551
0.198519	7.77328
0.234234	7.12551
0.273251	7.77328
0.312255	8.09717
0.351259	8.42105
0.387	8.42105
0.429254	8.74494
0.468244	8.74494
0.503986	8.74494
0.546239	9.06883
0.585243	9.39271
0.620998	9.7166
0.643729	9.39271
0.659988	9.7166
0.679497	10.0405
0.702255	10.3644
0.72175	10.3644
0.741246	10.3644
0.757505	10.6883
0.773764	11.0121
0.793273	11.336
0.816044	11.9838
0.835552	12.3077
0.848549	12.3077
0.87132	12.9555
0.894078	13.2794
0.903852	13.9271
0.920098	13.9271
0.936344	13.9271
0.955866	14.5749
0.96564	15.2227
