Adsorption isotherm of Carbon monoxide on Desolvated PCN-13
DOI: 10.1021/Ic701507r
Adsorbate Carbon monoxide: InChIKey UGFAIRIUMAVXCW-UHFFFAOYSA-N
Temperature: 77 K
Tabular data in the source: 0
pressure (bar)	uptake (cm3(STP)/g)
0.00596287	2.59109
0.0217179	3.56275
0.0355066	4.53441
0.0433881	5.18219
0.05322	5.18219
0.0610936	5.50607
0.0846903	5.50607
0.112236	6.15385
0.133866	6.15385
0.169261	6.15385
0.198765	6.47773
0.21253	6.47773
0.234168	6.80162
0.259739	7.12551
0.279395	6.80162
0.304966	7.12551
0.338395	7.12551
0.358067	7.44939
0.371824	7.12551
0.387563	7.44939
0.401344	8.09717
0.422974	8.09717
0.442646	8.42105
0.460359	9.06883
0.499703	9.7166
0.517409	10.0405
0.535106	10.0405
0.55282	10.6883
0.568567	11.336
0.582347	11.9838
0.588262	12.6316
