Adsorption isotherm of Hydrogen on Dehydrated PCN-13
DOI: 10.1021/Ic701507r
Adsorbate Hydrogen: InChIKey UFHFLCQGNIYNRP-UHFFFAOYSA-N
Temperature: 77 K
Tabular data in the source: 0
pressure (bar)	uptake (wt%)
0.000279982	0.0367506
0.00965936	0.0678957
0.0160989	0.11316
0.0253922	0.132997
0.0316164	0.149991
0.0378406	0.166985
0.0501167	0.178358
0.062479	0.201038
0.0809147	0.220924
0.0993504	0.240809
0.120791	0.255057
0.136114	0.266446
0.163628	0.277899
0.18202	0.292131
0.203396	0.297898
0.243164	0.317897
0.285893	0.326604
0.325597	0.338122
0.368348	0.349656
0.411078	0.358363
0.456833	0.364259
0.493446	0.370107
0.533106	0.375971
0.572788	0.384662
0.618522	0.387731
0.658183	0.393595
0.688679	0.396583
0.719176	0.399572
0.737461	0.399669
0.758815	0.402609
0.804549	0.405678
0.825902	0.408618
0.850304	0.411574
0.877753	0.414547
0.902154	0.417503
0.932629	0.417665
0.972247	0.417875
1.01189	0.420911
1.03931	0.421057
