Adsorption isotherm of Nitrogen on Desolvated PCN-13
DOI: 10.1021/Ic701507r
Adsorbate Nitrogen: InChIKey IJGRMHOSHXDMSA-UHFFFAOYSA-N
Temperature: 77 K
Tabular data in the source: 0
pressure (bar)	uptake (cm3(STP)/g)
0.0031039	45.8836
0.00931169	53.7292
0.0248312	58.0492
0.0372468	60.015
0.0527663	61.5899
0.0682858	63.1648
0.090013	63.9579
0.117948	64.7535
0.152091	65.5516
0.18313	66.3484
0.239	66.7631
0.273143	67.1691
0.304182	67.5738
0.341429	67.5888
0.387987	68.7841
0.428338	69.1925
0.459377	69.205
0.502831	70.0069
0.546286	70.4166
0.580429	70.4304
0.62078	71.231
0.648715	71.6344
0.692169	72.0441
0.723208	72.8409
0.757351	72.4626
0.791494	73.2607
0.819429	73.6641
0.841156	74.065
0.869091	74.4685
0.890819	74.4772
0.906338	74.4835
0.931169	74.8857
0.949793	75.6775
0.965312	76.0759
