Adsorption isotherm of Nitrogen on Dehydrated PCN-13
DOI: 10.1021/Ic701507r
Adsorbate Nitrogen: InChIKey IJGRMHOSHXDMSA-UHFFFAOYSA-N
Temperature: 77 K
Tabular data in the source: 0
pressure (bar)	uptake (cm3(STP)/g)
0	0
0.0031039	39.6091
0.0062078	45.8849
0.0155195	54.5161
0.0248312	56.4806
0.0372468	57.6621
0.0558702	59.2382
0.0651819	59.6342
0.0993247	61.6087
0.124156	62.4031
0.145883	63.1961
0.164507	64.7723
0.18313	65.5641
0.204857	65.965
0.239	66.7631
0.273143	67.5612
0.31039	67.9684
0.347637	68.3756
0.391091	69.1775
0.428338	69.5847
0.465585	70.384
0.502831	71.1834
0.546286	71.5931
0.583533	72.7846
0.623883	73.193
0.648715	73.203
0.67665	73.9986
0.692169	74.7892
0.717	74.7992
0.741832	75.5936
0.779078	76.7851
0.816325	77.5844
0.850468	77.9904
0.878403	78.7859
0.909442	79.5828
0.940481	79.9875
0.965312	80.3897
