Adsorption isotherm of Oxygen on Desolvated PCN-13
DOI: 10.1021/Ic701507r
Adsorbate Oxygen: InChIKey MYMOFIZGZYHOMD-UHFFFAOYSA-N
Temperature: 77 K
Tabular data in the source: 0
pressure (bar)	uptake (cm3(STP)/g)
7.36e-05	8.74494
0.000103585	12.3077
0.000708737	4.21053
0.000823225	17.8138
0.00153741	22.6721
0.00224343	26.5587
0.00294944	30.4453
0.00365545	34.332
0.00637863	37.8947
0.00977239	41.1336
0.0145073	43.7247
0.0165436	45.668
0.020597	47.2874
0.0280224	49.5547
0.0327437	50.5263
0.0435355	52.7935
0.0496034	53.7652
0.0576885	54.413
0.065779	55.7085
0.0731962	57.004
0.081284	57.9757
0.0934088	58.6235
0.100818	58.9474
0.108232	59.919
0.116988	60.2429
0.12507	60.5668
0.132482	61.2146
0.139894	61.8623
0.147308	62.834
0.154715	62.834
0.16145	63.1579
0.167518	64.1296
0.17493	64.7773
0.181671	65.749
0.189075	65.4251
0.195813	66.0729
0.201208	67.0445
