Adsorption isotherm of Carbon Dioxide on Joppe-I IX coal (dry)
DOI: 10.1016/s0166-5162(02)00078-2
Article source: Figure 10
Adsorbate Carbon Dioxide: InChIKey CURLTUGMZLYLDI-UHFFFAOYSA-N
Kind: experiment
Isotherm type: excess
Temperature: 333 K
Tabular data in the source: 0
pressure (bar)	uptake (cm3(STP)/g)
5.99221	7.25506
10.4997	9.87029
15.7672	11.0373
20.2815	12.2033
23.2906	13.0772
30.0593	15.4059
33.0684	16.2798
37.962	16.8666
45.8634	18.6172
51.8883	18.9158
58.2872	19.7946
65.4421	20.0948
67.3226	20.6773
74.8528	21.2679
78.6165	21.8531
86.9	22.4448
91.7909	23.6113
94.8	24.4852
97.8118	24.7794
100.444	25.6528
105.335	26.8193
111.353	28.5672
116.241	30.3134
122.264	31.1917
127.909	32.0694
132.429	32.076
138.454	32.3746
145.988	32.0956
149.381	31.5208
152.771	31.5258
157.288	32.112
162.183	32.409
167.454	32.7065
170.84	33.5809
174.982	33.8768
176.855	35.9085
179.104	38.2306
180.226	39.9713
184.369	39.9773
189.263	40.5641
193.781	40.8606
196.794	40.8649
199.808	40.8693
