Adsorption isotherm of Carbon Dioxide on Hengevelde-I VI coal (dry)
DOI: 10.1016/s0166-5162(02)00078-2
Article source: Figure 8
Adsorbate Carbon Dioxide: InChIKey CURLTUGMZLYLDI-UHFFFAOYSA-N
Kind: experiment
Isotherm type: excess
Temperature: 353 K
Tabular data in the source: 0
pressure (bar)	uptake (cm3(STP)/g)
0.743494	0.639974
2.23048	1.4395
3.71747	2.07887
4.83271	2.39827
6.3197	3.35793
8.17844	4.47744
10.4089	5.43651
11.8959	6.23603
13.7546	6.87511
17.1004	7.67314
19.3309	8.31192
21.1896	8.951
23.7918	9.74963
26.7658	10.7081
28.9963	11.3469
30.4833	11.9863
32.7138	12.6251
34.2007	12.9441
35.6877	13.2632
40.1487	13.58
43.1227	13.8979
46.4684	14.3756
49.8141	14.6932
54.6468	15.1698
60.9665	15.3248
64.3123	15.3222
70.632	15.3171
75.8364	15.4731
78.8104	15.6308
84.7584	15.9464
90.3346	16.9028
94.7955	17.5398
97.3978	17.2174
101.487	16.8938
105.948	16.57
110.409	16.2461
114.498	16.2428
121.19	16.0773
125.651	16.2339
128.996	16.2312
133.829	16.0672
137.918	15.7437
141.264	15.741
145.725	15.5773
150.558	14.9328
154.647	14.4491
159.108	14.1253
160.967	14.1238
169.145	13.6368
171.004	13.4752
176.208	13.1507
179.926	12.8275
183.271	12.5045
186.989	12.0211
189.219	11.699
191.45	11.6972
193.68	11.6955
195.911	11.2132
198.141	10.8912
199.628	11.2103
