Adsorption isotherm of Methane on Hengevelde-I VI coal (moist)
DOI: 10.1016/s0166-5162(02)00078-2
Article source: Figure 3
Adsorbate Methane: InChIKey VNWKTOKETHGBQD-UHFFFAOYSA-N
Kind: experiment
Temperature: 313 K
Tabular data in the source: 0
pressure (bar)	uptake (cm3(STP)/g)
0	0
3.005	0.507937
9.01428	1.56614
15.0279	2.37037
20.7712	2.96296
25.694	3.4709
30.0718	3.80952
33.9023	4.10582
37.4603	4.31746
40.1964	4.5291
46.7652	4.91005
52.7876	5.20635
57.9887	5.46032
62.3679	5.71429
66.7486	5.8836
70.5798	6.13757
73.8661	6.22222
77.1516	6.34921
79.8906	6.39153
81.8069	6.47619
84.2705	6.60317
85.9129	6.68783
86.4608	6.68783
87.83	6.73016
89.4723	6.81481
90.2943	6.81481
91.9374	6.85714
92.4846	6.89947
94.1277	6.9418
94.9489	6.98413
95.4968	6.98413
102.617	7.19577
108.641	7.36508
114.392	7.49206
119.322	7.61905
123.703	7.74603
127.537	7.83069
133.562	7.95767
135.753	8
138.218	8.08466
139.588	8.08466
141.778	8.16931
143.147	8.21164
145.886	8.25397
147.255	8.2963
