Adsorption isotherm of Carbon Dioxide on Joppe-I IX coal (moist)
DOI: 10.1016/s0166-5162(02)00078-2
Article source: Figure 13
Adsorbate Carbon Dioxide: InChIKey CURLTUGMZLYLDI-UHFFFAOYSA-N
Kind: experiment
Isotherm type: excess
Temperature: 353 K
Tabular data in the source: 0
pressure (bar)	uptake (cm3(STP)/g)
1.61766	0.356104
5.42264	0.924125
7.70536	1.20759
10.3697	1.77725
13.0312	1.77343
15.6942	2.05635
17.2164	2.34091
18.736	2.05199
21.0173	2.04872
23.6789	2.0449
26.7194	1.75381
30.9005	1.46107
35.083	1.45508
38.8825	0.876154
41.1611	0.299411
44.2016	0.008313
46.4802	-0.56843
49.5193	-1.14626
52.5583	-1.7241
55.2172	-2.30139
57.8761	-2.87868
60.5335	-3.7427
63.5699	-4.89401
66.2287	-5.4713
68.1272	-6.04749
70.0228	-7.19717
72.6776	-8.63466
74.9576	-8.92467
76.473	-10.0738
77.6137	-10.0754
79.1292	-11.2246
81.7839	-12.6621
84.4428	-13.2393
85.5821	-13.5277
89.0055	-13.2459
89.7714	-12.1
92.0596	-10.6696
93.5873	-9.23812
95.1204	-6.65967
96.6536	-4.08122
97.8052	-1.78897
98.9568	0.503288
100.487	2.50826
101.639	4.80052
102.79	7.09277
104.321	9.09775
105.468	10.5298
107	12.8215
108.531	14.8265
109.682	17.1187
111.596	19.6966
112.744	21.4154
114.656	23.7066
116.187	25.7116
117.332	26.5701
118.861	28.2884
120.388	29.7199
121.535	30.8652
123.061	32.0099
124.969	33.4409
126.115	34.5862
128.022	35.7304
128.787	36.8763
129.555	38.3089
130.698	38.8807
131.08	39.1669
132.988	40.5979
136.038	42.3139
137.563	43.172
139.086	43.7432
142.512	44.5985
144.037	45.4566
148.221	45.7373
151.266	46.3064
153.548	46.5899
156.972	46.8717
160.014	46.8674
163.44	47.7227
166.101	47.7189
169.142	47.4278
171.422	47.1377
174.464	47.1334
176.362	46.5572
179.404	46.5528
180.544	46.5512
183.205	46.2606
186.245	45.9695
190.808	45.963
193.848	45.6719
196.508	45.3813
198.791	45.6648
200.312	45.6626
