Adsorption isotherm of Carbon Dioxide on Joppe-I IV coal (dry)
DOI: 10.1016/s0166-5162(02)00078-2
Article source: Figure 7
Adsorbate Carbon Dioxide: InChIKey CURLTUGMZLYLDI-UHFFFAOYSA-N
Kind: experiment
Isotherm type: excess
Temperature: 353 K
Tabular data in the source: 0
pressure (bar)	uptake (cm3(STP)/g)
0.000736	-0.053763
2.15054	3.01075
4.85786	5.37634
7.57254	7.2043
10.2931	8.60215
13.2914	9.73118
16.2925	10.6452
19.0197	11.5591
21.7514	12.1505
24.209	12.7419
26.9421	13.2258
29.402	13.6559
31.0407	14.0323
33.5027	14.3011
34.8689	14.5699
36.5098	14.7849
38.1492	15.1075
40.6105	15.4301
42.2514	15.6452
44.9867	15.9677
46.3544	16.129
47.7221	16.2903
49.9101	16.5591
51.8257	16.7204
53.4674	16.8817
54.8358	16.9892
