Adsorption isotherm of Carbon Dioxide on Joppe-I VI coal (dry)
DOI: 10.1016/s0166-5162(02)00078-2
Article source: Figure 9
Adsorbate Carbon Dioxide: InChIKey CURLTUGMZLYLDI-UHFFFAOYSA-N
Kind: experiment
Isotherm type: excess
Temperature: 313 K
Tabular data in the source: 0
pressure (bar)	uptake (cm3(STP)/g)
1.45903	0.96831
2.55233	1.76056
3.64433	2.64085
4.73634	3.52113
5.82575	4.57746
7.28737	5.36972
9.10565	6.95423
10.5647	7.92254
12.0263	8.71479
13.1183	9.59507
13.842	10.4754
14.5683	11.1796
16.0273	12.1479
16.751	13.0282
17.8456	13.7324
20.7844	14.2606
24.4611	14.7007
27.0316	15.2289
29.9717	15.669
32.9079	16.3732
35.8494	16.7254
40.2589	17.4296
40.9929	17.6056
47.615	18.1338
51.6613	18.4859
55.342	18.662
57.9177	18.838
61.6035	18.662
65.6616	18.2218
73.0267	18.3099
77.4427	18.5739
80.3971	18.0458
81.8756	17.6937
83.7043	18.5739
84.7976	19.3662
85.5212	20.2465
86.6119	21.2148
88.8284	20.7746
90.6817	19.9824
92.1601	19.6303
95.1041	19.8063
98.7874	19.8063
103.211	19.5423
106.168	18.838
109.862	18.1338
112.445	17.7817
115.767	17.3415
119.083	17.2535
123.505	17.0775
127.187	17.1655
130.872	17.0775
134.188	16.9894
138.242	16.8134
142.295	16.7254
145.611	16.6373
149.664	16.5493
151.507	16.4613
155.559	16.4613
157.033	16.3732
161.821	16.3732
165.505	16.3732
169.556	16.3732
171.765	16.4613
175.448	16.4613
179.867	16.5493
181.34	16.5493
183.549	16.6373
187.6	16.6373
190.916	16.5493
194.598	16.6373
196.44	16.6373
