Adsorption isotherm of Carbon Dioxide on Hengevelde-I VI coal (moist)
DOI: 10.1016/s0166-5162(02)00078-2
Article source: Figure 11
Adsorbate Carbon Dioxide: InChIKey CURLTUGMZLYLDI-UHFFFAOYSA-N
Kind: experiment
Isotherm type: excess
Temperature: 353 K
Tabular data in the source: 0
pressure (bar)	uptake (cm3(STP)/g)
0.547534	0.609319
4.36115	1.36201
6.27001	2.1147
9.70268	2.86738
11.9911	3.36918
16.9462	3.87097
22.6619	4.12186
29.9027	4.62366
34.8578	5.12545
38.285	4.87455
42.8537	4.37276
47.4224	3.87097
52.3762	4.12186
56.1802	3.11828
61.1272	2.1147
66.0754	1.36201
72.1611	-0.394265
76.7216	-2.40143
80.1434	-3.65591
84.7052	-5.41219
89.6535	-6.16487
92.7025	-5.91398
96.9025	-4.15771
98.8155	-2.65233
100.345	-1.64875
102.641	0.358423
104.172	1.6129
106.467	3.36918
109.524	5.12545
111.058	6.88172
112.588	8.1362
114.885	10.1434
116.414	11.147
119.091	12.9032
122.531	15.1613
126.355	17.6703
130.936	19.4265
136.662	21.6846
143.533	24.1935
149.254	25.448
154.977	26.9534
161.841	28.2079
167.174	28.2079
170.601	27.957
176.696	27.957
182.412	28.2079
186.223	28.4588
190.413	28.4588
193.842	28.4588
196.89	28.4588
200.32	28.7097
