Adsorption isotherm of Carbon Dioxide on Joppe-I IV coal (moist)
DOI: 10.1016/s0166-5162(02)00078-2
Article source: Figure 12
Adsorbate Carbon Dioxide: InChIKey CURLTUGMZLYLDI-UHFFFAOYSA-N
Kind: experiment
Isotherm type: excess
Temperature: 333 K
Tabular data in the source: 0
pressure (bar)	uptake (cm3(STP)/g)
1.78189	1.33064
6.70589	3.09926
8.21845	4.10664
14.6605	5.87908
21.8642	7.15163
28.6938	7.41966
31.7258	8.17996
34.7604	8.43847
40.0721	8.70269
42.3491	8.7084
47.6608	8.97263
51.8353	8.9831
57.1469	9.24732
58.2854	9.25018
62.46	9.26065
64.741	8.51369
69.6773	8.02428
72.3379	7.27827
74.6162	7.03309
78.7948	6.29088
82.5967	5.04594
85.6354	4.55177
87.5356	4.05475
89.8126	4.06046
93.5981	5.82623
95.1066	7.58629
97.3727	9.59914
99.2566	12.1128
101.52	14.6275
103.026	16.8893
105.289	19.404
106.04	20.9112
107.55	22.4204
110.194	24.6851
111.705	25.9433
112.838	26.9498
115.109	28.21
118.135	29.9738
121.551	29.9824
124.587	29.99
127.623	29.9976
131.038	30.0062
133.699	29.2602
136.74	28.2642
139.02	27.7682
141.678	27.5239
144.715	27.2806
148.516	26.2866
151.552	26.2942
154.97	25.801
159.146	25.5606
163.324	24.8184
167.121	24.577
172.054	24.5894
178.507	24.3547
183.064	23.8643
187.996	24.1276
194.831	23.392
197.108	23.3978
199.006	23.4025
