Adsorption isotherm of Methane on Joppe-I VI coal (dry)
DOI: 10.1016/s0166-5162(02)00078-2
Article source: Figure 4
Adsorbate Methane: InChIKey VNWKTOKETHGBQD-UHFFFAOYSA-N
Kind: experiment
Temperature: 333 K
Tabular data in the source: 0
pressure (bar)	uptake (cm3(STP)/g)
0	0
3.24763	1.60357
5.68336	2.87917
8.11908	3.8631
19.7564	6.44952
31.3938	8.05157
41.9486	9.07048
52.2327	9.79777
61.1637	10.343
70.0947	10.7789
77.6725	11.0692
84.9797	11.3231
91.475	11.5406
96.8877	11.7219
101.759	11.794
106.36	11.9389
110.149	12.0112
113.126	12.12
115.832	12.156
117.997	12.192
120.162	12.301
121.786	12.3372
124.222	12.4461
125.304	12.4459
126.116	12.4822
136.671	12.5897
146.414	12.6608
154.533	12.7687
162.382	12.7673
168.877	12.8025
174.56	12.7651
180.244	12.7276
185.115	12.7267
189.716	12.7258
193.505	12.7251
197.835	12.7244
