Adsorption isotherm of Carbon Dioxide on Joppe-I IX coal (moist)
DOI: 10.1016/s0166-5162(02)00078-2
Article source: Figure 13
Adsorbate Carbon Dioxide: InChIKey CURLTUGMZLYLDI-UHFFFAOYSA-N
Kind: experiment
Isotherm type: excess
Temperature: 333 K
Tabular data in the source: 0
pressure (bar)	uptake (cm3(STP)/g)
1.24016	0.930122
3.52288	1.21359
6.56741	1.7827
8.09104	2.35399
9.23308	2.63909
9.99353	2.638
13.4196	3.49331
14.9419	3.77786
16.0853	4.3497
16.8458	4.34861
20.2719	5.20391
21.7955	5.7752
22.556	5.77411
23.6994	6.34595
25.6019	6.62996
26.3623	6.62887
27.503	6.62724
28.2648	6.91288
29.0252	6.91179
33.588	6.90525
34.3484	6.90416
35.1089	6.90307
35.4877	6.61579
36.2495	6.90143
40.432	6.89544
42.7134	6.89217
43.4752	7.17781
47.2761	6.88563
49.1772	6.8829
51.077	6.59344
52.5979	6.59126
52.9781	6.59071
57.9197	6.29689
58.6788	6.00906
60.5799	6.00634
64.3794	5.42741
65.8989	5.1385
66.6594	5.13741
68.1776	4.56175
69.6985	4.55957
75.0162	3.40499
76.9159	3.11553
80.7141	2.24987
82.9955	2.2466
87.1779	2.24061
89.4607	2.52407
90.9857	3.3821
95.1777	5.38326
96.7054	6.81476
98.6188	9.39266
100.908	11.1098
101.674	12.2557
104.731	15.4054
106.639	16.8364
108.548	18.5541
111.221	20.8441
115.031	22.5591
120.74	23.6979
124.165	24.2664
127.963	23.4008
132.905	23.1069
137.083	22.2407
140.88	21.0883
145.44	20.5083
149.239	19.9294
154.94	19.3478
157.979	18.7699
161.019	18.4788
164.44	18.1872
167.861	17.8955
170.904	18.1779
175.085	17.8852
179.267	17.8792
182.688	17.5875
189.153	17.865
192.195	17.8607
195.236	17.5696
199.039	17.8508
