Adsorption isotherm of Methane on Joppe-I VI coal (dry)
DOI: 10.1016/s0166-5162(02)00078-2
Article source: Figure 4
Adsorbate Methane: InChIKey VNWKTOKETHGBQD-UHFFFAOYSA-N
Kind: experiment
Temperature: 353 K
Tabular data in the source: 0
pressure (bar)	uptake (cm3(STP)/g)
0	0
2.70636	1.34846
5.41272	2.33235
7.84844	2.98815
11.0961	3.86256
14.6143	4.55463
18.1326	5.13732
21.1096	5.57428
24.0866	5.97478
26.2517	6.26605
28.6874	6.55727
30.8525	6.84854
50.3383	8.4127
68.4709	9.46668
85.2503	10.1563
100.406	10.7004
114.479	11.1354
127.199	11.4976
138.836	11.7507
148.85	11.9677
157.51	12.0755
165.088	12.2564
172.124	12.3645
177.808	12.3999
182.138	12.472
185.656	12.5807
188.363	12.5438
190.798	12.5433
192.422	12.5795
193.775	12.6522
194.858	12.652
