Adsorption isotherm of Carbon Dioxide on Joppe-I IV coal (dry)
DOI: 10.1016/s0166-5162(02)00078-2
Article source: Figure 6
Adsorbate Carbon Dioxide: InChIKey CURLTUGMZLYLDI-UHFFFAOYSA-N
Kind: experiment
Isotherm type: excess
Temperature: 313 K
Tabular data in the source: 0
pressure (bar)	uptake (cm3(STP)/g)
1.47743	3.8
3.20109	7
5.41724	9.46667
7.87962	11.4667
10.5882	12.9333
13.2969	14
16.0055	14.8667
18.4679	15.5333
20.9302	16
22.9001	16.8
24.6238	17.2667
26.3475	17.6667
28.0711	17.9333
29.0561	18.2
30.041	18.2667
31.026	18.6
32.2572	18.7333
33.2421	18.9333
35.212	19.2667
36.9357	19.5333
38.4131	19.8
39.8906	20
41.6142	20.2
42.8454	20.4
44.3228	20.6
45.8003	20.8
47.5239	20.9333
48.7551	21.0667
49.7401	21.1333
49.9863	21.2
