Adsorption isotherm of Carbon Dioxide on Hengevelde-I VI coal (dry)
DOI: 10.1016/s0166-5162(02)00078-2
Article source: Figure 8
Adsorbate Carbon Dioxide: InChIKey CURLTUGMZLYLDI-UHFFFAOYSA-N
Kind: experiment
Isotherm type: excess
Temperature: 333 K
Tabular data in the source: 0
pressure (bar)	uptake (cm3(STP)/g)
0.743494	0.639974
1.48699	1.44009
3.34572	3.20017
4.83271	4.15983
6.3197	5.76006
7.80669	7.04001
10.4089	8.79949
11.8959	9.11859
15.6134	9.91632
17.8439	10.7152
21.5613	11.6731
24.1636	12.4718
28.2528	13.2692
29.7398	13.7484
31.5985	14.2274
34.2007	14.3854
39.0335	14.7018
41.6357	15.02
46.4684	15.3365
48.6989	15.4948
51.3011	15.6529
54.6468	15.4901
58.7361	15.3266
60.9665	15.3248
65.4275	14.8408
68.0297	14.5185
69.5167	14.3571
73.9777	13.8731
76.5799	13.3906
79.9257	12.9075
84.3866	12.5837
86.6171	13.2225
89.5911	14.3411
90.7063	15.301
92.5651	16.7408
93.3086	17.2207
94.4238	18.0205
95.539	18.6602
98.1413	20.0994
98.8848	20.2589
100.743	20.7378
103.717	21.5362
108.178	22.3333
111.524	23.1313
114.498	23.2891
117.472	23.4469
121.19	23.4439
123.792	22.9614
126.766	22.4786
130.112	21.3549
133.086	20.5518
136.431	19.7484
140.149	18.6244
142.751	17.8216
145.353	17.3391
147.212	16.6971
149.814	16.3747
152.416	16.0523
154.647	15.5701
157.621	15.0873
160.223	14.9251
162.825	14.2824
164.684	13.9607
167.286	13.6383
169.145	13.1564
173.234	12.5125
175.093	12.0306
177.695	11.8684
179.554	11.2263
183.271	10.7429
184.758	10.2613
186.245	9.93984
189.219	9.45703
191.45	8.97482
193.68	8.4926
195.539	7.6904
197.398	7.20849
199.628	6.40599
