Adsorption isotherm of Carbon Dioxide on Hengevelde-I VI coal (moist)
DOI: 10.1016/s0166-5162(02)00078-2
Article source: Figure 14
Adsorbate Carbon Dioxide: InChIKey CURLTUGMZLYLDI-UHFFFAOYSA-N
Kind: experiment
Isotherm type: absolute
Temperature: 313 K
Tabular data in the source: 0
pressure (bar)	uptake (mmol/g)
0	2.4031
12.9563	2.66667
31.8811	2.82171
47.1321	2.93023
59.5992	2.96124
68.4131	2.97674
75.0606	2.93023
79.8351	2.8062
83.5645	2.48062
86.2177	1.90698
89.2198	0.945736
92.1315	0.75969
95.3739	1.06977
99.0233	1.53488
103.501	1.87597
108.837	2.13953
115.65	2.34109
123.394	2.57364
132.543	2.63566
141.398	2.71318
149.646	2.7907
157.58	2.85271
164.3	2.91473
170.382	2.93023
174.956	2.96124
179.531	2.99225
182.577	3.00775
185.319	3.02326
188.375	3.05426
190.197	3.05426
191.715	3.05426
194.174	3.10078
195.703	3.11628
195.827	3.30233
196.351	3.17829
196.696	3.24031
199.5	3.34884
