Adsorption isotherm of Carbon Dioxide on Joppe-I IX coal (dry)
DOI: 10.1016/s0166-5162(02)00078-2
Article source: Figure 10
Adsorbate Carbon Dioxide: InChIKey CURLTUGMZLYLDI-UHFFFAOYSA-N
Kind: experiment
Isotherm type: excess
Temperature: 353 K
Tabular data in the source: 0
pressure (bar)	uptake (cm3(STP)/g)
1.12584	0.871197
2.24623	2.90181
5.24301	6.38441
7.50015	6.96739
10.5106	7.55146
15.0235	9.00728
19.5378	10.1732
23.2974	11.628
28.1897	12.5046
33.082	13.3813
40.6122	13.9719
46.2578	14.8496
53.792	14.5707
59.8129	15.7389
69.6098	14.8835
77.1454	14.3147
83.925	14.3245
93.3425	14.0483
97.1076	14.3436
103.513	13.7732
109.538	14.0718
116.692	14.6619
122.715	15.2503
128.366	14.9686
134.768	15.2678
142.679	14.9894
149.459	14.9992
159.631	14.4342
166.035	14.1537
172.061	14.1624
177.711	14.1706
183.361	14.1788
189.762	14.4779
195.035	14.4856
199.174	15.3611
