Adsorption isotherm of Carbon Dioxide on Joppe-I VI coal (dry)
DOI: 10.1016/s0166-5162(02)00078-2
Article source: Figure 9
Adsorbate Carbon Dioxide: InChIKey CURLTUGMZLYLDI-UHFFFAOYSA-N
Kind: experiment
Isotherm type: excess
Temperature: 333 K
Tabular data in the source: 0
pressure (bar)	uptake (cm3(STP)/g)
0.36573	0.176056
1.83125	0.704225
2.92584	1.40845
4.75579	2.2007
5.11763	2.64085
6.58185	3.25704
7.67645	3.96127
10.2379	5.10563
11.6995	5.89789
13.5294	6.69014
14.6227	7.48239
16.454	8.18662
17.1815	8.80282
18.2787	9.33099
19.0076	9.85915
20.1035	10.4754
21.5651	11.2676
23.7712	11.5317
27.4453	12.1479
29.6475	12.6761
32.9559	13.1162
35.162	13.3803
36.2618	13.7324
39.5676	14.3486
43.6127	14.7887
47.2894	15.2289
50.2321	15.493
54.2785	15.8451
59.7969	16.2852
66.0532	16.6373
71.9373	17.2535
75.6167	17.5176
79.2934	17.9577
83.7055	18.4859
86.2747	19.1021
88.1138	19.2782
89.9554	19.2782
92.902	19.2782
94.7436	19.2782
97.3245	19.1021
100.276	18.75
103.967	18.2218
107.657	17.7817
110.609	17.4296
113.928	17.1655
118.353	16.8134
123.149	16.2852
130.153	15.8451
136.421	15.4049
140.108	15.1408
143.801	14.5246
151.178	13.8204
154.863	13.6444
160.391	13.4683
164.45	12.9401
168.873	12.7641
172.19	12.588
175.509	12.3239
177.724	11.9718
180.306	11.7077
183.995	11.3556
189.155	11.0915
192.841	10.9155
195.79	10.7394
198.737	10.7394
