Adsorption isotherm of Methane on Joppe-I IX coal (moist)
DOI: 10.1016/s0166-5162(02)00078-2
Article source: Figure 5
Adsorbate Methane: InChIKey VNWKTOKETHGBQD-UHFFFAOYSA-N
Kind: experiment
Temperature: 353 K
Tabular data in the source: 0
pressure (bar)	uptake (cm3(STP)/g)
0.273945	-0.042216
8.44904	1.22427
16.3588	2.02639
23.9976	2.70185
30.8202	3.16623
51.568	4.17942
70.4096	4.81266
87.6141	5.31926
103.181	5.69921
117.384	5.99472
129.948	6.24802
140.054	6.41689
150.161	6.58575
158.629	6.7124
165.456	6.88127
171.466	6.9657
176.109	7.05013
179.386	7.13456
182.39	7.219
184.575	7.30343
187.033	7.34565
188.67	7.4723
190.309	7.51451
191.127	7.59894
191.942	7.85224
191.945	7.72559
