Adsorption isotherm of Methane on Joppe-I IX coal (moist)
DOI: 10.1016/s0166-5162(02)00078-2
Article source: Figure 5
Adsorbate Methane: InChIKey VNWKTOKETHGBQD-UHFFFAOYSA-N
Kind: experiment
Temperature: 333 K
Tabular data in the source: 0
pressure (bar)	uptake (cm3(STP)/g)
0.273945	-0.042216
20.7124	3.08179
41.1804	4.47493
61.1142	5.1504
78.3187	5.65699
94.7049	6.07916
109.182	6.29024
122.569	6.37467
134.314	6.54354
145.243	6.54354
154.531	6.67018
162.454	6.67018
169.557	6.75462
174.748	6.75462
179.665	6.79683
183.49	6.83905
185.948	6.88127
188.134	6.88127
190.046	6.88127
191.958	6.9657
193.322	7.05013
194.142	7.05013
