Adsorption isotherm of Methane on Joppe-I VI coal (moist)
DOI: 10.1016/s0166-5162(02)00078-2
Article source: Figure 4
Adsorbate Methane: InChIKey VNWKTOKETHGBQD-UHFFFAOYSA-N
Kind: experiment
Temperature: 333 K
Tabular data in the source: 0
pressure (bar)	uptake (cm3(STP)/g)
0	0
7.57781	2.29549
15.1556	4.00765
21.9215	4.9908
28.4168	5.82815
33.8295	6.4105
39.5129	6.88342
44.1137	7.28363
48.4438	7.61096
52.2327	7.86548
55.4804	8.08364
58.728	8.30179
61.1637	8.48364
63.3288	8.59262
65.2233	8.73811
67.3884	8.88355
68.7415	8.91976
70.0947	9.02889
71.9892	9.10146
82.544	9.57349
91.475	9.93645
99.8647	10.1537
107.442	10.4075
114.208	10.625
119.621	10.7334
124.763	10.8783
129.093	10.914
132.882	10.9862
136.13	11.095
138.566	11.1674
140.731	11.2035
142.896	11.276
143.978	11.2758
146.414	11.3119
147.226	11.2752
147.497	11.2752
148.85	11.2749
149.662	11.2748
