Adsorption isotherm of Carbon Dioxide on Hengevelde-I VI coal (moist)
DOI: 10.1016/s0166-5162(02)00078-2
Article source: Figure 11
Adsorbate Carbon Dioxide: InChIKey CURLTUGMZLYLDI-UHFFFAOYSA-N
Kind: experiment
Isotherm type: excess
Temperature: 333 K
Tabular data in the source: 0
pressure (bar)	uptake (cm3(STP)/g)
1.69039	0.609319
2.45912	1.8638
6.65779	3.36918
8.94624	3.87097
12.3803	4.87455
15.8129	5.62724
20.7694	6.37993
22.2973	7.13262
25.7286	7.63441
31.447	8.3871
33.7354	8.88889
39.4525	9.39068
42.8838	9.89247
47.077	10.3943
50.1273	10.8961
54.6974	10.6452
55.4593	10.6452
60.7872	9.64158
66.1178	9.13978
71.4456	8.1362
75.632	7.38351
79.8184	6.63082
82.4823	6.12903
86.2891	5.62724
90.4769	5.12545
93.1476	5.87814
95.8211	7.13262
98.1178	9.13978
100.414	11.147
103.099	14.4086
104.638	17.1685
105.79	18.9247
106.94	20.1792
109.62	22.6882
111.153	24.4444
113.451	26.7025
116.126	28.2079
118.801	29.7133
120.706	29.7133
122.239	31.4695
124.909	31.9713
127.963	33.2258
130.254	34.2294
131.775	33.7276
135.204	33.7276
137.486	32.9749
139.766	31.9713
142.049	31.4695
145.094	30.9677
147.759	30.7168
153.087	29.7133
159.177	28.7097
164.507	28.2079
170.217	27.4552
175.547	26.7025
179.737	26.7025
183.162	25.9498
186.211	26.2007
190.401	26.2007
194.211	26.2007
197.639	26.2007
199.93	27.2043
