Adsorption isotherm of Methane on Hengevelde-I VI coal (dry)
DOI: 10.1016/s0166-5162(02)00078-2
Article source: Figure 3
Adsorbate Methane: InChIKey VNWKTOKETHGBQD-UHFFFAOYSA-N
Kind: experiment
Temperature: 333 K
Tabular data in the source: 0
pressure (bar)	uptake (cm3(STP)/g)
2.46914	0.931217
4.38957	1.77778
6.58436	2.45503
8.23045	2.92063
12.0713	3.97884
16.1866	4.8254
20.0274	5.50265
23.8683	6.09524
27.1605	6.51852
30.4527	6.9418
33.1962	7.28042
35.9396	7.61905
53.4979	9.14286
69.9588	10.2434
85.048	10.963
99.3141	11.5132
112.483	11.9365
123.731	12.2328
134.979	12.4444
144.582	12.6561
153.086	12.8254
160.768	12.9524
167.353	12.9947
173.663	13.0794
178.326	13.164
182.442	13.164
186.008	13.2063
188.477	13.2487
190.672	13.2487
192.318	13.291
193.416	13.3333
194.513	13.3333
195.61	13.3757
196.433	13.3757
196.982	13.418
197.805	13.4603
