Adsorption isotherm of Carbon Dioxide on Joppe-I IX coal (dry)
DOI: 10.1016/s0166-5162(02)00078-2
Article source: Figure 10
Adsorbate Carbon Dioxide: InChIKey CURLTUGMZLYLDI-UHFFFAOYSA-N
Kind: experiment
Isotherm type: excess
Temperature: 313 K
Tabular data in the source: 0
pressure (bar)	uptake (cm3(STP)/g)
1.11492	3.19002
2.23258	5.80034
3.34614	9.28021
4.46243	12.1804
7.46604	14.2137
11.6023	15.669
14.6087	17.1226
17.9903	18.8667
22.1252	20.6118
25.1302	22.3553
26.6354	22.6473
30.7716	24.1026
33.7834	24.3968
37.5444	25.5617
41.3054	26.7265
45.0664	27.8914
49.5821	28.7675
53.7224	29.3532
57.1068	30.5175
58.9887	30.8101
63.1318	30.8161
67.2708	31.6917
69.5306	31.695
72.9163	32.5694
76.298	34.3135
78.5483	36.3457
80.422	38.3774
81.5396	40.9877
82.6504	45.0473
83.7544	50.5562
83.7695	47.3678
84.8598	55.7752
84.8707	53.4563
85.5817	62.4429
85.5954	59.5443
86.6953	65.9227
87.4322	69.4021
89.3113	70.2744
91.9533	69.1188
94.2186	67.9626
97.6125	67.098
101.011	65.3638
105.16	63.9205
108.556	62.766
110.442	62.189
113.837	61.0345
115.72	61.0373
119.489	60.463
121.373	60.4658
123.631	60.7589
127.399	60.4745
131.167	60.1901
133.427	60.1934
137.193	60.1988
139.454	59.9123
143.221	59.9177
145.856	60.2114
149.622	60.2168
155.647	60.5154
160.167	60.522
164.685	60.8184
167.699	60.8228
171.087	61.1175
173.347	61.1208
176.734	61.7054
180.877	61.7114
187.654	62.3009
191.796	62.5968
196.691	62.8938
