Adsorption isotherm of Carbon Dioxide on Joppe-I IX coal (moist)
DOI: 10.1016/s0166-5162(02)00078-2
Article source: Figure 13
Adsorbate Carbon Dioxide: InChIKey CURLTUGMZLYLDI-UHFFFAOYSA-N
Kind: experiment
Isotherm type: excess
Temperature: 313 K
Tabular data in the source: 0
pressure (bar)	uptake (cm3(STP)/g)
2.00743	2.36271
4.30105	4.94007
6.2158	7.80471
9.26851	10.0942
10.8017	12.6727
13.0939	14.9633
14.6203	16.1081
16.9071	17.2517
21.8555	18.3916
25.6632	19.5331
29.0907	20.6751
32.8984	21.8166
35.9429	22.3857
39.7479	22.9538
43.9331	23.5212
47.7367	23.8025
51.5403	24.0838
53.823	24.3673
57.2451	24.3624
61.4262	24.0696
66.3678	23.7758
70.5461	22.9096
73.5798	21.1848
75.1007	21.1827
77.7527	19.1717
80.0204	16.301
80.7795	16.0132
81.9052	12.8575
82.652	9.98903
84.5395	7.11894
84.9102	5.11124
85.657	2.24279
86.0236	-0.625124
86.7705	-3.49358
87.5173	-6.36203
88.2668	-8.65701
88.6321	-11.8117
90.5264	-13.2481
92.0582	-10.9564
92.8295	-8.66355
93.2261	-5.22326
94.7661	-1.21113
95.5388	1.3684
96.6904	3.66066
97.8488	7.3866
99.0004	9.67885
100.918	13.117
101.686	14.8363
103.597	16.8407
105.504	17.9849
109.696	19.9861
112.36	20.5558
116.547	21.41
121.873	21.9758
127.579	22.5411
132.523	22.8208
138.229	23.3861
141.654	23.9546
145.836	23.9486
149.639	23.9432
151.92	23.9399
154.581	23.9361
156.866	24.5063
160.288	24.5014
162.187	24.2119
164.849	24.2081
169.031	24.2021
173.215	24.4828
175.497	24.4796
179.679	24.4736
183.481	24.4681
188.045	24.7483
192.987	24.4545
196.409	24.4496
198.69	24.4463
