Adsorption isotherm of Carbon Dioxide on Hengevelde-I VI coal (moist)
DOI: 10.1016/s0166-5162(02)00078-2
Article source: Figure 11
Adsorbate Carbon Dioxide: InChIKey CURLTUGMZLYLDI-UHFFFAOYSA-N
Kind: experiment
Isotherm type: excess
Temperature: 313 K
Tabular data in the source: 0
pressure (bar)	uptake (cm3(STP)/g)
1.3108	0.860215
2.83871	1.6129
5.5163	3.62007
8.57484	5.62724
11.2524	7.63441
14.3137	10.1434
18.8933	11.6487
22.7083	12.6523
25.7614	13.6559
29.9573	14.6595
33.7737	15.914
37.2063	16.6667
41.3982	16.9176
44.8295	17.4194
49.4037	17.9211
52.8336	18.172
57.0268	18.6738
61.2173	18.6738
64.6431	18.172
69.5941	17.9211
72.6363	16.9176
76.0594	15.914
78.7151	13.9068
81.3682	11.3978
81.7368	9.13978
82.8674	6.88172
83.2333	4.12186
84.3653	2.1147
85.1053	-1.89964
86.2236	-6.41577
86.2372	-3.90681
86.5936	-8.42294
87.3337	-12.4373
88.0833	-14.6953
89.1961	-20.2151
89.2084	-17.957
90.3226	-23.2258
90.6899	-25.7348
91.4518	-25.7348
93.3716	-22.9749
94.9104	-20.2151
96.0669	-17.7061
97.2248	-14.9462
98.0031	-11.9355
98.7759	-9.92832
100.315	-7.16846
102.236	-4.15771
104.538	-1.14695
107.976	0.609319
111.032	2.1147
113.322	2.86738
116.757	4.12186
119.809	4.87455
124.005	5.87814
127.816	6.12903
131.625	6.12903
136.579	6.37993
140.771	6.63082
146.105	6.88172
149.915	6.88172
153.727	7.38351
157.537	7.38351
161.727	7.38351
163.632	7.38351
167.822	7.38351
169.727	7.38351
174.3	7.63441
178.873	7.8853
183.063	7.8853
184.968	7.8853
186.873	7.8853
189.922	8.1362
193.352	8.3871
194.884	9.89247
195.258	8.63799
198.311	9.64158
