Adsorption isotherm of Methane on Joppe-I VI coal (moist)
DOI: 10.1016/s0166-5162(02)00078-2
Article source: Figure 4
Adsorbate Methane: InChIKey VNWKTOKETHGBQD-UHFFFAOYSA-N
Kind: experiment
Temperature: 313 K
Tabular data in the source: 0
pressure (bar)	uptake (cm3(STP)/g)
0	0
6.22463	2.18637
13.2612	3.78925
20.2977	4.84526
26.793	5.64616
32.4763	6.22845
37.6184	6.73793
42.4899	7.13809
47.3613	7.42887
51.4208	7.64688
54.9391	7.86499
58.4574	8.08309
60.8931	8.11911
64.682	8.33717
66.8471	8.44615
68.7415	8.51872
69.5535	8.55503
71.4479	8.66406
73.613	8.73658
73.8836	8.77299
75.2368	8.84566
77.9432	8.91808
79.0257	8.95434
88.2273	9.35371
97.1583	9.60729
105.007	9.86107
112.314	10.042
118.268	10.2232
124.222	10.3315
129.093	10.44
133.424	10.5121
137.212	10.6208
140.46	10.6567
143.708	10.729
145.873	10.7651
147.226	10.7648
148.309	10.8011
149.391	10.8009
152.097	10.8733
153.451	10.9095
153.992	10.9094
156.428	10.9819
158.051	11.0181
159.134	11.0179
161.028	11.0175
161.84	11.0174
164.276	10.9805
164.817	10.9804
165.359	10.9074
170.23	10.9429
173.748	10.9787
178.078	10.978
181.055	10.9774
184.032	11.0133
186.468	11.0129
188.092	10.9761
189.986	11.0487
191.34	11.0849
192.422	11.0847
194.858	11.0843
195.129	11.0478
196.482	11.084
