Adsorption isotherm of Methane on Hengevelde-I VI coal (dry)
DOI: 10.1016/s0166-5162(02)00078-2
Article source: Figure 3
Adsorbate Methane: InChIKey VNWKTOKETHGBQD-UHFFFAOYSA-N
Kind: experiment
Temperature: 353 K
Tabular data in the source: 0
pressure (bar)	uptake (cm3(STP)/g)
3.56653	1.3545
7.68176	2.49735
10.9739	3.30159
14.5405	4.06349
18.107	4.61376
20.8505	5.12169
23.8683	5.54497
26.8861	5.92593
29.3553	6.26455
31.5501	6.51852
33.7449	6.73016
35.6653	6.9418
37.3114	7.11111
38.6831	7.28042
39.7805	7.36508
40.6036	7.44974
41.4266	7.49206
48.834	8.12698
55.4184	8.67725
62.0027	9.10053
67.7641	9.48148
72.7023	9.77778
77.3663	10.0741
81.2071	10.328
84.4993	10.455
87.2428	10.582
89.9863	10.7513
91.9067	10.7937
93.2785	10.8783
94.6502	11.0053
97.1193	11.0899
98.2167	11.1746
106.996	11.5556
114.129	11.8519
120.439	12.0635
125.926	12.2751
130.59	12.4021
134.705	12.5291
137.449	12.6138
139.643	12.6561
149.794	12.9524
158.848	13.1217
166.804	13.291
173.663	13.418
179.424	13.545
184.088	13.5873
187.929	13.7143
190.947	13.7566
192.867	13.7566
194.787	13.7989
