Adsorption isotherm of Carbon Dioxide on Hengevelde-I VI coal (dry)
DOI: 10.1016/s0166-5162(02)00078-2
Article source: Figure 8
Adsorbate Carbon Dioxide: InChIKey CURLTUGMZLYLDI-UHFFFAOYSA-N
Kind: experiment
Isotherm type: excess
Temperature: 313 K
Tabular data in the source: 0
pressure (bar)	uptake (cm3(STP)/g)
1.11524	1.76067
2.23048	3.52135
2.97398	5.12217
3.71747	6.56286
5.20446	8.32323
5.94796	9.76392
6.69145	11.5249
7.43494	11.8446
10.4089	13.1233
13.3829	14.4021
15.6134	15.6814
18.5874	16.8001
21.1896	18.0791
23.7918	19.198
27.5093	19.9958
30.855	20.6337
34.2007	21.5918
37.9182	22.3896
39.4052	22.7087
43.1227	23.1861
47.2119	23.6633
50.9294	23.9806
52.0446	24.1398
55.7621	24.297
59.8513	24.4539
61.71	24.4524
65.4275	24.1291
68.7732	23.8061
72.4907	23.4829
73.9777	23.1614
78.0669	22.8378
80.6691	22.9959
82.5279	24.756
83.2714	26.1967
83.6431	27.4775
84.0149	29.2388
84.7584	30.8396
85.1301	31.9603
85.5019	33.5614
85.8736	35.3227
86.2454	36.1231
86.6171	38.0445
86.9888	39.3254
87.7323	40.9262
88.4758	41.406
89.5911	40.6044
90.7063	38.2014
91.4498	36.4392
92.5651	35.3173
93.3086	33.7153
94.052	32.7539
94.7955	31.1519
95.9108	30.1901
97.026	28.5878
97.7695	27.6263
98.8848	26.1842
99.6283	24.9024
101.487	23.2995
101.859	22.8188
103.717	21.2159
106.32	19.6124
108.55	18.0092
110.409	16.4063
112.268	15.9243
114.126	15.2823
115.985	14.8004
117.1	14.319
117.844	14.1583
119.331	13.6767
120.446	13.3555
122.305	13.0337
123.792	12.7123
124.164	12.3917
124.907	12.2309
128.625	11.7475
132.342	11.2641
133.457	11.1031
137.546	10.6194
142.007	10.1354
146.468	9.6514
150.186	9.32814
154.275	9.00458
158.736	8.52059
162.825	8.35717
166.171	8.0342
169.517	7.87138
173.234	7.70826
176.952	7.54515
179.554	7.54306
183.271	7.37994
184.758	7.21861
189.591	7.0546
194.052	6.89088
198.141	6.72747
