Adsorption isotherm of Methane on Joppe-I IV coal (dry)
DOI: 10.1016/s0166-5162(02)00078-2
Article source: Figure 6
Adsorbate Methane: InChIKey VNWKTOKETHGBQD-UHFFFAOYSA-N
Kind: experiment
Isotherm type: excess
Temperature: 313 K
Tabular data in the source: 0
pressure (bar)	uptake (cm3(STP)/g)
3.93981	2.86667
8.12585	5.13333
12.0657	6.66667
16.0055	8
20.1915	9.06667
24.1313	9.86667
27.8249	10.5333
31.5185	11
34.4733	11.4
37.6744	11.7333
40.383	12
43.0917	12.2667
45.0616	12.4
47.5239	12.6667
52.6949	13.0667
57.6197	13.4
61.8057	13.6
65.4993	13.8667
71.6553	14.1333
77.3187	14.3333
82.4897	14.6
86.922	14.7333
91.1081	14.8667
94.8016	15.0667
98.0027	15.0667
101.204	15.2
109.083	15.4
116.717	15.5333
123.611	15.6667
129.521	15.7333
134.692	15.8667
139.371	15.8667
143.803	15.8667
147.497	16
150.698	16
153.16	15.9333
155.13	15.9333
157.1	16
159.316	16
162.025	16.0667
163.502	16.0667
165.226	16.0667
166.457	16.1333
167.688	16.2
168.673	16.2
