Adsorption isotherm of Carbon Dioxide on Joppe-I IV coal (dry)
DOI: 10.1016/s0166-5162(02)00078-2
Article source: Figure 6
Adsorbate Carbon Dioxide: InChIKey CURLTUGMZLYLDI-UHFFFAOYSA-N
Kind: experiment
Isotherm type: excess
Temperature: 313 K
Tabular data in the source: 0
pressure (bar)	uptake (cm3(STP)/g)
1.47743	3.33333
2.95486	6.13333
4.92476	8.53333
7.63338	10.3333
10.342	11.8
13.0506	13
15.7592	14.0667
18.4679	14.8667
20.9302	15.4667
23.3926	16.0667
25.855	16.6667
28.0711	17.0667
30.041	17.4
31.7647	17.7333
33.4884	18.0667
35.212	18.3333
37.1819	18.5333
38.1669	18.6667
39.1518	18.9333
40.6293	19.1333
42.8454	19.3333
44.8153	19.6
46.0465	19.7333
48.2627	19.9333
49.4938	20.1333
50.725	20.2
51.4637	20.3333
52.4487	20.4
