Adsorption isotherm of Carbon Dioxide on Joppe-I IV coal (moist)
DOI: 10.1016/s0166-5162(02)00078-2
Article source: Figure 14
Adsorbate Carbon Dioxide: InChIKey CURLTUGMZLYLDI-UHFFFAOYSA-N
Kind: experiment
Isotherm type: absolute
Temperature: 313 K
Tabular data in the source: 0
pressure (bar)	uptake (mmol/g)
0	2.3876
2.27967	2.58915
9.96198	2.72868
17.6029	2.8062
25.2336	2.86822
32.54	2.89922
38.3388	2.94574
43.5099	2.96124
48.3774	2.97674
52.3341	2.99225
56.2805	2.99225
58.4262	3.02326
61.7655	3.02326
63.8905	3.02326
66.3191	3.02326
67.5437	3.03876
69.0616	3.03876
70.8726	3.02326
72.3905	3.02326
74.8191	3.02326
76.6405	3.02326
78.7552	3.00775
79.6659	3.00775
82.9742	2.96124
84.4507	2.89922
86.7966	2.77519
87.6349	2.66667
89.446	2.65116
90.0532	2.65116
91.9366	2.74419
93.5578	2.89922
96.7589	3.14729
100.809	3.30233
105.455	3.44186
111.923	3.5814
119.271	3.67442
127.54	3.78295
135.778	3.84496
144.35	3.95349
152.598	4.03101
160.218	4.07752
166.645	4.15504
172.14	4.20155
177.028	4.24806
180.996	4.27907
184.376	4.34109
186.805	4.34109
189.558	4.37209
191.389	4.3876
193.535	4.4186
194.456	4.43411
195.367	4.43411
196.581	4.43411
197.806	4.44961
198.13	4.48062
198.758	4.51163
199.365	4.51163
