Adsorption isotherm of Methane on Joppe-I IX coal (dry)
DOI: 10.1016/s0166-5162(02)00078-2
Article source: Figure 5
Adsorbate Methane: InChIKey VNWKTOKETHGBQD-UHFFFAOYSA-N
Kind: experiment
Temperature: 333 K
Tabular data in the source: 0
pressure (bar)	uptake (cm3(STP)/g)
0.273945	-0.042216
5.68652	2.99736
8.94719	4.05277
12.21	4.98153
14.9322	5.57256
17.6558	6.07916
20.1068	6.54354
29.6473	7.85224
38.6471	8.82322
46.8323	9.49868
54.2007	10.0053
61.2973	10.4274
78.4975	11.1873
93.7887	11.7361
108.264	12.0317
121.1	12.3694
132.572	12.5805
143.226	12.7071
152.241	12.7493
160.711	12.7916
167.54	12.876
173.549	12.9604
178.193	13.0026
182.018	13.0026
185.023	13.0449
187.483	13.0026
189.122	13.0449
191.034	13.0449
192.672	13.1293
193.492	13.1293
194.858	13.1293
