Adsorption isotherm of Carbon Dioxide on Joppe-I IV coal (dry)
DOI: 10.1016/s0166-5162(02)00078-2
Article source: Figure 7
Adsorbate Carbon Dioxide: InChIKey CURLTUGMZLYLDI-UHFFFAOYSA-N
Kind: experiment
Isotherm type: excess
Temperature: 353 K
Tabular data in the source: 0
pressure (bar)	uptake (cm3(STP)/g)
0.000736	-0.053763
2.14759	3.22581
4.85418	5.64516
7.56886	7.47312
10.8359	8.97849
13.8334	10.1613
17.3803	11.2366
20.3837	11.9892
23.3871	12.7419
26.6667	13.3333
29.1265	13.7634
31.5864	14.1935
34.047	14.5699
36.5091	14.8387
38.4224	15.1613
39.5161	15.3226
40.883	15.5376
42.2507	15.6989
43.8916	15.914
45.8065	16.129
47.7228	16.2366
49.9109	16.5054
50.4581	16.5591
51.2785	16.6667
53.4659	16.9892
54.5611	17.043
55.3815	17.1505
