Adsorption isotherm of Methane on Hengevelde-I VI coal (moist)
DOI: 10.1016/s0166-5162(02)00078-2
Article source: Figure 3
Adsorbate Methane: InChIKey VNWKTOKETHGBQD-UHFFFAOYSA-N
Kind: experiment
Temperature: 333 K
Tabular data in the source: 0
pressure (bar)	uptake (cm3(STP)/g)
0	0
23.7769	3.42857
45.9419	4.99471
66.1977	6.05291
83.9951	6.68783
100.972	7.2381
114.938	7.61905
128.906	7.87302
140.682	8.16931
151.09	8.33862
160.13	8.42328
167.798	8.59259
174.646	8.67725
180.124	8.7619
184.232	8.84656
187.52	8.84656
190.532	8.93122
192.448	9.01587
193.27	9.0582
194.639	9.10053
195.734	9.14286
197.104	9.14286
197.921	9.39683
197.923	9.31217
