Adsorption isotherm of Methane on Hengevelde-I VI coal (moist)
DOI: 10.1016/s0166-5162(02)00078-2
Article source: Figure 3
Adsorbate Methane: InChIKey VNWKTOKETHGBQD-UHFFFAOYSA-N
Kind: experiment
Temperature: 353 K
Tabular data in the source: 0
pressure (bar)	uptake (cm3(STP)/g)
8.20396	0.888889
15.5882	1.65079
22.4281	2.20106
28.446	2.75132
34.1929	3.13228
39.3919	3.51323
44.0444	3.80952
48.1489	4.10582
51.9801	4.35979
54.9909	4.5291
57.7278	4.69841
60.4646	4.86772
62.3802	4.99471
64.5698	5.12169
65.665	5.16402
67.8539	5.33333
69.7695	5.46032
71.1387	5.50265
72.2367	5.37566
80.9944	5.92593
88.6577	6.39153
95.5012	6.73016
100.702	6.98413
105.354	7.32275
109.185	7.57672
112.195	7.78836
114.658	7.95767
116.301	8.04233
122.049	8.33862
126.702	8.59259
130.807	8.88889
133.544	9.01587
136.555	9.18519
139.018	9.3545
140.386	9.43915
142.028	9.56614
142.85	9.56614
144.492	9.65079
145.587	9.73545
146.134	9.77778
146.956	9.77778
