Adsorption isotherm of Carbon Dioxide on Joppe-I IX coal (moist)
DOI: 10.1016/s0166-5162(02)00078-2
Article source: Figure 14
Adsorbate Carbon Dioxide: InChIKey CURLTUGMZLYLDI-UHFFFAOYSA-N
Kind: experiment
Isotherm type: absolute
Temperature: 313 K
Tabular data in the source: 0
pressure (bar)	uptake (mmol/g)
0	2.3876
12.149	2.82171
34.758	3.03876
52.1132	3.11628
65.1875	3.14729
74.2739	3.11628
80.2524	2.97674
84.2853	2.65116
86.6143	2.04651
88.7742	1.64341
90.8682	1.5969
92.855	1.84496
95.5936	2.31008
97.9977	2.72868
100.968	3.08527
105.414	3.37984
109.212	3.6124
113.607	3.82946
118.577	4
123.831	4.13953
129.075	4.26357
134.025	4.4031
139.551	4.49612
143.549	4.57364
147.851	4.65116
150.917	4.69767
154.298	4.75969
156.14	4.7907
157.375	4.82171
159.845	4.88372
162.315	4.94574
165.371	4.97674
167.224	5.02326
177.952	5.17829
187.163	5.33333
195.756	5.47287
202.193	5.56589
