Adsorption isotherm of Carbon Dioxide on Joppe-I IV coal (moist)
DOI: 10.1016/s0166-5162(02)00078-2
Article source: Figure 12
Adsorbate Carbon Dioxide: InChIKey CURLTUGMZLYLDI-UHFFFAOYSA-N
Kind: experiment
Isotherm type: excess
Temperature: 353 K
Tabular data in the source: 0
pressure (bar)	uptake (cm3(STP)/g)
2.16683	0.328017
6.33591	1.34206
9.7487	1.85242
13.9178	2.86646
16.9538	2.87408
21.1283	2.88455
26.8195	3.14973
32.512	3.16401
37.8264	2.92645
43.8998	2.69079
49.9745	2.20424
55.293	1.214
59.8511	0.472745
64.0283	-0.018567
67.8301	-1.26351
72.0114	-2.5075
76.5763	-4.50321
80.7617	-6.49988
83.8032	-7.49583
86.4624	-7.99095
89.4971	-7.73244
91.3905	-6.97501
93.2798	-5.46489
95.5446	-3.20114
96.6695	-0.68936
98.5534	1.82433
99.6797	4.08522
101.188	5.84527
102.694	8.10712
104.2	10.369
106.088	12.13
107.217	13.8891
109.103	15.901
110.232	17.6601
112.116	20.1738
113.626	21.6829
115.513	23.6948
116.262	25.453
117.399	25.7067
119.286	27.7186
122.686	30.487
127.228	32.7565
131.395	34.2723
138.213	36.5475
142.004	37.3097
147.315	37.8248
153.003	38.5918
159.453	38.8588
167.045	38.627
172.74	38.1395
177.673	38.1519
184.887	37.6682
188.305	37.175
192.103	36.6827
194.758	36.9403
196.655	36.945
198.173	36.9488
