Adsorption isotherm of Methane on Joppe-I VI coal (moist)
DOI: 10.1016/s0166-5162(02)00078-2
Article source: Figure 4
Adsorbate Methane: InChIKey VNWKTOKETHGBQD-UHFFFAOYSA-N
Kind: experiment
Temperature: 353 K
Tabular data in the source: 0
pressure (bar)	uptake (cm3(STP)/g)
0	0
7.84844	1.4569
15.4263	2.47635
23.0041	3.27706
29.2287	3.89571
35.4533	4.36854
40.5954	4.76864
45.4668	5.13234
50.0677	5.38671
53.8566	5.60477
57.3748	5.82287
60.6225	6.00457
63.0582	6.11351
65.4939	6.22244
67.659	6.36787
69.5535	6.44045
70.636	6.51317
71.9892	6.58584
72.5304	6.65865
73.8836	6.65841
74.1543	6.73127
74.9662	6.76758
76.0487	6.8403
77.4019	6.87652
77.9432	6.91287
79.0257	6.94914
79.2963	6.94909
93.9107	7.67559
106.36	8.29311
116.644	8.72874
125.575	9.09169
132.07	9.30926
137.754	9.49051
142.084	9.67202
145.602	9.81721
148.579	9.88958
151.286	10.0349
153.18	10.071
154.533	10.1437
156.157	10.2163
158.051	10.2524
159.675	10.2886
161.299	10.3977
163.194	10.4703
163.735	10.5066
