Adsorption isotherm of Methane on Joppe-I IV coal (dry)
DOI: 10.1016/s0166-5162(02)00078-2
Article source: Figure 7
Adsorbate Methane: InChIKey VNWKTOKETHGBQD-UHFFFAOYSA-N
Kind: experiment
Isotherm type: excess
Temperature: 353 K
Tabular data in the source: 0
pressure (bar)	uptake (cm3(STP)/g)
0.000736	-0.053763
8.99101	3.65591
17.7294	5.75269
27.0253	7.15054
35.5045	8.17204
43.7119	9.03226
50.5538	9.56989
57.1218	10.1075
63.1441	10.4839
71.0826	10.9677
77.6528	11.3441
83.949	11.7204
89.9728	11.9892
96.8184	12.2581
103.116	12.5269
112.153	12.8495
119.546	13.1183
126.94	13.3871
132.692	13.4946
138.17	13.6022
142.551	13.7634
146.66	13.8172
151.042	13.9247
155.426	13.9247
158.987	13.9247
162.274	13.9785
164.739	14.0323
167.206	13.9785
169.124	13.9785
170.493	14.0323
171.589	14.0323
172.684	14.0323
173.78	14.0323
174.876	14.0323
