Adsorption isotherm of Methane on Joppe-I IX coal (moist)
DOI: 10.1016/s0166-5162(02)00078-2
Article source: Figure 5
Adsorbate Methane: InChIKey VNWKTOKETHGBQD-UHFFFAOYSA-N
Kind: experiment
Temperature: 313 K
Tabular data in the source: 0
pressure (bar)	uptake (cm3(STP)/g)
0.273945	-0.042216
7.0548	2.87071
10.588	3.96834
13.0362	4.60158
16.5766	5.27704
19.5748	5.69921
22.3006	6.07916
25.0278	6.37467
44.4043	7.68338
62.972	8.35884
80.1794	8.69657
95.2038	8.86544
108.864	8.90765
121.706	8.90765
132.909	8.86544
143.84	8.73879
152.857	8.69657
161.328	8.65435
168.159	8.61214
174.17	8.61214
179.362	8.56992
183.46	8.56992
186.739	8.56992
189.744	8.56992
192.202	8.65435
194.66	8.73879
195.75	8.90765
196.294	9.0343
196.839	9.11873
197.38	9.41425
197.382	9.2876
