Adsorption isotherm of Carbon Dioxide on Joppe-I IV coal (moist)
DOI: 10.1016/s0166-5162(02)00078-2
Article source: Figure 12
Adsorbate Carbon Dioxide: InChIKey CURLTUGMZLYLDI-UHFFFAOYSA-N
Kind: experiment
Isotherm type: excess
Temperature: 313 K
Tabular data in the source: 0
pressure (bar)	uptake (cm3(STP)/g)
1.39831	2.08236
2.90135	4.84599
4.02625	7.35777
7.43088	9.37348
9.69701	11.3863
11.5891	12.3947
15.3787	13.4078
19.1669	14.6717
22.9551	15.9357
26.7433	17.1997
28.6367	17.9572
34.7047	18.7251
38.4997	18.7346
40.0177	18.7384
43.8086	19.5006
45.3253	19.7553
49.8766	20.2685
54.8101	20.2809
57.4666	20.2876
60.1217	20.5451
62.7783	20.5518
66.1938	20.5603
67.7104	20.815
70.3696	20.3199
72.6494	19.8239
74.1687	19.5768
74.9318	18.826
76.8293	18.8308
77.9706	18.3318
79.1118	17.8329
80.253	17.334
83.2999	15.3344
84.4561	12.0757
85.5987	11.3259
87.133	8.31897
89.7936	7.57296
90.9239	9.08117
92.0502	11.3421
93.93	14.6084
95.8166	16.6203
97.3278	17.8786
100.738	18.8907
105.669	19.4049
109.464	19.4144
116.297	18.9298
118.576	18.6846
122.75	18.6951
126.545	18.7046
130.721	18.4642
134.516	18.4737
139.07	18.4851
143.245	18.4956
147.038	18.756
151.595	18.2657
155.011	18.2742
158.047	18.2818
162.223	18.0414
164.501	17.7962
169.814	17.8096
175.127	17.8229
179.3	18.0843
182.335	18.3428
185.372	18.0995
187.27	18.1043
189.928	17.86
191.826	17.6139
193.343	17.8686
195.241	17.8734
196.759	17.8772
