Adsorption isotherm of Methane on Joppe-I VI coal (dry)
DOI: 10.1016/s0166-5162(02)00078-2
Article source: Figure 4
Adsorbate Methane: InChIKey VNWKTOKETHGBQD-UHFFFAOYSA-N
Kind: experiment
Temperature: 313 K
Tabular data in the source: 0
pressure (bar)	uptake (cm3(STP)/g)
0	0
3.51827	2.95248
7.57781	4.92049
11.6373	6.30517
15.9675	7.36167
19.7564	8.12661
24.0866	8.74561
41.6779	10.5289
59.2693	11.4371
74.6955	11.9083
89.3099	12.1243
102.3	12.2314
114.208	12.2656
125.575	12.2271
135.589	12.2253
144.79	12.2236
152.639	12.1128
159.946	11.9656
166.441	11.9645
171.854	11.8905
176.184	11.8533
180.514	11.7796
183.491	11.7791
186.198	11.7421
188.363	11.7417
189.175	11.7051
190.528	11.7049
192.422	11.668
192.693	11.5951
194.046	11.5219
194.587	11.5218
195.129	11.5217
