Adsorption isotherm of Methane on Joppe-I IX coal (dry)
DOI: 10.1016/s0166-5162(02)00078-2
Article source: Figure 5
Adsorbate Methane: InChIKey VNWKTOKETHGBQD-UHFFFAOYSA-N
Kind: experiment
Temperature: 353 K
Tabular data in the source: 0
pressure (bar)	uptake (cm3(STP)/g)
0.273945	-0.042216
3.79558	1.73087
8.1441	3.08179
11.9519	4.09499
15.7641	4.85488
19.5791	5.44591
22.8492	5.95251
43.8492	8.18997
63.7715	9.5409
81.7891	10.4274
98.7175	11.1029
114.009	11.6095
127.391	11.9894
139.68	12.3272
150.331	12.6227
160.164	12.7916
167.811	12.9604
174.912	13.1293
180.102	13.2137
184.746	13.2559
188.297	13.3404
191.302	13.3404
192.668	13.3826
194.579	13.4248
195.126	13.4248
196.491	13.5092
197.037	13.5092
197.583	13.5515
