Adsorption isotherm of Methane on Hengevelde-I VI coal (dry)
DOI: 10.1016/s0166-5162(02)00078-2
Article source: Figure 3
Adsorbate Methane: InChIKey VNWKTOKETHGBQD-UHFFFAOYSA-N
Kind: experiment
Temperature: 313 K
Tabular data in the source: 0
pressure (bar)	uptake (cm3(STP)/g)
0	0.042328
2.19479	1.0582
6.31001	2.70899
10.4252	3.97884
14.5405	5.07937
18.3813	5.8836
22.2222	6.51852
25.7888	7.06878
29.0809	7.53439
31.8244	7.95767
34.8422	8.33862
37.5857	8.59259
40.3292	8.88889
42.524	9.0582
44.4444	9.22751
46.0905	9.43915
46.6392	9.43915
48.2853	9.65079
49.9314	9.77778
51.3032	9.86243
52.6749	9.90476
58.9849	10.2857
64.7462	10.582
69.9588	10.836
74.0741	11.0053
78.1893	11.1746
81.4815	11.3862
85.048	11.5556
93.8272	11.6825
101.509	11.8095
108.642	11.9365
114.678	12.0212
120.713	12.1058
130.041	12.1905
133.333	12.2751
136.9	12.2751
139.643	12.3175
140.466	12.3175
142.936	12.2751
144.856	12.2751
146.228	12.2751
147.599	12.3175
149.246	12.3175
150.892	12.3175
158.025	12.3175
164.883	12.2751
170.645	12.2328
175.857	12.2328
180.521	12.2328
184.088	12.1905
187.38	12.1905
187.929	12.1905
189.849	12.1905
190.672	12.1481
192.044	12.1481
193.416	12.1481
194.239	12.1481
195.61	12.1481
197.531	12.1905
198.08	12.1481
