Adsorption isotherm of Carbon Dioxide on Joppe-I VI coal (dry)
DOI: 10.1016/s0166-5162(02)00078-2
Article source: Figure 9
Adsorbate Carbon Dioxide: InChIKey CURLTUGMZLYLDI-UHFFFAOYSA-N
Kind: experiment
Isotherm type: excess
Temperature: 353 K
Tabular data in the source: 0
pressure (bar)	uptake (cm3(STP)/g)
0.36573	0.176056
2.92065	1.76056
3.2786	2.46479
4.37061	3.34507
5.46909	3.78521
6.92553	4.92958
7.65569	5.36972
9.11602	6.25
9.47267	7.04225
11.3026	7.83451
12.3972	8.53873
13.855	9.59507
14.5838	10.1232
16.406	11.4437
18.5991	12.588
20.0672	12.9401
24.111	13.4683
25.5791	13.8204
29.619	14.6127
30.7213	14.7887
34.7625	15.493
35.8649	15.669
39.5404	16.1972
41.7477	16.3732
45.4258	16.7254
47.6318	16.9894
52.4149	17.3415
55.3589	17.5176
57.5662	17.6937
63.4555	17.9577
65.2958	18.0458
70.0814	18.2218
73.3886	18.75
77.8007	19.2782
78.9018	19.5423
82.9417	20.3345
85.516	20.5986
87.3525	20.9507
90.2978	21.0387
92.8773	20.9507
95.4569	20.8627
99.1479	20.3345
101.731	19.9824
106.892	19.7183
112.789	19.4542
116.104	19.4542
119.79	19.2782
122.373	18.9261
125.694	18.4859
129.388	17.7817
132.71	17.3415
138.253	16.1092
142.314	15.4049
147.11	14.8768
149.695	14.4366
155.224	14.1725
159.287	13.3803
163.349	12.6761
166.304	12.1479
169.989	11.9718
172.573	11.6197
176.26	11.3556
180.314	11.1796
185.476	10.8275
190.271	10.3873
194.696	10.0352
198.013	9.85915
