Adsorption isotherm of Methane on Joppe-I IX coal (dry)
DOI: 10.1016/s0166-5162(02)00078-2
Article source: Figure 5
Adsorbate Methane: InChIKey VNWKTOKETHGBQD-UHFFFAOYSA-N
Kind: experiment
Temperature: 313 K
Tabular data in the source: 0
pressure (bar)	uptake (cm3(STP)/g)
0.273945	-0.042216
2.97158	1.98417
6.49754	3.50396
9.75532	4.72823
13.2914	5.65699
16.2846	6.37467
19.5517	7.05013
22.5493	7.51451
25.0018	7.89446
28.0015	8.23219
35.9106	9.07652
44.0972	9.66755
51.467	10.0897
57.7454	10.4274
63.7513	10.723
68.9397	10.8918
73.8548	11.0607
83.688	11.2296
92.4283	11.3984
100.623	11.5251
107.452	11.6095
113.735	11.6939
118.927	11.6095
123.843	11.7361
127.943	11.6517
131.768	11.6939
134.772	11.7361
138.324	11.7361
139.964	11.7361
141.875	11.7784
142.968	11.7784
144.335	11.7361
145.701	11.7361
145.974	11.7784
154.718	11.7361
162.369	11.6517
169.201	11.6095
174.939	11.5673
179.859	11.4406
183.686	11.3562
186.692	11.314
189.426	11.2296
191.338	11.2718
194.07	11.2718
194.892	11.1451
197.624	11.1451
