Adsorption isotherm of Nitrogen on ZIF-8
DOI: 10.1080/00958972.2013.797966
Adsorbate Nitrogen: InChIKey IJGRMHOSHXDMSA-UHFFFAOYSA-N
Temperature: 77 K
Tabular data in the source: 0
pressure (bar)	uptake (cm3(STP)/g)
0.00205534	1.96071
0.0065614	132.749
0.0065614	217.914
0.0178266	303.079
0.0426099	350.73
0.119213	353.772
0.281431	356.813
0.497723	356.813
0.720773	356.813
0.905522	357.827
0.991137	357.827
