Adsorption isotherm of Nitrogen on ZIF-8
DOI: 10.1080/00958972.2013.797966
Adsorbate Nitrogen: InChIKey IJGRMHOSHXDMSA-UHFFFAOYSA-N
Temperature: 77 K
Tabular data in the source: 0
pressure (bar)	uptake (cm3(STP)/g)
0.00881443	2.97458
0.00881443	165.193
0.0133205	207.775
0.0200796	282.801
0.0358508	346.675
0.0876706	348.702
0.16878	349.716
0.247636	350.73
0.342263	351.744
0.448156	351.744
0.558554	352.758
0.653182	354.786
0.783858	353.772
0.894256	354.786
0.966353	356.813
