Adsorption isotherm of Nitrogen on ZIF-8
DOI: 10.1080/00958972.2013.797966
Adsorbate Nitrogen: InChIKey IJGRMHOSHXDMSA-UHFFFAOYSA-N
Temperature: 77 K
Tabular data in the source: 0
pressure (bar)	uptake (cm3(STP)/g)
0.00205534	0.946849
0.00205534	160.124
0.00881443	246.302
0.0178266	303.079
0.0358508	318.287
0.0989358	325.384
0.186804	326.397
0.308468	328.425
0.454915	328.425
0.583338	329.439
0.650929	329.439
0.745556	330.453
0.864967	331.467
0.943823	334.508
0.979872	336.536
1.0024	342.619
