Adsorption isotherm of Hydrogen on Mg2(dobdc)
DOI: 10.1016/j.micromeso.2012.04.042
Adsorbate Hydrogen: InChIKey UFHFLCQGNIYNRP-UHFFFAOYSA-N
Temperature: 313 K
Tabular data in the source: 0
pressure (bar)	uptake (mmol/g)
2.53759	0.27594
3.47744	0.314436
4.9812	0.39203
5.92105	0.430526
7.5188	0.54797
8.36466	0.586617
9.02256	0.625564
9.96241	0.62406
10.7143	0.702857
12.5	0.78
13.4398	0.818496
15.1316	0.895789
16.0714	0.934286
17.5752	1.01188
18.515	1.05038
19.4549	1.08887
20.1128	1.12782
21.0526	1.16632
22.6504	1.24376
23.5902	1.28226
25.188	1.3597
26.1278	1.3582
27.7256	1.43564
28.5714	1.51429
30.1692	1.51173
31.109	1.55023
32.8008	1.62752
33.7406	1.66602
35.2444	1.70361
36.1842	1.74211
37.406	1.82015
38.3459	1.81865
40.3195	1.89549
41.2594	1.93398
42.7632	2.01158
43.703	2.01008
45.3947	2.08737
46.3346	2.12586
46.8985	2.24496
47.8383	2.24346
48.7782	2.20195
