Adsorption isotherm of Methane on Mg2(dobdc)
DOI: 10.1016/j.micromeso.2012.04.042
Adsorbate Methane: InChIKey VNWKTOKETHGBQD-UHFFFAOYSA-N
Temperature: 313 K
Tabular data in the source: 0
pressure (bar)	uptake (mmol/g)
0.18797	0.319699
0.37594	0.639398
0.657895	0.918947
0.93985	1.1985
4.88722	3.35218
10.3383	5.50346
16.3534	6.93383
22.5564	7.92391
28.7594	8.51398
35.2444	9.06361
41.7293	9.41323
48.1203	9.76301
