Adsorption isotherm of Nitrogen on MOF-177
DOI: 10.1016/j.micromeso.2012.04.042
Adsorbate Nitrogen: InChIKey IJGRMHOSHXDMSA-UHFFFAOYSA-N
Temperature: 77 K
Tabular data in the source: 0
pressure (bar)	uptake (mmol/g)
0.119693	19.4342
0.232175	19.6454
0.357156	19.8551
0.425004	19.9593
0.566057	20.167
0.64641	20.2133
0.764263	20.2549
0.86604	20.3548
0.967822	20.3984
