Adsorption isotherm of Nitrogen on MOF-177
DOI: 10.1016/j.micromeso.2012.04.042
Adsorbate Nitrogen: InChIKey IJGRMHOSHXDMSA-UHFFFAOYSA-N
Temperature: 77 K
Tabular data in the source: 0
pressure (bar)	uptake (mmol/g)
0.187546	19.482
0.373237	19.7404
0.432162	19.7894
0.455366	19.8992
0.503581	19.8931
0.544653	19.888
0.589291	19.9387
0.635715	19.9893
0.724997	20.0344
0.746421	20.0881
0.767855	20.0291
0.814284	20.0233
0.85535	20.0744
0.891065	20.07
0.92677	20.1782
0.991016	20.6208
