Adsorption isotherm of Carbon Dioxide on Mg2(dobdc)
DOI: 10.1016/j.micromeso.2012.04.042
Adsorbate Carbon Dioxide: InChIKey CURLTUGMZLYLDI-UHFFFAOYSA-N
Temperature: 313 K
Tabular data in the source: 0
pressure (bar)	uptake (mmol/g)
0.093985	0.093985
0.18797	5.5997
0.37594	6.9194
0.75188	7.5988
0.93985	8.0785
2.34962	9.15624
4.51128	10.8728
7.23684	12.2284
10.1504	13.1038
13.0639	13.6191
15.9774	14.2144
19.1729	14.6093
22.2744	14.6044
25.3759	14.8394
28.7594	14.794
31.9549	14.9889
35.2444	14.9836
