Adsorption isotherm of Methane on Mg2(dobdc)
DOI: 10.1016/j.micromeso.2012.04.042
Adsorbate Methane: InChIKey VNWKTOKETHGBQD-UHFFFAOYSA-N
Temperature: 313 K
Tabular data in the source: 0
pressure (bar)	uptake (mmol/g)
1.69173	1.27729
2.63158	2.07579
3.94737	2.63368
5.26316	3.35158
6.76692	3.86917
8.27068	4.46677
9.58647	4.90466
11.0902	5.30226
12.9699	5.73925
14.2857	6.01714
15.6955	6.21489
17.2932	6.49233
18.797	6.84992
21.8985	7.08496
23.3083	7.32271
24.812	7.4803
28.0075	7.79519
30.9211	8.03053
32.5188	8.18797
33.8346	8.26586
36.8421	8.50105
40.0376	8.65594
43.0451	8.81113
45.8647	8.96662
47.3684	9.04421
49.0602	9.1215
