Adsorption isotherm of Methane on Mg2(dobdc)
DOI: 10.1016/j.micromeso.2012.04.042
Adsorbate Methane: InChIKey VNWKTOKETHGBQD-UHFFFAOYSA-N
Temperature: 313 K
Tabular data in the source: 0
pressure (bar)	uptake (mmol/g)
0.0142	0.0174
0.021	0.0255
0.028	0.034
0.0371	0.045
0.0551	0.0668
0.0741	0.0897
0.0909	0.1095
0.1106	0.1332
0.147	0.1766
0.1843	0.221
0.2211	0.2645
0.2579	0.3078
0.2948	0.3509
0.3318	0.3941
0.3688	0.4371
0.4056	0.4803
0.4427	0.5227
0.4783	0.5632
0.5152	0.6052
0.5519	0.647
0.5888	0.6888
0.6253	0.7307
0.6624	0.7715
0.6988	0.812
0.7358	0.8529
0.7725	0.8934
0.8091	0.9341
0.846	0.9743
0.8827	1.0138
0.9195	1.0536
0.9563	1.093
0.9928	1.1336
4.8917	3.323
10.3978	5.5117
16.3414	6.9489
22.5464	7.9127
28.8918	8.579
35.322	9.0622
41.7556	9.4718
48.2545	9.7815
