Adsorption isotherm of Carbon Dioxide on Mg2(dobdc)
DOI: 10.1016/j.micromeso.2012.04.042
Adsorbate Carbon Dioxide: InChIKey CURLTUGMZLYLDI-UHFFFAOYSA-N
Temperature: 313 K
Tabular data in the source: 0
pressure (bar)	uptake (mmol/g)
1.31579	8.31789
1.69173	8.63729
1.97368	8.95684
3.00752	9.59519
3.57143	9.91429
4.04135	10.2735
4.60526	10.7926
5.35714	10.9514
5.92105	11.2305
6.67293	11.5093
7.33083	11.7483
8.08271	11.9871
8.83459	12.2259
9.68045	12.4245
10.5263	12.6232
11.3722	12.8218
12.1241	12.9806
13.0639	13.1391
13.9098	13.2977
14.7556	13.4164
15.6955	13.5349
16.5414	13.6535
17.4812	13.772
18.3271	13.8507
19.1729	13.9693
20.1128	14.0478
20.9586	14.1265
21.8985	14.205
22.4624	14.2441
23.4023	14.3226
24.2481	14.3612
25.188	14.4397
25.6579	14.4789
26.5977	14.5174
27.4436	14.5961
29.3233	14.7131
30.2632	14.7116
31.203	14.7901
32.3308	14.8283
33.2707	14.8668
34.2105	14.9053
35.9962	14.9824
36.9361	15.0209
37.8759	15.0594
38.7218	15.098
39.6617	15.0965
40.6015	15.135
41.5414	15.1735
42.4812	15.172
43.4211	15.2105
44.3609	15.209
45.2068	15.2477
46.1466	15.2862
47.0865	15.2847
48.0263	15.3232
48.9662	15.3217
49.906	15.3602
