Adsorption isotherm of Hydrogen on Mg2(dobdc)
DOI: 10.1016/j.micromeso.2012.04.042
Adsorbate Hydrogen: InChIKey UFHFLCQGNIYNRP-UHFFFAOYSA-N
Temperature: 313 K
Tabular data in the source: 0
pressure (bar)	uptake (mmol/g)
9.3985	0.624962
18.797	1.08992
28.3835	1.55459
37.8759	1.8194
47.1805	2.24451
