Adsorption isotherm of Methane on Mg2(dobdc)
DOI: 10.1016/j.micromeso.2012.04.042
Adsorbate Methane: InChIKey VNWKTOKETHGBQD-UHFFFAOYSA-N
Temperature: 313 K
Tabular data in the source: 0
pressure (bar)	uptake (mmol/g)
0.213333	0.340606
0.533333	0.737879
0.746667	1.07848
0.96	1.19182
4.8	3.34545
10.4533	5.55333
16.4267	6.9653
22.5067	7.92258
28.9067	8.5953
35.4133	9.04061
