Adsorption isotherm of Carbon Dioxide on Mg2(dobdc)
DOI: 10.1016/j.micromeso.2012.04.042
Adsorbate Carbon Dioxide: InChIKey CURLTUGMZLYLDI-UHFFFAOYSA-N
Temperature: 313 K
Tabular data in the source: 0
pressure (bar)	uptake (mmol/g)
0	1.53409
0.106667	5.39758
0.213333	3.23833
0.426667	6.98803
0.64	7.55591
0.853333	7.95333
1.06667	8.12348
2.34667	9.25803
4.48	10.9595
7.25333	12.3192
10.0267	13.1676
13.12	13.7314
16	14.2386
19.2	14.575
22.4	14.6273
25.3867	14.9071
28.6933	14.7888
32	15.125
35.4133	15.0065
