Adsorption isotherm of Carbon Dioxide on Mg2(dobdc)
DOI: 10.1016/j.micromeso.2012.04.042
Adsorbate Carbon Dioxide: InChIKey CURLTUGMZLYLDI-UHFFFAOYSA-N
Temperature: 313 K
Tabular data in the source: 0
pressure (bar)	uptake (mmol/g)
0.000489	0.08847
0.00223	0.37139
0.00457	0.70464
0.00911	1.27589
0.01127	1.51993
0.01335	1.73344
0.01838	2.18276
0.02857	2.89747
0.03608	3.30492
0.05509	4.05642
0.06996	4.47072
0.08926	4.87361
0.11189	5.22471
0.15067	5.65046
0.18915	5.95081
0.22833	6.18138
0.26812	6.37079
0.30694	6.52658
0.34563	6.66045
0.38012	6.76798
0.41452	6.86558
0.44905	6.95605
0.47911	7.03013
0.51596	7.11556
0.55246	7.19493
0.58942	7.271
0.62564	7.34277
0.66295	7.41411
0.70041	7.48288
0.73641	7.54607
0.77368	7.61024
0.81001	7.67057
0.84677	7.73013
0.88381	7.78898
0.92018	7.8457
0.95642	7.90289
0.9946	7.95821
1.03031	8.00988
