Adsorption isotherm of Methane on Mg2(dobdc)
DOI: 10.1016/j.micromeso.2012.04.042
Adsorbate Methane: InChIKey VNWKTOKETHGBQD-UHFFFAOYSA-N
Temperature: 313 K
Tabular data in the source: 0
pressure (bar)	uptake (mmol/g)
0.0142	0.0171
0.021	0.0251
0.028	0.0334
0.0371	0.0442
0.0551	0.0656
0.0741	0.088
0.0909	0.1075
0.1106	0.1308
0.147	0.1734
0.1843	0.2169
0.2211	0.2596
0.2579	0.3021
0.2948	0.3444
0.3318	0.3868
0.3688	0.429
0.4056	0.4714
0.4427	0.5129
0.4783	0.5527
0.5152	0.5939
0.5519	0.6349
0.5888	0.6759
0.6253	0.7169
0.6624	0.7569
0.6988	0.7966
0.7358	0.8367
0.7725	0.8763
0.8091	0.9163
0.846	0.9556
0.8827	0.9944
0.9195	1.0333
0.9563	1.072
0.9928	1.1117
4.8917	3.2146
10.3978	5.2795
16.3414	6.5808
22.5464	7.4002
28.8918	7.9164
35.322	8.2449
41.7556	8.4971
48.2545	8.6452
