Adsorption isotherm of Carbon Dioxide on Mg2(dobdc)
DOI: 10.1016/j.micromeso.2012.04.042
Adsorbate Carbon Dioxide: InChIKey CURLTUGMZLYLDI-UHFFFAOYSA-N
Temperature: 313 K
Tabular data in the source: 0
pressure (bar)	uptake (mmol/g)
0.000489	0.0885
0.00223	0.3715
0.00457	0.7048
0.00911	1.2761
0.01127	1.5202
0.01335	1.7338
0.01838	2.1832
0.02857	2.8981
0.03608	3.3057
0.05509	4.0576
0.06996	4.4723
0.08926	4.8756
0.11189	5.2272
0.15067	5.6538
0.18915	5.955
0.22833	6.1864
0.26812	6.3767
0.30694	6.5334
0.34563	6.6681
0.38012	6.7764
0.41452	6.8747
0.44905	6.966
0.47911	7.0407
0.51596	7.1269
0.55246	7.2071
0.58942	7.284
0.62564	7.3566
0.66295	7.4287
0.70041	7.4983
0.73641	7.5623
0.77368	7.6273
0.81001	7.6885
0.84677	7.7488
0.88381	7.8085
0.92018	7.866
0.95642	7.924
0.9946	7.9802
1.03031	8.0327
