Adsorption isotherm of Hydrogen on Li-doped Pc-PBBA COF
DOI: 10.1021/Jp305949q
Adsorbate Hydrogen: InChIKey UFHFLCQGNIYNRP-UHFFFAOYSA-N
Temperature: 350 K
Tabular data in the source: 0
pressure (bar)	uptake (Fractional Coverage)
1.23058	0.00885091
10.3835	0.106387
20.5375	0.19291
30.2625	0.258983
40.2735	0.318763
49.8554	0.365958
60.1525	0.411579
70.0205	0.449335
80.0315	0.483944
90.1855	0.515408
100.196	0.537432
