Adsorption isotherm of Hydrogen on Li-doped Pc-PBBA COF
DOI: 10.1021/Jp305949q
Adsorbate Hydrogen: InChIKey UFHFLCQGNIYNRP-UHFFFAOYSA-N
Temperature: 150 K
Tabular data in the source: 0
pressure (bar)	uptake (Fractional Coverage)
1.23058	0.713625
10.3835	0.959038
20.2515	0.979489
30.2625	0.985782
40.4165	0.985782
50.4275	0.990501
60.2955	0.993647
70.3065	0.995221
80.0315	0.995221
90.3285	0.995221
100.339	0.998367
