Adsorption isotherm of Hydrogen on Li-doped Pc-PBBA COF
DOI: 10.1021/Jp305949q
Adsorbate Hydrogen: InChIKey UFHFLCQGNIYNRP-UHFFFAOYSA-N
Temperature: 300 K
Tabular data in the source: 0
pressure (bar)	uptake (Fractional Coverage)
1.08756	0.0308751
10.0975	0.214935
20.2515	0.34708
30.1195	0.444615
40.1305	0.516981
50.2845	0.572041
60.4385	0.620809
70.3065	0.650699
80.3175	0.683735
90.3285	0.707333
100.196	0.726211
