Adsorption isotherm of Hydrogen on Li-doped Pc-PBBA COF
DOI: 10.1021/Jp305949q
Adsorbate Hydrogen: InChIKey UFHFLCQGNIYNRP-UHFFFAOYSA-N
Temperature: 250 K
Tabular data in the source: 0
pressure (bar)	uptake (Fractional Coverage)
1.23058	0.0528993
10.2405	0.452481
20.2515	0.61609
30.2625	0.710479
40.1305	0.767113
49.9985	0.804869
60.0095	0.830039
70.0205	0.85049
80.1745	0.869368
90.3285	0.88038
99.9104	0.891392
