Adsorption isotherm of Hydrogen on Li-doped Pc-PBBA COF
DOI: 10.1021/Jp305949q
Adsorbate Hydrogen: InChIKey UFHFLCQGNIYNRP-UHFFFAOYSA-N
Temperature: 200 K
Tabular data in the source: 0
pressure (bar)	uptake (Fractional Coverage)
1.08756	0.19291
10.2405	0.693174
20.1085	0.822173
30.1195	0.870941
39.9874	0.900831
50.1415	0.918136
60.0095	0.933867
69.5914	0.938587
80.3175	0.949599
90.0425	0.952745
99.9104	0.954318
