Adsorption isotherm of Hydrogen on Li-doped Pc-PBBA COF
DOI: 10.1021/Jp305949q
Adsorbate Hydrogen: InChIKey UFHFLCQGNIYNRP-UHFFFAOYSA-N
Temperature: 100 K
Tabular data in the source: 0
pressure (bar)	uptake (Fractional Coverage)
0.801532	0.993647
10.2405	0.998367
20.2515	0.99994
30.1195	0.998367
40.2735	0.99994
50.2845	0.99994
60.1525	0.99994
70.0205	0.99994
80.1745	0.99994
90.0425	0.998367
100.053	0.99994
