Adsorption isotherm of Nitrogen on MIL-101@GO-6
DOI: 10.1016/j.applthermaleng.2015.03.040
Article source: Figure 2
Adsorbate Nitrogen: InChIKey IJGRMHOSHXDMSA-UHFFFAOYSA-N
Kind: experiment
Temperature: 77 K
Tabular data in the source: 0
pressure (bar)	uptake (mmol/g)
0.002513	0.193
0.002675	2.2604
0.002685	2.337
0.002695	2.398
0.002695	2.4618
0.002705	2.5278
0.002705	2.5958
0.002716	2.6654
0.003526	12.6695
0.00457	15.5564
0.004995	13.87
0.005613	16.5854
0.006454	17.2775
0.007285	19.1007
0.029313	23.3169
0.061221	27.3044
0.076115	28.7194
0.083259	29.4054
0.100048	30.949
0.117679	32.807
0.132574	35.3081
0.144956	37.0374
0.157753	38.1951
0.185678	39.5387
0.196804	40.1104
0.210655	40.5249
0.246818	45.3913
0.251063	45.6295
0.303965	46.2197
0.331566	46.2866
0.351932	46.5298
0.386707	46.6201
0.405097	46.7552
0.424005	46.8543
0.456145	47.0976
0.506666	47.2239
0.557977	47.4673
0.608224	47.5666
0.658481	47.72
0.709113	47.8781
0.759927	48.1279
0.809364	48.2457
0.833297	48.3459
0.861222	48.6748
0.888509	48.8893
0.888722	48.8876
0.913911	48.8466
0.915593	49.3039
0.938269	48.9753
0.939941	49.4898
0.96199	49.7186
0.964503	50.4618
0.978354	51.4051
0.98571	50.6191
0.987595	52.3627
0.995356	51.5053
0.998082	54.1063
1.00544	53.0774
1.00921	55.3784
