Adsorption isotherm of Nitrogen on MIL-101@GO-8
DOI: 10.1016/j.applthermaleng.2015.03.040
Article source: Figure 2
Adsorbate Nitrogen: InChIKey IJGRMHOSHXDMSA-UHFFFAOYSA-N
Kind: experiment
Temperature: 77 K
Tabular data in the source: 0
pressure (bar)	uptake (mmol/g)
0.000334	0.4303
0.000963	1.7311
0.001175	2.6888
0.001611	7.6203
0.001611	10.4748
0.001621	11.863
0.001621	11.8086
0.001814	3.8324
0.001814	6.951
0.001814	6.7341
0.002027	4.9044
0.002452	8.2796
0.002665	8.478
0.010244	17.9408
0.030418	21.5858
0.061717	25.1165
0.082935	26.9319
0.10016	28.5043
0.119908	30.0766
0.137549	32.378
0.147843	33.7931
0.160661	34.3935
0.186701	35.5942
0.202245	35.8229
0.21106	36.6091
0.248216	40.7859
0.255765	40.4978
0.303519	40.7769
0.331566	41.4973
0.336328	41.011
0.372055	41.6954
0.387132	41.1821
0.404652	41.8417
0.437987	41.3766
0.454655	42.0119
0.489157	41.5354
0.505997	42.1481
0.539657	41.7623
0.556335	42.3863
0.589164	41.819
0.606501	42.5225
0.639837	41.9325
0.657336	42.6132
0.69051	42.0459
0.707674	42.7153
0.740513	42.2161
0.757344	42.8628
0.794682	42.4126
0.810438	43.013
0.817997	42.4841
0.82975	43.113
0.843612	42.5698
0.859368	43.1845
0.870706	42.7271
0.884983	43.2845
0.894224	42.9272
0.90998	43.5561
0.923415	43.0987
0.935392	43.6276
0.957227	43.7563
0.962061	44.0136
0.984534	44.7426
0.989155	45.3
0.996298	46.5436
0.999865	46.3721
1.00785	47.6157
