Adsorption isotherm of Nitrogen on MIL-101@GO-2
DOI: 10.1016/j.applthermaleng.2015.03.040
Article source: Figure 2
Adsorbate Nitrogen: InChIKey IJGRMHOSHXDMSA-UHFFFAOYSA-N
Kind: experiment
Temperature: 77 K
Tabular data in the source: 0
pressure (bar)	uptake (mmol/g)
0.001246	0.3915
0.001854	2.3884
0.001864	15.868
0.001885	16.1151
0.001895	16.1885
0.001905	16.2088
0.004671	17.638
0.010832	20.1002
0.029151	24.2984
0.058465	27.8612
0.075284	29.5745
0.084617	30.2439
0.101112	32.0707
0.115602	33.8635
0.127366	35.9887
0.147205	37.943
0.159891	38.8435
0.187269	40.0953
0.197452	40.5276
0.209094	40.7888
0.251033	44.9282
0.303519	45.5215
0.332711	45.5572
0.354019	45.8574
0.388977	46.0719
0.406506	46.0862
0.426355	46.272
0.456165	46.3864
0.507192	46.5722
0.556507	46.7417
0.608669	46.8778
0.658329	46.9346
0.709326	47.0594
0.760323	47.1728
0.810377	47.3539
0.831007	47.426
0.838545	47.489
0.861698	47.462
0.869764	47.57
0.885641	47.5791
0.895166	47.5971
0.912624	47.7141
0.922503	47.8016
0.936253	47.916
0.950844	47.9946
0.962709	48.1876
0.983704	49.3742
0.986439	48.7809
0.993046	49.0596
1.00217	49.9317
1.00921	51.0039
