Adsorption isotherm of Nitrogen on MIL-101
DOI: 10.1016/j.applthermaleng.2015.03.040
Article source: Figure 2
Adsorbate Nitrogen: InChIKey IJGRMHOSHXDMSA-UHFFFAOYSA-N
Kind: experiment
Temperature: 77 K
Tabular data in the source: 0
pressure (bar)	uptake (mmol/g)
0.000983	5.2442
0.00151	1.2746
0.001773	3.1199
0.005482	14.8937
0.011298	16.568
0.030337	19.9705
0.062609	22.851
0.08562	24.6153
0.100697	25.6594
0.119482	27.3337
0.137204	29.116
0.140376	29.26
0.16286	30.0701
0.186134	30.7542
0.207291	31.5104
0.250404	34.8468
0.253049	34.7869
0.307805	35.0029
0.323146	35.0929
0.354577	35.3275
0.379736	35.3502
0.404733	35.4636
0.455051	35.5543
0.506372	35.6904
0.5567	35.8492
0.607352	35.9853
0.658167	36.076
0.708323	36.1554
0.758144	36.1894
0.790639	36.3141
0.809303	36.2991
0.817632	36.4161
0.830065	36.3171
0.842365	36.3891
0.852873	36.4637
0.864626	36.4352
0.886675	36.6352
0.908085	36.578
0.920274	36.8018
0.933102	36.7224
0.94827	37.0286
0.960926	36.8699
0.974098	37.573
0.98726	37.3235
0.992418	38.571
0.994758	37.8792
1.00142	38.5824
1.00709	39.6598
