Adsorption isotherm of Nitrogen on MIL-101@GO-4
DOI: 10.1016/j.applthermaleng.2015.03.040
Article source: Figure 2
Adsorbate Nitrogen: InChIKey IJGRMHOSHXDMSA-UHFFFAOYSA-N
Kind: experiment
Temperature: 77 K
Tabular data in the source: 0
pressure (bar)	uptake (mmol/g)
0.001459	0.1404
0.002239	6.8362
0.002624	8.3751
0.002888	11.849
0.003678	13.181
0.004458	14.4494
0.004458	14.45
0.006444	16.8709
0.008288	18.1771
0.010801	18.7249
0.030094	22.9548
0.058525	26.6719
0.084181	28.688
0.100839	30.461
0.118104	32.1574
0.13532	34.629
0.145178	36.3505
0.173722	38.7007
0.183277	39.108
0.196611	39.7795
0.207625	40.0938
0.254113	45.5657
0.267346	45.5658
0.304401	45.9517
0.324767	46.0375
0.355205	46.3591
0.38922	46.5093
0.405178	46.6309
0.423336	46.6595
0.455881	46.8526
0.506372	47.0172
0.556862	47.1746
0.608011	47.4103
0.65841	47.5996
0.707471	47.6989
0.759654	47.9566
0.80982	48.0363
0.816811	48.0817
0.83431	48.1838
0.84198	48.1498
0.862144	48.3541
0.869135	48.3428
0.890464	48.3315
0.898803	48.5017
0.914468	48.5811
0.927458	48.808
0.953458	49.1823
0.95896	49.3411
0.975284	50.0669
0.980948	50.1576
0.983116	51.2915
0.989935	53.1058
0.994941	51.2576
0.996268	54.8634
1.00027	53.0718
1.00643	56.054
