Adsorption isotherm of Water on H[Ce(H2O)4]2[MnV13O38]*9NMP*17H2O
DOI: 10.1039/C3cc40990b
Adsorbate Water: InChIKey XLYOFNOQVPJJNP-UHFFFAOYSA-N
Temperature: 298 K
Tabular data in the source: 0
pressure (bar)	uptake (cm3(STP)/g)
0.00149883	28.5099
0.00314624	46.1199
0.00451908	62.3754
0.00644106	79.9855
0.00781391	92.1771
0.00932403	105.723
0.0109028	117.915
0.0124129	130.106
0.0138544	138.234
0.0157764	153.135
0.0174238	169.391
0.0186594	182.259
0.0205127	198.515
0.0222288	232.38
0.0236703	263.537
