Adsorption isotherm of Ethanol on H[Ce(H2O)4]2[MnV13O38]*9NMP*17H2O
DOI: 10.1039/C3cc40990b
Adsorbate Ethanol: InChIKey LFQSCWFLJHTTHZ-UHFFFAOYSA-N
Temperature: 298 K
Tabular data in the source: 0
pressure (bar)	uptake (cm3(STP)/g)
0.00358718	0.561717
0.00806355	0.561717
0.0125399	1.21718
0.0168441	0.561717
0.020804	0.561717
0.023903	1.21718
0.028035	0.561717
0.0316506	0.561717
0.0357826	0.561717
0.0399146	1.21718
0.0431858	1.21718
0.0473179	0.561717
0.0512777	1.21718
0.0555819	0.561717
0.059714	1.21718
0.0631573	1.21718
0.0674615	1.87264
0.0703884	1.87264
