Adsorption isotherm of Methanol on H[Ce(H2O)4]2[MnV13O38]*9NMP*17H2O
DOI: 10.1039/C3cc40990b
Adsorbate Methanol: InChIKey OKKJLVBELUTLKV-UHFFFAOYSA-N
Temperature: 298 K
Tabular data in the source: 0
pressure (bar)	uptake (cm3(STP)/g)
0.000878	3.83903
0.0016138	12.36
0.002571	37.2676
0.00338093	58.2424
0.00507443	77.9063
0.00680474	94.2928
0.0076883	98.2256
0.00849823	103.469
0.00927135	108.058
0.0101181	113.957
0.0111121	122.478
0.0125847	133.621
0.0135787	138.209
0.0143518	144.108
0.0151986	172.293
