Adsorption isotherm of Methane on DL-COF-2
DOI: 10.1021/jacs.6b09563
Article source: Figure 4
Adsorbate Methane: InChIKey VNWKTOKETHGBQD-UHFFFAOYSA-N
Kind: experiment
Temperature: 273 K
Tabular data in the source: 0
pressure (bar)	uptake (cm3(STP)/g)
0	0.345423
0.009307	0.345423
0.021717	0.690846
0.036194	1.03627
0.051706	1.72712
0.067218	2.07254
0.079628	2.76339
0.092037	3.79965
0.102378	3.79965
0.150982	5.87219
0.20062	7.59931
0.250259	8.981
0.300931	12.0898
0.350569	13.1261
0.401241	14.5078
0.450879	16.2349
0.501551	17.6166
0.551189	18.3074
0.599793	20.0345
0.651499	21.4162
0.701138	22.4525
0.750776	24.525
0.801448	24.8705
0.851086	26.2522
0.900724	27.6339
0.951396	28.6701
0.997932	29.7064
0.045502	1.03627
0.096174	2.76339
0.146846	4.83592
0.196484	6.56304
0.24819	8.63558
0.297828	11.0535
0.346432	12.4352
0.397104	13.8169
0.446743	15.544
0.496381	17.2712
0.544984	18.6528
0.595657	19.6891
0.645295	21.0708
0.697001	22.1071
0.746639	23.4888
0.796277	24.525
0.844881	25.9067
0.895553	26.943
0.945191	28.3247
