Adsorption isotherm of Hydrogen on DL-COF-1
DOI: 10.1021/jacs.6b09563
Article source: Figure 4
Adsorbate Hydrogen: InChIKey UFHFLCQGNIYNRP-UHFFFAOYSA-N
Kind: experiment
Temperature: 77 K
Tabular data in the source: 0
pressure (bar)	uptake (cm3(STP)/g)
0.004396	6.1082
0.00989	12.2164
0.010989	15.7068
0.020879	27.9232
0.028571	36.2129
0.040659	46.6841
0.049451	52.7923
0.058242	59.7731
0.069231	65.8813
0.079121	73.2984
0.09011	78.9703
0.101099	85.0785
0.150549	106.894
0.198901	123.037
0.251648	137.435
0.302198	149.215
0.347253	159.25
0.397802	168.848
0.447253	177.138
0.497802	184.119
0.548352	190.227
0.598901	196.335
0.648352	202.007
0.697802	206.806
0.747253	212.042
0.797802	218.586
0.848352	222.949
0.898901	228.185
0.948352	231.239
0.993407	234.293
0.052747	57.1553
0.098901	86.3874
0.152747	109.075
0.202198	125.654
0.250549	139.18
0.3	150.96
0.349451	161.867
0.398901	170.593
0.448352	178.447
0.497802	185.864
0.548352	191.536
0.597802	198.08
0.648352	204.188
0.7	209.424
0.748352	215.096
0.796703	219.459
0.847253	224.695
0.896703	226.876
0.945055	229.494
