Adsorption isotherm of Nitrogen on DL-COF-2
DOI: 10.1021/jacs.6b09563
Article source: Figure 3
Adsorbate Nitrogen: InChIKey IJGRMHOSHXDMSA-UHFFFAOYSA-N
Kind: experiment
Temperature: 77 K
Tabular data in the source: 0
pressure (bar)	uptake (cm3(STP)/g)
-0.001042	0
-0.001042	132.022
-0.001042	214.888
-0.001042	242.978
-0.001042	266.854
-0.001042	296.348
-0.001042	311.798
0	327.247
0.002085	360.955
0.006255	380.618
0.021891	405.899
0.029188	415.73
0.048995	429.775
0.068801	442.416
0.083395	448.034
0.100074	455.056
0.150111	467.697
0.202233	480.337
0.253312	491.573
0.305434	501.404
0.355471	511.236
0.405508	521.067
0.456588	530.899
0.506625	540.73
0.556662	549.157
0.606699	563.202
0.657779	573.034
0.707816	587.079
0.757853	608.146
0.80789	629.214
0.861054	662.921
0.911091	713.483
0.961128	790.73
1.00074	908.708
0.048995	438.202
0.099032	462.079
0.148026	474.719
0.200148	488.764
0.25227	501.404
0.301265	511.236
0.353387	521.067
0.403424	530.899
0.452418	540.73
0.50454	553.371
0.55562	561.798
0.606699	573.034
0.655694	584.27
0.707816	598.315
0.75681	619.382
0.80789	640.449
0.858969	678.371
0.910049	727.528
0.961128	803.371
