Adsorption isotherm of Carbon Dioxide on DL-COF-1
DOI: 10.1021/jacs.6b09563
Article source: Figure 4
Adsorbate Carbon Dioxide: InChIKey CURLTUGMZLYLDI-UHFFFAOYSA-N
Kind: experiment
Temperature: 273 K
Tabular data in the source: 0
pressure (bar)	uptake (cm3(STP)/g)
0.006593	0.4363
0.018681	5.6719
0.031868	9.1623
0.042857	11.3438
0.051648	14.3979
0.063736	16.5794
0.071429	18.3246
0.083516	20.9424
0.092308	23.5602
0.101099	26.178
0.152747	37.0855
0.203297	47.5567
0.247253	55.8464
0.297802	63.6998
0.349451	71.9895
0.4	80.2792
0.448352	86.3874
0.498901	92.9319
0.548352	98.6038
0.597802	103.839
0.648352	108.202
0.697802	113.438
0.747253	118.237
0.798901	122.164
0.847253	126.527
0.897802	129.581
0.947253	133.944
0.993407	135.689
0.049451	13.9616
0.098901	26.178
0.146154	37.0855
0.197802	47.1204
0.252747	57.5916
0.302198	65.445
0.351648	72.8621
0.4	80.7155
0.449451	86.8237
0.5	93.3682
0.548352	99.0401
0.597802	104.276
0.647253	109.511
0.697802	113.874
0.748352	118.237
0.796703	121.728
0.848352	126.091
0.897802	129.581
0.947253	133.072
