Adsorption isotherm of Nitrogen on DL-COF-1
DOI: 10.1021/jacs.6b09563
Article source: Figure 3
Adsorbate Nitrogen: InChIKey IJGRMHOSHXDMSA-UHFFFAOYSA-N
Kind: experiment
Temperature: 77 K
Tabular data in the source: 0
pressure (bar)	uptake (cm3(STP)/g)
0.00104	0
0.00104	132.308
0.002081	233.846
0.00104	266.154
0.00104	289.231
0.002081	326.154
0.002081	344.615
0.002081	363.077
0.004161	401.538
0.007282	418.462
0.010403	433.846
0.022887	458.462
0.03329	470.769
0.052015	484.615
0.07074	495.385
0.081143	500
0.101949	510.769
0.152924	527.692
0.200777	538.462
0.253833	552.308
0.303767	564.615
0.354742	578.462
0.404676	587.692
0.456691	600
0.506625	610.769
0.5576	623.077
0.607534	633.846
0.658508	647.692
0.708443	664.615
0.760458	687.692
0.809352	712.308
0.860326	750.769
0.912341	807.692
0.962275	896.923
1.00181	1026.15
0.052015	493.846
0.101949	518.462
0.151883	538.462
0.202858	552.308
0.252792	564.615
0.304807	576.923
0.354742	589.231
0.404676	598.462
0.45565	610.769
0.504544	624.615
0.5576	632.308
0.608574	647.692
0.657468	660
0.708443	678.462
0.760458	700
0.807271	724.615
0.857205	766.154
0.911301	823.077
0.962275	915.385
