Adsorption isotherm of Methane on DL-COF-1
DOI: 10.1021/jacs.6b09563
Article source: Figure 4
Adsorbate Methane: InChIKey VNWKTOKETHGBQD-UHFFFAOYSA-N
Kind: experiment
Temperature: 273 K
Tabular data in the source: 0
pressure (bar)	uptake (cm3(STP)/g)
0.006593	0
0.021978	0.8726
0.037363	2.1815
0.047253	3.0541
0.059341	3.4904
0.067033	3.4904
0.076923	3.9267
0.09011	3.4904
0.103297	5.2356
0.150549	6.9808
0.201099	9.5986
0.249451	11.3438
0.3	13.5253
0.350549	15.7068
0.4	17.452
0.449451	20.0698
0.498901	21.815
0.548352	23.1239
0.597802	24.8691
0.649451	27.0506
0.7	28.7958
0.749451	29.2321
0.798901	30.9773
0.849451	32.7225
0.9	34.0314
0.948352	35.3403
0.995604	36.6492
0.046154	1.3089
0.097802	3.9267
0.148352	6.1082
0.197802	8.2897
0.247253	10.4712
0.297802	12.2164
0.346154	15.2705
0.396703	17.0157
0.447253	18.7609
0.496703	20.9424
0.546154	22.6876
0.595604	24.4328
0.646154	26.178
0.695604	27.4869
0.745055	29.2321
0.793407	30.541
0.845055	32.2862
0.894505	33.1588
0.946154	34.904
