Adsorption isotherm of Hydrogen on DL-COF-2
DOI: 10.1021/jacs.6b09563
Article source: Figure 4
Adsorbate Hydrogen: InChIKey UFHFLCQGNIYNRP-UHFFFAOYSA-N
Kind: experiment
Temperature: 77 K
Tabular data in the source: 0
pressure (bar)	uptake (cm3(STP)/g)
-0.001034	1.72712
0.004137	6.56304
0.008273	11.7444
0.020683	22.4525
0.028956	30.0518
0.038263	37.3057
0.050672	43.8687
0.056877	48.3592
0.069286	55.2677
0.078594	59.4128
0.087901	63.9033
0.098242	68.0484
0.14788	86.0104
0.198552	101.209
0.249224	112.608
0.300931	122.625
0.351603	131.606
0.397104	138.169
0.446743	145.423
0.497415	151.295
0.548087	156.477
0.597725	161.313
0.648397	166.149
0.695967	172.366
0.747673	176.166
0.797311	179.62
0.849018	183.765
0.898656	186.874
0.949328	190.328
0.993795	192.746
0.04757	44.5596
0.099276	70.1209
0.148914	87.7375
0.201655	103.282
0.251293	114.335
0.300931	124.007
0.350569	132.988
0.401241	140.242
0.449845	147.15
0.499483	153.368
0.549121	158.895
0.598759	164.076
0.648397	167.876
0.699069	171.675
0.748707	176.857
0.79938	180.311
0.849018	184.456
0.89969	188.256
0.951396	191.71
