Adsorption isotherm of Carbon Dioxide on DL-COF-2
DOI: 10.1021/jacs.6b09563
Article source: Figure 4
Adsorbate Carbon Dioxide: InChIKey CURLTUGMZLYLDI-UHFFFAOYSA-N
Kind: experiment
Temperature: 273 K
Tabular data in the source: 0
pressure (bar)	uptake (cm3(STP)/g)
0.011375	1.72712
0.022751	4.83592
0.033092	6.90846
0.042399	8.981
0.059979	13.8169
0.071355	14.8532
0.08273	17.6166
0.093071	19.3437
0.14788	29.361
0.197518	37.6511
0.24819	45.5959
0.297828	52.5043
0.348501	58.3765
0.399173	65.285
0.448811	70.1209
0.499483	74.9568
0.550155	80.829
0.598759	84.2832
0.648397	88.4283
0.699069	91.8826
0.748707	94.9914
0.79938	99.4819
0.849018	101.9
0.89969	105.354
0.949328	107.427
0.996898	110.19
0.04757	12.0898
0.102378	22.7979
0.150982	31.7789
0.20062	39.7237
0.251293	46.9775
0.299897	54.2314
0.349535	60.1036
0.399173	66.3212
0.448811	71.5026
0.499483	76.6839
0.549121	80.829
0.598759	84.9741
0.647363	89.1192
0.699069	93.2643
0.748707	96.0276
0.797311	99.8273
0.847983	102.245
0.896587	105.354
0.94726	108.117
