Adsorption isotherm of Carbon Dioxide, Methane on Coal Italy I1
DOI: 10.1016/j.egypro.2009.01.223
Article source: Figure 3
Adsorbate Carbon Dioxide: InChIKey CURLTUGMZLYLDI-UHFFFAOYSA-N
Adsorbate Methane: InChIKey VNWKTOKETHGBQD-UHFFFAOYSA-N
Kind: experiment
Temperature: 318 K
Tabular data in the source: 0
pressure (bar)	Carbon Dioxide fraction	Carbon Dioxide uptake (mmol/g)	Methane fraction	Methane uptake (mmol/g)	total uptake (mmol/g)
9.2688	0.4	0.5988	0.6	0.3205	
20.048	0.4	0.8493	0.6	0.3746	
38.929	0.4	1.066	0.6	0.4041	
61.243	0.4	1.1768	0.6	0.4092	
80.124	0.4	1.2335	0.6	0.417	
100.23	0.4	1.2721	0.6	0.3841	
119.83	0.4	1.2785	0.6	0.3919	
140.14	0.4	1.2805	0.6	0.3563	
160.31	0.4	1.2507	0.6	0.3587	
179.62	0.4	1.2301	0.6	0.3503	
