Adsorption isotherm of Carbon Dioxide, Nitrogen on Coal Italy I1
DOI: 10.1016/j.egypro.2009.01.223
Article source: Figure 3
Adsorbate Carbon Dioxide: InChIKey CURLTUGMZLYLDI-UHFFFAOYSA-N
Adsorbate Nitrogen: InChIKey IJGRMHOSHXDMSA-UHFFFAOYSA-N
Kind: experiment
Temperature: 318 K
Tabular data in the source: 0
pressure (bar)	Carbon Dioxide fraction	Carbon Dioxide uptake (mmol/g)	Nitrogen fraction	Nitrogen uptake (mmol/g)	total uptake (mmol/g)
10.031	0.5	0.7924	0.5	0.2038	
20.471	0.5	1.0576	0.5	0.2253	
30.297	0.5	1.2322	0.5	0.1849	
41.146	0.5	1.3422	0.5	0.1876	
60.389	0.5	1.4974	0.5	0.1579	
80.655	0.5	1.5556	0.5	0.131	
100.72	0.5	1.6009	0.5	0.1175	
119.55	0.5	1.6268	0.5	0.104	
140.23	0.5	1.6235	0.5	0.0959	
160.9	0.5	1.6138	0.5	0.0798	
178.71	0.5	1.6009	0.5	0.0717	
