Adsorption isotherm of Nitrogen, Methane on Coal Italy I1
DOI: 10.1016/j.egypro.2009.01.223
Article source: Figure 3
Adsorbate Nitrogen: InChIKey IJGRMHOSHXDMSA-UHFFFAOYSA-N
Adsorbate Methane: InChIKey VNWKTOKETHGBQD-UHFFFAOYSA-N
Kind: experiment
Temperature: 318 K
Tabular data in the source: 0
pressure (bar)	Nitrogen fraction	Nitrogen uptake (mmol/g)	Methane fraction	Methane uptake (mmol/g)	total uptake (mmol/g)
10.204	0.5	0.2148	0.5	0.341	
23.299	0.5	0.2551	0.5	0.4726	
41.667	0.5	0.2954	0.5	0.572	
61.735	0.5	0.3222	0.5	0.6042	
82.143	0.5	0.333	0.5	0.6391	
101.53	0.5	0.3357	0.5	0.6686	
121.43	0.5	0.3222	0.5	0.7116	
140.82	0.5	0.3303	0.5	0.7089	
160.88	0.5	0.3276	0.5	0.725	
180.1	0.5	0.3276	0.5	0.725	
