Adsorption isotherm of M-Xylene, Cumene on K-Y zeolite
DOI: 10.1021/ie00071a014
Article source: Figure 7
Adsorbate M-Xylene: InChIKey IVSZLXZYQVIEFR-UHFFFAOYSA-N
Adsorbate Cumene: InChIKey RWGFKTVRMDUZSP-UHFFFAOYSA-N
Kind: experiment
Temperature: 443 K
Tabular data in the source: 0
pressure (bar)	M-Xylene fraction	M-Xylene uptake (mmol/g)	Cumene fraction	Cumene uptake (mmol/g)	total uptake (mmol/g)
1.01325	0.9124	1.16	0.0876	0.293	
1.01325	0.74	0.798	0.26	0.645	
1.01325	0.534	0.534	0.466	0.95	
1.01325	0.341	0.328	0.659	1.17	
1.01325	0.108	0.0938	0.892	1.43	
