Adsorption isotherm of P-Xylene, Toluene on K-Y zeolite
DOI: 10.1021/ie00071a014
Article source: Figure 3
Adsorbate P-Xylene: InChIKey URLKBWYHVLBVBO-UHFFFAOYSA-N
Adsorbate Toluene: InChIKey YXFVVABEGXRONW-UHFFFAOYSA-N
Kind: experiment
Temperature: 423 K
Tabular data in the source: 0
pressure (bar)	P-Xylene fraction	P-Xylene uptake (mmol/g)	Toluene fraction	Toluene uptake (mmol/g)	total uptake (mmol/g)
1.01325	0.023	0.188	0.977	1.58	
1.01325	0.0921	0.53	0.9079	1.24	
1.01325	0.277	1.01	0.723	0.755	
1.01325	0.459	1.31	0.541	0.509	
1.01325	0.697	1.6	0.303	0.269	
1.01325	0.882	1.81	0.118	0.0934	
