Adsorption isotherm of M-Xylene, Toluene on K-Y zeolite
DOI: 10.1021/ie00071a014
Article source: Figure 4
Adsorbate M-Xylene: InChIKey IVSZLXZYQVIEFR-UHFFFAOYSA-N
Adsorbate Toluene: InChIKey YXFVVABEGXRONW-UHFFFAOYSA-N
Kind: experiment
Temperature: 423 K
Tabular data in the source: 0
pressure (bar)	M-Xylene fraction	M-Xylene uptake (mmol/g)	Toluene fraction	Toluene uptake (mmol/g)	total uptake (mmol/g)
1.01325	0.0261	0.0529	0.9739	1.67	
1.01325	0.325	0.688	0.675	1.06	
1.01325	0.472	0.947	0.528	0.812	
1.01325	0.614	1.2	0.386	0.553	
1.01325	0.887	1.66	0.113	0.153	
