Adsorption isotherm of M-Xylene, P-Xylene on K-Y zeolite
DOI: 10.1021/ie00071a014
Article source: Figure 2
Adsorbate M-Xylene: InChIKey IVSZLXZYQVIEFR-UHFFFAOYSA-N
Adsorbate P-Xylene: InChIKey URLKBWYHVLBVBO-UHFFFAOYSA-N
Kind: experiment
Temperature: 423 K
Tabular data in the source: 0
pressure (bar)	M-Xylene fraction	M-Xylene uptake (mmol/g)	P-Xylene fraction	P-Xylene uptake (mmol/g)	total uptake (mmol/g)
1.01325	0.9362	1.59	0.0638	0.292	
1.01325	0.9014	1.46	0.0986	0.427	
1.01325	0.884	1.41	0.116	0.485	
1.01325	0.693	0.907	0.307	0.989	
1.01325	0.499	0.564	0.501	1.32	
1.01325	0.301	0.314	0.699	1.63	
1.01325	0.11	0.11	0.89	1.86	
1.01325	0.064	0.0697	0.936	1.89	
