Adsorption isotherm of Cumene, P-Xylene on K-Y zeolite
DOI: 10.1021/ie00071a014
Article source: Figure 5
Adsorbate Cumene: InChIKey RWGFKTVRMDUZSP-UHFFFAOYSA-N
Adsorbate P-Xylene: InChIKey URLKBWYHVLBVBO-UHFFFAOYSA-N
Kind: experiment
Temperature: 443 K
Tabular data in the source: 0
pressure (bar)	Cumene fraction	Cumene uptake (mmol/g)	P-Xylene fraction	P-Xylene uptake (mmol/g)	total uptake (mmol/g)
1.01325	0.887	1.33	0.113	0.217	
1.01325	0.674	0.933	0.326	0.569	
1.01325	0.465	0.645	0.535	0.874	
1.01325	0.27	0.387	0.73	1.15	
1.01325	0.186	0.246	0.814	1.31	
1.01325	0.064	0.0821	0.936	1.46	
