Adsorption isotherm of M-Xylene, P-Xylene on K-Y zeolite
DOI: 10.1021/ie00071a014
Article source: Figure 6
Adsorbate M-Xylene: InChIKey IVSZLXZYQVIEFR-UHFFFAOYSA-N
Adsorbate P-Xylene: InChIKey URLKBWYHVLBVBO-UHFFFAOYSA-N
Kind: experiment
Temperature: 443 K
Tabular data in the source: 0
pressure (bar)	M-Xylene fraction	M-Xylene uptake (mmol/g)	P-Xylene fraction	P-Xylene uptake (mmol/g)	total uptake (mmol/g)
1.01325	0.9364	1.31	0.0636	0.247	
1.01325	0.899	1.16	0.101	0.371	
1.01325	0.71	0.747	0.29	0.824	
1.01325	0.522	0.471	0.478	1.12	
1.01325	0.316	0.229	0.684	1.36	
1.01325	0.127	0.0706	0.873	1.52	
1.01325	0.069	0.0412	0.931	1.55	
