Adsorption isotherm of Nitrogen on [(CH3)2NH2][Cd(bpdc)1.5]*2DMA
DOI: 10.1039/C3cc41966e
Adsorbate Nitrogen: InChIKey IJGRMHOSHXDMSA-UHFFFAOYSA-N
Temperature: 77 K
Tabular data in the source: 0
pressure (bar)	uptake (cm3(STP)/g)
0.0324133	5.89286
0.198464	10.787
0.303338	14.2828
0.397287	16.0307
0.502161	18.4777
0.60485	23.0223
0.70317	26.1685
0.812413	32.4609
0.906363	43.2979
0.989388	145.375
