Adsorption isotherm of Nitric oxide on MOF-74-Ni
DOI: 10.1021/Cm800686k
Adsorbate Nitric oxide: InChIKey MWUXSHHQAYIFBG-UHFFFAOYSA-N
Temperature: 303 K
Tabular data in the source: 0
pressure (bar)	uptake (mol gas/mol Ni)
7.3e-05	36.35
7.3e-05	64.4694
7.3e-05	78.6273
0.00016	23.9618
0.00016	50.508
0.000248	2.33154
0.00470494	85.1164
0.0117839	84.7231
0.0234075	84.7231
0.0432461	85.1164
