Adsorption isotherm of Nitric oxide on MOF-74-Ni
DOI: 10.1021/Cm800686k
Adsorbate Nitric oxide: InChIKey MWUXSHHQAYIFBG-UHFFFAOYSA-N
Temperature: 303 K
Tabular data in the source: 0
pressure (bar)	uptake (mol gas/mol Ni)
0.00016	12.5568
0.00112174	24.3551
0.00645284	24.945
0.0126579	25.1416
0.0238444	25.3383
0.0418478	25.3383
