Adsorption isotherm of Nitric oxide on MOF-74-Ni
DOI: 10.1021/Cm800686k
Adsorbate Nitric oxide: InChIKey MWUXSHHQAYIFBG-UHFFFAOYSA-N
Temperature: 303 K
Tabular data in the source: 0
pressure (bar)	uptake (mol gas/mol Ni)
0.00016	0.115486
0.00155872	0.257503
0.00662762	0.264057
0.0129201	0.268427
0.0238444	0.277167
0.0420226	0.281536
