Adsorption isotherm of Nitric oxide on MOF-74-Ni
DOI: 10.1021/Cm800686k
Adsorbate Nitric oxide: InChIKey MWUXSHHQAYIFBG-UHFFFAOYSA-N
Temperature: 303 K
Tabular data in the source: 0
pressure (bar)	uptake (mol gas/mol Ni)
7.3e-05	0.255318
7.3e-05	0.545906
0.00016	0.0171665
0.00016	0.39078
0.000248	0.714141
0.000335	0.862713
0.00470494	0.936998
0.0122209	0.943553
0.0234949	0.952293
0.0428091	0.961032
