Adsorption isotherm of Carbon Dioxide on DUMMOP
DOI: 10.1039/c5ce01192b
Article source: Figure 5
Adsorbate Carbon Dioxide: InChIKey CURLTUGMZLYLDI-UHFFFAOYSA-N
Kind: experiment
Temperature: 273 K
Tabular data in the source: 0
pressure (bar)	uptake (cm3(STP)/g)
0.005218	4.999
0.011906	8.356
0.018188	11.15
0.028655	14.977
0.056094	23.596
0.117912	37.643
0.118145	34.405
0.17434	41.318
0.177461	45.144
0.235368	46.989
0.236614	50.134
0.295545	54.701
0.295778	51.51
0.354283	58.823
0.35556	55.773
0.413852	62.053
0.415341	59.285
0.473218	65.236
0.47492	62.092
0.532595	67.856
0.533243	65.017
0.592184	67.825
0.592802	70.312
0.650506	69.952
0.651125	72.862
0.710096	72.572
0.711757	75.13
0.770293	76.811
0.770303	74.77
0.812667	77.902
0.830308	77.038
0.870372	79.583
0.889046	78.978
0.932058	81.148
0.952414	80.801
1.01137	82.788
