Adsorption isotherm of Nitrogen on DUMMOP
DOI: 10.1039/c5ce01192b
Article source: Figure 5
Adsorbate Nitrogen: InChIKey IJGRMHOSHXDMSA-UHFFFAOYSA-N
Kind: experiment
Temperature: 298 K
Tabular data in the source: 0
pressure (bar)	uptake (cm3(STP)/g)
0.012169	0.472
0.025807	0.406
0.037561	0.55
0.052253	0.295
0.082043	0.632
0.102399	0.59
0.118135	0.453
0.138288	0.576
0.177319	0.704
0.209419	0.712
0.240687	1.002
0.270903	1.198
0.308676	1.114
0.340989	1.216
0.375612	1.319
0.408765	1.351
0.444655	1.29
0.479277	1.604
0.510962	1.495
0.546638	1.481
0.579792	1.701
0.616299	1.734
0.650081	1.837
0.681978	2.127
0.714291	2.511
0.748285	2.614
0.782695	2.951
0.815859	2.96
0.850897	2.781
0.883007	3.377
0.916789	3.409
0.956234	4.147
0.987493	4.835
1.01329	7.142
