Adsorption isotherm of Nitrogen on DUMMOP
DOI: 10.1039/c5ce01192b
Article source: Figure 4
Adsorbate Nitrogen: InChIKey IJGRMHOSHXDMSA-UHFFFAOYSA-N
Kind: experiment
Temperature: 77 K
Tabular data in the source: 0
pressure (bar)	uptake (cm3(STP)/g)
6.1e-05	19.818
0.001013	35.344
0.001023	37.689
0.001175	11.943
0.001206	22.648
0.002087	8.891
0.002523	2.963
0.003313	39.634
0.008582	41.359
0.032596	43.212
0.072152	44.179
0.081991	44.177
0.100512	44.351
0.123148	45.055
0.14168	45.803
0.144203	50.094
0.161114	45.49
0.184894	45.973
0.203892	50.57
0.206618	46.367
0.252811	46.801
0.255334	50.649
0.284606	50.733
0.306087	46.527
0.335369	50.547
0.355026	46.695
0.404887	50.446
0.423621	46.152
0.456561	50.437
0.474394	47.072
0.487668	50.963
0.526758	46.753
0.537741	50.821
0.577288	46.612
0.588504	50.724
0.627139	46.647
0.640189	50.449
0.677912	46.639
0.688895	50.441
0.728441	46.32
0.741259	50.255
0.778059	46.356
0.790877	50.423
0.809844	46.616
0.815802	50.198
0.830433	47.32
0.841184	50.149
0.862218	47.491
0.866798	50.056
0.884621	47.222
0.891946	50.229
0.910012	47.881
0.919618	50.312
0.938829	48.893
0.945465	51.767
0.962153	50.614
0.985954	58.882
0.987089	54.768
0.993502	57.244
1.00357	62.285
1.00652	68.134
