Adsorption isotherm of Carbon Dioxide on DUMMOP
DOI: 10.1039/c5ce01192b
Article source: Figure 5
Adsorbate Carbon Dioxide: InChIKey CURLTUGMZLYLDI-UHFFFAOYSA-N
Kind: experiment
Temperature: 298 K
Tabular data in the source: 0
pressure (bar)	uptake (cm3(STP)/g)
0.00691	2.184
0.020123	4.041
0.028716	5.216
0.056813	9.166
0.116787	15.517
0.118449	18.427
0.173418	19.685
0.178018	22.83
0.235307	23.479
0.236959	26.975
0.296345	26.991
0.29822	29.713
0.356745	32.239
0.357394	29.517
0.411309	31.831
0.416122	34.624
0.4711	33.865
0.474029	36.751
0.533	35.735
0.535918	38.269
0.592579	37.252
0.592984	39.669
0.651317	41.186
0.651955	39.074
0.71196	40.521
0.713004	42.539
0.770496	42.156
0.772593	43.728
0.814349	44.279
0.831554	43.533
0.872469	45.514
0.891143	44.933
0.935412	46.423
0.950104	45.816
0.981576	47.232
1.01263	47.311
