Adsorption isotherm of Carbon Dioxide on DUMMOP
DOI: 10.1039/c5ce01192b
Article source: Figure 5
Adsorbate Carbon Dioxide: InChIKey CURLTUGMZLYLDI-UHFFFAOYSA-N
Kind: experiment
Temperature: 273 K
Tabular data in the source: 0
pressure (bar)	uptake (cm3(STP)/g)
0.005907	5.136
0.009879	8.452
0.017195	11.284
0.025828	15.458
0.057087	24.145
0.116645	34.924
0.119959	39.097
0.175566	42.091
0.176539	46.226
0.236493	47.88
0.236797	52.164
0.296082	52.738
0.298058	56.724
0.354354	56.999
0.354668	60.65
0.414936	64.167
0.416628	60.033
0.473542	67.236
0.475235	63.363
0.532514	66.283
0.533152	70.045
0.592113	69.465
0.592761	72.78
0.652391	72.125
0.652705	75.142
0.708677	74.114
0.712983	77.319
0.768935	79.27
0.768955	76.7
0.815231	80.102
0.832891	79.51
0.869713	82.043
0.888225	81.131
0.93527	83.361
0.952718	83.306
1.01431	85.303
