Adsorption isotherm of Hydrogen on DUMMOP
DOI: 10.1039/c5ce01192b
Article source: Figure 5
Adsorbate Hydrogen: InChIKey UFHFLCQGNIYNRP-UHFFFAOYSA-N
Kind: experiment
Temperature: 298 K
Tabular data in the source: 0
pressure (bar)	uptake (cm3(STP)/g)
0.016161	0.215
0.033366	0.408
0.079945	0.631
0.099886	0.73
0.125694	1.183
0.143527	1.047
0.15066	1.119
0.160529	1.004
0.18508	0.776
0.203542	1.18
0.252218	1.638
0.30132	1.769
0.350017	1.101
0.351892	1.946
0.389037	1.557
0.404358	2.03
0.432263	1.944
0.45115	2.535
0.476754	2.261
0.504244	2.526
0.52229	2.155
0.552505	2.656
0.564259	2.096
0.605386	2.623
0.657427	2.989
0.691837	2.787
0.702324	3.188
0.737585	2.775
0.753321	2.967
0.780598	3.35
0.794033	3.353
0.825718	3.197
0.86642	3.443
0.896432	3.732
0.909655	3.501
0.935037	3.906
0.967775	4.056
