Adsorption isotherm of Methane on DUMMOP
DOI: 10.1039/c5ce01192b
Article source: Figure 5
Adsorbate Methane: InChIKey VNWKTOKETHGBQD-UHFFFAOYSA-N
Kind: experiment
Temperature: 298 K
Tabular data in the source: 0
pressure (bar)	uptake (cm3(STP)/g)
0.00839	0.659
0.008602	-0.232
0.026436	1.485
0.034197	0.807
0.04741	2.382
0.057694	1.353
0.065243	2.856
0.071961	1.99
0.087271	3.848
0.099025	3.053
0.105945	4.369
0.120222	3.692
0.125876	4.82
0.141825	4.378
0.151684	5.906
0.160924	5.04
0.18127	6.054
0.201201	6.388
0.203501	7.468
0.253019	8.49
0.300652	9.652
0.302546	8.597
0.343461	9.265
0.352469	10.604
0.388358	10.168
0.403456	11.791
0.429061	11.258
0.45423	12.766
0.475853	11.927
0.502076	13.483
0.519493	12.713
0.552008	14.317
0.563144	13.217
0.603421	14.87
0.603846	13.768
0.647072	14.507
0.655036	15.916
0.689243	15.128
0.704979	16.164
0.736248	15.914
0.756594	16.858
0.779047	16.301
0.805483	17.458
0.822485	16.899
0.864657	17.544
0.905785	18.446
0.9337	17.961
0.934946	18.665
0.952364	19.209
0.961392	19.071
0.974605	19.145
0.990351	19.172
1.00378	19.152
1.01657	19.273
