Adsorption isotherm of Hydrogen on DUMMOP
DOI: 10.1039/c5ce01192b
Article source: Figure 4
Adsorbate Hydrogen: InChIKey UFHFLCQGNIYNRP-UHFFFAOYSA-N
Kind: experiment
Temperature: 77 K
Tabular data in the source: 0
pressure (bar)	uptake (cm3(STP)/g)
0.00313	6.557
0.00372	14.137
0.00401	17.815
0.00485	10.347
0.00544	21.103
0.00546	24.781
0.00717	28.627
0.00803	31.135
0.01519	48.243
0.04855	79.448
0.12766	102.898
0.22607	114.473
0.35149	123.535
0.44819	129.092
0.48629	131.537
0.54601	134.146
0.6009	137.09
0.67285	140.198
0.7357	142.807
0.8011	144.802
0.86992	147.019
0.93418	149.293
1.00442	151.231
