Adsorption isotherm of Nitrogen on Tfpa-Mth COF
DOI: 10.1039/d1ce00212k
Article source: Figure 2d
Adsorbate Nitrogen: InChIKey IJGRMHOSHXDMSA-UHFFFAOYSA-N
Kind: experiment
Temperature: 77 K
Tabular data in the source: 0
pressure (bar)	uptake ()
0.006817	11.4243
0.0581	16.1107
0.086818	17.8594
0.123741	18.9086
0.156562	20.6573
0.193485	21.7065
0.228357	22.709
0.263229	23.9214
0.298101	24.8541
0.332973	25.4369
0.369897	26.7193
0.402717	27.1856
0.439641	28.5845
0.476564	29.1674
0.509385	30.4498
0.546308	31.0327
0.579129	31.7322
0.616052	32.8979
0.652976	33.8306
0.685796	35.1129
0.72272	36.2787
0.759643	37.561
0.794515	39.403
0.829387	41.175
0.864259	44.0661
0.899131	47.7033
0.931952	54.1151
0.964773	68.221
1.00509	158.096
0.049894	23.9214
0.084767	25.6934
0.12169	26.7193
0.156562	27.8851
0.191434	28.9576
0.226306	29.6338
0.263229	30.4498
0.300153	31.0327
0.335025	31.942
0.369897	32.7814
0.404769	33.5275
0.439641	34.1803
0.476564	35.1129
0.511436	35.859
0.548359	36.7916
0.58118	37.3512
0.618104	38.2838
0.652976	39.0766
0.687848	40.1491
0.778105	43.1956
0.812977	45.3718
0.8499	48.1696
0.890926	53.1825
0.936054	67.1718
0.966824	94.9873
1.00306	156.665
0.722373	40.8924
0.740786	41.8584
