Adsorption isotherm of Carbon Dioxide on Al(OH)(bpydc)*0.97Cu(BF4)2
DOI: 10.1039/C4cs00076e
Adsorbate Carbon Dioxide: InChIKey CURLTUGMZLYLDI-UHFFFAOYSA-N
Temperature: 298 K
Tabular data in the source: 0
pressure (bar)	uptake (wt%)
0.00377358	0.000140805
0.0188679	0.0454801
0.0301887	0.135455
0.0603774	0.315686
0.116981	0.631231
0.173585	0.901999
0.233962	1.17291
0.290566	1.44368
0.350943	1.71459
0.407547	1.98536
0.464151	2.21135
0.520755	2.48212
0.581132	2.70825
0.637736	2.93424
0.69434	3.16024
0.750943	3.43101
0.811321	3.65714
0.867925	3.88313
0.924528	4.10912
0.984906	4.29048
1.04151	4.56125
1.09811	4.74247
