Adsorption isotherm of Carbon Dioxide on Al(OH)(bpydc)*0.97Cu(BF4)2
DOI: 10.1039/C4cs00076e
Adsorbate Carbon Dioxide: InChIKey CURLTUGMZLYLDI-UHFFFAOYSA-N
Temperature: 298 K
Tabular data in the source: 0
pressure (bar)	uptake (wt%)
0.00377358	0.179245
0.0113208	0.403407
0.0301887	0.717544
0.0566038	1.21107
0.113208	2.28781
0.181132	3.45452
0.230189	4.21754
0.290566	5.02577
0.34717	5.69952
0.407547	6.32864
0.467925	6.86821
0.516981	7.3178
0.577358	7.72304
0.633962	8.12813
0.69434	8.57815
0.750943	8.89369
0.811321	9.20938
0.864151	9.52478
0.924528	9.79569
0.981132	10.0217
1.03774	10.3372
1.09811	10.5634
