Adsorption isotherm of Carbon Dioxide on Mg-MOF-74
DOI: 10.1039/C3sc51319j
Adsorbate Carbon Dioxide: InChIKey CURLTUGMZLYLDI-UHFFFAOYSA-N
Temperature: 393 K
Tabular data in the source: 0
pressure (bar)	uptake (mmol/g)
0.23719	0.0310691
0.320845	1.77109
0.73912	3.31035
1.65933	4.86633
2.99781	5.82
5.08918	6.72348
8.01711	7.42618
11.3633	7.9783
17.0519	8.66427
21.4856	8.99889
26.4212	9.24986
30.1021	9.41717
34.7867	9.51756
40.6426	9.46736
46.2475	9.24986
50.5139	8.84832
