Adsorption isotherm of Carbon Dioxide on Mg-MOF-74
DOI: 10.1039/C3sc51319j
Adsorbate Carbon Dioxide: InChIKey CURLTUGMZLYLDI-UHFFFAOYSA-N
Temperature: 473 K
Tabular data in the source: 0
pressure (bar)	uptake (mmol/g)
0	0
0.57181	0.680711
1.74298	1.60426
3.24877	2.35381
5.17284	3.27736
8.10077	4.18753
11.0287	4.81662
15.4624	5.45909
20.8163	5.99448
24.4135	6.24879
29.5165	6.51649
34.4521	6.62357
39.7224	6.70388
43.9888	6.57003
46.7494	6.27556
49.761	5.87402
51.7687	5.68663
