Adsorption isotherm of Methane on Mn-MOF-74
DOI: 10.1039/C3sc51319j
Adsorbate Methane: InChIKey VNWKTOKETHGBQD-UHFFFAOYSA-N
Temperature: 343 K
Tabular data in the source: 0
pressure (bar)	uptake (mmol/g)
0.47438	0.0279622
2.98403	1.08202
7.16679	2.51252
13.3573	3.79244
21.3882	4.75615
33.7691	5.59939
46.652	6.03607
58.0291	6.15653
71.2466	6.14148
82.791	6.06619
91.4911	5.9909
98.5181	5.90055
