Adsorption isotherm of Carbon Dioxide on Mn-MOF-74
DOI: 10.1039/C3sc51319j
Adsorbate Carbon Dioxide: InChIKey CURLTUGMZLYLDI-UHFFFAOYSA-N
Temperature: 393 K
Tabular data in the source: 0
pressure (bar)	uptake (mmol/g)
0.23719	0.0310691
1.74298	2.49053
3.83436	3.86247
7.59884	5.38499
10.1921	6.00404
14.9605	6.77367
18.8923	7.24214
22.1548	7.5433
24.7481	7.71061
30.1021	7.92811
36.7108	8.01176
42.6503	7.89465
47.335	7.59349
50.6812	7.20868
