Adsorption isotherm of Methane on MOF-74-Ni
DOI: 10.1039/C3sc51319j
Adsorbate Methane: InChIKey VNWKTOKETHGBQD-UHFFFAOYSA-N
Temperature: 343 K
Tabular data in the source: 0
pressure (bar)	uptake (mmol/g)
0.64169	0.0279622
2.14748	0.961553
4.99175	2.22642
9.0072	3.35576
17.2054	4.60557
24.0651	5.28317
33.0999	5.74997
42.3019	6.02101
55.0175	6.32217
65.7253	6.33723
75.262	6.33723
86.6391	6.26194
95.3392	6.23182
106.047	6.11136
