Adsorption isotherm of Carbon Dioxide on MOF-74-Co
DOI: 10.1039/C3sc51319j
Adsorbate Carbon Dioxide: InChIKey CURLTUGMZLYLDI-UHFFFAOYSA-N
Temperature: 343 K
Tabular data in the source: 0
pressure (bar)	uptake (mmol/g)
0.0138138	0.0200689
0.0260812	0.115482
0.0668713	0.265416
0.121877	0.442611
0.211913	0.769741
0.364151	1.21954
0.625757	1.8738
1.32903	2.90971
2.15329	3.60487
4.79379	4.58626
8.14126	5.26778
12.2911	5.70395
17.7029	6.07197
25.7994	6.31732
