Adsorption isotherm of Carbon Dioxide on MOF-74-Co
DOI: 10.1039/C3sc51319j
Adsorbate Carbon Dioxide: InChIKey CURLTUGMZLYLDI-UHFFFAOYSA-N
Temperature: 298 K
Tabular data in the source: 0
pressure (bar)	uptake (mmol/g)
0.00471327	0.0762311
0.00982806	0.267718
0.0150512	0.43527
0.0251753	0.770373
0.0473631	1.46451
0.098761	2.5895
0.146867	3.57088
0.334478	5.27033
0.895411	6.77829
2.13115	8.21445
3.78049	9.41124
7.00859	10.5123
11.0535	11.0149
17.1786	11.3261
24.4443	11.5415
31.3825	11.4458
37.9897	11.2543
