Adsorption isotherm of Carbon Dioxide on Mg-MOF-74
DOI: 10.1039/C3sc51319j
Adsorbate Carbon Dioxide: InChIKey CURLTUGMZLYLDI-UHFFFAOYSA-N
Temperature: 278 K
Tabular data in the source: 0
pressure (bar)	uptake (mmol/g)
0.000209287	0.187771
0.000409647	0.412771
0.000771631	0.737771
0.00137218	1.26277
0.00239374	2.01277
0.00450896	3.01277
0.0084933	4.08777
0.0124665	4.66277
0.0279089	5.53777
0.0556856	6.08777
0.132051	6.66277
0.225983	7.13777
0.450896	8.06277
0.756966	8.96277
1.19971	10.0628
2.39374	11.7628
3.79382	12.8378
6.24803	13.8128
9.52964	14.4378
19.0141	15.1878
