Adsorption isotherm of Carbon Dioxide on Fe-MOF-74
DOI: 10.1039/C3sc51319j
Adsorbate Carbon Dioxide: InChIKey CURLTUGMZLYLDI-UHFFFAOYSA-N
Temperature: 298 K
Tabular data in the source: 0
pressure (bar)	uptake (mmol/g)
0.00414863	0.0676624
0.0441486	1.13266
0.0808153	1.89766
0.124149	2.57266
0.177482	3.26266
0.252482	3.87766
0.325815	4.44766
0.417482	4.94266
0.512482	5.34766
0.617482	5.66266
0.740815	6.02266
0.832482	6.24766
0.917482	6.47266
0.975815	6.60766
