Adsorption isotherm of Carbon Dioxide on MOF-74-Ni
DOI: 10.1039/C3sc51319j
Adsorbate Carbon Dioxide: InChIKey CURLTUGMZLYLDI-UHFFFAOYSA-N
Temperature: 278 K
Tabular data in the source: 0
pressure (bar)	uptake (mmol/g)
0.0559037	0.0215072
0.0679455	3.50362
0.559055	7.02908
1.12032	8.5024
1.82191	9.73895
3.0146	10.5019
4.62824	11.1333
7.01363	11.6595
11.0828	12.0805
14.3803	12.2383
17.6777	12.3436
21.3961	12.3173
24.8339	12.3173
28.6926	12.3173
31.99	12.291
34.8665	12.2647
36.9011	12.3173
