Adsorption isotherm of Carbon Dioxide on MOF-74-Co
DOI: 10.1039/C3sc51319j
Adsorbate Carbon Dioxide: InChIKey CURLTUGMZLYLDI-UHFFFAOYSA-N
Temperature: 343 K
Tabular data in the source: 0
pressure (bar)	uptake (mmol/g)
0.320845	0.0573602
0.488155	2.46663
1.49202	4.65504
4.41994	6.86354
8.93732	8.04809
14.2912	8.81103
20.3981	9.31296
27.4251	9.51373
32.6954	9.63419
38.8858	9.61412
44.2398	9.51373
47.8369	9.39327
51.7687	9.17242
