Adsorption isotherm of Carbon Dioxide on Mn-MOF-74
DOI: 10.1039/C3sc51319j
Adsorbate Carbon Dioxide: InChIKey CURLTUGMZLYLDI-UHFFFAOYSA-N
Temperature: 298 K
Tabular data in the source: 0
pressure (bar)	uptake (mmol/g)
0.153535	0.0967967
0.23719	2.2551
0.320845	4.66436
0.655465	6.47131
1.74298	8.12768
3.58339	9.50799
5.84208	10.286
9.10463	10.9636
13.622	11.4153
18.0557	11.6663
22.0712	11.7416
27.2578	11.7165
32.3607	11.6663
36.3762	11.6161
41.2282	11.2898
45.6619	11.0389
48.0042	10.7377
51.1831	10.1354
