Adsorption isotherm of Carbon Dioxide on Mg-MOF-74
DOI: 10.1039/C3sc51319j
Adsorbate Carbon Dioxide: InChIKey CURLTUGMZLYLDI-UHFFFAOYSA-N
Temperature: 343 K
Tabular data in the source: 0
pressure (bar)	uptake (mmol/g)
0.0698796	0.0573602
0.153535	2.28593
0.320845	4.93612
0.90643	6.06045
2.24491	6.984
4.83822	8.22879
8.18442	9.23265
11.9489	10.0157
16.5499	10.6782
23.577	11.2002
28.178	11.4612
32.1098	11.5817
36.9618	11.7222
40.8936	11.8226
46.3311	11.7825
50.0956	11.5215
51.8524	11.5215
