Adsorption isotherm of Carbon Dioxide on Mn-MOF-74
DOI: 10.1039/C3sc51319j
Adsorbate Carbon Dioxide: InChIKey CURLTUGMZLYLDI-UHFFFAOYSA-N
Temperature: 473 K
Tabular data in the source: 0
pressure (bar)	uptake (mmol/g)
0	0
3.58339	1.12241
6.00939	1.77827
8.93732	2.38058
12.3672	3.00967
17.0519	3.65214
22.7404	4.13399
27.0905	4.41507
31.2732	4.60246
36.5435	4.74969
40.8099	4.76308
44.658	4.70954
48.7571	4.41507
53.0235	3.98676
