Adsorption isotherm of Carbon Dioxide on MOF-74-Ni
DOI: 10.1039/C3sc51319j
Adsorbate Carbon Dioxide: InChIKey CURLTUGMZLYLDI-UHFFFAOYSA-N
Temperature: 473 K
Tabular data in the source: 0
pressure (bar)	uptake (mmol/g)
0.0574905	0.0473297
0.0871363	0.0745905
0.145109	0.129112
0.211474	0.156373
0.374984	0.197264
0.586471	0.306307
0.902951	0.483503
1.6915	0.824263
2.97591	1.39674
4.9558	2.11915
8.58313	3.11417
14.8654	4.24549
19.7175	4.73619
