Adsorption isotherm of Carbon Dioxide on MOF-74-Ni
DOI: 10.1039/C3sc51319j
Adsorbate Carbon Dioxide: InChIKey CURLTUGMZLYLDI-UHFFFAOYSA-N
Temperature: 393 K
Tabular data in the source: 0
pressure (bar)	uptake (mmol/g)
0.153535	0.0645312
0.57181	2.33995
1.57567	3.49439
2.74684	4.51498
4.58725	5.30134
6.09305	5.88693
8.35173	6.37212
12.0326	6.97444
16.3826	7.44291
19.8961	7.67714
23.4096	7.89465
28.0107	8.11215
34.3685	8.31292
40.2243	8.37985
44.5744	8.37985
48.1716	8.29619
51.936	8.09542
