Adsorption isotherm of Carbon Dioxide on MOF-74-Co
DOI: 10.1039/C3sc51319j
Adsorbate Carbon Dioxide: InChIKey CURLTUGMZLYLDI-UHFFFAOYSA-N
Temperature: 278 K
Tabular data in the source: 0
pressure (bar)	uptake (mmol/g)
0.00122295	0.0627706
0.00234824	0.162771
0.00477613	0.362771
0.00899656	0.787771
0.0163083	1.33777
0.0263477	2.16277
0.0417583	3.08777
0.084933	4.43777
0.148164	5.41277
0.234824	6.06277
0.450896	7.03777
0.714622	7.83777
1.29542	8.96277
2.39374	10.1378
3.65098	11.0128
5.89852	11.5878
10.0943	12.0878
15.3961	12.2878
19.758	12.3378
