Adsorption isotherm of Carbon Dioxide on Mg-MOF-74
DOI: 10.1039/C3sc51319j
Adsorbate Carbon Dioxide: InChIKey CURLTUGMZLYLDI-UHFFFAOYSA-N
Temperature: 298 K
Tabular data in the source: 0
pressure (bar)	uptake (mmol/g)
0.0698796	0.121893
0.153535	4.94043
0.488155	7.17402
1.07374	8.7551
2.8305	10.4115
5.25649	11.8671
9.43925	12.9964
13.7057	13.4983
19.3942	13.9501
22.4894	14.1007
27.927	14.3014
32.1934	14.3265
36.8781	14.3014
40.8936	14.2512
45.4946	14.0003
46.6658	13.8748
