Adsorption isotherm of Carbon Dioxide on Mn-MOF-74
DOI: 10.1039/C3sc51319j
Adsorbate Carbon Dioxide: InChIKey CURLTUGMZLYLDI-UHFFFAOYSA-N
Temperature: 298 K
Tabular data in the source: 0
pressure (bar)	uptake (mmol/g)
0.00414863	0.0676624
0.0508153	1.20766
0.077482	1.67266
0.112482	2.25766
0.152482	2.81266
0.225815	3.53266
0.290815	4.02766
0.355815	4.46266
0.397482	4.65766
0.467482	4.98766
0.539149	5.30266
0.644149	5.60266
0.777482	6.02266
0.895815	6.27766
0.972482	6.42766
