Adsorption isotherm of Carbon Dioxide on MOF-74-Ni
DOI: 10.1039/C3sc51319j
Adsorbate Carbon Dioxide: InChIKey CURLTUGMZLYLDI-UHFFFAOYSA-N
Temperature: 393 K
Tabular data in the source: 0
pressure (bar)	uptake (mmol/g)
0.0229384	0.0645312
0.0509208	0.164917
0.101872	0.298765
0.215928	0.650117
0.393833	1.13532
0.570073	1.60378
1.03976	2.54072
1.48776	3.26016
2.41737	4.18036
3.53981	5.01691
6.16463	5.85346
9.78767	6.65655
17.0453	7.56003
27.0631	8.14561
