Adsorption isotherm of Carbon Dioxide on MOF-74-Ni
DOI: 10.1039/C3sc51319j
Adsorbate Carbon Dioxide: InChIKey CURLTUGMZLYLDI-UHFFFAOYSA-N
Temperature: 298 K
Tabular data in the source: 0
pressure (bar)	uptake (mmol/g)
0.000864161	0.0627706
0.00177798	0.0877706
0.00269109	0.137771
0.00371473	0.262771
0.00528763	0.412771
0.00918885	0.712771
0.0154856	1.26277
0.024543	1.91277
0.0413613	2.83777
0.0626029	3.58777
0.0977075	4.26277
0.150174	4.96277
0.269109	5.61277
0.460533	6.11277
0.776118	6.76277
1.26841	7.48777
1.97968	8.11277
2.95072	8.86277
4.07313	9.51277
5.53683	10.0878
8.50997	10.6378
13.4874	11.1628
20.7298	11.4628
29.0577	11.5128
37.722	11.3878
