Adsorption isotherm of Carbon Dioxide on MOF-74-Ni
DOI: 10.1039/C3sc51319j
Adsorbate Carbon Dioxide: InChIKey CURLTUGMZLYLDI-UHFFFAOYSA-N
Temperature: 473 K
Tabular data in the source: 0
pressure (bar)	uptake (mmol/g)
0	0
0.90643	0.653942
2.74684	1.37672
5.08918	2.0995
8.01711	2.95613
12.2835	3.79937
17.3865	4.45523
22.7404	4.97724
27.7597	5.28509
33.6992	5.59294
39.806	5.76694
45.6619	5.84725
51.1831	5.76694
