Adsorption isotherm of Carbon Dioxide on Mn-MOF-74
DOI: 10.1039/C3sc51319j
Adsorbate Carbon Dioxide: InChIKey CURLTUGMZLYLDI-UHFFFAOYSA-N
Temperature: 393 K
Tabular data in the source: 0
pressure (bar)	uptake (mmol/g)
0.0480617	0.0310691
0.100701	0.181648
0.154436	0.248572
0.268952	0.38242
0.422113	0.599924
0.639916	0.984737
1.02781	1.5034
1.50505	2.08898
2.2295	2.72476
3.0814	3.32708
5.00679	4.38113
8.04176	5.45192
12.4763	6.45578
19.3561	7.34252
23.2877	7.67714
27.3777	7.82772
