Adsorption isotherm of Nitrogen on Mn-MOF-74
DOI: 10.1039/C3sc51319j
Adsorbate Nitrogen: InChIKey IJGRMHOSHXDMSA-UHFFFAOYSA-N
Temperature: 298 K
Tabular data in the source: 0
pressure (bar)	uptake (mmol/g)
0.366972	0.0983607
0.795107	0.295082
1.2844	0.491803
1.83486	0.737705
2.263	0.885246
2.75229	1.03279
3.24159	1.22951
4.52599	1.62295
5.87156	1.96721
7.15596	2.2623
8.3792	2.5082
9.72477	2.7541
11.0092	3
14.5566	3.4918
18.104	3.93443
