Adsorption isotherm of Carbon Dioxide on MOF-74-Ni
DOI: 10.1039/C3sc51319j
Adsorbate Carbon Dioxide: InChIKey CURLTUGMZLYLDI-UHFFFAOYSA-N
Temperature: 343 K
Tabular data in the source: 0
pressure (bar)	uptake (mmol/g)
0.320845	0.0573602
0.488155	3.1091
0.822775	4.31373
1.91029	5.67898
4.83822	7.10446
9.02097	8.14848
14.8768	8.83111
21.3183	9.29288
27.4251	9.53381
33.6156	9.61412
41.7301	9.59404
47.335	9.53381
51.6851	9.31296
