Adsorption isotherm of Carbon Dioxide on MOF-74-Co
DOI: 10.1039/C3sc51319j
Adsorbate Carbon Dioxide: InChIKey CURLTUGMZLYLDI-UHFFFAOYSA-N
Temperature: 393 K
Tabular data in the source: 0
pressure (bar)	uptake (mmol/g)
0.320845	0.0143381
1.24105	2.17264
2.91415	3.59478
5.17284	5.05037
7.18056	5.65269
8.77001	6.13789
11.2797	6.60636
15.9643	7.22541
19.9798	7.64368
23.9952	7.84445
28.6799	8.06196
33.8665	8.16234
38.3003	8.12888
42.3157	8.09542
46.6658	7.79426
50.4302	7.45964
