Adsorption isotherm of Carbon Dioxide on Mn-MOF-74
DOI: 10.1039/C3sc51319j
Adsorbate Carbon Dioxide: InChIKey CURLTUGMZLYLDI-UHFFFAOYSA-N
Temperature: 343 K
Tabular data in the source: 0
pressure (bar)	uptake (mmol/g)
0.23719	0.0774374
0.488155	1.36238
0.990085	3.3701
1.99395	4.59481
3.7507	6.06045
6.26036	7.18477
9.35559	7.98786
13.0364	8.61026
16.1317	8.97165
19.9798	9.23265
23.6606	9.41334
29.7674	9.65427
34.5358	9.67435
39.0532	9.61412
42.5667	9.49365
46.5821	9.31296
50.5139	8.87126
