Adsorption isotherm of Carbon Dioxide on MOF-74-Co
DOI: 10.1039/C3sc51319j
Adsorbate Carbon Dioxide: InChIKey CURLTUGMZLYLDI-UHFFFAOYSA-N
Temperature: 298 K
Tabular data in the source: 0
pressure (bar)	uptake (mmol/g)
0.0698796	0.0717002
0.23719	1.95394
0.320845	4.84004
0.990085	7.34969
2.8305	9.00606
5.84208	10.2358
10.1085	10.9636
14.5422	11.3149
19.6452	11.4906
25.0828	11.5659
32.1098	11.5157
35.7069	11.4153
41.8974	11.1895
46.7494	10.9385
53.2745	9.98483
