Adsorption isotherm of Carbon Dioxide on MOF-74-Ni
DOI: 10.1039/C3sc51319j
Adsorbate Carbon Dioxide: InChIKey CURLTUGMZLYLDI-UHFFFAOYSA-N
Temperature: 298 K
Tabular data in the source: 0
pressure (bar)	uptake (mmol/g)
0.0698796	0.0717002
0.23719	3.93657
0.655465	5.91919
1.1574	7.2744
1.82664	8.15278
3.16512	9.18174
5.08918	9.98483
7.51518	10.562
10.6104	10.9385
13.873	11.1895
17.3865	11.34
20.4817	11.4655
25.9193	11.5157
30.9386	11.5659
36.2089	11.4655
41.6465	11.4153
45.2436	11.3149
49.3427	11.0389
53.5255	10.7377
