Adsorption isotherm of Carbon Dioxide on Mn-MOF-74
DOI: 10.1039/C3sc51319j
Adsorbate Carbon Dioxide: InChIKey CURLTUGMZLYLDI-UHFFFAOYSA-N
Temperature: 343 K
Tabular data in the source: 0
pressure (bar)	uptake (mmol/g)
0.0283209	0.0336993
0.0560491	0.183634
0.102153	0.360829
0.195154	0.565285
0.327551	0.906045
0.506292	1.32859
0.90128	1.98285
1.51273	2.66437
2.56906	3.48219
3.8332	4.0683
5.85561	4.70893
8.5337	5.22688
12.5839	5.74484
17.4958	5.99019
25.4975	6.30369
