Adsorption isotherm of Carbon Dioxide on Mg-MOF-74
DOI: 10.1039/C3sc51319j
Adsorbate Carbon Dioxide: InChIKey CURLTUGMZLYLDI-UHFFFAOYSA-N
Temperature: 393 K
Tabular data in the source: 0
pressure (bar)	uptake (mmol/g)
0.0175841	0.164917
0.0372713	0.365689
0.0558534	0.482807
0.086653	0.767234
0.14409	1.10185
0.239598	1.60378
0.384834	2.25629
0.557047	2.94227
0.884431	3.82901
1.65084	4.91653
2.9422	5.90366
6.09379	6.99117
10.6124	7.84445
17.6467	8.7312
25.5436	9.36698
28.6731	9.48409
