Adsorption isotherm of Nitrogen on MOF-74-Ni
DOI: 10.1039/C3sc51319j
Adsorbate Nitrogen: InChIKey IJGRMHOSHXDMSA-UHFFFAOYSA-N
Temperature: 298 K
Tabular data in the source: 0
pressure (bar)	uptake (mmol/g)
0.122577	0.196721
0.550102	0.590164
1.09971	1.08197
1.52698	1.42623
1.95426	1.77049
2.25921	1.96721
2.56415	2.16393
2.80806	2.31148
2.99093	2.40984
3.29538	2.5082
4.14869	2.95082
5.24491	3.34426
6.28008	3.68852
7.43634	3.93443
8.53182	4.18033
9.68783	4.37705
10.9046	4.57377
14.1893	4.96721
17.5955	5.36066
