Adsorption isotherm of Carbon Dioxide on MOF-74-Co
DOI: 10.1039/C3sc51319j
Adsorbate Carbon Dioxide: InChIKey CURLTUGMZLYLDI-UHFFFAOYSA-N
Temperature: 473 K
Tabular data in the source: 0
pressure (bar)	uptake (mmol/g)
0.0597908	0.0609601
0.0892117	0.0745905
0.127989	0.0745905
0.206555	0.0745905
0.320524	0.115482
0.537976	0.224525
0.953932	0.40172
1.36857	0.538024
1.91776	0.71522
2.83906	0.987828
4.58182	1.50578
6.62514	2.10552
10.7762	3.04602
15.3394	3.7548
18.6637	4.09556
23.0677	4.49084
27.6299	4.8316
33.0943	5.10421
36.6482	5.13147
