Adsorption isotherm of Methane on Mn-MOF-74
DOI: 10.1039/C3sc51319j
Adsorbate Methane: InChIKey VNWKTOKETHGBQD-UHFFFAOYSA-N
Temperature: 298 K
Tabular data in the source: 0
pressure (bar)	uptake (mmol/g)
0.307069	0.073136
2.64941	2.377
4.99175	3.82256
9.50913	5.20788
14.1938	6.03607
21.2208	6.78897
29.419	7.12024
36.948	7.36117
45.3135	7.43646
55.1848	7.34611
64.2196	7.30094
74.7601	7.1353
82.1217	6.99978
92.6623	6.75885
98.3508	6.62333
