Adsorption isotherm of Methane on MOF-74-Co
DOI: 10.1039/C3sc51319j
Adsorbate Methane: InChIKey VNWKTOKETHGBQD-UHFFFAOYSA-N
Temperature: 343 K
Tabular data in the source: 0
pressure (bar)	uptake (mmol/g)
0.307069	0.0430201
3.15134	1.50364
6.83217	2.72333
10.513	3.61175
16.0342	4.45499
21.3882	5.1326
27.4113	5.53916
35.1076	5.96078
44.6443	6.277
60.5387	6.47275
72.0831	6.53298
84.4641	6.57816
90.1526	6.51792
100.86	6.36734
