Adsorption isotherm of Carbon Dioxide on Mn-MOF-74
DOI: 10.1039/C3sc51319j
Adsorbate Carbon Dioxide: InChIKey CURLTUGMZLYLDI-UHFFFAOYSA-N
Temperature: 278 K
Tabular data in the source: 0
pressure (bar)	uptake (mmol/g)
0.138104	0.083392
0.138104	2.76695
0.348579	5.45051
0.76953	7.0817
1.61143	8.55502
2.10254	9.42323
3.22508	10.1073
5.32983	10.7913
7.5749	11.3175
10.2409	11.5806
15.7834	11.8437
21.4663	11.8963
25.8161	11.9226
28.4821	11.87
31.2183	11.7911
33.4634	11.7122
35.9189	11.6858
