Adsorption isotherm of Carbon Dioxide on Mg-MOF-74
DOI: 10.1039/C3sc51319j
Adsorbate Carbon Dioxide: InChIKey CURLTUGMZLYLDI-UHFFFAOYSA-N
Temperature: 343 K
Tabular data in the source: 0
pressure (bar)	uptake (mmol/g)
0.00531139	0.0956912
0.0114281	0.296829
0.0182839	0.403314
0.0355193	0.793757
0.0846442	1.39717
0.156246	2.15439
0.329382	2.95894
0.50588	3.38488
0.982751	4.00013
1.92875	4.54438
3.52412	5.13596
6.50523	5.88136
10.4078	6.4966
15.5023	6.9817
22.1659	7.4313
28.325	7.64427
