Adsorption isotherm of Nitrogen on MOF-74-Co
DOI: 10.1039/C3sc51319j
Adsorbate Nitrogen: InChIKey IJGRMHOSHXDMSA-UHFFFAOYSA-N
Temperature: 298 K
Tabular data in the source: 0
pressure (bar)	uptake (mmol/g)
0.122824	0.0980586
0.491296	0.392235
0.798105	0.588201
0.982341	0.735289
1.2889	0.882076
1.65712	1.12707
1.96368	1.27386
2.45447	1.56773
2.88335	1.71422
3.25133	1.91004
4.53847	2.44786
5.82486	2.83814
7.17242	3.22826
8.27482	3.52064
9.62163	3.76323
10.9684	4.00582
14.3348	4.48934
17.823	4.87421
