Adsorption isotherm of Carbon Dioxide on MOF-74-Co
DOI: 10.1039/C3sc51319j
Adsorbate Carbon Dioxide: InChIKey CURLTUGMZLYLDI-UHFFFAOYSA-N
Temperature: 278 K
Tabular data in the source: 0
pressure (bar)	uptake (mmol/g)
0.0559037	0.0215072
0.0679455	3.71409
0.348579	7.39741
0.909847	9.02859
1.68159	9.81787
2.45333	10.423
3.71618	10.9755
5.32983	11.4491
7.43458	11.8174
9.81997	12.0805
12.9069	12.1857
15.5028	12.291
18.4495	12.3173
22.238	12.3436
25.6056	12.3699
28.2716	12.3173
31.2183	12.212
33.8843	12.0805
36.5503	11.9226
