Adsorption isotherm of Methane on MOF-74-Ni
DOI: 10.1039/C3sc51319j
Adsorbate Methane: InChIKey VNWKTOKETHGBQD-UHFFFAOYSA-N
Temperature: 298 K
Tabular data in the source: 0
pressure (bar)	uptake (mmol/g)
0.307069	0.0881939
2.31479	2.18124
3.65327	3.47622
5.15906	4.47005
8.00334	5.28317
10.8476	5.91561
18.2093	6.5631
26.9094	7.01483
39.7923	7.33105
49.9982	7.40634
62.7138	7.28588
72.2504	7.19553
83.7948	7.01483
92.8296	6.87931
102.032	6.68356
