Adsorption isotherm of Methane on MOF-74-Co
DOI: 10.1039/C3sc51319j
Adsorbate Methane: InChIKey VNWKTOKETHGBQD-UHFFFAOYSA-N
Temperature: 298 K
Tabular data in the source: 0
pressure (bar)	uptake (mmol/g)
0.307069	0.0881939
2.14748	2.54263
4.32251	3.94302
7.50141	5.238
10.3457	5.84032
14.1938	6.54804
21.3882	7.02989
29.2517	7.40634
39.2903	7.66233
49.9982	7.72256
60.0368	7.64727
70.7447	7.5268
85.1333	7.37622
94.0008	7.22565
104.207	7.01483
