Adsorption isotherm of Carbon Dioxide on Mn-MOF-74
DOI: 10.1039/C3sc51319j
Adsorbate Carbon Dioxide: InChIKey CURLTUGMZLYLDI-UHFFFAOYSA-N
Temperature: 278 K
Tabular data in the source: 0
pressure (bar)	uptake (mmol/g)
0.00344675	0.112771
0.0078658	0.362771
0.0163083	0.812771
0.0295626	1.43777
0.0714622	2.53777
0.119971	3.61277
0.290008	5.18777
0.817353	7.06277
1.69464	8.58777
2.63477	9.68777
4.17583	10.4878
8.4933	11.3628
13.2051	11.7378
18.6528	11.8878
