Adsorption isotherm of Carbon Dioxide on MOF-74-Co
DOI: 10.1039/C3sc51319j
Adsorbate Carbon Dioxide: InChIKey CURLTUGMZLYLDI-UHFFFAOYSA-N
Temperature: 473 K
Tabular data in the source: 0
pressure (bar)	uptake (mmol/g)
0	0
2.16126	0.73425
5.92574	1.81842
7.93346	2.34043
10.6941	2.96951
15.5461	3.66552
19.7288	4.14738
24.2462	4.52215
28.7636	4.87016
33.5319	5.0977
40.057	5.24493
43.8215	5.24493
47.9206	5.17801
50.7649	5.00401
