Adsorption isotherm of Carbon Dioxide on MOF-74-Ni
DOI: 10.1039/C3sc51319j
Adsorbate Carbon Dioxide: InChIKey CURLTUGMZLYLDI-UHFFFAOYSA-N
Temperature: 343 K
Tabular data in the source: 0
pressure (bar)	uptake (mmol/g)
0.00613232	0.0745905
0.0104145	0.0745905
0.0151776	0.170003
0.0337892	0.251786
0.0594464	0.456242
0.130795	0.946937
0.202168	1.35585
0.35989	2.02374
0.720681	2.82793
0.990263	3.25048
1.70167	3.7548
2.59948	4.09556
4.41468	4.59989
6.9045	5.09058
10.4239	5.55401
14.3232	5.86751
26.7266	6.31732
