Adsorption isotherm of Carbon Dioxide on MOF-74-Ni
DOI: 10.1039/C3sc51319j
Adsorbate Carbon Dioxide: InChIKey CURLTUGMZLYLDI-UHFFFAOYSA-N
Temperature: 278 K
Tabular data in the source: 0
pressure (bar)	uptake (mmol/g)
0.000442327	0.0127706
0.000674647	0.112771
0.00124665	0.287771
0.00221689	0.587771
0.00442327	1.16277
0.00801819	1.86277
0.0119971	2.53777
0.0179505	3.33777
0.0244011	3.93777
0.0417583	4.71277
0.0865785	5.56277
0.172747	6.11277
0.273785	6.46277
0.43392	7.08777
0.833188	8.13777
1.24665	8.81277
2.44011	10.1128
3.58159	10.8628
4.86866	11.3378
7.71631	11.8128
11.7691	12.1628
15.6943	12.2378
19.758	12.2878
