Adsorption isotherm of Carbon Dioxide on Zn-MOF-74
DOI: 10.1039/C3sc51319j
Adsorbate Carbon Dioxide: InChIKey CURLTUGMZLYLDI-UHFFFAOYSA-N
Temperature: 298 K
Tabular data in the source: 0
pressure (bar)	uptake (mmol/g)
0.00414863	0.0676624
0.047482	0.712662
0.0991486	1.28266
0.165815	2.06266
0.257482	2.88766
0.340815	3.48766
0.409149	3.87766
0.484149	4.23766
0.547482	4.55266
0.652482	4.92766
0.754149	5.25766
0.879149	5.57266
0.974149	5.81266
0.987482	5.84266
