Adsorption isotherm of Carbon Dioxide on MOF-74-Ni
DOI: 10.1039/C3sc51319j
Adsorbate Carbon Dioxide: InChIKey CURLTUGMZLYLDI-UHFFFAOYSA-N
Temperature: 298 K
Tabular data in the source: 0
pressure (bar)	uptake (mmol/g)
0.00414863	0.00766236
0.00748196	0.937662
0.027482	2.09266
0.047482	2.88766
0.0691486	3.60766
0.0858153	3.93766
0.120815	4.47766
0.175815	4.91266
0.245815	5.28766
0.337482	5.61766
0.467482	5.91766
0.589149	6.15766
0.714149	6.38266
0.829149	6.60766
0.920815	6.72766
0.975815	6.78766
