Adsorption isotherm of Carbon Dioxide on MOF-74-Co
DOI: 10.1039/C3sc51319j
Adsorbate Carbon Dioxide: InChIKey CURLTUGMZLYLDI-UHFFFAOYSA-N
Temperature: 298 K
Tabular data in the source: 0
pressure (bar)	uptake (mmol/g)
0.00414863	0.0676624
0.037482	1.19266
0.0641486	1.85266
0.0908153	2.49766
0.129149	3.15766
0.152482	3.51766
0.197482	4.10266
0.242482	4.47766
0.312482	4.92766
0.414149	5.42266
0.537482	5.87266
0.675815	6.23266
0.777482	6.45766
0.859149	6.62266
0.937482	6.77266
0.980815	6.86266
