Adsorption isotherm of Methane on Mg-MOF-74
DOI: 10.1039/C3sc51319j
Adsorbate Methane: InChIKey VNWKTOKETHGBQD-UHFFFAOYSA-N
Temperature: 298 K
Tabular data in the source: 0
pressure (bar)	uptake (mmol/g)
0.307069	0.0881939
1.14362	1.53375
3.48596	3.38588
6.49755	4.75615
11.3495	5.82526
15.0304	6.65344
19.715	7.33105
28.5825	7.93337
37.1153	8.23453
47.9905	8.43028
58.3637	8.47545
73.7562	8.38511
82.791	8.24958
92.495	8.06889
103.37	7.8129
