Adsorption isotherm of Carbon Dioxide on Mg-MOF-74
DOI: 10.1039/C3sc51319j
Adsorbate Carbon Dioxide: InChIKey CURLTUGMZLYLDI-UHFFFAOYSA-N
Temperature: 298 K
Tabular data in the source: 0
pressure (bar)	uptake (mmol/g)
0.00414863	0.00766236
0.00414863	1.95766
0.00914863	2.33266
0.0141486	2.94766
0.017482	3.66766
0.0258153	4.37266
0.032482	4.82266
0.047482	5.19766
0.0591486	5.57266
0.0791486	5.91766
0.105815	6.21766
0.155815	6.56266
0.210815	6.87766
0.272482	7.08766
0.330815	7.29766
0.399149	7.47766
0.485815	7.73266
0.594149	8.00266
0.709149	8.21266
0.862482	8.55766
0.954149	8.72266
0.980815	8.73766
