Adsorption isotherm of Methane on Mg-MOF-74
DOI: 10.1039/C3sc51319j
Adsorbate Methane: InChIKey VNWKTOKETHGBQD-UHFFFAOYSA-N
Temperature: 343 K
Tabular data in the source: 0
pressure (bar)	uptake (mmol/g)
0.64169	0.0279622
2.81672	1.5187
6.33024	2.6631
12.3534	3.89785
20.8862	4.93684
27.5786	5.65962
36.7807	6.23182
44.6443	6.54804
53.679	6.74379
65.558	6.90943
77.4371	6.87931
88.8141	6.81908
101.195	6.6685
