Adsorption isotherm of Carbon Dioxide on Mg-MOF-74
DOI: 10.1039/C3sc51319j
Adsorbate Carbon Dioxide: InChIKey CURLTUGMZLYLDI-UHFFFAOYSA-N
Temperature: 278 K
Tabular data in the source: 0
pressure (bar)	uptake (mmol/g)
0.0559037	0.0466037
0.189752	5.54274
0.457448	7.75124
0.992841	9.60838
1.86285	11.4153
3.6698	12.8207
5.6106	13.7242
9.02373	14.3767
14.3777	14.8536
21.0701	15.2049
30.1048	15.3304
36.2618	15.6817
