Adsorption isotherm of Carbon Dioxide on Mg-MOF-74
DOI: 10.1039/C3sc51319j
Adsorbate Carbon Dioxide: InChIKey CURLTUGMZLYLDI-UHFFFAOYSA-N
Temperature: 473 K
Tabular data in the source: 0
pressure (bar)	uptake (mmol/g)
0.0547577	0.0516249
0.092056	0.101851
0.139526	0.156373
0.206555	0.265416
0.366261	0.456242
0.59109	0.647068
1.05637	1.05598
1.52747	1.39674
2.27909	1.94196
3.3476	2.52806
5.40253	3.46856
8.31793	4.31365
11.4743	4.98154
16.2055	5.58127
20.8308	6.09923
28.0669	6.56266
36.9368	6.68534
