Adsorption isotherm of Carbon Dioxide on MOF-74-Co
DOI: 10.1039/C3sc51319j
Adsorbate Carbon Dioxide: InChIKey CURLTUGMZLYLDI-UHFFFAOYSA-N
Temperature: 393 K
Tabular data in the source: 0
pressure (bar)	uptake (mmol/g)
0.0408817	0.0812622
0.0827382	0.131455
0.142434	0.282034
0.288265	0.566462
0.639916	1.15205
0.981381	1.67071
1.68945	2.59091
2.62107	3.49439
3.75039	4.33094
5.81849	5.25115
7.59022	5.83673
11.5067	6.65655
16.4645	7.34252
23.0201	7.84445
27.0631	8.02849
