Adsorption isotherm of Carbon Dioxide on Mn-MOF-74
DOI: 10.1039/C3sc51319j
Adsorbate Carbon Dioxide: InChIKey CURLTUGMZLYLDI-UHFFFAOYSA-N
Temperature: 298 K
Tabular data in the source: 0
pressure (bar)	uptake (mmol/g)
0.00765523	0.124103
0.0155002	0.339526
0.0291611	0.602821
0.0517294	1.15335
0.107866	2.06291
0.22825	3.523
0.455416	4.93522
1.09998	6.5868
2.77656	8.54955
4.25218	9.43518
8.8666	10.7995
14.401	11.4219
22.7124	11.733
33.2828	11.6373
