Adsorption isotherm of Carbon Dioxide on Mn-MOF-74
DOI: 10.1039/C3sc51319j
Adsorbate Carbon Dioxide: InChIKey CURLTUGMZLYLDI-UHFFFAOYSA-N
Temperature: 473 K
Tabular data in the source: 0
pressure (bar)	uptake (mmol/g)
0.0597908	0.0609601
0.0878227	0.0609601
0.159435	0.0882209
0.263433	0.115482
0.38694	0.183634
0.61474	0.251786
1.16981	0.415351
2.05808	0.687959
3.21881	1.06961
5.07384	1.54667
7.81186	2.26909
10.8611	2.80067
13.6362	3.29137
17.9457	3.78206
20.1871	4.00015
24.9505	4.46358
28.9617	4.6953
34.6896	4.77708
