Adsorption isotherm of Carbon Dioxide on Mg-MOF-74
DOI: 10.1039/C3sc51319j
Adsorbate Carbon Dioxide: InChIKey CURLTUGMZLYLDI-UHFFFAOYSA-N
Temperature: 298 K
Tabular data in the source: 0
pressure (bar)	uptake (mmol/g)
0.000741187	0.137771
0.00123006	0.387771
0.00220425	0.662771
0.00439806	1.26277
0.00800315	2.03777
0.0152497	3.16277
0.0269109	4.08777
0.0570945	5.08777
0.14123	6.03777
0.354754	6.83777
0.616493	7.51277
1.02312	8.18777
1.83342	9.26277
3.18611	10.3878
4.60533	11.4128
6.86427	12.3628
10.0754	13.1128
15.4856	13.7378
21.7067	14.1378
29.0577	14.2878
36.5815	14.2628
