Adsorption isotherm of Methane on ZIF-8
DOI: 10.1016/j.procs.2011.04.128
Adsorbate Methane: InChIKey VNWKTOKETHGBQD-UHFFFAOYSA-N
Temperature: 298 K
Tabular data in the source: 0
pressure (bar)	uptake (mmol/g)
0.105849	0.00561717
1.04951	-0.000937
10.8335	0.0187264
103.179	0.0908272
982.688	0.287466
5327.62	0.641415
10143.7	0.883936
19313.5	1.25755
32590.3	1.63772
