Adsorption isotherm of Ethane on ZIF-10
DOI: 10.1016/j.procs.2011.04.128
Adsorbate Ethane: InChIKey OTMSDBZUPAUEDD-UHFFFAOYSA-N
Temperature: 298 K
Tabular data in the source: 0
pressure (bar)	uptake (mmol/g)
0.0988846	0.102374
1.01051	1.04624
9.96915	2.32221
109.31	3.91279
192.028	4.31481
314.399	4.64691
