Adsorption isotherm of N-propane on ZIF-8
DOI: 10.1016/j.procs.2011.04.128
Adsorbate N-propane: InChIKey ATUOYWHBWRKTHZ-UHFFFAOYSA-N
Temperature: 298 K
Tabular data in the source: 0
pressure (bar)	uptake (mmol/g)
1.12088e-05	-0.000937
9.84973e-05	0.0121718
0.00105849	0.0383903
0.0109261	0.366121
0.0999564	1.93268
0.991091	3.27637
9.06688	3.44679
57.742	3.15839
97.4358	3.0273
201.067	2.70612
300.698	2.50948
