Adsorption isotherm of Ethane on ZIF-8
DOI: 10.1016/j.procs.2011.04.128
Adsorbate Ethane: InChIKey OTMSDBZUPAUEDD-UHFFFAOYSA-N
Temperature: 298 K
Tabular data in the source: 0
pressure (bar)	uptake (mmol/g)
9.93e-06	-0.0140467
0.000115702	-0.000937
0.000976623	0.00561717
0.011842	0.0514995
0.0922259	0.516878
1.07417	0.8315
9.82688	1.15923
51.1746	1.62461
105.603	1.8278
209.324	2.07032
277.442	2.19486
