Adsorption isotherm of N-propane on ZIF-10
DOI: 10.1016/j.procs.2011.04.128
Adsorbate N-propane: InChIKey ATUOYWHBWRKTHZ-UHFFFAOYSA-N
Temperature: 298 K
Tabular data in the source: 0
pressure (bar)	uptake (mol/g)
0.001016	0.0149791
0.0100233	0.0324581
0.0921595	0.294643
1.04673	5.78305
9.96915	8.07279
113.228	7.33868
206.04	6.93666
337.341	6.55212
