Adsorption isotherm of Hydrogen on ZIF-8
DOI: 10.1016/j.procs.2011.04.128
Adsorbate Hydrogen: InChIKey UFHFLCQGNIYNRP-UHFFFAOYSA-N
Temperature: 77 K
Tabular data in the source: 0
pressure (bar)	uptake (cm3(STP)/g)
0.100144	20.2256
0.194094	38.7534
0.298968	56.5819
0.401657	72.6626
0.502161	88.0441
0.60485	101.678
0.70317	114.263
0.803674	124.75
0.906363	136.286
1.00905	145.375
