Adsorption isotherm of Methane on ZIF-10
DOI: 10.1016/j.procs.2011.04.128
Adsorbate Methane: InChIKey VNWKTOKETHGBQD-UHFFFAOYSA-N
Temperature: 298 K
Tabular data in the source: 0
pressure (bar)	uptake (mmol/g)
0.001016	0.0149791
0.0988846	0.0149791
1.08425	0.137332
10.6966	0.556828
98.3503	1.64053
206.04	2.21733
303.52	2.63683
