Adsorption isotherm of Hydrogen on ZIF-8
DOI: 10.1016/j.procs.2011.04.128
Adsorbate Hydrogen: InChIKey UFHFLCQGNIYNRP-UHFFFAOYSA-N
Temperature: 77 K
Tabular data in the source: 0
pressure (bar)	uptake (cm3(STP)/g)
0.0171192	2.39706
0.0477074	10.0878
0.0717411	13.9332
0.0979595	20.2256
0.207203	38.4038
0.242161	45.3954
0.307707	56.2324
0.408212	71.9634
0.447539	77.5567
0.513086	87.345
0.611405	100.279
0.650733	104.474
0.709724	112.515
0.808044	123.701
0.849556	127.547
0.915102	134.538
1.00687	142.229
