Adsorption isotherm of Methane on SWNT
DOI: 10.1021/la902192a
Adsorbate Methane: InChIKey VNWKTOKETHGBQD-UHFFFAOYSA-N
Temperature: 123 K
Tabular data in the source: 0
pressure (bar)	uptake (cm3(STP)/g)
0.00185988	43.635
0.00529589	51.5005
0.0136363	64.6098
0.0396176	82.9627
0.0941211	98.2568
0.190357	110.929
0.327745	123.164
0.599405	141.517
0.991306	167.299
