Adsorption isotherm of Methane on SWNT
DOI: 10.1021/la902192a
Adsorbate Methane: InChIKey VNWKTOKETHGBQD-UHFFFAOYSA-N
Temperature: 83 K
Tabular data in the source: 0
pressure (bar)	uptake (cm3(STP)/g)
1.41e-09	33.4283
5.26e-05	68.6048
0.00015	88.4871
0.000374	122.134
0.000455	158.84
0.000631	210.84
0.000935	250.605
0.00346	296.487
0.0137	322.487
0.0263	357.664
0.032	395.899
0.0389	443.311
0.0389	483.075
0.0389	512.134
0.0473	671.193
