Adsorption isotherm of Methane on SWNT
DOI: 10.1021/la902192a
Adsorbate Methane: InChIKey VNWKTOKETHGBQD-UHFFFAOYSA-N
Temperature: 113 K
Tabular data in the source: 0
pressure (bar)	uptake (cm3(STP)/g)
1.41e-09	6.24214
1.43e-06	8.42701
1.3e-05	8.42701
0.000186	17.1665
0.00103	43.385
0.00543	98.0068
0.0125	172.293
0.0183	244.393
0.0242	303.385
0.0377	377.671
0.0655	473.805
0.114	539.351
0.198	600.528
0.385	714.141
0.567	805.906
