Adsorption isotherm of Methane on SWNT
DOI: 10.1021/la902192a
Adsorbate Methane: InChIKey VNWKTOKETHGBQD-UHFFFAOYSA-N
Temperature: 83 K
Tabular data in the source: 0
pressure (bar)	uptake (cm3(STP)/g)
3.5e-08	5.99265
2.05e-07	12.9843
1.08e-06	17.354
4.31e-06	23.4716
1.82e-05	33.959
4.66e-05	44.4464
6.86e-05	55.8078
0.000133	75.9086
0.000232	145.825
0.000341	181.657
0.000977	234.967
0.00212	243.707
0.0033	263.808
0.00945	304.009
