Adsorption isotherm of Methane on SWNT
DOI: 10.1021/la902192a
Adsorbate Methane: InChIKey VNWKTOKETHGBQD-UHFFFAOYSA-N
Temperature: 113 K
Tabular data in the source: 0
pressure (bar)	uptake (cm3(STP)/g)
1.43e-06	14.9816
7.92e-06	17.1665
2.03e-05	34.6455
4.66e-05	76.1581
6.86e-05	124.225
0.000126061	167.923
0.000322962	211.62
0.00160741	270.612
0.00677642	340.528
0.0155419	386.41
0.0337268	491.284
0.0655207	604.898
0.150274	690.108
0.633515	845.234
