Adsorption isotherm of Methane on SWNT
DOI: 10.1021/la902192a
Adsorbate Methane: InChIKey VNWKTOKETHGBQD-UHFFFAOYSA-N
Temperature: 93 K
Tabular data in the source: 0
pressure (bar)	uptake (cm3(STP)/g)
1.41e-09	6.24214
1.43e-06	8.42701
1.54e-05	21.5363
0.000219	52.1245
0.000663	108.931
0.000741	143.889
0.00136	248.763
0.00265	355.822
0.0033	410.444
0.00757	504.393
0.0164	552.461
0.0319	602.713
0.0732	711.956
