Adsorption isotherm of Methane on SWNT
DOI: 10.1021/la902192a
Adsorbate Methane: InChIKey VNWKTOKETHGBQD-UHFFFAOYSA-N
Temperature: 93 K
Tabular data in the source: 0
pressure (bar)	uptake (cm3(STP)/g)
1.74e-07	8.42701
3.57e-07	25.906
9.67e-07	58.6791
1.51e-06	124.225
3.09e-06	174.477
6.35e-06	213.805
1.82e-05	235.654
7.66e-05	277.167
0.000185702	285.906
0.000663115	351.452
0.00152087	397.335
0.00224041	462.881
0.0031227	554.646
0.00543083	635.486
0.0173609	674.814
0.0285676	711.956
0.0692488	773.133
