Adsorption isotherm of Methane on SWNT
DOI: 10.1021/la902192a
Adsorbate Methane: InChIKey VNWKTOKETHGBQD-UHFFFAOYSA-N
Temperature: 83 K
Tabular data in the source: 0
pressure (bar)	uptake (cm3(STP)/g)
1.41e-09	4.05726
1.09e-08	14.9816
3.5e-08	21.5363
7.18e-08	56.4942
1.18e-07	95.822
2.56e-07	148.259
5.26e-07	191.956
1.02e-06	218.175
3.09e-06	242.209
1.1e-05	277.167
3.94e-05	305.57
7.66e-05	327.419
0.000157	349.267
0.000289	397.335
0.000426	484.73
0.000627	567.755
0.0017	639.856
0.0039	685.738
0.00846	718.511
0.0242	777.503
