Adsorption isotherm of Methane on SWNT
DOI: 10.1021/la902192a
Adsorbate Methane: InChIKey VNWKTOKETHGBQD-UHFFFAOYSA-N
Temperature: 93 K
Tabular data in the source: 0
pressure (bar)	uptake (cm3(STP)/g)
1.36e-08	1.62291
8.08e-06	5.99265
3.14e-05	14.7321
8.59e-05	19.9758
0.000318	31.3372
0.000711	41.8246
0.00176	71.5389
0.00238	110.867
0.00322	156.312
0.00481	201.757
0.0197	248.077
0.0378	281.287
0.0595	318.867
