Adsorption isotherm of Methane on SWNT
DOI: 10.1021/la902192a
Adsorbate Methane: InChIKey VNWKTOKETHGBQD-UHFFFAOYSA-N
Temperature: 83 K
Tabular data in the source: 0
pressure (bar)	uptake (cm3(STP)/g)
1.36e-08	2.43436
4.37e-07	14.2327
3.11e-06	23.4091
1.81e-05	31.2747
4.94e-05	47.0058
0.000157182	71.9134
0.000369684	140.081
0.00061139	231.846
0.00101113	302.636
0.00151215	349.829
0.00184923	373.426
0.00393298	399.644
0.00588182	424.552
0.0102293	435.039
0.0169175	461.258
