Adsorption isotherm of Methane on SWNT
DOI: 10.1021/la902192a
Adsorbate Methane: InChIKey VNWKTOKETHGBQD-UHFFFAOYSA-N
Temperature: 113 K
Tabular data in the source: 0
pressure (bar)	uptake (cm3(STP)/g)
1.23e-08	3.74528
9.29e-07	7.67806
6.04e-05	10.2999
0.000247196	15.5436
0.00167222	29.9638
0.00588182	53.5604
0.013155	91.5772
0.0266056	162.367
0.041842	242.334
0.0658038	296.081
0.120347	383.913
0.2201	442.905
0.492267	522.871
