Adsorption isotherm of Methane on SWNT
DOI: 10.1021/la902192a
Adsorbate Methane: InChIKey VNWKTOKETHGBQD-UHFFFAOYSA-N
Temperature: 93 K
Tabular data in the source: 0
pressure (bar)	uptake (cm3(STP)/g)
1.19e-11	27.3107
0.000101	54.8401
0.000288	67.0754
0.00107	85.4283
0.00168	112.958
0.00249	158.84
0.00324	200.134
0.00665	258.252
0.0216	299.546
0.0505	330.134
0.091	369.899
0.104	423.428
0.126	463.193
0.135	518.252
