Adsorption isotherm of Methane on SWNT
DOI: 10.1021/la902192a
Adsorbate Methane: InChIKey VNWKTOKETHGBQD-UHFFFAOYSA-N
Temperature: 83 K
Tabular data in the source: 0
pressure (bar)	uptake (cm3(STP)/g)
1.41e-09	6.24214
2.22e-06	25.906
1.63e-05	43.385
9.04e-05	89.2673
0.000219	189.772
0.000476	340.528
0.000783	427.923
0.00109	475.99
0.0018	508.763
0.0046	550.276
0.00894	587.419
0.0229	676.998
