Adsorption isotherm of Methane on SWNT
DOI: 10.1021/la902192a
Adsorbate Methane: InChIKey VNWKTOKETHGBQD-UHFFFAOYSA-N
Temperature: 113 K
Tabular data in the source: 0
pressure (bar)	uptake (cm3(STP)/g)
1.44e-11	2.84008
7.3e-05	41.0754
0.000998	50.2519
0.00623	73.193
0.0189	99.193
0.0443	151.193
0.0473	186.369
0.0615	229.193
0.199	281.193
0.337	325.546
0.568	382.134
0.647	415.781
