Adsorption isotherm of Methane on SWNT
DOI: 10.1021/la902192a
Adsorbate Methane: InChIKey VNWKTOKETHGBQD-UHFFFAOYSA-N
Temperature: 113 K
Tabular data in the source: 0
pressure (bar)	uptake (cm3(STP)/g)
1.46e-06	1.62291
5.75e-05	2.49685
0.000302298	6.8666
0.00143796	16.48
0.00559323	31.3372
0.0138338	54.9338
0.0279784	99.5053
0.051169	155.438
0.126557	232.346
0.243399	281.287
0.517666	355.572
