Adsorption isotherm of Methane on SWNT
DOI: 10.1021/la902192a
Adsorbate Methane: InChIKey VNWKTOKETHGBQD-UHFFFAOYSA-N
Temperature: 103 K
Tabular data in the source: 0
pressure (bar)	uptake (cm3(STP)/g)
0.00139034	66.6697
0.00159263	73.2243
0.00788685	99.4428
0.0167739	107.308
0.0421179	124.35
0.126752	155.813
0.214964	188.586
0.290709	230.535
0.348429	261.997
0.364567	303.947
0.417609	410.132
0.436952	554.333
