Adsorption isotherm of Methane on SWNT
DOI: 10.1021/la902192a
Adsorbate Methane: InChIKey VNWKTOKETHGBQD-UHFFFAOYSA-N
Temperature: 93 K
Tabular data in the source: 0
pressure (bar)	uptake (cm3(STP)/g)
1.23e-08	3.74528
9.29e-07	7.67806
6.61e-06	14.2327
5.2e-05	26.031
0.000202137	33.8965
0.000710991	65.3587
0.000869479	82.4007
0.00167222	123.039
0.00250082	174.165
0.00393298	267.241
0.0045737	305.258
0.00719294	338.031
0.0228785	410.132
0.069199	473.056
