Adsorption isotherm of Methane on SWNT
DOI: 10.1021/la902192a
Adsorbate Methane: InChIKey VNWKTOKETHGBQD-UHFFFAOYSA-N
Temperature: 78 K
Tabular data in the source: 0
pressure (bar)	uptake (cm3(STP)/g)
1.4e-05	67.0754
5.43e-05	126.722
0.000956212	163.428
0.00188587	174.134
0.00275028	201.664
0.00502994	220.017
0.00831859	264.37
0.0099202	342.37
0.0106978	389.781
0.0127575	576.37
