Adsorption isotherm of N-propane, Ethane on Zeolite 5A
DOI: 10.1007/s10450-018-9962-1
Article source: Figure S4c
Adsorbate N-propane: InChIKey ATUOYWHBWRKTHZ-UHFFFAOYSA-N
Adsorbate Ethane: InChIKey OTMSDBZUPAUEDD-UHFFFAOYSA-N
Kind: experiment
Temperature: 300 K
Tabular data in the source: 0
pressure (bar)	N-propane fraction	N-propane uptake (mmol/g)	Ethane fraction	Ethane uptake (mmol/g)	total uptake (mmol/g)
3.45	0.753711	1984.05	0.246289	87.3874	
3.45	0.583396	1879.36	0.416604	229.73	
3.45	0.513208	1891.82	0.486792	266.667	
3.45	0.474717	1774.68	0.525283	317.117	
3.45	0.421635	1804.59	0.578365	348.649	
3.45	0.39195	1677.47	0.60805	397.297	
3.45	0.353459	1722.33	0.646541	447.748	
3.45	0.332579	1595.21	0.667421	495.495	
3.45	0.302138	1650.05	0.697862	518.919	
3.45	0.285535	1522.93	0.714465	548.649	
3.45	0.261132	1570.29	0.738868	586.487	
3.45	0.251069	1455.63	0.748931	607.207	
3.45	0.232453	1515.45	0.767547	638.739	
3.45	0.223145	1395.81	0.776855	669.369	
3.45	0.207296	1455.63	0.792704	700.901	
3.45	0.185409	1403.29	0.814591	809.009	
