Adsorption isotherm of Ethane, Methane on Zeolite 13X
DOI: 10.1007/s10450-018-9962-1
Article source: Figure S4g
Adsorbate Ethane: InChIKey OTMSDBZUPAUEDD-UHFFFAOYSA-N
Adsorbate Methane: InChIKey VNWKTOKETHGBQD-UHFFFAOYSA-N
Kind: experiment
Temperature: 300 K
Tabular data in the source: 0
pressure (bar)	Ethane fraction	Ethane uptake (mmol/g)	Methane fraction	Methane uptake (mmol/g)	total uptake (mmol/g)
3.45	0.733953	2632.11	0.266047	79.1946	
3.45	0.572695	2521.74	0.427305	88.5906	
3.45	0.464904	2414.72	0.535096	181.208	
3.45	0.391422	2324.41	0.608578	228.859	
3.45	0.336526	2234.11	0.663474	251.007	
3.45	0.294782	2157.19	0.705218	322.148	
3.45	0.264475	2076.92	0.735525	359.732	
3.45	0.240172	2010.03	0.759828	397.987	
