Adsorption isotherm of N-propane, Ethane on Zeolite 13X
DOI: 10.1007/s10450-018-9962-1
Article source: Figure S4e
Adsorbate N-propane: InChIKey ATUOYWHBWRKTHZ-UHFFFAOYSA-N
Adsorbate Ethane: InChIKey OTMSDBZUPAUEDD-UHFFFAOYSA-N
Kind: experiment
Temperature: 300 K
Tabular data in the source: 0
pressure (bar)	N-propane fraction	N-propane uptake (mmol/g)	Ethane fraction	Ethane uptake (mmol/g)	total uptake (mmol/g)
6.55	0.338481	2378.33	0.661519	39.7384	
6.55	0.242728	2318.56	0.757272	75.9557	
6.55	0.182239	2261.99	0.817761	98.0885	
6.55	0.141699	2210.23	0.858301	116.7	
6.55	0.112098	2165.3	0.887902	166.499	
6.55	0.089704	2128.79	0.910296	272.133	
6.55	0.077091	2091.07	0.922909	318.913	
