Adsorption isotherm of Ethane on Zeolite 13X
DOI: 10.1007/s10450-018-9962-1
Article source: Figure S3
Adsorbate Ethane: InChIKey OTMSDBZUPAUEDD-UHFFFAOYSA-N
Kind: experiment
Temperature: 300 K
Tabular data in the source: 0
pressure (bar)	uptake (mmol/g)
0.011774	0.054545
0.024178	0.109091
0.04398	0.218182
0.108772	0.725455
0.113259	0.670909
0.160345	0.954545
0.168315	1.02545
0.306165	1.49454
0.334641	1.54909
0.359898	1.62546
0.4096	1.68
0.458687	1.72909
0.505419	1.81091
0.603808	1.85454
0.649382	1.87091
0.807799	1.94182
0.988745	2.05636
1.08948	2.08909
1.15292	2.10545
1.22005	2.12727
1.36626	2.16
