Adsorption isotherm of Ethane, Methane on Zeolite 13X
DOI: 10.1007/s10450-018-9962-1
Article source: Figure S4f
Adsorbate Ethane: InChIKey OTMSDBZUPAUEDD-UHFFFAOYSA-N
Adsorbate Methane: InChIKey VNWKTOKETHGBQD-UHFFFAOYSA-N
Kind: experiment
Temperature: 300 K
Tabular data in the source: 0
pressure (bar)	Ethane fraction	Ethane uptake (mmol/g)	Methane fraction	Methane uptake (mmol/g)	total uptake (mmol/g)
6.55	0.689148	2617.16	0.310852	65.2655	
6.55	0.502793	2481.85	0.497207	142.699	
6.55	0.385719	2353.14	0.614281	232.301	
6.55	0.308236	2231.02	0.691764	314.159	
6.55	0.257335	2108.91	0.742665	353.982	
6.55	0.216897	2013.2	0.783103	455.752	
6.55	0.189466	1910.89	0.810534	515.487	
6.55	0.166843	1828.38	0.833157	571.903	
6.55	0.149028	1745.87	0.850972	630.531	
