Adsorption isotherm of Ethane on Zeolite 5A
DOI: 10.1007/s10450-018-9962-1
Article source: Figure S3
Adsorbate Ethane: InChIKey OTMSDBZUPAUEDD-UHFFFAOYSA-N
Kind: experiment
Temperature: 300 K
Tabular data in the source: 0
pressure (bar)	uptake (mmol/g)
0.085941	0.512687
0.212947	0.948674
0.297088	1.20704
0.497778	1.46136
0.700267	1.60669
0.929362	1.71972
1.46902	1.84083
2.90727	2.02249
4.99438	2.11938
6.91002	2.18397
8.65154	2.20415
9.40257	2.21626
