Adsorption isotherm of N-propane, Methane on Zeolite 13X
DOI: 10.1007/s10450-018-9962-1
Article source: Figure 7
Adsorbate N-propane: InChIKey ATUOYWHBWRKTHZ-UHFFFAOYSA-N
Adsorbate Methane: InChIKey VNWKTOKETHGBQD-UHFFFAOYSA-N
Kind: experiment
Temperature: 300 K
Tabular data in the source: 0
pressure (bar)	N-propane fraction	N-propane uptake (mmol/g)	Methane fraction	Methane uptake (mmol/g)	total uptake (mmol/g)
3.45	0.667525	2530.21	0.332475	25.7768	
3.45	0.471087	2379.18	0.528913	43.2681	
3.45	0.34801	2388.33	0.65199	80.0921	
3.45	0.264949	2341.42	0.735051	154.661	
3.45	0.20917	2297.94	0.79083	195.627	
3.45	0.172489	2265.33	0.827511	238.895	
3.45	0.143691	2227	0.856309	287.227	
3.45	0.122471	2200.69	0.877529	317.606	
