Adsorption isotherm of Ethane, Methane on Zeolite 5A
DOI: 10.1007/s10450-018-9962-1
Article source: Figure S4a
Adsorbate Ethane: InChIKey OTMSDBZUPAUEDD-UHFFFAOYSA-N
Adsorbate Methane: InChIKey VNWKTOKETHGBQD-UHFFFAOYSA-N
Kind: experiment
Temperature: 300 K
Tabular data in the source: 0
pressure (bar)	Ethane fraction	Ethane uptake (mmol/g)	Methane fraction	Methane uptake (mmol/g)	total uptake (mmol/g)
3.45	0.623534	2221.89	0.376466	39.3682	
3.45	0.601165	1916.57	0.398835	128.311	
3.45	0.445825	1916.57	0.554175	207.047	
3.45	0.37468	1825.88	0.62532	284.326	
3.45	0.32	1759.37	0.68	358.688	
3.45	0.278369	1686.82	0.721631	405.346	
3.45	0.247922	1626.36	0.752078	460.753	
3.45	0.21934	1559.85	0.78066	519.077	
3.45	0.198835	1505.44	0.801165	561.361	
3.45	0.183922	1448	0.816078	583.232	
3.45	0.170563	1399.64	0.829437	624.058	
3.45	0.157515	1360.34	0.842485	660.51	
3.45	0.145709	1324.06	0.854291	688.214	
3.45	0.135767	1281.74	0.864233	718.834	
3.45	0.126757	1239.42	0.873243	742.163	
3.45	0.120544	1200.12	0.879456	766.95	
3.45	0.114019	1172.91	0.885981	797.57	
3.45	0.107806	1142.68	0.892194	828.19	
3.45	0.101903	1109.43	0.898097	848.603	
3.45	0.096621	1082.22	0.903379	879.222	
3.45	0.092893	1064.09	0.907107	909.842	
3.45	0.089165	1018.74	0.910835	940.462	
3.45	0.085748	991.536	0.914252	956.501	
3.45	0.08233	976.421	0.91767	979.83	
3.45	0.078291	958.283	0.921709	988.578	
3.45	0.075495	922.007	0.924505	1008.99	
