Adsorption isotherm of N-propane, Methane on Zeolite 5A
DOI: 10.1007/s10450-018-9962-1
Article source: Figure S4b
Adsorbate N-propane: InChIKey ATUOYWHBWRKTHZ-UHFFFAOYSA-N
Adsorbate Methane: InChIKey VNWKTOKETHGBQD-UHFFFAOYSA-N
Kind: experiment
Temperature: 300 K
Tabular data in the source: 0
pressure (bar)	N-propane fraction	N-propane uptake (mmol/g)	Methane fraction	Methane uptake (mmol/g)	total uptake (mmol/g)
3.45	0.730325	1687.88	0.269675	58.8448	
3.45	0.548535	1627.85	0.451465	69.3141	
3.45	0.395249	1558.22	0.604751	89.5307	
3.45	0.310372	1505.4	0.689628	98.917	
3.45	0.245447	1457.38	0.754553	159.567	
3.45	0.193191	1406.96	0.806809	168.953	
3.45	0.170071	1375.75	0.829929	169.675	
3.45	0.142201	1339.74	0.857799	189.531	
3.45	0.125099	1303.72	0.874901	198.556	
3.45	0.10768	1291.72	0.89232	209.386	
3.45	0.095012	1255.7	0.904988	209.025	
3.45	0.087411	1238.9	0.912589	209.025	
3.45	0.077276	1219.69	0.922724	218.773	
3.45	0.071892	1200.48	0.928108	238.989	
3.45	0.047189	1193.28	0.952811	249.458	
