Adsorption isotherm of Methane on Silicalite MFI
DOI: 10.1007/s10450-018-9962-1
Article source: Figure S3
Adsorbate Methane: InChIKey VNWKTOKETHGBQD-UHFFFAOYSA-N
Kind: experiment
Temperature: 300 K
Tabular data in the source: 0
pressure (bar)	uptake (mmol/g)
0.080587	0.060251
0.192408	0.159424
0.379414	0.305266
0.706452	0.500695
1.03566	0.646538
1.4613	0.935307
1.92836	0.952808
2.64392	1.13074
3.876	1.3495
5.41691	1.50993
6.13403	1.52451
7.64317	1.61202
8.90692	1.74036
10.9926	1.71994
11.6419	1.80745
14.5061	1.81911
16.4264	1.90662
