Adsorption isotherm of Methane on Zeolite 13X
DOI: 10.1007/s10450-018-9962-1
Article source: Figure S3
Adsorbate Methane: InChIKey VNWKTOKETHGBQD-UHFFFAOYSA-N
Kind: experiment
Temperature: 300 K
Tabular data in the source: 0
pressure (bar)	uptake (mmol/g)
0.256276	0.141818
0.589339	0.316364
0.957281	0.485455
1.38853	0.670909
1.87272	0.856364
2.34848	1.02545
2.87453	1.2
3.51842	1.35273
3.84567	1.43455
4.30655	1.56
4.90127	1.68
5.62341	1.81091
6.77265	2.00182
8.15674	2.18182
9.51109	2.41091
10.5652	2.51454
11.7361	2.62909
13.2492	2.73273
