Adsorption isotherm of Methane on Zeolite 5A
DOI: 10.1007/s10450-018-9962-1
Article source: Figure S3
Adsorbate Methane: InChIKey VNWKTOKETHGBQD-UHFFFAOYSA-N
Kind: experiment
Temperature: 300 K
Tabular data in the source: 0
pressure (bar)	uptake (mmol/g)
0.356798	0.213956
0.682996	0.399654
1.11615	0.601499
2.03248	0.670127
2.60907	1.09804
3.10748	1.23126
3.82641	1.40888
4.48211	1.52999
5.61172	1.6955
6.96778	1.86909
7.69979	1.94983
9.56043	2.11534
10.1341	2.17589
11.3867	2.26067
12.3752	2.32122
13.2274	2.35755
16.1526	2.55536
17.9987	2.65629
