Adsorption isotherm of Ethane on Silicalite MFI
DOI: 10.1007/s10450-018-9962-1
Article source: Figure S3
Adsorbate Ethane: InChIKey OTMSDBZUPAUEDD-UHFFFAOYSA-N
Kind: experiment
Temperature: 300 K
Tabular data in the source: 0
pressure (bar)	uptake (mmol/g)
0.008275	0.171091
0.026575	0.46861
0.042869	0.61737
0.07982	0.888637
0.127535	1.09573
0.372226	1.43409
0.720095	1.59451
1.39307	1.73452
1.98448	1.78703
2.77342	1.84245
