Adsorption isotherm of N-Butane on Silicalite MFI
DOI: 10.1007/s10450-018-9962-1
Article source: Figure S3
Adsorbate N-Butane: InChIKey IJDNQMDRQITEOD-UHFFFAOYSA-N
Kind: experiment
Temperature: 300 K
Tabular data in the source: 0
pressure (bar)	uptake (mmol/g)
0.000488	0.346102
0.000981	0.652372
0.002254	0.871136
0.004039	1.01114
0.010713	1.13949
0.052908	1.24741
0.17654	1.297
0.375803	1.34075
0.686472	1.35533
0.950249	1.37575
1.12875	1.367
