Adsorption isotherm of N-propane on Silicalite MFI
DOI: 10.1007/s10450-018-9962-1
Article source: Figure S3
Adsorbate N-propane: InChIKey ATUOYWHBWRKTHZ-UHFFFAOYSA-N
Kind: experiment
Temperature: 300 K
Tabular data in the source: 0
pressure (bar)	uptake (mmol/g)
0.001844	0.252763
0.003814	0.474444
0.005591	0.602785
0.008516	0.771963
0.014829	0.964475
0.028145	1.13949
0.067843	1.30283
0.158912	1.40784
0.316373	1.48368
0.706452	1.51868
1.26602	1.55076
1.9656	1.57118
2.42587	1.57118
3.02271	1.56826
3.39029	1.59451
