Adsorption isotherm of N-propane on Zeolite 13X
DOI: 10.1007/s10450-018-9962-1
Article source: Figure S3
Adsorbate N-propane: InChIKey ATUOYWHBWRKTHZ-UHFFFAOYSA-N
Kind: experiment
Temperature: 300 K
Tabular data in the source: 0
pressure (bar)	uptake (mmol/g)
0.002209	0.185455
0.004116	0.381818
0.006318	0.545455
0.00873	0.752727
0.012359	0.998182
0.018367	1.29273
0.038957	1.64727
0.070293	1.86
0.117931	1.98546
0.291667	2.15455
0.618632	2.26909
1.10724	2.33454
1.63223	2.40546
2.31081	2.45455
2.94511	2.47091
