Adsorption isotherm of N-propane on Zeolite 5A
DOI: 10.1007/s10450-018-9962-1
Article source: Figure S3
Adsorbate N-propane: InChIKey ATUOYWHBWRKTHZ-UHFFFAOYSA-N
Kind: experiment
Temperature: 300 K
Tabular data in the source: 0
pressure (bar)	uptake (mmol/g)
0.00551	0.302768
0.01046	0.670127
0.015728	0.916378
0.024248	1.13033
0.057154	1.37255
0.134719	1.53402
0.28976	1.64706
0.862278	1.82065
2.15443	1.92964
2.88317	1.97001
3.18606	1.98212
3.52077	1.99423
