Adsorption isotherm of Carbon Dioxide on Coal
DOI: 10.1260/0144-5987.31.4.645
Article source: Figure 2
Adsorbate Carbon Dioxide: InChIKey CURLTUGMZLYLDI-UHFFFAOYSA-N
Kind: experiment
Temperature: 298 K
Tabular data in the source: 0
pressure (bar)	uptake (mmol/g)
3.13	1.28
21.2	2.02
38.9	2.2
58.3	2.26
