Adsorption isotherm of Nitrogen on Coal
DOI: 10.1260/0144-5987.31.4.645
Article source: Figure 2
Adsorbate Nitrogen: InChIKey IJGRMHOSHXDMSA-UHFFFAOYSA-N
Kind: experiment
Temperature: 298 K
Tabular data in the source: 0
pressure (bar)	uptake (mmol/g)
6.13	0.315
19.3	0.625
37.2	0.791
54.9	0.905
