Adsorption isotherm of Methane on Coal
DOI: 10.1260/0144-5987.31.4.645
Article source: Figure 2
Adsorbate Methane: InChIKey VNWKTOKETHGBQD-UHFFFAOYSA-N
Kind: experiment
Temperature: 298 K
Tabular data in the source: 0
pressure (bar)	uptake (mmol/g)
4.75	0.723
20.5	1.24
35.8	1.41
53	1.53
