Adsorption isotherm of Nitrogen, Methane on Coal
DOI: 10.1260/0144-5987.31.4.645
Article source: Figure 8
Adsorbate Nitrogen: InChIKey IJGRMHOSHXDMSA-UHFFFAOYSA-N
Adsorbate Methane: InChIKey VNWKTOKETHGBQD-UHFFFAOYSA-N
Kind: experiment
Temperature: 298 K
Tabular data in the source: 0
pressure (bar)	Nitrogen fraction	Nitrogen uptake (mmol/g)	Methane fraction	Methane uptake (mmol/g)	total uptake (mmol/g)
5.83	0.5	0.231	0.5	0.341	
18.1	0.5	0.287	0.5	0.725	
35.8	0.5	0.43	0.5	0.993	
