Adsorption isotherm of Carbon Dioxide, Methane on Coal
DOI: 10.1260/0144-5987.31.4.645
Article source: Figure 6
Adsorbate Carbon Dioxide: InChIKey CURLTUGMZLYLDI-UHFFFAOYSA-N
Adsorbate Methane: InChIKey VNWKTOKETHGBQD-UHFFFAOYSA-N
Kind: experiment
Temperature: 298 K
Tabular data in the source: 0
pressure (bar)	Carbon Dioxide fraction	Carbon Dioxide uptake (mmol/g)	Methane fraction	Methane uptake (mmol/g)	total uptake (mmol/g)
3.54	0.5	0.546	0.5	0.472	
17.9	0.5	0.922	0.5	0.796	
37.6	0.5	1.14	0.5	0.908	
