Adsorption isotherm of Methanol, Water on organosilica hybrid prepared from Kromasil 100 and amino-(PHE)1
DOI: 10.1002/jssc.201700668
Article source: Figure 2
Adsorbate Methanol: InChIKey OKKJLVBELUTLKV-UHFFFAOYSA-N
Adsorbate Water: InChIKey XLYOFNOQVPJJNP-UHFFFAOYSA-N
Kind: experiment
Isotherm type: excess
Temperature: 298 K
Tabular data in the source: 0
pressure (bar)	Methanol fraction	Methanol uptake ()	Water fraction	Water uptake ()	total uptake ()
1.01325	0.00144	0			
1.01325	0.01712	0.02841			
1.01325	0.03903	0.05188			
1.01325	0.0577	0.06754			
1.01325	0.0788	0.07942			
1.01325	0.09963	0.0887			
1.01325	0.19839	0.12841			
1.01325	0.29933	0.14609			
1.01325	0.39784	0.14232			
1.01325	0.49934	0.12551			
1.01325	0.60031	0.08			
1.01325	0.69832	0.01014			
1.01325	0.79876	-0.04609			
1.01325	0.89945	-0.06783			
1.01325	0.91731	-0.06522			
1.01325	0.93896	-0.05768			
1.01325	0.95925	-0.04841			
1.01325	0.97873	-0.03159			
1.01325	0.99928	-0.00058			
