Adsorption isotherm of Methanol, Water on organosilica hybrid prepared from Kromasil 100 and amino-(ALA)2
DOI: 10.1002/jssc.201700668
Article source: Figure 2
Adsorbate Methanol: InChIKey OKKJLVBELUTLKV-UHFFFAOYSA-N
Adsorbate Water: InChIKey XLYOFNOQVPJJNP-UHFFFAOYSA-N
Kind: experiment
Isotherm type: excess
Temperature: 298 K
Tabular data in the source: 0
pressure (bar)	Methanol fraction	Methanol uptake ()	Water fraction	Water uptake ()	total uptake ()
1.01325	0.00144	0			
1.01325	0.02146	0.02522			
1.01325	0.03768	0.04406			
1.01325	0.05905	0.06406			
1.01325	0.08015	0.07652			
1.01325	0.10099	0.08319			
1.01325	0.20111	0.09913			
1.01325	0.30072	0.07362			
1.01325	0.40089	0.02174			
1.01325	0.49971	-0.0458			
1.01325	0.60016	-0.11623			
1.01325	0.7006	-0.17362			
1.01325	0.79993	-0.18899			
1.01325	0.89896	-0.14203			
1.01325	0.92006	-0.12406			
1.01325	0.9398	-0.10232			
1.01325	0.95792	-0.07739			
1.01325	0.97982	-0.04522			
1.01325	0.99901	-0.00116			
