Adsorption isotherm of Acetonitrile, Water on organosilica hybrid prepared from Kromasil 100 and amino-(ASP)1
DOI: 10.1002/jssc.201700668
Article source: Figure 2
Adsorbate Acetonitrile: InChIKey WEVYAHXRMPXWCK-UHFFFAOYSA-N
Adsorbate Water: InChIKey XLYOFNOQVPJJNP-UHFFFAOYSA-N
Kind: experiment
Isotherm type: excess
Temperature: 298 K
Tabular data in the source: 0
pressure (bar)	Acetonitrile fraction	Acetonitrile uptake ()	Water fraction	Water uptake ()	total uptake ()
1.01325	-0.00096	-0.0029	0.00012	-0.0091	
1.01325	0.02366	0.0411	0.02043	0.7357	
1.01325	0.05747	0.0768	0.05915	1.9678	
1.01325	0.07831	0.1057	0.08027	2.5779	
1.01325	0.09941	0.1084	0.09949	3.18	
1.01325	0.1979	0.0839	0.19991	5.3945	
1.01325	0.29829	-0.1068	0.29975	5.612	
1.01325	0.40085	-0.4526	0.39903	4.3675	
1.01325	0.49964	-0.9536	0.49964	2.6713	
1.01325	0.59978	-1.5396	0.60053	1.2009	
1.01325	0.69937	-1.9472	0.70197	0.206	
1.01325	0.79813	-1.9155	0.79936	-0.2936	
1.01325	0.89982	-1.2234	0.90109	-0.3733	
1.01325	0.91793	-1.0093	0.91895	-0.306	
1.01325	0.93875	-0.8019	0.94032	-0.2783	
1.01325	0.95632	-0.5534	0.96197	-0.215	
1.01325	0.97768	-0.3297	0.98064	-0.1398	
1.01325	0.9985	0.0026	0.9985	-0.0131	
