Adsorption isotherm of Acetonitrile, Water on organosilica hybrid prepared from Kromasil 100 and amino-(LEU)1
DOI: 10.1002/jssc.201700668
Article source: Figure 2
Adsorbate Acetonitrile: InChIKey WEVYAHXRMPXWCK-UHFFFAOYSA-N
Adsorbate Water: InChIKey XLYOFNOQVPJJNP-UHFFFAOYSA-N
Kind: experiment
Isotherm type: excess
Temperature: 298 K
Tabular data in the source: 0
pressure (bar)	Acetonitrile fraction	Acetonitrile uptake ()	Water fraction	Water uptake ()	total uptake ()
1.01325	-0.00096	-0.0029	0.00012	-0.0091	
1.01325	0.01851	0.0781	0.02287	0.7198	
1.01325	0.04665	0.1413	0.04181	0.9337	
1.01325	0.06423	0.1853	0.06076	1.2189	
1.01325	0.08344	0.2278	0.0797	1.2545	
1.01325	0.09751	0.2855	0.0981	1.3337	
1.01325	0.19868	0.5781	0.19982	1.147	
1.01325	0.2985	0.8349	0.29991	0.1204	
1.01325	0.39806	0.9325	0.3981	-1.2984	
1.01325	0.49818	0.7487	0.49953	-2.4083	
1.01325	0.59777	0.337	0.59909	-2.8009	
1.01325	0.69818	-0.1529	0.69758	-2.4447	
1.01325	0.79858	-0.496	0.79825	-1.6923	
1.01325	0.89923	-0.5261	0.9	-0.9042	
1.01325	0.92061	-0.5137	0.92056	-0.726	
1.01325	0.93792	-0.4546	0.93626	-0.5715	
1.01325	0.95848	-0.375	0.95656	-0.429	
1.01325	0.97633	-0.2898	0.97793	-0.2468	
1.01325	0.99769	-0.0153	0.99823	-0.0289	
