Adsorption isotherm of Acetonitrile, Water on organosilica hybrid prepared from Kromasil 100 and amino-(GLY)1
DOI: 10.1002/jssc.201700668
Article source: Figure 2
Adsorbate Acetonitrile: InChIKey WEVYAHXRMPXWCK-UHFFFAOYSA-N
Adsorbate Water: InChIKey XLYOFNOQVPJJNP-UHFFFAOYSA-N
Kind: experiment
Isotherm type: excess
Temperature: 298 K
Tabular data in the source: 0
pressure (bar)	Acetonitrile fraction	Acetonitrile uptake ()	Water fraction	Water uptake ()	total uptake ()
1.01325	-0.00096	-0.0029	0.00012	-0.0091	
1.01325	0.02257	0.0383	0.02395	0.8704	
1.01325	0.04043	0.0631	0.0448	1.5756	
1.01325	0.07695	0.1084	0.08	2.6492	
1.01325	0.09833	0.1222	0.09949	3.3029	
1.01325	0.19952	0.0523	0.19991	5.4579	
1.01325	0.29964	-0.126	0.29949	5.6635	
1.01325	0.3976	-0.4416	0.39849	4.4547	
1.01325	0.50018	-0.9934	0.49991	2.7386	
1.01325	0.60032	-1.6014	0.60026	1.2603	
1.01325	0.69748	-2.0062	0.69845	0.2377	
1.01325	0.79975	-1.9113	0.80126	-0.2421	
1.01325	0.89792	-1.1932	0.89866	-0.3812	
1.01325	0.91739	-1.0079	0.92111	-0.3298	
1.01325	0.93821	-0.7566	0.94357	-0.2546	
1.01325	0.95713	-0.5232	0.96089	-0.2229	
1.01325	0.97714	-0.3214	0.98172	-0.1676	
1.01325	0.99769	-0.0043	0.99958	-0.021	
