Adsorption isotherm of Methanol, Water on organosilica hybrid prepared from Kromasil 100 and amino-(LEU)2
DOI: 10.1002/jssc.201700668
Article source: Figure 2
Adsorbate Methanol: InChIKey OKKJLVBELUTLKV-UHFFFAOYSA-N
Adsorbate Water: InChIKey XLYOFNOQVPJJNP-UHFFFAOYSA-N
Kind: experiment
Isotherm type: excess
Temperature: 298 K
Tabular data in the source: 0
pressure (bar)	Methanol fraction	Methanol uptake ()	Water fraction	Water uptake ()	total uptake ()
1.01325	0.00144	0			
1.01325	0.0182	0.04174			
1.01325	0.0401	0.07739			
1.01325	0.05956	0.11014			
1.01325	0.07903	0.13884			
1.01325	0.09823	0.16696			
1.01325	0.19883	0.29275			
1.01325	0.29864	0.38406			
1.01325	0.39903	0.41536			
1.01325	0.49864	0.38087			
1.01325	0.59938	0.28493			
1.01325	0.69931	0.16783			
1.01325	0.79897	0.05913			
1.01325	0.89806	-0.00522			
1.01325	0.91918	-0.01246			
1.01325	0.94029	-0.01942			
1.01325	0.95869	-0.01681			
1.01325	0.98088	-0.01275			
1.01325	0.9982	-0.00203			
