Adsorption isotherm of Acetonitrile, Water on organosilica hybrid prepared from Kromasil 100 and amino-(LEU)3
DOI: 10.1002/jssc.201700668
Article source: Figure 2
Adsorbate Acetonitrile: InChIKey WEVYAHXRMPXWCK-UHFFFAOYSA-N
Adsorbate Water: InChIKey XLYOFNOQVPJJNP-UHFFFAOYSA-N
Kind: experiment
Isotherm type: excess
Temperature: 298 K
Tabular data in the source: 0
pressure (bar)	Acetonitrile fraction	Acetonitrile uptake ()	Water fraction	Water uptake ()	total uptake ()
1.01325	-0.00096	-0.0029	0.00012	-0.0091	
1.01325	0.01959	0.1152	0.02368	0.6366	
1.01325	0.03988	0.2209	0.03856	0.8743	
1.01325	0.05881	0.3143	0.05994	1.211	
1.01325	0.08099	0.4255	0.07916	1.2584	
1.01325	0.09722	0.5299	0.09864	1.2425	
1.01325	0.19947	0.994	0.199	0.521	
1.01325	0.29955	1.3758	0.29935	-0.9137	
1.01325	0.39884	1.4528	0.39942	-2.5941	
1.01325	0.49924	1.2155	0.49842	-4.0209	
1.01325	0.59829	0.7255	0.59987	-4.6354	
1.01325	0.6987	0.1601	0.69863	-4.3386	
1.01325	0.79884	-0.3052	0.79795	-3.3049	
1.01325	0.89977	-0.5274	0.89835	-1.9264	
1.01325	0.91952	-0.526	0.91811	-1.6294	
1.01325	0.93954	-0.4848	0.93895	-1.3362	
1.01325	0.95875	-0.3709	0.95871	-1.0431	
1.01325	0.97552	-0.3159	0.97792	-0.7856	
