Adsorption isotherm of Acetonitrile, Water on organosilica hybrid prepared from Kromasil 100 and amino-(LEU)2
DOI: 10.1002/jssc.201700668
Article source: Figure 2
Adsorbate Acetonitrile: InChIKey WEVYAHXRMPXWCK-UHFFFAOYSA-N
Adsorbate Water: InChIKey XLYOFNOQVPJJNP-UHFFFAOYSA-N
Kind: experiment
Isotherm type: excess
Temperature: 298 K
Tabular data in the source: 0
pressure (bar)	Acetonitrile fraction	Acetonitrile uptake ()	Water fraction	Water uptake ()	total uptake ()
1.01325	-0.00096	-0.0029	0.00012	-0.0091	
1.01325	0.0223	0.0946	0.01908	0.5495	
1.01325	0.03961	0.1756	0.0391	0.8228	
1.01325	0.05963	0.2511	0.05994	1.001	
1.01325	0.07992	0.3445	0.07942	1.0801	
1.01325	0.09966	0.431	0.1008	1.0246	
1.01325	0.20082	0.9336	0.19954	0.3348	
1.01325	0.29928	1.347	0.29934	-1.0999	
1.01325	0.39775	1.5585	0.39834	-2.7962	
1.01325	0.4995	1.3829	0.49896	-4.1318	
1.01325	0.59936	0.9026	0.60014	-4.5166	
1.01325	0.69897	0.3097	0.69918	-3.9305	
1.01325	0.79829	-0.1748	0.7985	-2.6472	
1.01325	0.89922	-0.3792	0.89945	-1.2767	
1.01325	0.92033	-0.3599	0.91704	-1.043	
1.01325	0.94008	-0.3393	0.93869	-0.7736	
1.01325	0.95685	-0.2926	0.95709	-0.5359	
1.01325	0.98065	-0.1677	0.9782	-0.3062	
1.01325	0.99877	-0.0015	0.99769	-0.021	
