Adsorption isotherm of Acetonitrile, Water on organosilica hybrid prepared from Kromasil 100 and amino-(ALA)2
DOI: 10.1002/jssc.201700668
Article source: Figure 2
Adsorbate Acetonitrile: InChIKey WEVYAHXRMPXWCK-UHFFFAOYSA-N
Adsorbate Water: InChIKey XLYOFNOQVPJJNP-UHFFFAOYSA-N
Kind: experiment
Isotherm type: excess
Temperature: 298 K
Tabular data in the source: 0
pressure (bar)	Acetonitrile fraction	Acetonitrile uptake (mmol/column)	Water fraction	Water uptake (mmol/column)	total uptake (mmol/column)
1.01325	-0.00096	-0.0029	0.00012	-0.0091	
1.01325	0.02366	0.0452	0.02287	0.7832	
1.01325	0.04151	0.0768	0.04155	1.4646	
1.01325	0.06018	0.0864	0.06131	1.9876	
1.01325	0.08128	0.1029	0.08107	2.4431	
1.01325	0.10022	0.1126	0.10111	2.9146	
1.01325	0.19979	0.055	0.19962	4.5783	
1.01325	0.29964	-0.1	0.30163	4.8117	
1.01325	0.40004	-0.4252	0.39847	3.7058	
1.01325	0.49855	-0.9083	0.4999	2.1998	
1.01325	0.59842	-1.449	0.59998	0.88	
1.01325	0.69828	-1.7824	0.69818	0.0515	
1.01325	0.79811	-1.6437	0.79828	-0.3332	
1.01325	0.90089	-1.0409	0.8992	-0.3891	
1.01325	0.92036	-0.8857	0.91868	-0.3179	
1.01325	0.93793	-0.71	0.93356	-0.2743	
1.01325	0.95903	-0.5356	0.94925	-0.2308	
1.01325	0.97741	-0.3324	0.97063	-0.2032	
1.01325	0.99742	-0.0125	0.99661	-0.0289	
