Adsorption isotherm of Methanol, Water on organosilica hybrid prepared from Kromasil 100 and amino-(LEU)3
DOI: 10.1002/jssc.201700668
Article source: Figure 2
Adsorbate Methanol: InChIKey OKKJLVBELUTLKV-UHFFFAOYSA-N
Adsorbate Water: InChIKey XLYOFNOQVPJJNP-UHFFFAOYSA-N
Kind: experiment
Isotherm type: excess
Temperature: 298 K
Tabular data in the source: 0
pressure (bar)	Methanol fraction	Methanol uptake ()	Water fraction	Water uptake ()	total uptake ()
1.01325	0.00144	0			
1.01325	0.02008	0.06116			
1.01325	0.03899	0.1113			
1.01325	0.05926	0.15826			
1.01325	0.07954	0.2029			
1.01325	0.09927	0.24522			
1.01325	0.19795	0.41652			
1.01325	0.29883	0.52493			
1.01325	0.39813	0.55478			
1.01325	0.49911	0.50116			
1.01325	0.59932	0.38319			
1.01325	0.69873	0.23333			
1.01325	0.79814	0.09507			
1.01325	0.89833	0.00812			
1.01325	0.91836	-0.00348			
1.01325	0.93731	-0.01188			
1.01325	0.95951	-0.0171			
1.01325	0.97953	-0.01275			
1.01325	0.99793	-0.00174			
