Adsorption isotherm of Acetonitrile, Water on organosilica hybrid prepared from Kromasil 100 and amino-(PHE)1
DOI: 10.1002/jssc.201700668
Article source: Figure 2
Adsorbate Acetonitrile: InChIKey WEVYAHXRMPXWCK-UHFFFAOYSA-N
Adsorbate Water: InChIKey XLYOFNOQVPJJNP-UHFFFAOYSA-N
Kind: experiment
Isotherm type: excess
Temperature: 298 K
Tabular data in the source: 0
pressure (bar)	Acetonitrile fraction	Acetonitrile uptake ()	Water fraction	Water uptake ()	total uptake ()
1.01325	-0.00096	-0.0029	0.00012	-0.0091	
1.01325	0.01933	0.063	0.01962	0.7277	
1.01325	0.03853	0.1125	0.03884	1.219	
1.01325	0.05882	0.1427	0.05887	1.5597	
1.01325	0.07993	0.1716	0.08052	1.8211	
1.01325	0.09724	0.2086	0.09919	2.0112	
1.01325	0.19977	0.3818	0.19849	2.2248	
1.01325	0.2996	0.4794	0.30075	1.4715	
1.01325	0.40026	0.4562	0.39948	0.2349	
1.01325	0.49821	0.2284	0.49984	-0.9224	
1.01325	0.59807	-0.1805	0.59966	-1.4775	
1.01325	0.69848	-0.606	0.69923	-1.4542	
1.01325	0.79752	-0.8268	0.79907	-1.1178	
1.01325	0.89843	-0.7087	0.89892	-0.6387	
1.01325	0.91872	-0.6372	0.91786	-0.5477	
1.01325	0.93819	-0.5521	0.93924	-0.4487	
1.01325	0.9601	-0.4436	0.95602	-0.3497	
1.01325	0.97876	-0.2789	0.97875	-0.1953	
1.01325	0.99931	0.004	0.9985	-0.021	
