Adsorption isotherm of Acetonitrile, Water on organosilica hybrid prepared from Kromasil 100 and amino-(PHE)2
DOI: 10.1002/jssc.201700668
Article source: Figure 2
Adsorbate Acetonitrile: InChIKey WEVYAHXRMPXWCK-UHFFFAOYSA-N
Adsorbate Water: InChIKey XLYOFNOQVPJJNP-UHFFFAOYSA-N
Kind: experiment
Isotherm type: excess
Temperature: 298 K
Tabular data in the source: 0
pressure (bar)	Acetonitrile fraction	Acetonitrile uptake ()	Water fraction	Water uptake ()	total uptake ()
1.01325	-0.00096	-0.0029	0.00012	-0.0091	
1.01325	0.01662	0.096	0.01935	0.4979	
1.01325	0.03907	0.1921	0.03991	0.7911	
1.01325	0.0599	0.2827	0.05859	0.898	
1.01325	0.07856	0.3747	0.08077	1.0167	
1.01325	0.09777	0.4667	0.10052	0.9889	
1.01325	0.19946	1.0585	0.19872	-0.0654	
1.01325	0.29791	1.5845	0.29852	-1.7537	
1.01325	0.39855	1.8042	0.39859	-3.4816	
1.01325	0.49894	1.5985	0.49929	-4.8405	
1.01325	0.59908	1.1003	0.59931	-5.2694	
1.01325	0.69841	0.5005	0.69944	-4.5249	
1.01325	0.7991	-0.0828	0.79849	-3.0077	
1.01325	0.89814	-0.3613	0.89809	-1.348	
1.01325	0.92033	-0.3503	0.91866	-1.1024	
1.01325	0.94007	-0.3187	0.93977	-0.841	
1.01325	0.95847	-0.2706	0.96034	-0.5795	
1.01325	0.98119	-0.1553	0.98037	-0.33	
1.01325	0.99904	-0.0002	0.99958	-0.0329	
