Adsorption isotherm of Methanol, Water on organosilica hybrid prepared from Kromasil 100 and amino-(ASP)1
DOI: 10.1002/jssc.201700668
Article source: Figure 2
Adsorbate Methanol: InChIKey OKKJLVBELUTLKV-UHFFFAOYSA-N
Adsorbate Water: InChIKey XLYOFNOQVPJJNP-UHFFFAOYSA-N
Kind: experiment
Isotherm type: excess
Temperature: 298 K
Tabular data in the source: 0
pressure (bar)	Methanol fraction	Methanol uptake ()	Water fraction	Water uptake ()	total uptake ()
1.01325	0.00144	0			
1.01325	0.01686	0.0229			
1.01325	0.03822	0.04232			
1.01325	0.06014	0.0487			
1.01325	0.07855	0.04841			
1.01325	0.09641	0.04986			
1.01325	0.20007	0.02928			
1.01325	0.29861	-0.01072			
1.01325	0.39851	-0.06841			
1.01325	0.4995	-0.13826			
1.01325	0.59995	-0.21072			
1.01325	0.69902	-0.25362			
1.01325	0.79943	-0.24957			
1.01325	0.89898	-0.17478			
1.01325	0.91926	-0.14986			
1.01325	0.93873	-0.12377			
1.01325	0.95738	-0.09159			
1.01325	0.97793	-0.05333			
1.01325	0.99901	-0.00377			
