Adsorption isotherm of Methanol, Water on organosilica hybrid prepared from Kromasil 100 and amino-(GLY)3
DOI: 10.1002/jssc.201700668
Article source: Figure 2
Adsorbate Methanol: InChIKey OKKJLVBELUTLKV-UHFFFAOYSA-N
Adsorbate Water: InChIKey XLYOFNOQVPJJNP-UHFFFAOYSA-N
Kind: experiment
Isotherm type: excess
Temperature: 298 K
Tabular data in the source: 0
pressure (bar)	Methanol fraction	Methanol uptake ()	Water fraction	Water uptake ()	total uptake ()
1.01325	0.00144	0			
1.01325	0.03987	0.0087			
1.01325	0.06044	0.00377			
1.01325	0.08128	-0.00087			
1.01325	0.09915	-0.00522			
1.01325	0.20012	-0.0542			
1.01325	0.29921	-0.11449			
1.01325	0.39912	-0.18174			
1.01325	0.49874	-0.22319			
1.01325	0.59997	-0.25391			
1.01325	0.69877	-0.28232			
1.01325	0.79754	-0.26348			
1.01325	0.89925	-0.17275			
1.01325	0.91818	-0.14725			
1.01325	0.939	-0.1229			
1.01325	0.95765	-0.08841			
1.01325	0.97739	-0.05014			
1.01325	0.99901	0.00058			
