Adsorption isotherm of Methanol, Water on organosilica hybrid prepared from Kromasil 100 and amino-(GLY)1
DOI: 10.1002/jssc.201700668
Article source: Figure 2
Adsorbate Methanol: InChIKey OKKJLVBELUTLKV-UHFFFAOYSA-N
Adsorbate Water: InChIKey XLYOFNOQVPJJNP-UHFFFAOYSA-N
Kind: experiment
Isotherm type: excess
Temperature: 298 K
Tabular data in the source: 0
pressure (bar)	Methanol fraction	Methanol uptake ()	Water fraction	Water uptake ()	total uptake ()
1.01325	0.00144	0			
1.01325	0.03851	0.02493			
1.01325	0.06016	0.02522			
1.01325	0.07937	0.02667			
1.01325	0.10129	0.0258			
1.01325	0.19955	0.00609			
1.01325	0.29781	-0.02957			
1.01325	0.39743	-0.08319			
1.01325	0.49895	-0.13681			
1.01325	0.59912	-0.18957			
1.01325	0.69792	-0.2142			
1.01325	0.79939	-0.19159			
1.01325	0.9003	-0.12551			
1.01325	0.9195	-0.10406			
1.01325	0.93952	-0.08116			
1.01325	0.95682	-0.05884			
1.01325	0.97927	-0.03362			
1.01325	0.99684	-0.00116			
