Adsorption isotherm of Methanol, Water on organosilica hybrid prepared from Kromasil 100 and amino-(PHE)2
DOI: 10.1002/jssc.201700668
Article source: Figure 2
Adsorbate Methanol: InChIKey OKKJLVBELUTLKV-UHFFFAOYSA-N
Adsorbate Water: InChIKey XLYOFNOQVPJJNP-UHFFFAOYSA-N
Kind: experiment
Isotherm type: excess
Temperature: 298 K
Tabular data in the source: 0
pressure (bar)	Methanol fraction	Methanol uptake ()	Water fraction	Water uptake ()	total uptake ()
1.01325	0.00144	0			
1.01325	0.0182	0.04174			
1.01325	0.0401	0.07739			
1.01325	0.05956	0.11014			
1.01325	0.08012	0.13768			
1.01325	0.09904	0.16667			
1.01325	0.19964	0.29304			
1.01325	0.29919	0.37884			
1.01325	0.39904	0.40348			
1.01325	0.49893	0.35188			
1.01325	0.59859	0.24464			
1.01325	0.69853	0.11884			
1.01325	0.79982	0.00058			
1.01325	0.89891	-0.05449			
1.01325	0.91785	-0.05739			
1.01325	0.94004	-0.05449			
1.01325	0.95925	-0.04609			
1.01325	0.97738	-0.03275			
1.01325	0.99874	-0.00058			
