Adsorption isotherm of Methanol, Water on organosilica hybrid prepared from Kromasil 100 and amino-(LEU)1
DOI: 10.1002/jssc.201700668
Article source: Figure 2
Adsorbate Methanol: InChIKey OKKJLVBELUTLKV-UHFFFAOYSA-N
Adsorbate Water: InChIKey XLYOFNOQVPJJNP-UHFFFAOYSA-N
Kind: experiment
Isotherm type: excess
Temperature: 298 K
Tabular data in the source: 0
pressure (bar)	Methanol fraction	Methanol uptake ()	Water fraction	Water uptake ()	total uptake ()
1.01325	0.00144	0			
1.01325	0.0201	0.03246			
1.01325	0.04146	0.05942			
1.01325	0.0558	0.07507			
1.01325	0.08176	0.09594			
1.01325	0.09853	0.11391			
1.01325	0.19754	0.19101			
1.01325	0.29954	0.24348			
1.01325	0.39668	0.26899			
1.01325	0.49764	0.24696			
1.01325	0.59836	0.17681			
1.01325	0.69828	0.08522			
1.01325	0.79901	0.00232			
1.01325	0.89673	-0.04493			
1.01325	0.91622	-0.04957			
1.01325	0.93625	-0.04841			
1.01325	0.95627	-0.04174			
1.01325	0.97927	-0.02928			
1.01325	0.99766	-0.00232			
