Adsorption isotherm of Acetonitrile, Water on organosilica hybrid prepared from Kromasil 100 and amino-(GLY)3
DOI: 10.1002/jssc.201700668
Article source: Figure 2
Adsorbate Acetonitrile: InChIKey WEVYAHXRMPXWCK-UHFFFAOYSA-N
Adsorbate Water: InChIKey XLYOFNOQVPJJNP-UHFFFAOYSA-N
Kind: experiment
Isotherm type: excess
Temperature: 298 K
Tabular data in the source: 0
pressure (bar)	Acetonitrile fraction	Acetonitrile uptake ()	Water fraction	Water uptake ()	total uptake ()
1.01325	-0.00096	-0.0029	0.00012	-0.0091	
1.01325	0.02257	0.0383	0.01773	0.8387	
1.01325	0.04232	0.0631	0.03939	1.5716	
1.01325	0.06018	0.0809	0.06051	2.3164	
1.01325	0.07993	0.0988	0.08163	3.0216	
1.01325	0.10293	0.1016	0.10004	3.6595	
1.01325	0.19952	0.0523	0.1983	5.8185	
1.01325	0.29802	-0.1398	0.30003	5.9647	
1.01325	0.39842	-0.5034	0.39903	4.6449	
1.01325	0.49856	-1.0675	0.49883	2.8773	
1.01325	0.59979	-1.6879	0.59999	1.3436	
1.01325	0.69938	-2.127	0.69899	0.2773	
1.01325	0.79921	-2.0349	0.80071	-0.3055	
1.01325	0.90009	-1.2495	0.89866	-0.3535	
1.01325	0.92118	-1.0353	0.9203	-0.302	
1.01325	0.93929	-0.817	0.93843	-0.2625	
1.01325	0.9547	-0.5768	0.95845	-0.2348	
1.01325	0.97687	-0.3255	0.98118	-0.124	
1.01325	0.99823	0.0067	0.99931	-0.0091	
