Adsorption isotherm of Nitrogen on ZIF-8-90
DOI: 10.1021/Cm3006953
Adsorbate Nitrogen: InChIKey IJGRMHOSHXDMSA-UHFFFAOYSA-N
Temperature: 77 K
Tabular data in the source: 0
pressure (bar)	uptake (cm3(STP)/g)
3.66245e-05	160.305
7.32912e-05	178.626
0.000146704	215.267
0.000286103	293.13
0.000572759	338.931
0.00114647	375.573
0.00235625	393.893
0.00471522	412.214
0.010787	462.595
0.020473	508.397
0.0644587	512.977
0.136013	508.397
0.257972	508.397
0.364881	508.397
0.451664	508.397
0.559126	512.977
0.770027	512.977
0.903596	508.397
