Adsorption isotherm of Nitrogen on ZIF-8-90
DOI: 10.1021/Cm3006953
Adsorbate Nitrogen: InChIKey IJGRMHOSHXDMSA-UHFFFAOYSA-N
Temperature: 77 K
Tabular data in the source: 0
pressure (bar)	uptake (cm3(STP)/g)
1.10785e-05	462.595
3.78061e-05	503.817
7.37143e-05	567.939
0.000147602	627.481
0.000287681	664.122
0.00059136	696.183
0.0011834	714.504
0.0023686	746.565
0.0051362	783.206
0.0102759	787.786
0.0205595	792.366
0.048305	842.748
0.084575	842.748
0.129606	851.908
0.164757	847.328
0.296257	847.328
0.733653	847.328
0.932629	842.748
