Adsorption isotherm of Nitrogen on ZIF-7-8
DOI: 10.1021/Cm3006953
Adsorbate Nitrogen: InChIKey IJGRMHOSHXDMSA-UHFFFAOYSA-N
Temperature: 77 K
Tabular data in the source: 0
pressure (bar)	uptake (cm3(STP)/g)
1.79086e-06	2.89017
2.57853e-06	7.22543
3.49391e-06	11.5607
4.88058e-06	17.341
6.22432e-06	23.1214
8.69464e-06	28.9017
1.25196e-05	34.6821
1.50232e-05	37.5723
2.16402e-05	49.1329
3.31224e-05	60.6936
6.66595e-05	80.9249
9.59935e-05	88.1503
0.000105165	91.0405
0.000146954	102.601
0.000224927	114.162
0.000278273	119.942
0.000438937	127.168
0.000735769	135.838
0.00116046	141.618
0.00183	144.509
0.00263458	147.399
0.00379334	151.734
0.00403043	150.289
0.00455116	151.734
0.00598138	153.179
0.0078618	156.069
0.0100236	157.514
0.0127818	161.85
0.017315	161.85
0.0214162	163.295
0.0256964	164.74
0.0337747	167.63
0.0405258	169.075
0.0532564	169.075
0.0766658	170.52
0.124635	174.855
0.145075	176.301
0.196577	180.636
0.250607	180.636
0.360764	182.081
0.459924	182.081
0.62309	183.526
0.794419	184.971
0.89729	190.751
0.95412	202.312
0.954874	215.318
0.955628	228.324
0.985772	239.884
