Adsorption isotherm of Nitrogen on ZIF-8-90
DOI: 10.1021/Cm3006953
Adsorbate Nitrogen: InChIKey IJGRMHOSHXDMSA-UHFFFAOYSA-N
Temperature: 77 K
Tabular data in the source: 0
pressure (bar)	uptake (cm3(STP)/g)
1.73949e-05	311.45
3.67165e-05	329.771
7.34957e-05	366.412
0.000151172	439.695
0.0003027	499.237
0.000574396	531.298
0.00114967	563.359
0.00236266	577.099
0.00473033	627.481
0.0126926	641.221
0.0261001	696.183
0.0663868	700.763
0.140088	700.763
0.155849	696.183
0.19813	696.183
0.238799	696.183
0.365947	705.344
0.441063	705.344
0.560646	696.183
0.712795	700.763
0.906237	705.344
