Adsorption isotherm of Nitrogen on ZIF-7-8
DOI: 10.1021/Cm3006953
Adsorbate Nitrogen: InChIKey IJGRMHOSHXDMSA-UHFFFAOYSA-N
Temperature: 77 K
Tabular data in the source: 0
pressure (bar)	uptake (cm3(STP)/g)
3.49206e-06	2.89017
4.73099e-06	4.33526
8.17244e-06	8.67052
3.51279e-05	28.9017
6.86059e-05	54.9133
0.000108376	86.7052
0.000134175	104.046
0.000176649	134.393
0.000279474	190.751
0.000580994	245.665
0.00116977	273.121
0.00235414	293.353
0.00473687	310.694
0.00953546	335.26
0.0244603	352.601
0.0409941	358.382
0.0776072	371.387
0.118754	378.613
0.160926	384.393
0.295518	395.954
0.466016	398.844
0.6508	400.289
0.855173	398.844
1.02601	398.844
