Adsorption isotherm of Nitrogen on ZIF-8-90
DOI: 10.1021/Cm3006953
Adsorbate Nitrogen: InChIKey IJGRMHOSHXDMSA-UHFFFAOYSA-N
Temperature: 77 K
Tabular data in the source: 0
pressure (bar)	uptake (cm3(STP)/g)
1.00689e-05	1213.74
3.92737e-05	1273.28
7.85962e-05	1296.18
0.000149132	1323.66
0.000298656	1392.37
0.000630786	1451.91
0.00116531	1474.81
0.00239514	1497.71
0.00479261	1511.45
0.0106726	1543.51
0.0202494	1566.41
0.0416113	1575.57
0.0690704	1575.57
0.0810628	1580.15
0.120946	1584.73
0.157903	1580.15
0.283973	1589.31
0.351585	1603.05
0.44706	1616.79
0.847926	1616.79
0.969084	1630.53
