Adsorption isotherm of Nitrogen on ZIF-8-90
DOI: 10.1021/Cm3006953
Adsorbate Nitrogen: InChIKey IJGRMHOSHXDMSA-UHFFFAOYSA-N
Temperature: 77 K
Tabular data in the source: 0
pressure (bar)	uptake (cm3(STP)/g)
3.01816e-06	902.29
3.94069e-06	902.29
5.00982e-06	902.29
6.36989e-06	911.45
8.31748e-06	916.031
1.05753e-05	925.191
1.34491e-05	948.092
1.71022e-05	966.412
2.11769e-05	989.313
2.69316e-05	1012.21
3.42469e-05	1030.53
4.35474e-05	1044.27
5.53722e-05	1058.02
7.23122e-05	1071.76
8.95183e-05	1076.34
0.000116894	1085.5
0.000148628	1094.66
0.000194098	1108.4
0.000210282	1112.98
0.000267382	1126.72
0.000339947	1131.3
0.000432287	1149.62
0.000564497	1158.78
0.000717748	1167.94
0.000937199	1172.52
0.00119163	1181.68
0.00155594	1186.26
0.00203152	1186.26
0.00265266	1190.84
0.00346347	1190.84
0.00452212	1190.84
0.00590434	1190.84
0.00750675	1195.42
0.00980126	1195.42
0.0127971	1195.42
0.0167087	1195.42
0.0218158	1195.42
0.0284841	1195.42
0.0371905	1195.42
0.0472837	1200
0.0686818	1195.42
0.117093	1200
0.157017	1200
0.210552	1200
0.289952	1195.42
0.340339	1209.16
0.4216	1259.54
0.612439	1259.54
0.866188	1254.96
0.963706	1254.96
