Adsorption isotherm of Nitrogen on ZIF-8-90
DOI: 10.1021/Cm3006953
Adsorbate Nitrogen: InChIKey IJGRMHOSHXDMSA-UHFFFAOYSA-N
Temperature: 77 K
Tabular data in the source: 0
pressure (bar)	uptake (cm3(STP)/g)
2.12433e-06	600
2.92558e-06	600
4.02941e-06	604.58
4.7287e-06	604.58
6.86913e-06	604.58
8.06235e-06	613.74
1.26891e-05	622.901
1.65711e-05	636.641
2.34478e-05	664.122
3.79168e-05	700.763
7.19651e-05	746.565
8.44601e-05	751.145
9.14959e-05	751.145
0.000107394	764.885
0.000147915	769.466
0.000220735	787.786
0.000288225	792.366
0.000441755	810.687
0.000576862	819.847
0.000733401	824.427
0.000860858	838.168
0.00121796	856.489
0.00181732	865.649
0.00237297	870.229
0.00373424	870.229
0.00514318	874.809
0.00708307	874.809
0.00975555	879.389
0.0145553	883.969
0.0195183	883.969
0.0254825	879.389
0.0323975	883.969
0.0458239	883.969
0.0781181	883.969
0.144285	893.13
0.204191	929.771
0.312892	934.351
0.54782	934.351
0.660311	938.931
0.909317	934.351
