Adsorption isotherm of Nitrogen on ZIF-8-90
DOI: 10.1021/Cm3006953
Adsorbate Nitrogen: InChIKey IJGRMHOSHXDMSA-UHFFFAOYSA-N
Temperature: 77 K
Tabular data in the source: 0
pressure (bar)	uptake (cm3(STP)/g)
3.64562e-06	1048.85
4.76027e-06	1053.44
9.27389e-06	1062.6
4.02886e-05	1195.42
7.85112e-05	1222.9
0.00014894	1236.64
0.000298134	1273.28
0.000629465	1309.92
0.0012264	1323.66
0.00238914	1328.24
0.00490921	1332.82
0.01036	1337.4
0.0224529	1337.4
0.0449192	1337.4
0.0652517	1337.4
0.145228	1332.82
0.205414	1332.82
0.247578	1332.82
0.314745	1332.82
0.359767	1355.73
0.445576	1392.37
0.630275	1396.95
0.822869	1392.37
0.940255	1392.37
