Adsorption isotherm of Nitrogen on ZIF-8-90
DOI: 10.1021/Cm3006953
Adsorbate Nitrogen: InChIKey IJGRMHOSHXDMSA-UHFFFAOYSA-N
Temperature: 77 K
Tabular data in the source: 0
pressure (bar)	uptake (cm3(STP)/g)
8.75229e-06	755.725
1.75252e-05	815.267
2.6162e-05	856.489
3.60447e-05	883.969
7.41006e-05	920.611
0.000148297	943.511
0.000288969	966.412
0.000594144	1012.21
0.00143308	1035.11
0.00151151	1030.53
0.0025093	1039.69
0.00529544	1044.27
0.0100443	1048.85
0.0223554	1044.27
0.0667301	1048.85
0.0804325	1053.44
0.152542	1048.85
0.204566	1053.44
0.297284	1080.92
0.468047	1112.98
0.520741	1112.98
0.717113	1108.4
0.864309	1108.4
