Adsorption isotherm of Nitrogen on ZIF-8
DOI: 10.1021/Cm3006953
Adsorbate Nitrogen: InChIKey IJGRMHOSHXDMSA-UHFFFAOYSA-N
Temperature: 77 K
Tabular data in the source: 0
pressure (bar)	uptake (cm3(STP)/g)
3.96243e-05	13.0058
6.84797e-05	24.5665
0.000137972	63.5838
0.000278889	156.069
0.000545961	221.098
0.0011002	263.006
0.00228298	287.572
0.00445627	304.913
0.0107883	368.497
0.0198565	417.63
0.0541143	432.081
0.0827755	433.526
0.147358	433.526
0.182243	433.526
0.270412	433.526
0.344737	433.526
0.595304	432.081
0.883697	439.306
0.968711	452.312
1.03016	465.318
