Adsorption isotherm of Nitrogen on ZIF-7
DOI: 10.1021/Cm3006953
Adsorbate Nitrogen: InChIKey IJGRMHOSHXDMSA-UHFFFAOYSA-N
Temperature: 77 K
Tabular data in the source: 0
pressure (bar)	uptake (cm3(STP)/g)
0.000572601	5.78035
0.00126067	5.78035
0.00253438	8.67052
0.00509462	10.1156
0.00993509	11.5607
0.0278908	14.4509
0.0633041	15.896
0.0807034	15.896
0.135206	15.896
0.194621	15.896
0.306825	14.4509
0.428451	14.4509
0.675583	15.896
0.810896	23.1214
0.863011	49.1329
0.888673	31.7919
0.918153	69.3642
0.919766	98.2659
