Adsorption isotherm of Nitrogen on ZIF-8-90
DOI: 10.1021/Cm3006953
Adsorbate Nitrogen: InChIKey IJGRMHOSHXDMSA-UHFFFAOYSA-N
Temperature: 77 K
Tabular data in the source: 0
pressure (bar)	uptake (cm3(STP)/g)
4.17553e-05	9.16031
7.1197e-05	22.9008
0.000146377	64.1221
0.000285517	155.725
0.000587248	224.427
0.00114454	261.069
0.00235262	288.55
0.00483517	306.87
0.011062	361.832
0.0204466	421.374
0.053416	430.534
0.122109	430.534
0.197352	430.534
0.31896	430.534
0.543746	430.534
0.638107	430.534
0.789928	435.115
0.927327	458.015
