Adsorption isotherm of Nitrogen on ZIF-7-8
DOI: 10.1021/Cm3006953
Adsorbate Nitrogen: InChIKey IJGRMHOSHXDMSA-UHFFFAOYSA-N
Temperature: 77 K
Tabular data in the source: 0
pressure (bar)	uptake (cm3(STP)/g)
3.92619e-07	4.33526
6.00623e-07	7.22543
1.28316e-06	11.5607
1.63584e-06	11.5607
1.96314e-06	15.896
2.50295e-06	17.341
2.91341e-06	18.7861
3.94777e-06	23.1214
5.18922e-06	27.4566
7.70321e-06	34.6821
8.96895e-06	40.4624
1.17916e-05	47.6879
1.45882e-05	53.4682
2.16632e-05	66.474
3.31751e-05	86.7052
6.88766e-05	119.942
8.26936e-05	131.503
0.000102351	144.509
0.000138785	160.405
0.000206216	183.526
0.000279545	195.087
0.000427949	209.538
0.000861176	228.324
0.001167	234.104
0.00184078	241.329
0.00249426	245.665
0.00381603	250
0.00533018	254.335
0.00639664	258.671
0.00949296	261.561
0.0113902	263.006
0.0149724	267.341
0.0209094	268.786
0.0292053	273.121
0.0395669	274.566
0.0504501	277.457
0.0771795	280.347
0.0925959	280.347
0.121696	281.792
0.13331	283.237
0.164884	284.682
0.223419	289.017
0.302655	289.017
0.410027	290.462
0.590208	290.462
0.799594	291.908
0.988803	290.462
