Adsorption isotherm of Carbon Dioxide on Al-MIL-53-NO2-AS
DOI: 10.1021/Ic201219g
Adsorbate Carbon Dioxide: InChIKey CURLTUGMZLYLDI-UHFFFAOYSA-N
Temperature: 298 K
Tabular data in the source: 0
pressure (bar)	uptake (wt%)
0.021489	0.25906
0.0630016	0.848976
0.100144	1.39519
0.156951	2.29099
0.25527	3.68931
0.347035	5.02209
0.44317	6.13637
0.545859	7.25066
0.644178	8.1683
0.746867	9.0204
0.845186	9.74141
0.995943	10.7246
