Adsorption isotherm of Carbon Dioxide on Al-MIL-53-CH3-AS
DOI: 10.1021/Ic201219g
Adsorbate Carbon Dioxide: InChIKey CURLTUGMZLYLDI-UHFFFAOYSA-N
Temperature: 298 K
Tabular data in the source: 0
pressure (bar)	uptake (wt%)
0.0258587	0.652337
0.0673713	1.61368
0.108884	2.26914
0.156951	2.90276
0.25527	3.88595
0.351405	4.49772
0.451909	5.02209
0.550228	5.41536
0.652918	5.78679
0.757791	6.07082
0.851741	6.37671
0.9588	6.66074
1.0025	6.74814
