Adsorption isotherm of Carbon Dioxide on Al-MIL-53-Cl-AS
DOI: 10.1021/Ic201219g
Adsorbate Carbon Dioxide: InChIKey CURLTUGMZLYLDI-UHFFFAOYSA-N
Temperature: 298 K
Tabular data in the source: 0
pressure (bar)	uptake (wt%)
0.0171192	0.696035
0.0389679	1.76662
0.0826654	2.99015
0.154766	4.25738
0.25527	5.39351
0.351405	5.98343
0.451909	6.4641
0.554598	6.81368
0.655102	7.07587
0.753422	7.29435
0.856111	7.46914
1.00468	7.68763
