Adsorption isotherm of Carbon Dioxide on Al-MIL-53-Br-AS
DOI: 10.1021/Ic201219g
Adsorbate Carbon Dioxide: InChIKey CURLTUGMZLYLDI-UHFFFAOYSA-N
Temperature: 298 K
Tabular data in the source: 0
pressure (bar)	uptake (wt%)
0.0477074	0.914522
0.0848503	1.63553
0.154766	2.40024
0.202833	2.81536
0.25527	3.29603
0.35359	3.8641
0.449724	4.34477
0.552413	4.73805
0.652918	5.13133
0.753422	5.39351
0.858296	5.6994
1.00468	6.02713
