Adsorption isotherm of Water on NH2-MIL-53(Al)
DOI: 10.1021/Ic201219g
Adsorbate Water: InChIKey XLYOFNOQVPJJNP-UHFFFAOYSA-N
Temperature: 298 K
Tabular data in the source: 0
pressure (bar)	uptake (molecules/formula unit)
0.00754174	0.116108
0.029172	0.60115
0.0508022	0.78468
0.0861972	0.889554
0.149122	0.994428
0.261206	1.04686
0.312332	1.05997
0.375256	1.07308
0.459811	1.0993
0.540433	1.15174
0.674147	1.15174
0.803928	1.23039
0.829491	1.23039
0.900281	1.30905
