Adsorption isotherm of Water on Al-MIL-53-(OH)2-AS
DOI: 10.1021/Ic201219g
Adsorbate Water: InChIKey XLYOFNOQVPJJNP-UHFFFAOYSA-N
Temperature: 298 K
Tabular data in the source: 0
pressure (bar)	uptake (molecules/formula unit)
0.00164258	0.325856
0.0272056	0.876444
0.0390039	1.03376
0.0861972	1.20418
0.172718	1.3877
0.273004	1.54502
0.369357	1.70233
0.424416	1.74165
0.455878	1.85964
0.512903	2.23981
0.605323	2.81661
0.670214	3.30165
0.72134	3.98334
0.798029	4.87476
0.845222	5.50401
0.876685	6.00216
0.900281	6.39544
