Adsorption isotherm of Water on Al-MIL-53-Br-AS
DOI: 10.1021/Ic201219g
Adsorbate Water: InChIKey XLYOFNOQVPJJNP-UHFFFAOYSA-N
Temperature: 298 K
Tabular data in the source: 0
pressure (bar)	uptake (molecules/formula unit)
0.105861	0.220982
0.149122	0.325856
0.198281	0.417621
0.261206	0.548713
0.306432	0.627369
0.387054	0.719133
0.491273	0.902663
0.569928	1.07308
0.642685	1.13863
0.69971	1.23039
0.750836	1.29594
0.786231	1.3746
0.835391	1.53191
0.900281	2.13493
