Adsorption isotherm of Carbon Dioxide on NH2-MIL-53(Al)
DOI: 10.1021/Ic201219g
Adsorbate Carbon Dioxide: InChIKey CURLTUGMZLYLDI-UHFFFAOYSA-N
Temperature: 298 K
Tabular data in the source: 0
pressure (bar)	uptake (wt%)
0.0236738	0.302758
0.0455226	1.02377
0.0695562	1.91956
0.104514	3.27419
0.137287	4.65066
0.152581	5.04393
0.200649	5.67755
0.253086	6.07082
0.305523	6.4641
0.403842	6.83553
0.491237	7.03217
0.596111	7.25066
0.6988	7.49099
0.856111	7.68763
0.995943	7.86242
