Adsorption isotherm of Nitrogen on Al-MIL-53-Br-AS
DOI: 10.1021/Ic201219g
Adsorbate Nitrogen: InChIKey IJGRMHOSHXDMSA-UHFFFAOYSA-N
Temperature: 77 K
Tabular data in the source: 0
pressure (bar)	uptake (cm3(STP)/g)
0.0036537	7.59174
0.0284156	44.2976
0.111441	57.6982
0.171161	64.6898
0.262925	78.0903
0.318276	81.0035
0.370713	85.0819
0.423149	87.9951
0.528023	92.6562
0.628528	96.152
0.729032	98.4825
0.833906	103.144
0.921301	106.057
0.967911	110.718
0.997043	121.205
