Adsorption isotherm of Water on Al-MIL-53-CH3-AS
DOI: 10.1021/Ic201219g
Adsorbate Water: InChIKey XLYOFNOQVPJJNP-UHFFFAOYSA-N
Temperature: 298 K
Tabular data in the source: 0
pressure (bar)	uptake (molecules/formula unit)
0.0272056	0.0636713
0.121592	0.325856
0.172718	0.509386
0.249407	0.666696
0.308399	0.732243
0.398853	0.78468
0.505038	0.863335
0.562063	0.915772
0.652517	0.981318
0.79213	1.12552
