Adsorption isotherm of Nitrogen on Al-MIL-53-(OH)2-AS
DOI: 10.1021/Ic201219g
Adsorbate Nitrogen: InChIKey IJGRMHOSHXDMSA-UHFFFAOYSA-N
Temperature: 77 K
Tabular data in the source: 0
pressure (bar)	uptake (cm3(STP)/g)
0.026959	9.33964
0.0764828	9.33964
0.18864	12.2528
0.283318	13.4181
0.382365	13.4181
0.485783	15.7486
0.608136	17.4965
0.705727	20.4097
0.798948	23.3228
0.855755	25.6534
0.905278	30.3144
0.953346	40.2192
0.978108	53.6198
0.98976	73.4293
