Adsorption isotherm of Nitrogen on NH2-MIL-53(Al)
DOI: 10.1021/Ic201219g
Adsorbate Nitrogen: InChIKey IJGRMHOSHXDMSA-UHFFFAOYSA-N
Temperature: 77 K
Tabular data in the source: 0
pressure (bar)	uptake (cm3(STP)/g)
0.00511028	35.5581
0.0138498	54.2024
0.0225893	99.0651
0.0342419	149.754
0.0429814	198.695
0.0590038	231.323
0.0939618	275.02
0.12018	285.508
0.1799	294.247
0.324102	304.735
0.551329	311.144
0.75962	317.553
0.857211	319.883
0.924214	323.961
0.972281	335.614
0.99413	356.589
