Adsorption isotherm of Carbon Dioxide on Al-MIL-53-(OH)2-AS
DOI: 10.1021/Ic201219g
Adsorbate Carbon Dioxide: InChIKey CURLTUGMZLYLDI-UHFFFAOYSA-N
Temperature: 298 K
Tabular data in the source: 0
pressure (bar)	uptake (wt%)
0.0389679	0.521245
0.0804806	0.827127
0.143842	1.17671
0.244346	1.63553
0.347035	2.1162
0.395102	2.44393
0.491237	3.16494
0.543674	3.44898
0.596111	3.77671
0.692245	4.06074
0.794934	4.30108
0.895439	4.54141
0.993758	4.65066
