Adsorption isotherm of Nitrogen on Al-MIL-53-CH3-AS
DOI: 10.1021/Ic201219g
Adsorbate Nitrogen: InChIKey IJGRMHOSHXDMSA-UHFFFAOYSA-N
Temperature: 77 K
Tabular data in the source: 0
pressure (bar)	uptake (cm3(STP)/g)
0.00219712	69.3508
0.0138498	114.214
0.0371551	144.511
0.0881355	168.398
0.136203	181.216
0.242533	194.617
0.36343	202.191
0.468304	206.852
0.573178	211.513
0.676595	213.261
0.774186	217.34
0.87032	220.253
0.967911	225.497
0.999956	232.488
