Adsorption isotherm of Nitrogen on Al-MIL-53-NO2-AS
DOI: 10.1021/Ic201219g
Adsorbate Nitrogen: InChIKey IJGRMHOSHXDMSA-UHFFFAOYSA-N
Temperature: 77 K
Tabular data in the source: 0
pressure (bar)	uptake (cm3(STP)/g)
0	21.5749
0	132.858
0.0109366	171.312
0.0327854	191.704
0.0866789	201.026
0.137659	206.27
0.217771	208.018
0.2906	212.096
0.389648	213.844
0.498892	216.757
0.615418	219.088
0.743598	220.835
0.858668	224.331
0.953346	228.41
0.995586	236.567
