Adsorption isotherm of Nitrogen on MIL-53(Al)
DOI: 10.1021/Ic201219g
Adsorbate Nitrogen: InChIKey IJGRMHOSHXDMSA-UHFFFAOYSA-N
Temperature: 77 K
Tabular data in the source: 0
pressure (bar)	uptake (cm3(STP)/g)
0	26.236
0	86.2472
0.000741	206.852
0.00219712	167.233
0.00219712	268.029
0.00511028	316.97
0.0153064	328.623
0.0590038	335.614
0.0997882	337.362
0.200292	340.275
0.305166	344.354
0.399844	346.684
0.507631	348.432
0.600853	349.597
0.70864	354.258
0.796035	353.676
0.87906	357.754
0.944606	360.667
0.978108	364.163
0.988304	389.216
