Adsorption isotherm of Water on Al-MIL-53-NO2-AS
DOI: 10.1021/Ic201219g
Adsorbate Water: InChIKey XLYOFNOQVPJJNP-UHFFFAOYSA-N
Temperature: 298 K
Tabular data in the source: 0
pressure (bar)	uptake (molecules/formula unit)
0.0331048	0.220982
0.054735	0.483167
0.0783317	0.588041
0.0940627	0.653587
0.214012	0.810898
0.300533	0.876444
0.357559	0.928881
0.410651	0.941991
0.522735	1.03376
0.611222	1.07308
0.701676	1.16485
0.782298	1.17796
0.835391	1.25661
0.900281	1.3877
