Adsorption isotherm of Water on Al-MIL-53-Cl-AS
DOI: 10.1021/Ic201219g
Adsorbate Water: InChIKey XLYOFNOQVPJJNP-UHFFFAOYSA-N
Temperature: 298 K
Tabular data in the source: 0
pressure (bar)	uptake (molecules/formula unit)
0.0272056	0.0374528
0.0704661	0.286528
0.125525	0.588041
0.190416	0.889554
0.241542	0.981318
0.292668	1.04686
0.424416	1.19107
0.505038	1.25661
0.642685	1.3877
0.744937	1.55813
0.833424	1.75476
0.898315	1.96451
