Adsorption isotherm of Nitrogen on Al-MIL-53-Cl-AS
DOI: 10.1021/Ic201219g
Adsorbate Nitrogen: InChIKey IJGRMHOSHXDMSA-UHFFFAOYSA-N
Temperature: 77 K
Tabular data in the source: 0
pressure (bar)	uptake (cm3(STP)/g)
0.00219712	12.2528
0.0036537	96.152
0.0284156	151.502
0.0808526	170.146
0.109984	176.555
0.1799	188.208
0.260012	195.782
0.361973	202.191
0.46976	206.852
0.570264	211.513
0.717379	215.009
0.864494	222.001
0.915474	227.244
0.997043	236.567
