Adsorption isotherm of Argon on Graphite
DOI: 10.1016/j.jcis.2009.10.018
Adsorbate Argon: InChIKey XKRFYHLGVUSROY-UHFFFAOYSA-N
Temperature: 93 K
Tabular data in the source: 0
pressure (bar)	uptake (micromoles/m2)
0.00411091	5.48935
0.00844306	8.04496
0.0196125	9.93876
0.0602719	10.7943
0.0828605	11.2697
0.105471	11.4611
0.125818	11.6523
0.148428	11.8437
0.168776	12.0349
0.191393	12.1317
0.216258	12.4179
0.236613	12.5145
0.259223	12.7059
0.279563	12.9918
0.295393	13.0879
0.318017	13.09
0.338358	13.3759
0.358698	13.6617
0.379039	13.9475
0.401656	14.0443
0.419727	14.4246
0.442344	14.5214
0.483018	15.1877
0.503351	15.5681
0.521429	15.8538
0.550798	16.4244
0.571131	16.8048
0.600514	17.1862
0.618578	17.6611
0.643429	18.1366
0.661507	18.4222
0.690868	19.0875
0.711202	19.4679
0.731521	20.0377
0.751868	20.2289
0.781223	20.9888
0.80157	21.18
0.821903	21.5604
0.839974	21.9407
0.860329	22.0373
0.882939	22.2287
0.90101	22.6089
0.923613	22.895
0.943953	23.1808
0.964294	23.4667
0.986904	23.6581
