Adsorption isotherm of Argon on Graphite
DOI: 10.1016/j.jcis.2009.10.018
Adsorbate Argon: InChIKey XKRFYHLGVUSROY-UHFFFAOYSA-N
Temperature: 90 K
Tabular data in the source: 0
pressure (bar)	uptake (micromoles/m2)
0.0031746	0.0031746
0.00634921	8.1398
0.00793651	9.37034
0.015873	10.034
0.203175	12.9973
0.288889	14.0519
0.350794	15.008
0.393651	16.1504
0.428571	17.0077
0.45873	18.2427
0.488889	19.0992
0.519048	20.145
0.553968	21.1915
0.596825	22.1446
0.636508	23.1919
0.680952	24.1453
