Adsorption isotherm of Argon on Graphite
DOI: 10.1016/j.jcis.2009.10.018
Adsorbate Argon: InChIKey XKRFYHLGVUSROY-UHFFFAOYSA-N
Temperature: 87 K
Tabular data in the source: 0
pressure (bar)	uptake (micromoles/m2)
0.00364465	8.83281
0.0200456	11.1987
0.0546697	11.8297
0.0947608	12.4606
0.256948	15.9306
0.30615	17.9811
0.338952	19.0852
0.406378	22.082
0.43918	22.7129
0.473804	23.817
0.502961	24.6057
0.583144	26.9716
0.614123	28.7066
0.646925	31.0726
0.663326	32.1767
0.681549	33.5962
0.696128	34.7003
0.708884	36.2776
0.72164	37.5394
0.738041	39.7476
0.748975	41.0095
0.754442	42.429
0.765376	43.6909
0.772665	45.4259
0.783599	46.6877
0.792711	48.5804
