Adsorption isotherm of Argon on Graphite
DOI: 10.1016/j.jcis.2009.10.018
Adsorbate Argon: InChIKey XKRFYHLGVUSROY-UHFFFAOYSA-N
Temperature: 77 K
Tabular data in the source: 0
pressure (bar)	uptake (micromoles/m2)
0.000664251	0.000664251
0.0013285	11.745
0.00531401	12.4161
0.00996377	13.4228
0.013285	13.7584
0.018599	14.094
0.0232488	14.4295
0.0305556	14.4295
0.0365338	14.7651
0.0431763	14.7651
0.0484903	15.1007
0.0538043	15.4362
0.0611111	15.4362
0.0670894	15.7718
0.0724034	16.443
0.0777174	16.7785
0.0836957	17.4497
0.0903382	18.4564
0.0936594	20.1342
0.0969807	20.8054
0.10163	22.8188
0.104952	23.4899
0.108273	24.1611
0.116244	25.8389
0.122222	26.5101
0.126872	27.1812
0.133514	27.8523
0.139493	28.8591
0.147464	29.1946
0.156763	30.5369
0.167391	32.2148
0.170048	32.8859
0.175362	35.2349
0.181341	36.2416
0.18599	37.5839
0.192633	38.255
0.198611	39.9329
0.204589	40.604
0.211896	41.6107
0.217874	42.953
0.22186	43.6242
0.228502	46.6443
0.230495	47.3154
0.231824	50.3356
0.235145	54.0268
0.241787	56.3758
0.249094	59.7315
0.254408	63.0872
0.256401	67.1141
0.258394	72.8188
0.261715	77.5168
0.263708	80.2013
0.266365	86.2416
0.267693	91.6107
0.268357	96.3087
