Adsorption isotherm of Argon on Graphite
DOI: 10.1016/j.jcis.2009.10.018
Adsorbate Argon: InChIKey XKRFYHLGVUSROY-UHFFFAOYSA-N
Temperature: 87 K
Tabular data in the source: 0
pressure (bar)	uptake (micromoles/m2)
0.00364465	7.41325
0.0127563	10.7256
0.0492027	11.8297
0.0965831	12.4606
0.15672	13.4069
0.205923	14.0379
0.242369	15.2997
0.25877	15.9306
0.286105	17.0347
0.318907	18.4543
0.351708	20.0315
0.393622	22.2397
0.413667	22.7129
0.442825	23.6593
0.482916	24.2902
0.519362	25.2366
0.553986	26.183
0.575854	27.2871
0.610478	28.8644
0.641458	30.2839
0.66697	31.7035
0.688838	33.2808
0.710706	34.7003
0.747153	36.9085
0.763554	38.959
0.778132	40.8517
0.787244	42.1136
0.798178	43.5331
