Adsorption isotherm of Argon on Graphite
DOI: 10.1016/j.jcis.2009.10.018
Adsorbate Argon: InChIKey XKRFYHLGVUSROY-UHFFFAOYSA-N
Temperature: 90 K
Tabular data in the source: 0
pressure (bar)	uptake (micromoles/m2)
0.0047619	7.19318
0.0142857	9.65525
0.031746	10.7937
0.0507937	11.1752
0.0666667	11.5563
0.0904762	11.9386
0.109524	12.1308
0.128571	12.4178
0.146032	12.7044
0.160317	12.9906
0.17619	13.1824
0.188889	13.4683
0.206349	13.7549
0.226984	14.5153
0.239683	14.8958
0.252381	15.1818
0.260317	15.4669
0.279365	16.0378
0.293651	16.5132
0.3	16.7035
0.312698	17.1787
0.319048	17.4636
0.333333	17.8444
0.339683	18.2239
0.353968	18.6994
0.35873	19.0787
0.371429	19.5539
0.37619	20.1224
0.387302	20.3135
0.401587	21.2621
0.412698	21.3585
0.41746	21.7378
0.430159	22.1183
0.438095	22.3088
0.453968	22.5006
0.477778	23.3561
0.492063	23.7369
0.51746	24.1195
0.536508	24.5957
0.550794	24.9765
0.557143	25.1667
0.571429	25.5475
0.57619	25.7376
0.596825	26.214
0.604762	26.3099
0.62381	26.5022
0.636508	26.6935
0.649206	27.2633
0.655556	27.5482
0.668254	28.0234
0.67619	28.4032
0.688889	28.8784
0.7	29.2587
