Adsorption isotherm of Argon on Graphite
DOI: 10.1016/j.jcis.2009.10.018
Adsorbate Argon: InChIKey XKRFYHLGVUSROY-UHFFFAOYSA-N
Temperature: 93 K
Tabular data in the source: 0
pressure (bar)	uptake (micromoles/m2)
0.207201	12.5117
0.286343	13.087
0.392606	14.0435
0.473975	15.0922
0.537252	16.0445
0.591464	17.1853
0.636641	18.136
0.681819	19.0866
0.722464	20.1315
0.774428	21.0828
0.833173	22.1293
