Adsorption isotherm of Argon on Graphite
DOI: 10.1016/j.jcis.2009.10.018
Adsorbate Argon: InChIKey XKRFYHLGVUSROY-UHFFFAOYSA-N
Temperature: 77 K
Tabular data in the source: 0
pressure (bar)	uptake (micromoles/m2)
0	8.22981
0.00224215	10.7125
0.00986547	11.6383
0.0139013	11.7904
0.0183857	12.0975
0.0224215	12.2497
0.0269058	12.5568
0.0313901	12.7085
0.035426	12.8607
0.0399103	13.0125
0.0439462	13.3199
0.0484305	13.627
0.0520179	13.9348
0.0565022	14.2418
0.0618834	14.5482
0.0650224	15.1669
0.0690583	15.7849
0.0762332	17.4874
0.0798206	18.4163
0.0834081	19.1899
0.0878924	20.2734
0.0919283	20.8914
0.103587	21.814
0.107623	22.1214
0.112108	22.5838
0.116143	23.0465
0.120179	23.5092
0.124664	23.9715
0.1287	24.279
0.133184	24.4308
0.13722	24.7382
0.141704	24.89
0.146188	25.0418
0.150224	25.1939
0.153363	26.1232
0.156951	27.0521
0.160538	27.9809
0.164126	28.7546
0.166816	29.5289
0.170404	30.4578
0.173991	31.2314
0.177578	32.1603
0.181166	32.9339
0.185202	33.8624
0.188789	34.4808
0.192377	35.4096
0.196413	36.1829
