Adsorption isotherm of Argon on Graphite
DOI: 10.1016/j.jcis.2009.10.018
Adsorbate Argon: InChIKey XKRFYHLGVUSROY-UHFFFAOYSA-N
Temperature: 95 K
Tabular data in the source: 0
pressure (bar)	uptake (micromoles/m2)
0.198189	12.0376
0.28666	12.5078
0.3638	13.0721
0.486327	14.1066
0.595242	15.047
0.676945	15.9875
0.740516	17.0219
0.808614	17.9624
0.867649	18.9969
0.926677	19.9373
