Adsorption isotherm of Argon on Graphite
DOI: 10.1016/j.jcis.2009.10.018
Adsorbate Argon: InChIKey XKRFYHLGVUSROY-UHFFFAOYSA-N
Temperature: 93 K
Tabular data in the source: 0
pressure (bar)	uptake (micromoles/m2)
0.00281492	7.24138
0.00973848	8.84013
0.0189012	10.0627
0.0461689	10.815
0.0779505	11.2853
0.105183	11.5674
0.130147	11.8495
0.161908	12.0376
0.193682	12.4138
0.216379	12.6959
0.250407	12.884
0.268562	13.0721
0.284449	13.2602
0.298062	13.3542
0.311688	13.6364
0.320773	13.8245
0.341195	14.0125
0.35028	14.2006
0.370702	14.3887
0.388871	14.7649
0.411575	15.1411
0.434279	15.5172
0.454709	15.7994
0.463801	16.0815
0.479716	16.6458
0.491075	16.9279
0.506998	17.5862
0.520639	18.0564
0.538815	18.5266
0.5479	18.7147
0.568336	19.0909
0.577414	19.185
0.613738	19.7492
0.661406	20.4075
0.679583	20.8777
0.715928	21.7241
0.736357	22.0063
0.745449	22.2884
0.765885	22.6646
0.774963	22.7586
0.802188	22.9467
0.818104	23.511
0.83173	23.7931
0.897568	24.8276
0.920265	25.1097
0.942969	25.4859
0.963399	25.768
0.979279	25.8621
