Adsorption isotherm of Argon on Graphite
DOI: 10.1016/j.jcis.2009.10.018
Adsorbate Argon: InChIKey XKRFYHLGVUSROY-UHFFFAOYSA-N
Temperature: 77 K
Tabular data in the source: 0
pressure (bar)	uptake (micromoles/m2)
0.00179372	10.8682
0.00717489	11.4851
0.0134529	12.2566
0.0188341	12.7183
0.0255605	13.1789
0.0300448	13.486
0.0340807	13.6381
0.0394619	13.9445
0.0479821	15.9565
0.0502242	16.8865
0.0533632	17.1946
0.0556054	18.1245
0.0591928	18.8981
0.061435	19.5175
0.0650224	20.2911
0.0668161	20.6003
0.070852	21.3736
0.0726457	21.6827
0.0896861	23.5329
0.0941704	23.6847
0.1	24.3012
0.103587	24.9196
0.106726	25.8488
0.110314	26.6224
0.112108	27.0869
0.115695	28.0158
0.124215	30.3383
0.129148	31.2662
0.133184	32.0395
0.134529	32.349
0.138565	32.967
0.140359	33.4314
0.143946	34.0497
0.146188	34.5138
0.150224	35.2871
0.15157	35.4413
0.155605	36.0593
0.157399	36.2132
0.161883	36.6756
0.163229	36.9851
0.166816	37.6034
0.16861	37.9126
0.172646	38.3753
0.174439	38.6844
0.177578	39.6137
0.179372	40.6992
0.182511	41.7838
0.183857	42.5591
0.186547	43.7993
0.187892	44.5746
0.191031	45.8144
0.192377	46.5898
0.195067	47.6746
0.198655	49.2246
