Adsorption isotherm of Argon on Graphite
DOI: 10.1016/j.jcis.2009.10.018
Adsorbate Argon: InChIKey XKRFYHLGVUSROY-UHFFFAOYSA-N
Temperature: 93 K
Tabular data in the source: 0
pressure (bar)	uptake (micromoles/m2)
0.00838597	8.80206
0.012818	10.0328
0.0399029	10.8871
0.064754	11.3626
0.0873568	11.6486
0.116747	11.9353
0.134832	12.1263
0.155173	12.4122
0.170988	12.6976
0.193591	12.9836
0.229761	13.3656
0.256882	13.7467
0.277215	14.1272
0.340442	15.742
0.360768	16.2171
0.367534	16.5017
0.38559	17.0712
0.39686	17.6401
0.414923	18.115
0.423937	18.589
0.442001	19.0639
0.451022	19.4433
0.464547	20.1071
0.471299	20.5809
0.489355	21.1504
0.496128	21.3403
0.516469	21.6262
0.52549	22.0056
0.54583	22.2914
0.55261	22.3867
0.593291	22.9584
0.622674	23.3397
0.647525	23.8152
0.665603	24.1008
0.694986	24.4822
0.722107	24.8633
0.762795	25.3403
0.789915	25.7214
0.808001	25.9124
0.826057	26.482
0.835078	26.8614
0.853142	27.3363
0.864426	27.7159
0.882482	28.2854
0.891511	28.5702
0.920872	29.2354
0.959276	29.9961
0.981886	30.1876
