Adsorption isotherm of Argon on Graphite
DOI: 10.1016/j.jcis.2009.10.018
Adsorbate Argon: InChIKey XKRFYHLGVUSROY-UHFFFAOYSA-N
Temperature: 90 K
Tabular data in the source: 0
pressure (bar)	uptake (micromoles/m2)
0.0031746	4.827
0.00634921	8.51835
0.0206349	10.2241
0.0492063	11.0803
0.0920635	11.5603
0.128571	12.1338
0.157143	12.4223
0.185714	12.7107
0.244444	13.2878
0.27619	13.6713
0.301587	14.2432
0.32381	14.6252
0.346032	15.1019
0.368254	15.7679
0.384127	16.3382
0.404762	17.0039
0.425397	17.2911
0.457143	17.8639
0.48254	19.0036
0.511111	19.8598
0.544444	20.6222
0.571429	21.2889
0.603175	22.051
0.630159	23.0016
0.655556	23.6681
0.684127	24.5243
0.701587	24.5271
