Adsorption isotherm of Argon on Graphite
DOI: 10.1016/j.jcis.2009.10.018
Adsorbate Argon: InChIKey XKRFYHLGVUSROY-UHFFFAOYSA-N
Temperature: 87 K
Tabular data in the source: 0
pressure (bar)	uptake (micromoles/m2)
0.00237793	1.84211
0.00475587	6.44737
0.0142676	11.0526
0.0380469	11.5132
0.0570704	12.4342
0.0760939	11.9737
0.0927394	12.4342
0.116519	12.8947
0.140298	12.8947
0.156944	13.3553
0.178345	13.3553
0.197369	14.2763
0.216392	14.2763
0.233038	15.6579
0.256817	15.6579
0.27584	16.1184
0.29962	16.5789
0.318643	17.5
0.337667	18.4211
0.36858	19.8026
0.389981	21.1842
0.404249	21.6447
0.42565	22.5658
0.447052	23.0263
0.463697	23.9474
0.487477	24.4079
0.5065	24.8684
0.527901	25.3289
0.546925	26.25
0.568326	26.7105
0.589728	27.1711
0.608751	28.0921
0.625397	29.0132
0.646798	29.9342
0.670577	31.3158
0.689601	32.6974
0.711002	34.5395
0.730026	35.9211
0.751427	37.3026
0.772829	38.6842
0.789474	40.0658
0.808498	41.9079
0.829899	43.2895
0.8513	46.0526
0.87508	48.3553
0.889347	51.1184
0.913127	54.3421
0.93215	58.4868
0.951174	64.9342
0.963063	72.7632
0.972575	79.6711
0.984465	93.0263
0.989221	111.908
0.993977	129.868
