Adsorption isotherm of Argon on Graphite
DOI: 10.1016/j.jcis.2009.10.018
Adsorbate Argon: InChIKey XKRFYHLGVUSROY-UHFFFAOYSA-N
Temperature: 87 K
Tabular data in the source: 0
pressure (bar)	uptake (micromoles/m2)
0.00546697	9.62145
0.0273349	11.1987
0.0728929	11.9874
0.100228	12.776
0.123918	13.5647
0.149431	14.1956
0.162187	14.6688
0.178588	15.142
0.184055	15.4574
0.207745	16.5615
0.222323	17.5079
0.229613	17.8233
0.242369	18.7697
0.25877	19.8738
0.275171	20.8202
0.289749	21.7666
0.297039	22.082
0.318907	22.8707
0.33713	23.3438
0.342597	23.5016
0.364465	24.1325
0.410023	25.3943
0.431891	26.183
0.448292	26.8139
0.455581	27.1293
0.471982	27.918
0.477449	28.3912
0.492027	29.1798
0.523007	31.7035
0.535763	32.6498
0.546697	33.7539
0.590433	34.858
0.606834	35.489
0.614123	35.9621
0.626879	36.9085
0.635991	37.5394
0.650569	38.4858
0.681549	40.5363
0.696128	41.4826
0.703417	41.9558
0.717995	42.5868
0.727107	43.2177
0.741686	44.0063
0.748975	44.6372
0.761731	45.7413
0.763554	46.53
0.774487	47.7918
0.783599	49.2114
