Adsorption isotherm of Argon on Graphite
DOI: 10.1016/j.jcis.2009.10.018
Adsorbate Argon: InChIKey XKRFYHLGVUSROY-UHFFFAOYSA-N
Temperature: 93 K
Tabular data in the source: 0
pressure (bar)	uptake (micromoles/m2)
0.00240974	1.88088
0.0025448	3.66771
0.00495454	5.54859
0.00742115	8.18182
0.0211403	9.68652
0.0529503	10.5329
0.0824714	11.0972
0.111964	11.2853
0.132386	11.4734
0.155069	11.5674
0.161879	11.6614
0.184562	11.7555
0.207259	12.0376
0.229935	12.0376
0.252618	12.1317
0.27304	12.3197
0.29573	12.5078
0.316145	12.6019
0.338828	12.6959
0.370603	13.0721
0.393293	13.2602
0.413715	13.4483
0.436398	13.5423
0.459088	13.7304
0.49539	14.0125
0.51808	14.2006
0.538503	14.3887
0.5612	14.6708
0.60658	15.047
0.627009	15.3292
0.647446	15.7053
0.686023	16.0815
0.701931	16.5517
0.724628	16.8339
0.751875	17.3041
0.772311	17.6803
0.792741	17.9624
0.817706	18.2445
0.838135	18.5266
0.858565	18.8088
0.876712	18.9028
0.899395	18.9969
0.919825	19.279
0.933444	19.4671
0.953874	19.7492
0.976571	20.0313
0.992486	20.5956
