Adsorption isotherm of P-cresol, Water on RL-LDH
DOI: 10.1016/j.cej.2016.09.030
Article source: Figure 8
Adsorbate P-cresol: InChIKey IWDCLRJOBJJRNH-UHFFFAOYSA-N
Adsorbate Water: InChIKey XLYOFNOQVPJJNP-UHFFFAOYSA-N
Kind: experiment
Temperature: 313 K
Tabular data in the source: 0
pressure (bar)	P-cresol fraction	P-cresol uptake (mg/g)	Water fraction	Water uptake (mg/g)	total uptake (mg/g)
1.01325	0.1767	0.7974			
1.01325	1.6103	3.4767			
1.01325	5.0228	8.4952			
1.01325	7.0924	10.5793			
1.01325	10.0498	14.6622			
1.01325	14.2797	18.6177			
1.01325	19.0103	23.3812			
