Adsorption isotherm of Copper(II) Ion, Water on LDH
DOI: 10.1016/j.cej.2016.09.030
Article source: Figure 8
Adsorbate Copper(II) Ion: InChIKey JPVYNHNXODAKFH-UHFFFAOYSA-N
Adsorbate Water: InChIKey XLYOFNOQVPJJNP-UHFFFAOYSA-N
Kind: experiment
Temperature: 293 K
Tabular data in the source: 0
pressure (bar)	Copper(II) Ion fraction	Copper(II) Ion uptake (mg/g)	Water fraction	Water uptake (mg/g)	total uptake (mg/g)
1.01325	3.087	2.611			
1.01325	6.516	4.644			
1.01325	15.209	6.986			
1.01325	26.327	8.775			
1.01325	41.408	10.442			
1.01325	57.672	10.878			
1.01325	74.35	11.068			
