Adsorption isotherm of P-cresol, Water on RL-LDH
DOI: 10.1016/j.cej.2016.09.030
Article source: Figure 8
Adsorbate P-cresol: InChIKey IWDCLRJOBJJRNH-UHFFFAOYSA-N
Adsorbate Water: InChIKey XLYOFNOQVPJJNP-UHFFFAOYSA-N
Kind: experiment
Temperature: 303 K
Tabular data in the source: 0
pressure (bar)	P-cresol fraction	P-cresol uptake (mg/g)	Water fraction	Water uptake (mg/g)	total uptake (mg/g)
1.01325	0.1303	0.8069			
1.01325	1.4995	3.6803			
1.01325	4.8735	8.9819			
1.01325	6.823	10.9061			
1.01325	9.8561	14.7881			
1.01325	13.8276	19.0415			
1.01325	18.8463	24.9152			
