Adsorption isotherm of P-cresol, Water on RL-LDH
DOI: 10.1016/j.cej.2016.09.030
Article source: Figure 8
Adsorbate P-cresol: InChIKey IWDCLRJOBJJRNH-UHFFFAOYSA-N
Adsorbate Water: InChIKey XLYOFNOQVPJJNP-UHFFFAOYSA-N
Kind: experiment
Temperature: 293 K
Tabular data in the source: 0
pressure (bar)	P-cresol fraction	P-cresol uptake (mg/g)	Water fraction	Water uptake (mg/g)	total uptake (mg/g)
1.01325	0.0698	0.9818			
1.01325	1.4067	4.0535			
1.01325	4.6934	9.3363			
1.01325	6.4626	11.4123			
1.01325	9.5322	15.9019			
1.01325	13.2328	19.8008			
1.01325	17.8184	25.3201			
