Adsorption isotherm of P-cresol, Water on LDH
DOI: 10.1016/j.cej.2016.09.030
Article source: Figure 8
Adsorbate P-cresol: InChIKey IWDCLRJOBJJRNH-UHFFFAOYSA-N
Adsorbate Water: InChIKey XLYOFNOQVPJJNP-UHFFFAOYSA-N
Kind: experiment
Temperature: 293 K
Tabular data in the source: 0
pressure (bar)	P-cresol fraction	P-cresol uptake (mg/g)	Water fraction	Water uptake (mg/g)	total uptake (mg/g)
1.01325	0.4735	0.164			
1.01325	3.5088	0.2716			
1.01325	7.7755	0.4597			
1.01325	13.2162	0.6211			
1.01325	19.2581	0.7559			
1.01325	27.9632	0.9446			
1.01325	35.0933	1.1598			
