Adsorption isotherm of Copper(II) Ion, Water on RL-LDH
DOI: 10.1016/j.cej.2016.09.030
Article source: Figure 8
Adsorbate Copper(II) Ion: InChIKey JPVYNHNXODAKFH-UHFFFAOYSA-N
Adsorbate Water: InChIKey XLYOFNOQVPJJNP-UHFFFAOYSA-N
Kind: experiment
Temperature: 303 K
Tabular data in the source: 0
pressure (bar)	Copper(II) Ion fraction	Copper(II) Ion uptake (mg/g)	Water fraction	Water uptake (mg/g)	total uptake (mg/g)
1.01325	1.595	4.5			
1.01325	3.68	7.836			
1.01325	5.318	11.328			
1.01325	8.892	19.164			
1.01325	12.39	29.483			
1.01325	17.827	37.785			
1.01325	21.028	45.001			
1.01325	25.05	49.967			
