Adsorption isotherm of Copper(II) Ion, Water on RL-LDH
DOI: 10.1016/j.cej.2016.09.030
Article source: Figure 8
Adsorbate Copper(II) Ion: InChIKey JPVYNHNXODAKFH-UHFFFAOYSA-N
Adsorbate Water: InChIKey XLYOFNOQVPJJNP-UHFFFAOYSA-N
Kind: experiment
Temperature: 293 K
Tabular data in the source: 0
pressure (bar)	Copper(II) Ion fraction	Copper(II) Ion uptake (mg/g)	Water fraction	Water uptake (mg/g)	total uptake (mg/g)
1.01325	0.85	4.965			
1.01325	2.041	8.301			
1.01325	5.762	20.637			
1.01325	10.303	31.965			
1.01325	15.291	42.051			
1.01325	17.45	48.103			
1.01325	20.055	56.016			
