Adsorption isotherm of Copper(II) Ion, Water on RL-LDH
DOI: 10.1016/j.cej.2016.09.030
Article source: Figure 8
Adsorbate Copper(II) Ion: InChIKey JPVYNHNXODAKFH-UHFFFAOYSA-N
Adsorbate Water: InChIKey XLYOFNOQVPJJNP-UHFFFAOYSA-N
Kind: experiment
Temperature: 313 K
Tabular data in the source: 0
pressure (bar)	Copper(II) Ion fraction	Copper(II) Ion uptake (mg/g)	Water fraction	Water uptake (mg/g)	total uptake (mg/g)
1.01325	2.117	3.259			
1.01325	4.649	7.139			
1.01325	5.989	10.164			
1.01325	9.936	17.458			
1.01325	13.434	26.846			
1.01325	19.169	35.924			
1.01325	22.594	42.131			
1.01325	26.764	47.718			
