Adsorption isotherm of Nitrogen on WV1050
DOI: 10.1016/j.indcrop.2017.08.017
Article source: Figure 1
Adsorbate Nitrogen: InChIKey IJGRMHOSHXDMSA-UHFFFAOYSA-N
Kind: experiment
Temperature: 77 K
Tabular data in the source: 0
pressure (bar)	uptake (cm3(STP)/g)
0.001854	123.8
0.002411	168.68
0.004043	203.4
0.004316	233.38
0.00458	149.98
0.00459	180.43
0.00692	267.3
0.007782	288.08
0.008207	253.73
0.013395	299.1
0.02376	328.79
0.034126	352.53
0.041461	366.95
0.052252	378.83
0.101465	431.84
0.152836	471.71
0.200741	502.67
0.252973	531.09
0.304334	558.24
0.356991	580.3
0.409649	597.27
0.452802	612.54
0.503737	624.42
0.607462	648.99
0.710224	669.87
0.811617	688.73
0.919871	702.89
0.965081	707.61
1.0103	718.38
