Adsorption isotherm of Methane on WV1050
DOI: 10.1016/j.indcrop.2017.08.017
Article source: Figure 3
Adsorbate Methane: InChIKey VNWKTOKETHGBQD-UHFFFAOYSA-N
Kind: experiment
Temperature: 293 K
Tabular data in the source: 0
pressure (bar)	uptake (mmol/g)
0.214	0.1189
0.4897	0.2274
0.6693	0.3445
2.5781	1.2816
5.7234	2.4145
11.1359	3.5283
