Adsorption isotherm of Methane on Activated carbon from babassu coconut
DOI: 10.1016/j.indcrop.2017.08.017
Article source: Figure 3
Adsorbate Methane: InChIKey VNWKTOKETHGBQD-UHFFFAOYSA-N
Kind: experiment
Temperature: 293 K
Tabular data in the source: 0
pressure (bar)	uptake (mmol/g)
0.2736	0.4969
0.3893	0.6498
0.5051	0.7809
0.6734	0.9557
0.9576	1.1415
1.4312	1.4475
2.9679	1.9944
4.9678	2.4543
6.9466	2.794
9.9887	3.08
