Adsorption isotherm of Nitrogen on activated carbon from coconut shells
DOI: 10.1016/j.indcrop.2017.08.017
Article source: Figure 1
Adsorbate Nitrogen: InChIKey IJGRMHOSHXDMSA-UHFFFAOYSA-N
Kind: experiment
Temperature: 77 K
Tabular data in the source: 0
pressure (bar)	uptake (cm3(STP)/g)
0.004337	270.99
0.005147	253.62
0.011683	289.69
0.030174	322.81
0.047308	340.45
0.069052	353.54
0.079934	357.55
0.090532	361.02
0.098689	363.69
0.152795	372.52
0.202828	378.67
0.252852	385.09
0.303148	388.04
0.353171	389.11
0.405099	392.33
0.456693	393.51
0.509097	396.21
0.555686	397.9
0.609123	399.26
0.658448	400.61
0.707772	401.97
0.760865	404.67
0.811901	407.03
0.863282	409.06
0.911238	411.76
0.960907	414.46
0.99791	418.17
