Adsorption isotherm of Carbon Dioxide on Activated carbon from babassu coconut
DOI: 10.1016/j.indcrop.2017.08.017
Article source: Figure 3
Adsorbate Carbon Dioxide: InChIKey CURLTUGMZLYLDI-UHFFFAOYSA-N
Kind: experiment
Temperature: 293 K
Tabular data in the source: 0
pressure (bar)	uptake (mmol/g)
0.037	0.1806
0.2961	0.6237
0.407	1.0723
0.5868	1.4881
0.756	1.882
1.0098	2.2485
1.9461	3.4246
2.9779	4.2613
4.9729	5.3438
6.9734	6.0762
10.0061	6.808
