Adsorption isotherm of Nitrogen on Activated carbon from babassu coconut
DOI: 10.1016/j.indcrop.2017.08.017
Article source: Figure 1
Adsorbate Nitrogen: InChIKey IJGRMHOSHXDMSA-UHFFFAOYSA-N
Kind: experiment
Temperature: 77 K
Tabular data in the source: 0
pressure (bar)	uptake (cm3(STP)/g)
0.005167	146.87
0.007974	161.29
0.013587	173.38
0.029769	186.74
0.050925	198.19
0.069477	199.89
0.080491	200.95
0.094078	206.46
0.104008	205.19
0.151914	208.59
0.201764	211.78
0.253551	214.12
0.303179	216.46
0.352817	218.59
0.407329	220.85
0.455285	223.55
0.507345	225.58
0.556679	225.59
0.610106	226.94
0.658062	229.64
0.706708	231
0.758778	233.02
0.807413	235.73
0.862218	237.75
0.911552	240.45
0.962933	241.81
1.00747	249.89
