Adsorption isotherm of Carbon Dioxide on activated carbon from coconut shells
DOI: 10.1016/j.indcrop.2017.08.017
Article source: Figure 3
Adsorbate Carbon Dioxide: InChIKey CURLTUGMZLYLDI-UHFFFAOYSA-N
Kind: experiment
Temperature: 293 K
Tabular data in the source: 0
pressure (bar)	uptake (mmol/g)
0.052	0.0749
0.2909	1.1605
0.4084	1.3516
0.5553	1.7598
0.7819	2.1245
0.9582	2.4675
1.9617	3.7135
2.9695	4.5904
6.9653	6.53
10.027	7.3552
