Adsorption isotherm of Methane on Activated carbon from babassu coconut
DOI: 10.1016/j.indcrop.2017.08.017
Article source: Figure 3
Adsorbate Methane: InChIKey VNWKTOKETHGBQD-UHFFFAOYSA-N
Kind: experiment
Temperature: 293 K
Tabular data in the source: 0
pressure (bar)	uptake (mmol/g)
0.2	0.1257
0.3578	0.366
0.5788	0.4971
0.7577	0.7374
0.9787	0.9559
1.9574	1.6989
2.9783	2.2782
4.9676	3.1202
6.9569	3.7111
9.9673	4.3791
