Adsorption isotherm of Carbon Dioxide on WV1050
DOI: 10.1016/j.indcrop.2017.08.017
Article source: Figure 3
Adsorbate Carbon Dioxide: InChIKey CURLTUGMZLYLDI-UHFFFAOYSA-N
Kind: experiment
Temperature: 293 K
Tabular data in the source: 0
pressure (bar)	uptake (mmol/g)
0.1163	0.3064
0.206	0.7605
0.4547	1.0723
2.4277	3.7034
5.0098	5.7378
9.7088	8.4607
