Adsorption isotherm of Nitrogen on MOF-2
DOI: 10.1002/chem.201405194
Adsorbate Nitrogen: InChIKey IJGRMHOSHXDMSA-UHFFFAOYSA-N
Temperature: 77 K
Tabular data in the source: 0
pressure (bar)	uptake (cm3(STP)/g)
0.00852399	62.3465
0.0114067	39.6999
0.0123014	101.637
0.0179426	186.63
0.0182823	163.847
0.0510943	426.194
0.0596183	488.54
0.0849004	646.248
0.101998	718.827
0.127669	801.637
0.153076	829.059
0.163878	836.153
0.179766	843.52
0.23506	866.03
0.282095	881.583
0.329131	897.135
0.38348	909.823
0.432115	915.689
0.478835	927.967
0.527783	937.108
0.579276	946.385
0.625052	948.84
0.674001	957.981
0.725807	970.532
0.776354	969.986
0.824989	975.853
0.879024	985.266
0.925114	990.996
0.971205	996.726
1.01793	1009
1.06399	1040.79
