Adsorption isotherm of Nitrogen on MOF-2
DOI: 10.1002/chem.201405194
Adsorbate Nitrogen: InChIKey IJGRMHOSHXDMSA-UHFFFAOYSA-N
Temperature: 77 K
Tabular data in the source: 0
pressure (bar)	uptake (cm3(STP)/g)
0.0114067	39.6999
0.0132706	85.4025
0.0132954	59.3452
0.0164184	118.145
0.0221094	151.023
0.0246276	177.217
0.0366639	223.465
0.0409964	347.476
0.0416508	327.967
0.066908	511.733
0.0827465	571.214
0.110356	621.555
0.13259	642.292
0.14625	652.797
0.162767	666.712
0.215834	692.36
0.268584	714.734
0.318793	736.971
0.367426	742.838
0.41669	755.252
0.467553	757.981
0.521903	770.668
0.566079	782.81
0.609312	785.13
0.657946	790.996
0.711667	797.135
0.763158	806.412
0.806392	808.731
0.860427	818.145
0.911603	824.147
0.95738	826.603
1.00887	835.88
1.05016	870.668
