Adsorption isotherm of Nitrogen on MOF-1
DOI: 10.1002/chem.201405194
Adsorbate Nitrogen: InChIKey IJGRMHOSHXDMSA-UHFFFAOYSA-N
Temperature: 77 K
Tabular data in the source: 0
pressure (bar)	uptake (cm3(STP)/g)
0.00791928	29.7408
0.0110671	62.4829
0.0132706	85.4025
0.0145298	98.4993
0.0192763	121.555
0.0221094	151.023
0.0243129	173.943
0.0315777	223.192
0.0356947	239.7
0.0385278	269.168
0.0505392	341.473
0.0762355	398.226
0.0876423	437.926
0.109246	452.115
0.132449	456.617
0.150566	460.846
0.200459	479.809
0.244322	488.677
0.295813	497.954
0.347305	507.231
0.395939	513.097
0.44203	518.827
0.49638	531.514
0.542471	537.244
0.588876	546.248
0.642596	552.387
0.691231	558.254
0.734463	560.573
0.788498	569.986
0.828874	568.895
0.880365	578.172
0.928999	584.038
0.980176	590.041
1.03324	615.689
