Adsorption isotherm of Sevoflurane on Cr-MOF
DOI: 10.1039/C4ra05905k
Adsorbate Sevoflurane: InChIKey DFEYYRMXOJXZRJ-UHFFFAOYSA-N
Temperature: 313 K
Tabular data in the source: 0
pressure (bar)	uptake (mmol/g)
0.00321546	2.73065
0.00603287	4.09598
0.0129742	4.8483
0.0237259	5.82353
0.0330706	6.15789
0.0489906	6.71517
0.066643	7.3839
0.0828979	7.66254
0.0991454	7.74613
0.115391	7.77399
0.132678	7.94118
