Adsorption isotherm of Sevoflurane on Cr-MOF
DOI: 10.1039/C4ra05905k
Adsorbate Sevoflurane: InChIKey DFEYYRMXOJXZRJ-UHFFFAOYSA-N
Temperature: 298 K
Tabular data in the source: 0
pressure (bar)	uptake (cm3(STP)/g)
0.00891303	371.545
0.0311956	473.784
0.0601629	541.987
0.0757608	569.901
0.0958151	610.212
0.113641	659.805
0.133696	712.5
0.155978	731.147
0.176033	752.883
0.193858	768.42
0.238424	864.537
0.296358	870.913
0.347608	874.173
0.387717	877.397
0.436738	880.649
0.48576	880.805
0.534782	880.961
0.599401	884.263
0.630597	884.362
0.697444	884.576
0.726411	884.668
0.795487	884.888
0.846738	885.051
0.873477	891.328
0.938096	903.918
0.960379	965.909
