Adsorption isotherm of Sevoflurane on Cr-MOF
DOI: 10.1039/C4ra05905k
Adsorbate Sevoflurane: InChIKey DFEYYRMXOJXZRJ-UHFFFAOYSA-N
Temperature: 298 K
Tabular data in the source: 0
pressure (bar)	uptake (mmol/g)
0.00103448	1.25757
0.0062069	5.1417
0.0137931	5.9229
0.0344828	7.95941
0.0851724	8.14562
0.11069	8.19677
0.133448	8.19253
