Adsorption isotherm of Sevoflurane on Cr-MOF
DOI: 10.1039/C4ra05905k
Adsorbate Sevoflurane: InChIKey DFEYYRMXOJXZRJ-UHFFFAOYSA-N
Temperature: 298 K
Tabular data in the source: 0
pressure (bar)	uptake (mmol/g)
0.00108502	1.25387
0.00112996	2.42415
0.00115564	3.09288
0.00607353	5.1548
0.0133616	5.93498
0.0196149	6.7709
0.0265508	7.3839
0.032787	7.77399
0.0345216	7.94118
0.0528459	8.10836
0.0670186	8.16409
0.084992	8.19195
0.111259	8.19195
0.133381	8.24768
0.137529	8.24768
