Adsorption isotherm of Sevoflurane on Cr-MOF
DOI: 10.1039/C4ra05905k
Adsorbate Sevoflurane: InChIKey DFEYYRMXOJXZRJ-UHFFFAOYSA-N
Temperature: 348 K
Tabular data in the source: 0
pressure (bar)	uptake (mmol/g)
0.00105613	0.501548
0.00280778	1.11455
0.00629182	1.83901
0.00874863	2.81424
0.0125847	3.70588
0.0195271	4.48607
0.0330256	4.98762
0.0458265	5.32198
0.0572438	5.62848
0.0672754	5.85139
0.079033	6.01858
0.093212	6.24149
0.118799	6.52012
0.131601	6.88235
