Adsorption isotherm of Sevoflurane on Cr-MOF
DOI: 10.1039/C4ra05905k
Adsorbate Sevoflurane: InChIKey DFEYYRMXOJXZRJ-UHFFFAOYSA-N
Temperature: 298 K
Tabular data in the source: 0
pressure (bar)	uptake (mmol/g)
0.00080782	2.41121
0.00147169	3.08411
0.0133312	5.94393
0.0202589	6.75701
0.0264905	7.40187
0.0330573	7.79439
0.053415	8.13084
0.0672102	8.18692
0.138247	8.24299
