Adsorption isotherm of Sevoflurane on Cr-MOF
DOI: 10.1039/C4ra05905k
Adsorbate Sevoflurane: InChIKey DFEYYRMXOJXZRJ-UHFFFAOYSA-N
Temperature: 283 K
Tabular data in the source: 0
pressure (bar)	uptake (mmol/g)
0.000838909	3.8452
0.000877431	4.8483
0.00369591	6.24149
0.00787976	7.18885
0.0130823	7.66254
0.0193217	8.13622
0.026584	8.24768
0.0393817	8.49845
0.0528631	8.55418
0.0659988	8.60991
0.0791336	8.63777
0.0933073	8.72136
0.107481	8.80495
