Adsorption isotherm of Nitrogen on [Zn3L2(HCOO)1.5][(CH3)2NH2]1.5 xDMF
DOI: 10.1039/C4ta01993h
Adsorbate Nitrogen: InChIKey IJGRMHOSHXDMSA-UHFFFAOYSA-N
Temperature: 77 K
Tabular data in the source: 0
pressure (bar)	uptake (cm3(STP)/g)
0.0109962	20.6061
0.0186202	27.0707
0.0249735	29.4949
0.0279546	35.5556
0.0289809	36.7677
0.0336727	44.8485
0.0407103	48.0808
0.0447178	55.3535
0.0460861	56.9697
0.0484808	59.798
0.0620184	70.7071
0.0661236	75.5556
0.0681763	77.9798
0.0712551	81.6162
0.0788791	88.0808
0.0794656	91.3131
0.0815182	93.7374
0.0821047	96.9697
0.0931497	107.475
0.0987211	111.515
0.102924	113.939
0.111428	116.364
0.126969	122.02
0.151209	125.253
0.17545	128.485
0.201157	130.909
0.23048	132.525
0.268405	134.141
0.293084	135.354
0.317765	136.566
0.337802	137.374
0.364975	138.99
0.392929	138.99
0.421568	139.798
0.453041	141.414
0.47523	142.222
0.496734	142.222
0.523222	143.03
0.557187	145.051
0.648529	146.263
0.678635	146.263
0.761716	147.879
0.787179	147.475
0.810393	149.495
0.933647	150.303
1.10954	152.323
1.15357	153.535
