Adsorption isotherm of Methane on [Zn3L2(HCOO)1.5][(CH3)2NH2]1.5 xDMF
DOI: 10.1039/C4ta01993h
Adsorbate Methane: InChIKey VNWKTOKETHGBQD-UHFFFAOYSA-N
Temperature: 77 K
Tabular data in the source: 0
pressure (bar)	uptake (cm3(STP)/g)
0.0441008	-0.284864
0.207827	0.840508
0.312797	1.09913
0.35898	1.30397
0.455551	1.55491
0.554216	1.97036
0.610903	2.02221
0.661284	2.2309
0.858615	3.06181
