Adsorption isotherm of Nitrogen on [Zn3L2(HCOO)1.5][(CH3)2NH2]1.5 xDMF
DOI: 10.1039/C4ta01993h
Adsorbate Nitrogen: InChIKey IJGRMHOSHXDMSA-UHFFFAOYSA-N
Temperature: 77 K
Tabular data in the source: 0
pressure (bar)	uptake (cm3(STP)/g)
0.0146908	0.176039
0.0818519	0.887879
1.00955	9.70393
