Adsorption isotherm of Carbon Dioxide on [Zn3L2(HCOO)1.5][(CH3)2NH2]1.5 xDMF
DOI: 10.1039/C4ta01993h
Adsorbate Carbon Dioxide: InChIKey CURLTUGMZLYLDI-UHFFFAOYSA-N
Temperature: 77 K
Tabular data in the source: 0
pressure (bar)	uptake (cm3(STP)/g)
0.0125059	2.61307
0.075047	15.3532
0.45827	43.8338
0.613463	48.8538
0.712037	51.8708
0.75818	53.2138
0.863086	55.261
