Adsorption isotherm of Nitrogen on Commercial PB
DOI: 10.1039/c5cc06281k
Article source: Figure 3a- Commercial PB
Adsorbate Nitrogen: InChIKey IJGRMHOSHXDMSA-UHFFFAOYSA-N
Kind: experiment
Temperature: 77 K
Tabular data in the source: 0
pressure (bar)	uptake (cm3(STP)/g)
0.001763	2.541
0.008096	4.201
0.050044	9.774
0.100362	13.668
0.151147	15.748
0.202761	17.829
0.25309	19.909
0.304522	21.415
0.356238	23.274
0.405249	25.178
0.456033	26.86
0.506726	28.853
0.55825	31.331
0.608761	33.279
0.660011	35.448
0.709954	38.501
0.762319	42.616
0.812171	46.421
0.859145	54.559
0.863512	52.26
0.913283	63.67
0.915421	69.817
0.962679	98.34
0.964178	99.244
1.0044	358.921
