Adsorption isotherm of Nitrogen on Cubic PB
DOI: 10.1039/c5cc06281k
Article source: Figure 3a- Cubic PB
Adsorbate Nitrogen: InChIKey IJGRMHOSHXDMSA-UHFFFAOYSA-N
Kind: experiment
Temperature: 77 K
Tabular data in the source: 0
pressure (bar)	uptake (cm3(STP)/g)
0.050784	0.842
0.101102	1.331
0.152727	2.262
0.202853	2.927
0.253829	3.062
0.304887	2.666
0.354648	3.465
0.405705	3.776
0.456591	4.353
0.507182	5.019
0.558058	5.463
0.607818	6.261
0.660092	6.352
0.710136	6.841
0.759613	7.152
0.811603	7.951
0.863319	8.881
0.914195	9.768
0.964148	11.185
1.00396	19.721
