Adsorption isotherm of Nitrogen on HPBN
DOI: 10.1039/c5cc06281k
Article source: Figure 3a- HPBN
Adsorbate Nitrogen: InChIKey IJGRMHOSHXDMSA-UHFFFAOYSA-N
Kind: experiment
Temperature: 77 K
Tabular data in the source: 0
pressure (bar)	uptake (cm3(STP)/g)
0.000193	10.303
0.000284	21.5
0.000659	24.143
0.002888	32.899
0.010335	39.001
0.050328	51.959
0.101214	59.655
0.153021	67.13
0.202782	72.748
0.2531	78.499
0.303884	84.028
0.356066	89.646
0.406475	96.149
0.457351	103.049
0.507861	109.109
0.559385	117.115
0.610169	124.502
0.660406	132.507
0.711281	140.601
0.761974	150.199
0.811917	159.266
0.864566	171.428
0.915076	185.227
0.968191	209.195
1.00373	251.028
0.457452	111.672
0.509168	145.191
0.558929	151.384
0.609713	156.781
0.659849	162.266
0.710075	167.884
0.761417	173.281
0.811086	178.855
0.86336	186.463
0.912472	195.928
0.963814	212.865
