Adsorption isotherm of U(VI), Water on aminomethylphosphonic acid bearing chitosan
DOI: 10.1016/j.ijbiomac.2017.06.081
Article source: Figure 6
Adsorbate U(VI): InChIKey AAORDHMTTHGXCV-UHFFFAOYSA-N
Adsorbate Water: InChIKey XLYOFNOQVPJJNP-UHFFFAOYSA-N
Kind: experiment
Temperature: 293 K
Tabular data in the source: 0
pressure (bar)	U(VI) fraction	U(VI) uptake (mg/g)	Water fraction	Water uptake (mg/g)	total uptake (mg/g)
1.01325	0.726	6.938			
1.01325	1.563	13.125			
1.01325	3.181	38			
1.01325	11.33	55.25			
1.01325	43.814	84.281			
1.01325	90.251	95.875			
1.01325	132.781	113.219			
1.01325	185.135	114.188			
1.01325	239.777	113.813			
