Adsorption isotherm of Nd(III), Water on aminomethylphosphonic acid bearing chitosan
DOI: 10.1016/j.ijbiomac.2017.06.081
Article source: Figure 6
Adsorbate Nd(III): InChIKey UYIXUPGBIXNDHN-UHFFFAOYSA-N
Adsorbate Water: InChIKey XLYOFNOQVPJJNP-UHFFFAOYSA-N
Kind: experiment
Temperature: 293 K
Tabular data in the source: 0
pressure (bar)	Nd(III) fraction	Nd(III) uptake (mg/g)	Water fraction	Water uptake (mg/g)	total uptake (mg/g)
1.01325	1.06	2.156			
1.01325	2.177	3.594			
1.01325	4.8	6.469			
1.01325	16.577	15.219			
1.01325	38.791	22.719			
1.01325	73.507	25.813			
1.01325	116.54	28.344			
1.01325	166.27	29.719			
1.01325	211.312	30.531			
1.01325	260.372	30.531			
