Adsorption isotherm of Nitrogen on PSM-DVB
DOI: 10.1007/s10450-019-00022-8
Article source: Figure 4a
Adsorbate Nitrogen: InChIKey IJGRMHOSHXDMSA-UHFFFAOYSA-N
Kind: experiment
Temperature: 77 K
Tabular data in the source: 0
pressure (bar)	uptake (cm3(STP)/g)
0.009665	66.6667
0.028996	84.6154
0.057992	100
0.083766	110.256
0.099875	117.949
0.117595	121.795
0.138537	128.205
0.159478	134.615
0.18042	138.462
0.19975	141.026
0.25291	151.282
0.306069	161.538
0.356007	170.513
0.399501	180.769
0.449438	188.462
0.50582	200
0.549314	211.538
0.605695	223.077
0.657243	239.744
0.70557	253.846
0.753897	274.359
0.810278	302.564
0.826387	315.385
0.860215	343.59
0.882768	366.667
0.90532	401.282
0.931095	456.41
0.95848	548.718
1.00842	682.051
1.01003	712.82
0.143369	139.744
0.209416	153.846
0.254521	164.103
0.293182	169.231
0.357618	182.051
0.412388	191.026
0.457493	201.282
0.50743	212.821
0.56059	225.641
0.602473	235.897
0.655632	251.282
0.716846	273.077
0.763562	296.154
0.81511	335.897
0.837663	358.974
0.863437	393.59
0.892433	450
0.918207	562.82
0.942371	687.18
0.960091	701.282
0.9762	707.692
0.989087	710.256
