Adsorption isotherm of Nitrogen on BES.DM-DVB
DOI: 10.1007/s10450-019-00022-8
Article source: Figure 4a
Adsorbate Nitrogen: InChIKey IJGRMHOSHXDMSA-UHFFFAOYSA-N
Kind: experiment
Temperature: 77 K
Tabular data in the source: 0
pressure (bar)	uptake (cm3(STP)/g)
0.012887	10.2564
0.033829	17.9487
0.064436	23.0769
0.077323	23.0769
0.099875	23.0769
0.119206	28.2051
0.1627	28.2051
0.183641	30.7692
0.248077	30.7692
0.306069	33.3333
0.357618	35.8974
0.404333	39.7436
0.455882	41.0256
0.504209	46.1538
0.557368	48.7179
0.605695	51.2821
0.655632	53.8462
0.703959	58.9744
0.755508	67.9487
0.8135	78.2051
0.829609	82.0513
0.856994	92.3077
0.879546	100
0.911764	115.385
0.937538	141.026
0.95848	166.667
0.985865	235.897
0.987476	250
0.998752	303.846
1.00358	356.41
0.143369	26.9231
0.201361	30.7692
0.256132	32.0513
0.30768	35.8974
0.357618	39.7436
0.405944	39.7436
0.460715	43.5897
0.509041	47.4359
0.56059	51.2821
0.613749	55.1282
0.642745	58.9744
0.715235	67.9487
0.76034	74.359
0.818332	88.4615
0.834441	91.0256
0.860215	102.564
0.889211	120.513
0.92304	142.308
0.943982	179.487
0.964923	237.179
0.990698	339.744
