Adsorption isotherm of Nitrogen on DMSPS-DVB
DOI: 10.1007/s10450-019-00022-8
Article source: Figure 4a
Adsorbate Nitrogen: InChIKey IJGRMHOSHXDMSA-UHFFFAOYSA-N
Kind: experiment
Temperature: 77 K
Tabular data in the source: 0
pressure (bar)	uptake (cm3(STP)/g)
0.012887	30.7692
0.032218	38.4615
0.057992	46.1538
0.077323	47.4359
0.096653	51.2821
0.115984	51.2821
0.141758	53.8462
0.164311	53.8462
0.182031	56.4103
0.202972	58.9744
0.249688	60.2564
0.302847	64.1026
0.354396	67.9487
0.402723	71.7949
0.45266	73.0769
0.504209	76.9231
0.554146	82.0513
0.604084	84.6154
0.655632	91.0256
0.703959	96.1538
0.753897	101.282
0.802223	110.256
0.827998	114.103
0.856994	121.795
0.881157	128.205
0.90532	137.179
0.937538	150
0.984254	201.282
0.990698	219.231
1.00036	244.872
1.00197	271.795
0.14498	71.7949
0.202972	76.9231
0.25291	80.7692
0.306069	82.0513
0.356007	85.8974
0.404333	87.1795
0.459104	92.3077
0.50743	96.1538
0.56059	98.7179
0.612138	102.564
0.663687	107.692
0.713624	111.538
0.763562	119.231
0.81511	128.205
0.842496	133.333
0.865048	139.744
0.884379	144.872
0.913375	157.692
0.926262	164.103
0.963312	200
0.997141	265.385
