Adsorption isotherm of Methane on Cr-MIL(101)
DOI: 10.1016/j.cej.2015.02.088
Article source: Figure 1b- 273 K experiment
Adsorbate Methane: InChIKey VNWKTOKETHGBQD-UHFFFAOYSA-N
Kind: experiment
Isotherm type: excess
Temperature: 273 K
Tabular data in the source: 0
pressure (bar)	uptake (wt%)
0.986	1.163
1.412	1.518
1.939	1.8156
2.612	2.3971
3.296	2.8772
4.954	3.7393
6.77	4.7163
8.642	5.6359
13.855	7.9788
21.578	10.8153
27.832	12.695
33.538	14.0405
41.452	15.5517
52.963	16.8328
66.157	17.6778
77.881	17.7553
88.62	17.4643
99	17.0347
