Adsorption isotherm of Methane on TE7-20
DOI: 10.1016/j.cej.2015.02.088
Article source: Figure 1c- 325 K experiment
Adsorbate Methane: InChIKey VNWKTOKETHGBQD-UHFFFAOYSA-N
Kind: experiment
Isotherm type: excess
Temperature: 325 K
Tabular data in the source: 0
pressure (bar)	uptake (wt%)
0.694	1.3271
1.114	1.6851
1.796	2.1483
2.33	2.6509
2.876	3.0385
3.205	3.3998
5.217	4.2145
7.047	4.9667
8.922	5.6007
14.501	6.9639
22.262	8.3369
28.694	9.0892
34.523	9.6673
42.534	10.3111
54.216	11.0108
67.635	11.4707
79.328	11.6743
90.066	11.8451
100.304	11.924
110.61	11.8024
120.722	11.6809
130.71	11.4969
