Adsorption isotherm of Methane on Cr-MIL(101)
DOI: 10.1016/j.cej.2015.02.088
Article source: Figure 1b- 350 K experiment
Adsorbate Methane: InChIKey VNWKTOKETHGBQD-UHFFFAOYSA-N
Kind: experiment
Isotherm type: excess
Temperature: 350 K
Tabular data in the source: 0
pressure (bar)	uptake (wt%)
1.076	0.4328
2.443	0.798
3.933	0.9671
5.368	1.2883
6.948	1.6805
8.976	2.0187
14.534	2.935
22.435	4.1691
28.879	5.082
34.527	5.863
42.484	6.8909
54.229	8.081
67.845	8.916
79.478	9.45
90.282	9.8319
100.638	9.8655
