Adsorption isotherm of Methane on AX-21
DOI: 10.1016/j.cej.2015.02.088
Article source: Figure 1a- 300 K
Adsorbate Methane: InChIKey VNWKTOKETHGBQD-UHFFFAOYSA-N
Kind: experiment
Isotherm type: excess
Temperature: 300 K
Tabular data in the source: 0
pressure (bar)	uptake (wt%)
0.057	1.4693
3.072	4.4387
4.801	5.7474
6.371	7.1143
8.487	8.3137
13.732	11.0029
21.524	13.7674
27.964	15.4965
33.857	16.7336
41.786	18.1655
53.345	19.6692
66.883	20.8894
78.578	21.5252
89.443	21.9354
99.818	22.1543
110.102	22.1785
120.125	22.2299
130.205	22.1345
140.239	22.0322
