Adsorption isotherm of Methane on TE7-20
DOI: 10.1016/j.cej.2015.02.088
Article source: Figure 1c- 273 K experiment
Adsorbate Methane: InChIKey VNWKTOKETHGBQD-UHFFFAOYSA-N
Kind: experiment
Isotherm type: excess
Temperature: 273 K
Tabular data in the source: 0
pressure (bar)	uptake (wt%)
0.057	0.8804
0.546	2.3194
1.308	3.8207
2.149	5.2137
3.24	6.4162
4.991	7.5497
6.775	8.4927
8.707	9.2353
14.014	10.645
21.957	11.9433
28.298	12.7191
34.025	13.2025
41.967	13.8044
53.365	14.4065
66.534	14.5948
78.101	14.5071
88.748	14.4028
99.168	13.9372
119.28	13.2785
129.427	12.987
