Adsorption isotherm of Methane on Cr-MIL(101)
DOI: 10.1016/j.cej.2015.02.088
Article source: Figure 1b- 250 K experiment
Adsorbate Methane: InChIKey VNWKTOKETHGBQD-UHFFFAOYSA-N
Kind: experiment
Isotherm type: excess
Temperature: 250 K
Tabular data in the source: 0
pressure (bar)	uptake (wt%)
0.873	1.329
1.398	2.2386
2.193	3.287
3.256	4.3623
4.835	5.7217
6.525	7.1556
8.373	8.515
13.581	11.6092
21.041	15.072
27.539	17.1787
33.243	18.6802
41.075	20.0971
52.44	21.1048
65.374	21.4498
76.784	20.9155
87.478	20.1614
97.836	19.2246
