Adsorption isotherm of Methane on Cr-MIL(101)
DOI: 10.1016/j.cej.2015.02.088
Article source: Figure 1b- 300 K experiment
Adsorbate Methane: InChIKey VNWKTOKETHGBQD-UHFFFAOYSA-N
Kind: experiment
Isotherm type: excess
Temperature: 300 K
Tabular data in the source: 0
pressure (bar)	uptake (wt%)
1.446	0.8555
2.422	1.2376
3.42	1.7178
5.012	2.3738
6.873	3.1042
8.802	3.7805
14.116	5.4307
21.942	7.5171
28.355	9.0422
34.017	10.2055
41.999	11.6394
53.468	13.2559
66.922	14.629
78.581	15.4475
89.366	15.8636
99.669	16.2054
