Adsorption isotherm of Methane on TE7-20
DOI: 10.1016/j.cej.2015.02.088
Article source: Figure 1c- 350 K experiment
Adsorbate Methane: InChIKey VNWKTOKETHGBQD-UHFFFAOYSA-N
Kind: experiment
Isotherm type: excess
Temperature: 350 K
Tabular data in the source: 0
pressure (bar)	uptake (wt%)
0.023	0.0657
0.171	0.3153
0.762	0.8014
1.376	1.3893
2.445	1.9641
3.616	2.5422
5.173	3.1563
7.185	3.8001
8.947	4.3223
14.471	5.6097
22.404	6.8675
28.859	7.6721
34.758	8.2369
42.657	8.8641
54.521	9.5405
67.966	10.0066
79.637	10.2198
90.456	10.2525
100.866	10.2095
111.094	10.1502
121.049	9.9299
131.061	10.1498
