Adsorption isotherm of Methane on TE7-20
DOI: 10.1016/j.cej.2015.02.088
Article source: Figure 1c- 300 K experiment
Adsorbate Methane: InChIKey VNWKTOKETHGBQD-UHFFFAOYSA-N
Kind: experiment
Isotherm type: excess
Temperature: 300 K
Tabular data in the source: 0
pressure (bar)	uptake (wt%)
0.781	1.9471
1.235	2.3378
1.519	2.7318
1.814	3.0864
2.472	3.6872
3.22	4.6985
5.071	5.6276
6.922	6.468
8.841	7.1442
14.19	8.5983
22.119	9.9536
28.537	10.6852
34.353	11.1837
42.328	11.8364
53.927	12.3671
67.321	12.7335
78.91	12.8407
89.635	12.8363
99.939	12.8221
110.198	12.8539
120.128	12.7511
130.138	12.7566
