Adsorption isotherm of Methane on AX-21
DOI: 10.1016/j.cej.2015.02.088
Article source: Figure S3- AX21
Adsorbate Methane: InChIKey VNWKTOKETHGBQD-UHFFFAOYSA-N
Kind: experiment
Isotherm type: excess
Temperature: 77 K
Tabular data in the source: 0
pressure (bar)	uptake (mmol/g)
0.000284	19.076
0.00029	13.101
0.000292	11.233
0.000295	8.43
0.000298	5.627
0.000302	-0.813
0.000303	0.022
0.000339	14.926
0.000347	3.754
0.00035	4.012
0.000394	9.972
0.000437	18.373
0.000441	18.253
0.000443	12.196
0.000488	17.388
0.00054	16.208
0.000591	15.614
0.00069	16.87
0.000691	16.874
0.000992	19.648
0.001092	20.351
0.001143	20.633
0.001345	21.024
0.001546	21.437
0.001647	22.516
0.001799	21.9
0.0021	23.617
0.003009	24.71
0.003919	25.782
0.004677	26.224
0.005638	26.644
0.006194	27.013
0.007307	27.238
0.008115	27.47
0.009481	27.752
0.010745	28.143
0.015751	29.23
0.022729	30.555
0.027837	31.555
0.031073	32.011
0.034918	32.409
0.03694	32.859
0.047712	34.271
0.049634	34.336
0.05282	34.843
0.058737	35.575
0.061973	35.988
0.083721	38.161
0.087665	38.653
0.109817	40.595
0.11452	41.116
0.133638	42.428
0.139555	42.964
0.162263	44.318
0.164388	44.528
0.189575	45.673
0.194228	45.666
0.213245	46.499
0.218454	46.84
0.241062	47.507
0.26625	48.137
0.268273	48.021
0.290983	48.536
0.298975	48.551
0.317132	48.978
0.326944	48.87
0.341915	49.24
0.352941	49.139
0.367002	49.371
0.392899	49.581
0.393455	49.578
0.419705	49.538
0.420818	49.806
0.44368	49.937
0.445399	49.763
0.466591	50.104
0.470588	49.887
0.496434	50.018
0.499569	50.409
0.519547	50.554
0.522481	50.127
0.545342	50.75
0.548327	50.301
0.570177	50.867
0.574173	50.476
0.596225	50.853
0.599311	50.462
0.621312	50.984
0.624297	50.578
0.647158	50.999
0.650294	50.579
0.672093	51.115
0.676089	50.703
0.69804	51.101
0.702087	50.826
0.722975	51.29
0.727933	50.834
0.748872	51.276
0.752969	51.052
0.773757	51.429
0.778966	51.045
0.799855	51.393
0.804762	51.169
0.82464	51.56
0.830608	51.162
0.850486	51.546
0.854633	51.271
0.876584	51.67
0.880883	51.286
0.903492	51.707
0.906678	51.41
0.93126	51.606
0.933434	51.838
0.957106	51.78
0.958471	51.983
0.982041	51.875
0.984266	52.114
1.00025	52.426
1.00642	52.578
