Adsorption isotherm of Methane on AX-21
DOI: 10.1016/j.cej.2015.02.088
Article source: Figure 1a- 325 K
Adsorbate Methane: InChIKey VNWKTOKETHGBQD-UHFFFAOYSA-N
Kind: experiment
Isotherm type: excess
Temperature: 325 K
Tabular data in the source: 0
pressure (bar)	uptake (wt%)
0.957	1.7215
1.572	2.1792
1.879	2.4832
3.211	3.1833
4.861	4.1874
6.614	5.2256
8.617	6.2091
13.921	8.4322
21.717	10.9317
28.237	12.5227
34.052	13.7005
42.018	15.1547
53.818	16.7006
67.371	17.9525
79.079	18.6889
89.912	19.2716
100.346	19.5333
110.666	19.7199
120.713	19.8586
130.646	19.8437
140.647	19.8492
