Adsorption isotherm of Methane on AX-21
DOI: 10.1016/j.cej.2015.02.088
Article source: Figure 1a- 273 K
Adsorbate Methane: InChIKey VNWKTOKETHGBQD-UHFFFAOYSA-N
Kind: experiment
Isotherm type: excess
Temperature: 273 K
Tabular data in the source: 0
pressure (bar)	uptake (wt%)
0.262	1.7944
2.949	6.4942
4.395	8.3399
6.216	10.0797
8.173	11.6862
13.42	14.6839
21.033	17.6987
27.678	19.4488
33.515	20.758
41.401	22.1903
52.962	23.5065
66.297	24.5356
77.88	25.1032
88.61	25.4008
98.999	25.6676
109.114	25.6986
119.263	25.7945
129.299	25.7708
139.323	26.1778
