Adsorption isotherm of Nitrogen on TE7-20
DOI: 10.1016/j.cej.2015.02.088
Article source: Figure S5- TE7 20
Adsorbate Nitrogen: InChIKey IJGRMHOSHXDMSA-UHFFFAOYSA-N
Kind: experiment
Isotherm type: excess
Temperature: 77 K
Tabular data in the source: 0
pressure (bar)	uptake (mmol/g)
0.000338	2.9001
0.000345	2.0125
0.000351	0.9363
0.000365	6.7244
0.000371	5.8063
0.000378	4.7302
0.000384	7.4096
0.000397	9.6124
0.000403	9.8645
0.00041	10.0342
0.001514	10.5365
0.002782	11.4546
0.007877	12.2388
0.009764	12.3665
0.016695	12.9927
0.023017	13.2844
0.029542	13.6005
0.032346	13.716
0.034183	13.6773
0.035865	13.7403
0.049938	14.0441
0.054935	14.0623
0.057945	14.112
0.060545	14.123
0.087318	14.22
0.088438	14.2392
0.113121	14.3412
0.114395	14.5115
0.138618	14.5294
0.141065	14.651
0.164574	14.675
0.166665	14.6507
0.187217	14.6444
0.19354	14.7963
0.215518	14.8386
0.22067	14.8203
0.239588	14.9538
0.247238	14.978
0.265443	15.0082
0.274265	14.9959
0.291145	15.1113
0.301344	15.1355
0.315164	15.1414
0.326741	15.1169
0.340663	15.1289
0.352391	15.1409
0.36667	15.3049
0.369066	15.2745
0.392372	15.2803
0.394667	15.2803
0.418124	15.4502
0.420572	15.4319
0.443674	15.4195
0.445611	15.4134
0.469018	15.4557
0.471518	15.4435
0.494822	15.6013
0.495791	15.583
0.518994	15.601
0.52287	15.5766
0.544696	15.7405
0.548164	15.625
0.570398	15.6977
0.574223	15.7341
0.595896	15.7338
0.599567	15.746
0.621495	15.8673
0.625167	15.8733
0.646891	15.8913
0.650921	15.8791
0.672797	16.0187
0.676367	16.0308
0.698295	16.0366
0.702273	16.0366
0.724047	16.1761
0.727669	16.1822
0.748423	16.3218
0.753472	16.3278
0.775348	16.4674
0.77902	16.4734
0.800743	16.6312
0.804874	16.6737
0.826291	16.7951
0.830372	16.8072
0.854644	17.0519
0.854797	17.0562
0.873766	17.3964
0.880243	17.3781
0.903237	17.8074
0.904309	17.8581
0.929902	18.4834
0.930059	18.4841
0.951776	19.6937
0.954523	20.7516
0.97761	22.9097
0.982523	28.2539
0.998014	38.158
1.00056	39.3057
