Adsorption isotherm of Nitrogen on Cr-MIL(101)
DOI: 10.1016/j.cej.2015.02.088
Article source: Figure S4- MIL101 Cr
Adsorbate Nitrogen: InChIKey IJGRMHOSHXDMSA-UHFFFAOYSA-N
Kind: experiment
Isotherm type: excess
Temperature: 77 K
Tabular data in the source: 0
pressure (bar)	uptake (mmol/g)
4.9e-05	0.287
9.4e-05	3.067
9.5e-05	3.142
0.000141	1.792
0.000197	1.482
0.001129	8.183
0.001769	9.658
0.002263	10.847
0.0032	11.769
0.004484	12.787
0.005273	13.702
0.006558	14.221
0.007694	14.624
0.008187	15.034
0.009373	15.615
0.0112	15.813
0.015745	17.514
0.022068	18.716
0.029034	19.843
0.033184	20.273
0.034616	20.485
0.037383	20.547
0.049092	21.92
0.050673	22.137
0.052896	22.35
0.060949	22.983
0.061789	23.061
0.082984	24.96
0.085899	25.103
0.111441	27.346
0.111837	27.364
0.135701	29.051
0.153586	29.632
0.170483	30.274
0.183676	30.718
0.194496	31.306
0.211442	32.795
0.216531	33.485
0.239456	34.558
0.252253	34.701
0.265198	34.77
0.281108	34.845
0.290298	34.975
0.315843	35.125
0.317029	35.132
0.341042	35.289
0.348009	35.269
0.367032	35.418
0.368119	35.419
0.39228	35.522
0.393812	35.529
0.418122	35.686
0.4199	35.645
0.442975	35.829
0.444753	35.83
0.468915	35.946
0.470643	35.843
0.493373	35.98
0.496781	35.994
0.519954	36.042
0.522869	36.09
0.546142	36.247
0.547624	36.24
0.570452	36.254
0.573614	36.254
0.595502	36.397
0.598565	36.377
0.621442	36.493
0.624308	36.5
0.646147	36.507
0.650298	36.521
0.672186	36.644
0.675299	36.617
0.697237	36.767
0.701338	36.665
0.722584	36.815
0.727081	36.808
0.748079	36.924
0.753169	36.938
0.77402	37.034
0.778022	37.054
0.798972	37.212
0.803814	37.096
0.825801	37.335
0.829754	37.252
0.835337	37.314
0.85441	37.417
0.863698	37.499
0.880547	37.602
0.895666	37.766
0.905597	37.882
0.929561	38.278
0.930648	38.203
0.954216	38.695
0.956439	39.159
0.983315	43.033
0.984354	40.785
0.998426	50.929
1.00193	52.206
1.00258	51.523
