Adsorption isotherm of Methane on AX-21
DOI: 10.1016/j.cej.2015.02.088
Article source: Figure 1a- 250 K
Adsorbate Methane: InChIKey VNWKTOKETHGBQD-UHFFFAOYSA-N
Kind: experiment
Isotherm type: excess
Temperature: 250 K
Tabular data in the source: 0
pressure (bar)	uptake (wt%)
0.103	2.3206
0.525	4.5318
1.504	6.9241
2.665	9.2925
4.167	11.7224
5.897	13.8686
7.968	15.6902
13.248	18.8446
20.791	22.0433
27.287	23.8989
33.214	25.2454
41.109	26.5883
52.406	27.9688
65.51	28.486
76.932	29.0551
87.591	29.1335
97.977	29.1879
108.113	29.5671
118.317	29.4096
128.374	29.6965
138.664	29.5911
