Adsorption isotherm of Methane on Cr-MIL(101)
DOI: 10.1016/j.cej.2015.02.088
Article source: Figure 1b- 325 K experiment
Adsorbate Methane: InChIKey VNWKTOKETHGBQD-UHFFFAOYSA-N
Kind: experiment
Isotherm type: excess
Temperature: 325 K
Tabular data in the source: 0
pressure (bar)	uptake (wt%)
3.757	1.7274
6.471	2.231
8.882	2.6941
14.343	3.982
22.204	5.6147
28.562	6.7539
34.281	7.7139
42.288	8.9511
53.994	10.3506
67.439	11.4593
79.045	12.1354
89.9	12.5951
100.317	12.6594
