Adsorption isotherm of Methane on AX-21
DOI: 10.1016/j.cej.2015.02.088
Article source: Figure 1a- 350 K
Adsorbate Methane: InChIKey VNWKTOKETHGBQD-UHFFFAOYSA-N
Kind: experiment
Isotherm type: excess
Temperature: 350 K
Tabular data in the source: 0
pressure (bar)	uptake (wt%)
0.774	0.5811
1.365	1.1212
2.4	1.6784
3.356	2.3142
5.039	3.097
6.769	3.849
8.919	4.5532
14.277	6.4708
22.08	8.6141
28.53	10.0977
34.355	11.1915
42.397	12.4153
54.114	13.9501
67.8	15.1157
79.505	15.796
90.358	16.3258
100.675	16.5924
110.902	16.7702
121.175	16.8625
131.037	16.8659
141.059	16.7326
