Adsorption isotherm of Ethane on CID-5/6
DOI: 10.1039/C1sc00591j
Adsorbate Ethane: InChIKey OTMSDBZUPAUEDD-UHFFFAOYSA-N
Temperature: 273 K
Tabular data in the source: 0
pressure (bar)	uptake (mmol/g)
0.252606	0.418641
0.413521	1.21893
0.667172	1.56485
0.923696	1.71077
1.30953	1.85693
1.61046	1.91202
1.95423	1.98537
2.29827	2.04054
2.64256	2.07753
2.98634	2.15088
3.33116	2.15151
4.01975	2.22549
4.75197	2.26319
5.39798	2.30072
6.08735	2.32016
6.81931	2.37604
7.55153	2.41373
8.2409	2.43317
8.93002	2.47078
9.36078	2.48975
