Adsorption isotherm of Methane on CID-6
DOI: 10.1039/C1sc00591j
Adsorbate Methane: InChIKey VNWKTOKETHGBQD-UHFFFAOYSA-N
Temperature: 273 K
Tabular data in the source: 0
pressure (bar)	uptake (mmol/g)
0.478592	0.490909
0.926979	0.790909
1.40836	1.02273
1.92258	1.2
2.46965	1.32273
3.01672	1.44545
3.56422	1.52727
4.2085	1.60909
4.69164	1.67727
5.23944	1.73182
5.8195	1.78636
6.39971	1.82727
6.94765	1.86818
7.4956	1.90909
8.04355	1.95
8.88182	1.99091
9.33314	2.01818
9.52639	2.04545
