Adsorption isotherm of Carbon Dioxide on CID-5/6
DOI: 10.1039/C1sc00591j
Adsorbate Carbon Dioxide: InChIKey CURLTUGMZLYLDI-UHFFFAOYSA-N
Temperature: 273 K
Tabular data in the source: 0
pressure (bar)	uptake (mmol/g)
0.0974026	0.245455
0.38961	0.777273
0.649351	1.41818
1.07143	1.73182
1.62338	1.86818
2.17532	1.93636
3.21429	2.04545
4.22078	2.12727
5.29221	2.15455
6.36364	2.22273
7.4026	2.27727
8.40909	2.31818
9.09091	2.35909
9.44805	2.38636
9.57792	2.4
