Adsorption isotherm of Carbon Dioxide on CID-6
DOI: 10.1039/C1sc00591j
Adsorbate Carbon Dioxide: InChIKey CURLTUGMZLYLDI-UHFFFAOYSA-N
Temperature: 273 K
Tabular data in the source: 0
pressure (bar)	uptake (mmol/g)
0.0514663	1.21364
0.0541056	0.968182
0.0571848	0.681818
0.0601173	0.409091
0.0812317	1.44545
0.11129	1.65
0.17434	1.78636
0.333284	2.00455
0.493109	2.14091
0.718182	2.20909
0.911144	2.26364
1.16877	2.30455
1.71672	2.34545
2.26481	2.37273
3.32874	2.42727
4.39311	2.44091
5.42507	2.46818
6.4893	2.49545
7.52141	2.50909
8.55352	2.52273
