Adsorption isotherm of Ethane on CID-5
DOI: 10.1039/C1sc00591j
Adsorbate Ethane: InChIKey OTMSDBZUPAUEDD-UHFFFAOYSA-N
Temperature: 273 K
Tabular data in the source: 0
pressure (bar)	uptake (mmol/g)
0.38961	0.0542169
0.779221	0.0722892
1.08225	0.144578
1.34199	0.46988
1.47186	1.03012
1.64502	1.44578
1.94805	1.73494
2.25108	1.91566
2.55411	2.04217
2.90043	2.1506
3.20346	2.22289
3.8961	2.29518
4.58874	2.36747
5.32468	2.38554
6.06061	2.42169
6.75325	2.43976
7.48918	2.4759
8.13853	2.51205
8.83117	2.54819
9.35065	2.54819
