Adsorption isotherm of Carbon Dioxide on CID-5/6
DOI: 10.1039/C1sc00591j
Adsorbate Carbon Dioxide: InChIKey CURLTUGMZLYLDI-UHFFFAOYSA-N
Temperature: 273 K
Tabular data in the source: 0
pressure (bar)	uptake (mmol/g)
0.194175	1.05479
0.582524	1.47945
1.10032	1.64384
1.61812	1.73973
2.20065	1.80822
3.20388	1.89041
4.23948	1.9589
5.30744	2.0137
6.31068	2.05479
7.37864	2.09589
8.4466	2.15068
9.12621	2.17808
9.57929	2.20548
