Adsorption isotherm of Carbon Dioxide on CID-5
DOI: 10.1039/C1sc00591j
Adsorbate Carbon Dioxide: InChIKey CURLTUGMZLYLDI-UHFFFAOYSA-N
Temperature: 273 K
Tabular data in the source: 0
pressure (bar)	uptake (mmol/g)
0.227273	0.081448
0.616883	0.122172
0.844156	0.190045
1.03896	0.352941
1.23377	1.1267
1.55844	1.68326
2.04545	1.85973
3.11688	2.0362
4.15584	2.10407
5.16234	2.17195
6.23377	2.23982
7.24026	2.29412
8.31169	2.36199
8.99351	2.40271
9.35065	2.41629
9.54545	2.44344
