Adsorption isotherm of Ethane on CID-5/6
DOI: 10.1039/C1sc00591j
Adsorbate Ethane: InChIKey OTMSDBZUPAUEDD-UHFFFAOYSA-N
Temperature: 273 K
Tabular data in the source: 0
pressure (bar)	uptake (mmol/g)
0.100229	0.975904
0.407146	1.33735
0.711986	1.55422
1.01501	1.64458
1.40398	1.71687
1.70674	1.78916
2.05287	1.87952
2.39821	1.91566
2.78666	1.95181
3.08891	1.98795
3.8227	2.06024
4.55624	2.11446
5.24642	2.1506
5.89375	2.20482
6.62703	2.24096
7.31694	2.25904
8.09358	2.31325
8.74065	2.3494
9.34436	2.36747
