Adsorption isotherm of Methane on CID-5/6
DOI: 10.1039/C1sc00591j
Adsorbate Methane: InChIKey VNWKTOKETHGBQD-UHFFFAOYSA-N
Temperature: 273 K
Tabular data in the source: 0
pressure (bar)	uptake (mmol/g)
0.2589	0.312217
0.550162	0.502262
0.906149	0.651584
1.22977	0.760181
1.5534	0.868778
1.87702	0.963801
2.20065	1.04525
2.52427	1.11312
2.8479	1.181
3.23625	1.23529
3.91586	1.33032
4.59547	1.39819
5.30744	1.47964
6.01942	1.54751
6.66667	1.60181
7.411	1.65611
8.09061	1.68326
8.77023	1.72398
9.25566	1.76471
