Adsorption isotherm of Carbon Dioxide on CID-5/6
DOI: 10.1039/C1sc00591j
Adsorbate Carbon Dioxide: InChIKey CURLTUGMZLYLDI-UHFFFAOYSA-N
Temperature: 273 K
Tabular data in the source: 0
pressure (bar)	uptake (mmol/g)
0.12945	1.08597
0.485437	1.46606
1.00324	1.64253
1.52104	1.72398
2.0712	1.79186
3.1068	1.85973
4.17476	1.91403
5.27508	1.94118
6.31068	1.9819
7.34628	2.00905
8.34951	2.04977
9.02913	2.07692
9.35275	2.0905
9.54693	2.10407
