Adsorption isotherm of Ethane on CID-5/6
DOI: 10.1039/C1sc00591j
Adsorbate Ethane: InChIKey OTMSDBZUPAUEDD-UHFFFAOYSA-N
Temperature: 273 K
Tabular data in the source: 0
pressure (bar)	uptake (mmol/g)
0.12931	0.854545
0.431034	1.18182
0.732759	1.36364
1.03448	1.45455
1.37931	1.56364
1.72414	1.6
2.11207	1.69091
2.37069	1.72727
2.75862	1.78182
3.10345	1.8
3.83621	1.87273
4.48276	1.90909
5.25862	1.94545
5.90517	1.98182
6.63793	2.03636
7.32759	2.05455
7.97414	2.09091
8.66379	2.10909
9.31034	2.14545
