Adsorption isotherm of Methane on CID-5/6
DOI: 10.1039/C1sc00591j
Adsorbate Methane: InChIKey VNWKTOKETHGBQD-UHFFFAOYSA-N
Temperature: 273 K
Tabular data in the source: 0
pressure (bar)	uptake (mmol/g)
0.357143	0.0272727
0.714286	0.0681818
1.07143	0.109091
1.3961	0.122727
1.75325	0.136364
2.11039	0.163636
2.5	0.190909
2.85714	0.218182
3.18182	0.245455
3.8961	0.286364
4.61039	0.327273
5.29221	0.422727
5.97403	0.518182
6.65584	0.627273
7.33766	0.777273
7.98701	0.981818
8.63636	1.18636
9.18831	1.37727
