Adsorption isotherm of Ethane on CID-6
DOI: 10.1039/C1sc00591j
Adsorbate Ethane: InChIKey OTMSDBZUPAUEDD-UHFFFAOYSA-N
Temperature: 273 K
Tabular data in the source: 0
pressure (bar)	uptake (mmol/g)
0.0865801	1.03636
0.38961	1.45455
0.649351	1.67273
0.952381	1.72727
1.34199	1.76364
1.64502	1.81818
1.99134	1.85455
2.38095	1.89091
2.72727	1.94545
3.07359	1.96364
3.80952	2
4.50216	2.03636
5.19481	2.09091
5.93074	2.09091
6.62338	2.14545
7.35931	2.16364
8.05195	2.2
8.74459	2.21818
9.30736	2.23636
