Adsorption isotherm of Methane on CID-5
DOI: 10.1039/C1sc00591j
Adsorbate Methane: InChIKey VNWKTOKETHGBQD-UHFFFAOYSA-N
Temperature: 273 K
Tabular data in the source: 0
pressure (bar)	uptake (mmol/g)
0.681818	0.0271493
1.26623	0.040724
1.88312	0.0542986
2.5	0.0542986
3.11688	0.0542986
3.7013	0.0678733
4.31818	0.0950226
4.87013	0.0950226
5.51948	0.108597
6.03896	0.122172
6.65584	0.122172
7.27273	0.135747
7.79221	0.149321
8.37662	0.190045
9.15584	0.190045
9.61039	0.230769
