Adsorption isotherm of Methane on CID-5/6
DOI: 10.1039/C1sc00591j
Adsorbate Methane: InChIKey VNWKTOKETHGBQD-UHFFFAOYSA-N
Temperature: 273 K
Tabular data in the source: 0
pressure (bar)	uptake (mmol/g)
0.291262	0.232877
0.614887	0.383562
0.938511	0.506849
1.26214	0.616438
1.5534	0.712329
1.90939	0.808219
2.23301	0.890411
2.62136	0.945205
2.91262	1.0137
3.26861	1.06849
3.98058	1.15068
4.69256	1.21918
5.33981	1.28767
6.05178	1.34247
6.73139	1.39726
7.44337	1.42466
8.15534	1.47945
8.86731	1.53425
9.32039	1.53425
