Adsorption isotherm of Silver, Water on Verde-Lodo Clay
DOI: 10.1016/j.clay.2016.12.016
Article source: Figure 3
Adsorbate Silver: InChIKey BQCADISMDOOEFD-UHFFFAOYSA-N
Adsorbate Water: InChIKey XLYOFNOQVPJJNP-UHFFFAOYSA-N
Kind: experiment
Temperature: 293 K
Tabular data in the source: 0
pressure (bar)	Silver fraction	Silver uptake (mmol/g)	Water fraction	Water uptake (mmol/g)	total uptake (mmol/g)
1.01325	0.0097	0.002798			
1.01325	0.4278	0.019835			
1.01325	1.4263	0.045828			
1.01325	1.6061	0.057459			
1.01325	1.6668	0.049033			
1.01325	1.9288	0.057709			
1.01325	2.0163	0.052867			
1.01325	2.4386	0.062893			
1.01325	3.0108	0.087851			
1.01325	3.5836	0.089482			
1.01325	4.3014	0.076709			
1.01325	4.4738	0.096173			
