Adsorption isotherm of Copper, Water on Verde-Lodo Clay
DOI: 10.1016/j.clay.2016.12.016
Article source: Figure 3
Adsorbate Copper: InChIKey RYGMFSIKBFXOCR-UHFFFAOYSA-N
Adsorbate Water: InChIKey XLYOFNOQVPJJNP-UHFFFAOYSA-N
Kind: experiment
Temperature: 283 K
Tabular data in the source: 0
pressure (bar)	Copper fraction	Copper uptake (mmol/g)	Water fraction	Water uptake (mmol/g)	total uptake (mmol/g)
1.01325	0.0038	0.004273			
1.01325	0.0112	0.009175			
1.01325	0.0301	0.031135			
1.01325	0.3242	0.060813			
1.01325	1.0613	0.075523			
1.01325	1.5146	0.081355			
1.01325	1.9382	0.079536			
1.01325	3.0842	0.094546			
1.01325	3.7487	0.09932			
1.01325	4.6524	0.085743			
1.01325	4.9068	0.107341			
1.01325	5.2321	0.098566			
