Adsorption isotherm of Copper, Water on Verde-Lodo Clay
DOI: 10.1016/j.clay.2016.12.016
Article source: Figure 3
Adsorbate Copper: InChIKey RYGMFSIKBFXOCR-UHFFFAOYSA-N
Adsorbate Water: InChIKey XLYOFNOQVPJJNP-UHFFFAOYSA-N
Kind: experiment
Temperature: 333 K
Tabular data in the source: 0
pressure (bar)	Copper fraction	Copper uptake (mmol/g)	Water fraction	Water uptake (mmol/g)	total uptake (mmol/g)
1.01325	0.0026	0.007452			
1.01325	0.0065	0.015567			
1.01325	0.0092	0.029876			
1.01325	0.1695	0.063595			
1.01325	0.7483	0.082047			
1.01325	0.7765	0.079894			
1.01325	0.9829	0.083472			
1.01325	1.1487	0.087448			
1.01325	2.0552	0.097952			
1.01325	2.161	0.104147			
1.01325	2.549	0.106037			
1.01325	2.9739	0.104284			
1.01325	3.3805	0.109917			
