Adsorption isotherm of Nitrogen on Verde-Lodo Clay post-adsorption
DOI: 10.1016/j.clay.2016.12.016
Article source: Figure 6
Adsorbate Nitrogen: InChIKey IJGRMHOSHXDMSA-UHFFFAOYSA-N
Kind: experiment
Temperature: 77 K
Tabular data in the source: 0
pressure (bar)	uptake (cm3(STP)/g)
0.045605	19.508
0.068707	20.653
0.080744	21.146
0.099388	21.856
0.102296	22.007
0.121912	22.547
0.15084	23.522
0.175684	24.033
0.199961	24.875
0.202869	24.828
0.226173	25.434
0.247329	26.096
0.248302	25.992
0.279175	26.674
0.296643	27.308
0.301699	27.175
0.342472	28.482
0.352756	28.472
0.395859	29.703
0.436054	30.412
0.445173	31.037
0.495652	32.485
0.517791	32.381
0.537589	34.085
0.588828	39.578
0.59584	34.321
0.634262	40.43
0.672927	36.527
0.684741	41.433
0.730367	42.332
0.754471	38.495
0.784544	43.231
0.83172	44.518
0.84242	41.553
0.885117	45.682
0.922789	45.16
0.934816	47.348
0.980827	49.194
1.00723	50.198
