Adsorption isotherm of Silver, Water on Verde-Lodo Clay
DOI: 10.1016/j.clay.2016.12.016
Article source: Figure 3
Adsorbate Silver: InChIKey BQCADISMDOOEFD-UHFFFAOYSA-N
Adsorbate Water: InChIKey XLYOFNOQVPJJNP-UHFFFAOYSA-N
Kind: experiment
Temperature: 313 K
Tabular data in the source: 0
pressure (bar)	Silver fraction	Silver uptake (mmol/g)	Water fraction	Water uptake (mmol/g)	total uptake (mmol/g)
1.01325	0.0172	0.004779			
1.01325	0.0837	0.017762			
1.01325	0.4384	0.016628			
1.01325	1.0081	0.021309			
1.01325	1.2224	0.057462			
1.01325	1.6467	0.059345			
1.01325	2.12	0.051042			
1.01325	2.8714	0.064116			
1.01325	3.2924	0.06273			
