Adsorption isotherm of Silver, Water on Verde-Lodo Clay
DOI: 10.1016/j.clay.2016.12.016
Article source: Figure 3
Adsorbate Silver: InChIKey BQCADISMDOOEFD-UHFFFAOYSA-N
Adsorbate Water: InChIKey XLYOFNOQVPJJNP-UHFFFAOYSA-N
Kind: experiment
Temperature: 283 K
Tabular data in the source: 0
pressure (bar)	Silver fraction	Silver uptake (mmol/g)	Water fraction	Water uptake (mmol/g)	total uptake (mmol/g)
1.01325	0.0065	0.007294			
1.01325	0.0163	0.013047			
1.01325	0.1285	0.014304			
1.01325	0.4363	0.018389			
1.01325	1.0916	0.033726			
1.01325	1.348	0.025299			
1.01325	1.4659	0.048626			
1.01325	1.6848	0.037149			
1.01325	2.7861	0.074366			
1.01325	3.5476	0.051254			
1.01325	4.1713	0.088284			
1.01325	5.0217	0.076143			
