Adsorption isotherm of Silver, Water on Verde-Lodo Clay
DOI: 10.1016/j.clay.2016.12.016
Article source: Figure 3
Adsorbate Silver: InChIKey BQCADISMDOOEFD-UHFFFAOYSA-N
Adsorbate Water: InChIKey XLYOFNOQVPJJNP-UHFFFAOYSA-N
Kind: experiment
Temperature: 333 K
Tabular data in the source: 0
pressure (bar)	Silver fraction	Silver uptake (mmol/g)	Water fraction	Water uptake (mmol/g)	total uptake (mmol/g)
1.01325	0.0012	0.006288			
1.01325	0.0162	0.011475			
1.01325	0.0773	0.020843			
1.01325	0.4087	0.025462			
1.01325	1.0242	0.024453			
1.01325	1.0275	0.029294			
1.01325	1.5223	0.031963			
1.01325	2.281	0.031864			
1.01325	2.3593	0.047646			
1.01325	2.7021	0.03598			
1.01325	3.0442	0.045912			
1.01325	3.3455	0.04437			
1.01325	3.9288	0.035469			
