Adsorption isotherm of Copper, Water on Verde-Lodo Clay
DOI: 10.1016/j.clay.2016.12.016
Article source: Figure 3
Adsorbate Copper: InChIKey RYGMFSIKBFXOCR-UHFFFAOYSA-N
Adsorbate Water: InChIKey XLYOFNOQVPJJNP-UHFFFAOYSA-N
Kind: experiment
Temperature: 313 K
Tabular data in the source: 0
pressure (bar)	Copper fraction	Copper uptake (mmol/g)	Water fraction	Water uptake (mmol/g)	total uptake (mmol/g)
1.01325	0.0124	0.006492			
1.01325	0.0187	0.014276			
1.01325	0.0227	0.026829			
1.01325	0.2367	0.047432			
1.01325	0.7848	0.06701			
1.01325	1.2795	0.05542			
1.01325	1.7192	0.059794			
1.01325	1.8384	0.062544			
1.01325	2.3029	0.080896			
1.01325	2.9082	0.073877			
1.01325	3.9808	0.099652			
