Adsorption isotherm of Copper, Water on Verde-Lodo Clay
DOI: 10.1016/j.clay.2016.12.016
Article source: Figure 3
Adsorbate Copper: InChIKey RYGMFSIKBFXOCR-UHFFFAOYSA-N
Adsorbate Water: InChIKey XLYOFNOQVPJJNP-UHFFFAOYSA-N
Kind: experiment
Temperature: 293 K
Tabular data in the source: 0
pressure (bar)	Copper fraction	Copper uptake (mmol/g)	Water fraction	Water uptake (mmol/g)	total uptake (mmol/g)
1.01325	0.0077	0.016362			
1.01325	0.1461	0.057798			
1.01325	0.996	0.062937			
1.01325	1.356	0.074465			
1.01325	1.8056	0.080761			
1.01325	2.3015	0.069204			
1.01325	2.7843	0.081429			
1.01325	3.2731	0.083286			
1.01325	3.7043	0.094318			
1.01325	4.3909	0.099323			
1.01325	4.4018	0.092831			
1.01325	5.3352	0.098533			
