Adsorption isotherm of Carbon Dioxide on MIL-160(Al) powdered
DOI: 10.1021/acs.jpcc.7b08856
Article source: Figure 3
Adsorbate Carbon Dioxide: InChIKey CURLTUGMZLYLDI-UHFFFAOYSA-N
Kind: experiment
Temperature: 303 K
Tabular data in the source: 0
pressure (bar)	uptake (mmol/g)
0.0644	0.2313
0.1471	0.764
0.2758	1.2844
0.3678	1.7386
0.4597	2.1434
0.5794	2.4779
0.6899	2.7835
0.828	3.0726
0.9386	3.308
1.086	3.5145
1.4546	4.01
3.6397	5.1292
5.8344	5.6289
7.9647	5.9386
10.0121	6.1658
