Adsorption isotherm of Methane on MIL-160(Al) shaped
DOI: 10.1021/acs.jpcc.7b08856
Article source: Figure 3
Adsorbate Methane: InChIKey VNWKTOKETHGBQD-UHFFFAOYSA-N
Kind: experiment
Temperature: 303 K
Tabular data in the source: 0
pressure (bar)	uptake (mmol/g)
0.107	0.0421
1.153	0.7519
2.69	1.4712
4.782	2.1716
6.852	2.6769
8.356	2.9257
10.277	3.1995
12.229	3.4293
14.16	3.6037
17.498	3.8586
21.2	4.0868
23.6	4.1981
