Adsorption isotherm of Methane on MIL-160(Al) powdered
DOI: 10.1021/acs.jpcc.7b08856
Article source: Figure 3
Adsorbate Methane: InChIKey VNWKTOKETHGBQD-UHFFFAOYSA-N
Kind: experiment
Temperature: 303 K
Tabular data in the source: 0
pressure (bar)	uptake (mmol/g)
0.128	0.0306
0.342	0.2984
0.609	0.5165
0.94	0.7174
1.634	1.1402
5.764	2.7838
9.776	3.6011
12.784	3.9994
16.646	4.3577
20.081	4.6126
23.419	4.8101
