Adsorption isotherm of Nitrogen on MIL-160(Al) powdered
DOI: 10.1021/acs.jpcc.7b08856
Article source: Figure 3
Adsorbate Nitrogen: InChIKey IJGRMHOSHXDMSA-UHFFFAOYSA-N
Kind: experiment
Temperature: 303 K
Tabular data in the source: 0
pressure (bar)	uptake (mmol/g)
0.117	0.0135
1.458	0.2745
5.307	0.9004
9.179	1.4065
13.295	1.8184
17.318	2.1402
20.909	2.3839
23.708	2.5347
