Adsorption isotherm of Carbon Dioxide on MIL-160(Al) shaped
DOI: 10.1021/acs.jpcc.7b08856
Article source: Figure 3
Adsorbate Carbon Dioxide: InChIKey CURLTUGMZLYLDI-UHFFFAOYSA-N
Kind: experiment
Temperature: 303 K
Tabular data in the source: 0
pressure (bar)	uptake (mmol/g)
0.0738	0.0372
0.1011	0.5555
0.3816	1.7097
0.5381	2.2239
0.7268	2.6947
1.1185	3.2088
1.5333	3.5929
2.8517	4.2103
4.1704	4.5717
5.6367	4.8153
7.2782	5.0425
9.035	5.249
10.7182	5.3811
12.6457	5.5257
14.6608	5.6619
16.948	5.7962
19.5396	5.9242
