Adsorption isotherm of Nitrogen on MIL-160(Al) shaped
DOI: 10.1021/acs.jpcc.7b08856
Article source: Figure 3
Adsorbate Nitrogen: InChIKey IJGRMHOSHXDMSA-UHFFFAOYSA-N
Kind: experiment
Temperature: 303 K
Tabular data in the source: 0
pressure (bar)	uptake (mmol/g)
0.117	0.0135
1.99	0.328
2.96	0.4705
3.783	0.596
4.841	0.7452
5.958	0.8792
6.971	0.9911
8.073	1.12
9.205	1.2286
10.453	1.3456
11.79	1.4643
13.171	1.5712
14.552	1.6594
15.874	1.7646
17.343	1.8443
18.915	1.9512
20.943	2.0479
23.807	2.1668
