Adsorption isotherm of Nitrogen on JUC-135
DOI: 10.1039/c5ta03537f
Article source: Figure 2
Adsorbate Nitrogen: InChIKey IJGRMHOSHXDMSA-UHFFFAOYSA-N
Kind: experiment
Temperature: 77 K
Tabular data in the source: 0
pressure (bar)	uptake (cm3(STP)/g)
0.005857	17.5313
0.007321	32.2451
0.008785	44.4544
0.011714	52.907
0.016107	63.864
0.029285	85.1521
0.087854	108.318
0.101032	112.701
0.122995	119.589
0.143494	124.597
0.16253	128.667
0.184494	131.798
0.204993	134.302
0.206457	141.503
0.254777	139.311
0.256241	144.633
0.306025	146.199
0.307489	142.442
0.355809	147.764
0.358737	144.633
0.405593	145.886
0.456841	146.512
0.508089	147.451
0.557873	147.764
0.609121	148.077
0.658905	148.39
0.660369	150.894
0.710153	148.703
0.759938	148.703
0.761402	150.894
0.81265	150.581
0.833149	148.703
0.834613	150.581
0.862434	149.016
0.887326	149.016
0.891719	150.581
0.910754	150.581
0.913682	149.329
0.937109	149.642
0.938574	150.894
0.962002	149.955
0.963466	151.208
0.982501	151.521
0.989823	150.894
0.992751	152.147
0.995679	151.834
1.00154	153.086
1.00446	153.712
1.00739	157.469
