Adsorption isotherm of Nitrogen on MIL-100(Fe)
DOI: 10.1016/j.molcata.2015.02.007
Article source: Figure 2
Adsorbate Nitrogen: InChIKey IJGRMHOSHXDMSA-UHFFFAOYSA-N
Kind: experiment
Temperature: 77 K
Tabular data in the source: 0
pressure (bar)	uptake (cm3(STP)/g)
0.005255	274.194
0.005361	264.516
0.010687	282.258
0.01596	304.839
0.026932	311.29
0.048592	350
0.051246	359.677
0.073048	385.484
0.078481	393.548
0.0894	404.839
0.094868	409.677
0.122014	451.613
0.149533	459.677
0.185372	464.516
0.207423	467.742
0.246059	469.355
0.29848	472.581
0.345379	475.806
0.406101	477.419
0.453037	477.419
0.508219	480.645
0.555155	480.645
0.60485	480.645
0.65729	482.258
0.71249	483.871
0.762186	483.871
0.814644	483.871
0.858818	483.871
0.886427	483.871
0.908514	483.871
0.927823	485.484
0.94991	485.484
0.980244	488.71
1.00233	488.71
