Adsorption isotherm of Nitrogen on Fe2@MIL-100(Fe)
DOI: 10.1016/j.molcata.2015.02.007
Article source: Figure 2
Adsorbate Nitrogen: InChIKey IJGRMHOSHXDMSA-UHFFFAOYSA-N
Kind: experiment
Temperature: 77 K
Tabular data in the source: 0
pressure (bar)	uptake (cm3(STP)/g)
0.006003	206.452
0.00611	196.774
0.019576	227.419
0.024973	238.71
0.0495	267.742
0.071338	290.323
0.096008	306.452
0.115139	324.194
0.148073	341.935
0.181168	345.161
0.200459	348.387
0.250102	353.226
0.297002	356.452
0.354927	361.29
0.399084	362.903
0.451559	361.29
0.503979	364.516
0.51212	377.419
0.556365	370.968
0.603301	370.968
0.616998	380.645
0.664005	374.194
0.70818	374.194
0.719134	382.258
0.75784	377.419
0.766051	383.871
0.807519	379.032
0.821234	387.097
0.862719	380.645
0.873691	387.097
0.912379	383.871
0.953775	385.484
0.975827	388.71
0.989596	391.935
1.01439	396.774
