Adsorption isotherm of Carbon Dioxide on Graphite Oxide/Urea Cu-BTC 3
DOI: 10.1021/am404952z
Article source: Figure 1
Adsorbate Carbon Dioxide: InChIKey CURLTUGMZLYLDI-UHFFFAOYSA-N
Kind: experiment
Temperature: 277 K
Tabular data in the source: 0
pressure (bar)	uptake (mmol/g)
0.188906	0.240602
0.545727	2.02105
1.36432	3.77744
2.43478	4.93233
3.63118	5.53383
4.74363	5.7985
5.73013	6.06316
6.75862	6.30376
7.76612	6.47218
8.73163	6.6406
9.69715	6.85714
10.7676	6.95338
11.7121	7.02556
12.6987	7.21805
13.7061	7.38647
14.6507	7.48271
