Adsorption isotherm of Carbon Dioxide on Graphite Oxide Cu-BTC (1st cycle)
DOI: 10.1021/am404952z
Article source: Figure 3
Adsorbate Carbon Dioxide: InChIKey CURLTUGMZLYLDI-UHFFFAOYSA-N
Kind: experiment
Temperature: 319 K
Tabular data in the source: 0
pressure (bar)	uptake (mmol/g)
0	0.15311
0.487705	1.16746
1.29098	2.35407
2.2377	3.42584
3.29918	4.30622
4.36066	4.97608
5.47951	5.55024
6.54098	6.02871
7.63115	6.33493
8.63525	6.62201
9.63934	6.90909
10.6434	7.15789
11.6762	7.34928
12.6516	7.59809
13.6557	7.77033
14.7172	7.96172
