Adsorption isotherm of Carbon Dioxide on Graphite Oxide/Urea Cu-BTC 2 (1st cycle)
DOI: 10.1021/am404952z
Article source: Figure 3
Adsorbate Carbon Dioxide: InChIKey CURLTUGMZLYLDI-UHFFFAOYSA-N
Kind: experiment
Temperature: 318 K
Tabular data in the source: 0
pressure (bar)	uptake (mmol/g)
0	0
0.504008	1.11732
1.36102	2.25358
2.36483	3.31409
3.42657	4.12841
4.51712	4.77229
5.54836	5.2836
6.63823	5.73811
7.63952	6.09792
8.72891	6.41986
9.75934	6.70393
10.7307	6.93118
11.7611	7.1963
12.7619	7.42356
13.792	7.61293
14.7926	7.76443
