Adsorption isotherm of Carbon Dioxide on CuBTC
DOI: 10.1021/am404952z
Article source: Figure 3
Adsorbate Carbon Dioxide: InChIKey CURLTUGMZLYLDI-UHFFFAOYSA-N
Kind: experiment
Temperature: 317 K
Tabular data in the source: 0
pressure (bar)	uptake (mmol/g)
0	0.130841
0.503171	0.998251
1.36152	1.89879
2.39746	2.65233
3.4334	3.34046
4.49894	3.86507
5.53488	4.2588
6.57082	4.61983
7.63636	4.93182
8.64271	5.16197
9.64905	5.3594
10.6258	5.58952
11.6025	5.78692
12.6089	6.00071
13.6448	6.13276
14.6808	6.29752
