Adsorption isotherm of Carbon Dioxide on Graphite Oxide Cu-BTC (3rd cycle)
DOI: 10.1021/am404952z
Article source: Figure 3
Adsorbate Carbon Dioxide: InChIKey CURLTUGMZLYLDI-UHFFFAOYSA-N
Kind: experiment
Temperature: 299 K
Tabular data in the source: 0
pressure (bar)	uptake (mmol/g)
0.029139	0.196891
0.352332	1.46553
1.03104	3.12749
2.00752	4.61393
3.16344	5.7281
4.32041	6.49215
5.41864	7.0156
6.45794	7.36409
7.49731	7.69069
8.56673	7.90784
9.60649	8.10315
10.557	8.32048
11.5969	8.47203
12.6065	8.79868
13.5869	8.99408
14.597	9.16756
