Adsorption isotherm of Carbon Dioxide on Graphite Oxide/Urea Cu-BTC 3 (3rd cycle)
DOI: 10.1021/am404952z
Article source: Figure 3
Adsorbate Carbon Dioxide: InChIKey CURLTUGMZLYLDI-UHFFFAOYSA-N
Kind: experiment
Temperature: 296 K
Tabular data in the source: 0
pressure (bar)	uptake (mmol/g)
0	0
0.358209	1.89016
0.985075	4.48513
1.9403	6.75973
3.07463	8.42563
4.29851	9.61098
5.46269	10.3799
6.56716	10.9245
7.67164	11.341
8.68657	11.7254
9.73134	11.9176
10.7463	12.2059
11.7612	12.4622
12.7761	12.7185
13.8209	12.9108
14.806	13.1991
