Adsorption isotherm of Carbon Dioxide on Graphite Oxide/Urea Cu-BTC 1 (3rd cycle)
DOI: 10.1021/am404952z
Article source: Figure 3
Adsorbate Carbon Dioxide: InChIKey CURLTUGMZLYLDI-UHFFFAOYSA-N
Kind: experiment
Temperature: 296 K
Tabular data in the source: 0
pressure (bar)	uptake (mmol/g)
0	0
0.50397	1.27837
1.3772	2.45963
2.42365	3.41444
3.5342	4.01293
4.62265	4.49292
5.68888	4.81879
6.71115	4.9907
7.71183	5.21018
8.69074	5.41794
9.71301	5.58984
10.7569	5.73788
11.7357	5.91004
12.7795	5.99877
13.7365	6.14733
14.7154	6.34321
