Adsorption isotherm of Carbon Dioxide on Graphite Oxide/Urea Cu-BTC 3 (2nd cycle)
DOI: 10.1021/am404952z
Article source: Figure 3
Adsorbate Carbon Dioxide: InChIKey CURLTUGMZLYLDI-UHFFFAOYSA-N
Kind: experiment
Temperature: 319 K
Tabular data in the source: 0
pressure (bar)	uptake (mmol/g)
0	-0.029557
0.428571	1.30049
1.17143	2.92611
2.14286	4.69951
3.17143	6.08867
4.28571	7.18227
5.34286	8.03941
6.4	8.71921
7.48571	9.25123
8.51429	9.66502
9.51429	10.0493
10.5714	10.3744
11.5714	10.7291
12.5714	11.0246
13.5714	11.2906
14.5143	11.5567
