Adsorption isotherm of Carbon Dioxide on Graphite Oxide/Urea Cu-BTC 1 (3rd cycle)
DOI: 10.1021/am404952z
Article source: Figure 3
Adsorbate Carbon Dioxide: InChIKey CURLTUGMZLYLDI-UHFFFAOYSA-N
Kind: experiment
Temperature: 319 K
Tabular data in the source: 0
pressure (bar)	uptake (mmol/g)
3.6e-05	-0.011169
0.60768	0.878909
1.4893	1.67811
2.47651	2.37621
3.48525	2.92899
4.47348	3.31437
5.54595	3.6881
6.53461	3.93945
7.54432	4.19069
8.55425	4.37491
9.522	4.58171
10.5319	4.78827
11.4999	4.91688
12.5098	5.10111
13.5198	5.26299
14.4876	5.45862
