Adsorption isotherm of Carbon Dioxide on Graphite Oxide/Urea Cu-BTC 3 (4th cycle)
DOI: 10.1021/am404952z
Article source: Figure 3
Adsorbate Carbon Dioxide: InChIKey CURLTUGMZLYLDI-UHFFFAOYSA-N
Kind: experiment
Temperature: 276 K
Tabular data in the source: 0
pressure (bar)	uptake (mmol/g)
0	0
0.2	2.38713
0.685714	5.90923
1.62857	9.16545
2.94286	11.1275
4.28571	12.0591
5.48571	12.5152
6.57143	12.8998
7.62857	13.1746
8.65714	13.3764
9.6	13.5798
10.6	13.7453
11.5714	13.9481
12.6286	14.1861
13.6	14.389
14.6	14.5913
