Adsorption isotherm of Carbon Dioxide on Graphite Oxide Cu-BTC
DOI: 10.1021/am404952z
Article source: Figure 1
Adsorbate Carbon Dioxide: InChIKey CURLTUGMZLYLDI-UHFFFAOYSA-N
Kind: experiment
Temperature: 277 K
Tabular data in the source: 0
pressure (bar)	uptake (mmol/g)
0.188906	0.240602
0.41979	2.04511
0.944528	4.49925
1.88906	6.6406
3.21139	7.84361
4.53373	8.39699
5.68816	8.70977
6.67466	8.95038
7.72414	9.16692
8.73163	9.3594
9.71814	9.55188
10.7256	9.69624
11.7121	9.86466
12.6777	10.009
13.6642	10.1534
14.6717	10.2977
