Adsorption isotherm of Carbon Dioxide on Graphite Oxide Cu-BTC (3rd cycle)
DOI: 10.1021/am404952z
Article source: Figure 3
Adsorbate Carbon Dioxide: InChIKey CURLTUGMZLYLDI-UHFFFAOYSA-N
Kind: experiment
Temperature: 276 K
Tabular data in the source: 0
pressure (bar)	uptake (mmol/g)
0	0.193407
0.234801	1.93407
0.851153	4.20659
1.79036	6.23736
3.08176	7.42198
4.40252	7.97802
5.57652	8.31648
6.63312	8.60659
7.60168	8.82418
8.74633	8.94505
9.65618	9.13846
10.6541	9.35604
11.6813	9.5011
12.6792	9.57363
13.7065	9.74286
14.6751	9.83956
