Adsorption isotherm of Carbon Dioxide on Graphite Oxide/Urea Cu-BTC 2
DOI: 10.1021/am404952z
Article source: Figure 1
Adsorbate Carbon Dioxide: InChIKey CURLTUGMZLYLDI-UHFFFAOYSA-N
Kind: experiment
Temperature: 298 K
Tabular data in the source: 0
pressure (bar)	uptake (mmol/g)
0.188906	0.263699
0.44078	2.10959
1.07046	4.62671
2.09895	6.68836
3.35832	7.7911
4.63868	8.39041
5.7931	8.72603
6.82159	8.96575
7.82909	9.20548
8.77361	9.39726
9.8021	9.61301
10.7886	9.73288
11.7541	9.92466
12.7616	10.1164
13.7481	10.2842
14.7136	10.476
