Adsorption isotherm of Carbon Dioxide on Graphite Oxide/Urea Cu-BTC 3 (2nd cycle)
DOI: 10.1021/am404952z
Article source: Figure 3
Adsorbate Carbon Dioxide: InChIKey CURLTUGMZLYLDI-UHFFFAOYSA-N
Kind: experiment
Temperature: 276 K
Tabular data in the source: 0
pressure (bar)	uptake (mmol/g)
0	0
0.2	2.42391
0.714286	5.87192
1.62857	9.16545
2.91429	11.128
4.22857	12.0234
5.51429	12.5147
6.54286	12.8636
7.62857	13.1746
8.62857	13.4137
9.62857	13.6896
10.6286	13.8919
11.6286	14.131
12.6286	14.2229
13.6286	14.462
14.6286	14.7011
