Adsorption isotherm of Carbon Dioxide on Graphite Oxide/Urea Cu-BTC 3
DOI: 10.1021/am404952z
Article source: Figure 1
Adsorbate Carbon Dioxide: InChIKey CURLTUGMZLYLDI-UHFFFAOYSA-N
Kind: experiment
Temperature: 318 K
Tabular data in the source: 0
pressure (bar)	uptake (mmol/g)
0.203785	0.191414
0.672489	1.53263
1.42649	3.25683
2.38428	4.90408
3.44396	6.30199
4.52402	7.39317
5.5837	8.25434
6.66376	8.92378
7.6623	9.43999
8.68122	9.91783
9.7409	10.2998
10.6987	10.6243
11.7176	11.0447
12.7162	11.2925
13.6739	11.5404
14.6725	11.7882
