Adsorption isotherm of Methane on Graphite Oxide/Urea Cu-BTC 3
DOI: 10.1021/am404952z
Article source: Figure 1
Adsorbate Methane: InChIKey VNWKTOKETHGBQD-UHFFFAOYSA-N
Kind: experiment
Temperature: 298 K
Tabular data in the source: 0
pressure (bar)	uptake (mmol/g)
0.000417	0.195349
0.598681	0.781395
1.52544	1.43256
2.51177	2.0186
3.5278	2.53953
4.57355	2.99535
5.55953	3.4186
6.60514	3.8093
7.56119	4.2
8.57681	4.52558
9.62228	4.85116
10.5781	5.14419
11.6235	5.40465
12.6688	5.66512
13.6245	5.89302
14.6399	6.12093
