Adsorption isotherm of Carbon Dioxide on Graphite Oxide/Urea Cu-BTC 1
DOI: 10.1021/am404952z
Article source: Figure 1
Adsorbate Carbon Dioxide: InChIKey CURLTUGMZLYLDI-UHFFFAOYSA-N
Kind: experiment
Temperature: 277 K
Tabular data in the source: 0
pressure (bar)	uptake (mmol/g)
0.188906	0.240602
0.41979	2.7188
0.902549	6.13534
1.84708	9.43158
3.14843	11.3564
4.49175	12.2707
5.64618	12.8
6.73763	13.1609
7.76612	13.4496
8.7946	13.6662
9.76012	13.9308
10.7466	14.1714
11.6912	14.388
12.6987	14.6767
13.7271	14.8451
14.6927	15.0376
