Adsorption isotherm of Carbon Dioxide on CuBTC
DOI: 10.1021/am404952z
Article source: Figure 3
Adsorbate Carbon Dioxide: InChIKey CURLTUGMZLYLDI-UHFFFAOYSA-N
Kind: experiment
Temperature: 276 K
Tabular data in the source: 0
pressure (bar)	uptake (mmol/g)
0.000551	0.159624
0.269663	1.59624
0.951054	3.43192
2.01255	4.84859
3.27715	5.58685
4.45281	6.06573
5.53952	6.28521
6.65558	6.50469
7.59548	6.70423
8.62321	6.8439
9.68044	7.02347
10.6494	7.14319
11.6772	7.30282
12.6757	7.48239
13.6447	7.60211
14.6137	7.72183
