Adsorption isotherm of Carbon Dioxide on Graphite Oxide/Urea Cu-BTC 2 (1st cycle)
DOI: 10.1021/am404952z
Article source: Figure 3
Adsorbate Carbon Dioxide: InChIKey CURLTUGMZLYLDI-UHFFFAOYSA-N
Kind: experiment
Temperature: 277 K
Tabular data in the source: 0
pressure (bar)	uptake (mmol/g)
0	0
0.26087	1.93517
0.869565	4.49607
1.91304	6.5429
3.18841	7.69045
4.49275	8.28037
5.65217	8.58131
6.69565	8.81096
7.68116	9.04131
8.66667	9.24743
9.71014	9.45285
10.6957	9.58629
11.6812	9.76818
12.6957	9.94972
13.6522	10.1077
14.6667	10.2408
