Adsorption isotherm of Carbon Dioxide on Graphite Oxide/Urea Cu-BTC 1 (2nd cycle)
DOI: 10.1021/am404952z
Article source: Figure 3
Adsorbate Carbon Dioxide: InChIKey CURLTUGMZLYLDI-UHFFFAOYSA-N
Kind: experiment
Temperature: 319 K
Tabular data in the source: 0
pressure (bar)	uptake (mmol/g)
3.6e-05	-0.011169
0.607752	0.856572
1.46828	1.66706
2.43448	2.3541
3.48547	2.86198
4.47355	3.29203
5.50413	3.59899
6.49272	3.87268
7.56556	4.13473
8.53334	4.33036
9.52215	4.53703
10.532	4.74359
11.5422	4.8608
12.4889	5.04538
13.4989	5.20727
14.5301	5.3467
