Adsorption isotherm of Carbon Dioxide on Graphite Oxide/Urea Cu-BTC 3 (2nd cycle)
DOI: 10.1021/am404952z
Article source: Figure 3
Adsorbate Carbon Dioxide: InChIKey CURLTUGMZLYLDI-UHFFFAOYSA-N
Kind: experiment
Temperature: 296 K
Tabular data in the source: 0
pressure (bar)	uptake (mmol/g)
0	0
0.328358	1.85812
0.955224	4.32494
1.91045	6.72769
3.07463	8.4897
4.26866	9.64302
5.46269	10.476
6.53731	11.0206
7.67164	11.405
8.68657	11.7895
9.73134	12.0458
10.7463	12.3021
11.7612	12.5584
12.7761	12.8467
13.8209	13.0389
14.7761	13.3272
