Adsorption isotherm of Carbon Dioxide on Graphite Oxide Cu-BTC (4th cycle)
DOI: 10.1021/am404952z
Article source: Figure 3
Adsorbate Carbon Dioxide: InChIKey CURLTUGMZLYLDI-UHFFFAOYSA-N
Kind: experiment
Temperature: 299 K
Tabular data in the source: 0
pressure (bar)	uptake (mmol/g)
0.029139	0.196891
0.352592	1.378
1.03137	3.01808
2.00778	4.5264
3.10432	5.61878
4.26135	6.36095
5.35951	6.90628
6.42848	7.2766
7.49757	7.60316
8.47769	7.86421
9.57702	8.01567
10.5573	8.23295
11.5674	8.40643
12.5775	8.5799
13.5578	8.75343
14.5677	9.01443
