Adsorption isotherm of Carbon Dioxide on Graphite Oxide/Urea Cu-BTC 1 (2nd cycle)
DOI: 10.1021/am404952z
Article source: Figure 3
Adsorbate Carbon Dioxide: InChIKey CURLTUGMZLYLDI-UHFFFAOYSA-N
Kind: experiment
Temperature: 296 K
Tabular data in the source: 0
pressure (bar)	uptake (mmol/g)
0	0
0.504117	1.32582
1.39927	2.56628
2.44557	3.47363
3.59964	4.08373
4.64453	4.54024
5.68903	4.86625
6.68971	5.08574
7.71198	5.25764
8.69081	5.44166
9.69142	5.63742
10.757	5.76161
11.6924	5.95776
12.693	6.15352
13.7153	6.33728
14.6724	6.52143
