Adsorption isotherm of Carbon Dioxide on Graphite Oxide/Urea Cu-BTC 2 (4th cycle)
DOI: 10.1021/am404952z
Article source: Figure 3
Adsorbate Carbon Dioxide: InChIKey CURLTUGMZLYLDI-UHFFFAOYSA-N
Kind: experiment
Temperature: 296 K
Tabular data in the source: 0
pressure (bar)	uptake (mmol/g)
0	-0.022779
0.371429	1.45786
1.08571	3.18907
2.08571	4.69248
3.25714	5.83144
4.4	6.53759
5.51429	7.03872
6.57143	7.40319
7.65714	7.69932
8.62857	7.97267
9.65714	8.22323
10.6571	8.40547
11.6857	8.61048
12.6571	8.83827
13.6857	8.99772
14.6857	9.15718
