Adsorption isotherm of Carbon Dioxide on Graphite Oxide Cu-BTC (2nd cycle)
DOI: 10.1021/am404952z
Article source: Figure 3
Adsorbate Carbon Dioxide: InChIKey CURLTUGMZLYLDI-UHFFFAOYSA-N
Kind: experiment
Temperature: 319 K
Tabular data in the source: 0
pressure (bar)	uptake (mmol/g)
0	0.15311
0.487705	1.16746
1.2623	2.35407
2.26639	3.42584
3.32787	4.28708
4.36066	4.95694
5.42213	5.47368
6.54098	5.89474
7.57377	6.25837
8.63525	6.54545
9.63934	6.8134
10.6434	7.02392
11.6475	7.19617
12.5943	7.4067
13.6557	7.57895
14.6311	7.77033
