Adsorption isotherm of Carbon Dioxide on Graphite Oxide/Urea Cu-BTC 1 (3rd cycle)
DOI: 10.1021/am404952z
Article source: Figure 3
Adsorbate Carbon Dioxide: InChIKey CURLTUGMZLYLDI-UHFFFAOYSA-N
Kind: experiment
Temperature: 277 K
Tabular data in the source: 0
pressure (bar)	uptake (mmol/g)
0	0
0.351648	1.63484
1.20879	3.48409
2.30769	4.59631
3.47253	5.17253
4.57143	5.53434
5.6044	5.76214
6.63736	5.92295
7.67033	6.05695
8.65934	6.17755
9.64835	6.33836
10.6593	6.47236
11.6703	6.60637
12.6374	6.72697
13.6703	6.86097
14.6154	7.04858
