Adsorption isotherm of Carbon Dioxide on Graphite Oxide/Urea Cu-BTC 3 (4th cycle)
DOI: 10.1021/am404952z
Article source: Figure 3
Adsorbate Carbon Dioxide: InChIKey CURLTUGMZLYLDI-UHFFFAOYSA-N
Kind: experiment
Temperature: 296 K
Tabular data in the source: 0
pressure (bar)	uptake (mmol/g)
0	0
0.328358	1.76201
0.985075	4.29291
1.9403	6.79176
3.10448	8.4897
4.29851	9.77117
5.46269	10.54
6.59701	11.0847
7.67164	11.4691
8.65672	11.8215
9.73134	12.1419
10.7761	12.4622
11.7313	12.6224
12.806	12.9748
13.791	13.167
14.806	13.3913
