Adsorption isotherm of Carbon Dioxide on Graphite Oxide/Urea Cu-BTC 3
DOI: 10.1021/am404952z
Article source: Figure 1
Adsorbate Carbon Dioxide: InChIKey CURLTUGMZLYLDI-UHFFFAOYSA-N
Kind: experiment
Temperature: 298 K
Tabular data in the source: 0
pressure (bar)	uptake (mmol/g)
0.188906	0.263699
0.41979	2.7089
0.902549	6.11301
1.84708	9.42123
3.14843	11.3151
4.49175	12.226
5.64618	12.7534
6.73763	13.137
7.76612	13.4247
8.7946	13.6164
9.76012	13.9041
10.7466	14.0959
11.6912	14.3356
12.6777	14.5993
13.7271	14.7911
14.6927	14.9829
