Adsorption isotherm of Carbon Dioxide on CuBTC
DOI: 10.1021/am404952z
Article source: Figure 3
Adsorbate Carbon Dioxide: InChIKey CURLTUGMZLYLDI-UHFFFAOYSA-N
Kind: experiment
Temperature: 297 K
Tabular data in the source: 0
pressure (bar)	uptake (mmol/g)
0	0.170213
0.367615	1.28556
1.16411	2.43814
2.17505	3.51479
3.30853	4.34541
4.38074	4.81678
5.51422	5.21241
6.5558	5.49469
7.53611	5.73923
8.57768	5.94586
9.61926	6.11466
10.6302	6.32134
11.6105	6.52805
12.6521	6.65903
13.6324	6.80901
14.6127	6.99681
