Adsorption isotherm of Carbon Dioxide on Graphite Oxide Cu-BTC (4th cycle)
DOI: 10.1021/am404952z
Article source: Figure 3
Adsorbate Carbon Dioxide: InChIKey CURLTUGMZLYLDI-UHFFFAOYSA-N
Kind: experiment
Temperature: 319 K
Tabular data in the source: 0
pressure (bar)	uptake (mmol/g)
0	0.15311
0.459016	1.09091
1.29098	2.23923
2.29508	3.42584
3.32787	4.2488
4.38934	4.99522
5.47951	5.49282
6.56967	5.95215
7.63115	6.2201
8.63525	6.54545
9.63934	6.77512
10.6434	7.04306
11.6189	7.311
12.5943	7.48325
13.6557	7.71292
14.6885	7.94258
