Adsorption isotherm of Carbon Dioxide on Graphite Oxide Cu-BTC
DOI: 10.1021/am404952z
Article source: Figure 1
Adsorbate Carbon Dioxide: InChIKey CURLTUGMZLYLDI-UHFFFAOYSA-N
Kind: experiment
Temperature: 318 K
Tabular data in the source: 0
pressure (bar)	uptake (mmol/g)
0.203785	0.191414
0.713246	1.18752
1.46725	2.45167
2.44541	3.52381
3.50509	4.38498
4.5444	5.03531
5.64483	5.58971
6.66376	6.06755
7.72344	6.35364
8.72198	6.65898
9.72052	6.94516
10.6987	7.19302
11.7176	7.40249
12.6958	7.63118
13.6943	7.84067
14.7132	8.0118
