Adsorption isotherm of Carbon Dioxide on CuBTC
DOI: 10.1021/am404952z
Article source: Figure 3
Adsorbate Carbon Dioxide: InChIKey CURLTUGMZLYLDI-UHFFFAOYSA-N
Kind: experiment
Temperature: 276 K
Tabular data in the source: 0
pressure (bar)	uptake (mmol/g)
0.000551	0.159624
0.269663	1.59624
0.95064	3.31221
1.98272	4.70892
3.21804	5.46714
4.45219	5.88615
5.53918	6.18545
6.59647	6.38498
7.62441	6.58451
8.65222	6.74413
9.62125	6.8838
10.6491	7.04343
11.618	7.14319
12.6456	7.24296
13.6438	7.34272
14.6129	7.50235
