Adsorption isotherm of Carbon Dioxide on Graphite Oxide/Urea Cu-BTC 2 (3rd cycle)
DOI: 10.1021/am404952z
Article source: Figure 3
Adsorbate Carbon Dioxide: InChIKey CURLTUGMZLYLDI-UHFFFAOYSA-N
Kind: experiment
Temperature: 296 K
Tabular data in the source: 0
pressure (bar)	uptake (mmol/g)
0	-0.022779
0.371429	1.4123
1.08571	3.09795
2.05714	4.62415
3.22857	5.78588
4.37143	6.46925
5.51429	6.99317
6.57143	7.33485
7.6	7.6082
8.65714	7.81321
9.62857	8.041
10.7143	8.17768
11.6286	8.42825
12.6	8.5877
13.6286	8.86105
14.6286	9.0205
