Adsorption isotherm of Carbon Dioxide on CuBTC
DOI: 10.1021/am404952z
Article source: Figure 3
Adsorbate Carbon Dioxide: InChIKey CURLTUGMZLYLDI-UHFFFAOYSA-N
Kind: experiment
Temperature: 276 K
Tabular data in the source: 0
pressure (bar)	uptake (mmol/g)
0.000551	0.159624
0.298806	1.53638
0.950778	3.35211
2.01234	4.78873
3.27688	5.50704
4.48168	5.92606
5.56846	6.16549
6.59647	6.38498
7.68298	6.5446
8.68143	6.70423
9.67975	6.82394
10.6781	6.96362
11.6472	7.10329
12.6453	7.1831
13.5852	7.38263
14.6129	7.50235
