Adsorption isotherm of Carbon Dioxide on Graphite Oxide/Urea Cu-BTC 2
DOI: 10.1021/am404952z
Article source: Figure 1
Adsorbate Carbon Dioxide: InChIKey CURLTUGMZLYLDI-UHFFFAOYSA-N
Kind: experiment
Temperature: 277 K
Tabular data in the source: 0
pressure (bar)	uptake (mmol/g)
0.188906	0.240602
0.44078	2.16541
1.07046	4.66767
2.09895	6.68872
3.37931	7.81955
4.65967	8.42105
5.7931	8.75789
6.82159	8.9985
7.8081	9.2391
8.77361	9.45564
9.82309	9.67218
10.7886	9.79248
11.7331	9.98496
12.7616	10.1774
13.7271	10.3459
14.7136	10.5143
