Adsorption isotherm of Carbon Dioxide on Graphite Oxide/Urea Cu-BTC 1
DOI: 10.1021/am404952z
Article source: Figure 1
Adsorbate Carbon Dioxide: InChIKey CURLTUGMZLYLDI-UHFFFAOYSA-N
Kind: experiment
Temperature: 318 K
Tabular data in the source: 0
pressure (bar)	uptake (mmol/g)
0.203785	0.191414
0.79476	1.1299
1.71179	1.89542
2.66958	2.5267
3.6885	3.13872
4.68705	3.61659
5.74672	4.03686
6.74527	4.3422
7.74381	4.60921
8.72198	4.8379
9.76128	5.04734
10.7191	5.23772
11.6972	5.52392
12.6754	5.67594
13.6739	5.86626
14.6929	6.07573
