Adsorption isotherm of Carbon Dioxide on Graphite Oxide/Urea Cu-BTC 3 (1st cycle)
DOI: 10.1021/am404952z
Article source: Figure 3
Adsorbate Carbon Dioxide: InChIKey CURLTUGMZLYLDI-UHFFFAOYSA-N
Kind: experiment
Temperature: 319 K
Tabular data in the source: 0
pressure (bar)	uptake (mmol/g)
0	-0.029557
0.457143	1.35961
1.22857	3.10345
2.14286	4.78818
3.25714	6.23645
4.31429	7.33005
5.4	8.24631
6.48571	8.89655
7.48571	9.42857
8.54286	9.96059
9.6	10.3153
10.5714	10.6108
11.6	11.0542
12.6	11.3498
13.5714	11.6158
14.6	11.8818
