Adsorption isotherm of Carbon Dioxide on Graphite Oxide/Urea Cu-BTC 2 (3rd cycle)
DOI: 10.1021/am404952z
Article source: Figure 3
Adsorbate Carbon Dioxide: InChIKey CURLTUGMZLYLDI-UHFFFAOYSA-N
Kind: experiment
Temperature: 277 K
Tabular data in the source: 0
pressure (bar)	uptake (mmol/g)
0	0
0.26087	1.88671
0.869565	4.10841
1.85507	6.18017
3.13043	7.32771
4.37681	7.86988
5.53623	8.2435
6.6087	8.44857
7.65217	8.67822
8.6087	8.83624
9.68116	9.06554
10.6377	9.24778
11.6232	9.42968
12.6377	9.53853
13.6522	9.64739
14.6087	9.82963
