Adsorption isotherm of Carbon Dioxide on Graphite Oxide Cu-BTC (2nd cycle)
DOI: 10.1021/am404952z
Article source: Figure 3
Adsorbate Carbon Dioxide: InChIKey CURLTUGMZLYLDI-UHFFFAOYSA-N
Kind: experiment
Temperature: 299 K
Tabular data in the source: 0
pressure (bar)	uptake (mmol/g)
0.029139	0.196891
0.352592	1.378
1.03124	3.06185
2.00752	4.61393
3.10406	5.70631
4.32054	6.44839
5.41864	7.0156
6.48767	7.36404
7.55695	7.62495
8.59658	7.86403
9.57676	8.10319
10.5569	8.34236
11.5968	8.51579
12.577	8.73308
13.5871	8.90655
14.5971	9.10191
