Adsorption isotherm of Nitrogen on Graphite Oxide/Urea Cu-BTC 3
DOI: 10.1021/am404952z
Article source: Figure 1
Adsorbate Nitrogen: InChIKey IJGRMHOSHXDMSA-UHFFFAOYSA-N
Kind: experiment
Temperature: 298 K
Tabular data in the source: 0
pressure (bar)	uptake (mmol/g)
0.000417	0.19535
0.688942	0.424858
1.58694	0.687411
2.57461	0.917615
3.62225	1.21308
4.60971	1.3456
5.59738	1.57581
6.64475	1.74103
7.63235	1.93868
8.61974	2.03865
9.69702	2.20395
10.6846	2.40159
11.672	2.50156
12.6594	2.60153
13.6469	2.76662
14.6343	2.86659
