Adsorption isotherm of Carbon Dioxide on CuBTC
DOI: 10.1021/am404952z
Article source: Figure 3
Adsorbate Carbon Dioxide: InChIKey CURLTUGMZLYLDI-UHFFFAOYSA-N
Kind: experiment
Temperature: 297 K
Tabular data in the source: 0
pressure (bar)	uptake (mmol/g)
0	0.170213
0.367615	1.38012
1.16411	2.68401
2.20569	3.87409
3.33917	4.66688
4.44201	5.21386
5.54486	5.53388
6.58643	5.77834
7.59737	6.06066
8.66958	6.22942
9.68053	6.37936
10.6608	6.54825
11.6718	6.71709
12.7133	6.82916
13.663	7.017
14.674	7.14803
