Adsorption isotherm of Carbon Dioxide on Graphite Oxide/Urea Cu-BTC 1 (4th cycle)
DOI: 10.1021/am404952z
Article source: Figure 3
Adsorbate Carbon Dioxide: InChIKey CURLTUGMZLYLDI-UHFFFAOYSA-N
Kind: experiment
Temperature: 319 K
Tabular data in the source: 0
pressure (bar)	uptake (mmol/g)
3.6e-05	-0.011169
0.586627	0.879027
1.51017	1.73383
2.45524	2.44333
3.48514	2.9625
4.49442	3.34775
5.54573	3.75511
6.53417	4.07348
7.52283	4.32483
8.49037	4.59864
9.47921	4.79415
10.531	5.04514
11.4991	5.15142
12.509	5.34681
13.5191	5.47519
14.5079	5.6707
