Adsorption isotherm of Carbon Dioxide on Graphite Oxide/Urea Cu-BTC 1 (2nd cycle)
DOI: 10.1021/am404952z
Article source: Figure 3
Adsorbate Carbon Dioxide: InChIKey CURLTUGMZLYLDI-UHFFFAOYSA-N
Kind: experiment
Temperature: 277 K
Tabular data in the source: 0
pressure (bar)	uptake (mmol/g)
0	0
0.395604	1.70184
1.18681	3.51089
2.37363	4.58291
3.51648	5.17253
4.59341	5.48074
5.64835	5.69514
6.63736	5.93635
7.67033	6.11055
8.65934	6.17755
9.64835	6.37856
10.6374	6.51256
11.6703	6.74037
12.6593	6.80737
13.6264	6.94137
14.6154	7.22278
