Adsorption isotherm of Carbon Dioxide on Graphite Oxide/Urea Cu-BTC 3 (1st cycle)
DOI: 10.1021/am404952z
Article source: Figure 3
Adsorbate Carbon Dioxide: InChIKey CURLTUGMZLYLDI-UHFFFAOYSA-N
Kind: experiment
Temperature: 296 K
Tabular data in the source: 0
pressure (bar)	uptake (mmol/g)
0	0
0.328358	1.85812
0.985075	4.42105
1.9403	6.88787
3.10448	8.61785
4.29851	9.73913
5.52239	10.5721
6.62687	11.1167
7.70149	11.5652
8.65672	11.8856
9.79104	12.2059
10.7761	12.4943
11.8209	12.7185
12.8358	13.0069
13.791	13.1991
14.806	13.3913
