Adsorption isotherm of Carbon Dioxide on Graphite Oxide/Urea Cu-BTC 1 (1st cycle)
DOI: 10.1021/am404952z
Article source: Figure 3
Adsorbate Carbon Dioxide: InChIKey CURLTUGMZLYLDI-UHFFFAOYSA-N
Kind: experiment
Temperature: 277 K
Tabular data in the source: 0
pressure (bar)	uptake (mmol/g)
0	0
0.373626	1.78224
1.20879	3.59129
2.26374	4.75712
3.49451	5.37353
4.61538	5.64154
5.62637	5.89615
6.63736	6.13735
7.64835	6.29816
8.68132	6.47236
9.62637	6.68677
10.7033	6.78057
11.6484	6.87437
12.6593	7.07538
13.6923	7.24958
14.6374	7.38358
