Adsorption isotherm of Carbon Dioxide on Graphite Oxide/Urea Cu-BTC 3 (3rd cycle)
DOI: 10.1021/am404952z
Article source: Figure 3
Adsorbate Carbon Dioxide: InChIKey CURLTUGMZLYLDI-UHFFFAOYSA-N
Kind: experiment
Temperature: 319 K
Tabular data in the source: 0
pressure (bar)	uptake (mmol/g)
0	-0.029557
0.428571	1.30049
1.2	2.95567
2.14286	4.64039
3.2	6.08867
4.28571	7.24138
5.34286	8.09852
6.42857	8.74877
7.48571	9.3399
8.51429	9.84236
9.54286	10.2266
10.5714	10.5222
11.5429	10.8768
12.5714	11.202
13.5429	11.468
14.5143	11.734
