Adsorption isotherm of Carbon Dioxide on Graphite Oxide/Urea Cu-BTC 1 (4th cycle)
DOI: 10.1021/am404952z
Article source: Figure 3
Adsorbate Carbon Dioxide: InChIKey CURLTUGMZLYLDI-UHFFFAOYSA-N
Kind: experiment
Temperature: 296 K
Tabular data in the source: 0
pressure (bar)	uptake (mmol/g)
0	0
0.504154	1.33769
1.37757	2.57827
2.46731	3.4735
3.51279	4.11984
4.6228	4.54037
5.71069	4.84239
6.66815	5.14519
7.69032	5.2815
8.69107	5.52471
9.7132	5.64916
10.7137	5.79746
11.7359	5.96936
12.7149	6.20084
13.7153	6.32542
14.6724	6.50957
