Adsorption isotherm of Carbon Dioxide on Graphite Oxide/Urea Cu-BTC 2 (2nd cycle)
DOI: 10.1021/am404952z
Article source: Figure 3
Adsorbate Carbon Dioxide: InChIKey CURLTUGMZLYLDI-UHFFFAOYSA-N
Kind: experiment
Temperature: 296 K
Tabular data in the source: 0
pressure (bar)	uptake (mmol/g)
0	-0.022779
0.342857	1.48064
1.08571	3.14351
2.05714	4.6697
3.2	5.71754
4.34286	6.42369
5.54286	6.92483
6.6	7.26651
7.6	7.53986
8.62857	7.7221
9.6	7.94989
10.6571	8.10934
11.6857	8.29157
12.6	8.51936
13.6857	8.65604
14.6	8.83827
