Adsorption isotherm of Carbon Dioxide on Graphite Oxide/Urea Cu-BTC 2 (1st cycle)
DOI: 10.1021/am404952z
Article source: Figure 3
Adsorbate Carbon Dioxide: InChIKey CURLTUGMZLYLDI-UHFFFAOYSA-N
Kind: experiment
Temperature: 296 K
Tabular data in the source: 0
pressure (bar)	uptake (mmol/g)
0	-0.022779
0.342857	1.48064
1.08571	3.2574
2.08571	4.7836
3.25714	5.92255
4.42857	6.60592
5.54286	7.10706
6.57143	7.44875
7.65714	7.76765
8.62857	8.01822
9.65714	8.20046
10.6571	8.40547
11.7143	8.61048
12.6571	8.76993
13.6857	9.0205
14.6571	9.1344
