Adsorption isotherm of Carbon Dioxide on Graphite Oxide/Urea Cu-BTC 2 (3rd cycle)
DOI: 10.1021/am404952z
Article source: Figure 3
Adsorbate Carbon Dioxide: InChIKey CURLTUGMZLYLDI-UHFFFAOYSA-N
Kind: experiment
Temperature: 318 K
Tabular data in the source: 0
pressure (bar)	uptake (mmol/g)
0	0
0.474256	1.02263
1.33134	2.17783
2.33494	3.18152
3.45558	4.01478
4.4873	4.65866
5.5771	5.09423
6.66669	5.47298
7.66818	5.88961
8.66913	6.15473
9.72877	6.38199
10.7297	6.64711
11.7304	6.83649
12.7608	7.10162
13.7907	7.25312
14.7621	7.46143
