Adsorption isotherm of Carbon Dioxide on Graphite Oxide/Urea Cu-BTC 2 (2nd cycle)
DOI: 10.1021/am404952z
Article source: Figure 3
Adsorbate Carbon Dioxide: InChIKey CURLTUGMZLYLDI-UHFFFAOYSA-N
Kind: experiment
Temperature: 318 K
Tabular data in the source: 0
pressure (bar)	uptake (mmol/g)
0	0
0.44498	1.06051
1.302	2.19677
2.33508	3.2194
3.45571	4.05266
4.51678	4.6776
5.57757	5.22679
6.63802	5.68129
7.66873	6.04111
8.69929	6.36305
9.72966	6.62818
10.7599	6.85543
11.7899	7.02587
12.7612	7.23418
13.7621	7.48037
14.7627	7.65081
