Adsorption isotherm of Carbon Dioxide on Graphite Oxide/Urea Cu-BTC 3 (3rd cycle)
DOI: 10.1021/am404952z
Article source: Figure 3
Adsorbate Carbon Dioxide: InChIKey CURLTUGMZLYLDI-UHFFFAOYSA-N
Kind: experiment
Temperature: 276 K
Tabular data in the source: 0
pressure (bar)	uptake (mmol/g)
0	0
0.2	2.38713
0.685714	5.83567
1.62857	9.05511
2.94286	11.0907
4.22857	11.9498
5.48571	12.5152
6.54286	12.8636
7.62857	13.1011
8.62857	13.3402
9.62857	13.616
10.6	13.7821
11.6	14.0211
12.6286	14.1494
13.6	14.389
14.6	14.628
