Adsorption isotherm of Carbon Dioxide on CuBTC
DOI: 10.1021/am404952z
Article source: Figure 3
Adsorbate Carbon Dioxide: InChIKey CURLTUGMZLYLDI-UHFFFAOYSA-N
Kind: experiment
Temperature: 317 K
Tabular data in the source: 0
pressure (bar)	uptake (mmol/g)
0	0.130841
0.503171	0.981896
1.33192	1.89875
2.36786	2.70136
3.37421	3.35675
4.46934	3.84868
5.50529	4.24241
6.57082	4.53805
7.57717	4.86633
8.61311	5.11287
9.58985	5.32662
10.5666	5.54038
11.6321	5.72153
12.6385	5.93533
13.6448	6.06734
14.6216	6.21568
