Adsorption isotherm of Carbon Dioxide on CuBTC
DOI: 10.1021/am404952z
Article source: Figure 1
Adsorbate Carbon Dioxide: InChIKey CURLTUGMZLYLDI-UHFFFAOYSA-N
Kind: experiment
Temperature: 277 K
Tabular data in the source: 0
pressure (bar)	uptake (mmol/g)
0.188906	0.240602
0.461769	2.02105
1.13343	3.87368
2.16192	5.41353
3.46327	6.18346
4.63868	6.6406
5.73013	6.92932
6.71664	7.16992
7.76612	7.36241
8.75262	7.53083
9.73913	7.69925
10.7256	7.84361
11.6912	7.96391
12.6987	8.10827
13.7271	8.20451
14.7136	8.34887
