Adsorption isotherm of Carbon Dioxide on Graphite Oxide Cu-BTC (2nd cycle)
DOI: 10.1021/am404952z
Article source: Figure 3
Adsorbate Carbon Dioxide: InChIKey CURLTUGMZLYLDI-UHFFFAOYSA-N
Kind: experiment
Temperature: 276 K
Tabular data in the source: 0
pressure (bar)	uptake (mmol/g)
0	0.193407
0.234801	1.93407
0.821803	4.35165
1.81971	6.33407
3.11111	7.49451
4.40252	8.02637
5.57652	8.36484
6.57442	8.58242
7.60168	8.84835
8.59958	9.11429
9.65618	9.21099
10.6247	9.45275
11.6813	9.54945
12.6499	9.64615
13.6478	9.81538
14.6751	9.96044
