Adsorption isotherm of Carbon Dioxide on Graphite Oxide/Urea Cu-BTC 2
DOI: 10.1021/am404952z
Article source: Figure 1
Adsorbate Carbon Dioxide: InChIKey CURLTUGMZLYLDI-UHFFFAOYSA-N
Kind: experiment
Temperature: 318 K
Tabular data in the source: 0
pressure (bar)	uptake (mmol/g)
0.203785	0.191414
0.713246	1.18752
1.52838	2.47075
2.50655	3.54289
3.52547	4.36578
4.62591	4.99686
5.64483	5.51304
6.68413	5.99085
7.68268	6.3537
8.72198	6.65898
9.76128	6.9451
10.6987	7.19302
11.7176	7.40249
12.6958	7.63118
13.6943	7.84067
14.7132	8.0118
