Adsorption isotherm of Carbon Dioxide on CuBTC
DOI: 10.1021/am404952z
Article source: Figure 3
Adsorbate Carbon Dioxide: InChIKey CURLTUGMZLYLDI-UHFFFAOYSA-N
Kind: experiment
Temperature: 317 K
Tabular data in the source: 0
pressure (bar)	uptake (mmol/g)
0	0.130841
0.503171	0.998251
1.36152	1.89879
2.39746	2.65233
3.463	3.29143
4.46934	3.7669
5.53488	4.12796
6.57082	4.47263
7.60677	4.62104
8.58351	4.94928
9.58985	5.11401
10.6258	5.34419
11.6617	5.55802
12.6089	5.72267
13.6448	5.88744
14.6512	6.05216
