Adsorption isotherm of Carbon Dioxide on CuBTC
DOI: 10.1021/am404952z
Article source: Figure 3
Adsorbate Carbon Dioxide: InChIKey CURLTUGMZLYLDI-UHFFFAOYSA-N
Kind: experiment
Temperature: 297 K
Tabular data in the source: 0
pressure (bar)	uptake (mmol/g)
0	0.170213
0.367615	1.32338
1.19475	2.64614
2.23632	3.72275
3.33917	4.55341
4.47265	5.08143
5.57549	5.45819
6.61707	5.7783
7.62801	6.0417
8.66958	6.22942
9.64989	6.39831
10.6608	6.56716
11.6718	6.73601
12.6827	6.88594
13.6937	6.99805
14.7046	7.14798
