Adsorption isotherm of Carbon Dioxide on Graphite Oxide/Urea Cu-BTC 3 (1st cycle)
DOI: 10.1021/am404952z
Article source: Figure 3
Adsorbate Carbon Dioxide: InChIKey CURLTUGMZLYLDI-UHFFFAOYSA-N
Kind: experiment
Temperature: 276 K
Tabular data in the source: 0
pressure (bar)	uptake (mmol/g)
0	0
0.228571	2.42338
0.714286	5.98227
1.65714	9.31205
2.97143	11.2373
4.31429	12.1689
5.51429	12.6986
6.6	13.0464
7.62857	13.3218
8.65714	13.4868
9.62857	13.8367
10.6286	13.9655
11.6286	14.131
12.6	14.4441
13.6286	14.6091
14.6	14.812
