Adsorption isotherm of Carbon Dioxide on CuBTC
DOI: 10.1021/am404952z
Article source: Figure 1
Adsorbate Carbon Dioxide: InChIKey CURLTUGMZLYLDI-UHFFFAOYSA-N
Kind: experiment
Temperature: 298 K
Tabular data in the source: 0
pressure (bar)	uptake (mmol/g)
0.188906	0.263699
0.44078	1.94178
1.11244	3.85959
2.16192	5.39384
3.46327	6.16096
4.63868	6.61644
5.73013	6.92808
6.71664	7.16781
7.76612	7.33562
8.77361	7.50342
9.73913	7.67123
10.7256	7.81507
11.6912	7.93493
12.6987	8.07877
13.7061	8.17466
14.6927	8.31849
