Adsorption isotherm of Carbon Dioxide on Graphite Oxide/Urea Cu-BTC 2 (2nd cycle)
DOI: 10.1021/am404952z
Article source: Figure 3
Adsorbate Carbon Dioxide: InChIKey CURLTUGMZLYLDI-UHFFFAOYSA-N
Kind: experiment
Temperature: 277 K
Tabular data in the source: 0
pressure (bar)	uptake (mmol/g)
0	0
0.26087	1.76556
0.869565	4.05995
1.85507	6.15594
3.15942	7.32736
4.43478	7.89341
5.53623	8.2435
6.63768	8.52091
7.62319	8.79972
8.6087	8.93315
9.68116	9.06554
10.6667	9.15051
11.6812	9.30783
12.6377	9.44161
13.6232	9.59928
14.6087	9.75694
