Adsorption isotherm of Carbon Dioxide on Graphite Oxide Cu-BTC (1st cycle)
DOI: 10.1021/am404952z
Article source: Figure 3
Adsorbate Carbon Dioxide: InChIKey CURLTUGMZLYLDI-UHFFFAOYSA-N
Kind: experiment
Temperature: 276 K
Tabular data in the source: 0
pressure (bar)	uptake (mmol/g)
0	0.193407
0.234801	1.93407
0.763103	4.42418
1.73166	6.57582
3.08176	7.76044
4.37317	8.34066
5.57652	8.63077
6.57442	8.8967
7.63103	9.11429
8.65828	9.28352
9.65618	9.45275
10.6834	9.64615
11.7107	9.79121
12.6499	9.91209
13.6184	10.0813
