Adsorption isotherm of Carbon Dioxide on Graphite Oxide/Urea Cu-BTC 3 (4th cycle)
DOI: 10.1021/am404952z
Article source: Figure 3
Adsorbate Carbon Dioxide: InChIKey CURLTUGMZLYLDI-UHFFFAOYSA-N
Kind: experiment
Temperature: 319 K
Tabular data in the source: 0
pressure (bar)	uptake (mmol/g)
0	-0.029557
0.457143	1.33005
1.25714	3.07389
2.14286	4.75862
3.2	6.17734
4.31429	7.33005
5.4	8.18719
6.48571	8.867
7.54286	9.42857
8.54286	9.93103
9.57143	10.3448
10.5714	10.67
11.5714	11.0542
12.5429	11.4089
13.6	11.7044
14.6	11.9704
