Adsorption isotherm of Carbon Dioxide on Graphite Oxide/Urea Cu-BTC 2 (4th cycle)
DOI: 10.1021/am404952z
Article source: Figure 3
Adsorbate Carbon Dioxide: InChIKey CURLTUGMZLYLDI-UHFFFAOYSA-N
Kind: experiment
Temperature: 277 K
Tabular data in the source: 0
pressure (bar)	uptake (mmol/g)
0	0
0.26087	1.74133
0.869565	4.15687
1.88406	6.20405
3.13043	7.32771
4.37681	7.86988
5.56522	8.31584
6.6087	8.61818
7.65217	8.87206
8.66667	9.07783
9.65217	9.21126
10.6087	9.44197
11.6522	9.59893
12.6377	9.6839
13.6522	9.79276
14.6377	10.0231
