Adsorption isotherm of Carbon Dioxide on CuBTC
DOI: 10.1021/am404952z
Article source: Figure 3
Adsorbate Carbon Dioxide: InChIKey CURLTUGMZLYLDI-UHFFFAOYSA-N
Kind: experiment
Temperature: 297 K
Tabular data in the source: 0
pressure (bar)	uptake (mmol/g)
0	0.170213
0.367615	1.22882
1.19475	2.40028
2.17505	3.47697
3.30853	4.30759
4.38074	4.79786
5.51422	5.23132
6.5558	5.49469
7.53611	5.81488
8.63895	5.92686
9.64989	6.15245
10.6302	6.30242
11.6411	6.47127
12.6521	6.64012
13.6018	6.80905
14.6127	6.95898
