Adsorption isotherm of Carbon Dioxide on Graphite Oxide/Urea Cu-BTC 2 (4th cycle)
DOI: 10.1021/am404952z
Article source: Figure 3
Adsorbate Carbon Dioxide: InChIKey CURLTUGMZLYLDI-UHFFFAOYSA-N
Kind: experiment
Temperature: 318 K
Tabular data in the source: 0
pressure (bar)	uptake (mmol/g)
0	0
0.503668	1.02263
1.39016	2.17783
2.33487	3.16259
3.39641	3.92009
4.45761	4.58291
5.57723	5.1321
6.66683	5.51085
7.66818	5.88961
8.69868	6.19261
9.7588	6.55242
10.7301	6.76074
11.7601	6.91224
12.761	7.17737
13.791	7.32887
14.7919	7.57506
