Adsorption isotherm of Carbon Dioxide on Graphite Oxide/Urea Cu-BTC 1 (1st cycle)
DOI: 10.1021/am404952z
Article source: Figure 3
Adsorbate Carbon Dioxide: InChIKey CURLTUGMZLYLDI-UHFFFAOYSA-N
Kind: experiment
Temperature: 319 K
Tabular data in the source: 0
pressure (bar)	uptake (mmol/g)
3.6e-05	-0.011169
0.628552	0.934634
1.51017	1.73383
2.47651	2.37621
3.50619	2.96238
4.49413	3.4371
5.54537	3.8668
6.59701	4.17364
7.54353	4.4364
8.53226	4.66541
9.56317	4.87186
10.5099	5.0676
11.5194	5.37468
12.5084	5.52551
13.4762	5.72114
14.5071	5.92758
