Adsorption isotherm of Carbon Dioxide on Graphite Oxide Cu-BTC (1st cycle)
DOI: 10.1021/am404952z
Article source: Figure 3
Adsorbate Carbon Dioxide: InChIKey CURLTUGMZLYLDI-UHFFFAOYSA-N
Kind: experiment
Temperature: 299 K
Tabular data in the source: 0
pressure (bar)	uptake (mmol/g)
0.029139	0.196891
0.352592	1.378
1.03124	3.06185
2.00765	4.57017
3.13385	5.68438
4.32054	6.44839
5.38904	6.97188
6.45801	7.3422
7.52723	7.625
8.5372	7.84224
9.57696	8.03755
10.587	8.23291
11.5674	8.40643
12.5775	8.55802
13.5578	8.75343
14.5678	8.97067
