Adsorption isotherm of Carbon Dioxide on Graphite Oxide/Urea Cu-BTC 1 (4th cycle)
DOI: 10.1021/am404952z
Article source: Figure 3
Adsorbate Carbon Dioxide: InChIKey CURLTUGMZLYLDI-UHFFFAOYSA-N
Kind: experiment
Temperature: 277 K
Tabular data in the source: 0
pressure (bar)	uptake (mmol/g)
0	0
0.395604	1.76884
1.20879	3.55109
2.35165	4.63652
3.51648	5.23953
4.59341	5.57454
5.6044	5.85595
6.65934	6.05695
7.67033	6.24456
8.65934	6.43216
9.64835	6.56616
10.6374	6.75377
11.6264	6.87437
12.6593	7.06198
13.6703	7.24958
14.5934	7.45059
