Adsorption isotherm of Carbon Dioxide on Graphite Oxide/Urea Cu-BTC 1
DOI: 10.1021/am404952z
Article source: Figure 1
Adsorbate Carbon Dioxide: InChIKey CURLTUGMZLYLDI-UHFFFAOYSA-N
Kind: experiment
Temperature: 298 K
Tabular data in the source: 0
pressure (bar)	uptake (mmol/g)
0.188906	0.263699
0.524738	1.98973
1.36432	3.7637
2.43478	4.91438
3.63118	5.53767
4.74363	5.80137
5.73013	6.0411
6.73763	6.28082
7.76612	6.4726
8.73163	6.61644
9.71814	6.83219
10.7676	6.90411
11.7121	7
12.7196	7.19178
13.6852	7.35959
14.6507	7.45548
