Adsorption isotherm of Carbon Dioxide on Graphite Oxide Cu-BTC (4th cycle)
DOI: 10.1021/am404952z
Article source: Figure 3
Adsorbate Carbon Dioxide: InChIKey CURLTUGMZLYLDI-UHFFFAOYSA-N
Kind: experiment
Temperature: 276 K
Tabular data in the source: 0
pressure (bar)	uptake (mmol/g)
0	0.193407
0.234801	1.93407
0.821803	4.37582
1.76101	6.47912
3.11111	7.71209
4.37317	8.26813
5.54717	8.60659
6.60377	8.87253
7.63103	9.04176
8.65828	9.28352
9.65618	9.5011
10.6834	9.67033
11.7107	9.81538
12.6499	9.98462
13.6478	10.0571
14.6457	10.2747
