Adsorption isotherm of Carbon Dioxide on CuBTC
DOI: 10.1021/am404952z
Article source: Figure 3
Adsorbate Carbon Dioxide: InChIKey CURLTUGMZLYLDI-UHFFFAOYSA-N
Kind: experiment
Temperature: 317 K
Tabular data in the source: 0
pressure (bar)	uptake (mmol/g)
0	0.130841
0.503171	0.981896
1.33192	1.84969
2.36786	2.61959
3.40381	3.275
4.46934	3.81597
5.53488	4.22609
6.57082	4.53805
7.57717	4.86633
8.61311	5.08016
9.58985	5.2612
10.5666	5.44225
11.6321	5.6234
12.6385	5.82084
13.6448	5.95286
14.592	6.13387
