Adsorption isotherm of Carbon Dioxide on Graphite Oxide/Urea Cu-BTC 3
DOI: 10.1021/am404952z
Article source: Figure 1
Adsorbate Carbon Dioxide: InChIKey CURLTUGMZLYLDI-UHFFFAOYSA-N
Kind: experiment
Temperature: 298 K
Tabular data in the source: 0
pressure (bar)	uptake (mmol/g)
0.000417	0.19535
0.333236	1.95426
0.96687	4.49527
1.89951	6.97186
3.09986	8.73279
4.29881	9.84256
5.46722	10.6592
6.60509	11.1828
7.62309	11.6084
8.67087	11.969
9.65868	12.2643
10.6765	12.5923
11.7538	12.7901
12.7416	13.0529
13.6993	13.2505
14.6869	13.4807
