Adsorption isotherm of Carbon Dioxide on Graphite Oxide Cu-BTC
DOI: 10.1021/am404952z
Article source: Figure 1
Adsorbate Carbon Dioxide: InChIKey CURLTUGMZLYLDI-UHFFFAOYSA-N
Kind: experiment
Temperature: 298 K
Tabular data in the source: 0
pressure (bar)	uptake (mmol/g)
0.188906	0.263699
0.41979	2.03767
0.923538	4.4589
1.88906	6.61644
3.23238	7.81507
4.53373	8.36644
5.66717	8.70205
6.67466	8.94178
7.70315	9.13356
8.73163	9.32534
9.73913	9.49315
10.7256	9.66096
11.7121	9.82877
12.6777	9.9726
13.6642	10.1164
14.6717	10.2842
