Adsorption isotherm of Carbon Dioxide on Graphite Oxide Cu-BTC (3rd cycle)
DOI: 10.1021/am404952z
Article source: Figure 3
Adsorbate Carbon Dioxide: InChIKey CURLTUGMZLYLDI-UHFFFAOYSA-N
Kind: experiment
Temperature: 319 K
Tabular data in the source: 0
pressure (bar)	uptake (mmol/g)
0	0.15311
0.516393	1.14833
1.34836	2.27751
2.32377	3.33014
3.38525	4.22967
4.47541	4.89952
5.47951	5.39713
6.56967	5.8756
7.60246	6.16268
8.63525	6.48804
9.63934	6.73684
10.6434	7.00478
11.7049	7.23445
12.6516	7.48325
13.6844	7.6555
14.6598	7.82775
