Adsorption isotherm of Carbon Dioxide on Graphite Oxide/Urea Cu-BTC 1 (1st cycle)
DOI: 10.1021/am404952z
Article source: Figure 3
Adsorbate Carbon Dioxide: InChIKey CURLTUGMZLYLDI-UHFFFAOYSA-N
Kind: experiment
Temperature: 296 K
Tabular data in the source: 0
pressure (bar)	uptake (mmol/g)
0	0
0.482526	1.37341
1.37768	2.61386
2.40231	3.54507
3.49124	4.17929
4.60139	4.64728
5.68936	4.97303
6.66826	5.18078
7.66894	5.40027
8.69129	5.5959
9.71353	5.75594
10.736	5.98716
11.7583	6.17093
12.6936	6.33148
13.7592	6.45567
14.6945	6.61622
