Adsorption isotherm of Carbon Dioxide on CuBTC
DOI: 10.1021/am404952z
Article source: Figure 1
Adsorbate Carbon Dioxide: InChIKey CURLTUGMZLYLDI-UHFFFAOYSA-N
Kind: experiment
Temperature: 318 K
Tabular data in the source: 0
pressure (bar)	uptake (mmol/g)
0.203785	0.191414
0.652111	1.11093
1.52838	1.97235
2.48617	2.73781
3.54585	3.40729
4.60553	3.94258
5.64483	4.34371
6.66376	4.70653
7.70306	4.99265
8.72198	5.22128
9.70015	5.43081
10.6987	5.6403
11.6565	5.83068
12.6346	6.07855
13.6536	6.19217
14.6725	6.3633
