Adsorption isotherm of Carbon Dioxide on CuBTC
DOI: 10.1021/am404952z
Article source: Figure 3
Adsorbate Carbon Dioxide: InChIKey CURLTUGMZLYLDI-UHFFFAOYSA-N
Kind: experiment
Temperature: 276 K
Tabular data in the source: 0
pressure (bar)	uptake (mmol/g)
0.000551	0.159624
0.240657	1.69601
0.951605	3.59155
2.01317	5.02817
3.33647	5.76643
4.51192	6.18545
5.62819	6.46479
6.62685	6.68427
7.68401	6.8439
8.68253	7.02347
9.65164	7.1831
10.6792	7.28286
11.6482	7.40258
12.6759	7.54225
13.7036	7.66197
14.6725	7.76174
