Adsorption isotherm of Hydrogen on [NH4+SNU-200']Cl-
DOI: 10.1002/anie.201404265
Adsorbate Hydrogen: InChIKey UFHFLCQGNIYNRP-UHFFFAOYSA-N
Temperature: 77 K
Tabular data in the source: 0
pressure (bar)	uptake (cm3(STP)/g)
0.0146647	1.5329
0.0255825	8.83644
0.034705	13.0637
0.041987	17.6764
0.0529351	22.6722
0.0657087	28.4366
0.0730309	29.9723
0.0821586	33.815
0.0876401	35.736
0.100469	37.2696
0.122436	41.8766
0.153536	49.9417
0.204826	57.9992
0.256132	64.9028
0.318427	73.7253
0.364262	77.9387
0.415604	82.1499
0.463259	87.5165
0.51461	90.9585
0.571454	95.5523
0.613627	98.9978
0.670486	102.438
0.716335	105.497
0.764031	107.787
0.817234	110.074
0.864924	112.749
0.919952	115.805
0.969483	118.094
1.0135	120.385
