Adsorption isotherm of Hydrogen on [NH4+SNU-200']Cl-
DOI: 10.1002/anie.201404265
Adsorbate Hydrogen: InChIKey UFHFLCQGNIYNRP-UHFFFAOYSA-N
Temperature: 87 K
Tabular data in the source: 0
pressure (bar)	uptake (cm3(STP)/g)
0.0256683	2.29795
0.038467	6.13924
0.0494655	7.28892
0.0586184	9.20852
0.0659356	11.1288
0.0769291	12.6631
0.0879125	14.9666
0.100737	16.8848
0.214352	31.4571
0.326188	41.7993
0.364686	45.6308
0.419708	49.0715
0.465548	52.9002
0.518735	56.3416
0.570102	58.6298
0.619624	61.6879
0.672815	64.7446
0.720516	66.6496
0.770043	69.3231
0.819578	71.2274
0.872786	73.1302
0.918651	75.0359
0.971858	76.9388
1.01772	79.2291
