Adsorption isotherm of Hydrogen on [K+SNU-200' SCN-]
DOI: 10.1002/anie.201404265
Adsorbate Hydrogen: InChIKey UFHFLCQGNIYNRP-UHFFFAOYSA-N
Temperature: 77 K
Tabular data in the source: 0
pressure (bar)	uptake (cm3(STP)/g)
0.0273374	14.9896
0.0382704	21.1393
0.0473929	25.3666
0.0564954	31.1324
0.0674736	33.8205
0.0729301	37.6646
0.0857491	39.9675
0.098558	43.0395
0.21938	67.9936
0.256027	72.9797
0.316486	81.8029
0.360475	86.7862
0.408135	91.7682
0.461307	96.3634
0.523637	102.494
0.574984	106.32
0.613486	109.767
0.91796	127.728
0.960149	130.02
1.01334	132.692
