Adsorption isotherm of Hydrogen on [K+SNU-200' SCN-]
DOI: 10.1002/anie.201404265
Adsorbate Hydrogen: InChIKey UFHFLCQGNIYNRP-UHFFFAOYSA-N
Temperature: 87 K
Tabular data in the source: 0
pressure (bar)	uptake (cm3(STP)/g)
0.0494252	10.3659
0.0640799	12.668
0.071397	14.5883
0.0915484	17.6576
0.113526	21.4954
0.153828	27.6339
0.217963	36.0711
0.27112	41.8202
0.322452	46.8007
0.36278	51.0161
0.425134	55.2232
0.665392	70.9013
0.713083	73.5755
0.76628	76.2476
0.813971	78.9218
0.867183	80.4401
0.913048	82.3457
0.96625	84.6332
1.01578	86.5375
