Adsorption isotherm of Hydrogen on SNU-200'
DOI: 10.1002/anie.201404265
Adsorbate Hydrogen: InChIKey UFHFLCQGNIYNRP-UHFFFAOYSA-N
Temperature: 87 K
Tabular data in the source: 0
pressure (bar)	uptake (cm3(STP)/g)
0.0988656	19.5779
0.120852	22.6464
0.151993	27.6346
0.219819	34.5319
0.271146	39.8971
0.313324	42.958
0.370173	47.1672
0.471035	54.4366
0.71683	67.8048
0.770027	70.4769
0.863588	74.6722
0.914975	75.4219
0.966337	78.0947
1.02139	79.6123
