Adsorption isotherm of Hydrogen on [MV2+SNU-200']2Cl-
DOI: 10.1002/anie.201404265
Adsorbate Hydrogen: InChIKey UFHFLCQGNIYNRP-UHFFFAOYSA-N
Temperature: 77 K
Tabular data in the source: 0
pressure (bar)	uptake (cm3(STP)/g)
0.0365659	11.14
0.0401816	15.3694
0.0530107	16.903
0.0694555	22.6659
0.0804138	26.8926
0.091392	29.5807
0.100545	31.5003
0.118881	33.0318
0.159168	40.3242
0.212315	46.8425
0.263652	51.4384
0.314983	56.4189
0.364489	60.6309
0.417666	64.8415
0.469018	68.2835
0.516703	71.3423
0.569895	74.3991
0.621262	76.6873
0.670784	79.7454
0.720319	81.6497
0.768	85.0931
0.821203	87.3806
0.870738	89.2849
0.920274	91.1891
0.967975	93.0941
1.01385	94.6152
