Adsorption isotherm of Hydrogen on [MV2+SNU-200']2Cl-
DOI: 10.1002/anie.201404265
Adsorbate Hydrogen: InChIKey UFHFLCQGNIYNRP-UHFFFAOYSA-N
Temperature: 87 K
Tabular data in the source: 0
pressure (bar)	uptake (cm3(STP)/g)
0.0366768	2.67839
0.0494958	4.98121
0.056813	6.90151
0.0696321	9.20434
0.0879679	10.7358
0.0971258	12.2708
0.10995	14.189
0.124615	15.7219
0.163092	21.0919
0.214438	24.9186
0.26395	28.746
0.31347	31.8041
0.362992	34.8622
0.410686	37.1518
0.462038	40.5938
0.513405	42.882
0.562941	44.7863
0.61982	46.6878
0.671192	48.5914
0.720733	50.111
0.7721	52.3992
0.82164	53.9189
0.869346	55.4392
0.917052	56.9596
0.9721	58.4772
1.01798	59.229
