Adsorption isotherm of Hydrogen on SNU-200'
DOI: 10.1002/anie.201404265
Adsorbate Hydrogen: InChIKey UFHFLCQGNIYNRP-UHFFFAOYSA-N
Temperature: 77 K
Tabular data in the source: 0
pressure (bar)	uptake (cm3(STP)/g)
0.158997	53.4012
0.223117	62.9922
0.268922	69.5133
0.323904	76.0309
0.375241	80.6268
0.42291	84.8395
0.470581	89.0521
0.569613	95.9376
0.661328	100.903
0.714516	104.344
0.767717	106.632
0.815418	108.537
0.863114	110.826
0.918151	113.113
0.971354	115.401
1.01171	117.693
