Adsorption isotherm of Nitrogen on SIOC-COF-7
DOI: 10.1039/c7cc01045a
Article source: Figure 2
Adsorbate Nitrogen: InChIKey IJGRMHOSHXDMSA-UHFFFAOYSA-N
Kind: experiment
Temperature: 77 K
Tabular data in the source: 0
pressure (bar)	uptake (cm3(STP)/g)
0.002131	89.9156
8.1e-05	74.568
0.001027	66.1878
0.001027	55.074
0.001027	39.1766
0.001027	30.1129
8.1e-05	21.7327
0.00073	6.08876
0.006217	131.039
0.003821	115.992
0.004753	105.744
0.001067	13.4451
0.008183	147.903
0.013619	162.26
0.03547	176.744
0.066213	183.934
0.093114	188.087
0.123509	191.75
0.157047	194.554
0.19366	197.686
0.229714	199.833
0.266327	202.283
0.300984	204.365
0.338715	206.071
0.371477	207.845
0.402997	209.608
0.443523	211.437
0.479018	213.043
0.51029	214.637
0.544488	215.745
0.573206	217.387
0.60363	218.542
0.633575	219.724
0.662766	220.923
0.692889	222.046
0.724409	223.752
0.758724	224.965
0.788847	226.649
0.820483	228.375
0.84816	230.297
0.878128	232.606
0.907785	235.517
0.941013	239.707
0.972874	246.99
1.00588	261.452
0.010397	155.125
0.007562	139.749
0.005671	123.007
0.002836	97.7221
0.000945	82.0046
0.024575	171.526
0.051041	180.752
0.00189	47.836
0.000945	59.795
0.003781	110.023
0.14447	206.35
0.201232	210.33
0.231975	212.182
0.262719	213.79
0.298189	215.269
0.328933	216.086
0.371019	218.285
0.406489	219.784
0.437232	220.999
0.467976	222.285
0.513395	225.669
0.54981	226.924
0.580554	227.858
0.611298	228.669
0.658607	230.348
0.689351	231.328
0.728601	232.625
0.759345	233.844
0.79765	235.951
0.828394	237.512
0.859138	239.753
0.889882	242.395
0.920625	246.957
0.951369	252.56
1.0039	262.415
