Adsorption isotherm of Nitrogen on CCOF-7 water
DOI: 10.1021/jacs.9b02153
Article source: Figure S9
Adsorbate Nitrogen: InChIKey IJGRMHOSHXDMSA-UHFFFAOYSA-N
Kind: experiment
Temperature: 77 K
Tabular data in the source: 0
pressure (bar)	uptake (cm3(STP)/g)
0.001814	5.94714
0.001814	11.4978
0.001814	17.8414
0.001814	22.9956
0.003627	28.1498
0.002726	34.0969
0.001814	38.4581
0.001814	43.6123
0.001814	49.163
0.003627	53.1278
0.003627	56.2996
0.005441	59.0749
0.005441	61.4537
0.007255	63.4361
0.010882	67.0044
0.048981	76.5198
0.097971	82.0705
0.121549	84.0529
0.156932	86.0352
0.192305	88.4141
0.228589	90
0.263972	91.5859
0.318394	93.1718
0.353776	94.7577
0.389149	95.9471
0.425433	96.9383
0.460816	98.1277
0.495287	99.1189
0.531571	99.9119
0.566944	101.101
0.602326	101.894
0.636797	102.687
0.673082	103.877
0.708454	105.066
0.743837	106.652
0.77921	108.04
0.814592	109.824
0.830916	111.41
0.865386	114.185
0.901671	118.15
0.936142	124.097
0.972426	134.405
1.00418	167.709
0.052608	101.101
0.085265	105.463
0.1025	107.048
0.136069	109.031
0.172354	110.815
0.208638	112.203
0.243109	112.797
0.278482	113.59
0.313864	114.185
0.349237	114.581
0.38462	114.978
0.439041	115.771
0.457189	116.167
0.491659	118.744
0.527944	119.339
0.564228	119.537
0.599601	119.339
0.634072	119.339
0.669454	119.339
0.705739	119.736
0.74021	119.736
0.776494	120.529
0.812778	121.123
0.847249	123.106
0.883534	125.485
0.919818	129.648
0.95973	139.361
1.00508	167.709
