Adsorption isotherm of Nitrogen on CCOF-8 20M NaOH
DOI: 10.1021/jacs.9b02153
Article source: Figure S9
Adsorbate Nitrogen: InChIKey IJGRMHOSHXDMSA-UHFFFAOYSA-N
Kind: experiment
Temperature: 77 K
Tabular data in the source: 0
pressure (bar)	uptake (cm3(STP)/g)
0.048545	106.294
0.098893	110.396
0.124072	111.888
0.160033	113.38
0.192396	114.499
0.228366	115.245
0.282312	116.364
0.320967	116.737
0.354232	117.11
0.390192	117.483
0.427956	117.855
0.462123	117.855
0.498083	118.228
0.533152	118.415
0.56821	118.788
0.604171	118.601
0.638337	118.228
0.672504	118.601
0.708464	118.601
0.745326	118.601
0.780395	118.974
0.814552	119.72
0.850522	121.399
0.884679	123.45
0.904467	124.942
0.940428	128.298
1.00696	139.487
0.050348	120.093
0.107891	124.942
0.138461	126.434
0.170824	127.179
0.207686	127.925
0.244548	128.298
0.278715	128.485
0.314675	128.485
0.350635	128.298
0.3839	128.298
0.420762	127.925
0.457624	127.552
0.492693	127.552
0.528653	127.552
0.56282	127.179
0.600574	126.807
0.632947	126.434
0.668907	126.061
0.704867	126.061
0.760616	126.807
0.796577	127.925
0.816355	129.044
0.848718	130.536
0.882885	131.655
0.918845	132.96
0.956609	135.758
1.00515	140.233
