Adsorption isotherm of Nitrogen on CCOF-7
DOI: 10.1021/jacs.9b02153
Article source: Figure 3(a)
Adsorbate Nitrogen: InChIKey IJGRMHOSHXDMSA-UHFFFAOYSA-N
Kind: experiment
Temperature: 77 K
Tabular data in the source: 0
pressure (bar)	uptake (cm3(STP)/g)
0.001733	5.21523
0	10.6788
0.001733	17.6325
0.001733	23.5927
0.001733	28.5596
0.001733	33.0298
0.001733	38.9901
0	44.4536
0.001733	49.4205
0.001733	54.3874
0.003455	57.8642
0.005188	62.3344
0.008643	65.8113
0.012108	68.0464
0.048413	76.9867
0.096826	82.6987
0.121033	84.4371
0.155615	86.1755
0.19193	88.6589
0.227373	90.149
0.263688	91.8874
0.31815	94.1225
0.354465	95.1159
0.389047	96.606
0.425362	97.5993
0.459073	98.5927
0.494517	99.8344
0.530832	100.579
0.565414	101.573
0.601729	102.566
0.636311	103.56
0.672616	104.553
0.70893	106.043
0.745235	107.036
0.778095	108.526
0.8144	111.01
0.831696	112.5
0.866278	114.983
0.902583	119.454
0.936304	124.669
0.971747	134.851
1.00461	168.626
0.050146	101.573
0.08645	106.043
0.102885	107.533
0.136596	109.52
0.17205	111.258
0.207493	112.748
0.242076	113.493
0.279252	114.238
0.313834	114.735
0.349277	115.48
0.38386	115.728
0.440916	116.474
0.456479	116.474
0.491061	119.454
0.527376	119.95
0.56282	119.95
0.598263	119.95
0.633717	120.199
0.66916	119.95
0.703743	120.199
0.740058	120.447
0.775501	121.192
0.812677	122.185
0.847259	123.675
0.883564	125.911
0.919879	130.132
0.959649	140.315
1.00461	168.626
