Adsorption isotherm of Nitrogen on CCOF-7 1M HCl
DOI: 10.1021/jacs.9b02153
Article source: Figure S9
Adsorbate Nitrogen: InChIKey IJGRMHOSHXDMSA-UHFFFAOYSA-N
Kind: experiment
Temperature: 77 K
Tabular data in the source: 0
pressure (bar)	uptake (cm3(STP)/g)
0.048981	74.141
0.099785	79.6916
0.123363	81.2775
0.157834	83.6564
0.193217	85.6388
0.228589	87.2247
0.264874	88.8106
0.319305	90.3965
0.354678	91.7841
0.390061	93.1718
0.426345	94.3612
0.460816	95.1542
0.4971	96.3436
0.531571	96.7401
0.566944	97.9295
0.602326	99.1189
0.637699	99.9119
0.673082	100.903
0.707552	101.894
0.743837	103.48
0.77921	104.868
0.814592	106.652
0.827288	107.841
0.834543	108.436
0.8672	111.013
0.902583	114.581
0.937955	120.132
0.971524	130.441
1.00508	162.753
0.051706	98.326
0.087079	102.687
0.103412	103.877
0.136971	106.057
0.172354	107.643
0.208638	108.634
0.243109	109.626
0.27758	110.22
0.313864	110.815
0.348335	111.41
0.38462	111.806
0.440855	112.203
0.45809	112.797
0.491659	115.374
0.527944	115.969
0.563316	116.167
0.598699	116.167
0.63317	115.771
0.668542	115.771
0.704827	116.167
0.74021	116.366
0.776494	116.96
0.812778	117.753
0.847249	119.736
0.883534	121.916
0.92072	125.683
0.95973	135.595
1.00418	162.753
