Adsorption isotherm of Nitrogen on CCOF-8
DOI: 10.1021/jacs.9b02153
Article source: Figure 3(b)
Adsorbate Nitrogen: InChIKey IJGRMHOSHXDMSA-UHFFFAOYSA-N
Kind: experiment
Temperature: 77 K
Tabular data in the source: 0
pressure (bar)	uptake (cm3(STP)/g)
0.001793	3.93325
0.001793	8.22408
0.001793	12.8725
0.001793	17.5209
0	21.4541
0.001793	26.1025
0.001793	30.0358
0.001793	33.969
0.001793	38.2598
0.001793	42.9082
0.001793	46.8415
0.001793	50.0596
0.001793	53.9929
0.001793	58.6412
0.001793	62.2169
0.001793	66.5078
0.001793	70.7986
0.001793	74.3743
0.001793	77.9499
0.001793	81.1681
0.001793	84.7437
0.001793	88.3194
0.00538	91.5375
0.008076	93.683
0.012564	96.5435
0.049366	105.661
0.098721	109.952
0.122056	111.561
0.157956	113.17
0.193855	114.422
0.227961	115.137
0.2845	116.031
0.319498	116.567
0.353604	117.282
0.389503	117.64
0.424501	117.998
0.461302	117.998
0.4963	118.355
0.531308	118.355
0.567207	118.355
0.602205	118.355
0.639006	118.355
0.67221	118.355
0.707208	118.355
0.743107	118.713
0.779007	119.07
0.814906	120.143
0.849012	121.216
0.884912	123.004
0.901063	125.149
0.936962	128.01
0.971068	131.764
1.00697	139.809
0.051159	120.143
0.086157	123.897
0.104111	125.149
0.137316	126.579
0.173215	127.473
0.208213	128.01
0.243221	128.367
0.27912	128.546
0.314118	128.546
0.349115	128.546
0.385015	128.367
0.420023	128.01
0.456814	127.831
0.491821	127.652
0.527711	127.652
0.562719	127.116
0.598618	126.937
0.633616	126.4
0.668623	126.043
0.704523	126.043
0.759269	126.579
0.795168	127.831
0.811319	128.725
0.847219	130.513
0.882217	131.585
0.918116	133.194
0.953124	135.876
1.00607	139.809
