Adsorption isotherm of Nitrogen on CCOF-8 boiling water
DOI: 10.1021/jacs.9b02153
Article source: Figure S9
Adsorbate Nitrogen: InChIKey IJGRMHOSHXDMSA-UHFFFAOYSA-N
Kind: experiment
Temperature: 77 K
Tabular data in the source: 0
pressure (bar)	uptake (cm3(STP)/g)
0.012585	95.1049
0.048545	104.429
0.098893	108.159
0.122269	109.837
0.158239	111.515
0.193298	112.448
0.228366	113.38
0.284105	114.126
0.318272	114.872
0.355134	115.245
0.390192	115.618
0.426163	115.804
0.461221	115.991
0.49629	116.364
0.531348	116.55
0.567309	116.364
0.602377	116.737
0.638337	116.364
0.673406	116.364
0.708464	116.364
0.744425	116.737
0.779493	117.11
0.814552	117.855
0.850522	119.347
0.884679	121.212
0.90087	123.077
0.936831	126.061
0.970997	129.417
1.00515	137.622
0.052142	118.601
0.086309	121.585
0.103392	123.263
0.136657	124.569
0.171726	125.315
0.208588	126.061
0.242744	126.247
0.278715	126.434
0.313773	126.434
0.350635	126.434
0.384802	126.061
0.420762	125.688
0.456722	125.688
0.490889	125.688
0.526849	125.688
0.56282	125.128
0.59878	124.755
0.633839	124.382
0.668907	124.009
0.704867	124.009
0.758813	124.569
0.794773	126.061
0.810063	126.993
0.846925	128.671
0.882885	129.417
0.917052	130.909
0.953012	133.147
1.00696	137.995
