Adsorption isotherm of Nitrogen on 7-NS
DOI: 10.1021/jacs.9b02153
Article source: Figure S9
Adsorbate Nitrogen: InChIKey IJGRMHOSHXDMSA-UHFFFAOYSA-N
Kind: experiment
Temperature: 77 K
Tabular data in the source: 0
pressure (bar)	uptake (cm3(STP)/g)
0.001611	3.05344
0.003232	5.97964
0.003232	8.90585
0.003232	11.7048
0.004043	14.3766
0.003232	16.9211
0.004843	19.9746
0.003232	21.8829
0.004843	23.2824
0.004843	24.5547
0.008076	25.5725
0.011308	26.4631
0.012929	27.3537
0.048484	30.4071
0.098579	31.5522
0.122816	31.9338
0.158371	32.1883
0.193115	32.2519
0.22786	32.3155
0.264225	32.0611
0.29977	31.8702
0.355529	31.2977
0.391074	31.1705
0.425828	30.7888
0.461373	30.5343
0.496928	30.1527
0.533294	29.771
0.567227	29.4529
0.602782	29.0076
0.639138	28.6259
0.673882	28.2443
0.709437	27.9262
0.744992	27.7354
0.780537	27.6081
0.816092	27.7354
0.832253	28.1171
0.867808	28.5623
0.903363	29.5165
0.938908	31.5522
0.974463	35.369
1.00598	48.6005
0.050095	42.2392
0.08565	43.257
0.105044	43.6387
0.137366	43.6387
0.173722	43.5115
0.208466	43.1298
0.244021	42.7481
0.279576	42.3028
0.315121	41.6031
0.350676	41.0942
0.386231	40.458
0.441179	39.5674
0.458141	39.4402
0.492885	39.9491
0.52844	39.313
0.563995	38.4224
0.59955	37.5318
0.635095	36.6412
0.669839	35.8779
0.706205	35.1145
0.74256	34.4784
0.777315	33.9695
0.81367	33.8422
0.849225	34.0331
0.88558	34.4784
0.921946	36.3232
0.958301	40.8397
1.00598	48.6005
