Adsorption isotherm of Nitrogen on CCOF-8 .1M HCl
DOI: 10.1021/jacs.9b02153
Article source: Figure S9
Adsorbate Nitrogen: InChIKey IJGRMHOSHXDMSA-UHFFFAOYSA-N
Kind: experiment
Temperature: 77 K
Tabular data in the source: 0
pressure (bar)	uptake (cm3(STP)/g)
0.001793	4.84848
0.003597	8.95105
0.003597	13.0536
0.003597	17.5291
0.003597	21.6317
0.00539	26.1072
0.003597	30.2098
0.00539	33.9394
0.004499	38.042
0.00539	42.1445
0.003597	45.8741
0.003597	48.8578
0.003597	53.3333
0.004499	56.8765
0.00539	61.1655
0.00539	64.8951
0.00539	68.6247
0.003597	73.1002
0.00539	76.0839
0.00539	79.8135
0.00539	83.1702
0.007194	85.7809
0.007194	89.5105
0.008988	92.1212
0.012585	93.986
0.048545	102.564
0.0971	106.667
0.122269	108.159
0.158239	110.023
0.192396	111.142
0.228366	111.888
0.284105	112.634
0.320065	113.38
0.355134	113.939
0.389301	114.126
0.425261	114.499
0.460319	114.872
0.498083	114.872
0.531348	114.872
0.567309	115.058
0.602377	114.872
0.638337	114.872
0.673406	114.872
0.708464	114.872
0.744425	115.245
0.780395	115.618
0.814552	116.364
0.850522	117.669
0.884679	119.72
0.902664	121.585
0.937732	124.569
0.970997	127.552
1.00696	135.571
0.05125	116.737
0.086309	120.093
0.104294	121.585
0.137559	122.89
0.172617	123.823
0.208588	124.196
0.242744	124.755
0.278715	124.569
0.314675	124.942
0.349733	124.755
0.384802	124.569
0.420762	124.196
0.456722	124.196
0.490889	124.196
0.527751	124.196
0.56282	123.45
0.59878	123.077
0.632947	122.704
0.668907	122.331
0.704867	122.331
0.760616	123.077
0.795675	124.009
0.812758	125.315
0.846925	126.62
0.882885	127.739
0.918845	129.231
0.954806	131.841
1.00696	135.571
