Adsorption isotherm of Nitrogen on CCOF-7 1M NaOH
DOI: 10.1021/jacs.9b02153
Article source: Figure S9
Adsorbate Nitrogen: InChIKey IJGRMHOSHXDMSA-UHFFFAOYSA-N
Kind: experiment
Temperature: 77 K
Tabular data in the source: 0
pressure (bar)	uptake (cm3(STP)/g)
0.005441	36.0793
0.005441	41.2335
0.005441	46.3877
0.007255	54.7137
0.010882	58.6784
0.01451	61.0573
0.016323	62.6432
0.048981	71.5639
0.097971	76.5198
0.121549	78.5022
0.156932	80.6828
0.193217	82.6652
0.227687	84.2511
0.26306	85.6388
0.319305	87.2247
0.353776	88.8106
0.390061	89.8018
0.425433	90.793
0.460816	91.9824
0.495287	92.7753
0.531571	93.7665
0.566944	94.5595
0.602326	95.5507
0.636797	96.3436
0.673082	97.7313
0.708454	98.5242
0.743837	99.5154
0.780121	101.3
0.814592	103.084
0.830916	104.471
0.865386	107.048
0.902583	110.815
0.936142	116.167
0.972426	126.079
1.00327	157.401
0.050794	94.7577
0.085265	98.7225
0.103412	100.308
0.136971	102.291
0.172354	103.877
0.208638	105.066
0.243109	105.859
0.278482	106.652
0.314766	107.048
0.350149	107.445
0.38462	107.841
0.439953	108.634
0.455375	109.031
0.490747	111.41
0.527944	112.203
0.563316	112.004
0.598699	112.203
0.63317	111.806
0.669454	111.806
0.703925	112.203
0.74021	112.599
0.77468	112.599
0.812778	113.789
0.847249	115.176
0.883534	117.357
0.919818	121.322
0.957916	130.441
1.00418	157.203
