Adsorption isotherm of Ethane on BDH-Activated Carbon
DOI: 10.1016/j.physb.2013.09.057
Adsorbate Ethane: InChIKey OTMSDBZUPAUEDD-UHFFFAOYSA-N
Temperature: 313 K
Tabular data in the source: 0
pressure (bar)	uptake (mmol/g)
0.0407337	0.479137
0.0509171	0.459943
0.152751	0.948521
0.427704	1.3696
0.661922	1.80035
0.947058	1.9722
1.06926	2.12527
1.34421	2.24922
1.76173	2.42075
2.3931	2.5822
3.00411	2.71494
3.69658	2.78998
