Adsorption isotherm of Ethane on BDH-Activated Carbon
DOI: 10.1016/j.physb.2013.09.057
Adsorbate Ethane: InChIKey OTMSDBZUPAUEDD-UHFFFAOYSA-N
Temperature: 323 K
Tabular data in the source: 0
pressure (bar)	uptake (mmol/g)
0.132384	0.507674
0.325869	0.928942
0.498987	1.3215
0.661922	1.46489
0.86559	1.74236
0.977608	1.73251
1.01834	1.80909
1.06926	1.89523
1.27293	1.94268
1.29329	1.98097
1.42568	2.03816
1.51733	2.09545
1.54788	2.10497
1.62935	2.14311
1.76173	2.19072
1.8432	2.20011
1.94503	2.26697
2.04687	2.28589
2.42365	2.38085
2.46439	2.39034
2.80044	2.45664
3.07539	2.50391
3.17723	2.53242
3.45218	2.5797
3.6253	2.60804
3.76786	2.61729
4.04282	2.63581
4.10392	2.674
4.40942	2.66369
4.49089	2.69226
4.66401	2.70143
