Adsorption isotherm of Ethane on BDH-Activated Carbon
DOI: 10.1016/j.physb.2013.09.057
Adsorbate Ethane: InChIKey OTMSDBZUPAUEDD-UHFFFAOYSA-N
Temperature: 333 K
Tabular data in the source: 0
pressure (bar)	uptake (mmol/g)
0.213852	0.430804
0.407337	0.813733
0.509171	1.01477
0.845224	1.35902
0.967425	1.46417
1.00816	1.5695
1.07944	1.67476
1.10999	1.59801
1.25256	1.75103
1.27293	1.69348
1.39513	1.77945
1.42568	1.86564
1.60898	1.89396
1.67008	1.93215
1.76173	1.97986
1.97558	2.04645
2.03668	2.03672
2.2098	2.11299
2.35237	2.15099
2.52549	2.17933
2.66806	2.21733
2.80044	2.23619
3.00411	2.29322
3.17723	2.29281
3.41144	2.34018
3.55401	2.35901
3.83915	2.38709
3.92062	2.40606
3.97153	2.4347
4.24648	2.44363
4.3585	2.45295
4.52144	2.46215
4.65382	2.48101
