Adsorption isotherm of Methane on BDH-Activated Carbon
DOI: 10.1016/j.physb.2013.09.057
Adsorbate Methane: InChIKey VNWKTOKETHGBQD-UHFFFAOYSA-N
Temperature: 323 K
Tabular data in the source: 0
pressure (bar)	uptake (mmol/g)
0.466381	0.194143
0.680624	0.278562
0.831744	0.325015
0.869604	0.346108
0.995355	0.363049
1.08349	0.388391
1.25995	0.460143
1.38563	0.468657
1.56219	0.553049
1.71274	0.532086
1.85127	0.574317
1.91429	0.599641
2.11597	0.684051
2.16589	0.646164
2.53098	0.743327
2.63125	0.718116
2.80788	0.810935
3.21001	0.832281
3.22286	0.865998
3.52481	0.925196
3.71309	0.908472
3.95199	0.938132
4.1155	0.963526
4.15308	0.950912
4.46749	0.997478
4.60591	1.02707
4.68106	1.00184
