Adsorption isotherm of Ethane on BDH-Activated Carbon
DOI: 10.1016/j.physb.2013.09.057
Adsorbate Ethane: InChIKey OTMSDBZUPAUEDD-UHFFFAOYSA-N
Temperature: 313 K
Tabular data in the source: 0
pressure (bar)	uptake (mmol/g)
0.0203668	0.316246
0.0814673	0.555718
0.122201	0.7569
0.213852	1.03464
0.285136	1.21658
0.407337	1.45591
0.549905	1.65685
0.723023	1.84813
0.916508	2.01061
1.09981	2.13478
1.35439	2.24919
1.55806	2.33497
1.77191	2.43031
2.06723	2.50629
2.40329	2.59176
2.70879	2.64855
3.01429	2.70533
3.34016	2.75248
3.69658	2.79956
