Adsorption isotherm of Ethane on BDH-Activated Carbon
DOI: 10.1016/j.physb.2013.09.057
Adsorbate Ethane: InChIKey OTMSDBZUPAUEDD-UHFFFAOYSA-N
Temperature: 333 K
Tabular data in the source: 0
pressure (bar)	uptake (mmol/g)
0.224035	0.57455
0.325869	0.756418
0.458254	0.938213
0.590638	1.10084
0.733206	1.26344
0.896141	1.41641
1.02853	1.51194
1.18128	1.61701
1.31366	1.70296
1.52751	1.80789
1.70063	1.88416
1.9043	1.98911
2.10797	2.04613
2.31164	2.11274
2.47457	2.1507
2.65787	2.1886
2.90227	2.24553
3.08558	2.29302
3.25869	2.32137
3.49291	2.35915
3.65585	2.38752
4.06318	2.44407
4.40942	2.48159
4.66401	2.50974
