Adsorption isotherm of Methane on BDH-Activated Carbon
DOI: 10.1016/j.physb.2013.09.057
Adsorbate Methane: InChIKey VNWKTOKETHGBQD-UHFFFAOYSA-N
Temperature: 323 K
Tabular data in the source: 0
pressure (bar)	uptake (mmol/g)
0.478977	0.198366
0.617537	0.24481
0.806446	0.30393
0.970163	0.354605
1.12132	0.405272
1.31016	0.455964
1.4864	0.502435
1.68773	0.544709
1.8765	0.586975
2.0527	0.629232
2.31691	0.679977
2.5434	0.726482
2.85781	0.773048
3.08423	0.811126
3.3232	0.849213
3.54955	0.878865
3.82621	0.916978
4.06511	0.946638
4.31662	0.98052
4.51777	1.00173
4.63092	1.01445
