Adsorption isotherm of Methane on BDH-Activated Carbon
DOI: 10.1016/j.physb.2013.09.057
Adsorbate Methane: InChIKey VNWKTOKETHGBQD-UHFFFAOYSA-N
Temperature: 333 K
Tabular data in the source: 0
pressure (bar)	uptake (mmol/g)
0.201576	0.0717689
0.39045	0.126675
0.541606	0.177342
0.692762	0.228008
0.869004	0.274479
1.03269	0.32094
1.22145	0.363206
1.43541	0.413916
1.61152	0.443533
1.74993	0.473123
1.87576	0.498491
2.1148	0.545005
2.27831	0.570399
2.49213	0.604255
2.74374	0.650778
2.94489	0.671985
3.10839	0.697379
3.35986	0.727048
3.58621	0.756699
3.83767	0.786368
4.05142	0.811797
4.41601	0.849971
4.71772	0.879674
