Adsorption isotherm of Methane on BDH-Activated Carbon
DOI: 10.1016/j.physb.2013.09.057
Adsorbate Methane: InChIKey VNWKTOKETHGBQD-UHFFFAOYSA-N
Temperature: 313 K
Tabular data in the source: 0
pressure (bar)	uptake (mmol/g)
0.605822	0.345925
0.782347	0.426104
0.946064	0.476779
1.10999	0.552736
1.14778	0.565402
1.22332	0.586522
1.4249	0.658291
1.46265	0.666744
1.66374	0.679524
1.85272	0.747071
2.11689	0.793602
2.46926	0.873902
2.82175	0.966843
2.94747	0.979571
3.29974	1.04723
3.42553	1.06839
3.63934	1.10224
3.82801	1.13187
3.97892	1.15304
4.21789	1.19113
4.48182	1.20816
