Adsorption isotherm of Nitrogen on BDH-Activated Carbon
DOI: 10.1016/j.physb.2013.09.057
Adsorbate Nitrogen: InChIKey IJGRMHOSHXDMSA-UHFFFAOYSA-N
Temperature: 313 K
Tabular data in the source: 0
pressure (bar)	uptake (mmol/g)
0.469281	0.0584416
1.02359	0.171429
1.1905	0.167532
1.34212	0.214286
1.62676	0.23961
1.89485	0.270779
2.54726	0.307792
2.66542	0.352597
3.51852	0.399351
3.58506	0.38961
4.17136	0.451948
4.68999	0.483117
4.79004	0.477273
5.25861	0.51039
5.76021	0.52987
6.12787	0.537662
