Adsorption isotherm of Methane on BDH-Activated Carbon
DOI: 10.1016/j.physb.2013.09.057
Adsorbate Methane: InChIKey VNWKTOKETHGBQD-UHFFFAOYSA-N
Temperature: 303 K
Tabular data in the source: 0
pressure (bar)	uptake (mmol/g)
0.568457	0.383821
0.694526	0.438684
0.808069	0.497751
0.984488	0.565289
1.07287	0.620126
1.16108	0.653895
1.28691	0.679263
1.40059	0.755184
1.56409	0.780578
1.63985	0.826979
1.76581	0.869201
2.13096	0.974792
2.16798	0.894761
2.52043	0.983488
2.59667	1.08888
3.08659	1.09343
3.14982	1.14404
3.48942	1.19905
3.57735	1.19911
3.82892	1.24142
3.99257	1.28367
4.11825	1.29218
4.31951	1.32603
4.42007	1.33452
4.5334	1.36831
4.74697	1.37267
