Adsorption isotherm of Nitrogen on BDH-Activated Carbon
DOI: 10.1016/j.physb.2013.09.057
Adsorbate Nitrogen: InChIKey IJGRMHOSHXDMSA-UHFFFAOYSA-N
Temperature: 323 K
Tabular data in the source: 0
pressure (bar)	uptake (mmol/g)
0.469172	0.0545455
0.753756	0.0779221
1.07201	0.111039
1.45703	0.142208
1.82528	0.171429
2.19348	0.198701
2.37758	0.212338
2.66211	0.233766
2.87962	0.247403
3.19755	0.268831
3.44846	0.282468
3.64926	0.296104
3.86666	0.305844
4.18448	0.323377
4.53577	0.342857
4.88694	0.358442
5.35519	0.37987
5.75658	0.399351
6.07424	0.411039
6.47547	0.424675
6.82669	0.442208
7.0942	0.451948
7.37835	0.45974
