Adsorption isotherm of Nitrogen on BDH-Activated Carbon
DOI: 10.1016/j.physb.2013.09.057
Adsorbate Nitrogen: InChIKey IJGRMHOSHXDMSA-UHFFFAOYSA-N
Temperature: 323 K
Tabular data in the source: 0
pressure (bar)	uptake (mmol/g)
1.0051	0.107143
1.64129	0.161688
2.10981	0.192857
2.29402	0.21039
2.54487	0.222078
3.04675	0.251299
3.29798	0.276623
3.69948	0.3
4.31837	0.333117
4.4188	0.340909
5.20482	0.377922
5.35579	0.401299
5.90711	0.407143
6.49249	0.436364
6.6427	0.432468
7.37835	0.45974
