Adsorption isotherm of Nitrogen on BDH-Activated Carbon
DOI: 10.1016/j.physb.2013.09.057
Adsorbate Nitrogen: InChIKey IJGRMHOSHXDMSA-UHFFFAOYSA-N
Temperature: 333 K
Tabular data in the source: 0
pressure (bar)	uptake (mmol/g)
0.502196	0.0409091
0.753213	0.0584416
1.00428	0.0779221
1.27195	0.0935065
1.40594	0.107143
1.70707	0.124675
1.87447	0.138312
2.22575	0.157792
2.3765	0.173377
2.71103	0.190909
2.87842	0.204545
3.31333	0.227922
3.66461	0.247403
3.94892	0.261039
