Adsorption isotherm of Methane on BDH-Activated Carbon
DOI: 10.1016/j.physb.2013.09.057
Adsorbate Methane: InChIKey VNWKTOKETHGBQD-UHFFFAOYSA-N
Temperature: 333 K
Tabular data in the source: 0
pressure (bar)	uptake (mmol/g)
0.201576	0.0717689
0.24	0.160279
0.642271	0.198479
0.730586	0.244888
0.780795	0.24071
1.05767	0.304104
1.12068	0.329428
1.297	0.384326
1.38506	0.401241
1.53608	0.435053
1.69958	0.460448
1.93867	0.511175
2.00147	0.511219
2.29083	0.566194
2.39139	0.574691
2.60535	0.625401
2.7437	0.646564
2.85696	0.671924
3.19639	0.705867
3.28421	0.693287
3.5233	0.744015
3.62414	0.78622
3.76217	0.769461
3.98844	0.790686
4.11433	0.824481
4.21496	0.841404
4.45387	0.871064
4.49159	0.875304
4.74284	0.879692
