Adsorption isotherm of Nitrogen on BDH-Activated Carbon
DOI: 10.1016/j.physb.2013.09.057
Adsorbate Nitrogen: InChIKey IJGRMHOSHXDMSA-UHFFFAOYSA-N
Temperature: 313 K
Tabular data in the source: 0
pressure (bar)	uptake (mmol/g)
0.486742	0.0857143
0.771813	0.126623
1.04029	0.171429
1.30834	0.200649
1.5933	0.237662
1.87799	0.264935
2.24646	0.301948
2.58131	0.331169
2.96633	0.362338
3.31783	0.38961
3.76965	0.420779
4.08752	0.44026
4.48902	0.463636
4.95743	0.490909
5.44244	0.514286
5.79362	0.52987
6.11139	0.545455
