Adsorption isotherm of Methane on BDH-Activated Carbon
DOI: 10.1016/j.physb.2013.09.057
Adsorbate Methane: InChIKey VNWKTOKETHGBQD-UHFFFAOYSA-N
Temperature: 313 K
Tabular data in the source: 0
pressure (bar)	uptake (mmol/g)
0.618383	0.345934
0.731927	0.405002
0.870521	0.45566
0.99659	0.510522
1.13518	0.56118
1.27374	0.607624
1.43746	0.6583
1.62626	0.704779
1.77735	0.747018
1.99131	0.797728
2.19267	0.844216
2.38144	0.886482
2.57018	0.924534
2.79663	0.966826
3.01048	1.0049
3.17399	1.03029
3.37521	1.05992
3.57643	1.08956
3.77769	1.1234
4.05428	1.15309
4.29322	1.18696
4.46922	1.20394
