Adsorption isotherm of Methane on BDH-Activated Carbon
DOI: 10.1016/j.physb.2013.09.057
Adsorbate Methane: InChIKey VNWKTOKETHGBQD-UHFFFAOYSA-N
Temperature: 303 K
Tabular data in the source: 0
pressure (bar)	uptake (mmol/g)
0.581018	0.38383
0.719754	0.451342
0.871015	0.514649
1.02228	0.577956
1.13575	0.628596
1.24915	0.67081
1.37515	0.717245
1.53887	0.76792
1.70258	0.818596
1.89149	0.877715
2.11808	0.936861
2.42011	1.00449
2.63404	1.05098
2.87309	1.0975
3.17501	1.15248
3.42651	1.18636
3.65293	1.22444
3.91699	1.25833
4.25649	1.3007
4.53312	1.3346
4.74687	1.36003
