Adsorption isotherm of Ethane on BDH-Activated Carbon
DOI: 10.1016/j.physb.2013.09.057
Adsorbate Ethane: InChIKey OTMSDBZUPAUEDD-UHFFFAOYSA-N
Temperature: 323 K
Tabular data in the source: 0
pressure (bar)	uptake (mmol/g)
0.132384	0.507674
0.193485	0.680054
0.295319	0.90026
0.407337	1.11086
0.519354	1.2927
0.641555	1.46494
0.80449	1.60832
0.977608	1.78044
1.25256	1.93314
1.45623	2.04767
1.68026	2.16216
2.10797	2.30492
2.30145	2.3428
2.49494	2.40944
2.73934	2.45678
2.98374	2.49454
3.22814	2.55147
3.40126	2.56065
3.59475	2.59853
3.81878	2.62675
4.02245	2.64544
4.20575	2.65459
4.42979	2.68282
4.65382	2.70145
