Adsorption isotherm of Nitrogen on BDH-Activated Carbon
DOI: 10.1016/j.physb.2013.09.057
Adsorbate Nitrogen: InChIKey IJGRMHOSHXDMSA-UHFFFAOYSA-N
Temperature: 333 K
Tabular data in the source: 0
pressure (bar)	uptake (mmol/g)
0.502196	0.0409091
0.853642	0.0662338
1.33887	0.0974026
1.77409	0.132468
2.29277	0.165584
2.76129	0.196753
3.39662	0.22013
3.89887	0.262987
