Adsorption isotherm of Cacodylic acid on Nylon-6
DOI: 10.1016/j.molliq.2017.08.129
Article source: Figure 6c
Adsorbate Cacodylic acid: InChIKey OGGXGZAMXPVRFZ-UHFFFAOYSA-N
Kind: experiment
Temperature: 298 K
Tabular data in the source: 0
pressure (bar)	uptake (mg/g)
10.1325	0.765121
10.1325	4.07061
10.1325	5.28044
10.1325	12.2563
10.1325	61.3013
10.1325	105.604
10.1325	178.768
