Adsorption isotherm of 1-propyne on MIL-53(Fe)-Cl
DOI: 10.1016/j.micromeso.2014.04.025
Adsorbate 1-propyne: InChIKey MWWATHDPGQKSAR-UHFFFAOYSA-N
Temperature: 303 K
Tabular data in the source: 0
pressure (bar)	uptake (Molecules Adsorbed)
0.00881229	0.162916
0.013646	0.319688
0.0165156	0.536642
0.0170306	0.831838
0.0185875	0.747548
0.0210666	0.982562
0.0227433	1.19948
0.0236296	1.42842
0.035618	1.57939
0.0539445	1.6703
0.0718708	1.75518
0.0790208	1.73732
0.1037	1.80433
0.132742	1.84737
0.159397	1.88432
0.18725	1.93335
