Adsorption isotherm of 1-propyne on MIL-53(Fe)-Br
DOI: 10.1016/j.micromeso.2014.04.025
Adsorbate 1-propyne: InChIKey MWWATHDPGQKSAR-UHFFFAOYSA-N
Temperature: 303 K
Tabular data in the source: 0
pressure (bar)	uptake (Molecules Adsorbed)
0.0113848	0.632873
0.0235601	1.25372
0.0662706	1.67067
0.145464	1.84173
