Adsorption isotherm of 1-propyne on MIL-53(Fe)-CH3
DOI: 10.1016/j.micromeso.2014.04.025
Adsorbate 1-propyne: InChIKey MWWATHDPGQKSAR-UHFFFAOYSA-N
Temperature: 303 K
Tabular data in the source: 0
pressure (bar)	uptake (Molecules Adsorbed)
0.00684336	0.211049
0.0112962	0.409979
0.0121681	0.602776
0.0203073	1.0729
0.0315628	1.38047
0.0602944	1.64037
0.149859	1.89608
