Adsorption isotherm of Gentian violet on SBox
DOI: 10.1016/j.jcis.2017.01.085
Article source: Figure 10
Adsorbate Gentian violet: InChIKey ZXJXZNDDNMQXFV-UHFFFAOYSA-M
Kind: experiment
Temperature: 298 K
Tabular data in the source: 0
pressure (bar)	uptake (mg/g)
1.01325	493.31
1.01325	742.87
1.01325	877.53
1.01325	963.38
1.01325	1007.53
1.01325	1003.89
1.01325	1012.45
1.01325	1011.35
1.01325	1003.13
1.01325	1012.12
