Adsorption isotherm of Auramine-O on Cox
DOI: 10.1016/j.jcis.2017.01.085
Article source: Figure 10
Adsorbate Auramine-O: InChIKey KSCQDDRPFHTIRL-UHFFFAOYSA-N
Kind: experiment
Temperature: 298 K
Tabular data in the source: 0
pressure (bar)	uptake (mg/g)
1.01325	212.77
1.01325	317.92
1.01325	397.36
1.01325	447.61
1.01325	529.4
1.01325	617.02
1.01325	683.62
1.01325	792.27
1.01325	830.84
1.01325	829.69
1.01325	867.11
