Adsorption isotherm of Auramine-O on SBox
DOI: 10.1016/j.jcis.2017.01.085
Article source: Figure 10
Adsorbate Auramine-O: InChIKey KSCQDDRPFHTIRL-UHFFFAOYSA-N
Kind: experiment
Temperature: 298 K
Tabular data in the source: 0
pressure (bar)	uptake (mg/g)
1.01325	236.11
1.01325	390.6
1.01325	437.3
1.01325	495.18
1.01325	522.55
1.01325	555.01
1.01325	554.93
1.01325	588.41
1.01325	600.53
1.01325	596.38
1.01325	614.52
