Adsorption isotherm of Gentian violet on Cox
DOI: 10.1016/j.jcis.2017.01.085
Article source: Figure 10
Adsorbate Gentian violet: InChIKey ZXJXZNDDNMQXFV-UHFFFAOYSA-M
Kind: experiment
Temperature: 298 K
Tabular data in the source: 0
pressure (bar)	uptake (mg/g)
1.01325	406.69
1.01325	590.68
1.01325	757.73
1.01325	868.72
1.01325	917.21
1.01325	957.53
1.01325	975.66
1.01325	993.2
1.01325	1010.15
1.01325	1004.35
