Adsorption isotherm of Hydrogen on IRMOF-8
DOI: 10.1021/Ja802741b
Adsorbate Hydrogen: InChIKey UFHFLCQGNIYNRP-UHFFFAOYSA-N
Temperature: 298 K
Tabular data in the source: 0
pressure (bar)	uptake (wt%)
4.18605	0.209581
6.80233	0.374251
13.343	0.583832
26.4244	1.00299
54.157	1.82635
67.2384	2.36527
73.5174	2.61976
