Adsorption isotherm of Hydrogen on IRMOF-8
DOI: 10.1021/Ja802741b
Adsorbate Hydrogen: InChIKey UFHFLCQGNIYNRP-UHFFFAOYSA-N
Temperature: 298 K
Tabular data in the source: 0
pressure (bar)	uptake (wt%)
69	3.81737
