Adsorption isotherm of Hydrogen on IRMOF-8
DOI: 10.1021/Ja802741b
Adsorbate Hydrogen: InChIKey UFHFLCQGNIYNRP-UHFFFAOYSA-N
Temperature: 298 K
Tabular data in the source: 0
pressure (bar)	uptake (wt%)
3.66279	0.149701
6.27907	0.239521
13.6047	0.464072
26.4244	0.943114
53.8953	1.70659
67.5	2.24551
73.5174	2.54491
