Adsorption isotherm of Methane on COF-105
DOI: 10.1021/La701736m
Adsorbate Methane: InChIKey VNWKTOKETHGBQD-UHFFFAOYSA-N
Temperature: 298 K
Tabular data in the source: 0
pressure (bar)	uptake (cm3(STP)/cm3)
3.94153	9.86297
12.8148	29.2292
20.5049	44.0179
25.6317	54.2292
39.0401	77.1165
49.2936	92.9616
60.3359	106.342
75.7162	119.37
83.8007	123.595
92.2796	127.116
100.561	128.877
109.632	127.821
128.364	126.06
