Adsorption isotherm of Methane on COF-103
DOI: 10.1021/La701736m
Adsorbate Methane: InChIKey VNWKTOKETHGBQD-UHFFFAOYSA-N
Temperature: 298 K
Tabular data in the source: 0
pressure (bar)	uptake (cm3(STP)/cm3)
6.70209	41.5531
12.6176	77.4686
19.1246	110.567
25.6317	137.328
31.9415	157.75
38.6458	171.131
53.0401	189.088
67.8288	195.426
75.7162	195.074
92.2796	192.609
109.829	185.567
119.294	180.99
128.561	175.004
