Adsorption isotherm of Hydrogen on COF-102
DOI: 10.1021/La701736m
Adsorbate Hydrogen: InChIKey UFHFLCQGNIYNRP-UHFFFAOYSA-N
Temperature: 77 K
Tabular data in the source: 0
pressure (bar)	uptake (wt%)
0.0583628	0.186098
0.119123	0.304408
0.230844	0.642436
0.44158	1.16638
0.866896	2.02835
1.7466	3.44807
3.38467	5.07061
6.73144	6.62554
13.215	7.79173
26.2819	8.43399
55.7722	8.23117
102.614	7.4199
