Adsorption isotherm of Methane on COF-103
DOI: 10.1021/La701736m
Adsorbate Methane: InChIKey VNWKTOKETHGBQD-UHFFFAOYSA-N
Temperature: 298 K
Tabular data in the source: 0
pressure (bar)	uptake (cm3(STP)/cm3)
0.786598	5.98973
1.9697	15.1447
3.74434	35.5672
8.87111	83.1024
19.519	157.75
25.8289	183.807
31.9415	201.412
39.0401	213.384
48.8993	223.595
60.3359	227.469
67.8288	228.525
83.9979	225.708
100.956	218.314
119.491	207.398
129.153	201.06
