Adsorption isotherm of Methane on COF-105
DOI: 10.1021/La701736m
Adsorbate Methane: InChIKey VNWKTOKETHGBQD-UHFFFAOYSA-N
Temperature: 298 K
Tabular data in the source: 0
pressure (bar)	uptake (cm3(STP)/cm3)
6.70209	11.6235
12.8148	23.5954
18.9274	32.3982
31.7443	53.1728
45.7443	71.1306
60.3359	87.6799
75.7162	100.356
84.195	104.581
92.4767	108.102
101.35	109.159
109.829	108.807
128.758	108.102
