Adsorption isotherm of Argon on COF-103
DOI: 10.1021/La701736m
Adsorbate Argon: InChIKey XKRFYHLGVUSROY-UHFFFAOYSA-N
Temperature: 87 K
Tabular data in the source: 0
pressure (bar)	uptake (cm3(STP)/g)
0.000133	5.66429
0.000201	16.9319
0.000297	22.5657
0.000444	42.284
0.000673	67.6361
0.000993	121.157
0.00152418	1357.78
0.00224932	1470.45
0.0034067	1538.06
0.00502745	1580.31
0.00741928	1600.03
0.00751615	1600.03
0.0118353	1647.92
0.017466	1678.9
0.0254433	1690.17
0.0385349	1726.79
0.0598968	1732.42
0.0895471	1754.96
0.127106	1760.59
0.29156	1800.03
0.686371	1833.83
1.02614	1847.92
