Adsorption isotherm of Hydrogen on COF-105
DOI: 10.1021/La701736m
Adsorbate Hydrogen: InChIKey UFHFLCQGNIYNRP-UHFFFAOYSA-N
Temperature: 77 K
Tabular data in the source: 0
pressure (bar)	uptake (wt%)
0.440647	0.498714
0.880157	0.983221
1.74291	1.79449
3.39216	3.079
6.65938	4.90435
13.3016	7.079
26.5688	9.1973
53.0691	10.5269
105.089	10.5945
