Adsorption isotherm of Hydrogen on COF-103
DOI: 10.1021/La701736m
Adsorbate Hydrogen: InChIKey UFHFLCQGNIYNRP-UHFFFAOYSA-N
Temperature: 77 K
Tabular data in the source: 0
pressure (bar)	uptake (wt%)
0.015341	0.08469
0.030117	0.101591
0.0576106	0.152296
0.113099	0.304408
0.227869	0.541028
0.447346	0.980465
0.855723	1.84244
1.72409	3.17765
3.38467	4.93539
6.64468	6.72694
13.215	8.23117
53.6434	9.12694
103.954	8.28187
