Adsorption isotherm of Hydrogen on COF-108
DOI: 10.1021/La701736m
Adsorbate Hydrogen: InChIKey UFHFLCQGNIYNRP-UHFFFAOYSA-N
Temperature: 298 K
Tabular data in the source: 0
pressure (bar)	uptake (wt%)
1.40693	0.0118493
6.75904	0.0760746
12.8154	0.1403
18.3083	0.196075
24.083	0.25523
29.4351	0.309314
40.7027	0.415793
46.0548	0.466497
57.0407	0.554384
62.8154	0.610159
73.5196	0.692976
84.083	0.780863
93.8013	0.86199
