Adsorption isotherm of Hydrogen on COF-102
DOI: 10.1021/La701736m
Adsorbate Hydrogen: InChIKey UFHFLCQGNIYNRP-UHFFFAOYSA-N
Temperature: 298 K
Tabular data in the source: 0
pressure (bar)	uptake (wt%)
40.7267	0.396914
46.2666	0.446491
51.7126	0.488181
57.0647	0.528745
62.5107	0.570435
67.7689	0.612125
73.0272	0.649308
78.2854	0.686491
83.5436	0.715787
88.7079	0.750716
93.9661	0.785646
