Adsorption isotherm of Hydrogen on COF-102
DOI: 10.1021/La701736m
Adsorbate Hydrogen: InChIKey UFHFLCQGNIYNRP-UHFFFAOYSA-N
Temperature: 77 K
Tabular data in the source: 0
pressure (bar)	uptake (wt%)
0.017466	0.338211
0.0390381	0.557929
0.0861292	0.811451
0.197567	1.3861
0.447346	2.26497
0.99986	3.93821
2.57755	6.52413
6.30869	8.87342
15.8467	10.5129
41.3848	11.0537
106.686	10.0903
