Adsorption isotherm of Hydrogen on COF-103
DOI: 10.1021/La701736m
Adsorbate Hydrogen: InChIKey UFHFLCQGNIYNRP-UHFFFAOYSA-N
Temperature: 298 K
Tabular data in the source: 0
pressure (bar)	uptake (wt%)
0.726683	0.00592769
7.01776	0.0735333
18.4732	0.197477
29.8347	0.302266
40.9145	0.404801
51.8065	0.494942
57.0647	0.537759
67.8628	0.625646
78.3793	0.697759
83.3558	0.730435
88.8018	0.769871
93.7783	0.802547
