Adsorption isotherm of Argon on COF-103
DOI: 10.1021/La701736m
Adsorbate Argon: InChIKey XKRFYHLGVUSROY-UHFFFAOYSA-N
Temperature: 87 K
Tabular data in the source: 0
pressure (bar)	uptake (cm3(STP)/g)
0.000993	22.5657
0.00144711	31.0164
0.00240005	59.1854
0.0034067	95.8051
0.00509309	1394.4
0.00761429	1487.35
0.0118353	1546.51
0.0254433	1616.93
0.0583628	1664.82
0.128765	1712.71
0.30313	1746.51
0.453187	1766.23
0.677524	1771.86
1.01291	1791.58
