Adsorption isotherm of Methane on COF-108
DOI: 10.1021/La701736m
Adsorbate Methane: InChIKey VNWKTOKETHGBQD-UHFFFAOYSA-N
Temperature: 298 K
Tabular data in the source: 0
pressure (bar)	uptake (cm3(STP)/cm3)
6.70209	11.6235
19.1246	32.3982
32.1387	53.1728
39.0401	61.9756
52.6458	77.4686
60.1387	83.8066
75.9134	94.37
83.8007	97.8911
91.8852	100.708
100.956	102.116
110.026	101.764
119.294	101.412
128.956	100.004
