Adsorption isotherm of Argon on COF-102
DOI: 10.1021/La701736m
Adsorbate Argon: InChIKey XKRFYHLGVUSROY-UHFFFAOYSA-N
Temperature: 87 K
Tabular data in the source: 0
pressure (bar)	uptake (cm3(STP)/g)
0.000128	16.9319
0.000293	45.1009
0.00045	73.2699
0.000673	140.876
0.00100637	1036.65
0.00146601	1118.34
0.0034067	1228.2
0.0077137	1295.81
0.0390381	1408.48
0.088393	1450.73
0.200146	1481.72
0.44158	1507.07
1.01291	1535.24
