Adsorption isotherm of Methane on COF-102
DOI: 10.1021/La701736m
Adsorbate Methane: InChIKey VNWKTOKETHGBQD-UHFFFAOYSA-N
Temperature: 298 K
Tabular data in the source: 0
pressure (bar)	uptake (cm3(STP)/cm3)
0.786598	10.9193
1.57533	18.6658
3.74434	44.37
6.70209	79.2292
8.87111	101.06
13.012	139.793
19.7162	178.877
20.7021	185.919
25.8289	203.173
31.9415	219.37
45.1528	236.271
60.5331	240.849
67.4345	241.201
84.195	238.032
100.167	232.046
119.294	219.018
128.561	212.68
