Adsorption isotherm of Methane on COF-102
DOI: 10.1021/La701736m
Adsorbate Methane: InChIKey VNWKTOKETHGBQD-UHFFFAOYSA-N
Temperature: 298 K
Tabular data in the source: 0
pressure (bar)	uptake (cm3(STP)/cm3)
6.70209	49.2996
13.012	92.6094
18.9274	128.173
25.2373	155.99
31.9415	173.595
45.5472	197.539
52.6458	202.469
59.9415	204.933
68.026	208.102
75.519	208.455
91.8852	204.581
109.434	198.243
128.364	188.736
