Adsorption isotherm of Methane on COF-108
DOI: 10.1021/La701736m
Adsorbate Methane: InChIKey VNWKTOKETHGBQD-UHFFFAOYSA-N
Temperature: 298 K
Tabular data in the source: 0
pressure (bar)	uptake (cm3(STP)/cm3)
1.77251	2.82071
9.26547	19.7221
13.012	27.8207
20.3077	42.6094
31.9415	63.3841
45.9415	82.3982
52.8429	90.4968
60.1387	97.1869
76.1105	107.046
83.8007	111.624
92.0824	113.384
109.632	114.088
128.758	113.032
