Adsorption isotherm of Hydrogen on COF-105
DOI: 10.1021/La701736m
Adsorbate Hydrogen: InChIKey UFHFLCQGNIYNRP-UHFFFAOYSA-N
Temperature: 298 K
Tabular data in the source: 0
pressure (bar)	uptake (wt%)
18.4732	0.187336
24.0131	0.243674
29.553	0.304519
35.0929	0.350716
46.4544	0.453252
57.1586	0.543392
62.4168	0.586209
68.0506	0.63804
73.3088	0.683111
83.4497	0.760857
88.8018	0.79466
93.7783	0.834097
