Adsorption isotherm of Argon on COF-102
DOI: 10.1021/La701736m
Adsorbate Argon: InChIKey XKRFYHLGVUSROY-UHFFFAOYSA-N
Temperature: 87 K
Tabular data in the source: 0
pressure (bar)	uptake (cm3(STP)/g)
0.00986973	721.157
0.0140093	763.411
0.0181591	819.749
0.0271483	862.002
0.0433071	909.89
0.072763	946.509
0.108782	988.763
0.185159	1033.83
0.323443	1076.09
0.483555	1107.07
0.668792	1121.16
0.99986	1171.86
