Adsorption isotherm of Hydrogen on COF-108
DOI: 10.1021/La701736m
Adsorbate Hydrogen: InChIKey UFHFLCQGNIYNRP-UHFFFAOYSA-N
Temperature: 298 K
Tabular data in the source: 0
pressure (bar)	uptake (wt%)
1.26608	0.0118493
4.92805	0.0625535
12.5337	0.160582
18.3083	0.229877
24.2238	0.297483
35.4914	0.429314
46.3365	0.549314
57.1816	0.665934
67.6041	0.772413
78.0266	0.878892
88.7309	0.97861
93.8013	1.02424
