Adsorption isotherm of Argon on COF-102
DOI: 10.1021/La701736m
Adsorbate Argon: InChIKey XKRFYHLGVUSROY-UHFFFAOYSA-N
Temperature: 87 K
Tabular data in the source: 0
pressure (bar)	uptake (cm3(STP)/g)
0.00100637	28.1995
0.00152418	64.8192
0.00224932	112.707
0.00336279	1050.73
0.00496265	1121.16
0.0119898	1222.57
0.0247916	1292.99
0.0591248	1369.04
0.130446	1416.93
0.311098	1433.83
0.435889	1453.55
0.660172	1478.9
1.01291	1492.99
