Adsorption isotherm of Hydrogen on COF-108
DOI: 10.1021/La701736m
Adsorbate Hydrogen: InChIKey UFHFLCQGNIYNRP-UHFFFAOYSA-N
Temperature: 77 K
Tabular data in the source: 0
pressure (bar)	uptake (wt%)
0.0151433	0.0170844
0.0583628	0.101591
0.116072	0.169197
0.224932	0.270605
0.453187	0.574831
1.67993	1.80863
3.29799	3.04244
6.55904	4.78328
13.3875	6.91286
26.6251	9.02553
52.2696	10.2931
103.954	10.4284
