Adsorption isotherm of Argon on COF-103
DOI: 10.1021/La701736m
Adsorbate Argon: InChIKey XKRFYHLGVUSROY-UHFFFAOYSA-N
Temperature: 87 K
Tabular data in the source: 0
pressure (bar)	uptake (cm3(STP)/g)
0.0226396	929.608
0.026112	980.312
0.0338467	1028.2
0.0427489	1050.73
0.0532966	1073.27
0.0664468	1109.89
0.100637	1160.59
0.156425	1205.66
0.233858	1250.73
0.368244	1284.54
0.660172	1321.16
0.751615	1349.33
0.812453	1340.88
0.961696	1374.68
