Adsorption isotherm of Nitrogen on COF-C4
DOI: 10.1002/anie.202110695
Article source: Figure 2D
Adsorbate Nitrogen: InChIKey IJGRMHOSHXDMSA-UHFFFAOYSA-N
Kind: experiment
Temperature: 77 K
Tabular data in the source: 0
pressure (bar)	uptake (cm3(STP)/g)
-0.002423	30.1767
0.000915	57.9019
0.013153	80.9605
0.024279	98.5289
0.034292	109.784
0.039855	117.195
0.043192	124.332
0.054318	138.881
0.066557	145.469
0.096596	152.607
0.126636	158.371
0.15445	161.94
0.180039	163.861
0.206741	165.508
0.231218	167.43
0.260145	168.803
0.284621	169.626
0.313548	172.097
0.362502	174.293
0.412567	176.489
0.463746	178.685
0.517149	180.606
0.56054	183.077
0.615056	184.724
0.662897	186.645
0.718526	189.665
0.765254	191.587
0.816432	194.606
0.862048	197.9
0.913226	202.567
0.963292	211.9
0.986656	220.684
1.00223	230.841
0.991106	226.723
0.963292	217.116
0.909703	207.233
0.860564	202.658
0.803081	199.685
0.753942	197.168
0.699241	193.966
0.650102	192.364
0.597255	190.534
0.547189	188.933
0.498977	186.645
0.447057	184.129
0.396991	182.07
0.345998	180.24
0.295005	177.266
0.271827	176.123
0.247721	175.436
0.220834	173.378
0.193019	172.005
