Adsorption isotherm of Nitrogen on COF-C16
DOI: 10.1002/anie.202110695
Article source: Figure 2D
Adsorbate Nitrogen: InChIKey IJGRMHOSHXDMSA-UHFFFAOYSA-N
Kind: experiment
Temperature: 77 K
Tabular data in the source: 0
pressure (bar)	uptake (cm3(STP)/g)
0.000791	0.17801
0.055518	0.9723
0.083848	1.29002
0.107026	1.60773
0.132137	1.44887
0.157891	1.60773
0.184289	1.60773
0.207467	1.60773
0.234509	1.92545
0.259619	2.24316
0.286661	2.40202
0.30984	2.40202
0.359416	2.56088
0.411568	3.03745
0.461145	3.67288
0.514584	3.35517
0.563517	3.35517
0.614381	3.51403
0.665246	3.9906
0.717397	4.78489
0.766974	4.94375
0.817194	5.42032
0.868059	5.57918
0.916348	5.73804
0.967212	6.21461
0.99361	6.69119
0.980089	6.85004
0.95691	6.85004
0.907334	5.8969
0.855825	5.57918
0.806893	5.73804
0.754097	5.26146
0.70452	4.62603
0.653012	4.14946
0.602792	3.9906
0.55064	3.67288
0.501707	3.35517
0.450843	3.19631
0.398691	2.56088
0.347827	2.24316
0.299538	2.56088
0.273784	2.71974
0.245454	2.24316
0.221632	2.08431
0.196522	1.92545
