Adsorption isotherm of Nitrogen on COF-C8
DOI: 10.1002/anie.202110695
Article source: Figure 2D
Adsorbate Nitrogen: InChIKey IJGRMHOSHXDMSA-UHFFFAOYSA-N
Kind: experiment
Temperature: 77 K
Tabular data in the source: 0
pressure (bar)	uptake (cm3(STP)/g)
-0.001681	1.1248
0.053947	0.438537
0.080835	0.667292
0.109576	1.35356
0.1309	0.896048
0.157788	1.1248
0.181893	1.35356
0.207854	2.26858
0.232887	2.03982
0.255138	2.03982
0.28388	2.49734
0.313548	2.26858
0.362687	1.58231
0.411826	2.26858
0.464673	2.03982
0.51103	3.41236
0.564805	2.72609
0.613016	2.95485
0.664936	3.86987
0.715002	4.32738
0.765995	5.01365
0.816061	5.2424
0.867981	5.2424
0.914339	6.38618
0.965332	6.61493
0.98851	7.07244
0.971822	5.92867
0.907849	5.47116
0.856856	4.78489
0.803081	4.78489
0.75487	4.78489
0.702949	4.09862
0.653811	3.41236
0.594473	3.41236
0.54997	2.95485
0.500832	3.41236
0.450766	2.72609
0.399773	2.95485
0.350634	1.81107
0.299641	2.72609
0.268118	2.95485
0.245867	2.26858
0.219906	2.26858
0.196728	2.26858
