Adsorption isotherm of Nitrogen on Tb-DANT-COF
DOI: 10.1039/c6ta07606h
Article source: Figure S2A
Adsorbate Nitrogen: InChIKey IJGRMHOSHXDMSA-UHFFFAOYSA-N
Kind: experiment
Temperature: 77 K
Tabular data in the source: 0
pressure (bar)	uptake (cm3(STP)/g)
0.001667	47.1537
0.009541	73.2751
0.032952	88.6019
0.062582	97.8434
0.07809	100.599
0.099803	103.749
0.121173	105.722
0.142543	108.479
0.162535	110.058
0.183215	112.62
0.204244	113.217
0.252503	116.575
0.303865	119.344
0.357296	122.311
0.405556	125.472
0.455539	128.438
0.507245	131.796
0.559642	134.959
0.60859	138.317
0.660294	142.658
0.70924	146.998
0.761803	153.008
0.811263	159.017
0.832975	162.56
0.863303	167.678
0.887419	175.347
0.912569	183.408
0.937025	194.022
0.961123	210.331
0.983128	238.422
0.989991	253.742
0.994785	268.865
0.999908	292.04
1.00433	320.909
1.00706	335.442
0.999485	328.566
0.993991	318.549
0.99091	308.139
0.976841	276.713
0.9686	261.196
0.949349	235.266
0.942807	230.944
0.918364	214.831
0.89046	204.608
0.867378	196.94
0.840155	190.842
0.813963	186.118
0.765022	179.618
0.712975	174.099
0.661962	168.973
0.611291	165.026
0.559238	162.845
0.509257	158.701
0.459968	153.576
0.405158	150.608
0.356896	148.626
0.305877	146.445
0.255203	143.872
0.203498	139.728
0.142829	135.776
