Adsorption isotherm of Nitrogen on Tp-DANT-COF
DOI: 10.1039/c6ta07606h
Article source: Figure S2A
Adsorbate Nitrogen: InChIKey IJGRMHOSHXDMSA-UHFFFAOYSA-N
Kind: experiment
Temperature: 77 K
Tabular data in the source: 0
pressure (bar)	uptake (cm3(STP)/g)
0.001138	20.9059
0.008119	49.8075
0.028364	75.6845
0.054788	103.578
0.056545	106.939
0.079908	124.75
0.099825	130.406
0.118991	133.972
0.141566	137.537
0.162439	140.292
0.182037	141.589
0.20206	143.696
0.251057	146.775
0.301759	149.692
0.355022	151.637
0.40445	153.258
0.454302	155.527
0.503729	157.471
0.556353	159.092
0.606844	161.199
0.657123	163.306
0.70783	164.927
0.758533	167.358
0.80881	170.275
0.830112	171.896
0.858658	173.84
0.884646	176.109
0.909353	179.027
0.933635	181.944
0.959185	188.102
0.985149	197.989
0.990673	203.175
1.00087	214.519
1.00553	223.595
0.998712	222.299
0.991052	218.733
0.984246	214.844
0.964246	205.12
0.936575	196.044
0.911869	192.478
0.886734	189.885
0.860744	188.426
0.835392	187.373
0.809614	185.995
0.759332	185.023
0.70905	183.889
0.655787	182.268
0.60593	181.458
0.556074	180.647
0.505368	178.702
0.45424	175.623
0.403535	173.678
0.353467	172.463
0.301694	171.004
0.252057	168.33
0.201566	165.899
0.140641	161.199
