Adsorption isotherm of Nitrogen on PCN-333-Cr(III)
DOI: 10.1039/c5sc02587g
Article source: Figure 3
Adsorbate Nitrogen: InChIKey IJGRMHOSHXDMSA-UHFFFAOYSA-N
Kind: experiment
Temperature: 77 K
Tabular data in the source: 0
pressure (bar)	uptake (cm3(STP)/g)
0	0
0.00234	208.631
0.00936	300.784
0.016381	362.261
0.023401	417.603
0.037441	460.803
0.049141	485.555
0.067862	522.705
0.086583	565.99
0.100623	590.785
0.114663	615.58
0.131044	634.282
0.149764	665.297
0.168485	696.312
0.182526	727.242
0.208266	764.519
0.226986	801.669
0.250387	838.904
0.273788	870.004
0.290168	907.111
0.31825	962.836
0.33463	981.538
0.34867	1043.14
0.358031	1098.53
0.367391	1166.18
0.379091	1197.07
0.388452	1203.37
0.397812	1234.22
0.418872	1277.55
0.432913	1302.34
0.456313	1333.44
0.460993	1370.34
0.477374	1407.44
0.486735	1444.42
0.500774	1493.76
0.510135	1493.93
0.521836	1512.55
0.542896	1519.06
0.561617	1525.54
0.585017	1538.23
0.606078	1538.62
0.631819	1545.22
0.65288	1551.74
0.67628	1564.43
0.692661	1564.73
0.716061	1565.15
0.737122	1565.54
0.758183	1572.05
0.776903	1572.39
0.800303	1572.82
0.821365	1573.2
0.844765	1579.76
0.868166	1580.19
0.886887	1580.53
0.910287	1587.09
0.931348	1587.47
0.950068	1587.81
0.973469	1588.23
0.994529	1588.62
1.01559	1595.13
