Adsorption isotherm of Nitrogen on PCN-333-Cr(III) water 24h
DOI: 10.1039/c5sc02587g
Article source: Figure 3
Adsorbate Nitrogen: InChIKey IJGRMHOSHXDMSA-UHFFFAOYSA-N
Kind: experiment
Temperature: 77 K
Tabular data in the source: 0
pressure (bar)	uptake (cm3(STP)/g)
0	0
0.000278	237.807
0.014483	378.136
0.026276	457.475
0.040388	518.536
0.061506	567.443
0.087304	616.379
0.108393	640.896
0.117768	653.148
0.141219	695.972
0.162315	726.587
0.181071	757.187
0.202168	787.802
0.216265	836.667
0.235014	861.17
0.256139	916.176
0.272556	946.762
0.284299	983.418
0.30073	1026.2
0.314813	1062.87
0.326542	1087.33
0.338285	1123.99
0.345334	1148.42
0.35473	1178.96
0.359482	1239.97
0.361864	1276.57
0.366595	1319.28
0.368977	1355.88
0.371367	1398.58
0.380763	1429.12
0.394832	1453.6
0.408901	1478.07
0.418283	1496.42
0.425325	1514.75
0.439408	1551.42
0.44879	1569.77
0.455839	1594.21
0.462894	1624.74
0.469943	1649.17
0.474666	1685.78
0.481729	1722.41
0.4888	1765.14
0.505238	1814.02
0.516959	1832.38
0.52398	1832.42
0.54504	1832.55
0.563768	1838.76
0.587176	1845
0.610577	1845.14
0.629304	1851.35
0.652712	1857.59
0.676113	1857.73
0.697182	1863.95
0.720582	1864.09
0.741643	1864.22
0.762704	1864.35
0.783779	1876.67
0.8025	1876.78
0.825907	1883.02
0.846969	1883.15
0.865689	1883.26
0.889097	1889.5
0.910158	1889.62
0.931225	1895.85
0.952287	1895.97
0.975688	1896.12
0.994415	1902.33
1.01783	1914.66
