Adsorption isotherm of Nitrogen on PCN-333-Fe(III)
DOI: 10.1039/c5sc02587g
Article source: Figure 3
Adsorbate Nitrogen: InChIKey IJGRMHOSHXDMSA-UHFFFAOYSA-N
Kind: experiment
Temperature: 77 K
Tabular data in the source: 0
pressure (bar)	uptake (cm3(STP)/g)
0	0
0.002547	176.845
0.004966	243.932
0.014433	335.453
0.028573	420.904
0.040302	445.364
0.05206	494.216
0.066115	506.495
0.091905	549.334
0.110648	567.739
0.136424	598.382
0.159853	622.913
0.180936	641.333
0.197338	659.724
0.218434	690.339
0.239537	727.051
0.262981	763.778
0.281745	800.476
0.295821	831.048
0.302884	867.676
0.316961	898.249
0.328703	934.905
0.338099	965.449
0.347503	1002.09
0.356906	1038.73
0.373343	1087.61
0.37574	1136.41
0.380486	1191.31
0.380542	1240.09
0.385279	1288.9
0.394689	1331.64
0.40644	1374.4
0.422849	1398.89
0.441592	1417.29
0.458014	1453.98
0.479118	1490.69
0.493216	1539.55
0.497931	1570.07
0.497989	1618.85
0.502733	1673.76
0.507491	1740.86
0.512208	1771.38
0.51927	1808
0.526305	1820.24
0.540374	1844.72
0.566115	1844.87
0.591864	1851.12
0.612924	1851.25
0.631652	1857.46
0.65038	1863.67
0.673781	1863.81
0.697189	1870.05
0.71591	1870.16
0.73931	1870.3
0.760385	1882.62
0.781446	1882.75
0.807179	1876.81
0.823575	1889.1
0.846976	1889.24
0.865696	1889.36
0.886764	1895.58
0.910165	1895.72
0.933566	1895.86
0.954633	1902.09
0.973354	1902.2
0.992075	1902.31
1.01782	1908.56
