Adsorption isotherm of Nitrogen on PCN-333-Cr(III) ph=0 24h
DOI: 10.1039/c5sc02587g
Article source: Figure 3
Adsorbate Nitrogen: InChIKey IJGRMHOSHXDMSA-UHFFFAOYSA-N
Kind: experiment
Temperature: 77 K
Tabular data in the source: 0
pressure (bar)	uptake (cm3(STP)/g)
0	0
0.002497	134.161
0.00264	256.113
0.007441	359.801
0.021546	414.764
0.030978	475.796
0.042721	512.452
0.066193	573.569
0.094317	610.324
0.115413	640.938
0.134169	671.539
0.159947	702.182
0.176355	726.671
0.195111	757.272
0.22091	806.207
0.237341	848.989
0.25377	891.771
0.267848	922.344
0.281917	946.818
0.300687	989.614
0.319472	1044.61
0.340597	1099.61
0.352362	1154.56
0.3618	1221.69
0.366565	1294.89
0.376005	1362.02
0.39713	1417.02
0.418233	1453.74
0.441684	1496.56
0.455767	1533.23
0.46283	1569.86
0.476935	1624.82
0.481673	1673.63
0.486388	1704.15
0.491118	1746.86
0.498167	1771.29
0.51459	1807.97
0.523951	1808.03
0.537984	1802.02
0.568427	1820.49
0.589488	1820.62
0.610555	1826.84
0.631616	1826.97
0.652677	1827.1
0.676085	1833.34
0.697152	1839.56
0.715873	1839.67
0.741622	1845.93
0.762689	1852.15
0.78141	1852.26
0.802471	1852.39
0.825872	1852.53
0.84694	1858.76
0.868001	1858.88
0.891409	1865.12
0.912462	1859.15
0.933538	1871.47
0.952258	1871.58
0.975658	1871.73
0.99672	1871.85
1.02013	1878.09
