Adsorption isotherm of Nitrogen on PCN-333-Cr(III) ph=11 24h
DOI: 10.1039/c5sc02587g
Article source: Figure 3
Adsorbate Nitrogen: InChIKey IJGRMHOSHXDMSA-UHFFFAOYSA-N
Kind: experiment
Temperature: 77 K
Tabular data in the source: 0
pressure (bar)	uptake (cm3(STP)/g)
0	0
0.00737	298.825
0.021532	402.569
0.038019	494.131
0.075553	573.625
0.113044	616.534
0.169293	690.043
0.195076	726.784
0.216194	775.691
0.242	830.725
0.270159	897.967
0.293609	940.791
0.310062	1001.87
0.333526	1056.89
0.349986	1124.06
0.36409	1179.02
0.364154	1233.9
0.373586	1294.93
0.380657	1337.66
0.39708	1374.34
0.408802	1392.7
0.422871	1417.18
0.436961	1459.95
0.453385	1496.63
0.465127	1533.29
0.474546	1582.12
0.479268	1618.74
0.488664	1649.28
0.49104	1679.78
0.502776	1710.34
0.51683	1722.62
0.526198	1728.78
0.547259	1728.9
0.57066	1729.04
0.587048	1735.24
0.608115	1741.46
0.631523	1747.7
0.652592	1753.93
0.675993	1754.07
0.697053	1754.19
0.718121	1760.42
0.739175	1754.45
0.757903	1760.66
0.781303	1760.8
0.804711	1767.04
0.828119	1773.28
0.84684	1773.39
0.867907	1779.61
0.888969	1779.74
0.91237	1779.88
0.933437	1786.11
0.954498	1786.23
0.973219	1786.34
0.996612	1780.39
1.0177	1798.81
