Adsorption isotherm of Methane on Activated Carbon - fruit shell
DOI: 10.1016/j.fuel.2014.01.053
Article source: Figure 2
Adsorbate Methane: InChIKey VNWKTOKETHGBQD-UHFFFAOYSA-N
Kind: experiment
Temperature: 298 K
Tabular data in the source: 0
pressure (bar)	uptake (mg/g)
0.876623	9.09136
1.2987	11.4304
1.98052	14.8692
2.95455	18.8558
3.66883	20.6391
4.54545	22.2821
5.48701	24.614
6.62338	26.5293
7.98701	28.8554
11.2987	31.9131
13.4416	32.7801
15.9416	34.056
18.7987	35.12
22.1429	34.798
26.0065	34.5378
30.4545	34.6834
