Adsorption isotherm of Nitrogen on Activated Carbon - fruit shell
DOI: 10.1016/j.fuel.2014.01.053
Article source: Figure 1a
Adsorbate Nitrogen: InChIKey IJGRMHOSHXDMSA-UHFFFAOYSA-N
Kind: experiment
Temperature: 77 K
Tabular data in the source: 0
pressure (bar)	uptake (cm3(STP)/g)
0.009152	0.009032
0.014382	141.593
0.019611	148.968
0.041837	159.292
0.058834	164.454
0.078445	170.354
0.109823	176.991
0.164735	185.841
0.219646	192.478
0.268021	196.903
0.317703	203.54
0.369999	207.965
0.453675	214.602
0.573957	224.926
0.696855	237.463
0.758303	244.838
0.84067	256.637
0.916501	270.649
0.955724	280.236
0.985794	291.298
