Adsorption isotherm of Methane on Activated Carbon - pecan shell
DOI: 10.1016/j.fuel.2014.01.053
Article source: Figure 2
Adsorbate Methane: InChIKey VNWKTOKETHGBQD-UHFFFAOYSA-N
Kind: experiment
Temperature: 298 K
Tabular data in the source: 0
pressure (bar)	uptake (mg/g)
1.06592	8.26116
2.03	12.7996
2.96266	16.304
3.89359	21.9463
4.98893	23.7243
5.98705	26.0554
7.17967	27.2113
8.62996	28.8465
10.3068	29.513
12.2732	31.279
14.4993	30.8345
17.1123	30.7295
20.0797	31.1713
23.531	31.6065
27.4672	30.7246
30.0155	30.8274
