Adsorption isotherm of Methane on Activated Carbon - coconut shell
DOI: 10.1016/j.fuel.2014.01.053
Article source: Figure 2
Adsorbate Methane: InChIKey VNWKTOKETHGBQD-UHFFFAOYSA-N
Kind: experiment
Temperature: 298 K
Tabular data in the source: 0
pressure (bar)	uptake (mg/g)
1.06681	13.6552
1.45474	16.069
2.39224	21.3793
3.00647	24.6207
3.75	28
4.6875	31.3793
5.81897	35.3103
7.17672	38.6207
8.69612	40.8276
10.5711	44.6207
12.7694	47.1034
15.3233	50
18.2651	52.4828
21.7241	53.931
25.6681	53.8621
30.2586	53.5862
