Adsorption isotherm of Nitrogen on Activated Carbon - pecan shell
DOI: 10.1016/j.fuel.2014.01.053
Article source: Figure 1a
Adsorbate Nitrogen: InChIKey IJGRMHOSHXDMSA-UHFFFAOYSA-N
Kind: experiment
Temperature: 77 K
Tabular data in the source: 0
pressure (bar)	uptake (cm3(STP)/g)
0.00523	0.005161
0.007845	93.6578
0.022226	98.0826
0.043145	101.032
0.057526	101.77
0.077138	104.72
0.11113	107.67
0.167349	111.357
0.21311	113.569
0.269328	115.782
0.319011	117.257
0.37523	120.944
0.453675	123.156
0.57788	129.794
0.698162	135.693
0.754381	139.381
0.838056	144.543
0.916501	148.23
0.960953	151.18
0.985794	151.917
