Adsorption isotherm of Nitrogen on Activated Carbon - anthracite
DOI: 10.1016/j.fuel.2014.01.053
Article source: Figure 1a
Adsorbate Nitrogen: InChIKey IJGRMHOSHXDMSA-UHFFFAOYSA-N
Kind: experiment
Temperature: 77 K
Tabular data in the source: 0
pressure (bar)	uptake (cm3(STP)/g)
0.00523	159.292
0.006537	173.304
0.024841	192.478
0.043145	202.802
0.061449	209.44
0.077138	214.602
0.113745	222.714
0.168657	230.088
0.217032	235.251
0.269328	239.676
0.321625	243.363
0.37523	247.05
0.453675	252.212
0.579187	260.324
0.69947	267.699
0.756996	272.861
0.841978	280.236
0.919116	287.611
0.960953	292.035
0.984487	294.985
