Adsorption isotherm of Methane on Activated Carbon - anthracite
DOI: 10.1016/j.fuel.2014.01.053
Article source: Figure 2
Adsorbate Methane: InChIKey VNWKTOKETHGBQD-UHFFFAOYSA-N
Kind: experiment
Temperature: 298 K
Tabular data in the source: 0
pressure (bar)	uptake (mg/g)
0.646552	7.65517
0.905172	9.58621
1.09914	11.0345
1.77802	14.8966
3.36207	21.5172
4.13793	24.6207
5.10776	26.8276
6.23922	29.4483
7.53233	32.6207
9.11638	34.6897
10.9914	36.7586
13.125	39.3793
15.6466	41.1034
18.5237	42.4828
21.9181	42.4828
25.7974	41.931
30.2586	41.8621
