Adsorption isotherm of Nitrogen on Activated Carbon - coconut shell
DOI: 10.1016/j.fuel.2014.01.053
Article source: Figure 1a
Adsorbate Nitrogen: InChIKey IJGRMHOSHXDMSA-UHFFFAOYSA-N
Kind: experiment
Temperature: 77 K
Tabular data in the source: 0
pressure (bar)	uptake (cm3(STP)/g)
0.009152	0.009032
0.014382	225.664
0.022226	233.776
0.041837	248.525
0.060141	258.112
0.079753	264.749
0.112438	272.861
0.164735	282.448
0.218339	289.086
0.268021	293.51
0.320318	298.673
0.372615	303.097
0.45629	308.997
0.575265	318.584
0.692932	329.646
0.758303	337.021
0.841978	348.82
0.919116	362.832
0.959646	373.894
0.98318	380.531
