Adsorption isotherm of Nitrogen on CCOF-15
DOI: 10.1002/anie.202013926
Article source: Figure 1c
Adsorbate Nitrogen: InChIKey IJGRMHOSHXDMSA-UHFFFAOYSA-N
Kind: experiment
Temperature: 77 K
Tabular data in the source: 0
pressure (bar)	uptake (cm3(STP)/g)
0	2.67062
0	15.1335
0	24.0356
0	40.0593
0	54.3027
0	70.3264
0	89.0208
0	107.715
0	126.409
0.00216	146.884
0.004321	164.688
0.045369	193.175
0.09722	202.077
0.120985	204.748
0.157713	209.199
0.19228	210.089
0.226847	210.979
0.261414	210.979
0.317586	211.869
0.349993	210.979
0.38672	210.979
0.425608	210.979
0.460175	209.199
0.492582	209.199
0.52931	209.199
0.563877	209.199
0.600604	208.309
0.635172	207.418
0.671899	207.418
0.706466	207.418
0.743194	208.309
0.777761	210.089
0.812328	211.869
0.831772	214.54
0.86634	217.211
0.900907	223.442
0.935474	235.905
0.972201	259.05
1.00245	325.816
0.04969	205.638
0.086418	213.65
0.120985	216.32
0.136108	217.211
0.172836	218.991
0.205243	220.772
0.244131	221.662
0.276537	219.881
0.313265	219.881
0.349993	219.881
0.38456	218.991
0.421287	218.991
0.455854	218.991
0.492582	218.991
0.527149	218.101
0.563877	217.211
0.598444	217.211
0.635172	216.32
0.669739	216.32
0.706466	217.211
0.741034	218.101
0.777761	220.772
0.812328	226.113
0.849056	234.125
0.885784	247.478
0.922511	269.733
0.959239	300.89
1.00245	325.816
