Adsorption isotherm of Nitrogen on CCOF-16
DOI: 10.1002/anie.202013926
Article source: Figure 1d
Adsorbate Nitrogen: InChIKey IJGRMHOSHXDMSA-UHFFFAOYSA-N
Kind: experiment
Temperature: 77 K
Tabular data in the source: 0
pressure (bar)	uptake (cm3(STP)/g)
0	1.88679
0	33.9623
0	66.0377
0	105.66
0	147.17
0.002184	186.792
0.010919	213.208
0.045858	259.434
0.096084	269.811
0.124473	271.698
0.159412	275.472
0.192168	277.358
0.227108	278.302
0.262047	279.245
0.318824	280.189
0.353764	280.189
0.390887	280.189
0.423643	280.189
0.458583	281.132
0.491339	280.189
0.528462	279.245
0.565586	278.302
0.600525	279.245
0.635465	278.302
0.670405	278.302
0.707528	277.358
0.742468	277.358
0.777407	275.472
0.812347	275.472
0.845103	274.528
0.882226	273.585
0.917166	275.472
0.956473	273.585
0.989229	274.528
1.01325	303.774
0.050226	290.566
0.089533	300.943
0.122289	304.717
0.137575	307.547
0.170331	310.377
0.207454	310.377
0.246761	311.321
0.279517	311.321
0.314457	310.377
0.349397	311.321
0.384336	310.377
0.419276	309.434
0.456399	308.491
0.491339	306.604
0.526279	305.66
0.563402	303.774
0.596158	303.774
0.633281	300.943
0.666037	300.943
0.703161	298.113
0.740284	297.17
0.775224	295.283
0.810163	293.396
0.845103	291.509
0.882226	288.679
0.917166	287.736
0.943371	285.849
1.01325	304.717
