Adsorption isotherm of Hydrogen on Pt@HKUST-1/GO
DOI: 10.1016/j.inoche.2015.02.001
Article source: Figure  2a
Adsorbate Hydrogen: InChIKey UFHFLCQGNIYNRP-UHFFFAOYSA-N
Kind: experiment
Temperature: 298 K
Tabular data in the source: 0
pressure (bar)	uptake (mmol/g)
0.00408	0.011302
0.046929	0.037299
0.092886	0.055147
0.12155	0.066205
0.16196	0.077796
0.201383	0.089533
0.241953	0.09962
0.281217	0.108883
0.320307	0.118728
0.360064	0.128476
0.40258	0.137351
0.439884	0.14608
0.480614	0.15447
0.519877	0.162617
0.560114	0.170085
0.601164	0.176971
0.642054	0.183469
0.681317	0.19021
0.722687	0.196125
0.761951	0.201702
0.801374	0.207278
0.839984	0.212612
0.880381	0.218237
0.921431	0.223619
0.960694	0.227789
1.00076	0.232929
1.04133	0.237778
1.07929	0.242724
1.11935	0.247233
1.14737	0.251015
