Adsorption isotherm of Hydrogen on ZIF-8/GO
DOI: 10.1016/j.inoche.2015.02.001
Article source: Figure  2b
Adsorbate Hydrogen: InChIKey UFHFLCQGNIYNRP-UHFFFAOYSA-N
Kind: experiment
Temperature: 298 K
Tabular data in the source: 0
pressure (bar)	uptake (mmol/g)
0.004453	0.000665
0.048809	0.0015
0.082127	0.002126
0.120537	0.003209
0.160213	0.004334
0.20329	0.005584
0.240847	0.00675
0.280537	0.007833
0.321707	0.009042
0.36181	0.009751
0.399154	0.010834
0.44075	0.011918
0.48128	0.013666
0.520957	0.014957
0.559794	0.015916
0.600537	0.017207
0.641494	0.018249
0.681384	0.018751
0.720847	0.019668
0.760537	0.0215
0.801281	0.022708
0.840544	0.023833
0.879168	0.024875
0.918844	0.026914
0.958321	0.027706
1.01858	0.029581
1.04257	0.029957
1.09902	0.032537
1.11937	0.032082
1.16542	0.033166
