Adsorption isotherm of Hydrogen on Pt@ZIF-8/GO
DOI: 10.1016/j.inoche.2015.02.001
Article source: Figure  2b
Adsorbate Hydrogen: InChIKey UFHFLCQGNIYNRP-UHFFFAOYSA-N
Kind: experiment
Temperature: 298 K
Tabular data in the source: 0
pressure (bar)	uptake (mmol/g)
0.004293	0.009308
0.048916	0.020821
0.094366	0.02847
0.122403	0.033126
0.160613	0.038323
0.200743	0.044018
0.241727	0.049465
0.282283	0.05516
0.321574	0.061147
0.361704	0.065762
0.400767	0.070793
0.44175	0.07653
0.48188	0.081852
0.520944	0.086633
0.561274	0.090916
0.600777	0.096653
0.640681	0.100064
0.679971	0.105427
0.720301	0.108546
0.759151	0.113203
0.799494	0.119314
0.838971	0.120979
0.899673	0.125555
0.918804	0.131747
0.959134	0.135656
1.01878	0.139276
1.05827	0.144058
1.07908	0.147175
1.11942	0.151542
1.14448	0.155117
