Adsorption isotherm of Hydrogen on HKUST-1/GO
DOI: 10.1016/j.inoche.2015.02.001
Article source: Figure  2a
Adsorbate Hydrogen: InChIKey UFHFLCQGNIYNRP-UHFFFAOYSA-N
Kind: experiment
Temperature: 298 K
Tabular data in the source: 0
pressure (bar)	uptake (mmol/g)
0.003746	0.001212
0.047569	0.003054
0.081767	0.00475
0.12119	0.006688
0.161747	0.008869
0.20117	0.010371
0.240434	0.012261
0.28099	0.014005
0.31992	0.016235
0.360317	0.018222
0.40006	0.019627
0.442417	0.021177
0.481014	0.022921
0.521584	0.024811
0.56198	0.025828
0.600737	0.027427
0.640654	0.029074
0.681371	0.030334
0.720461	0.031302
0.760217	0.032755
0.800121	0.034306
0.839051	0.035759
0.880581	0.03731
0.921471	0.039248
0.961214	0.041186
0.999984	0.042446
1.04169	0.044869
1.07931	0.04739
1.12036	0.049377
1.14545	0.051364
