Adsorption isotherm of Hydrogen on ZIF-8
DOI: 10.1016/j.inoche.2015.02.001
Article source: Figure  2b
Adsorbate Hydrogen: InChIKey UFHFLCQGNIYNRP-UHFFFAOYSA-N
Kind: experiment
Temperature: 298 K
Tabular data in the source: 0
pressure (bar)	uptake (mmol/g)
0.005306	0.000541
0.049449	0.001998
0.084246	0.002583
0.119697	0.004829
0.161067	0.006121
0.20309	0.007661
0.237887	0.008952
0.280977	0.010327
0.320654	0.011493
0.36161	0.01266
0.399167	0.014075
0.440977	0.015408
0.480654	0.0167
0.522677	0.018199
0.560661	0.019407
0.599924	0.020532
0.639814	0.021906
0.680771	0.022823
0.721727	0.023782
0.759924	0.025821
0.800241	0.02653
0.840558	0.027739
0.877061	0.029113
0.918231	0.03111
0.959188	0.032194
1.00014	0.033693
1.03686	0.034236
1.07866	0.035652
1.1194	0.036819
1.14572	0.038109
