Adsorption isotherm of Hydrogen on CuBTC
DOI: 10.1016/j.inoche.2015.02.001
Article source: Figure  2a
Adsorbate Hydrogen: InChIKey UFHFLCQGNIYNRP-UHFFFAOYSA-N
Kind: experiment
Temperature: 298 K
Tabular data in the source: 0
pressure (bar)	uptake (mmol/g)
0.003746	0.001018
0.047236	0.003684
0.080793	0.006254
0.12071	0.007949
0.160773	0.012022
0.202157	0.014203
0.239447	0.016336
0.280017	0.018226
0.32008	0.0206
0.359997	0.022587
0.400554	0.024817
0.440137	0.026561
0.485253	0.029518
0.52533	0.031748
0.560194	0.033153
0.599604	0.035479
0.64652	0.038096
0.684957	0.04052
0.723247	0.04207
0.763804	0.044057
0.803054	0.045947
0.843784	0.048419
0.882554	0.050358
0.924737	0.052102
0.964001	0.054089
1.00113	0.056221
1.04153	0.058257
1.08111	0.060729
1.12363	0.063734
1.1505	0.065091
