Adsorption isotherm of Nitrogen on Fe3O4@SiO2@HKUST-1
DOI: 10.1039/c5ta01484k
Article source: Figure 3a- Fe3O4 SiO2 HKUST1
Adsorbate Nitrogen: InChIKey IJGRMHOSHXDMSA-UHFFFAOYSA-N
Kind: experiment
Temperature: 77 K
Tabular data in the source: 0
pressure (bar)	uptake (cm3(STP)/g)
0.010335	201.091
0.075467	217.405
0.175748	227.484
0.262695	233.729
0.360555	238.959
0.402949	241.105
0.44658	243.25
0.456003	245.618
0.53073	247.503
0.531277	247.534
0.581291	254.759
0.622358	252.094
0.636696	257.958
0.702142	256.723
0.715466	263.45
0.775146	262.628
0.796648	270.258
0.843642	269.172
0.856642	277.177
0.903789	277.632
0.915775	288.568
0.948189	301.047
0.95209	288.346
0.981758	324.237
0.988628	307.852
1.00459	333.032
1.00699	339.741
