Adsorption isotherm of Nitrogen on Fe3O4@SiO2@Cu(OH)2
DOI: 10.1039/c5ta01484k
Article source: Figure 3a- Fe3O4 SiO2 Cu OH 2
Adsorbate Nitrogen: InChIKey IJGRMHOSHXDMSA-UHFFFAOYSA-N
Kind: experiment
Temperature: 77 K
Tabular data in the source: 0
pressure (bar)	uptake (cm3(STP)/g)
0.010973	24.916
0.09177	34.392
0.153244	38.418
0.223604	43.384
0.362632	53.466
0.440054	60.311
0.521702	69.9
0.523658	68.397
0.572892	76.442
0.576397	72.948
0.626107	78.851
0.656333	89.301
0.670832	85.318
0.738061	106.782
0.751781	99.116
0.797823	122.72
0.798836	122.823
0.835374	134.41
0.854697	126.144
0.874941	149.783
0.89934	142.494
0.905866	167.448
0.929089	157.604
0.930326	185.263
0.948858	205.256
0.956123	176.283
0.962172	223.183
0.971149	194.059
0.971909	240.696
0.981789	258.735
0.986723	219.577
0.988638	276.962
0.993958	236.301
0.995255	288.311
0.999642	255.993
1.00314	274.107
1.00515	288.763
1.00616	296.429
