Adsorption isotherm of Nitrogen on Bi-I-functionalized Fe3O4@SiO2@HKUST-1 (1:1)
DOI: 10.1039/c5ta01484k
Article source: Figure 3b- Bi I funcationalized ratio 1 to 1
Adsorbate Nitrogen: InChIKey IJGRMHOSHXDMSA-UHFFFAOYSA-N
Kind: experiment
Temperature: 77 K
Tabular data in the source: 0
pressure (bar)	uptake (cm3(STP)/g)
0.009606	11.33
0.034765	14.516
0.141693	23.761
0.141774	23.761
0.230089	24.688
0.261621	18.991
0.32962	24.461
0.385886	18.996
0.457969	24.273
0.511772	18.384
0.54449	25.97
0.608153	19.158
0.612317	29.323
0.684309	47.575
0.708029	22.011
0.73029	67.02
0.763271	78.918
0.785542	32.833
0.8351	85.312
0.851758	54.588
0.904538	78.807
0.914316	100.176
0.956305	125.55
0.974149	111.844
0.981373	154.349
0.995741	139.72
1.005	158.354
1.00773	174.178
