Adsorption isotherm of Nitrogen on Fe3O4@SiO2@HKUST-1
DOI: 10.1039/c5ta01484k
Article source: Figure 3b- Fe3O4 SiO2 HKUST 1
Adsorbate Nitrogen: InChIKey IJGRMHOSHXDMSA-UHFFFAOYSA-N
Kind: experiment
Temperature: 77 K
Tabular data in the source: 0
pressure (bar)	uptake (cm3(STP)/g)
0.011217	200.514
0.05584	213.067
0.121286	222.04
0.20799	229.397
0.311858	235.369
0.417591	241.687
0.519838	248.736
0.53914	246.658
0.596936	254.283
0.601273	250.241
0.692303	259.947
0.69511	259.985
0.770668	266.418
0.805939	263.994
0.855578	276.008
0.891619	274.546
0.937094	294.568
0.959446	289.872
0.969731	312.011
0.98954	307.391
0.990219	308.136
0.999561	342.736
1.00084	322.484
1.00823	350.59
1.00985	351.057
