Adsorption isotherm of Nitrogen on Fe3O4@SiO2
DOI: 10.1039/c5ta01484k
Article source: Figure 3a- Fe3O4 SiO2
Adsorbate Nitrogen: InChIKey IJGRMHOSHXDMSA-UHFFFAOYSA-N
Kind: experiment
Temperature: 77 K
Tabular data in the source: 0
pressure (bar)	uptake (cm3(STP)/g)
0.012382	11.876
0.068009	16.728
0.144844	20.116
0.21871	21.362
0.304958	23.322
0.411937	25.247
0.485185	26.868
0.549779	27.925
0.608528	29.395
0.65076	31.615
0.703277	32.859
0.732489	34.24
0.732651	34.29
0.759066	35.532
0.798644	39.498
0.800984	39.744
0.854666	39.86
0.863461	49.294
0.910446	65.644
0.923851	51.177
0.938563	86.165
0.957795	103.791
0.967937	73.578
0.971889	124.311
0.981697	142.275
0.98725	98.645
0.990026	157.383
0.995579	120.329
1.00133	143.254
1.00443	168.357
