Adsorption isotherm of Nitrogen on Bi-I-functionalized Fe3O4@SiO2@HKUST-1 (1:2)
DOI: 10.1039/c5ta01484k
Article source: Figure 3b- Bi I funcationalized ratio 1 to 2
Adsorbate Nitrogen: InChIKey IJGRMHOSHXDMSA-UHFFFAOYSA-N
Kind: experiment
Temperature: 77 K
Tabular data in the source: 0
pressure (bar)	uptake (cm3(STP)/g)
0.010538	50.013
0.07038	57.215
0.141014	60.952
0.201525	64.805
0.245217	63.96
0.268592	66.771
0.344748	65.965
0.363027	69.239
0.427622	71.705
0.456601	73.594
0.457026	73.824
0.504457	85.799
0.528339	71.478
0.601607	89.807
0.633231	76.102
0.735143	96.242
0.770496	82.652
0.837735	104.87
0.86722	91.588
0.920011	119.234
0.961057	113.153
0.96353	138.217
0.98418	151.462
0.990979	131.711
1.00662	160.588
