Adsorption isotherm of Nitrogen on Bi-I-functionalized Fe3O4@SiO2@HKUST-1 (3:4)
DOI: 10.1039/c5ta01484k
Article source: Figure 3b- Bi I funcationalized ratio 3 to 4
Adsorbate Nitrogen: InChIKey IJGRMHOSHXDMSA-UHFFFAOYSA-N
Kind: experiment
Temperature: 77 K
Tabular data in the source: 0
pressure (bar)	uptake (cm3(STP)/g)
0.010629	16.209
0.043519	22.063
0.138288	27.841
0.142797	28.723
0.205011	29.076
0.258561	35.007
0.329793	30.005
0.370758	35.782
0.434076	30.779
0.456439	37.44
0.50242	44.719
0.521966	31.745
0.560297	49.649
0.623199	33.443
0.647588	55.043
0.726044	39.53
0.741425	61.091
0.80603	48.503
0.826934	71.374
0.883716	86.815
0.884395	86.381
0.913121	103.525
0.931146	79.347
0.933436	122.238
0.95282	146.533
0.962081	149.631
0.963185	170.866
0.975506	201.243
0.980096	127.091
0.990725	236.665
0.992428	154.696
0.999054	187.384
1.00458	226.809
1.00713	244.212
1.00721	245.474
