Adsorption isotherm of Nitrogen on Bi-I-functionalized Fe3O4@SiO2@HKUST-1
DOI: 10.1039/c5ta01484k
Article source: Figure 3a- Bi I Functionalized Fe3O4 SiO2 HKUST1
Adsorbate Nitrogen: InChIKey IJGRMHOSHXDMSA-UHFFFAOYSA-N
Kind: experiment
Temperature: 77 K
Tabular data in the source: 0
pressure (bar)	uptake (cm3(STP)/g)
0.010335	50.583
0.066196	57.915
0.142716	63.708
0.152768	61.454
0.257558	64.717
0.258652	64.732
0.346937	69.511
0.349977	69.597
0.417368	68.802
0.417996	68.842
0.459995	74.78
0.47947	70.874
0.506341	86.584
0.553731	88.498
0.559405	89.294
0.661409	77.651
0.685474	94.113
0.784519	85.064
0.78918	85.863
0.866562	92.774
0.875975	110.362
0.931835	123.669
0.93754	105.894
0.968839	142.086
0.985994	128.559
1.00545	161.555
