Adsorption isotherm of Nitrogen on Bi-I-functionalized Fe3O4@SiO2@HKUST-1 (1:4)
DOI: 10.1039/c5ta01484k
Article source: Figure 3b- Bi I funcationalized ratio 1 to 4
Adsorbate Nitrogen: InChIKey IJGRMHOSHXDMSA-UHFFFAOYSA-N
Kind: experiment
Temperature: 77 K
Tabular data in the source: 0
pressure (bar)	uptake (cm3(STP)/g)
0.012666	160.319
0.099025	178.148
0.14373	189.623
0.189883	184.697
0.25542	195.171
0.300125	189.167
0.395066	198.719
0.456692	193.447
0.504457	206.269
0.55903	196.184
0.59727	208.352
0.634163	197.226
0.730634	211.86
0.756472	201.081
0.847249	220.143
0.855578	209.517
0.907426	233.736
0.925452	223.957
0.950864	263.306
0.967096	298.497
0.974493	256.223
0.984686	334.996
0.994556	295.11
0.996501	355.864
1.00271	327.836
1.00594	353.131
1.00798	369.225
