Adsorption isotherm of Nitrogen on Al-FDA
DOI: 10.1016/j.micromeso.2013.06.039
Adsorbate Nitrogen: InChIKey IJGRMHOSHXDMSA-UHFFFAOYSA-N
Temperature: 77 K
Tabular data in the source: 0
pressure (bar)	uptake (cm3(STP)/g)
0.00400996	8.48951
0.00400996	48.6912
0.021489	74.9097
0.0673713	87.145
0.196279	101.128
0.375439	113.363
0.513086	118.607
0.676951	132.59
0.77527	148.321
0.86485	174.54
0.908548	218.237
0.943506	298.641
0.96317	414.002
0.974094	562.574
0.978464	704.153
0.993758	749.599
