Adsorption isotherm of Nitrogen on Cu-FDA-1
DOI: 10.1016/j.micromeso.2013.06.039
Adsorbate Nitrogen: InChIKey IJGRMHOSHXDMSA-UHFFFAOYSA-N
Temperature: 77 K
Tabular data in the source: 0
pressure (bar)	uptake (cm3(STP)/g)
0.0171192	0.0374478
0.124178	0.430725
0.250901	0.69291
0.316447	0.911397
0.504346	1.12988
0.598296	1.52316
0.768716	1.69795
0.853926	2.04753
0.910733	2.6156
0.95006	3.31476
