Adsorption isotherm of Nitrogen on Fe-FDA
DOI: 10.1016/j.micromeso.2013.06.039
Adsorbate Nitrogen: InChIKey IJGRMHOSHXDMSA-UHFFFAOYSA-N
Temperature: 77 K
Tabular data in the source: 0
pressure (bar)	uptake (cm3(STP)/g)
0.00400996	5.1812
0.00837971	40.1392
0.0149343	47.1308
0.0367831	58.0551
0.0586318	63.2988
0.106699	69.8535
0.261825	83.3997
0.436615	98.6938
0.574262	113.114
0.685691	127.971
0.753422	138.459
0.838632	154.19
0.897623	164.677
0.939136	172.543
0.991573	173.853
