Adsorption isotherm of Nitrogen on Cu-FDA-2b
DOI: 10.1016/j.micromeso.2013.06.039
Adsorbate Nitrogen: InChIKey IJGRMHOSHXDMSA-UHFFFAOYSA-N
Temperature: 77 K
Tabular data in the source: 0
pressure (bar)	uptake (cm3(STP)/g)
0.00182509	79.0299
0.00400996	5.61818
0.0105646	93.0131
0.0258587	99.1308
0.0826654	103.501
0.233422	106.996
0.4388	108.307
0.838632	109.181
0.917287	108.744
0.969724	110.055
1.00031	112.677
