Adsorption isotherm of Nitrogen on PAN-C
DOI: 10.1016/j.cej.2015.04.081
Article source: Figure 4a
Adsorbate Nitrogen: InChIKey IJGRMHOSHXDMSA-UHFFFAOYSA-N
Kind: experiment
Temperature: 77 K
Tabular data in the source: 0
pressure (bar)	uptake (cm3(STP)/g)
0	0
0.010963	14.2378
0.072496	16.6574
0.103243	17.4719
0.154499	19.0929
0.205757	20.7139
0.254374	20.7518
0.305591	21.5823
0.356808	22.4128
0.408025	23.2432
0.456642	23.2812
0.510418	24.1136
0.561715	26.5252
0.607774	26.5611
0.656473	28.1801
0.710248	29.0126
0.761464	29.8431
0.812681	30.6736
0.863898	31.504
0.910037	33.1211
0.963895	35.5346
0.987045	37.9242
1.0052	42.6815
