Adsorption isotherm of Nitrogen on PR
DOI: 10.1016/j.cej.2015.04.081
Article source: Figure 4a
Adsorbate Nitrogen: InChIKey IJGRMHOSHXDMSA-UHFFFAOYSA-N
Kind: experiment
Temperature: 77 K
Tabular data in the source: 0
pressure (bar)	uptake (cm3(STP)/g)
0	0
0.012794	0.009982
0.048658	0.828476
0.084441	0.065879
0.11015	2.45748
0.135658	0.896351
0.169003	2.50339
0.186834	0.936277
0.217702	4.12241
0.235491	1.76475
0.268878	4.16234
0.286668	1.80468
0.322653	4.99481
0.337884	2.63515
0.368752	5.82129
0.389101	3.46562
0.419928	5.86122
0.437678	2.71301
0.471145	6.69169
0.491455	3.54548
0.524881	6.73361
0.540071	3.58341
0.573458	5.98099
0.591288	4.41388
0.627233	6.81346
0.642464	4.4538
0.681008	7.64593
0.696281	6.07682
0.727068	7.68187
0.744898	6.11475
0.778244	7.72179
0.798634	6.15667
0.829501	9.34281
0.849891	7.77769
0.878077	8.59019
0.901108	8.60816
0.926776	10.2092
0.954883	9.44063
0.978033	11.8302
0.998626	14.2178
1.01162	18.1805
