Adsorption isotherm of Nitrogen on AC2
DOI: 10.1016/j.cej.2015.04.081
Article source: Figure 4b
Adsorbate Nitrogen: InChIKey IJGRMHOSHXDMSA-UHFFFAOYSA-N
Kind: experiment
Temperature: 77 K
Tabular data in the source: 0
pressure (bar)	uptake (cm3(STP)/g)
0	0
0.000113	4.98174
0.002946	129.525
0.004003	176.021
0.004258	74.7302
0.00762	222.522
0.008451	259.054
0.016958	295.6
0.035361	317.217
0.076906	343.853
0.110322	350.55
0.148817	355.594
0.166767	357.284
0.19751	358.995
0.220615	362.354
0.248761	362.4
0.266673	362.43
0.299976	364.145
0.351113	362.568
0.399845	367.629
0.453617	369.378
0.474164	372.733
0.504793	369.462
0.556007	371.206
0.604662	372.947
0.65328	373.026
0.678867	373.068
0.704456	373.11
0.730082	374.813
0.75567	374.855
0.778699	374.892
0.811964	374.947
0.829875	374.976
0.858022	375.022
0.883686	378.385
0.911794	376.771
0.934862	378.469
0.968126	378.524
0.991155	378.562
1.00655	380.247
1.0219	380.272
