Adsorption isotherm of Carbon Dioxide on PR
DOI: 10.1016/j.cej.2015.04.081
Article source: Figure 5a
Adsorbate Carbon Dioxide: InChIKey CURLTUGMZLYLDI-UHFFFAOYSA-N
Kind: experiment
Temperature: 298 K
Tabular data in the source: 0
pressure (bar)	uptake (mmol/g)
0	0
0.012854	0.010714
0.053985	0.010714
0.082262	0.032143
0.11054	0.032143
0.177378	0.032143
0.22365	0.032143
0.275064	0.053571
0.326478	0.053571
0.377892	0.064286
0.426735	0.075
0.48329	0.075
0.532134	0.075
0.586118	0.096429
0.632391	0.096429
0.686375	0.096429
0.737789	0.096429
0.789203	0.107143
0.838046	0.117857
0.88946	0.117857
0.940874	0.128571
0.992288	0.139286
1.00514	0.139286
1.02314	0.139286
