Adsorption isotherm of Carbon Dioxide on PAN-AC
DOI: 10.1016/j.cej.2015.04.081
Article source: Figure 5a
Adsorbate Carbon Dioxide: InChIKey CURLTUGMZLYLDI-UHFFFAOYSA-N
Kind: experiment
Temperature: 298 K
Tabular data in the source: 0
pressure (bar)	uptake (mmol/g)
0	0
0.010283	0.095976
0.030848	0.191841
0.051414	0.255679
0.082262	0.30873
0.118252	0.361727
0.141388	0.404184
0.169666	0.435911
0.192802	0.478369
0.218509	0.510123
0.246787	0.541849
0.275064	0.573576
0.298201	0.605357
0.323907	0.626435
0.385604	0.679157
0.434447	0.742693
0.457584	0.753122
0.475578	0.784958
0.539846	0.837653
0.560411	0.858786
0.580977	0.879918
0.616967	0.911563
0.632391	0.922074
0.66838	0.953718
0.683805	0.974906
0.722365	0.98517
0.737789	1.01703
0.773779	1.04868
0.789203	1.05919
0.8509	1.09056
0.871465	1.12237
0.894602	1.1328
0.928021	1.16447
0.943445	1.17498
0.982005	1.18525
1.00257	1.21705
1.02314	1.21683
