Adsorption isotherm of Carbon Dioxide on AC2
DOI: 10.1016/j.cej.2015.04.081
Article source: Figure 5b
Adsorbate Carbon Dioxide: InChIKey CURLTUGMZLYLDI-UHFFFAOYSA-N
Kind: experiment
Temperature: 298 K
Tabular data in the source: 0
pressure (bar)	uptake (mmol/g)
0	0
0.017949	0.050847
0.05641	0.237288
0.105128	0.40678
0.158974	0.576271
0.194872	0.652542
0.228205	0.754237
0.261538	0.830508
0.317949	0.983051
0.369231	1.08475
0.420513	1.21186
0.469231	1.32203
0.520513	1.4322
0.561538	1.50847
0.587179	1.5678
0.615385	1.61864
0.682051	1.73729
0.725641	1.82203
0.807692	1.97458
0.846154	2.0339
0.876923	2.08475
0.941026	2.19492
0.984615	2.27119
1.02564	2.33051
