Adsorption isotherm of Carbon Dioxide on PR-C
DOI: 10.1016/j.cej.2015.04.081
Article source: Figure 5a
Adsorbate Carbon Dioxide: InChIKey CURLTUGMZLYLDI-UHFFFAOYSA-N
Kind: experiment
Temperature: 298 K
Tabular data in the source: 0
pressure (bar)	uptake (mmol/g)
0	0
0.010283	0.096429
0.015424	0.235714
0.033419	0.353571
0.046273	0.439286
0.056555	0.535714
0.069409	0.642857
0.082262	0.707143
0.118252	0.910714
0.143959	1.02857
0.169666	1.13571
0.195373	1.23214
0.22108	1.32857
0.249357	1.41429
0.269923	1.51071
0.300771	1.575
0.326478	1.65
0.390746	1.8
0.442159	1.93929
0.462725	1.98214
0.478149	2.03571
0.552699	2.16429
0.565553	2.19643
0.586118	2.22857
0.622108	2.30357
0.637532	2.325
0.673522	2.4
0.735219	2.48571
0.786632	2.56071
0.874036	2.7
0.902314	2.73214
0.930591	2.775
0.951157	2.81786
0.989717	2.85
1.01799	2.89286
1.03599	2.91429
