Adsorption isotherm of Carbon Dioxide on AC1
DOI: 10.1016/j.cej.2015.04.081
Article source: Figure 5b
Adsorbate Carbon Dioxide: InChIKey CURLTUGMZLYLDI-UHFFFAOYSA-N
Kind: experiment
Temperature: 298 K
Tabular data in the source: 0
pressure (bar)	uptake (mmol/g)
0	0
0.012821	0.050847
0.030769	0.144068
0.04359	0.211864
0.071795	0.288136
0.148718	0.466102
0.169231	0.516949
0.197436	0.576271
0.223077	0.635593
0.251282	0.677966
0.279487	0.737288
0.3	0.788136
0.328205	0.822034
0.387179	0.915254
0.441026	1
0.464103	1.04237
0.479487	1.08475
0.541026	1.15254
0.564103	1.20339
0.587179	1.22881
0.620513	1.27119
0.635897	1.28814
0.671795	1.33051
0.689744	1.35593
0.723077	1.39831
0.741026	1.42373
0.776923	1.4661
0.794872	1.49153
0.85641	1.55932
0.879487	1.58475
0.9	1.61017
0.933333	1.64407
0.948718	1.66102
0.987179	1.70339
1	1.71186
1.02308	1.73729
