Adsorption isotherm of Carbon Dioxide on AC3
DOI: 10.1016/j.cej.2015.04.081
Article source: Figure 5b
Adsorbate Carbon Dioxide: InChIKey CURLTUGMZLYLDI-UHFFFAOYSA-N
Kind: experiment
Temperature: 298 K
Tabular data in the source: 0
pressure (bar)	uptake (mmol/g)
0	0
0.010256	0.025424
0.030769	0.076271
0.05641	0.20339
0.084615	0.288136
0.105128	0.347458
0.169231	0.508475
0.212821	0.627119
0.271795	0.771186
0.323077	0.881356
0.374359	0.991525
0.428205	1.09322
0.479487	1.19492
0.533333	1.28814
0.571795	1.36441
0.635897	1.48305
0.687179	1.55932
0.738462	1.65254
0.812821	1.77119
0.858974	1.85593
0.915385	1.9322
0.964103	2.01695
1.01538	2.08475
