Adsorption isotherm of Nitrogen on AC3
DOI: 10.1016/j.cej.2015.04.081
Article source: Figure 4b
Adsorbate Nitrogen: InChIKey IJGRMHOSHXDMSA-UHFFFAOYSA-N
Kind: experiment
Temperature: 77 K
Tabular data in the source: 0
pressure (bar)	uptake (cm3(STP)/g)
0	0
0.001535	180.005
0.002711	6.67558
0.003412	150.011
0.00381	55.0125
0.004966	218.35
0.004985	106.683
0.008207	248.36
0.011411	276.704
0.014273	290.047
0.025001	311.749
0.043407	333.476
0.074606	355.245
0.105616	368.681
0.159657	382.192
0.200675	385.66
0.218625	387.386
0.24937	389.154
0.272476	392.563
0.295506	392.639
0.323729	396.065
0.349319	396.149
0.374984	399.567
0.398014	399.643
0.428759	401.411
0.454386	403.161
0.480012	404.912
0.505791	413.331
0.531229	406.748
0.554448	415.157
0.579885	408.574
0.60574	420.326
0.633736	413.751
0.651838	422.144
0.677276	415.561
0.703054	423.98
0.731088	419.072
0.756866	427.49
0.779783	422.565
0.808121	430.992
0.833596	426.076
0.859299	431.16
0.882329	431.236
0.913149	436.337
0.931062	436.396
0.964403	439.839
0.982354	441.565
1.0029	444.966
1.01588	453.342
1.0262	456.709
