Adsorption isotherm of Nitrogen on AC1
DOI: 10.1016/j.cej.2015.04.081
Article source: Figure 4b
Adsorbate Nitrogen: InChIKey IJGRMHOSHXDMSA-UHFFFAOYSA-N
Kind: experiment
Temperature: 77 K
Tabular data in the source: 0
pressure (bar)	uptake (cm3(STP)/g)
0	0
0.002312	101.67
0.002938	16.6715
0.00381	55.0063
0.005819	143.343
0.006615	178.344
0.017305	198.362
0.033189	221.721
0.0435	225.072
0.074622	243.456
0.100514	256.832
0.154552	270.254
0.203397	280.335
0.252204	288.748
0.316326	295.52
0.349591	295.575
0.367578	298.938
0.400842	298.993
0.42135	300.693
0.454577	299.081
0.472641	305.777
0.52122	304.191
0.554522	305.912
0.572434	305.942
0.605736	307.663
0.623648	307.692
0.656912	307.747
0.705568	309.494
0.761862	309.586
0.810517	311.333
0.861768	314.751
0.907865	316.493
0.98463	316.62
1.01797	320.008
