Adsorption isotherm of Nitrogen on PR-C
DOI: 10.1016/j.cej.2015.04.081
Article source: Figure 4a
Adsorbate Nitrogen: InChIKey IJGRMHOSHXDMSA-UHFFFAOYSA-N
Kind: experiment
Temperature: 77 K
Tabular data in the source: 0
pressure (bar)	uptake (cm3(STP)/g)
0	0
0.000718	85.3761
0.003105	14.2317
0.005249	136.763
0.008111	144.67
0.013381	148.627
0.04177	154.973
0.075125	157.371
0.111009	158.98
0.149451	160.591
0.167393	161.395
0.200688	162.212
0.21863	163.016
0.249335	163.04
0.269836	163.847
0.297983	163.869
0.318513	165.466
0.351748	164.701
0.367161	166.294
0.402953	165.532
0.418397	167.915
0.451571	165.57
0.472132	167.957
0.500249	167.189
0.520809	169.576
0.553983	167.231
0.572016	170.407
0.605219	168.852
0.623191	170.447
0.653836	168.89
0.674428	172.068
0.707601	169.722
0.725604	172.108
0.758808	170.552
0.776841	173.729
0.807485	172.171
0.825488	174.557
0.856132	173
0.879222	174.599
0.912456	173.834
0.927839	174.637
0.984223	177.052
1.01758	179.45
