Adsorption isotherm of Nitrogen on PAN-AC
DOI: 10.1016/j.cej.2015.04.081
Article source: Figure 4a
Adsorbate Nitrogen: InChIKey IJGRMHOSHXDMSA-UHFFFAOYSA-N
Kind: experiment
Temperature: 77 K
Tabular data in the source: 0
pressure (bar)	uptake (cm3(STP)/g)
0	0
0.002761	71.9389
0.007869	138.346
0.013441	150.208
0.047191	162.883
0.098579	168.456
0.111434	170.047
0.147317	171.656
0.167788	171.672
0.201083	172.489
0.216496	174.082
0.24979	174.898
0.267732	175.703
0.300996	175.729
0.318939	176.533
0.352203	176.559
0.370175	178.154
0.398322	178.176
0.418852	179.773
0.452117	179.799
0.475176	180.608
0.503323	180.63
0.523824	181.436
0.554559	182.251
0.572501	183.055
0.605796	183.872
0.626267	183.888
0.657001	184.702
0.674944	185.507
0.708238	186.323
0.728709	186.339
0.754327	187.15
0.777356	187.168
0.810651	187.984
0.828592	188.789
0.864507	191.188
0.879829	190.41
0.910625	192.805
0.928537	192.819
0.977336	197.6
0.99281	200.775
1.00838	206.32
1.01371	211.858
1.02159	217.398
