Adsorption isotherm of Methyl Orange on 20Carboxymethyl Cellulose-Bentonite
DOI: 10.1016/j.cherd.2017.06.034
Article source: Figure 7
Adsorbate Methyl Orange: InChIKey STZCRXQWRGQSJD-GEEYTBSJSA-M
Kind: experiment
Temperature: 298 K
Tabular data in the source: 0
pressure (bar)	uptake (mg/g)
1.01325	12.829
1.01325	36.905
1.01325	60.932
1.01325	82.283
1.01325	97.938
1.01325	109.893
