Adsorption isotherm of Nitrogen on Bentonite
DOI: 10.1016/j.cherd.2017.06.034
Article source: Figure 4c
Adsorbate Nitrogen: InChIKey IJGRMHOSHXDMSA-UHFFFAOYSA-N
Kind: experiment
Temperature: 77 K
Tabular data in the source: 0
pressure (bar)	uptake (cm3(STP)/g)
0.011865	3.465
0.033214	3.848
0.066032	4.306
0.080653	4.382
0.103593	4.649
0.12098	4.762
0.143119	5.684
0.145095	4.914
0.163282	4.95
0.182655	5.179
0.201238	5.87
0.202423	5.331
0.252629	5.248
0.252629	5.98
0.284262	6.323
0.30481	5.512
0.335653	6.356
0.356211	5.93
0.406417	5.962
0.406417	7.118
0.456622	6.496
0.460969	7.458
0.505257	11.189
0.507223	7.222
0.556638	7.332
0.558239	12.493
0.606864	13.874
0.609225	7.711
0.65864	8.745
0.65866	16.025
0.708055	9.549
0.709666	18.638
0.759061	11.199
0.759092	22.407
0.810067	13.35
0.811283	27.409
0.830231	14.85
0.836594	30.564
0.862259	17.35
0.86309	34.837
0.886819	39.417
0.887569	20.005
0.911684	23.507
0.913326	45.115
0.937066	52.238
0.9374	28.588
0.956449	58.283
0.96193	36.019
0.977422	66.369
0.984495	49.421
0.988497	71.76
0.994404	58.702
1.00312	68.908
1.0059	76.226
