Adsorption isotherm of Nitrogen on 20Carboxymethyl Cellulose-Bentonite
DOI: 10.1016/j.cherd.2017.06.034
Article source: Figure 4c
Adsorbate Nitrogen: InChIKey IJGRMHOSHXDMSA-UHFFFAOYSA-N
Kind: experiment
Temperature: 77 K
Tabular data in the source: 0
pressure (bar)	uptake (cm3(STP)/g)
0.010548	0.732
0.035656	1.187
0.067339	1.489
0.078323	1.457
0.102802	1.271
0.123199	1.422
0.130099	1.849
0.137627	1.665
0.16085	1.387
0.183435	1.537
0.203831	1.535
0.233327	1.898
0.254351	1.651
0.281648	1.709
0.301416	1.768
0.33468	1.703
0.356019	1.67
0.386446	1.697
0.425668	1.662
0.431636	1.631
0.478072	1.504
0.482156	1.564
0.52765	1.345
0.533293	1.528
0.578169	1.278
0.589143	1.399
0.628051	1.364
0.637474	1.394
0.678256	1.206
0.709636	1.813
0.711521	1.722
0.728776	1.169
0.758585	2.114
0.761726	0.952
0.810989	3.116
0.813806	1.404
0.832318	1.524
0.837972	3.908
0.863079	5.281
0.863383	1.857
0.886607	2.099
0.888501	7.571
0.911714	2.708
0.912667	10.197
0.936528	14.75
0.938069	4.111
0.952538	18.416
0.96192	7.226
0.977341	25.414
0.984221	14.041
0.990848	31.221
0.993644	19.818
1.00119	28.01
1.00718	36.386
