Adsorption isotherm of N-propane on ZnAcBPDC
DOI: 10.1016/j.micromeso.2014.03.022
Adsorbate N-propane: InChIKey ATUOYWHBWRKTHZ-UHFFFAOYSA-N
Temperature: 293 K
Tabular data in the source: 0
pressure (bar)	uptake (mmol/g)
0.00557621	0.434783
0.0130112	1.13043
0.0334572	2.32609
0.0855019	3.78261
0.204461	4.65217
0.35316	5.08696
0.483271	5.41304
0.598513	5.58696
0.734201	5.82609
0.901487	6.06522
