Adsorption isotherm of Propene on ZnAcBPDC
DOI: 10.1016/j.micromeso.2014.03.022
Adsorbate Propene: InChIKey QQONPFPTGQHPMA-UHFFFAOYSA-N
Temperature: 313 K
Tabular data in the source: 0
pressure (bar)	uptake (mmol/g)
0.00762005	0.29484
0.0243656	0.845209
0.0608563	1.80835
0.118553	2.90909
0.218577	3.83292
0.344263	4.46192
0.469908	4.87469
0.587963	5.14988
0.724173	5.42506
0.905775	5.73956
