Adsorption isotherm of Carbon Dioxide on ZnAcBPDC
DOI: 10.1016/j.micromeso.2014.03.022
Adsorbate Carbon Dioxide: InChIKey CURLTUGMZLYLDI-UHFFFAOYSA-N
Temperature: 313 K
Tabular data in the source: 0
pressure (bar)	uptake (mmol/g)
0.0211864	0.0855884
0.0635593	0.205629
0.133475	0.394321
0.222458	0.600383
0.317797	0.823599
0.413136	1.02977
0.508475	1.25299
0.610169	1.5104
0.741525	1.75128
0.900424	2.07785
