Adsorption isotherm of N-Butane on ZnBuBPDC
DOI: 10.1016/j.micromeso.2014.03.022
Adsorbate N-Butane: InChIKey IJDNQMDRQITEOD-UHFFFAOYSA-N
Temperature: 273 K
Tabular data in the source: 0
pressure (bar)	uptake (mmol/g)
0.00840336	0.383288
0.012605	1.0369
0.0588235	1.87175
0.163866	2.32482
0.285714	2.53038
0.401261	2.69073
0.502101	2.80568
0.602941	2.94316
0.737395	3.08141
0.922269	3.33346
