Adsorption isotherm of Carbon Dioxide on ZnBuBPDC
DOI: 10.1016/j.micromeso.2014.03.022
Adsorbate Carbon Dioxide: InChIKey CURLTUGMZLYLDI-UHFFFAOYSA-N
Temperature: 313 K
Tabular data in the source: 0
pressure (bar)	uptake (mmol/g)
0.0269815	0.0582839
0.0640809	0.0724096
0.131535	0.15944
0.220911	0.304828
0.313659	0.406157
0.409781	0.536776
0.504216	0.68209
0.60371	0.841999
0.728499	1.04555
0.881956	1.27802
