Adsorption isotherm of N-propane on ZnAcBPDC
DOI: 10.1016/j.micromeso.2014.03.022
Adsorbate N-propane: InChIKey ATUOYWHBWRKTHZ-UHFFFAOYSA-N
Temperature: 313 K
Tabular data in the source: 0
pressure (bar)	uptake (mmol/g)
0.00848867	0.324873
0.0191422	0.893401
0.0551177	1.88832
0.118431	2.98477
0.225792	3.81726
0.356167	4.28426
0.480202	4.60914
0.597918	4.8731
0.736638	5.11675
0.902668	5.36041
