Adsorption isotherm of Carbon Dioxide on ZnAcBPDC
DOI: 10.1016/j.micromeso.2014.03.022
Adsorbate Carbon Dioxide: InChIKey CURLTUGMZLYLDI-UHFFFAOYSA-N
Temperature: 293 K
Tabular data in the source: 0
pressure (bar)	uptake (mmol/g)
0.0233051	0.153806
0.059322	0.324875
0.125	0.581676
0.211864	0.889975
0.305085	1.21543
0.402542	1.48982
0.5	1.7983
0.601695	2.10685
0.726695	2.46693
0.889831	2.94699
