Adsorption isotherm of Ethene on ZnBuBPDC
DOI: 10.1016/j.micromeso.2014.03.022
Adsorbate Ethene: InChIKey VGGSQFUCUMXWEO-UHFFFAOYSA-N
Temperature: 273 K
Tabular data in the source: 0
pressure (bar)	uptake (mmol/g)
0.0187891	0.202102
0.0480167	0.449255
0.108559	0.809155
0.181628	1.23656
0.275574	1.73167
0.367432	2.13709
0.475992	2.54288
0.578288	2.88131
0.709812	3.26521
0.858038	3.60466
