Adsorption isotherm of Nitrogen on ZnAcBPDC
DOI: 10.1016/j.micromeso.2014.03.022
Adsorbate Nitrogen: InChIKey IJGRMHOSHXDMSA-UHFFFAOYSA-N
Temperature: 77 K
Tabular data in the source: 0
pressure (bar)	uptake (cm3(STP)/g)
0.00605938	187.781
0.00807917	200.643
0.010099	205.788
0.0626136	223.794
0.0868511	228.939
0.115128	232.797
0.137346	235.37
0.163603	236.656
0.185821	236.656
0.208038	240.514
0.236315	240.514
0.262573	243.087
0.282771	244.373
0.311048	245.659
0.355483	246.945
0.403958	253.376
0.452433	253.376
0.500909	255.949
0.547364	259.807
0.595839	262.379
0.642294	266.238
0.692789	268.81
0.739244	272.669
0.785699	279.1
0.824075	289.389
0.886689	304.823
0.929104	312.54
