Adsorption isotherm of N-propane on ZnBuBPDC
DOI: 10.1016/j.micromeso.2014.03.022
Adsorbate N-propane: InChIKey ATUOYWHBWRKTHZ-UHFFFAOYSA-N
Temperature: 293 K
Tabular data in the source: 0
pressure (bar)	uptake (mmol/g)
0.00941871	0.387409
0.0263182	0.8523
0.0787015	1.47215
0.175816	1.89831
0.282218	2.15012
0.394194	2.30508
0.508032	2.44068
0.606944	2.57627
0.735712	2.73123
0.898066	2.90557
