Adsorption isotherm of Nitrogen on ZnPrBPDC
DOI: 10.1016/j.micromeso.2014.03.022
Adsorbate Nitrogen: InChIKey IJGRMHOSHXDMSA-UHFFFAOYSA-N
Temperature: 77 K
Tabular data in the source: 0
pressure (bar)	uptake (cm3(STP)/g)
0.00259433	43.1326
0.00382926	11.2648
0.00419773	31.5946
0.00582604	21.4302
0.0118463	53.5748
0.0191811	58.2472
0.0320582	68.6904
0.0448057	71.9907
0.0738364	73.6473
0.106482	74.7554
0.15182	76.1418
0.20441	77.5303
0.251561	78.9173
0.295077	79.7538
0.344036	80.8665
0.394801	81.705
0.443765	83.0925
0.489094	83.9295
0.539855	84.4933
0.587001	85.6056
0.63595	86.1688
0.684924	88.1058
0.735689	88.9443
0.784638	89.5076
0.833602	90.8951
0.880743	91.7326
0.931515	92.8458
0.949655	93.6751
0.969658	97.2522
