Adsorption isotherm of N-Butane on ZnAcBPDC
DOI: 10.1016/j.micromeso.2014.03.022
Adsorbate N-Butane: InChIKey IJDNQMDRQITEOD-UHFFFAOYSA-N
Temperature: 273 K
Tabular data in the source: 0
pressure (bar)	uptake (mmol/g)
0.00633391	0.423539
0.0069176	2.67425
0.00861088	1.20353
0.0385236	4.54682
0.210886	5.17462
0.368638	5.46782
0.49731	5.62668
0.607315	5.80741
0.733959	6.14449
0.883516	6.83863
