Adsorption isotherm of N-Butane on ZnBuBPDC
DOI: 10.1016/j.micromeso.2014.03.022
Adsorbate N-Butane: InChIKey IJDNQMDRQITEOD-UHFFFAOYSA-N
Temperature: 313 K
Tabular data in the source: 0
pressure (bar)	uptake (mmol/g)
0.00543478	0.427079
0.0144928	1.0871
0.0507246	2.0961
0.163043	2.46285
0.282609	2.69354
0.394928	2.80787
0.498188	2.9612
0.605072	3.07563
0.737319	3.2284
0.898551	3.40003
