Adsorption isotherm of Carbon Dioxide on ZnBuBPDC
DOI: 10.1016/j.micromeso.2014.03.022
Adsorbate Carbon Dioxide: InChIKey CURLTUGMZLYLDI-UHFFFAOYSA-N
Temperature: 273 K
Tabular data in the source: 0
pressure (bar)	uptake (mmol/g)
0.0185497	0.175767
0.0539629	0.336617
0.11973	0.599711
0.204047	0.877202
0.296796	1.19858
0.387858	1.50531
0.485666	1.81195
0.58516	2.10389
0.703204	2.49824
0.868465	2.97992
