Adsorption isotherm of N-Butane on ZnBuBPDC
DOI: 10.1016/j.micromeso.2014.03.022
Adsorbate N-Butane: InChIKey IJDNQMDRQITEOD-UHFFFAOYSA-N
Temperature: 293 K
Tabular data in the source: 0
pressure (bar)	uptake (mmol/g)
0.00402045	1.23971
0.0341242	2.32446
0.153627	2.75061
0.282417	3.00242
0.39625	3.11864
0.508231	3.29298
0.605273	3.4092
0.726573	3.54479
0.91693	3.79661
