Adsorption isotherm of 1-butene on ZnAcBPDC
DOI: 10.1016/j.micromeso.2014.03.022
Adsorbate 1-butene: InChIKey VXNZUUAINFGPBY-UHFFFAOYSA-N
Temperature: 273 K
Tabular data in the source: 0
pressure (bar)	uptake (mmol/g)
0.00247336	1.28006
0.00287544	2.78864
0.0396347	4.70948
0.214628	5.28491
0.366094	5.58551
0.496208	5.77134
0.611402	5.97969
0.737281	6.27971
0.871793	6.9685
