Adsorption isotherm of 1-butene on ZnAcBPDC
DOI: 10.1016/j.micromeso.2014.03.022
Adsorbate 1-butene: InChIKey VXNZUUAINFGPBY-UHFFFAOYSA-N
Temperature: 313 K
Tabular data in the source: 0
pressure (bar)	uptake (mmol/g)
0.00310749	0.432432
0.00626703	1.14005
0.0171321	2.59459
0.0809473	4.04914
0.236868	4.5602
0.380638	4.81572
0.500184	4.97297
0.612173	5.16953
0.75895	5.32678
0.925409	5.56265
