Adsorption isotherm of Ethane on ZnBuBPDC
DOI: 10.1016/j.micromeso.2014.03.022
Adsorbate Ethane: InChIKey OTMSDBZUPAUEDD-UHFFFAOYSA-N
Temperature: 313 K
Tabular data in the source: 0
pressure (bar)	uptake (mmol/g)
0.0271739	0.115977
0.0652174	0.173491
0.137681	0.269171
0.219203	0.422928
0.311594	0.537639
0.407609	0.671697
0.507246	0.805685
0.605072	0.939707
0.731884	1.09258
0.896739	1.30298
