Adsorption isotherm of Nitrogen on ZnBuBPDC
DOI: 10.1016/j.micromeso.2014.03.022
Adsorbate Nitrogen: InChIKey IJGRMHOSHXDMSA-UHFFFAOYSA-N
Temperature: 77 K
Tabular data in the source: 0
pressure (bar)	uptake (cm3(STP)/g)
0.00570364	172.981
0.00760485	187.187
0.00950607	193.872
0.0323206	202.228
0.0646413	209.749
0.089357	213.928
0.115974	216.435
0.142591	219.777
0.169208	223.12
0.193924	223.955
0.222442	227.298
0.241454	228.969
0.269972	229.805
0.292787	231.476
0.311799	233.148
0.338416	235.655
0.365033	237.326
0.389749	238.997
0.412564	239.833
0.433477	241.504
0.461995	244.011
0.48481	245.682
0.511427	247.354
0.534241	249.025
0.560858	250.696
0.585574	252.368
0.606487	253.203
0.633104	255.71
0.654018	257.382
0.678733	258.217
0.707251	259.889
0.730066	261.56
0.75288	263.231
0.775695	264.903
0.800411	266.574
0.827028	269.081
0.851743	269.916
0.87646	270.752
0.899274	271.588
0.927792	273.259
0.946805	274.095
0.965816	279.109
