Adsorption isotherm of Ethane on ZnAcBPDC
DOI: 10.1016/j.micromeso.2014.03.022
Adsorbate Ethane: InChIKey OTMSDBZUPAUEDD-UHFFFAOYSA-N
Temperature: 273 K
Tabular data in the source: 0
pressure (bar)	uptake (mmol/g)
0.0705629	0.0907089
0.143195	0.15918
0.234499	0.228067
0.329964	0.341615
0.427498	0.432925
0.52505	0.591087
0.626739	0.704774
0.749175	0.818923
0.915238	1.15689
