Adsorption isotherm of Methane on ZnBuBPDC
DOI: 10.1016/j.micromeso.2014.03.022
Adsorbate Methane: InChIKey VNWKTOKETHGBQD-UHFFFAOYSA-N
Temperature: 293 K
Tabular data in the source: 0
pressure (bar)	uptake (mmol/g)
0.0298688	0.0774818
0.0709091	0.0581114
0.136217	0.0968523
0.227648	0.154964
0.319084	0.232446
0.416117	0.309927
0.515016	0.387409
0.613919	0.484262
0.742677	0.600484
0.912494	0.774818
