Adsorption isotherm of 1-butene on ZnBuBPDC
DOI: 10.1016/j.micromeso.2014.03.022
Adsorbate 1-butene: InChIKey VXNZUUAINFGPBY-UHFFFAOYSA-N
Temperature: 273 K
Tabular data in the source: 0
pressure (bar)	uptake (mmol/g)
0.00208768	1.18772
0.0501044	2.21961
0.167015	2.51355
0.286013	2.71789
0.39666	2.87724
0.501044	3.03644
0.601253	3.17314
0.730689	3.37772
0.897704	3.62796
