Adsorption isotherm of 1-butene on ZnBuBPDC
DOI: 10.1016/j.micromeso.2014.03.022
Adsorbate 1-butene: InChIKey VXNZUUAINFGPBY-UHFFFAOYSA-N
Temperature: 293 K
Tabular data in the source: 0
pressure (bar)	uptake (mmol/g)
0.00482709	1.21008
0.0430445	2.12885
0.158536	2.48739
0.282355	2.73389
0.397718	2.84594
0.496321	2.98039
0.601201	3.09244
0.733371	3.27171
0.905396	3.4958
