Adsorption isotherm of N-propane on ZnBuBPDC
DOI: 10.1016/j.micromeso.2014.03.022
Adsorbate N-propane: InChIKey ATUOYWHBWRKTHZ-UHFFFAOYSA-N
Temperature: 313 K
Tabular data in the source: 0
pressure (bar)	uptake (mmol/g)
0.0144928	0.271563
0.0380435	0.601203
0.0923913	1.105
0.181159	1.49163
0.289855	1.78078
0.396739	1.95346
0.501812	2.08734
0.605072	2.22126
0.730072	2.37417
0.88587	2.56532
