Adsorption isotherm of Ethene on ZnBuBPDC
DOI: 10.1016/j.micromeso.2014.03.022
Adsorbate Ethene: InChIKey VGGSQFUCUMXWEO-UHFFFAOYSA-N
Temperature: 293 K
Tabular data in the source: 0
pressure (bar)	uptake (mmol/g)
0.0189501	0.156863
0.0504671	0.291317
0.115586	0.537815
0.1975	0.829132
0.292015	1.16527
0.390689	1.43417
0.489374	1.72549
0.590156	2.01681
0.7266	2.35294
0.890298	2.68908
