Adsorption isotherm of Propene on ZnBuBPDC
DOI: 10.1016/j.micromeso.2014.03.022
Adsorbate Propene: InChIKey QQONPFPTGQHPMA-UHFFFAOYSA-N
Temperature: 293 K
Tabular data in the source: 0
pressure (bar)	uptake (mmol/g)
0.00227261	0.336134
0.0213989	0.829132
0.0804515	1.5014
0.149986	2.17367
0.26132	2.59944
0.380958	2.86835
0.492163	3.04762
0.603357	3.20448
0.729225	3.36134
0.894973	3.60784
