Adsorption isotherm of Propene on ZnAcBPDC
DOI: 10.1016/j.micromeso.2014.03.022
Adsorbate Propene: InChIKey QQONPFPTGQHPMA-UHFFFAOYSA-N
Temperature: 293 K
Tabular data in the source: 0
pressure (bar)	uptake (mmol/g)
0.00690846	0.3736
0.0138169	1.04204
0.0362694	2.28081
0.0829016	3.77559
0.193437	4.85884
0.336788	5.39237
0.469775	5.74879
0.594128	6.00676
0.728843	6.24528
0.917098	6.50451
