Adsorption isotherm of N-Butane on ZnAcBPDC
DOI: 10.1016/j.micromeso.2014.03.022
Adsorbate N-Butane: InChIKey IJDNQMDRQITEOD-UHFFFAOYSA-N
Temperature: 293 K
Tabular data in the source: 0
pressure (bar)	uptake (mmol/g)
0.00557621	0.413043
0.0111524	1.06522
0.0130112	2.6087
0.0650558	4.23913
0.22119	4.84783
0.371747	5.13043
0.494424	5.3913
0.60223	5.54348
0.737918	5.78261
0.901487	6.06522
