Adsorption isotherm of Ethane on ZnBuBPDC
DOI: 10.1016/j.micromeso.2014.03.022
Adsorbate Ethane: InChIKey OTMSDBZUPAUEDD-UHFFFAOYSA-N
Temperature: 273 K
Tabular data in the source: 0
pressure (bar)	uptake (mmol/g)
0.0147059	0.248219
0.0441176	0.451698
0.105042	0.83617
0.186975	1.22111
0.289916	1.51639
0.390756	1.74402
0.493697	1.92662
0.596639	2.13176
0.726891	2.33751
0.894958	2.56665
