Adsorption isotherm of Methane on ZnAcBPDC
DOI: 10.1016/j.micromeso.2014.03.022
Adsorbate Methane: InChIKey VNWKTOKETHGBQD-UHFFFAOYSA-N
Temperature: 313 K
Tabular data in the source: 0
pressure (bar)	uptake (mmol/g)
0.0315286	0.0609137
0.0756569	0.101523
0.144985	0.101523
0.241645	0.182741
0.329901	0.263959
0.426556	0.324873
0.527412	0.385787
0.626178	0.48731
0.754367	0.629442
0.903559	0.751269
