Adsorption isotherm of Propene on ZnBuBPDC
DOI: 10.1016/j.micromeso.2014.03.022
Adsorbate Propene: InChIKey QQONPFPTGQHPMA-UHFFFAOYSA-N
Temperature: 273 K
Tabular data in the source: 0
pressure (bar)	uptake (mmol/g)
0.00626305	0.403502
0.0104384	1.03105
0.0563674	1.95084
0.154489	2.53567
0.275574	2.8073
0.394572	2.96683
0.501044	3.12607
0.60334	3.28523
0.745303	3.46768
0.908142	3.67301
