Adsorption isotherm of Methane on ZnBuBPDC
DOI: 10.1016/j.micromeso.2014.03.022
Adsorbate Methane: InChIKey VNWKTOKETHGBQD-UHFFFAOYSA-N
Temperature: 313 K
Tabular data in the source: 0
pressure (bar)	uptake (mmol/g)
0.0307971	0.0770719
0.0724638	0.0568454
0.143116	0.074891
0.226449	0.112108
0.324275	0.187878
0.416667	0.244337
0.516304	0.320072
0.61413	0.395842
0.744565	0.490397
0.902174	0.603841
