Adsorption isotherm of Ethene on ZnAcBPDC
DOI: 10.1016/j.micromeso.2014.03.022
Adsorbate Ethene: InChIKey VGGSQFUCUMXWEO-UHFFFAOYSA-N
Temperature: 313 K
Tabular data in the source: 0
pressure (bar)	uptake (mmol/g)
0.0166675	0.137592
0.0560316	0.29484
0.12114	0.589681
0.205924	0.923833
0.298264	1.21867
0.396659	1.53317
0.496571	1.86732
0.601014	2.16216
0.722113	2.53563
0.890123	2.96806
