Adsorption isotherm of N-propane on ZnAcBPDC
DOI: 10.1016/j.micromeso.2014.03.022
Adsorbate N-propane: InChIKey ATUOYWHBWRKTHZ-UHFFFAOYSA-N
Temperature: 273 K
Tabular data in the source: 0
pressure (bar)	uptake (mmol/g)
0.0065015	1.06978
0.0151759	2.51844
0.0488566	4.39106
0.188133	5.44152
0.341771	5.86834
0.480845	6.13885
0.599155	6.34204
0.736132	6.52337
0.893872	6.77201
