Adsorption isotherm of Ethene on ZnAcBPDC
DOI: 10.1016/j.micromeso.2014.03.022
Adsorbate Ethene: InChIKey VGGSQFUCUMXWEO-UHFFFAOYSA-N
Temperature: 293 K
Tabular data in the source: 0
pressure (bar)	uptake (mmol/g)
0.0189983	0.21659
0.0466321	0.453005
0.108808	0.88666
0.189983	1.37966
0.283247	1.83358
0.381693	2.30726
0.481865	2.74166
0.583765	3.17609
0.709845	3.65032
0.896373	4.26332
