Adsorption isotherm of Nitrogen on ZnPeBPDC
DOI: 10.1016/j.micromeso.2014.03.022
Adsorbate Nitrogen: InChIKey IJGRMHOSHXDMSA-UHFFFAOYSA-N
Temperature: 77 K
Tabular data in the source: 0
pressure (bar)	uptake (cm3(STP)/g)
0.00281638	212.938
0.00452839	234.501
0.0419852	266.846
0.0705831	274.933
0.095617	278.976
0.118862	283.019
0.14568	288.41
0.167135	292.453
0.193964	295.148
0.219002	297.844
0.242251	300.539
0.26729	303.235
0.292329	305.93
0.313789	308.625
0.342406	311.321
0.365652	315.364
0.388906	316.712
0.412165	316.712
0.4372	320.755
0.460454	322.102
0.481914	324.798
0.508742	327.493
0.53378	330.189
0.557031	332.884
0.578491	335.58
0.603539	335.58
0.630367	338.275
0.653616	340.97
0.676866	343.666
0.701905	346.361
0.726939	350.404
0.753776	350.404
0.777026	353.1
0.800276	355.795
0.827099	359.838
0.848555	363.881
0.87001	367.925
0.900412	371.968
0.920073	377.358
0.941509	386.792
0.961089	415.094
