Adsorption isotherm of Ethene on ZnAcBPDC
DOI: 10.1016/j.micromeso.2014.03.022
Adsorbate Ethene: InChIKey VGGSQFUCUMXWEO-UHFFFAOYSA-N
Temperature: 273 K
Tabular data in the source: 0
pressure (bar)	uptake (mmol/g)
0.00859585	0.251625
0.0342981	0.686498
0.08778	1.35058
0.158332	2.06076
0.248086	2.8171
0.344218	3.50501
0.448879	4.19312
0.55778	4.78989
0.694387	5.34159
0.89286	6.00898
