Adsorption isotherm of Methane on ZnBuBPDC
DOI: 10.1016/j.micromeso.2014.03.022
Adsorbate Methane: InChIKey VNWKTOKETHGBQD-UHFFFAOYSA-N
Temperature: 273 K
Tabular data in the source: 0
pressure (bar)	uptake (mmol/g)
0.0294118	0.0682684
0.0651261	0.114144
0.134454	0.160776
0.222689	0.275441
0.315126	0.367665
0.409664	0.459936
0.506303	0.597325
0.607143	0.712274
0.731092	0.872813
0.901261	1.102
