Adsorption isotherm of Propene on ZnBuBPDC
DOI: 10.1016/j.micromeso.2014.03.022
Adsorbate Propene: InChIKey QQONPFPTGQHPMA-UHFFFAOYSA-N
Temperature: 313 K
Tabular data in the source: 0
pressure (bar)	uptake (mmol/g)
0.0141593	0.210063
0.0336283	0.591757
0.0831858	1.22222
0.161062	1.89185
0.270796	2.35317
0.387611	2.66239
0.504425	2.89541
0.60885	3.05177
0.734513	3.20893
0.899115	3.42473
