Adsorption isotherm of Propene on ZnAcBPDC
DOI: 10.1016/j.micromeso.2014.03.022
Adsorbate Propene: InChIKey QQONPFPTGQHPMA-UHFFFAOYSA-N
Temperature: 273 K
Tabular data in the source: 0
pressure (bar)	uptake (mmol/g)
0.00436798	0.388671
0.00670123	1.14301
0.0134877	2.60602
0.0438443	4.50386
0.169968	5.71817
0.336408	6.20198
0.477207	6.47948
0.594533	6.68788
0.739584	6.91976
0.901693	7.15204
