Adsorption isotherm of Ethane on ZnAcBPDC
DOI: 10.1016/j.micromeso.2014.03.022
Adsorbate Ethane: InChIKey OTMSDBZUPAUEDD-UHFFFAOYSA-N
Temperature: 313 K
Tabular data in the source: 0
pressure (bar)	uptake (mmol/g)
0.0294278	0.0609137
0.14708	0.0812183
0.241618	0.0812183
0.331975	0.162437
0.430731	0.22335
0.529486	0.284264
0.628253	0.385787
0.75643	0.48731
0.905627	0.629442
