Adsorption isotherm of Methane on ZnAcBPDC
DOI: 10.1016/j.micromeso.2014.03.022
Adsorbate Methane: InChIKey VNWKTOKETHGBQD-UHFFFAOYSA-N
Temperature: 293 K
Tabular data in the source: 0
pressure (bar)	uptake (mmol/g)
0.0315985	0.0869565
0.0724907	0.130435
0.14684	0.130435
0.234201	0.195652
0.325279	0.26087
0.429368	0.282609
0.52974	0.413043
0.626394	0.5
0.743494	0.630435
0.895911	0.804348
