Adsorption isotherm of Ethene on ZnBuBPDC
DOI: 10.1016/j.micromeso.2014.03.022
Adsorbate Ethene: InChIKey VGGSQFUCUMXWEO-UHFFFAOYSA-N
Temperature: 313 K
Tabular data in the source: 0
pressure (bar)	uptake (mmol/g)
0.0212389	0.0769996
0.0584071	0.173654
0.130973	0.347847
0.212389	0.560472
0.306195	0.773569
0.40177	0.967686
0.504425	1.16207
0.6	1.33714
0.723894	1.58948
0.899115	1.90092
