Adsorption isotherm of Ethane on ZnAcBPDC
DOI: 10.1016/j.micromeso.2014.03.022
Adsorbate Ethane: InChIKey OTMSDBZUPAUEDD-UHFFFAOYSA-N
Temperature: 293 K
Tabular data in the source: 0
pressure (bar)	uptake (mmol/g)
0.0743494	0.0652174
0.152416	0.130435
0.239777	0.217391
0.336431	0.282609
0.431227	0.369565
0.527881	0.456522
0.622677	0.630435
0.752788	0.717391
0.908922	0.913043
