Adsorption isotherm of Carbon Dioxide on ZnBuBPDC
DOI: 10.1016/j.micromeso.2014.03.022
Adsorbate Carbon Dioxide: InChIKey CURLTUGMZLYLDI-UHFFFAOYSA-N
Temperature: 293 K
Tabular data in the source: 0
pressure (bar)	uptake (mmol/g)
0.0252951	0.0729786
0.0607083	0.160479
0.133221	0.291444
0.22597	0.466123
0.315346	0.640851
0.406408	0.815554
0.505902	1.0048
0.600337	1.2088
0.716695	1.44181
0.876897	1.7622
