Adsorption isotherm of Carbon Dioxide on ZnAcBPDC
DOI: 10.1016/j.micromeso.2014.03.022
Adsorbate Carbon Dioxide: InChIKey CURLTUGMZLYLDI-UHFFFAOYSA-N
Temperature: 273 K
Tabular data in the source: 0
pressure (bar)	uptake (mmol/g)
0.0169492	0.238925
0.0444915	0.495077
0.110169	0.956423
0.194915	1.4181
0.283898	1.89688
0.377119	2.37575
0.478814	2.85475
0.576271	3.35073
0.697034	3.89824
0.877119	4.65131
