Adsorption isotherm of Methane on ZnAcBPDC
DOI: 10.1016/j.micromeso.2014.03.022
Adsorbate Methane: InChIKey VNWKTOKETHGBQD-UHFFFAOYSA-N
Temperature: 273 K
Tabular data in the source: 0
pressure (bar)	uptake (mmol/g)
0.0748614	0.0668524
0.2329	0.200557
0.326484	0.311978
0.422147	0.423398
0.521974	0.557103
0.623874	0.668524
0.750751	0.891365
0.90048	1.04735
