Adsorption isotherm of Ethane on ZnBuBPDC
DOI: 10.1016/j.micromeso.2014.03.022
Adsorbate Ethane: InChIKey OTMSDBZUPAUEDD-UHFFFAOYSA-N
Temperature: 293 K
Tabular data in the source: 0
pressure (bar)	uptake (mmol/g)
0.0205585	0.154964
0.0560379	0.290557
0.121377	0.464891
0.205382	0.677966
0.30059	0.929782
0.399511	1.10412
0.500298	1.27845
0.599215	1.43341
0.727987	1.60775
0.881022	1.82082
