Adsorption isotherm of 1-butene on ZnBuBPDC
DOI: 10.1016/j.micromeso.2014.03.022
Adsorbate 1-butene: InChIKey VXNZUUAINFGPBY-UHFFFAOYSA-N
Temperature: 313 K
Tabular data in the source: 0
pressure (bar)	uptake (mmol/g)
0.00353982	0.400135
0.0123894	1.02904
0.0672566	1.86923
0.175221	2.19715
0.288496	2.39194
0.40177	2.52959
0.502655	2.64772
0.60708	2.78503
0.738053	2.92335
0.902655	3.1201
