Adsorption isotherm of 1-butene on ZnAcBPDC
DOI: 10.1016/j.micromeso.2014.03.022
Adsorbate 1-butene: InChIKey VXNZUUAINFGPBY-UHFFFAOYSA-N
Temperature: 293 K
Tabular data in the source: 0
pressure (bar)	uptake (mmol/g)
0.00345423	0.4325
0.00518135	1.21878
0.0103627	2.73239
0.0604491	4.44345
0.221071	5.01663
0.379965	5.27528
0.499136	5.45453
0.61658	5.61409
0.747841	5.81323
0.920553	6.01318
