Adsorption isotherm of N-Butane on ZnAcBPDC
DOI: 10.1016/j.micromeso.2014.03.022
Adsorbate N-Butane: InChIKey IJDNQMDRQITEOD-UHFFFAOYSA-N
Temperature: 313 K
Tabular data in the source: 0
pressure (bar)	uptake (mmol/g)
0.00640916	0.406091
0.00888858	1.84772
0.0197394	3.16751
0.0873235	4.52792
0.240823	5.05584
0.381654	5.3401
0.501434	5.46193
0.602317	5.62437
0.741021	5.80711
0.896531	5.98985
