Adsorption isotherm of Hydrogen on Co(BDP)
DOI: 10.1021/Ja9092133
Adsorbate Hydrogen: InChIKey UFHFLCQGNIYNRP-UHFFFAOYSA-N
Temperature: 87 K
Tabular data in the source: 0
pressure (bar)	uptake (molecules/site)
0.112066	0.0197336
0.844461	0.0014237
2.14024	0.201424
3.21066	0.0408603
3.267	0.331001
4.95714	0.102832
4.95714	0.516917
6.75995	0.723959
6.81629	0.260579
8.05573	0.811283
8.67545	0.431001
10.4783	0.873255
10.6473	0.569029
12.9571	0.678888
14.2529	0.9141
15.9431	0.778888
18.4783	0.852128
19.1543	0.936635
23.1543	0.915508
26.0276	0.956353
28.1121	0.945086
35.8867	0.957762
