Adsorption isotherm of Hydrogen on Co(BDP)
DOI: 10.1021/Ja9092133
Adsorbate Hydrogen: InChIKey UFHFLCQGNIYNRP-UHFFFAOYSA-N
Temperature: 77 K
Tabular data in the source: 0
pressure (bar)	uptake (molecules/site)
0.28108	0.0112829
0.28108	0.0380434
0.675447	0.250719
1.3515	0.036635
1.3515	0.447903
1.80221	0.0901561
1.80221	0.657762
2.42193	0.281705
2.47826	0.845086
2.81629	0.4141
3.21066	0.907058
3.54869	0.54086
4.45009	0.654945
4.56277	0.933818
5.52052	0.781705
7.37967	0.884522
7.83038	0.957762
9.01347	0.93241
10.1966	0.967621
13.7459	0.961987
