Adsorption isotherm of Hydrogen on Co(BDP)
DOI: 10.1021/Ja9092133
Adsorbate Hydrogen: InChIKey UFHFLCQGNIYNRP-UHFFFAOYSA-N
Temperature: 87 K
Tabular data in the source: 0
pressure (bar)	uptake (wt%)
0.652537	0.106553
1.51062	0.289611
3.22679	0.564198
3.3126	0.209523
6.23009	0.770139
11.4644	0.226685
12.7515	1.02184
16.9562	1.48521
17.2136	0.209523
19.5304	0.163758
20.8176	2.88103
24.7647	3.09841
28.7978	0.266729
29.2268	3.18422
34.3753	0.301052
37.5502	0.569919
41.1542	0.918874
46.2169	1.99434
47.3324	2.44627
50.2499	3.13846
52.8242	3.06981
54.3687	3.16134
54.6261	3.12129
63.0354	3.0126
65.0948	2.86387
