Adsorption isotherm of Hydrogen on Co(BDP)
DOI: 10.1021/Ja9092133
Adsorbate Hydrogen: InChIKey UFHFLCQGNIYNRP-UHFFFAOYSA-N
Temperature: 65 K
Tabular data in the source: 0
pressure (bar)	uptake (wt%)
0.652537	0.661448
0.738345	0.506993
1.42481	1.13626
2.02547	1.25067
3.48422	0.632845
3.65584	1.37652
4.34231	1.47377
5.62943	1.93142
5.80105	0.787301
6.57333	2.85243
6.91656	3.45309
7.34561	0.958918
7.94627	3.73912
8.80435	1.2049
9.40501	1.91425
10.9496	3.8192
11.3786	3.24715
12.4941	3.49885
14.0387	3.58466
18.5865	3.55034
19.702	3.39588
24.5931	3.22426
25.8803	2.984
