Adsorption isotherm of Hydrogen on Co(BDP)
DOI: 10.1021/Ja9092133
Adsorbate Hydrogen: InChIKey UFHFLCQGNIYNRP-UHFFFAOYSA-N
Temperature: 77 K
Tabular data in the source: 0
pressure (bar)	uptake (wt%)
0.738345	0.060788
0.995771	0.346817
1.08158	0.306773
3.82745	0.323934
6.3159	0.701492
9.23339	0.947477
11.5502	1.91425
12.9232	0.358258
13.6954	2.70941
16.3555	2.89247
16.9562	0.369699
18.7581	3.00688
20.6459	0.541316
21.6756	0.644286
21.6756	3.04121
22.7053	0.913153
24.2499	3.05837
24.8506	1.89709
25.7086	2.3719
27.4248	3.09841
28.1113	2.83527
29.141	2.984
30.8572	3.08125
39.438	3.10985
42.9562	3.0126
