Adsorption isotherm of Hydrogen on Co(BDP)
DOI: 10.1021/Ja9092133
Adsorbate Hydrogen: InChIKey UFHFLCQGNIYNRP-UHFFFAOYSA-N
Temperature: 65 K
Tabular data in the source: 0
pressure (bar)	uptake (molecules/site)
0.28108	0.0831138
0.337418	0.281705
0.393756	0.423959
0.450094	0.583114
0.450094	0.908466
0.506432	0.69579
0.506432	0.783114
0.675447	0.449311
0.844461	0.956353
1.01347	0.580297
1.29516	0.67748
1.63319	0.811283
2.02756	0.976072
2.19657	0.915508
2.98531	0.957762
3.83038	0.97748
