Adsorption isotherm of Nitrogen on Al-PCP-FA
DOI: 10.1021/Cm102921y
Adsorbate Nitrogen: InChIKey IJGRMHOSHXDMSA-UHFFFAOYSA-N
Temperature: 77 K
Tabular data in the source: 0
pressure (bar)	uptake (cm3(STP)/g)
0.0455126	140.704
0.0560156	142.714
0.0770214	146.734
0.105029	152.764
0.134787	154.774
0.159294	158.794
0.208308	164.824
0.257322	170.854
0.304585	176.884
0.355349	178.894
0.402612	184.925
0.441123	186.935
0.479633	192.965
0.498889	192.965
0.518144	192.965
0.558405	196.985
0.596916	201.005
0.640678	205.025
0.714198	217.085
0.736955	219.095
0.761462	221.106
0.784218	227.136
0.810475	231.156
0.834982	237.186
0.868241	253.266
0.894499	271.357
0.924257	295.477
