Adsorption isotherm of Nitrogen on Al-PCP-FA
DOI: 10.1021/Cm102921y
Adsorbate Nitrogen: InChIKey IJGRMHOSHXDMSA-UHFFFAOYSA-N
Temperature: 77 K
Tabular data in the source: 0
pressure (bar)	uptake (cm3(STP)/g)
0.0122534	36.1809
0.0402612	46.2312
0.0595165	46.2312
0.0770214	52.2613
0.110281	54.2714
0.133037	56.2814
0.204807	62.3116
0.229314	64.3216
0.255571	64.3216
0.280078	66.3317
0.329091	70.3518
0.353598	72.3618
0.381606	74.3719
0.420117	76.3819
0.439372	78.392
0.497138	80.402
0.518144	82.4121
0.533898	82.4121
0.57416	86.4322
0.593415	86.4322
0.616171	86.4322
0.640678	88.4422
0.665185	90.4523
0.686191	92.4623
0.712448	96.4824
0.735204	98.4925
0.757961	98.4925
0.782467	104.523
0.813976	116.583
0.833232	120.603
0.868241	130.653
0.898	140.704
0.920756	154.774
