Adsorption isotherm of Nitrogen on Al-PCP-FA
DOI: 10.1021/Cm102921y
Adsorbate Nitrogen: InChIKey IJGRMHOSHXDMSA-UHFFFAOYSA-N
Temperature: 77 K
Tabular data in the source: 0
pressure (bar)	uptake (cm3(STP)/g)
0.00700195	0.00700195
0.0105029	180.905
0.0210058	209.045
0.0367602	217.085
0.0560156	225.126
0.0752709	233.166
0.0945263	235.176
0.113782	241.206
0.136538	245.226
0.159294	251.256
0.183801	257.286
0.208308	259.296
0.231064	265.327
0.257322	269.347
0.281828	275.377
0.304585	277.387
0.329091	281.407
0.351848	285.427
0.383357	291.457
0.400861	295.477
0.421867	297.487
0.439372	303.518
0.458627	305.528
0.479633	307.538
0.498889	311.558
0.516394	315.578
0.537399	317.588
0.554904	323.618
0.572409	327.638
0.593415	331.658
0.616171	333.668
0.638928	339.698
0.665185	345.729
0.687941	351.759
0.710698	359.799
0.735204	365.829
0.757961	375.879
0.778966	383.92
0.806974	395.98
0.840234	420.101
0.866491	440.201
0.894499	482.412
