Adsorption isotherm of Nitrogen on Al-PCP-FA
DOI: 10.1021/Cm102921y
Adsorbate Nitrogen: InChIKey IJGRMHOSHXDMSA-UHFFFAOYSA-N
Temperature: 77 K
Tabular data in the source: 0
pressure (bar)	uptake (cm3(STP)/g)
0.0262573	64.3216
0.0367602	68.3417
0.0560156	70.3518
0.0752709	74.3719
0.105029	80.402
0.136538	84.4221
0.161045	86.4322
0.185552	90.4523
0.208308	90.4523
0.232815	92.4623
0.259072	94.4724
0.281828	96.4824
0.306335	98.4925
0.329091	100.503
0.355349	102.513
0.498889	118.593
0.516394	122.613
0.530397	126.633
0.621423	134.673
0.640678	138.693
0.665185	144.724
0.689692	146.734
0.714198	148.744
0.738705	154.774
0.761462	156.784
0.785968	160.804
0.812226	164.824
0.841984	172.864
0.868241	182.915
0.894499	192.965
0.922506	215.075
0.955766	241.206
