Adsorption isotherm of Methanol on [Zn2(bdc-NO2)2(dabco)]n
DOI: 10.1021/Ic101517t
Adsorbate Methanol: InChIKey OKKJLVBELUTLKV-UHFFFAOYSA-N
Temperature: 318 K
Tabular data in the source: 0
pressure (bar)	uptake (molecules/Zn2)
0.0151515	0
0.0212121	0.235294
0.0272727	0.392157
0.0287879	0.705882
0.0333333	0.862745
0.0348485	1.17647
0.0378788	1.64706
0.0409091	2.03922
0.0424242	2.58824
0.0454545	3.13725
0.05	3.52941
0.0530303	4.07843
0.0590909	4.39216
0.0651515	4.62745
0.0757576	4.86275
0.0848485	5.01961
0.0939394	5.17647
0.104545	5.2549
0.113636	5.41176
0.124242	5.4902
0.136364	5.4902
0.143939	5.56863
0.154545	5.72549
0.166667	5.80392
0.175758	5.88235
0.184848	6.11765
0.193939	6.35294
0.20303	6.5098
0.210606	6.7451
0.215152	6.82353
0.222727	6.82353
0.228788	6.98039
0.239394	7.13725
0.25	7.13725
0.257576	7.21569
0.265152	7.21569
0.274242	7.29412
0.283333	7.37255
0.290909	7.37255
0.298485	7.37255
0.306061	7.37255
0.313636	7.45098
0.322727	7.45098
0.331818	7.45098
0.340909	7.52941
0.35	7.60784
0.357576	7.60784
0.363636	7.60784
0.374242	7.68627
0.383333	7.68627
0.393939	7.68627
0.40303	7.68627
