Adsorption isotherm of Nitrogen on [Zn2(bdc-Cl2)2(dabco)]n
DOI: 10.1021/Ic101517t
Adsorbate Nitrogen: InChIKey IJGRMHOSHXDMSA-UHFFFAOYSA-N
Temperature: 77 K
Tabular data in the source: 0
pressure (bar)	uptake (cm3(STP)/g)
0.00313332	321.101
0.00318272	310.398
0.0192516	328.746
0.0446287	330.275
0.0676981	331.804
0.0884669	331.804
0.100005	331.804
0.12076	334.862
0.146144	334.862
0.171528	334.862
0.194598	336.391
0.222282	337.92
0.245359	337.92
0.270743	337.92
0.293819	337.92
0.319196	339.45
0.342266	340.979
0.36765	340.979
0.39302	344.037
0.416104	342.508
0.441481	344.037
0.464557	344.037
0.487627	345.566
0.513011	345.566
0.53608	347.095
0.559143	350.153
0.584534	348.624
0.609911	350.153
0.635288	351.682
0.653756	350.153
0.681427	354.74
0.709118	354.74
0.732188	356.269
0.752957	356.269
0.778334	357.798
0.803711	359.327
0.829095	359.327
0.852157	362.385
0.877542	362.385
