Adsorption isotherm of Nitrogen on [Zn2(bdc-NO2)2(dabco)]n
DOI: 10.1021/Ic101517t
Adsorbate Nitrogen: InChIKey IJGRMHOSHXDMSA-UHFFFAOYSA-N
Temperature: 77 K
Tabular data in the source: 0
pressure (bar)	uptake (cm3(STP)/g)
0.000529277	385.321
0.000557505	379.205
0.00277341	399.083
0.00965402	408.257
0.0188564	414.373
0.0303735	418.96
0.0488135	423.547
0.0741764	428.135
0.0949382	429.664
0.122616	432.722
0.147986	435.78
0.171062	435.78
0.196439	437.309
0.219509	438.838
0.247194	440.367
0.267955	441.896
0.297955	441.896
0.316416	441.896
0.341793	443.425
0.367177	443.425
0.390247	444.954
0.413316	446.483
0.441001	448.012
0.464077	448.012
0.489461	448.012
0.512531	449.541
0.540223	449.541
0.558677	451.07
0.584054	452.599
0.602515	452.599
0.632507	454.128
0.657892	454.128
0.685583	454.128
0.704037	455.657
0.731736	454.128
0.777868	458.716
0.80093	461.774
0.826308	463.303
0.847062	466.361
0.877048	469.419
