Adsorption isotherm of Nitrogen on [Zn2(bdc-Br)2(dabco)]n
DOI: 10.1021/Ic101517t
Adsorbate Nitrogen: InChIKey IJGRMHOSHXDMSA-UHFFFAOYSA-N
Temperature: 77 K
Tabular data in the source: 0
pressure (bar)	uptake (cm3(STP)/g)
0.000846843	316.514
0.00539157	331.804
0.0191951	340.979
0.0399287	348.624
0.0606904	350.153
0.0791375	353.211
0.0999064	353.211
0.122969	356.269
0.148353	356.269
0.169108	359.327
0.196792	360.856
0.222169	362.385
0.245246	362.385
0.268315	363.914
0.296007	363.914
0.316769	365.443
0.342153	365.443
0.362915	366.972
0.390599	368.502
0.418291	368.502
0.439053	370.031
0.462137	368.502
0.485213	368.502
0.512891	371.56
0.538275	371.56
0.561344	373.089
0.584421	373.089
0.612106	374.618
0.630574	373.089
0.655951	374.618
0.683636	376.147
0.704404	376.147
0.729789	376.147
0.759774	379.205
0.780543	379.205
0.803626	377.676
0.829003	379.205
0.852073	380.734
0.877457	380.734
