Adsorption isotherm of Acetone on [Zn2(bdc-NO2)2(dabco)]n
DOI: 10.1021/Ic101517t
Adsorbate Acetone: InChIKey CSCPPACGZOOCGX-UHFFFAOYSA-N
Temperature: 298 K
Tabular data in the source: 0
pressure (bar)	uptake (molecules/Zn2)
0.0181963	3.78947
0.0222545	3.88664
0.0319803	3.98381
0.0449351	3.98381
0.0578996	4.08097
0.0700479	4.11336
0.0805769	4.14575
0.0886736	4.14575
0.0975866	4.21053
0.108116	4.24291
0.114593	4.24291
0.124306	4.21053
0.134835	4.24291
0.142938	4.30769
0.155083	4.30769
0.163989	4.30769
0.172892	4.2753
0.18666	4.30769
0.19476	4.34008
0.202857	4.34008
0.211766	4.37247
0.217437	4.40486
0.224721	4.37247
