Adsorption isotherm of Ethanol on [Zn2(bdc)2(dabco)]n
DOI: 10.1021/Ic101517t
Adsorbate Ethanol: InChIKey LFQSCWFLJHTTHZ-UHFFFAOYSA-N
Temperature: 328 K
Tabular data in the source: 0
pressure (bar)	uptake (molecules/Zn2)
0.00178787	0.122084
0.00715146	0.367124
0.0125151	0.793983
0.013409	1.15806
0.0143029	1.58273
0.0151969	2.00741
0.0169847	2.49313
0.0187726	2.85764
0.0214544	3.22259
0.0250301	3.58797
0.0286059	3.77153
0.0339694	3.89536
0.0411209	4.08066
0.0500602	4.14563
0.053636	4.3898
0.0607874	4.69632
0.0679389	4.88162
0.0741964	4.94528
0.0813479	5.13059
0.0938629	5.13669
0.108166	5.26488
0.121575	5.39263
0.131408	5.39743
0.149287	5.46675
0.164484	5.53477
0.176105	5.66165
0.190408	5.72923
0.202029	5.6743
0.217226	5.74232
0.230635	5.87007
0.244938	5.93765
0.255665	6.00349
0.269074	6.01003
0.277119	6.07456
0.284271	6.07805
0.295892	6.14432
0.303937	6.14825
0.31824	6.21583
0.326285	6.28036
0.331649	6.34358
0.338801	6.34707
0.34327	6.34925
0.348634	6.41247
0.353997	6.41509
0.359361	6.3571
0.365619	6.36015
0.370982	6.36276
0.37277	6.36364
