Adsorption isotherm of Ethanol on [Zn2(bdc-Br)2(dabco)]n
DOI: 10.1021/Ic101517t
Adsorbate Ethanol: InChIKey LFQSCWFLJHTTHZ-UHFFFAOYSA-N
Temperature: 308 K
Tabular data in the source: 0
pressure (bar)	uptake (molecules/Zn2)
0.000884886	0.516129
0.00221221	0.677419
0.00265466	0.903226
0.0030971	1.22581
0.00353954	1.45161
0.00398199	1.90323
0.00442443	2.19355
0.00486687	2.64516
0.00530932	3.19355
0.00663664	3.32258
0.00707909	3.70968
0.0137157	4.41935
0.0150431	4.45161
0.0176977	4.6129
0.0194675	4.70968
0.0221221	4.77419
0.0243344	4.83871
0.0292012	4.93548
0.0322983	4.96774
0.0345106	5.03226
0.0371652	5.06452
0.0398199	5.06452
0.0433594	5.12903
0.0464565	5.12903
0.0491112	5.19355
0.0530932	5.19355
0.0557478	5.22581
0.0592874	5.25806
0.061942	5.25806
0.0654816	5.29032
0.0690211	5.29032
0.0725607	5.32258
0.0761002	5.35484
0.0796397	5.3871
0.0827368	5.3871
0.0862764	5.3871
0.0898159	5.41935
0.0920281	5.41935
0.0960101	5.45161
0.0995497	5.48387
0.103532	5.48387
0.106629	5.51613
0.109283	5.51613
0.113265	5.54839
0.116363	5.58065
0.119902	5.58065
0.123884	5.6129
