Adsorption isotherm of Ethanol on [Zn2(bdc)2(dabco)]n
DOI: 10.1021/Ic101517t
Adsorbate Ethanol: InChIKey LFQSCWFLJHTTHZ-UHFFFAOYSA-N
Temperature: 308 K
Tabular data in the source: 0
pressure (bar)	uptake (molecules/Zn2)
0.00159236	0.949682
0.00318471	1.49936
0.0037155	1.89926
0.00530786	2.39894
0.00636943	2.84873
0.00849257	3.2983
0.0100849	3.79798
0.0127389	4.24745
0.0153928	4.64692
0.0185775	5.09628
0.022293	5.49554
0.0281316	5.94437
0.0334395	6.19331
0.0387473	6.49225
0.0435244	6.6413
0.0488323	6.79023
0.0567941	6.98864
0.0631635	7.18737
0.0695329	7.28609
0.0822718	7.48355
0.0934183	7.53132
0.105096	7.72898
0.118365	7.72633
0.12845	7.77431
0.143312	7.87134
0.152866	7.86943
0.161359	7.96773
0.170382	7.96592
0.179406	8.01412
0.185775	8.01285
0.192675	8.06146
0.202229	8.05955
0.211783	8.05764
0.217622	8.05648
0.226645	8.10467
0.231423	8.10372
0.237792	8.10244
0.2431	8.10138
0.248408	8.10032
0.253185	8.14936
0.258493	8.1483
