Adsorption isotherm of Methanol on [Zn2(bdc-Br)2(dabco)]n
DOI: 10.1021/Ic101517t
Adsorbate Methanol: InChIKey OKKJLVBELUTLKV-UHFFFAOYSA-N
Temperature: 298 K
Tabular data in the source: 0
pressure (bar)	uptake (molecules/Zn2)
0.00222311	0.193548
0.00500088	0.419355
0.0061258	0.709677
0.00669383	0.935484
0.00726409	1.19355
0.00728191	1.45161
0.00840906	1.77419
0.00899491	2.25806
0.0101198	2.54839
0.0101488	2.96774
0.0107213	3.25806
0.0107502	3.67742
0.0124365	4.09677
0.013557	4.32258
0.014125	4.54839
0.0146863	4.67742
0.0152588	4.96774
0.0169273	5.12903
0.0174864	5.22581
0.0197117	5.45161
0.0219326	5.6129
0.0241535	5.77419
0.0263721	5.90323
0.0285886	6
0.0319099	6.09677
0.0352312	6.19355
0.040212	6.32258
0.0451928	6.45161
0.0507239	6.54839
0.0562571	6.67742
0.0612358	6.77419
0.0667668	6.87097
0.0723001	7
0.0778311	7.09677
0.0828119	7.22581
0.0888932	7.29032
0.0944242	7.3871
0.100508	7.48387
0.106037	7.54839
0.111568	7.64516
0.118754	7.70968
0.125387	7.77419
0.132021	7.83871
0.138102	7.90323
0.143631	7.96774
0.150263	8
0.156899	8.09677
