Adsorption isotherm of 1-Propanol on [Zn2(bdc)2(dabco)]n
DOI: 10.1021/Ic101517t
Adsorbate 1-Propanol: InChIKey BDERNNFJNOPAEC-UHFFFAOYSA-N
Temperature: 308 K
Tabular data in the source: 0
pressure (bar)	uptake (molecules/Zn2)
4.58e-05	0.634497
0.000712217	1.87608
0.00132098	2.31765
0.00249873	2.64904
0.00452994	2.81518
0.00742059	2.89883
0.00943986	2.89945
0.0120381	2.92783
0.0149247	2.9563
0.0172345	2.98459
0.0198327	3.01298
0.0215615	2.98592
0.0250231	2.98698
0.0279078	2.98786
0.0307944	3.01634
0.0336791	3.01722
0.0365638	3.0181
0.0394485	3.01899
0.0423332	3.01987
0.0452178	3.02076
0.0481025	3.02164
0.0509872	3.02252
0.0538719	3.02341
0.0567566	3.02429
0.0596412	3.02518
0.0625259	3.02606
0.0654106	3.02695
0.0682953	3.02783
0.07118	3.02871
0.0740646	3.0296
0.0769493	3.03048
0.079834	3.03137
0.0827187	3.03225
0.0856034	3.03314
0.088488	3.03402
