Adsorption isotherm of Ethanol on [Zn2(bdc)2(dabco)]n
DOI: 10.1021/Ic101517t
Adsorbate Ethanol: InChIKey LFQSCWFLJHTTHZ-UHFFFAOYSA-N
Temperature: 308 K
Tabular data in the source: 0
pressure (bar)	uptake (molecules/Zn2)
0.00212314	0.449575
0.00424628	0.899151
0.00636943	1.34873
0.00902335	1.7982
0.0122081	2.19756
0.0185775	2.99628
0.022293	3.29554
0.0260085	3.6448
0.0302548	3.94395
0.0345011	4.1931
0.0392781	4.44214
0.0440552	4.64119
0.0541401	5.03917
0.0636943	5.33726
0.0732484	5.58535
0.0859873	5.8328
0.102442	6.02951
0.116242	6.22675
0.127389	6.32452
0.133227	6.37335
0.138004	6.4224
0.143312	6.47134
0.14862	6.52028
0.153928	6.51921
0.158705	6.56826
0.164013	6.6172
0.169321	6.61614
0.174628	6.66507
0.179936	6.71401
0.185244	6.71295
0.190021	6.762
0.195329	6.76093
0.197452	6.81051
0.20276	6.80945
0.208068	6.80839
0.213376	6.85732
0.218684	6.85626
0.223992	6.8552
0.228238	6.85435
0.233546	6.90329
0.238323	6.90234
0.243631	6.95127
0.248938	6.95021
0.254246	6.94915
0.259023	6.9982
