Adsorption isotherm of 1-Propanol on [Zn2(bdc)2(dabco)]n
DOI: 10.1021/Ic101517t
Adsorbate 1-Propanol: InChIKey BDERNNFJNOPAEC-UHFFFAOYSA-N
Temperature: 308 K
Tabular data in the source: 0
pressure (bar)	uptake (molecules/Zn2)
0.000312341	0.33113
0.000618714	0.5795
0.000927076	0.855457
0.00211477	1.32479
0.0027116	1.60083
0.00359491	1.84938
0.00418975	2.09784
0.00536152	2.34647
0.00624682	2.6226
0.00944981	3.03738
0.011485	3.25869
0.0135162	3.42483
0.0158339	3.56347
0.0184401	3.7022
0.0210442	3.81335
0.0239349	3.89699
0.0253812	3.95261
0.0288468	4.00884
0.0311605	4.09231
0.0354915	4.14881
0.0380897	4.17719
0.0406879	4.20557
0.0429976	4.23387
0.0458863	4.28993
0.048194	4.29063
0.0505018	4.29134
0.053102	4.34731
0.0556982	4.34811
0.0585848	4.37658
0.0611811	4.37737
0.0640657	4.37826
0.0666639	4.40664
0.0695506	4.43511
0.0721468	4.43591
0.0750315	4.43679
0.0776277	4.43759
0.0805144	4.46606
0.0810913	4.46623
0.0831106	4.46685
0.0859953	4.46774
0.0859973	4.49532
0.0888819	4.49621
0.0900358	4.49656
