Adsorption isotherm of Ethanol on [Zn2(bdc)2(dabco)]n
DOI: 10.1021/Ic101517t
Adsorbate Ethanol: InChIKey LFQSCWFLJHTTHZ-UHFFFAOYSA-N
Temperature: 308 K
Tabular data in the source: 0
pressure (bar)	uptake (molecules/Zn2)
0.00213428	0.0995731
0.00640284	0.298719
0.0101295	0.347974
0.0144014	0.59712
0.0186733	0.846265
0.0224133	1.09552
0.027237	1.64455
0.0293846	1.94412
0.032084	2.54358
0.035834	2.94283
0.0379849	3.2924
0.0417381	3.74165
0.0438857	4.04122
0.0465685	4.39069
0.0503185	4.78994
0.0561894	5.08876
0.0593942	5.28812
0.064188	5.38716
0.0711161	5.58578
0.0775089	5.7345
0.0828313	5.78343
0.0897528	5.88205
0.0972028	5.93056
0.10466	6.07907
0.112113	6.17758
0.122754	6.22545
0.127016	6.3246
0.132871	6.37343
0.138206	6.62236
0.140869	6.67183
0.145666	6.82087
0.148868	6.97023
0.151534	7.06969
0.154735	7.21905
0.160061	7.31799
0.169649	7.51607
0.176567	7.56469
0.185084	7.66298
0.192537	7.76149
0.199991	7.86
0.204246	7.85915
0.21649	8.0067
0.225532	8.00489
0.232447	8.00351
0.237769	8.05245
0.242028	8.10159
0.246283	8.10074
0.250542	8.14989
0.255332	8.19893
