Adsorption isotherm of Ethanol on [Zn2(bdc)2(dabco)]n
DOI: 10.1021/Ic101517t
Adsorbate Ethanol: InChIKey LFQSCWFLJHTTHZ-UHFFFAOYSA-N
Temperature: 308 K
Tabular data in the source: 0
pressure (bar)	uptake (molecules/Zn2)
0.00169102	0.424242
0.00409032	2
0.00421427	1.15152
0.00486057	2.72727
0.00503764	1.51515
0.00828688	3.27273
0.0108721	3.57576
0.0161134	3.69697
0.0204782	3.81818
0.0230545	4.18182
0.0247544	4.54545
0.0282161	4.84848
0.0334397	5.09091
0.0421958	5.15152
0.0509431	5.27273
0.0561932	5.33333
0.062311	5.45455
0.0693141	5.51515
0.0798143	5.63636
0.0850733	5.63636
0.0946971	5.75758
0.102568	5.87879
0.112209	5.87879
0.119204	6
0.126207	6.06061
0.13058	6.12121
0.135839	6.12121
