Adsorption isotherm of Methanol on [Zn2(bdc-NO2)2(dabco)]n
DOI: 10.1021/Ic101517t
Adsorbate Methanol: InChIKey OKKJLVBELUTLKV-UHFFFAOYSA-N
Temperature: 328 K
Tabular data in the source: 0
pressure (bar)	uptake (molecules/Zn2)
0.0105709	0.306531
0.0196379	0.536304
0.0302088	0.842834
0.0362243	1.14987
0.0436852	1.84135
0.0466053	2.45642
0.0526062	2.84037
0.0570302	3.53219
0.0629727	4.22385
0.0704482	4.83841
0.074916	5.29946
0.0809753	5.37572
0.0854869	5.60599
0.0975909	5.83543
0.108176	6.06504
0.123332	6.21722
0.138487	6.3694
0.150621	6.44499
0.162739	6.5975
0.177909	6.67276
0.188524	6.74851
0.199153	6.74735
0.217346	6.89919
0.231012	6.89769
0.24316	6.89636
0.255278	7.04887
0.26287	7.04804
0.279574	7.0462
0.287137	7.19922
0.303811	7.35123
0.320499	7.42632
0.335669	7.50157
0.352358	7.57666
0.369032	7.72868
0.385721	7.80377
0.39635	7.8026
0.413038	7.87769
0.428208	7.95294
0.438852	7.87485
0.452489	8.0272
0.4616	8.0262
0.46766	8.10245
0.481326	8.10095
0.499547	8.09895
0.517769	8.09695
0.52688	8.09595
0.54205	8.1712
0.555716	8.1697
0.567849	8.24529
0.575442	8.24446
0.586056	8.32021
0.593649	8.31938
0.598233	8.16503
0.614907	8.31704
0.624018	8.31604
