Adsorption isotherm of Acetone on [Zn2(bdc)2(dabco)]n
DOI: 10.1021/Ic101517t
Adsorbate Acetone: InChIKey CSCPPACGZOOCGX-UHFFFAOYSA-N
Temperature: 298 K
Tabular data in the source: 0
pressure (bar)	uptake (molecules/Zn2)
2.93e-05	0.291498
0.00331195	0.939271
0.0041489	1.26316
0.022959	4.34008
0.0334289	4.46964
0.0390661	4.53441
0.0447032	4.59919
0.0503371	4.63158
0.0559743	4.69636
0.069652	4.72874
0.0825253	4.76113
0.0881592	4.79352
0.0945975	4.82591
0.102641	4.82591
0.113906	4.8583
0.122754	4.8583
0.129192	4.89069
0.137236	4.89069
0.143671	4.89069
0.150914	4.92308
0.156544	4.92308
0.164588	4.92308
0.17102	4.89069
0.178266	4.95547
0.184701	4.95547
0.193552	4.98785
0.199183	4.98785
0.206426	5.02024
0.212861	5.02024
0.220103	5.05263
0.226535	5.02024
