Adsorption isotherm of 1-Propanol on [Zn2(bdc-NO2)2(dabco)]n
DOI: 10.1021/Ic101517t
Adsorbate 1-Propanol: InChIKey BDERNNFJNOPAEC-UHFFFAOYSA-N
Temperature: 298 K
Tabular data in the source: 0
pressure (bar)	uptake (molecules/Zn2)
0.00116382	0.550607
0.00218457	1.16599
0.00276794	1.52227
0.00320766	1.91093
0.00364446	2.13765
0.00408359	2.49393
0.00452447	2.94737
0.00525208	3.30364
0.00568713	3.4332
0.00641123	3.59514
0.00857595	3.65992
0.0114613	3.69231
0.0143466	3.7247
0.0172325	3.78947
0.0202614	3.78947
0.0230025	3.82186
0.0257436	3.85425
0.0286289	3.88664
0.0315131	3.85425
0.034399	3.91903
0.03714	3.95142
0.040169	3.95142
