Adsorption isotherm of Methanol on [Zn2(bdc)2(dabco)]n
DOI: 10.1021/Ic101517t
Adsorbate Methanol: InChIKey OKKJLVBELUTLKV-UHFFFAOYSA-N
Temperature: 298 K
Tabular data in the source: 0
pressure (bar)	uptake (molecules/Zn2)
0.00384186	0.227459
0.00548836	0.486885
0.00768371	0.811194
0.00878138	1.23246
0.00933022	1.58884
0.00987906	2.33388
0.0104279	2.78743
0.0109767	3.1762
0.0115256	3.59736
0.0126232	4.0834
0.0131721	4.31022
0.0159163	4.7318
0.0175628	4.89406
0.0192093	4.99155
0.0203069	5.08892
0.0236	5.18672
0.026893	5.28452
0.030186	5.38232
0.0340279	5.48023
0.0378697	5.61052
0.0417116	5.67603
0.0499441	5.87195
0.0587255	6.03558
0.0647627	6.23107
0.0702511	6.45885
0.0751906	6.71891
0.0823255	6.88222
0.090558	7.11052
0.0982417	7.27395
0.107023	7.43758
0.116902	7.60142
0.12733	7.73298
0.137758	7.89693
0.148186	8.02849
0.15587	8.22429
