Adsorption isotherm of Ethanol on [Zn2(bdc)2(dabco)]n
DOI: 10.1021/Ic101517t
Adsorbate Ethanol: InChIKey LFQSCWFLJHTTHZ-UHFFFAOYSA-N
Temperature: 318 K
Tabular data in the source: 0
pressure (bar)	uptake (molecules/Zn2)
0.00173344	0.183673
0.00434706	0.367347
0.00601763	0.979592
0.00607152	0.612245
0.00683495	1.40816
0.00766125	1.77551
0.00842468	2.57143
0.00847857	2.20408
0.00925997	2.87755
0.0118467	3.2449
0.0162117	3.4898
0.0205947	3.61224
0.0258579	3.73469
0.0284715	3.91837
0.0328635	3.97959
0.0363303	4.34694
0.0398241	4.53061
0.043318	4.71429
0.0468297	4.77551
0.0538533	4.89796
0.0600057	4.95918
0.0679094	5.08163
0.0793339	5.20408
0.0872557	5.20408
0.0925278	5.26531
0.0986892	5.26531
0.105731	5.26531
0.109242	5.32653
0.117146	5.44898
0.123308	5.44898
0.13034	5.5102
0.135621	5.5102
0.141774	5.57143
0.148806	5.63265
0.154078	5.69388
0.161111	5.7551
0.167272	5.7551
0.174305	5.81633
0.181346	5.81633
0.18925	5.93878
0.198052	5.93878
0.207725	6
0.216527	6
0.221799	6.06122
0.22796	6.06122
