Adsorption isotherm of 1-Propanol on [Zn2(bdc)2(dabco)]n
DOI: 10.1021/Ic101517t
Adsorbate 1-Propanol: InChIKey BDERNNFJNOPAEC-UHFFFAOYSA-N
Temperature: 298 K
Tabular data in the source: 0
pressure (bar)	uptake (molecules/Zn2)
0.000446141	0.744939
0.000593881	0.939271
0.000599721	1.26316
0.00149317	2.81781
0.00380271	2.91498
0.00481295	2.94737
0.00524566	2.94737
0.00640013	2.97976
0.00755461	3.01215
0.00827755	3.10931
0.00871259	3.23887
0.0095786	3.27126
0.0101561	3.30364
0.0105918	3.46559
0.0113164	3.65992
0.0118963	3.82186
0.0127641	3.95142
0.0133439	4.11336
0.0142099	4.14575
0.0147875	4.17814
0.0157983	4.24291
0.0170964	4.24291
0.0182503	4.24291
0.0191163	4.2753
0.0202708	4.30769
0.0215689	4.30769
0.0228676	4.34008
0.0238773	4.34008
0.0253202	4.37247
0.0269068	4.37247
0.0277723	4.37247
0.0292152	4.40486
0.030657	4.37247
0.0320999	4.40486
0.0333981	4.40486
0.0348404	4.40486
0.0362834	4.43725
0.037293	4.43725
0.0385918	4.46964
