Adsorption isotherm of Ethanol on [Zn2(bdc-NO2)2(dabco)]n
DOI: 10.1021/Ic101517t
Adsorbate Ethanol: InChIKey LFQSCWFLJHTTHZ-UHFFFAOYSA-N
Temperature: 298 K
Tabular data in the source: 0
pressure (bar)	uptake (molecules/Zn2)
0.000194974	0.259109
0.00194974	1.26316
0.00292461	1.97571
0.00350953	2.2996
0.00370451	2.59109
0.00428943	2.88259
0.00506933	3.17409
0.00545927	3.40081
0.00662912	3.56275
0.00779896	3.75709
0.00994368	3.75709
0.0115035	3.85425
0.0146231	3.98381
0.0165728	4.04858
0.0177426	4.11336
0.0202773	4.14575
0.0216421	4.21053
0.0239818	4.24291
0.0263215	4.30769
0.0284662	4.34008
0.0306109	4.37247
0.0325607	4.40486
0.0372401	4.46964
0.0399697	4.46964
0.0423094	4.53441
0.045039	4.5668
0.0471837	4.59919
0.0497184	4.59919
0.052643	4.63158
0.0551777	4.66397
