Adsorption isotherm of Acetone on [Zn2(bdc-Br)2(dabco)]n
DOI: 10.1021/Ic101517t
Adsorbate Acetone: InChIKey CSCPPACGZOOCGX-UHFFFAOYSA-N
Temperature: 298 K
Tabular data in the source: 0
pressure (bar)	uptake (molecules/Zn2)
0.00014329	1.4251
0.000836944	0.323887
0.00088905	0.842105
0.000915102	1.10121
0.00841178	3.65992
0.0140555	3.78947
0.0237275	3.98381
0.0301658	4.01619
0.0349888	3.98381
0.0430424	4.08097
0.0510862	4.08097
0.0559124	4.08097
0.0687857	4.11336
0.0808547	4.14575
0.0961444	4.21053
0.103384	4.21053
0.109819	4.21053
0.117866	4.24291
0.125105	4.24291
0.133152	4.2753
0.139587	4.2753
0.146827	4.2753
0.154069	4.30769
0.161309	4.30769
0.174986	4.34008
0.18303	4.34008
0.19027	4.34008
0.197509	4.34008
0.205556	4.37247
0.220041	4.43725
0.226473	4.40486
