Adsorption isotherm of Methanol on [Zn2(bdc-NO2)2(dabco)]n
DOI: 10.1021/Ic101517t
Adsorbate Methanol: InChIKey OKKJLVBELUTLKV-UHFFFAOYSA-N
Temperature: 308 K
Tabular data in the source: 0
pressure (bar)	uptake (molecules/Zn2)
0.00152688	0.153553
0.00604991	0.306529
0.0120854	0.536137
0.0166229	0.766034
0.0196478	0.919298
0.0242285	1.37996
0.027311	1.8409
0.0303936	2.30185
0.0349743	2.7625
0.0380856	3.37729
0.0411682	3.83824
0.0442364	4.22226
0.0488026	4.606
0.0548669	4.98945
0.0594332	5.37319
0.0654399	5.44895
0.071461	5.60164
0.075984	5.75462
0.0850013	5.90673
0.092506	5.98221
0.101523	6.13432
0.109014	6.13288
0.115035	6.28557
0.124038	6.36076
0.134553	6.51259
0.140588	6.74219
0.14962	6.97123
0.155656	7.20084
0.161691	7.43044
0.170708	7.58256
0.176715	7.65832
0.185718	7.73352
0.190227	7.80957
0.196219	7.80842
0.202226	7.88419
0.211214	7.88246
0.217221	7.95823
0.226223	8.03342
0.233728	8.1089
0.242717	8.10717
0.250207	8.10573
0.256199	8.10458
