Adsorption isotherm of Ethanol on [Zn2(bdc)2(dabco)]n
DOI: 10.1021/Ic101517t
Adsorbate Ethanol: InChIKey LFQSCWFLJHTTHZ-UHFFFAOYSA-N
Temperature: 298 K
Tabular data in the source: 0
pressure (bar)	uptake (molecules/Zn2)
0.000581112	0.518219
0.000774816	0.615385
0.00116222	0.809717
0.00154963	1.00405
0.00193704	1.29555
0.00251815	1.97571
0.00290556	2.42915
0.00464889	3.46559
0.00542371	3.62753
0.00639223	3.75709
0.00755445	3.78947
0.00852297	3.95142
0.0098789	3.98381
0.0108474	4.17814
0.0112348	4.34008
0.0114285	4.5668
0.0120096	4.79352
0.0127845	4.98785
0.0129782	5.18219
0.0139467	5.27935
0.0149152	5.37652
0.01569	5.4413
0.0168522	5.50607
0.0182082	5.60324
0.0191767	5.66802
0.0203389	5.7004
0.0220822	5.7004
0.0232445	5.76518
0.0246004	5.79757
0.0263437	5.82996
0.0278934	5.89474
0.0296367	5.92713
0.0311863	5.95951
0.032736	5.9919
0.0340919	6.05668
0.0358352	6.08907
0.0373849	6.12146
0.0391282	6.15385
0.0404841	6.18623
0.0420337	6.21862
0.0435834	6.25101
0.0455204	6.2834
0.04707	6.31579
0.0488134	6.34818
0.0505567	6.38057
0.0523001	6.41296
0.0538497	6.44534
