Adsorption isotherm of Methanol on [Zn2(bdc-NO2)2(dabco)]n
DOI: 10.1021/Ic101517t
Adsorbate Methanol: InChIKey OKKJLVBELUTLKV-UHFFFAOYSA-N
Temperature: 298 K
Tabular data in the source: 0
pressure (bar)	uptake (molecules/Zn2)
0.00165189	0.0650949
0.00330378	0.162578
0.00660757	0.292768
0.00825946	0.487418
0.010462	0.617396
0.0137658	0.715197
0.0170696	0.974941
0.0192721	1.23447
0.0203733	1.46141
0.0225759	1.75333
0.0247784	1.94808
0.0264303	2.27229
0.0280822	2.53171
0.0297341	2.79114
0.031386	3.01818
0.0341391	3.31021
0.0346897	3.6342
0.0368923	4.08806
0.0379935	4.28261
0.0407467	4.54225
0.0418479	4.7044
0.0434998	4.89905
0.046253	5.02913
0.0479049	5.19139
0.0501074	5.32137
0.0550631	5.48427
0.0600187	5.64716
0.0638732	5.71268
0.0677276	5.81059
0.0704807	5.90829
0.0754364	5.97401
0.0792908	6.00714
0.0836959	6.07277
0.0869997	6.17057
0.0919553	6.26869
0.0952591	6.3341
0.0980123	6.46418
0.101867	6.62687
0.10462	6.82173
0.107924	6.98431
0.110126	7.24384
0.115632	7.37445
0.120588	7.56974
0.127196	7.66817
0.133253	7.76651
0.140411	7.83266
0.149221	7.86674
0.15693	7.96539
