Adsorption isotherm of 1-Propanol on [Zn2(bdc)2(dabco)]n
DOI: 10.1021/Ic101517t
Adsorbate 1-Propanol: InChIKey BDERNNFJNOPAEC-UHFFFAOYSA-N
Temperature: 308 K
Tabular data in the source: 0
pressure (bar)	uptake (molecules/Zn2)
7.96e-06	0.110347
0.000332235	0.606998
0.000602798	0.358805
0.000688344	1.54504
0.000923097	0.800283
0.000992728	1.76582
0.00131701	2.26247
0.00133292	2.48317
0.00192577	2.70404
0.00424545	2.87027
0.00943986	2.89945
0.0123285	2.9555
0.0152132	2.95639
0.0175209	2.95709
0.0201191	2.98548
0.0215714	3.12385
0.0224468	3.26205
0.0233221	3.40025
0.0244899	3.59371
0.0250768	3.73182
0.0268156	3.8427
0.0282679	3.98108
0.0300086	4.11954
0.0328973	4.1756
0.0378072	4.25986
0.0406939	4.28834
0.0435805	4.31681
0.0464652	4.31769
0.0496384	4.31866
0.0522366	4.34705
0.0554097	4.34802
0.0585848	4.37658
0.0614715	4.40505
0.0646447	4.40602
0.0672429	4.4344
0.0707045	4.43546
0.0735892	4.43635
0.0767643	4.46491
0.079649	4.46579
0.0828221	4.46677
0.0859973	4.49532
0.0885935	4.49612
