Adsorption isotherm of 1-Propanol on [Zn2(bdc-Cl2)2(dabco)]n
DOI: 10.1021/Ic101517t
Adsorbate 1-Propanol: InChIKey BDERNNFJNOPAEC-UHFFFAOYSA-N
Temperature: 298 K
Tabular data in the source: 0
pressure (bar)	uptake (molecules/Zn2)
0.0010241	0.615385
0.00204878	1.26316
0.00249053	1.68421
0.00278522	1.97571
0.00308049	2.2996
0.00337519	2.59109
0.00410459	2.91498
0.00425516	3.23887
0.00498398	3.53036
0.0078811	3.69231
0.0126577	3.75709
0.0174337	3.78947
0.0204732	3.82186
0.0230779	3.82186
0.0255386	3.85425
0.0281439	3.88664
0.0307487	3.88664
0.0333535	3.88664
0.0361029	3.88664
0.0384189	3.91903
