Adsorption isotherm of Ethanol on [Zn2(bdc)2(dabco)]n
DOI: 10.1021/Ic101517t
Adsorbate Ethanol: InChIKey LFQSCWFLJHTTHZ-UHFFFAOYSA-N
Temperature: 288 K
Tabular data in the source: 0
pressure (bar)	uptake (molecules/Zn2)
0	0.30303
0.00169451	1.03268
0.00254176	1.82175
0.00338902	2.55021
0.00677804	4.07011
0.0093198	4.61913
0.0118616	5.34997
0.0160978	5.59834
0.0194869	5.6637
0.0220286	5.78847
0.0262649	5.91563
0.0313484	6.04397
0.0338902	6.10814
0.0381265	6.23529
0.0423627	6.30184
