Adsorption isotherm of Acetone on [Zn2(bdc-Cl2)2(dabco)]n
DOI: 10.1021/Ic101517t
Adsorbate Acetone: InChIKey CSCPPACGZOOCGX-UHFFFAOYSA-N
Temperature: 298 K
Tabular data in the source: 0
pressure (bar)	uptake (molecules/Zn2)
0.000940974	1.32794
0.000989983	1.81377
0.00104226	2.33198
0.00109127	2.81781
0.0027347	3.10931
0.018911	3.46559
0.0261806	3.53036
0.0390961	3.56275
0.0439382	3.56275
0.0520117	3.59514
0.0576608	3.59514
0.0641169	3.59514
0.0713833	3.62753
0.0770324	3.62753
0.0834885	3.62753
0.0899479	3.65992
0.0972143	3.69231
0.10367	3.69231
0.11013	3.7247
0.1182	3.7247
0.123852	3.75709
0.128694	3.75709
0.136761	3.7247
0.149677	3.75709
0.162592	3.78947
0.176312	3.78947
0.18842	3.82186
0.194876	3.82186
0.20456	3.82186
0.209406	3.85425
0.212637	3.88664
0.220711	3.91903
0.226363	3.95142
