Adsorption isotherm of 1-Propanol on [Zn2(bdc-Br)2(dabco)]n
DOI: 10.1021/Ic101517t
Adsorbate 1-Propanol: InChIKey BDERNNFJNOPAEC-UHFFFAOYSA-N
Temperature: 298 K
Tabular data in the source: 0
pressure (bar)	uptake (molecules/Zn2)
0.00102717	0.97166
0.00205026	1.7166
0.00235041	2.36437
0.00307802	2.72065
0.00322751	3.01215
0.00352007	3.23887
0.00366781	3.4332
0.00425002	3.7247
0.00526084	3.78947
0.00641648	3.88664
0.00742673	3.91903
0.00915815	3.95142
0.0108896	3.98381
0.0127646	3.98381
0.0137749	4.01619
0.0149288	4.01619
0.0162275	4.04858
0.017382	4.08097
0.0183916	4.08097
0.0195461	4.11336
0.0208442	4.11336
0.0221424	4.11336
0.0235853	4.14575
0.0245944	4.11336
0.0260373	4.14575
0.0274797	4.14575
0.0286336	4.14575
0.030076	4.14575
0.0310862	4.17814
0.0326728	4.17814
0.0338267	4.17814
0.0352691	4.17814
0.036423	4.17814
0.0377217	4.21053
0.0391634	4.17814
