Adsorption isotherm of Methanol on [Zn2(bdc-Cl2)2(dabco)]n
DOI: 10.1021/Ic101517t
Adsorbate Methanol: InChIKey OKKJLVBELUTLKV-UHFFFAOYSA-N
Temperature: 298 K
Tabular data in the source: 0
pressure (bar)	uptake (molecules/Zn2)
0.00331462	0.16129
0.00552436	0.387097
0.0060768	0.580645
0.00662923	0.870968
0.0077341	1.19355
0.00939141	3.3871
0.00994385	3.06452
0.0104963	3.74194
0.0110487	4.03226
0.0116012	4.32258
0.0132585	4.58065
0.0149158	4.83871
0.0165731	5.06452
0.0187828	5.29032
0.0209926	5.54839
0.0237548	5.74194
0.0259645	5.93548
0.0298315	6.16129
0.0320413	6.32258
0.0348035	6.51613
0.0381181	6.67742
0.0419851	6.80645
0.0452998	7
0.0491668	7.12903
0.0524814	7.29032
0.0580058	7.45161
0.064635	7.6129
0.0712643	7.74194
0.0784459	7.90323
0.0856276	7.96774
0.0928093	8.06452
0.100543	8.16129
0.107725	8.22581
0.116012	8.29032
0.124851	8.32258
0.132585	8.3871
0.140871	8.45161
0.14971	8.48387
0.157444	8.51613
