Adsorption isotherm of Methanol on [Zn2(bdc-NO2)2(dabco)]n
DOI: 10.1021/Ic101517t
Adsorbate Methanol: InChIKey OKKJLVBELUTLKV-UHFFFAOYSA-N
Temperature: 288 K
Tabular data in the source: 0
pressure (bar)	uptake (molecules/Zn2)
3.17e-05	0.16
0.00328571	0.56
0.00333333	0.8
0.00346032	1.44
0.00520635	2.24
0.00528571	2.64
0.00539683	3.2
0.00553968	3.92
0.00722222	4.4
0.00895238	5.12
0.0106349	5.6
0.0107143	6
0.0139524	6.32
0.0171905	6.64
0.0204286	6.96
0.0252381	7.2
0.0300317	7.36
0.0379841	7.44
0.044381	7.68
0.0507619	7.84
0.0587302	8
0.0650952	8.08
0.0730476	8.16
0.0825873	8.24
0.0889524	8.32
0.0921111	8.24
