Adsorption isotherm of Ethanol on [Zn2(bdc-Cl2)2(dabco)]n
DOI: 10.1021/Ic101517t
Adsorbate Ethanol: InChIKey LFQSCWFLJHTTHZ-UHFFFAOYSA-N
Temperature: 318 K
Tabular data in the source: 0
pressure (bar)	uptake (molecules/Zn2)
0.00149594	0.225806
0.00299188	0.483871
0.00448782	0.741935
0.00598376	1.06452
0.00822768	2.19355
0.00972362	2.45161
0.0112196	2.74194
0.0142114	3.25806
0.0164554	3.48387
0.0179513	3.64516
0.0216911	3.80645
0.024683	4.03226
0.0291708	4.12903
0.0344066	4.25806
0.0388945	4.3871
0.0448782	4.45161
0.0486181	4.6129
0.0523579	4.70968
0.0583417	4.77419
0.0680653	4.80645
0.0792849	4.83871
0.0867646	4.87097
0.0957402	4.90323
0.103968	4.93548
0.105464	4.93548
0.108456	4.93548
0.112944	4.93548
0.116683	4.96774
0.121919	5
0.125659	4.96774
0.132391	5.03226
0.135383	5.03226
0.139123	5.06452
0.144358	5.09677
0.14735	5.12903
0.15109	5.12903
0.153334	5.19355
0.15857	5.19355
0.161562	5.19355
0.166797	5.19355
0.172033	5.19355
0.178765	5.25806
0.184001	5.22581
0.188489	5.22581
0.194472	5.22581
0.201204	5.25806
0.205692	5.29032
0.210928	5.29032
