Adsorption isotherm of Nitrogen on nHKUST-1 film
DOI: 10.1021/Nn5027092
Adsorbate Nitrogen: InChIKey IJGRMHOSHXDMSA-UHFFFAOYSA-N
Temperature: 77 K
Tabular data in the source: 0
pressure (bar)	uptake (cm3(STP)/g)
-0.00218811	199.991
0.00218811	242.009
0.00437621	268.018
0.0153168	292.063
0.0306335	298.126
0.0481383	306.198
0.0722075	314.297
0.0984645	328.405
0.19693	346.811
0.286642	365.18
0.393859	383.622
0.487948	400.009
0.579849	416.387
0.680501	436.802
0.781155	457.216
0.864303	489.559
