Adsorption isotherm of Nitrogen on CuBTC
DOI: 10.1021/Nn5027092
Adsorbate Nitrogen: InChIKey IJGRMHOSHXDMSA-UHFFFAOYSA-N
Temperature: 77 K
Tabular data in the source: 0
pressure (bar)	uptake (cm3(STP)/g)
0	310
0.00218811	244.009
0.0131286	322.054
0.0240692	326.099
0.0371979	332.153
0.0503265	338.207
0.0634551	342.261
0.0853362	350.351
0.0984645	354.405
0.146603	362.604
0.203494	374.838
0.249445	379.027
0.295395	385.216
0.347909	393.432
0.396048	403.631
0.43981	405.811
0.479195	415.973
0.538275	422.216
0.590789	420.432
0.630175	422.595
0.687066	430.829
0.72864	441
0.781155	451.216
0.827105	461.405
0.879619	485.622
0.927758	511.82
0.943075	577.883
0.962768	625.964
