Adsorption isotherm of Benzene on NENU-514
DOI: 10.1002/chem.201500815
Article source: Figure 4
Adsorbate Benzene: InChIKey UHOVQNZJYSORNB-UHFFFAOYSA-N
Kind: experiment
Temperature: 298 K
Tabular data in the source: 0
pressure (bar)	uptake (mg/g)
0.000606	218.317
0.001636	1158.42
0.001908	1171.78
0.002484	1189.6
0.003211	1202.97
0.003786	1216.34
0.004453	1225.25
0.005119	1234.16
0.005634	1238.61
0.006391	1247.52
0.006906	1251.98
0.007542	1256.44
0.008179	1265.35
0.008784	1269.8
0.009451	1274.26
0.010087	1283.17
0.010693	1287.62
0.011359	1296.53
0.011965	1305.45
0.012601	1309.9
