Adsorption isotherm of Benzene on NENU-513
DOI: 10.1002/chem.201500815
Article source: Figure 4
Adsorbate Benzene: InChIKey UHOVQNZJYSORNB-UHFFFAOYSA-N
Kind: experiment
Temperature: 298 K
Tabular data in the source: 0
pressure (bar)	uptake (mg/g)
0	182.673
9.1e-05	191.584
0.000151	204.95
0.000212	218.317
0.000333	271.782
0.000515	481.188
0.000576	516.832
0.000727	1104.95
0.000878	1265.35
0.00103	1465.84
0.001121	1474.75
0.001242	1479.21
0.006603	1586.14
0.006967	1590.59
0.007542	1603.96
0.008148	1612.87
0.008875	1617.33
0.009451	1626.24
0.010087	1630.69
0.010784	1648.51
0.011571	1679.7
0.012056	1697.52
