Adsorption isotherm of Benzene on NENU-512
DOI: 10.1002/chem.201500815
Article source: Figure 4
Adsorbate Benzene: InChIKey UHOVQNZJYSORNB-UHFFFAOYSA-N
Kind: experiment
Temperature: 298 K
Tabular data in the source: 0
pressure (bar)	uptake (mg/g)
0.002363	1367.82
0.002514	1372.28
0.003241	1390.1
0.003756	1399.01
0.004362	1407.92
0.004998	1416.83
0.005634	1425.74
0.00627	1434.65
0.006876	1443.56
0.007512	1448.02
0.008179	1456.93
0.008845	1461.39
0.00942	1470.3
0.010087	1479.21
0.010693	1488.12
0.011571	1501.49
0.012177	1510.4
0.012571	1519.31
