Adsorption isotherm of Benzene on NENU-511
DOI: 10.1002/chem.201500815
Article source: Figure 4
Adsorbate Benzene: InChIKey UHOVQNZJYSORNB-UHFFFAOYSA-N
Kind: experiment
Temperature: 298 K
Tabular data in the source: 0
pressure (bar)	uptake (mg/g)
0.000576	129.208
0.002454	1425.74
0.002605	1430.2
0.00309	1439.11
0.003756	1456.93
0.004422	1465.84
0.004998	1470.3
0.005695	1483.66
0.00627	1488.12
0.006906	1492.57
0.007512	1501.49
0.008148	1510.4
0.008815	1514.85
0.00942	1523.76
0.010147	1532.67
0.010662	1532.67
0.011389	1541.58
0.011995	1550.5
0.01254	1559.41
