Adsorption isotherm of Nitrogen on [KCo7(OH)3(ip)6(H2O)4]*12H2O
DOI: 10.1002/adma.200700450
Adsorbate Nitrogen: InChIKey IJGRMHOSHXDMSA-UHFFFAOYSA-N
Temperature: 77 K
Tabular data in the source: 0
pressure (bar)	uptake (cm3(STP)/g)
0.00182509	0.749056
0.00182509	60.265
0.00837971	108.245
0.0280436	112.702
0.106699	114.799
0.167876	115.324
0.325186	117.159
0.480312	117.946
0.628884	118.732
0.759976	119.519
0.936951	120.305
0.995943	122.665
