Adsorption isotherm of Nitrogen on UiO-66
DOI: 10.1016/j.chroma.2014.10.036
Adsorbate Nitrogen: InChIKey IJGRMHOSHXDMSA-UHFFFAOYSA-N
Temperature: 77 K
Tabular data in the source: 0
pressure (bar)	uptake (cm3(STP)/g)
-0.00262013	118.515
-0.00207228	149.492
-0.000952775	79.46
-0.000905135	215.487
-0.000857497	84.8473
-0.000547845	102.356
2.38193e-05	1.34683
0.000119097	6.73417
0.000262013	14.8152
0.000428748	24.243
0.00114333	197.981
0.00131007	74.0759
0.00152444	219.531
0.00302506	171.048
0.00400165	226.268
0.00402547	227.615
0.00554991	47.1457
0.0066456	242.433
0.00919427	253.211
0.00933719	261.292
0.0284165	273.44
0.0759122	292.361
0.127886	297.82
0.172786	303.27
0.222377	307.379
0.269611	311.485
0.295599	314.214
0.319227	316.941
0.349907	318.33
0.364079	319.697
0.385325	321.073
0.418387	323.812
0.44678	329.239
0.472743	330.622
0.515237	333.374
0.560136	338.824
0.590815	340.213
0.61211	344.283
0.638049	344.319
0.661678	347.045
0.682925	348.421
0.708911	351.151
0.737256	353.884
0.760886	356.61
0.784491	357.99
0.805714	358.019
0.836464	363.449
0.860117	367.522
0.888509	372.949
0.914544	378.372
0.931122	382.436
0.957443	404.021
