Adsorption isotherm of Nitrogen on UiO-66
DOI: 10.1016/j.chroma.2014.10.036
Adsorbate Nitrogen: InChIKey IJGRMHOSHXDMSA-UHFFFAOYSA-N
Temperature: 77 K
Tabular data in the source: 0
pressure (bar)	uptake (cm3(STP)/g)
0.0574948	288.295
0.102253	293.744
0.151717	299.2
0.196492	305.996
0.248291	310.109
0.297755	315.564
0.342482	318.32
0.389625	326.466
0.441409	329.231
0.490857	333.34
0.540321	338.796
0.589768	342.905
0.634495	345.661
0.683927	348.423
0.733391	353.879
0.778149	359.328
0.832333	366.137
0.879444	371.59
0.929034	387.82
0.97392	404.044
