Adsorption isotherm of Carbon Dioxide on [Zn(ntd)(e-urea)]
DOI: 10.1016/j.solidstatesciences.2012.07.011
Adsorbate Carbon Dioxide: InChIKey CURLTUGMZLYLDI-UHFFFAOYSA-N
Temperature: 273 K
Tabular data in the source: 0
pressure (bar)	uptake (cm3(STP)/g)
0.0105646	0.117978
0.0542621	0.240331
0.130733	0.637978
0.215943	1.12739
0.283674	1.55563
0.35359	2.01445
0.421321	2.38151
0.517455	2.99327
0.607035	3.60504
0.727203	4.52268
0.821153	5.22621
0.906363	5.92974
0.998128	6.69445
