Adsorption isotherm of Carbon Dioxide on [Cd(ntd)(e-urea)]
DOI: 10.1016/j.solidstatesciences.2012.07.011
Adsorbate Carbon Dioxide: InChIKey CURLTUGMZLYLDI-UHFFFAOYSA-N
Temperature: 273 K
Tabular data in the source: 0
pressure (bar)	uptake (cm3(STP)/g)
0.00619484	0.0873899
0.0236738	0.821508
0.0520772	1.73915
0.104514	2.77915
0.18317	3.91092
0.261825	5.10386
0.368884	6.23563
0.478128	7.58151
0.593926	9.08033
0.729388	10.518
0.851741	11.8944
0.998128	13.5156
