Adsorption isotherm of Nitrogen on CPL-2
DOI: 10.1021/Ja046925m
Adsorbate Nitrogen: InChIKey IJGRMHOSHXDMSA-UHFFFAOYSA-N
Temperature: 77 K
Tabular data in the source: 0
pressure (bar)	uptake (molecules/unit pore)
0.00316614	0.00316614
0.00949843	2.41975
0.0158307	2.74074
0.0284953	2.93827
0.0411599	3.02469
0.0601567	3.11111
0.088652	3.14815
0.113981	3.18519
0.142476	3.20988
0.170972	3.22222
0.202633	3.23457
0.231129	3.25926
0.256458	3.2716
0.284953	3.2963
0.313448	3.2963
0.34511	3.32099
0.376771	3.32099
0.405266	3.33333
0.436928	3.35802
0.468589	3.35802
0.493918	3.38272
0.52558	3.39506
0.554075	3.41975
0.582571	3.41975
0.611066	3.44444
0.639561	3.45679
0.671223	3.46914
0.699718	3.48148
0.728213	3.49383
0.756708	3.53086
0.78837	3.54321
0.816865	3.58025
0.845361	3.60494
0.877022	3.64198
0.902351	3.69136
0.924514	3.74074
0.946677	3.81481
