Adsorption isotherm of Benzene on CPL-2
DOI: 10.1021/Ja046925m
Adsorbate Benzene: InChIKey UHOVQNZJYSORNB-UHFFFAOYSA-N
Temperature: 300 K
Tabular data in the source: 0
pressure (bar)	uptake (molecules/unit pore)
0	0
0.000459119	0.492593
0.000918239	0.777778
0.00321384	0.916049
0.00505031	0.924691
0.00872327	0.937654
0.0169874	0.950617
0.0211195	0.954938
0.0247925	0.959259
0.0284654	0.96358
0.0321384	0.959259
0.0353522	0.967901
0.0390252	0.972222
0.0426981	0.972222
0.0459119	0.972222
0.0495849	0.976543
0.0532579	0.976543
0.0573899	0.985185
0.0606038	0.985185
0.0642767	0.989506
0.0684088	0.993827
0.0725409	0.993827
0.0771321	0.993827
0.0789686	1.00679
0.0812642	0.998148
0.0858553	1.00679
0.0895283	1.00679
0.0932013	1.01543
0.0973333	1.0284
0.101465	1.0284
0.105597	1.03704
0.107893	1.04136
0.112025	1.05432
0.116616	1.06728
0.120748	1.08457
0.124881	1.11049
0.128094	1.14074
0.13039	1.17099
0.132226	1.21852
0.133604	1.25741
0.135899	1.32222
