Adsorption isotherm of Water on CPL-2
DOI: 10.1021/Ja046925m
Adsorbate Water: InChIKey XLYOFNOQVPJJNP-UHFFFAOYSA-N
Temperature: 300 K
Tabular data in the source: 0
pressure (bar)	uptake (molecules/unit pore)
0.000111356	0.0648148
0.000222713	0.237654
0.000556782	0.388889
0.000890852	0.583333
0.00122492	0.799383
0.00144763	1.01543
0.00167035	1.33951
0.00189306	1.55556
0.00222713	2.03086
0.00244984	2.24691
0.00267256	2.72222
0.00311798	2.93827
0.00356341	3.21914
0.00389748	3.41358
0.00478833	3.82407
0.00534511	3.99691
0.00590189	4.14815
0.00645868	4.29938
0.00712681	4.42901
0.00801767	4.53704
0.0086858	4.64506
0.00968801	4.70988
0.0104675	4.7963
0.011247	4.88272
0.0116924	4.96914
0.012806	5.01235
0.0136968	5.05556
0.0145877	5.14198
0.0154785	5.16358
0.0164808	5.2284
0.0173716	5.31481
0.0182625	5.37963
0.0191533	5.44444
0.0201555	5.50926
0.0210464	5.57407
0.0221599	5.61728
0.0226054	5.66049
0.0236076	5.7037
0.0246098	5.74691
0.0250552	5.76852
0.0260574	5.81173
0.027171	5.83333
0.0280618	5.89815
0.0289527	5.94136
0.0299549	5.98457
0.0308457	6.04938
0.0318479	6.1142
0.0327388	6.17901
0.033741	6.24383
0.0345205	6.30864
