Adsorption isotherm of Methane on Resorcinolâ€“formaldehyde carbon xerogel
DOI: 10.1007/s10450-018-9933-6
Article source: Figure 5a
Adsorbate Methane: InChIKey VNWKTOKETHGBQD-UHFFFAOYSA-N
Kind: experiment
Temperature: 323 K
Tabular data in the source: 0
pressure (bar)	uptake (mmol/g)
0.522496	0.626817
0.972424	0.904685
2.96081	1.64136
5.0508	2.07431
8.01161	2.57835
9.98549	2.81745
0.798258	0.768982
2.0029	1.3441
3.94775	1.86107
7.0537	2.42326
