Adsorption isotherm of Methane on Resorcinolâ€“formaldehyde carbon xerogel
DOI: 10.1007/s10450-018-9933-6
Article source: Figure 5a
Adsorbate Methane: InChIKey VNWKTOKETHGBQD-UHFFFAOYSA-N
Kind: experiment
Temperature: 343 K
Tabular data in the source: 0
pressure (bar)	uptake (mmol/g)
0.986938	0.6979
3.0479	1.35056
4.96372	1.76414
7.95356	2.23586
10	2.50081
2.01742	1.02746
3.97678	1.51858
7.01016	2.05493
