Adsorption isotherm of Carbon Dioxide on Resorcinolâ€“formaldehyde carbon xerogel
DOI: 10.1007/s10450-018-9933-6
Article source: Figure 5b
Adsorbate Carbon Dioxide: InChIKey CURLTUGMZLYLDI-UHFFFAOYSA-N
Kind: experiment
Temperature: 323 K
Tabular data in the source: 0
pressure (bar)	uptake (mmol/g)
0.406977	1.15584
1.01744	1.64286
3.02326	2.7013
4.94186	3.21429
7.97965	3.68182
10.0145	3.87013
1.99128	2.24675
4.01163	2.97403
7.02035	3.53896
