Adsorption isotherm of Carbon Dioxide on Resorcinolâ€“formaldehyde carbon xerogel
DOI: 10.1007/s10450-018-9933-6
Article source: Figure 5b
Adsorbate Carbon Dioxide: InChIKey CURLTUGMZLYLDI-UHFFFAOYSA-N
Kind: experiment
Temperature: 303 K
Tabular data in the source: 0
pressure (bar)	uptake (mmol/g)
0.421512	1.44805
1.06105	2.26623
3.03779	3.37013
5.0436	3.8961
8.00872	4.33117
9.98547	4.50649
0.290698	1.31169
2.02035	2.97403
4.01163	3.68831
6.99128	4.24675
