Adsorption isotherm of Carbon Dioxide on Resorcinolâ€“formaldehyde carbon xerogel
DOI: 10.1007/s10450-018-9933-6
Article source: Figure 5b
Adsorbate Carbon Dioxide: InChIKey CURLTUGMZLYLDI-UHFFFAOYSA-N
Kind: experiment
Temperature: 343 K
Tabular data in the source: 0
pressure (bar)	uptake (mmol/g)
0.450581	0.727273
0.973837	1.16883
2.96512	2.08442
4.9564	2.55844
7.99419	3.02597
10.0145	3.25974
0.290698	0.448052
1.99128	1.67533
3.99709	2.32468
7.03488	2.9026
