Adsorption isotherm of Methane on Resorcinolâ€“formaldehyde carbon xerogel
DOI: 10.1007/s10450-018-9933-6
Article source: Figure 5a
Adsorbate Methane: InChIKey VNWKTOKETHGBQD-UHFFFAOYSA-N
Kind: experiment
Temperature: 303 K
Tabular data in the source: 0
pressure (bar)	uptake (mmol/g)
0.522496	0.885299
1.05951	1.28595
3.0479	2.04847
5.03628	2.53958
8.01161	2.98546
9.98549	3.2504
0.290276	0.588045
2.0029	1.77706
3.97678	2.35218
6.9521	2.87561
