Adsorption isotherm of Carbon Dioxide on Carbon xerogel
DOI: 10.1007/s10450-018-9933-6
Article source: Figure 5b
Adsorbate Carbon Dioxide: InChIKey CURLTUGMZLYLDI-UHFFFAOYSA-N
Kind: experiment
Temperature: 303 K
Tabular data in the source: 0
pressure (bar)	uptake (mmol/g)
0.0157	0.0173
0.0549	0.0763
0.478	1.47
1.08	2.28
3.07	3.37
5.05	3.89
8.04	4.33
10	4.48
