Adsorption isotherm of Methane on Carbon xerogel
DOI: 10.1007/s10450-018-9933-6
Article source: Figure 5a
Adsorbate Methane: InChIKey VNWKTOKETHGBQD-UHFFFAOYSA-N
Kind: experiment
Temperature: 303 K
Tabular data in the source: 0
pressure (bar)	uptake (mmol/g)
0.0308	0.135
0.0463	0.173
0.527	0.869
1.08	1.27
3.07	2.04
5.05	2.54
8.03	2.98
9.98	3.24
