Adsorption isotherm of Methanol on {[Ln(ntb)Cl3]*xH2O}n
DOI: 10.1002/chem.200901929
Adsorbate Methanol: InChIKey OKKJLVBELUTLKV-UHFFFAOYSA-N
Temperature: 298 K
Tabular data in the source: 0
pressure (bar)	uptake (mg/g)
0.00837971	2.70919
0.0324133	14.3327
0.100144	27.7915
0.194094	36.6621
0.261825	43.3915
0.327371	48.8974
0.465018	62.968
0.657287	104.262
0.759976	120.474
0.995943	133.321
