Adsorption isotherm of Hydrogen on {[Ln(ntb)Cl3]*xH2O}n
DOI: 10.1002/chem.200901929
Adsorbate Hydrogen: InChIKey UFHFLCQGNIYNRP-UHFFFAOYSA-N
Temperature: 77 K
Tabular data in the source: 0
pressure (bar)	uptake (wt%)
1.27495	0.424365
3.02285	0.558079
5.20772	0.626247
10.0144	0.686549
20.5018	0.757339
40.3842	0.859591
60.2665	0.967087
80.5859	1.05361
95.443	1.11129
