Adsorption isotherm of Hydrogen on {[Ln(ntb)Cl3]*xH2O}n
DOI: 10.1002/chem.200901929
Adsorbate Hydrogen: InChIKey UFHFLCQGNIYNRP-UHFFFAOYSA-N
Temperature: 77 K
Tabular data in the source: 0
pressure (bar)	uptake (wt%)
1.05646	0.0494401
2.80436	0.101877
4.77074	0.14907
9.57747	0.21986
19.8464	0.337844
39.9472	0.563322
60.2665	0.783558
80.1489	0.964465
95.443	1.0772
