Adsorption isotherm of Carbon Dioxide on {[Ln(ntb)Cl3]*xH2O}n
DOI: 10.1002/chem.200901929
Adsorbate Carbon Dioxide: InChIKey CURLTUGMZLYLDI-UHFFFAOYSA-N
Temperature: 195 K
Tabular data in the source: 0
pressure (bar)	uptake (cm3(STP)/g)
0.00619484	0.312107
0.0105646	9.16085
0.0127495	16.6987
0.0302285	20.8499
0.0761108	25.7659
0.161321	30.0264
0.314262	34.8331
0.458464	37.7827
0.659472	41.1693
0.860481	43.4634
1.00031	45.2113
