Adsorption isotherm of Carbon Dioxide on {[Ln(ntb)Cl3]*xH2O}n
DOI: 10.1002/chem.200901929
Adsorbate Carbon Dioxide: InChIKey CURLTUGMZLYLDI-UHFFFAOYSA-N
Temperature: 195 K
Tabular data in the source: 0
pressure (bar)	uptake (cm3(STP)/g)
0.0149343	0.530594
0.0280436	2.16925
0.108884	4.90034
0.209388	6.10202
0.305523	7.08522
0.416951	8.17765
0.567707	9.70706
0.725018	11.018
0.829892	12.0012
0.917287	12.8751
1.01124	13.3121
