Adsorption isotherm of Methanol on {[Ln(ntb)Cl3]*xH2O}n
DOI: 10.1002/chem.200901929
Adsorbate Methanol: InChIKey OKKJLVBELUTLKV-UHFFFAOYSA-N
Temperature: 298 K
Tabular data in the source: 0
pressure (bar)	uptake (mg/g)
0.0127495	2.40331
0.0324133	11.8857
0.0695562	37.5798
0.100144	58.0739
0.130733	70.3092
0.202833	83.1562
0.272749	89.8857
0.336111	93.5563
0.460649	100.897
0.663842	104.874
0.757791	110.992
0.860481	111.909
0.995943	115.58
