Adsorption isotherm of Nitrogen on COF-TT-TVT
DOI: 10.1002/anie.202112924
Article source: Figure S8
Adsorbate Nitrogen: InChIKey IJGRMHOSHXDMSA-UHFFFAOYSA-N
Kind: experiment
Temperature: 77 K
Tabular data in the source: 0
pressure (bar)	uptake (cm3(STP)/g)
-0.000416	13.4561
-0.000467	24.7913
0.000762	33.9768
0.003917	38.8627
0.007708	43.5531
0.017222	47.6573
0.027375	50.7842
0.038796	54.4975
0.04832	56.2564
0.058477	58.6016
0.081967	63.2921
0.099107	67.2008
0.119422	71.5004
0.137832	75.4091
0.157515	79.1224
0.179735	83.6174
0.19941	89.0896
0.219089	93.5846
0.239409	96.7115
0.259098	98.8613
0.281963	101.402
0.30229	103.161
0.34993	107.46
0.401384	111.369
0.454743	115.864
0.504927	119.577
0.554473	123.877
0.605925	128.372
0.660553	133.062
0.705646	138.535
0.756459	143.616
0.8079	150.456
0.859334	159.055
0.907573	171.172
0.95894	194.234
0.986158	217.686
0.989283	229.217
1.00063	249.347
0.98036	235.08
0.95696	210.455
0.932889	193.647
0.911335	182.312
0.885322	173.518
0.8612	167.85
0.834534	162.769
0.809137	158.078
0.762142	151.629
0.707518	145.961
0.658611	140.88
0.606522	136.776
0.555705	132.476
0.506155	128.958
0.454707	123.682
0.403253	119.577
0.352433	116.06
0.301613	112.346
0.252069	107.46
0.199994	100.229
0.140322	86.9398
