Adsorption isotherm of Nitrogen on COF-TT-BT
DOI: 10.1002/anie.202112924
Article source: Figure S7
Adsorbate Nitrogen: InChIKey IJGRMHOSHXDMSA-UHFFFAOYSA-N
Kind: experiment
Temperature: 77 K
Tabular data in the source: 0
pressure (bar)	uptake (cm3(STP)/g)
0.009301	34.5314
0.029162	43.5815
0.062989	48.026
0.078241	50.6941
0.098805	52.9154
0.119367	55.5821
0.142584	58.3965
0.159164	60.7673
0.180387	64.0276
0.19829	67.2887
0.250022	74.846
0.302917	105.472
0.36885	109.302
0.420453	111.64
0.454861	112.272
0.524642	111.826
0.575309	110.958
0.625973	110.517
0.67472	110.932
0.725385	110.277
0.777959	110.05
0.827667	109.609
0.851567	109.175
0.87833	109.382
0.899359	109.377
0.928994	108.941
0.955759	108.934
0.978697	109.356
0.997806	110.847
1.00588	111.017
0.983316	109.539
0.941496	109.698
0.915605	110.15
0.890378	110.454
0.865152	110.757
0.83926	111.358
0.816026	111.512
0.790135	111.965
0.738355	112.572
0.687901	113.476
0.637448	114.083
0.586333	114.542
0.535217	115.149
0.486093	115.607
0.434313	116.066
0.383868	115.485
0.354011	113.118
0.301585	110.608
0.245343	80.1913
0.195606	72.1882
0.141887	63.8892
0.078204	56.7804
