Adsorption isotherm of Carbon Dioxide on [(NiL)3(TCBA)2]*12H2O
DOI: 10.1039/C3cc38519a
Adsorbate Carbon Dioxide: InChIKey CURLTUGMZLYLDI-UHFFFAOYSA-N
Temperature: 323 K
Tabular data in the source: 0
pressure (bar)	uptake (cm3(STP)/g)
0.175675	1.40998
0.915112	5.35364
1.54891	8.73392
2.25314	11.1283
3.52075	13.9452
4.78835	15.917
6.09117	17.6072
7.88694	18.8748
10.07	20.5649
13.0278	23.241
15.7743	26.9029
18.7672	33.3818
20.1405	36.9029
21.5489	39.2973
22.9926	40.0015
