Adsorption isotherm of Carbon Dioxide on [(NiL)3(TCBA)2]*12H2O
DOI: 10.1039/C3cc38519a
Adsorbate Carbon Dioxide: InChIKey CURLTUGMZLYLDI-UHFFFAOYSA-N
Temperature: 298 K
Tabular data in the source: 0
pressure (bar)	uptake (cm3(STP)/g)
0.422154	3.94519
1.09117	8.87476
1.68976	13.3818
3.02779	20.5649
4.26018	26.0579
5.52779	29.8607
6.76018	32.3959
7.99258	35.0719
9.15455	37.3255
10.2461	39.579
13.3799	47.6072
16.2672	60.2832
19.1545	70.9874
20.4574	73.1001
21.8658	73.241
