Adsorption isotherm of Carbon Dioxide on [(NiL)3(TCBA)2]*12H2O
DOI: 10.1039/C3cc38519a
Adsorbate Carbon Dioxide: InChIKey CURLTUGMZLYLDI-UHFFFAOYSA-N
Temperature: 273 K
Tabular data in the source: 0
pressure (bar)	uptake (cm3(STP)/g)
0.31652	5.07195
1.09117	10.7057
1.65455	16.3396
2.85173	26.0579
4.18976	35.0719
5.42215	42.8184
6.54891	50.7057
7.78131	60.2832
8.97849	72.3959
10.1053	81.8325
11.4081	89.1565
12.8869	92.9593
14.225	94.086
15.5982	94.3677
16.9715	93.9452
18.3447	93.9452
