Adsorption isotherm of Nitrogen on [(NiL)3(TCBA)2]*12H2O
DOI: 10.1039/C3cc38519a
Adsorbate Nitrogen: InChIKey IJGRMHOSHXDMSA-UHFFFAOYSA-N
Temperature: 77 K
Tabular data in the source: 0
pressure (bar)	uptake (cm3(STP)/g)
0.00515504	0.92626
0.0337579	2.52802
0.0595005	3.3289
0.0838129	4.53022
0.139588	5.73154
0.185353	7.13308
0.302625	9.53572
0.404165	11.9384
0.508565	13.9406
0.610106	15.7425
0.714506	18.1452
0.817476	19.9472
0.867531	21.3487
0.921877	22.55
0.979082	23.9516
1.01627	25.7535
