Adsorption isotherm of Carbon Dioxide on [(NiL)3(TCBA)2]*12H2O
DOI: 10.1039/C3cc38519a
Adsorbate Carbon Dioxide: InChIKey CURLTUGMZLYLDI-UHFFFAOYSA-N
Temperature: 195 K
Tabular data in the source: 0
pressure (bar)	uptake (cm3(STP)/g)
0.0036	1.79155
0.021489	5.15625
0.0542621	7.60331
0.100144	10.3563
0.152581	14.3327
0.207203	18.6151
0.25964	22.8974
0.323002	33.6033
0.384178	54.4033
0.460649	83.1562
0.52838	100.897
0.589556	110.074
0.655102	116.803
0.725018	122.309
0.78838	126.592
0.853926	129.65
0.919472	132.403
0.947875	134.239
