Adsorption isotherm of Hydrogen on [(NiL)3(TCBA)2]*12H2O
DOI: 10.1039/C3cc38519a
Adsorbate Hydrogen: InChIKey UFHFLCQGNIYNRP-UHFFFAOYSA-N
Temperature: 77 K
Tabular data in the source: 0
pressure (bar)	uptake (cm3(STP)/g)
0.0208866	0.52582
0.0766622	2.12758
0.122427	3.12868
0.182493	4.53022
0.235408	4.93066
0.328367	6.13198
0.459941	7.13308
0.588653	8.93506
0.725947	10.1364
0.863241	11.1375
0.921877	11.7381
0.949049	11.7381
1.00339	12.9395
1.03486	13.3399
1.05631	13.7403
