Adsorption isotherm of Nitrogen on Conversion of HDS fibers without additional copper nitrate in the second step
DOI: 10.1021/acs.iecr.7b00630
Article source: Figure S1
Adsorbate Nitrogen: InChIKey IJGRMHOSHXDMSA-UHFFFAOYSA-N
Kind: experiment
Temperature: 77 K
Tabular data in the source: 0
pressure (bar)	uptake (cm3(STP)/g)
0.00089	15.0735
0	28.3088
0	42.2794
0	55.5147
0	68.3824
0	81.9853
0	94.8529
0.00089	108.088
0	120.956
0	133.824
0	154.044
0.00089	159.559
0.007117	164.338
0.026688	168.015
0.073836	174.632
0.108531	177.941
0.157459	180.515
0.211724	182.721
0.254424	183.824
0.343384	186.029
0.451025	188.235
0.557777	190.074
0.664528	191.912
0.769501	193.75
0.874473	197.059
1.01325	250.735
