Adsorption isotherm of Nitrogen on ZFS-N
DOI: 10.1021/acs.iecr.7b00630
Article source: Figure 3
Adsorbate Nitrogen: InChIKey IJGRMHOSHXDMSA-UHFFFAOYSA-N
Kind: experiment
Temperature: 77 K
Tabular data in the source: 0
pressure (bar)	uptake ()
0	11.026
0	25.1149
0	45.9418
0.001039	110.26
0.000519	148.545
0.002597	172.435
0.005713	186.524
0.009868	213.17
0.019735	233.078
0.05557	259.724
0.101792	260.949
0.150611	262.175
0.179695	262.175
0.24721	264.931
0.334461	266.462
0.443005	267.688
0.548433	269.525
0.654899	272.588
0.760846	274.426
0.866274	281.776
0.961315	305.054
1.01325	443.798
