Adsorption isotherm of Nitrogen on HFS-1
DOI: 10.1021/acs.iecr.7b00630
Article source: Figure S2 (right)
Adsorbate Nitrogen: InChIKey IJGRMHOSHXDMSA-UHFFFAOYSA-N
Kind: experiment
Temperature: 77 K
Tabular data in the source: 0
pressure (bar)	uptake (cm3(STP)/g)
0	9.85733
0	22.8275
0	35.2789
0	47.7302
0	61.738
0	73.6706
0	88.716
0	101.167
0	115.175
0	127.626
0	140.597
0	153.567
0	164.981
0	176.913
0	191.958
0	204.41
0	224.125
0.001035	241.764
0	250.065
0.00621	255.253
0.02277	260.96
0.060029	269.78
0.094184	273.93
0.150073	279.118
0.182157	283.268
0.249431	285.863
0.33637	288.457
0.445043	292.607
0.551647	294.163
0.657215	296.757
0.762784	301.427
0.867317	309.209
0.968746	321.66
