Adsorption isotherm of Nitrogen on Neat ZIF-8 powder
DOI: 10.1021/acs.iecr.7b00630
Article source: Figure 3
Adsorbate Nitrogen: InChIKey IJGRMHOSHXDMSA-UHFFFAOYSA-N
Kind: experiment
Temperature: 77 K
Tabular data in the source: 0
pressure (bar)	uptake (cm3(STP)/g)
0	15.3139
0	28.1776
0	48.392
0.000519	69.219
0.000519	88.2083
0.001558	108.423
0.000519	128.331
0	147.32
0	166.616
0.000519	185.299
0.001039	205.819
0	224.196
0	242.573
0	260.949
0.001558	278.101
0.005193	299.234
0.004674	316.08
0.005193	333.231
0.006232	348.545
0.011945	370.597
0.012464	390.199
0.013503	407.963
0.017658	421.44
0.028564	421.44
0.081018	422.052
0.110102	422.052
0.162037	423.277
0.215011	423.277
0.352119	425.727
0.45495	425.727
0.561936	426.34
0.666844	426.34
0.77383	428.178
0.996631	430.015
1.01325	492.802
