Adsorption isotherm of Nitrogen on Direct "1-step" conversion from ZnO fibers
DOI: 10.1021/acs.iecr.7b00630
Article source: Figure S1
Adsorbate Nitrogen: InChIKey IJGRMHOSHXDMSA-UHFFFAOYSA-N
Kind: experiment
Temperature: 77 K
Tabular data in the source: 0
pressure (bar)	uptake (cm3(STP)/g)
0	15.4412
0.00089	29.7794
0	43.3824
0	56.25
0.00089	71.6912
0	84.5588
0	98.5294
0	115.074
0.008006	118.75
0.025798	121.691
0.070278	126.838
0.102304	128.309
0.152121	130.515
0.182367	131.25
0.249977	133.088
0.337157	134.926
0.445688	137.132
0.55155	138.603
0.656522	139.338
0.764163	141.176
0.869135	143.75
1.01325	221.691
