Adsorption isotherm of Nitrogen on ZFS-1
DOI: 10.1021/acs.iecr.7b00630
Article source: Figure S3 (right)
Adsorbate Nitrogen: InChIKey IJGRMHOSHXDMSA-UHFFFAOYSA-N
Kind: experiment
Temperature: 77 K
Tabular data in the source: 0
pressure (bar)	uptake ()
0.001006	10.4302
0.002012	27.6402
0.002012	43.2855
0.002012	59.4524
0.002012	74.5763
0.002012	97.5228
0.002012	116.297
0.003019	138.201
0.005031	144.98
0.017106	166.362
0.022137	174.185
0.060372	194.524
0.101627	196.61
0.149925	197.653
0.181117	198.175
0.249539	198.696
0.335067	199.218
0.444743	201.825
0.549389	202.347
0.65504	203.911
0.760692	206.519
0.866344	210.691
0.964952	227.379
1.01325	379.661
