Adsorption isotherm of Nitrogen on ZnO fibers
DOI: 10.1021/acs.iecr.7b00630
Article source: Figure S1
Adsorbate Nitrogen: InChIKey IJGRMHOSHXDMSA-UHFFFAOYSA-N
Kind: experiment
Temperature: 77 K
Tabular data in the source: 0
pressure (bar)	uptake ()
0.004448	1.83824
0.024019	2.20588
0.068499	3.30882
0.100524	3.30882
0.151231	4.04412
0.180588	4.41177
0.248197	4.77941
0.335378	5.51471
0.442129	6.25
0.54977	6.98529
0.656522	8.08823
0.761494	9.19118
0.868246	11.7647
0.96877	23.1618
1.01325	159.559
