Adsorption isotherm of Nitrogen on HFS-Batch
DOI: 10.1021/acs.iecr.7b00630
Article source: Figure S1
Adsorbate Nitrogen: InChIKey IJGRMHOSHXDMSA-UHFFFAOYSA-N
Kind: experiment
Temperature: 77 K
Tabular data in the source: 0
pressure (bar)	uptake ()
0	15.0735
0	27.5735
0	39.7059
0	52.2059
0	64.7059
0	77.2059
0	90.4412
0	101.838
0	111.029
0	126.103
0	138.603
0	151.471
0.00089	162.868
0	175.735
0	194.118
0	212.132
0.001779	224.632
0.004448	230.515
0.023129	235.662
0.070278	245.221
0.108531	250
0.158348	253.309
0.214393	256.25
0.347832	261.029
0.453694	263.603
0.560446	265.809
0.666308	268.382
0.772169	270.588
0.974108	285.294
1.01325	344.485
