Adsorption isotherm of Nitrogen on ZFS-4
DOI: 10.1021/acs.iecr.7b00630
Article source: Figure S3 (right)
Adsorbate Nitrogen: InChIKey IJGRMHOSHXDMSA-UHFFFAOYSA-N
Kind: experiment
Temperature: 77 K
Tabular data in the source: 0
pressure (bar)	uptake (cm3(STP)/g)
0.001006	9.38722
0.001006	25.5541
0.001006	70.4042
0.002012	90.7432
0.001006	109.518
0.002012	129.857
0.002012	145.502
0.002012	167.405
0.006037	180.965
0.013081	207.562
0.023143	220.6
0.056348	246.154
0.100621	247.718
0.149925	248.761
0.179105	249.283
0.247527	249.804
0.334061	250.847
0.441725	251.369
0.548383	252.412
0.65504	254.498
0.761698	256.063
0.864331	259.192
0.96294	281.617
1.01325	381.747
