Adsorption isotherm of Nitrogen on HFS-2
DOI: 10.1021/acs.iecr.7b00630
Article source: Figure S2 (right)
Adsorbate Nitrogen: InChIKey IJGRMHOSHXDMSA-UHFFFAOYSA-N
Kind: experiment
Temperature: 77 K
Tabular data in the source: 0
pressure (bar)	uptake (cm3(STP)/g)
0.001035	10.3761
0	21.7899
0	32.166
0.001035	44.6174
0	57.5875
0	68.4825
0	79.8962
0	91.8288
0	102.724
0	115.175
0	126.07
0	138.003
0	149.416
0	160.83
0	172.763
0	184.176
0	195.071
0	207.004
0	217.38
0	228.794
0.001035	244.877
0.001035	249.027
0.00207	253.697
0.00828	257.328
0.02277	263.035
0.062099	270.817
0.095219	277.043
0.150073	282.75
0.180087	284.306
0.247361	287.419
0.33637	290.532
0.444008	293.645
0.549577	296.757
0.657215	299.352
0.761749	302.464
0.868352	306.096
0.969781	317.51
