Adsorption isotherm of Nitrogen on HFS-N
DOI: 10.1021/acs.iecr.7b00630
Article source: Figure 3
Adsorbate Nitrogen: InChIKey IJGRMHOSHXDMSA-UHFFFAOYSA-N
Kind: experiment
Temperature: 77 K
Tabular data in the source: 0
pressure (bar)	uptake ()
0	58.8055
0	74.1194
0	88.2083
0	103.522
0	120.674
0	134.763
0	150.689
0	164.472
0	179.786
0	194.793
0	212.557
0.001039	226.034
0.001039	251.149
0.006232	264.931
0.020255	273.201
0.066477	281.164
0.100234	284.227
0.149053	287.289
0.179695	288.821
0.247729	290.965
0.33498	293.415
0.443524	296.784
0.55051	298.315
0.656457	300.766
0.761366	303.828
0.867832	306.891
0.969105	317.305
1.01325	433.078
