Adsorption isotherm of Nitrogen on Neat HKUST-1 powder
DOI: 10.1021/acs.iecr.7b00630
Article source: Figure 3
Adsorbate Nitrogen: InChIKey IJGRMHOSHXDMSA-UHFFFAOYSA-N
Kind: experiment
Temperature: 77 K
Tabular data in the source: 0
pressure (bar)	uptake ()
0	15.9265
0	26.9525
0.000519	41.0413
0.001039	54.2113
0	67.9939
0	80.245
0	94.3338
0	107.81
0.001039	121.286
0	133.538
0	148.239
0	160.796
0	174.579
0.001039	187.443
0	200.306
0	221.133
0	239.816
0.001039	260.337
0	279.939
-0.000519	300.153
0.002077	305.054
0.009348	311.179
0.024409	316.692
0.074786	329.556
0.126202	334.456
0.208259	341.807
0.27941	345.176
0.369777	348.545
0.47884	351.914
0.587903	354.058
0.806549	357.734
1.00961	363.859
