Adsorption isotherm of Nitrogen on ZFS-2
DOI: 10.1021/acs.iecr.7b00630
Article source: Figure S3 (right)
Adsorbate Nitrogen: InChIKey IJGRMHOSHXDMSA-UHFFFAOYSA-N
Kind: experiment
Temperature: 77 K
Tabular data in the source: 0
pressure (bar)	uptake ()
0.001006	15.1239
0.001006	47.4576
0.002012	65.7106
0.002012	83.9635
0.002012	102.216
0.002012	120.991
0.003019	137.679
0.004025	154.889
0.006037	172.621
0.010062	189.309
0.022137	201.304
0.063391	228.422
0.103639	231.03
0.15395	233.116
0.185142	234.159
0.251552	235.724
0.339092	237.81
0.446756	240.417
0.552407	242.503
0.658059	244.589
0.762705	249.804
0.865338	259.713
0.949859	288.396
1.01325	381.747
