Adsorption isotherm of Nitrogen on HKUST-1 in blank CA
DOI: 10.1021/acs.iecr.7b00630
Article source: Figure S1
Adsorbate Nitrogen: InChIKey IJGRMHOSHXDMSA-UHFFFAOYSA-N
Kind: experiment
Temperature: 77 K
Tabular data in the source: 0
pressure (bar)	uptake ()
0.006227	2.20588
0.025798	2.57353
0.048038	1.83824
0.063161	2.20588
0.079174	2.20588
0.095187	2.94118
0.146783	3.67647
0.177919	3.67647
0.246418	4.04412
0.331819	4.77941
0.44035	4.77941
0.546212	5.88235
0.651184	7.35294
0.758826	8.08823
0.864687	10.2941
0.965212	15.4412
1.01325	76.1029
