Adsorption isotherm of Nitrogen on HFS-4
DOI: 10.1021/acs.iecr.7b00630
Article source: Figure S2 (right)
Adsorbate Nitrogen: InChIKey IJGRMHOSHXDMSA-UHFFFAOYSA-N
Kind: experiment
Temperature: 77 K
Tabular data in the source: 0
pressure (bar)	uptake ()
0	11.9326
0	27.4968
0	44.0986
0	58.1064
0	75.7458
0	92.3476
0	105.837
0.001035	120.363
0	135.927
0	153.567
0	167.575
0.001035	178.988
0	189.883
0	200.259
0	213.748
0	236.576
0.02277	257.328
0.064169	266.667
0.098324	272.374
0.149038	275.486
0.180087	277.043
0.247361	279.637
0.333265	283.268
0.441938	286.9
0.548542	289.494
0.65618	292.088
0.760714	293.645
0.867317	298.314
0.966676	310.765
