Adsorption isotherm of Nitrogen on MC-COF-TP-E1^2E7^1
DOI: 10.1038/ncomms12325
Article source: Figure 4
Adsorbate Nitrogen: InChIKey IJGRMHOSHXDMSA-UHFFFAOYSA-N
Kind: experiment
Temperature: 77 K
Tabular data in the source: 0
pressure (bar)	uptake (cm3(STP)/g)
0.00218	8.1761
0.001731	18.7289
0.001287	27.6582
0.000842	36.9934
-1.2e-05	45.5169
0.000362	56.0697
0.000747	63.7814
0.001545	71.0872
0.001928	79.2047
0.001898	87.7282
0.001862	97.8751
0.002647	108.834
0.004265	117.357
0.0067	127.707
0.007484	138.869
0.010741	150.03
0.013594	158.757
0.02139	167.686
0.030403	181.892
0.046818	199.75
0.074733	227.756
0.092803	243.991
0.116627	263.879
0.137962	288.638
0.173997	350.331
0.199057	370.219
0.241432	386.86
0.282602	394.572
0.323789	397.413
0.37322	399.037
0.406998	400.254
0.455608	401.066
0.508338	401.878
0.578373	402.081
0.609684	401.878
0.677243	403.095
0.709381	402.081
0.779824	403.501
0.813192	403.907
0.883228	403.907
0.912065	404.313
0.953255	406.342
0.982906	409.589
0.998536	416.489
1.00922	423.795
0.974645	415.678
0.933457	412.836
0.895146	412.025
0.843651	411.619
0.790917	412.025
0.742302	412.43
0.692038	413.242
0.639307	412.836
0.589042	414.054
0.54002	413.242
0.488536	409.589
0.43704	409.183
0.386369	408.778
0.334466	407.154
0.285864	403.907
0.245512	397.819
0.20602	381.584
0.163277	352.766
0.133821	294.726
0.106725	267.938
0.090305	251.297
0.071411	235.265
0.059096	222.886
0.04843	209.897
0.027906	188.792
0.019724	172.557
