Adsorption isotherm of Nitrogen on MC-COF-TP-E1^1E7^2
DOI: 10.1038/ncomms12325
Article source: Figure 4
Adsorbate Nitrogen: InChIKey IJGRMHOSHXDMSA-UHFFFAOYSA-N
Kind: experiment
Temperature: 77 K
Tabular data in the source: 0
pressure (bar)	uptake (cm3(STP)/g)
-0.000962	9.20994
-0.000932	19.6965
-0.000912	26.6876
-0.000882	37.1742
-0.000863	43.5827
-0.000839	52.3215
0.00018	62.2265
0.000205	70.9654
0.000258	89.6082
0.001295	105.922
0.00035	121.651
-0.000611	132.136
-0.000572	145.827
0.001445	158.355
0.003459	170.009
0.006466	182.246
0.00948	197.396
0.014953	206.14
0.027396	227.708
0.04034	251.607
0.070161	288.923
0.089049	312.828
0.116851	336.741
0.137721	361.231
0.178467	408.752
0.220206	457.44
0.260875	477.871
0.304472	483.157
0.375797	486.724
0.423349	489.684
0.457029	490.882
0.507548	492.098
0.577878	493.915
0.610558	491.617
0.678908	493.724
0.713576	494.05
0.763104	495.265
0.811645	497.643
0.863157	500.025
0.915662	502.99
0.957274	507.109
0.979089	515.287
0.993976	525.789
1.00688	536.288
1.00991	557.264
1.00688	536.288
1.00991	557.264
1.00396	552.597
0.977172	538.006
0.939491	523.113
0.897871	516.372
0.844378	513.988
0.793858	512.19
0.743344	512.723
0.691836	511.798
0.640829	512.912
0.590809	512.862
0.540292	512.23
0.489263	505.77
0.439237	503.682
0.387727	502.174
0.337208	500.667
0.28569	496.538
0.245553	488.633
0.205362	462.086
0.168581	415.442
0.128815	364.135
0.107948	340.811
0.090068	322.733
0.072181	302.324
0.056281	284.248
0.036395	257.429
0.024441	233.531
0.012492	211.381
0.00997	195.358
