Adsorption isotherm of Nitrogen on MC-COF-NiPc-E1-E7
DOI: 10.1038/ncomms12325
Article source: Figure 7
Adsorbate Nitrogen: InChIKey IJGRMHOSHXDMSA-UHFFFAOYSA-N
Kind: experiment
Temperature: 77 K
Tabular data in the source: 0
pressure (bar)	uptake (cm3(STP)/g)
0.001494	11.8215
0.002159	23.5527
0.002159	34.7908
0.002159	46.0289
0.001494	57.0697
0.000829	68.4063
0.002159	78.5603
0.002159	89.0098
0.000829	99.0646
0.002159	107.346
0.002824	114.936
0.002159	119.57
0.005483	127.26
0.004818	135.934
0.007477	145.596
0.012131	153.681
0.01612	163.737
0.022768	175.371
0.030081	186.019
0.046702	201.796
0.073959	212.055
0.095234	214.82
0.119832	215.615
0.160386	216.611
0.20094	217.606
0.241494	219.193
0.28238	218.809
0.324264	219.115
0.373461	219.422
0.42432	219.829
0.474181	220.235
0.525372	221.431
0.575234	221.443
0.625095	222.638
0.676287	223.045
0.726813	224.043
0.778004	225.829
0.82853	227.912
0.878724	230.98
0.929583	237.696
0.969472	250.915
0.990082	261.567
0.998724	273.201
1.00737	280.893
1.0077	286.315
0.968807	263.336
0.932242	246.371
0.891023	237.292
0.840165	235.111
0.789306	233.324
0.73878	231.735
0.689583	229.948
0.637727	231.71
0.589195	230.318
0.538004	229.715
0.486813	229.111
0.435622	229.591
0.385428	228.988
0.333904	228.482
0.284707	228.273
0.244153	227.475
0.203599	226.183
0.16371	224.991
0.123821	225.375
0.093239	224.481
0.069306	221.912
0.040718	208.498
0.028087	193.117
0.018114	180.299
0.011466	169.848
0.008474	160.186
