Adsorption isotherm of Nitrogen on MC-COF-TP-E1E3E7
DOI: 10.1038/ncomms12325
Article source: Figure 6
Adsorbate Nitrogen: InChIKey IJGRMHOSHXDMSA-UHFFFAOYSA-N
Kind: experiment
Temperature: 77 K
Tabular data in the source: 0
pressure (bar)	uptake (cm3(STP)/g)
-0.002372	8.2818
-0.002386	20.708
-0.001644	29.5087
-0.000904	39.3449
-0.000912	46.0757
-0.001672	53.8433
-0.001684	64.7162
-0.001318	73.5174
-0.002456	83.3566
-0.002464	91.123
0.000529	101.473
0.001273	107.685
0.002016	115.45
0.002007	123.735
0.001247	131.502
0.001239	138.751
0.001979	148.587
0.000462	162.051
-0.000306	177.067
0.001557	190.526
0.001914	206.576
0.005273	225.986
0.010137	243.323
0.017252	261.951
0.029619	286.784
0.043863	312.649
0.074615	354.021
0.090364	377.295
0.113618	406.77
0.137241	441.94
0.175838	521.095
0.198336	554.972
0.241127	578.462
0.280932	585.13
0.320742	587.655
0.37182	590.163
0.404118	592.183
0.455196	594.173
0.505524	595.646
0.555476	597.12
0.607681	598.59
0.657257	600.582
0.706833	602.057
0.759412	605.08
0.809738	608.106
0.859312	611.652
0.910386	617.525
0.953192	627.035
0.976467	637.871
0.992227	650.79
0.997467	667.35
1.00495	693.744
0.993692	684.442
0.969692	650.308
0.932906	630.692
0.890847	625.063
0.841273	621.518
0.790194	620.046
0.739116	618.056
0.688039	615.03
0.639212	614.849
0.587381	614.673
0.538933	612.161
0.487481	608.877
0.4349	606.631
0.385324	605.674
0.333496	602.132
0.28317	599.624
0.243364	593.474
0.204322	575.932
0.160063	521.638
0.127467	449.722
0.102342	413.519
0.081344	382.487
0.058834	359.223
0.037093	320.944
0.028096	304.908
0.014604	279.041
0.008614	261.447
0.003376	243.334
-0.00036	225.736
-0.00034	207.615
-0.002575	191.05
-0.000305	175.514
-0.001038	159.465
-0.000271	144.966
-0.000634	134.094
