Adsorption isotherm of Methane on Carbon
DOI: 10.1007/s10450-012-9386-2
Adsorbate Methane: InChIKey VNWKTOKETHGBQD-UHFFFAOYSA-N
Temperature: 298 K
Tabular data in the source: 0
pressure (bar)	uptake (micromoles/m2)
-0.0798144	1.09825
0.441698	1.12224
1.05064	1.14325
1.66066	1.14929
2.18326	1.15832
2.8805	1.16438
