Adsorption isotherm of N-Butane on Carbon
DOI: 10.1007/s10450-012-9386-2
Adsorbate N-Butane: InChIKey IJDNQMDRQITEOD-UHFFFAOYSA-N
Temperature: 303 K
Tabular data in the source: 0
pressure (bar)	uptake (g/cm3)
-0.0571967	0.787027
1.24484	0.870947
2.46229	0.918949
3.59208	0.972927
4.81301	0.973049
6.1207	0.979164
7.25354	0.991247
8.64932	0.985401
9.69517	0.994483
11.0026	1.00359
