Adsorption isotherm of N-Butane on Carbon
DOI: 10.1007/s10450-012-9386-2
Adsorbate N-Butane: InChIKey IJDNQMDRQITEOD-UHFFFAOYSA-N
Temperature: 303 K
Tabular data in the source: 0
pressure (bar)	uptake (g/cm3)
-0.160064	1.00248
0.4467	1.05341
0.970169	1.05047
1.5802	1.05652
1.6661	1.07448
2.62496	1.08056
