Adsorption isotherm of Ethane on Carbon
DOI: 10.1007/s10450-012-9386-2
Adsorbate Ethane: InChIKey OTMSDBZUPAUEDD-UHFFFAOYSA-N
Temperature: 303 K
Tabular data in the source: 0
pressure (bar)	uptake (g/cm3)
0.914376	0.618183
1.43326	0.678287
2.30207	0.72346
3.25831	0.765652
4.04166	0.786808
5.00073	0.79
9.96613	0.865993
15.1092	0.897022
19.9041	0.918981
24.8746	0.925975
29.8448	0.935969
