Adsorption isotherm of Ethane on Carbon
DOI: 10.1007/s10450-012-9386-2
Adsorbate Ethane: InChIKey OTMSDBZUPAUEDD-UHFFFAOYSA-N
Temperature: 303 K
Tabular data in the source: 0
pressure (bar)	uptake (g/cm3)
0.0856863	0.0209562
0.737468	0.652443
1.43101	0.70937
2.38639	0.76333
3.34285	0.802328
4.03857	0.829331
5.08377	0.84739
9.96332	0.904734
15.1065	0.935173
19.9014	0.956599
24.7853	0.954093
29.8423	0.96956
