Adsorption isotherm of Methane on Carbon
DOI: 10.1007/s10450-012-9386-2
Adsorbate Methane: InChIKey VNWKTOKETHGBQD-UHFFFAOYSA-N
Temperature: 303 K
Tabular data in the source: 0
pressure (bar)	uptake (g/cm3)
0.086954	1.74e-05
1.0391	0.0302078
1.99125	0.0603982
3.46251	0.108693
5.19463	0.157039
10.2267	0.236045
15.0887	0.288018
19.779	0.324956
24.8197	0.343964
30.0335	0.369007
34.8146	0.378963
