Adsorption isotherm of Methane on Carbon
DOI: 10.1007/s10450-012-9386-2
Adsorbate Methane: InChIKey VNWKTOKETHGBQD-UHFFFAOYSA-N
Temperature: 303 K
Tabular data in the source: 0
pressure (bar)	uptake (g/cm3)
0.087208	1.74e-05
1.39053	0.0662781
2.43463	0.0994869
3.21754	0.126644
4.95843	0.171992
10.0965	0.272019
15.0643	0.315013
19.9456	0.348989
24.9145	0.376983
30.0582	0.399012
34.8542	0.405971
