Adsorption isotherm of N-propane on Carbon
DOI: 10.1007/s10450-012-9386-2
Adsorbate N-propane: InChIKey ATUOYWHBWRKTHZ-UHFFFAOYSA-N
Temperature: 303 K
Tabular data in the source: 0
pressure (bar)	uptake (g/cm3)
-0.138751	0.709213
1.16264	0.802111
2.29091	0.877037
3.596	0.919062
4.81605	0.931154
6.21095	0.937278
7.25724	0.940375
8.56537	0.940505
9.78586	0.946612
10.9191	0.95271
