Adsorption isotherm of Methane on Carbon
DOI: 10.1007/s10450-012-9386-2
Adsorbate Methane: InChIKey VNWKTOKETHGBQD-UHFFFAOYSA-N
Temperature: 298 K
Tabular data in the source: 0
pressure (bar)	uptake (micromoles/m2)
0.201005	0.100604
1.20603	0.362415
2.36181	0.634353
4.0201	1.0171
4.97487	1.19848
7.13568	1.59153
9.04523	1.89399
11.9095	2.26729
13.8191	2.46926
15.8794	2.6713
17.8392	2.82303
19.8492	2.98485
