Adsorption isotherm of Hydrogen on MIL-101
DOI: 10.1016/j.ijhydene.2011.03.109
Adsorbate Hydrogen: InChIKey UFHFLCQGNIYNRP-UHFFFAOYSA-N
Temperature: 298 K
Tabular data in the source: 0
pressure (bar)	uptake (wt%)
1.39245	0.0280702
2.78048	0.0350877
5.81196	0.0649123
7.20109	0.077193
8.71664	0.0912281
9.97936	0.101754
11.6213	0.117544
14.3989	0.138596
15.9137	0.149123
17.4296	0.164912
18.9429	0.168421
20.331	0.175439
21.7197	0.185965
23.2335	0.191228
24.6211	0.196491
26.1348	0.201754
27.5221	0.205263
29.0358	0.210526
30.4242	0.219298
31.6851	0.221053
33.3252	0.22807
35.7213	0.233333
38.1188	0.245614
41.5233	0.250877
45.3059	0.25614
47.0717	0.261404
48.8372	0.264912
52.3681	0.27193
55.8975	0.27193
59.5544	0.278947
