Adsorption isotherm of Nitrogen on MIL-101
DOI: 10.1016/j.ijhydene.2011.03.109
Adsorbate Nitrogen: InChIKey IJGRMHOSHXDMSA-UHFFFAOYSA-N
Temperature: 77 K
Tabular data in the source: 0
pressure (bar)	uptake (cm3(STP)/g)
0.00204531	314.769
0.00613592	359.349
0.0245437	451.324
0.0531779	534.971
0.0715857	585.163
0.0899934	615.857
0.159534	758.118
0.198395	791.655
0.23521	880.897
0.290433	892.198
0.341566	897.915
0.396789	906.43
0.433605	909.321
0.482692	915.033
0.533825	917.965
0.582912	923.677
0.631999	921.032
0.679041	923.952
0.728129	929.664
0.797669	932.649
0.826303	932.731
0.897889	938.508
0.922433	944.149
0.944931	944.213
0.963339	947.052
