Adsorption isotherm of Hydrogen on SWNT
DOI: 10.1016/j.ijhydene.2011.03.109
Adsorbate Hydrogen: InChIKey UFHFLCQGNIYNRP-UHFFFAOYSA-N
Temperature: 77 K
Tabular data in the source: 0
pressure (bar)	uptake (wt%)
1.5	0.524375
3.875	0.748385
5.5	0.872708
7.875	0.996719
10.5	1.14563
12.75	1.29469
15.375	1.36859
17.625	1.46766
20.375	1.61651
22.75	1.74052
25.125	1.86453
27.75	1.98844
30	2.0875
32.375	2.23651
37.25	2.53448
39.625	2.65849
44.5	2.95646
51.625	3.37849
54	3.5275
56.375	3.62651
58.875	3.77547
61.375	3.94943
