Adsorption isotherm of Hydrogen on SWNT
DOI: 10.1016/j.ijhydene.2011.03.109
Adsorbate Hydrogen: InChIKey UFHFLCQGNIYNRP-UHFFFAOYSA-N
Temperature: 298 K
Tabular data in the source: 0
pressure (bar)	uptake (wt%)
2.27038	0.00701754
4.16261	0.0140351
6.18052	0.0192982
9.96499	0.0333333
13.6223	0.0421053
17.1535	0.0508772
20.8123	0.0666667
24.3439	0.077193
27.8756	0.0877193
31.5329	0.0964912
35.0652	0.110526
38.7244	0.12807
42.2553	0.135088
45.9129	0.145614
49.4457	0.161404
53.103	0.170175
56.6346	0.180702
60.2926	0.192982
