Adsorption isotherm of Hydrogen on MIL-101@SWNT-8 WT%
DOI: 10.1016/j.ijhydene.2011.03.109
Adsorbate Hydrogen: InChIKey UFHFLCQGNIYNRP-UHFFFAOYSA-N
Temperature: 77 K
Tabular data in the source: 0
pressure (bar)	uptake (wt%)
0.25	1.1999
1.75	2.89927
2.75	3.44885
4	3.87333
5.375	4.27276
6.75	4.64719
9	5.12125
11.375	5.49526
13.75	5.81927
16.25	6.14323
18.625	6.41724
21	6.69125
23.25	6.86531
25.75	7.06427
28.25	7.31323
30.625	7.48724
33	7.63625
35.5	7.78521
37.75	7.93427
40.125	8.13328
42.5	8.30729
47.375	8.50526
49.75	8.62927
52	8.80333
54.875	8.90214
57	9.02625
59.375	9.12526
