Adsorption isotherm of Nitrogen on SWNT
DOI: 10.1016/j.ijhydene.2011.03.109
Adsorbate Nitrogen: InChIKey IJGRMHOSHXDMSA-UHFFFAOYSA-N
Temperature: 77 K
Tabular data in the source: 0
pressure (bar)	uptake (cm3(STP)/g)
0.0143171	91.9631
0.026589	97.5693
0.0634045	103.246
0.073631	103.275
0.114537	108.963
0.151353	109.069
0.171806	114.699
0.192259	114.757
0.241346	117.684
0.290433	117.824
0.33543	120.739
0.386563	126.457
0.482692	126.732
0.533825	132.45
0.582912	132.591
0.777216	152.646
0.797669	158.276
0.826303	166.715
0.848802	177.921
0.873345	183.563
0.897889	203.132
0.922433	222.7
0.942886	256.185
0.953112	270.142
0.963339	286.885
0.967429	314.752
