Adsorption isotherm of Hydrogen on MIL-101@SWNT-10 WT%
DOI: 10.1016/j.ijhydene.2011.03.109
Adsorbate Hydrogen: InChIKey UFHFLCQGNIYNRP-UHFFFAOYSA-N
Temperature: 298 K
Tabular data in the source: 0
pressure (bar)	uptake (wt%)
2.39828	0.0157895
4.29087	0.0245614
6.43631	0.0368421
9.97051	0.0596491
13.6297	0.077193
17.2888	0.0947368
20.948	0.112281
24.6067	0.12807
28.1391	0.142105
31.6715	0.15614
35.3288	0.164912
38.8608	0.177193
42.5177	0.184211
45.9229	0.192982
49.453	0.196491
53.236	0.203509
56.7662	0.207018
60.4227	0.212281
