Adsorption isotherm of Hydrogen on MIL-101@SWNT-10 WT%
DOI: 10.1016/j.ijhydene.2011.03.109
Adsorbate Hydrogen: InChIKey UFHFLCQGNIYNRP-UHFFFAOYSA-N
Temperature: 77 K
Tabular data in the source: 0
pressure (bar)	uptake (wt%)
0.25	1.0499
0.5	1.52479
4.5	3.82313
6	4.1475
8.25	4.62156
13	5.34458
15.5	5.61854
17.875	5.86755
20.5	6.06646
22.625	6.26557
25.125	6.46453
27.5	6.61354
30	6.7875
32.375	6.93651
34.625	7.06057
37.125	7.18453
39.375	7.30859
41.875	7.43255
46.75	7.68052
49.125	7.80453
51.5	7.87854
53.75	7.9526
56.375	8.05151
58.875	8.12547
60.25	8.2499
