Adsorption isotherm of Hydrogen on MIL-101@SWNT-6 WT%
DOI: 10.1016/j.ijhydene.2011.03.109
Adsorbate Hydrogen: InChIKey UFHFLCQGNIYNRP-UHFFFAOYSA-N
Temperature: 298 K
Tabular data in the source: 0
pressure (bar)	uptake (wt%)
2.40159	0.0315789
4.17109	0.054386
6.44553	0.0807018
10.1102	0.124561
13.6481	0.164912
17.3117	0.203509
20.8488	0.240351
24.5116	0.275439
28.1741	0.308772
31.5845	0.342105
35.3723	0.37193
39.0344	0.403509
42.444	0.433333
46.2314	0.461404
49.7667	0.489474
53.3024	0.519298
56.7116	0.547368
60.499	0.575439
