Adsorption isotherm of Nitrogen on MIL-101@SWNT-10 WT%
DOI: 10.1016/j.ijhydene.2011.03.109
Adsorbate Nitrogen: InChIKey IJGRMHOSHXDMSA-UHFFFAOYSA-N
Temperature: 77 K
Tabular data in the source: 0
pressure (bar)	uptake (cm3(STP)/g)
0.0102265	398.358
0.026589	481.97
0.0572685	568.409
0.073631	610.239
0.0879481	646.492
0.122718	680.018
0.139081	693.992
0.161579	705.199
0.171806	727.512
0.196349	769.365
0.276116	783.521
0.321113	783.65
0.357928	789.327
0.388608	792.201
0.437695	795.127
0.484737	800.833
0.533825	803.759
0.582912	803.9
0.629954	806.82
0.681087	809.752
0.728129	809.887
0.760854	815.552
0.777216	812.813
0.797669	815.658
0.850847	815.81
0.877436	818.672
0.924478	824.378
0.955158	835.608
0.965384	846.779
