Adsorption isotherm of Nitrogen on MIL-101@SWNT-8 WT%
DOI: 10.1016/j.ijhydene.2011.03.109
Adsorbate Nitrogen: InChIKey IJGRMHOSHXDMSA-UHFFFAOYSA-N
Temperature: 77 K
Tabular data in the source: 0
pressure (bar)	uptake (cm3(STP)/g)
0.00818122	415.065
0.0245437	495.892
0.0531779	576.754
0.073631	626.952
0.0920387	674.359
0.118628	699.504
0.143171	716.288
0.175896	758.164
0.196349	794.435
0.284297	811.4
0.317022	814.279
0.36611	819.991
0.388608	820.056
0.437695	822.982
0.484737	828.688
0.533825	828.829
0.582912	831.755
0.629954	831.89
0.681087	834.822
0.728129	837.742
0.777216	843.454
0.795624	843.507
0.848802	846.445
0.875391	846.521
0.897889	852.157
0.949022	863.445
0.965384	871.849
