Adsorption isotherm of Hydrogen on MIL-101@SWNT-8 WT%
DOI: 10.1016/j.ijhydene.2011.03.109
Adsorbate Hydrogen: InChIKey UFHFLCQGNIYNRP-UHFFFAOYSA-N
Temperature: 298 K
Tabular data in the source: 0
pressure (bar)	uptake (wt%)
2.40159	0.0315789
4.29788	0.0578947
6.447	0.0877193
9.98599	0.133333
13.5246	0.177193
17.1893	0.221053
20.8532	0.261404
24.5175	0.303509
28.0558	0.345614
31.7197	0.385965
35.3833	0.424561
38.9205	0.461404
42.5844	0.501754
46.1208	0.535088
49.6565	0.564912
53.3175	0.591228
56.8524	0.617544
60.5123	0.638596
