Adsorption isotherm of Nitrogen on MIL-101@SWNT-6 WT%
DOI: 10.1016/j.ijhydene.2011.03.109
Adsorbate Nitrogen: InChIKey IJGRMHOSHXDMSA-UHFFFAOYSA-N
Temperature: 77 K
Tabular data in the source: 0
pressure (bar)	uptake (cm3(STP)/g)
0.0102265	426.213
0.026589	504.255
0.0552232	593.473
0.073631	638.094
0.0920387	688.286
0.116582	713.426
0.143171	733.001
0.159534	744.19
0.175896	766.521
0.196349	808.362
0.218848	813.998
0.284297	822.542
0.317022	828.207
0.359974	833.901
0.386563	833.977
0.460194	839.76
0.509281	842.686
0.562459	848.409
0.609501	851.33
0.654498	851.459
0.726083	854.449
0.756763	854.537
0.797669	860.226
0.828349	860.314
0.848802	860.372
0.875391	863.234
0.897889	868.87
0.924478	871.731
0.946976	880.152
0.951067	891.306
0.961293	899.692
0.967429	916.423
