Adsorption isotherm of Hydrogen on MIL-101@SWNT-6 WT%
DOI: 10.1016/j.ijhydene.2011.03.109
Adsorbate Hydrogen: InChIKey UFHFLCQGNIYNRP-UHFFFAOYSA-N
Temperature: 77 K
Tabular data in the source: 0
pressure (bar)	uptake (wt%)
0.125	0.749948
0.75	1.74969
1.5	2.52438
2.75	3.17385
4	3.59833
5.125	4.02286
6.75	4.32219
8.875	4.7713
11.375	5.17026
13.75	5.51927
16.25	5.79323
18.5	6.06729
20.75	6.26635
23.375	6.51526
25.625	6.73932
28.25	6.93823
30.5	7.11229
32.875	7.2613
35.25	7.43531
37.75	7.55927
40	7.65833
42.75	7.85719
44.75	7.98135
47.25	8.05531
49.625	8.20432
52.375	8.25318
54.5	8.35229
57.125	8.4762
59.5	8.57521
