Adsorption isotherm of Hydrogen on MIL-101
DOI: 10.1016/j.ijhydene.2011.03.109
Adsorbate Hydrogen: InChIKey UFHFLCQGNIYNRP-UHFFFAOYSA-N
Temperature: 77 K
Tabular data in the source: 0
pressure (bar)	uptake (wt%)
1.875	2.42422
2.875	2.7738
4	3.14833
5.5	3.44771
7.5	3.82188
9.875	4.19589
12.375	4.41984
14.75	4.69385
17	4.86792
19.375	5.04193
22	5.19083
24.25	5.3149
26.625	5.46391
29	5.56292
31.375	5.63693
33.875	5.73589
36.125	5.83495
38.625	5.93391
41	6.00792
43.5	6.05688
45.875	6.08089
48.25	6.1799
50.75	6.22885
53.125	6.25286
55.5	6.30188
58	6.32583
60.5	6.37479
