Adsorption isotherm of Nitrogen on (C5H14N2)[(VO)3(AsO4)(HAsO4)2(OH)]*3H2O
DOI: 10.1039/B807250g
Adsorbate Nitrogen: InChIKey IJGRMHOSHXDMSA-UHFFFAOYSA-N
Temperature: 77 K
Tabular data in the source: 0
pressure (bar)	uptake (cm3(STP)/g)
0.00182509	4.5258
0.00400996	2.23168
0.0193041	6.92916
0.135102	8.07622
0.301153	8.73168
0.489052	9.2779
0.70317	10.425
0.827707	11.2443
0.904178	12.6645
0.95006	14.3577
0.978464	18.1813
0.982834	20.6939
0.989388	24.6266
