Adsorption isotherm of Carbon Dioxide on Cr-MIL(101)
DOI: 10.1039/C2ra20641b
Adsorbate Carbon Dioxide: InChIKey CURLTUGMZLYLDI-UHFFFAOYSA-N
Temperature: 298 K
Tabular data in the source: 0
pressure (bar)	uptake (mmol/g)
0.16463	0.42621
0.593672	1.15844
0.879701	1.59321
1.27299	2.18815
2.27409	3.08056
2.91765	3.65261
4.20478	4.68232
5.56342	5.64337
6.99356	6.49002
9.28179	7.58837
11.0337	8.36636
13.751	9.4876
16.0392	10.3114
17.6481	10.9978
19.1855	11.5012
20.5442	11.936
22.0816	12.4623
23.5475	12.8742
24.9061	13.2861
