Adsorption isotherm of Nitrogen on Cr-MIL(101)
DOI: 10.1039/C2ra20641b
Adsorbate Nitrogen: InChIKey IJGRMHOSHXDMSA-UHFFFAOYSA-N
Temperature: 77 K
Tabular data in the source: 0
pressure (bar)	uptake (cm3(STP)/g)
0.00619484	2.24687
0.0149343	285.407
0.0280436	322.112
0.0564469	366.684
0.102329	408.633
0.180985	453.205
0.244346	482.045
0.305523	489.911
0.364514	497.776
0.506531	526.617
0.644178	550.213
0.749052	579.054
0.794934	592.163
0.847371	621.003
0.897623	668.196
0.923842	710.146
0.95006	765.205
0.978464	877.944
0.987203	964.465
