Adsorption isotherm of Methane on Cr-MIL(101)
DOI: 10.1039/C2ra20641b
Adsorbate Methane: InChIKey VNWKTOKETHGBQD-UHFFFAOYSA-N
Temperature: 298 K
Tabular data in the source: 0
pressure (bar)	uptake (mmol/g)
0.66518	0.288917
1.84505	0.769445
3.3467	1.22709
4.66958	1.54744
5.95671	1.98221
7.52987	2.23391
8.96001	2.5085
12.0348	2.94326
13.3577	3.19497
14.7878	3.37803
16.2537	3.65261
19.0783	3.99585
20.4727	4.22467
22.0458	4.52214
23.4402	4.72808
24.2268	4.88826
25.0491	5.0942
