Adsorption isotherm of Nitrogen on Cr-MIL(101)
DOI: 10.1039/C2ra20641b
Adsorbate Nitrogen: InChIKey IJGRMHOSHXDMSA-UHFFFAOYSA-N
Temperature: 298 K
Tabular data in the source: 0
pressure (bar)	uptake (mmol/g)
1.63053	0.243152
3.3467	0.449093
4.95561	0.609269
7.02932	0.769445
8.42371	0.883856
9.96111	0.952503
11.3197	0.998267
14.2873	1.15844
16.2895	1.29574
18.3274	1.41015
20.2581	1.50168
22.2246	1.66185
24.2268	1.77627
25.0134	1.82203
