Adsorption isotherm of Nitrogen on Cr-MIL(101)
DOI: 10.1039/C2ra20641b
Adsorbate Nitrogen: InChIKey IJGRMHOSHXDMSA-UHFFFAOYSA-N
Temperature: 289 K
Tabular data in the source: 0
pressure (bar)	uptake (mmol/g)
1.09422	0.22027
2.27409	0.471975
3.52547	0.655033
6.09972	0.952503
8.06617	1.0898
9.74659	1.24997
11.7488	1.45591
13.751	1.61609
15.7532	1.89068
17.1476	2.02797
19.1855	2.14238
20.5442	2.30256
22.5106	2.39409
23.8692	2.55426
25.1921	2.69156
