Adsorption isotherm of Methane on Cr-MIL(101)
DOI: 10.1039/C2ra20641b
Adsorbate Methane: InChIKey VNWKTOKETHGBQD-UHFFFAOYSA-N
Temperature: 289 K
Tabular data in the source: 0
pressure (bar)	uptake (mmol/g)
1.3445	0.700798
2.4171	1.06691
3.48971	1.41015
4.27629	1.63897
5.17013	1.86779
6.20698	2.14238
7.63713	2.39409
9.13878	2.69156
10.5689	2.92038
11.9633	3.17208
12.7856	3.33226
13.5007	3.51532
15.0024	3.74414
16.647	4.04161
20.4727	4.65943
22.5821	5.00267
25.0491	5.64337
