Adsorption isotherm of Carbon Dioxide on Cr-MIL(101)
DOI: 10.1039/C2ra20641b
Adsorbate Carbon Dioxide: InChIKey CURLTUGMZLYLDI-UHFFFAOYSA-N
Temperature: 289 K
Tabular data in the source: 0
pressure (bar)	uptake (mmol/g)
0.200383	1.20421
0.736687	1.95932
1.30874	2.71444
2.13108	3.6755
2.59587	4.15602
3.23944	4.75096
3.883	5.27726
5.3489	6.46713
7.24384	7.61125
9.28179	8.73248
12.2851	10.1969
15.0381	11.4097
16.2895	11.8902
17.8269	12.4852
19.1498	12.9886
21.1162	13.5835
23.6905	14.3844
25.0849	14.8878
