Adsorption isotherm of Hydrogen on Cr3(BTC)2
DOI: 10.1021/Jp200638n
Adsorbate Hydrogen: InChIKey UFHFLCQGNIYNRP-UHFFFAOYSA-N
Temperature: 77 K
Tabular data in the source: 0
pressure (bar)	uptake (wt%)
0.00597303	0.171165
0.0146825	0.253257
0.0233723	0.321651
0.0291688	0.36953
0.0436159	0.458406
0.0638006	0.554066
0.0811214	0.649759
0.124296	0.799951
0.193295	0.984095
0.25939	1.14087
0.325447	1.27026
0.345523	1.29058
0.368494	1.33141
0.391464	1.37224
0.417278	1.39935
0.443103	1.4333
0.463209	1.47416
0.489013	1.49442
0.511964	1.52155
0.537769	1.54181
0.560729	1.57579
0.583689	1.60978
0.62096	1.63675
0.646774	1.66385
0.672569	1.67725
0.695519	1.70439
0.71848	1.73837
0.747129	1.7449
0.772943	1.772
0.795884	1.79228
0.818825	1.81257
0.847503	1.83964
0.876142	1.83931
0.901957	1.86642
0.927761	1.88667
0.950682	1.89326
0.996554	1.92698
1.02521	1.94035
1.04816	1.96749
1.09974	1.98745
1.1628	2.02097
