Adsorption isotherm of Hydrogen on Cr3(BTC)2
DOI: 10.1021/Jp200638n
Adsorbate Hydrogen: InChIKey UFHFLCQGNIYNRP-UHFFFAOYSA-N
Temperature: 87 K
Tabular data in the source: 0
pressure (bar)	uptake (wt%)
0.011642	0.130004
0.0518937	0.239134
0.0921455	0.348263
0.120863	0.40273
0.143853	0.457262
0.169687	0.498063
0.186939	0.545811
0.212744	0.566065
0.235714	0.606898
0.25582	0.647765
0.278761	0.668051
0.304585	0.702002
0.341885	0.749522
0.367699	0.776624
0.410717	0.817229
0.433677	0.851214
0.456647	0.892047
0.482442	0.905452
0.508257	0.932554
0.531197	0.95284
0.568487	0.99351
0.594292	1.01376
0.614369	1.03408
0.643047	1.06115
0.665968	1.06774
0.688919	1.09488
0.714743	1.12883
0.737654	1.12857
0.783546	1.17599
0.80934	1.18939
0.837999	1.20276
0.86094	1.22305
0.889609	1.24327
0.915413	1.26352
0.941208	1.27693
0.967013	1.29718
0.995662	1.3037
1.02147	1.32396
1.04441	1.34424
1.07306	1.35076
1.09601	1.3779
1.11033	1.37774
1.16765	1.41133
