Adsorption isotherm of Nitrogen on MOF-14
DOI: 10.1016/j.micromeso.2011.11.039
Adsorbate Nitrogen: InChIKey IJGRMHOSHXDMSA-UHFFFAOYSA-N
Temperature: 77 K
Tabular data in the source: 0
pressure (bar)	uptake (cm3(STP)/g)
1.26061e-07	5.1767
2.3594e-07	10.3534
4.94905e-07	17.7203
1.17293e-06	24.4898
2.30516e-06	30.662
4.64239e-06	37.0333
6.42927e-06	38.6262
2.00961e-05	48.3823
3.85418e-05	54.1563
7.51332e-05	60.9258
0.000199564	70.4828
0.000382738	77.4515
0.000752215	86.0129
0.00122592	92.1852
0.00246889	102.339
0.00624499	115.48
0.0101777	120.06
0.0187414	130.811
0.0557881	145.147
0.101896	153.708
0.158149	161.075
0.257744	171.827
0.365771	186.56
0.474614	196.317
0.581734	219.014
0.625954	228.173
0.657287	234.943
0.673536	245.694
0.736631	261.224
0.754841	253.26
0.888306	274.764
0.910267	275.361
