Adsorption isotherm of Nitrogen on MOF-14
DOI: 10.1016/j.micromeso.2011.11.039
Adsorbate Nitrogen: InChIKey IJGRMHOSHXDMSA-UHFFFAOYSA-N
Temperature: 77 K
Tabular data in the source: 0
pressure (bar)	uptake (cm3(STP)/g)
4.94905e-07	24.4898
7.55721e-07	29.6665
1.20191e-06	37.6307
1.95885e-06	45.5948
3.11539e-06	52.3644
5.97505e-06	63.7133
9.97865e-06	72.8721
1.96111e-05	83.6237
2.89869e-05	90.9905
4.96057e-05	100.149
7.88954e-05	108.711
0.000191603	127.427
0.000312264	137.183
0.000484654	148.532
0.000789863	158.089
0.00122592	172.424
0.00191823	184.37
0.00383188	203.683
0.00609427	217.422
0.00993234	232.155
0.0155415	249.278
0.0224172	262.817
0.0485782	282.13
0.114197	299.851
0.257744	315.182
0.374814	323.743
0.581734	340.269
0.736631	357.79
0.825552	369.736
0.888306	380.09
0.910267	380.09
