Adsorption isotherm of Nitrogen on MOF-14
DOI: 10.1016/j.micromeso.2011.11.039
Adsorbate Nitrogen: InChIKey IJGRMHOSHXDMSA-UHFFFAOYSA-N
Temperature: 77 K
Tabular data in the source: 0
pressure (bar)	uptake (cm3(STP)/g)
0.00330746	125.514
0.00368909	82.3045
0.00705106	201.646
0.00734183	168.724
0.0112853	222.222
0.0199901	236.626
0.0551	261.317
0.0947532	271.605
0.130008	279.835
0.169716	283.951
0.209406	290.123
0.284423	296.296
0.346211	300.412
0.425608	310.7
0.487396	314.815
0.535935	318.93
0.588873	325.103
0.62858	329.218
0.681536	333.333
0.734473	339.506
0.765349	343.621
0.787393	347.737
0.822648	355.967
0.853524	360.082
0.893177	370.37
0.93283	380.658
0.959235	390.947
0.963542	403.292
0.967831	417.695
