Adsorption isotherm of Nitrogen on MOF-14
DOI: 10.1016/j.micromeso.2011.11.039
Adsorbate Nitrogen: InChIKey IJGRMHOSHXDMSA-UHFFFAOYSA-N
Temperature: 77 K
Tabular data in the source: 0
pressure (bar)	uptake (cm3(STP)/g)
0.00834133	55.5556
0.0125756	76.1317
0.030076	94.6502
0.0653132	104.938
0.0961525	113.169
0.126992	121.399
0.171097	127.572
0.206425	127.572
0.246115	133.745
0.285822	137.86
0.334344	144.033
0.391679	152.263
0.440201	158.436
0.488722	164.609
0.532809	172.84
0.581295	183.128
0.634141	199.588
0.682572	216.049
0.735437	230.453
0.761914	232.51
0.797188	238.683
0.828082	240.741
0.850107	246.914
0.894231	251.029
0.916275	255.144
0.947132	261.317
0.960253	275.72
0.96456	288.066
0.96874	314.815
0.968849	302.469
