Adsorption isotherm of Nitrogen on CuBTC
DOI: 10.1016/j.micromeso.2011.11.039
Adsorbate Nitrogen: InChIKey IJGRMHOSHXDMSA-UHFFFAOYSA-N
Temperature: 77 K
Tabular data in the source: 0
pressure (bar)	uptake (cm3(STP)/g)
0.00308324	314.189
0.00324238	330.405
0.00350097	356.757
0.00736	300
0.021344	375
0.0523754	387.162
0.0701786	401.351
0.132142	415.541
0.180778	421.622
0.220581	427.703
0.260345	429.73
0.291277	431.757
0.344309	435.811
0.401717	435.811
0.459165	439.865
0.48568	441.892
0.543088	441.892
0.57402	443.919
0.61818	443.919
0.657924	443.919
0.70652	445.946
0.746264	445.946
0.808108	447.973
0.8611	447.973
0.878764	447.973
0.931796	452.027
0.958332	456.081
0.980511	466.216
