Adsorption isotherm of Nitrogen on CuBTC
DOI: 10.1016/j.micromeso.2011.11.039
Adsorbate Nitrogen: InChIKey IJGRMHOSHXDMSA-UHFFFAOYSA-N
Temperature: 77 K
Tabular data in the source: 0
pressure (bar)	uptake (cm3(STP)/g)
0.00914884	32.287
0.0180601	40.3587
0.0446353	48.4305
0.0800029	52.4664
0.146282	56.5022
0.208146	60.5381
0.305318	62.5561
0.406906	64.574
0.486413	66.5919
0.539425	68.6099
0.583585	68.6099
0.636617	72.6457
0.685213	74.6637
0.738225	76.6816
0.751473	76.6816
0.782385	76.6816
0.808881	76.6816
0.844248	80.7175
0.879616	84.7534
0.901755	90.8072
0.910627	94.843
0.928449	110.987
0.933063	131.166
0.942232	165.471
0.964589	193.722
0.978015	211.883
