Adsorption isotherm of Carbon Dioxide on PCM-11
DOI: 10.1039/C1cc10754b
Adsorbate Carbon Dioxide: InChIKey CURLTUGMZLYLDI-UHFFFAOYSA-N
Temperature: 303 K
Tabular data in the source: 0
pressure (bar)	uptake (wt%)
0.0743381	0.749082
0.520052	6.32051
1.51635	14.623
2.434	22.2701
3.50896	28.1693
4.42661	32.8667
5.44913	36.581
6.52409	39.5306
7.52039	41.7155
8.51669	43.6819
9.43434	44.8835
10.3258	45.976
11.0861	46.9592
