Adsorption isotherm of Carbon Dioxide on PCM-11
DOI: 10.1039/C1cc10754b
Adsorbate Carbon Dioxide: InChIKey CURLTUGMZLYLDI-UHFFFAOYSA-N
Temperature: 303 K
Tabular data in the source: 0
pressure (bar)	uptake (wt%)
0.0171192	0.127343
0.0761108	0.782805
0.187539	2.17238
0.270565	3.01138
0.388548	4.29608
0.497791	5.65944
0.598296	6.7344
0.700985	7.8618
0.818968	9.19894
0.919472	10.3788
0.971909	10.8245
