Adsorption isotherm of Nitrogen on Zeolite 5A
DOI: 10.1080/01496395.2010.513360
Adsorbate Nitrogen: InChIKey IJGRMHOSHXDMSA-UHFFFAOYSA-N
Temperature: 363 K
Tabular data in the source: 0
pressure (bar)	uptake (mmol/g)
0.0649072	0.00537055
0.10433	0.00766474
0.136778	0.0107366
0.159965	0.0122681
0.210969	0.0161012
0.234157	0.0176326
0.275877	0.0214717
0.296755	0.0222315
0.343117	0.0260676
0.366304	0.027599
0.408036	0.0306649
0.42889	0.0329711
0.452089	0.0337293
0.472955	0.0352623
0.498452	0.0375654
0.521639	0.0390969
0.542505	0.0406298
0.565716	0.0406149
0.579607	0.0429255
0.59583	0.0444614
0.619018	0.0459929
0.642205	0.0475244
0.658428	0.0490603
0.679294	0.0505932
0.721027	0.0536591
0.758128	0.0559548
0.781315	0.0574863
0.802182	0.0590192
0.823048	0.0605522
0.843914	0.0620851
0.876373	0.0643838
0.89956	0.0659152
0.920426	0.0674482
0.938983	0.0682094
0.96217	0.0697409
0.983024	0.072047
1.00391	0.0720336
1.02245	0.0743412
1.04565	0.0750995
1.06418	0.0774071
1.08506	0.0781668
