Adsorption isotherm of Nitrogen on Zeolite 5A
DOI: 10.1080/01496395.2010.513360
Adsorbate Nitrogen: InChIKey IJGRMHOSHXDMSA-UHFFFAOYSA-N
Temperature: 333 K
Tabular data in the source: 0
pressure (bar)	uptake (mmol/g)
0.108841	0.016167
0.166761	0.0230884
0.247832	0.0338609
0.356733	0.0461619
0.423913	0.0546238
0.495736	0.0630826
0.58377	0.0738507
0.64632	0.0815423
0.725083	0.0915431
0.799226	0.1
0.896545	0.110763
0.996185	0.121523
