Adsorption isotherm of Nitrogen on Zeolite 5A
DOI: 10.1080/01496395.2010.513360
Adsorbate Nitrogen: InChIKey IJGRMHOSHXDMSA-UHFFFAOYSA-N
Temperature: 423 K
Tabular data in the source: 0
pressure (bar)	uptake (mmol/g)
0.0463862	0.0022897
0.0927964	0.00303299
0.127601	0.00378376
0.157751	0.00531073
0.194865	0.00683321
0.215743	0.00759295
0.236633	0.00757949
0.271426	0.00910346
0.292316	0.00909
0.313194	0.00984975
0.345665	0.0113752
0.366555	0.0113618
0.387433	0.0121215
0.42688	0.0128693
0.450079	0.0136275
0.470957	0.0143873
0.494156	0.0151455
0.52201	0.0151276
0.540555	0.016662
0.561445	0.0166486
0.582311	0.0181815
0.610152	0.0189368
0.628709	0.019698
0.65192	0.019683
0.672798	0.0204428
0.700639	0.021198
0.721529	0.0211846
0.742407	0.0219443
0.765606	0.0227026
0.786484	0.0234623
0.798078	0.024228
0.816635	0.0249893
0.839834	0.0257475
0.863045	0.0257326
0.895528	0.0264848
0.918727	0.0272431
0.939593	0.028776
0.95815	0.0295373
0.976719	0.0295253
1.00224	0.0302821
1.02545	0.0302671
1.04865	0.0310254
1.07185	0.0317836
1.09273	0.0325433
1.11362	0.0325299
