Adsorption isotherm of Carbon Dioxide on Zeolite 5A
DOI: 10.1080/01496395.2010.513360
Adsorbate Carbon Dioxide: InChIKey CURLTUGMZLYLDI-UHFFFAOYSA-N
Temperature: 333 K
Tabular data in the source: 0
pressure (bar)	uptake (mmol/g)
0.0192422	0.668489
0.0412736	1.02777
0.0723784	1.37716
0.105849	1.66672
0.146197	1.90645
0.200231	2.08645
0.28363	2.3066
0.392003	2.48705
0.51854	2.63773
0.645161	2.73853
0.760496	2.81929
0.900735	2.90026
1.0048	2.951
