Adsorption isotherm of Carbon Dioxide on Zeolite 5A
DOI: 10.1080/01496395.2010.513360
Adsorbate Carbon Dioxide: InChIKey CURLTUGMZLYLDI-UHFFFAOYSA-N
Temperature: 363 K
Tabular data in the source: 0
pressure (bar)	uptake (mmol/g)
0.0198689	0.299417
0.0444016	0.519072
0.0824681	0.768765
0.118321	0.988515
0.161035	1.16842
0.201535	1.31838
0.27135	1.53842
0.381885	1.77874
0.512865	1.97933
0.63484	2.14992
0.793125	2.27093
0.89033	2.36152
0.998872	2.44222
