Adsorption isotherm of Nitrogen on Zeolite 5A
DOI: 10.1080/01496395.2010.513360
Adsorbate Nitrogen: InChIKey IJGRMHOSHXDMSA-UHFFFAOYSA-N
Temperature: 423 K
Tabular data in the source: 0
pressure (bar)	uptake (mmol/g)
0.120602	0.00610786
0.176308	0.00607197
0.252881	0.00756902
0.338714	0.0106065
0.417584	0.0136485
0.517355	0.0159038
0.598558	0.018171
0.693676	0.0212025
0.788793	0.024234
0.872329	0.0257266
0.992955	0.030288
