Adsorption isotherm of Carbon Dioxide on Zeolite 5A
DOI: 10.1080/01496395.2010.513360
Adsorbate Carbon Dioxide: InChIKey CURLTUGMZLYLDI-UHFFFAOYSA-N
Temperature: 303 K
Tabular data in the source: 0
pressure (bar)	uptake (mmol/g)
0.0136807	1.27692
0.03316	1.80576
0.0618991	2.21498
0.0977185	2.45468
0.144977	2.62465
0.210349	2.79477
0.341329	2.99536
0.585515	3.19689
0.734828	3.26795
0.886422	3.32906
0.997296	3.36989
