Adsorption isotherm of Carbon Dioxide on Zeolite 5A
DOI: 10.1080/01496395.2010.513360
Adsorbate Carbon Dioxide: InChIKey CURLTUGMZLYLDI-UHFFFAOYSA-N
Temperature: 393 K
Tabular data in the source: 0
pressure (bar)	uptake (mmol/g)
0.0246004	0.179756
0.0561118	0.289743
0.0830779	0.409668
0.123612	0.539681
0.157421	0.629737
0.198006	0.729825
0.290496	0.930096
0.39206	1.12047
0.514051	1.28108
0.640537	1.46168
0.776164	1.59249
0.90951	1.73325
0.995461	1.78384
