Adsorption isotherm of Nitrogen on Zeolite 5A
DOI: 10.1080/01496395.2010.513360
Adsorbate Nitrogen: InChIKey IJGRMHOSHXDMSA-UHFFFAOYSA-N
Temperature: 333 K
Tabular data in the source: 0
pressure (bar)	uptake (mmol/g)
0.0300906	0.00539298
0.0625263	0.00923806
0.0833804	0.0115442
0.120446	0.0161595
0.141288	0.0192389
0.176045	0.0230824
0.194566	0.0261633
0.213087	0.0292441
0.236262	0.0315488
0.261735	0.0353984
0.282577	0.0384777
0.305752	0.0407824
0.324273	0.0438632
0.347436	0.0469411
0.372932	0.0492442
0.391453	0.0523251
0.407665	0.0546342
0.433162	0.0569374
0.451694	0.059245
0.474858	0.0623229
0.518875	0.0677069
0.539717	0.0707863
0.560571	0.0730924
0.595316	0.0777092
0.61617	0.0800154
0.634715	0.0815498
0.653236	0.0846306
0.67409	0.0869368
0.694944	0.0892429
0.715798	0.0915491
0.73664	0.0946285
0.759815	0.0969331
0.780669	0.0992393
0.822366	0.104625
0.84322	0.106931
0.864074	0.109237
0.908103	0.113848
0.928945	0.116927
0.949799	0.119233
0.970653	0.12154
1.03785	0.129228
1.0587	0.131534
1.07955	0.13384
1.09809	0.136148
