Adsorption isotherm of Carbon Dioxide on Zeolite 5A
DOI: 10.1080/01496395.2010.513360
Adsorbate Carbon Dioxide: InChIKey CURLTUGMZLYLDI-UHFFFAOYSA-N
Temperature: 333 K
Tabular data in the source: 0
pressure (bar)	uptake (mmol/g)
0.0128902	0.409085
0.0215232	0.658533
0.0279768	0.858088
0.0412736	1.02777
0.0545195	1.22739
0.0723784	1.37716
0.0902034	1.54688
0.105866	1.65674
0.12604	1.77661
0.150725	1.90649
0.179989	2.00648
0.202495	2.08647
0.243062	2.19653
0.288159	2.30663
0.340081	2.39684
0.396531	2.48709
0.450769	2.54739
0.520821	2.62777
0.599946	2.69825
0.645161	2.73853
0.76276	2.81931
0.832897	2.84982
0.907579	2.87039
0.982227	2.91091
1.04332	2.93137
1.12476	2.97194
