Adsorption isotherm of Nitrogen on Zeolite 5A
DOI: 10.1080/01496395.2010.513360
Adsorbate Nitrogen: InChIKey IJGRMHOSHXDMSA-UHFFFAOYSA-N
Temperature: 303 K
Tabular data in the source: 0
pressure (bar)	uptake (mmol/g)
0.048492	0.0162059
0.129408	0.03703
0.212644	0.0578527
0.268124	0.0725077
0.346742	0.0917869
0.418421	0.109524
0.5225	0.133426
0.601143	0.151159
0.679797	0.168119
0.746894	0.181993
0.834809	0.200493
0.883396	0.210513
1.05694	0.245195
