Adsorption isotherm of Nitrogen on Zeolite 5A
DOI: 10.1080/01496395.2010.513360
Adsorbate Nitrogen: InChIKey IJGRMHOSHXDMSA-UHFFFAOYSA-N
Temperature: 393 K
Tabular data in the source: 0
pressure (bar)	uptake (mmol/g)
0.0672403	0.00459585
0.104366	0.00534512
0.153073	0.00763333
0.194829	0.00915282
0.213386	0.00991406
0.22498	0.0106798
0.245846	0.0122127
0.287602	0.0137322
0.30848	0.014492
0.343261	0.0167891
0.361829	0.0167772
0.382695	0.0183101
0.403573	0.0190699
0.424451	0.0198296
0.44765	0.0205879
0.47085	0.0213461
0.489406	0.0221073
0.512594	0.0236388
0.53346	0.0251717
0.561313	0.0251538
0.5845	0.0266852
0.605366	0.0282182
0.630898	0.0282017
0.651764	0.0297347
0.67263	0.0312676
0.695829	0.0320259
0.72598	0.0335528
0.74687	0.0335394
0.763094	0.0350753
0.781639	0.0366098
0.814122	0.037362
0.835	0.0381218
0.848915	0.038886
0.872114	0.0396443
0.923142	0.041931
0.946341	0.0426892
0.964898	0.0434505
0.983443	0.0449849
1.03216	0.0464999
1.05073	0.0464879
1.0716	0.0480209
1.09478	0.0495523
