Adsorption isotherm of Carbon Dioxide on Zeolite 5A
DOI: 10.1080/01496395.2010.513360
Adsorbate Carbon Dioxide: InChIKey CURLTUGMZLYLDI-UHFFFAOYSA-N
Temperature: 303 K
Tabular data in the source: 0
pressure (bar)	uptake (mmol/g)
0.00361356	0.538683
0.00765058	0.827994
0.00959286	1.01754
0.0160126	1.23704
0.0180396	1.37671
0.0245101	1.56629
0.0265201	1.71593
0.0353395	1.85566
0.046406	2.00537
0.0597535	2.14514
0.0663257	2.27487
0.0887636	2.39475
0.108954	2.50465
0.124685	2.5746
0.151685	2.67458
0.169696	2.73458
0.187741	2.77463
0.221584	2.84473
0.239613	2.89476
0.257692	2.91486
0.280265	2.95495
0.300591	2.98504
0.316406	3.00512
0.357093	3.04536
0.377453	3.05551
0.40006	3.07564
0.420386	3.10574
0.440747	3.11588
0.458843	3.12601
0.48145	3.14615
0.50181	3.15629
0.510833	3.17632
0.53121	3.17649
0.551553	3.1966
0.571913	3.20675
0.596801	3.21693
0.617179	3.2171
0.637539	3.22724
0.657882	3.24736
0.680506	3.25753
0.70313	3.26769
0.743868	3.278
0.764228	3.28815
0.784588	3.29829
0.807212	3.30846
0.827589	3.30863
0.845702	3.30878
0.868326	3.31894
0.886405	3.33904
0.906782	3.33921
0.920367	3.33932
0.938463	3.34945
0.961104	3.34964
0.983746	3.34982
1.02675	3.36016
1.04711	3.3703
1.06975	3.37049
1.09011	3.38063
1.11275	3.38082
1.13311	3.39097
