Adsorption isotherm of Carbon Dioxide on Zeolite 5A
DOI: 10.1080/01496395.2010.513360
Adsorbate Carbon Dioxide: InChIKey CURLTUGMZLYLDI-UHFFFAOYSA-N
Temperature: 393 K
Tabular data in the source: 0
pressure (bar)	uptake (mmol/g)
0.0111681	0.0898684
0.0381682	0.189843
0.0516343	0.259781
0.0673477	0.339712
0.101072	0.479643
0.132584	0.589631
0.161865	0.67965
0.186668	0.739706
0.204697	0.789731
0.222725	0.839757
0.254321	0.89987
0.272349	0.949895
0.297187	0.990002
0.315232	1.03005
0.335541	1.07012
0.358115	1.11021
0.378441	1.1403
0.394239	1.17036
0.416829	1.20047
0.437156	1.23057
0.464257	1.27069
0.484601	1.29081
0.525253	1.351
0.54786	1.37114
0.572698	1.41124
0.595305	1.43138
0.615648	1.4515
0.647312	1.47171
0.667638	1.50181
0.701532	1.54199
0.72414	1.56213
0.7445	1.57227
0.76709	1.60239
0.810058	1.63267
0.832665	1.65281
0.853008	1.67293
0.873351	1.69305
0.891447	1.70317
0.929887	1.73342
0.950247	1.74356
0.970607	1.7537
1.01133	1.77399
1.03167	1.79411
1.05201	1.81423
1.07464	1.82439
1.09726	1.83456
1.11761	1.85468
1.13798	1.85485
