Adsorption isotherm of Nitrogen on Zeolite 5A
DOI: 10.1080/01496395.2010.513360
Adsorbate Nitrogen: InChIKey IJGRMHOSHXDMSA-UHFFFAOYSA-N
Temperature: 393 K
Tabular data in the source: 0
pressure (bar)	uptake (mmol/g)
0.125232	0.00687807
0.176261	0.00916478
0.269057	0.0121978
0.327025	0.0160264
0.39661	0.0190743
0.463874	0.0221238
0.556671	0.0251568
0.626244	0.0289779
0.714386	0.0327871
0.797862	0.0381457
0.881386	0.0404115
0.997358	0.0457491
