Adsorption isotherm of Nitrogen on Zeolite 5A
DOI: 10.1080/01496395.2010.513360
Adsorbate Nitrogen: InChIKey IJGRMHOSHXDMSA-UHFFFAOYSA-N
Temperature: 363 K
Tabular data in the source: 0
pressure (bar)	uptake (mmol/g)
0.0556348	0.00460333
0.120542	0.00997388
0.185473	0.013798
0.264295	0.0199328
0.329202	0.0253033
0.394109	0.0306739
0.491512	0.0360235
0.568001	0.042933
0.644502	0.0490693
0.746535	0.0551891
0.86478	0.0636181
1.01087	0.0728023
