Adsorption isotherm of Nitrogen on Zeolite 5A
DOI: 10.1080/01496395.2010.513360
Adsorbate Nitrogen: InChIKey IJGRMHOSHXDMSA-UHFFFAOYSA-N
Temperature: 303 K
Tabular data in the source: 0
pressure (bar)	uptake (mmol/g)
0.0231153	0.00617067
0.0531581	0.0146565
0.0762615	0.0216003
0.0947705	0.0254544
0.168735	0.0455098
0.194159	0.0524522
0.226523	0.0609365
0.245032	0.0647906
0.263529	0.0694178
0.284347	0.0740436
0.302845	0.0786708
0.319021	0.0832996
0.356027	0.0917809
0.374524	0.0964082
0.390724	0.0994905
0.409221	0.104118
0.427706	0.109518
0.446215	0.113372
0.464724	0.117226
0.478603	0.12031
0.494779	0.124939
0.515609	0.128791
0.531797	0.132647
0.550306	0.136501
0.610439	0.15038
0.628948	0.154234
0.649766	0.15886
0.665954	0.162715
0.689093	0.16734
0.707602	0.171194
0.726111	0.175048
0.767748	0.184299
0.788578	0.188152
0.807087	0.192006
0.846414	0.200486
0.867256	0.203565
0.890372	0.209736
0.908893	0.212816
0.929723	0.216669
0.950553	0.220522
0.959813	0.222062
0.97831	0.226689
0.996831	0.22977
1.01766	0.233623
1.03617	0.237477
1.07088	0.244413
1.09171	0.248266
