Adsorption isotherm of Carbon Dioxide on Zeolite 5A
DOI: 10.1080/01496395.2010.513360
Adsorbate Carbon Dioxide: InChIKey CURLTUGMZLYLDI-UHFFFAOYSA-N
Temperature: 423 K
Tabular data in the source: 0
pressure (bar)	uptake (mmol/g)
0.0225396	0.0600377
0.0428319	0.110082
0.0766582	0.190163
0.11503	0.260308
0.151137	0.330433
0.189492	0.410553
0.216593	0.450678
0.236903	0.490747
0.254965	0.520823
0.291106	0.570998
0.311432	0.601093
0.331758	0.631187
0.352102	0.651306
0.374675	0.691394
0.417625	0.731651
0.437952	0.761745
0.460542	0.791858
0.480885	0.811977
0.541898	0.88231
0.562241	0.902429
0.580337	0.912555
0.602944	0.932693
0.643631	0.972931
0.663991	0.983076
0.686598	1.00321
0.70466	1.03329
0.725021	1.04343
0.747645	1.0536
0.779292	1.08378
0.801899	1.10392
0.822259	1.11407
0.847131	1.13422
0.867474	1.15434
0.903666	1.17459
0.924009	1.19471
0.946633	1.20488
0.966993	1.21502
1.00317	1.24525
1.02579	1.25541
1.0484	1.27555
1.07102	1.28571
1.09365	1.29587
1.11401	1.30602
1.13437	1.31616
