Adsorption isotherm of Carbon Dioxide on Zeolite 5A
DOI: 10.1080/01496395.2010.513360
Adsorbate Carbon Dioxide: InChIKey CURLTUGMZLYLDI-UHFFFAOYSA-N
Temperature: 363 K
Tabular data in the source: 0
pressure (bar)	uptake (mmol/g)
0.0132968	0.169687
0.0333012	0.389304
0.0533395	0.588972
0.0712492	0.708822
0.0913552	0.86859
0.120518	1.02843
0.14522	1.14834
0.165444	1.23828
0.192444	1.33826
0.228518	1.42833
0.264558	1.53836
0.298401	1.60847
0.334491	1.68857
0.37288	1.74874
0.42029	1.82893
0.458662	1.89907
0.506107	1.95932
0.551321	1.9996
0.639402	2.13
0.657532	2.12018
0.677892	2.13032
0.698235	2.15044
0.720842	2.17058
0.741186	2.1907
0.76381	2.20086
0.786417	2.221
0.809024	2.24114
0.829368	2.26126
0.851992	2.27142
0.872352	2.28157
0.917567	2.32184
0.93791	2.34196
0.95827	2.35211
0.980911	2.35229
1.0058	2.36248
1.02841	2.38261
1.04875	2.40273
1.07139	2.40292
1.09402	2.41308
1.11438	2.42323
1.13474	2.43337
