Adsorption isotherm of Carbon Dioxide on Zeolite 5A
DOI: 10.1080/01496395.2010.513360
Adsorbate Carbon Dioxide: InChIKey CURLTUGMZLYLDI-UHFFFAOYSA-N
Temperature: 423 K
Tabular data in the source: 0
pressure (bar)	uptake (mmol/g)
0.0247529	0.0899813
0.0450622	0.13005
0.0698659	0.190107
0.0856469	0.230138
0.119507	0.29027
0.144328	0.340352
0.171429	0.380477
0.207554	0.440628
0.275308	0.540942
0.399546	0.711551
0.530679	0.822366
0.634676	0.913006
0.765792	1.0338
0.89243	1.12463
0.991933	1.19528
