Adsorption isotherm of Hydrogen on Cu(BDC-OH)
DOI: 10.1002/ejic.201000349
Adsorbate Hydrogen: InChIKey UFHFLCQGNIYNRP-UHFFFAOYSA-N
Temperature: 77 K
Tabular data in the source: 0
pressure (bar)	uptake (cm3(STP)/g)
0.0105646	1.6979
0.0171192	12.8845
0.0411528	35.6071
0.08922	57.9803
0.17006	79.6542
0.281489	97.4828
0.4388	111.816
0.628884	122.303
0.845186	132.441
1.05712	138.733
