Adsorption isotherm of Methane on Cu(BDC-OH)
DOI: 10.1002/ejic.201000349
Adsorbate Methane: InChIKey VNWKTOKETHGBQD-UHFFFAOYSA-N
Temperature: 296 K
Tabular data in the source: 0
pressure (bar)	uptake (cm3(STP)/g)
0.0389901	0.767806
0.18258	3.12747
0.335434	5.22495
0.441968	6.53587
0.550819	7.97789
0.666617	9.41991
0.775467	10.5997
0.886634	11.9107
0.98622	12.9594
1.06728	13.746
