Adsorption isotherm of Acetylene on Cu(BDC-OH)
DOI: 10.1002/ejic.201000349
Adsorbate Acetylene: InChIKey HSFWRNGVRCDJHI-UHFFFAOYSA-N
Temperature: 296 K
Tabular data in the source: 0
pressure (bar)	uptake (cm3(STP)/g)
0.0181464	3.12747
0.0714136	9.81318
0.145525	17.2855
0.235847	23.4468
0.333118	28.6905
0.479024	34.5897
0.62493	38.2602
0.768519	40.6199
0.914425	42.193
1.01633	43.1107
