Adsorption isotherm of Nitrogen on Cu(BDC-OH)
DOI: 10.1002/ejic.201000349
Adsorbate Nitrogen: InChIKey IJGRMHOSHXDMSA-UHFFFAOYSA-N
Temperature: 77 K
Tabular data in the source: 0
pressure (bar)	uptake (cm3(STP)/g)
0.00182509	19.1769
0.00182509	50.9887
0.00182509	73.3618
0.00400996	91.1903
0.00400996	104.474
0.00837971	114.263
0.0498923	124.4
0.187539	130.343
0.489052	133.839
0.858296	136.636
0.952245	139.782
