Adsorption isotherm of Carbon Dioxide on Cu(BDC-OH)
DOI: 10.1002/ejic.201000349
Adsorbate Carbon Dioxide: InChIKey CURLTUGMZLYLDI-UHFFFAOYSA-N
Temperature: 296 K
Tabular data in the source: 0
pressure (bar)	uptake (cm3(STP)/g)
0.0389901	3.78293
0.184896	17.6787
0.259007	22.9224
0.328486	27.2485
0.404913	31.3123
0.516079	36.556
0.627246	40.8821
0.736096	44.6838
0.886634	48.7476
0.995484	51.6317
1.06265	53.5981
