Adsorption isotherm of Methanol on Cu(BDC-OH)
DOI: 10.1002/ejic.201000349
Adsorbate Methanol: InChIKey OKKJLVBELUTLKV-UHFFFAOYSA-N
Temperature: 298 K
Tabular data in the source: 0
pressure (bar)	uptake (wt%)
0.00134075	0.0368304
0.00203991	0.115486
0.00623487	0.250948
0.011129	0.358007
0.0209172	0.436662
0.0443391	0.548091
0.0548265	0.604898
0.0848903	0.683553
0.10202	0.727251
0.124043	0.773133
0.148514	0.808091
0.157603	0.81683
