Adsorption isotherm of Nitrogen on C-Zn-NDC
DOI: 10.1021/Cg401122u
Adsorbate Nitrogen: InChIKey IJGRMHOSHXDMSA-UHFFFAOYSA-N
Temperature: 77 K
Tabular data in the source: 0
pressure (bar)	uptake (cm3(STP)/g)
0.0108756	205.139
0.0738019	239.462
0.15103	254.479
0.274022	278.076
0.425617	295.238
0.499985	305.964
0.577212	316.69
0.678752	327.416
0.75598	329.561
0.824627	340.287
0.877542	355.304
0.930458	372.465
0.95048	396.063
0.977652	436.822
