Adsorption isotherm of Nitrogen on C-MOF-2
DOI: 10.1021/Cg401122u
Adsorbate Nitrogen: InChIKey IJGRMHOSHXDMSA-UHFFFAOYSA-N
Temperature: 77 K
Tabular data in the source: 0
pressure (bar)	uptake (cm3(STP)/g)
0.0194565	310.254
0.0723718	351.013
0.201085	396.063
0.299764	419.66
0.475672	462.564
0.575782	479.726
0.674462	501.178
0.778862	524.776
0.85466	544.083
0.907575	565.535
0.927597	586.987
0.9562	642.763
0.971932	775.766
