Adsorption isotherm of Hydrogen on C-Zn-PAA
DOI: 10.1021/Cg401122u
Adsorbate Hydrogen: InChIKey UFHFLCQGNIYNRP-UHFFFAOYSA-N
Temperature: 77 K
Tabular data in the source: 0
pressure (bar)	uptake (cm3(STP)/g)
0.00421011	22.3123
0.00843546	36.2841
0.0239284	51.1574
0.0450552	63.101
0.0999848	78.6503
0.171816	90.8193
0.249281	100.284
0.326745	107.27
0.429562	115.157
0.525337	119.664
0.601393	122.819
0.674633	125.974
0.754914	129.355
0.781675	130.256
