Adsorption isotherm of Hydrogen on C-MOF-2
DOI: 10.1021/Cg401122u
Adsorbate Hydrogen: InChIKey UFHFLCQGNIYNRP-UHFFFAOYSA-N
Temperature: 77 K
Tabular data in the source: 0
pressure (bar)	uptake (cm3(STP)/g)
0.00843546	59.1587
0.0337876	83.8066
0.0774495	107.398
0.184492	142.609
0.264773	159.159
0.363365	172.891
0.442238	181.342
0.547872	191.905
0.626745	197.891
0.708435	204.229
0.7859	209.511
0.866182	214.793
0.946464	219.37
0.973224	220.778
