Adsorption isotherm of Hydrogen on C-MOF-5
DOI: 10.1021/Cg401122u
Adsorbate Hydrogen: InChIKey UFHFLCQGNIYNRP-UHFFFAOYSA-N
Temperature: 77 K
Tabular data in the source: 0
pressure (bar)	uptake (cm3(STP)/g)
0.00702701	36.6235
0.0211115	61.6235
0.0478721	86.9756
0.0816749	108.102
0.173224	144.37
0.232379	160.215
0.312661	179.933
0.443647	201.412
0.523928	212.68
0.599985	222.539
0.684492	231.342
0.788717	241.905
0.864774	249.652
0.919703	254.229
0.973224	257.398
