Adsorption isotherm of Nitrogen on C-Zn-BTC
DOI: 10.1021/Cg401122u
Adsorbate Nitrogen: InChIKey IJGRMHOSHXDMSA-UHFFFAOYSA-N
Temperature: 77 K
Tabular data in the source: 0
pressure (bar)	uptake (cm3(STP)/g)
0.025177	284.512
0.0981143	331.706
0.172482	368.175
0.272592	391.772
0.427047	421.805
0.499985	434.677
0.577212	449.693
0.677322	469
0.75455	490.452
0.828917	505.469
0.898994	518.34
0.95334	529.066
0.981943	541.937
