Adsorption isotherm of Nitrogen on C-MOF-5
DOI: 10.1021/Cg401122u
Adsorbate Nitrogen: InChIKey IJGRMHOSHXDMSA-UHFFFAOYSA-N
Temperature: 77 K
Tabular data in the source: 0
pressure (bar)	uptake (cm3(STP)/g)
0.00229475	39.9572
0.00229475	241.607
0.0108756	400.353
0.0266072	458.274
0.125287	561.244
0.329798	668.505
0.427047	715.7
0.527157	773.621
0.631558	833.687
0.731668	900.188
0.827487	968.835
0.907575	1026.76
0.95191	1088.97
0.981943	1232.7
