Adsorption isotherm of Hydrogen on C-Zn-NDC
DOI: 10.1021/Cg401122u
Adsorbate Hydrogen: InChIKey UFHFLCQGNIYNRP-UHFFFAOYSA-N
Temperature: 77 K
Tabular data in the source: 0
pressure (bar)	uptake (cm3(STP)/g)
0.00280166	3.52494
0.00421011	54.2292
0.0464636	96.8348
0.0971678	117.609
0.17745	137.328
0.271816	152.821
0.352097	162.68
0.446464	171.835
0.550689	180.99
0.621112	187.328
0.699985	191.905
0.776041	196.835
0.849281	200.356
