Adsorption isotherm of Hydrogen on C-Zn-ADA
DOI: 10.1021/Cg401122u
Adsorbate Hydrogen: InChIKey UFHFLCQGNIYNRP-UHFFFAOYSA-N
Temperature: 77 K
Tabular data in the source: 0
pressure (bar)	uptake (cm3(STP)/g)
0.00280166	0.903848
0.00843546	20.2841
0.0211115	32.6785
0.0478721	45.7489
0.0943509	62.1996
0.147872	74.8193
0.22252	89.0165
0.301393	100.059
0.418295	113.129
0.508435	121.467
0.629562	130.932
0.728154	136.34
0.828154	141.974
0.930971	147.157
