Adsorption isotherm of Nitrogen on Zn-ADA-ADS
DOI: 10.1021/Cg401122u
Adsorbate Nitrogen: InChIKey IJGRMHOSHXDMSA-UHFFFAOYSA-N
Temperature: 77 K
Tabular data in the source: 0
pressure (bar)	uptake (cm3(STP)/g)
0.00280166	1.41607
0.00561856	135.219
0.0253369	147.895
0.0859002	158.458
0.190126	167.613
0.307027	176.064
0.436604	183.81
0.539421	191.557
0.646464	199.303
0.738013	211.979
0.849281	240.148
0.895759	267.613
0.939421	300.008
0.968999	350.008
0.968999	361.275
0.988717	403.529
