Adsorption isotherm of Nitrogen on Zn-PAA-ADS
DOI: 10.1021/Cg401122u
Adsorbate Nitrogen: InChIKey IJGRMHOSHXDMSA-UHFFFAOYSA-N
Temperature: 77 K
Tabular data in the source: 0
pressure (bar)	uptake (cm3(STP)/g)
0.00139321	37.3316
0.00421011	112.684
0.0211115	123.247
0.0985763	133.81
0.225337	145.078
0.325337	152.12
0.425337	158.458
0.523928	165.501
0.601393	171.134
0.701393	182.402
0.799985	197.895
0.847872	211.979
0.878858	226.064
0.897168	247.191
0.925337	290.148
0.950689	383.106
