Adsorption isotherm of Hydrogen on C-Zn-BTC
DOI: 10.1021/Cg401122u
Adsorbate Hydrogen: InChIKey UFHFLCQGNIYNRP-UHFFFAOYSA-N
Temperature: 77 K
Tabular data in the source: 0
pressure (bar)	uptake (cm3(STP)/g)
0.00280166	23.9475
0.02252	50.0038
0.0464636	66.5531
0.0957594	87.6799
0.152097	104.933
0.219703	119.37
0.301393	130.638
0.399985	143.314
0.497168	152.821
0.597168	160.567
0.697168	168.314
0.776041	172.539
0.849281	177.469
