Adsorption isotherm of Nitrogen on PCOF-2
DOI: 10.1039/c9nj04017j
Article source: Figure 2g
Adsorbate Nitrogen: InChIKey IJGRMHOSHXDMSA-UHFFFAOYSA-N
Kind: experiment
Temperature: 77 K
Tabular data in the source: 0
pressure (bar)	uptake (cm3(STP)/g)
0.001967	0
0.001967	6.34328
0.001967	15.2985
0.001967	21.6418
0.005902	29.8507
0.00787	35.0746
0.013772	39.9254
0.066894	55.2239
0.118049	58.9552
0.169203	61.194
0.222325	63.0597
0.273479	65.2985
0.328568	66.791
0.377755	68.2836
0.430877	69.7761
0.482032	70.5224
0.535153	71.6418
0.588275	73.1343
0.63943	74.2537
0.696486	75.3731
0.749608	76.4925
0.80273	78.3582
0.853884	79.8507
0.903071	83.9552
0.960128	96.2687
0.98964	109.701
0.995543	116.418
1.00538	124.627
1.01128	139.552
0.025577	55.597
0.055089	62.6866
0.078699	64.5522
0.104276	66.0448
0.153463	67.9104
0.17904	68.2836
0.204617	69.7761
0.232162	70.1493
0.255772	70.5224
0.281349	71.2687
0.306926	71.2687
0.358081	72.3881
0.383658	72.7612
0.411202	73.5075
0.434812	73.5075
0.462357	73.8806
0.509576	75.7463
0.560731	76.8657
0.58434	76.4925
0.611885	76.4925
0.637462	76.8657
0.661072	76.8657
0.686649	77.6119
0.714194	77.9851
0.765348	78.7313
0.790925	79.4776
0.816502	80.597
0.84208	82.0896
0.867657	83.9552
0.889299	90.6716
0.914876	94.7761
0.938486	97.0149
0.962096	110.821
0.991608	122.761
1.00932	139.925
