Adsorption isotherm of Nitrogen on PCOF-1-Co
DOI: 10.1039/c9nj04017j
Article source: Figure S16c
Adsorbate Nitrogen: InChIKey IJGRMHOSHXDMSA-UHFFFAOYSA-N
Kind: experiment
Temperature: 77 K
Tabular data in the source: 0
pressure (bar)	uptake (cm3(STP)/g)
0	11.2069
0.002324	34.4828
0.004648	55.1724
0.013944	68.9655
0.030212	75.8621
0.065071	83.6207
0.081339	86.2069
0.102255	87.931
0.12317	90.0862
0.144086	91.8103
0.165002	93.1034
0.183593	94.3966
0.204509	95.2586
0.253312	97.8448
0.306764	99.569
0.357891	101.293
0.406694	102.586
0.457822	103.879
0.508949	104.741
0.557752	106.034
0.60888	106.897
0.660007	108.19
0.70881	109.052
0.762261	109.914
0.811065	111.207
0.831981	112.069
0.862192	113.362
0.887756	114.224
0.913319	115.948
0.936559	117.241
0.962123	120.259
0.987686	125
0.994658	128.448
1.00395	134.052
1.0086	139.224
0.144086	107.759
0.204509	110.776
0.255636	112.5
0.30444	113.362
0.336975	114.224
0.399722	115.086
0.460146	115.948
0.443878	115.948
0.506625	121.552
0.557752	121.983
0.60888	121.983
0.660007	122.414
0.70881	122.845
0.759937	123.276
0.792473	123.276
0.818037	123.707
0.8436	124.138
0.869164	124.569
0.894728	125.431
0.920291	127.155
0.950503	130.172
0.985362	137.069
