Adsorption isotherm of Nitrogen on PCOF-2-Co
DOI: 10.1039/c9nj04017j
Article source: Figure S16b
Adsorbate Nitrogen: InChIKey IJGRMHOSHXDMSA-UHFFFAOYSA-N
Kind: experiment
Temperature: 77 K
Tabular data in the source: 0
pressure (bar)	uptake (cm3(STP)/g)
0.00729	41.1744
0.031335	55.2215
0.064239	59.5242
0.079426	60.7897
0.098409	62.0552
0.121189	63.0676
0.141438	64.08
0.160421	64.5862
0.183201	65.2189
0.202184	65.915
0.252806	67.3703
0.302163	68.3827
0.35405	69.3951
0.405938	70.1544
0.454029	70.9137
0.505916	71.673
0.556538	72.3057
0.60716	73.065
0.657782	73.4447
0.708404	74.0774
0.760292	74.8367
0.809648	75.9757
0.829897	76.4819
0.862801	77.3678
0.885581	78.5067
0.910892	80.2784
0.934938	84.328
0.960249	90.0228
0.986825	96.4768
0.994419	100.78
1.00201	105.842
1.00328	112.245
0.98556	104.551
0.976701	100.704
0.955187	96.8576
0.931141	94.4213
0.909627	90.9591
0.88305	86.5994
0.855208	84.4195
0.832428	82.4961
0.808383	80.5727
0.75523	79.5469
0.689421	78.5211
0.635002	78.2646
0.604629	78.1364
0.554007	77.88
0.500854	77.6235
0.450232	76.4695
0.39961	75.059
0.350254	74.1614
0.298366	73.7767
0.246479	72.8791
0.197122	71.4686
0.140172	69.0323
