Adsorption isotherm of Nitrogen on PCOF-2-Fe
DOI: 10.1039/c9nj04017j
Article source: Figure S16d
Adsorbate Nitrogen: InChIKey IJGRMHOSHXDMSA-UHFFFAOYSA-N
Kind: experiment
Temperature: 77 K
Tabular data in the source: 0
pressure (bar)	uptake (cm3(STP)/g)
0.009317	16.2791
0.03261	35.8804
0.065221	42.1927
0.081526	44.186
0.10016	45.8472
0.121124	47.5083
0.139759	48.505
0.160722	49.8339
0.181686	50.4983
0.200321	51.495
0.251566	53.1561
0.30514	54.8173
0.356384	56.4784
0.4053	57.4751
0.454216	58.4718
0.50546	59.4684
0.556705	60.4651
0.60795	61.1296
0.659195	62.1262
0.70811	63.1229
0.759355	64.1196
0.8106	65.4485
0.831564	66.113
0.861845	67.7741
0.885138	69.4352
0.91076	71.7608
0.936383	75.7475
0.959676	83.3887
0.985298	96.0133
0.994616	100.664
1.0016	107.973
0.139759	56.4784
0.197991	58.804
0.249236	60.4651
0.300481	61.4618
0.349397	62.4585
0.400641	63.4552
0.451886	64.784
0.500802	66.113
0.552047	66.7774
0.603291	67.1096
0.635902	67.4419
0.687147	68.1063
0.757026	68.7708
0.805941	70.4319
0.831564	72.093
0.854857	74.7508
0.882809	81.0631
0.908431	88.3721
0.917748	90.6977
0.943371	95.3488
0.966664	100.997
0.985298	106.645
1.0016	112.957
