Adsorption isotherm of Nitrogen on PCOF-1
DOI: 10.1039/c9nj04017j
Article source: Figure 2f
Adsorbate Nitrogen: InChIKey IJGRMHOSHXDMSA-UHFFFAOYSA-N
Kind: experiment
Temperature: 77 K
Tabular data in the source: 0
pressure (bar)	uptake (cm3(STP)/g)
0	5.70342
0	28.8973
0.001987	51.3308
0.007947	69.2015
0.019868	78.7072
0.031788	82.5095
0.06159	88.9734
0.081457	90.8745
0.101325	92.7757
0.119206	94.2966
0.139074	95.8175
0.160928	97.3384
0.182782	98.4791
0.200663	99.6198
0.252319	101.141
0.303975	103.802
0.353644	104.943
0.4053	106.464
0.456956	107.224
0.506625	108.745
0.558281	109.506
0.60795	111.027
0.659606	111.787
0.709275	113.688
0.762918	114.829
0.8106	115.589
0.834441	116.73
0.860269	119.011
0.886097	119.772
0.913912	122.433
0.93974	123.954
0.963581	126.996
0.987422	133.08
0.997356	137.262
1.00332	145.627
0.14106	108.365
0.20265	111.027
0.254306	112.548
0.301988	114.068
0.333776	114.449
0.397353	115.97
0.458943	117.11
0.504638	122.814
0.556294	123.574
0.60795	124.715
0.657619	125.475
0.709275	126.616
0.758944	126.996
0.790732	127.757
0.834441	128.897
0.862256	129.658
0.896031	132.319
0.923846	133.84
0.949674	138.403
0.987422	148.669
1.00928	152.471
