Adsorption isotherm of Nitrogen on PCOF-1-Fe
DOI: 10.1039/c9nj04017j
Article source: Figure S16a
Adsorbate Nitrogen: InChIKey IJGRMHOSHXDMSA-UHFFFAOYSA-N
Kind: experiment
Temperature: 77 K
Tabular data in the source: 0
pressure (bar)	uptake (cm3(STP)/g)
0	11.6379
0	34.0517
0.002335	55.1724
0.011673	68.5345
0.030351	75.431
0.065371	83.6207
0.081714	85.7759
0.100391	87.931
0.123738	90.0862
0.142415	91.3793
0.163427	93.1034
0.182105	94.3966
0.203117	95.6897
0.25448	97.4138
0.305843	99.569
0.354871	100.862
0.406234	102.586
0.457597	103.448
0.50896	104.31
0.557988	106.034
0.609351	106.897
0.658379	107.759
0.709742	109.052
0.761105	109.914
0.812468	111.207
0.831145	112.069
0.861496	113.362
0.887177	114.224
0.912859	115.517
0.93854	117.241
0.964222	119.828
0.987569	125
0.994573	127.586
1.00391	134.052
1.01092	138.793
0.142415	103.017
0.203117	107.328
0.252145	109.483
0.303508	111.207
0.336194	112.931
0.39923	113.362
0.459931	117.241
0.506625	117.672
0.557988	119.397
0.609351	120.69
0.660714	122.414
0.709742	122.845
0.761105	122.845
0.791456	123.276
0.819472	123.707
0.847488	123.276
0.875504	121.983
0.90819	124.569
0.94321	127.155
0.97356	131.897
0.994573	139.224
