Adsorption isotherm of Carbon Dioxide, Methane on Zeolite 13X
DOI: 10.1016/j.micromeso.2018.12.002
Article source: Figure 5
Adsorbate Carbon Dioxide: InChIKey CURLTUGMZLYLDI-UHFFFAOYSA-N
Adsorbate Methane: InChIKey VNWKTOKETHGBQD-UHFFFAOYSA-N
Kind: experiment
Temperature: 298 K
Tabular data in the source: 0
pressure (bar)	Carbon Dioxide fraction	Carbon Dioxide uptake (mmol/g)	Methane fraction	Methane uptake (mmol/g)	total uptake (mmol/g)
0.0433	0.45	0.246	0.55	0.0288	
0.0865	0.45	0.348	0.55	0.034	
0.177	0.45	0.691	0.55	0.0602	
0.407	0.45	1.36	0.55	0.113	
0.526	0.45	1.72	0.55	0.123	
