Adsorption isotherm of Carbon Dioxide on Zeolite KX@KA core-shell
DOI: 10.1016/j.micromeso.2018.12.002
Article source: Figure 4c
Adsorbate Carbon Dioxide: InChIKey CURLTUGMZLYLDI-UHFFFAOYSA-N
Kind: experiment
Temperature: 298 K
Tabular data in the source: 0
pressure (bar)	uptake (mmol/g)
0.000125	0.59
0.00108	0.995
0.00294	1.53
0.0057	2.13
0.0111	2.69
0.0254	3.12
0.0415	3.38
0.0647	3.65
0.1	3.94
0.141	4.14
0.207	4.39
0.302	4.69
0.421	4.9
0.554	5.11
0.692	5.27
0.815	5.38
0.919	5.46
