Adsorption isotherm of Methane on Zeolite NaX@NaA core-shell
DOI: 10.1016/j.micromeso.2018.12.002
Article source: Figure 4b
Adsorbate Methane: InChIKey VNWKTOKETHGBQD-UHFFFAOYSA-N
Kind: experiment
Temperature: 298 K
Tabular data in the source: 0
pressure (bar)	uptake (mmol/g)
0.0125	0.00743
0.0816	0.0446
0.143	0.0595
0.209	0.0967
0.255	0.126
0.321	0.156
0.382	0.186
0.444	0.216
0.507	0.238
0.569	0.26
0.63	0.29
0.693	0.32
0.754	0.342
0.815	0.364
0.877	0.394
0.939	0.416
