Adsorption isotherm of Carbon Dioxide, Methane on Zeolite NaX@NaA core-shell
DOI: 10.1016/j.micromeso.2018.12.002
Article source: Figure 5
Adsorbate Carbon Dioxide: InChIKey CURLTUGMZLYLDI-UHFFFAOYSA-N
Adsorbate Methane: InChIKey VNWKTOKETHGBQD-UHFFFAOYSA-N
Kind: experiment
Temperature: 298 K
Tabular data in the source: 0
pressure (bar)	Carbon Dioxide fraction	Carbon Dioxide uptake (mmol/g)	Methane fraction	Methane uptake (mmol/g)	total uptake (mmol/g)
0.0443	0.45	0.14	0.55	0.0182	
0.0863	0.45	0.213	0.55	0.0312	
0.179	0.45	0.421	0.55	0.0675	
0.273	0.45	0.639	0.55	0.0961	
0.381	0.45	0.849	0.55	0.119	
0.486	0.45	1.09	0.55	0.138	
