Adsorption isotherm of Methane on Zeolite 13X
DOI: 10.1016/j.micromeso.2018.12.002
Article source: Figure 4a
Adsorbate Methane: InChIKey VNWKTOKETHGBQD-UHFFFAOYSA-N
Kind: experiment
Temperature: 298 K
Tabular data in the source: 0
pressure (bar)	uptake (mmol/g)
0.0591	0.0507
0.121	0.0869
0.176	0.116
0.236	0.167
0.289	0.196
0.344	0.239
0.393	0.275
0.443	0.304
0.486	0.341
0.529	0.362
0.574	0.391
0.623	0.435
0.669	0.464
0.713	0.493
0.754	0.522
0.795	0.543
0.831	0.565
0.868	0.594
0.905	0.616
0.938	0.623
0.972	0.659
