Adsorption isotherm of Nitrogen on Zeolite NaX@NaA core-shell
DOI: 10.1016/j.micromeso.2018.12.002
Article source: Figure 4b
Adsorbate Nitrogen: InChIKey IJGRMHOSHXDMSA-UHFFFAOYSA-N
Kind: experiment
Temperature: 298 K
Tabular data in the source: 0
pressure (bar)	uptake (mmol/g)
0.0637	0.00743
0.124	0.0149
0.184	0.0297
0.24	0.0372
0.3	0.0372
0.355	0.052
0.407	0.052
0.465	0.0669
0.521	0.0669
0.578	0.0743
0.626	0.0818
0.678	0.0818
0.723	0.0892
0.769	0.104
0.815	0.0967
0.859	0.112
0.905	0.112
0.947	0.126
0.977	0.119
