Adsorption isotherm of Carbon Dioxide, Methane on Zeolite KX@KA core-shell
DOI: 10.1016/j.micromeso.2018.12.002
Article source: Figure S2
Adsorbate Carbon Dioxide: InChIKey CURLTUGMZLYLDI-UHFFFAOYSA-N
Adsorbate Methane: InChIKey VNWKTOKETHGBQD-UHFFFAOYSA-N
Kind: experiment
Temperature: 298 K
Tabular data in the source: 0
pressure (bar)	Carbon Dioxide fraction	Carbon Dioxide uptake (ml(STP)/g)	Methane fraction	Methane uptake (ml(STP)/g)	total uptake (ml(STP)/g)
0.0445	0.45	1.88	0.55	0.209	
0.0824	0.45	3.66	0.55	0.575	
0.167	0.45	7.53	0.55	1.36	
0.257	0.45	11.3	0.55	2.14	
0.362	0.45	15.3	0.55	2.93	
0.456	0.45	19.7	0.55	3.56	
