Adsorption isotherm of Methane on Zeolite KX@KA core-shell
DOI: 10.1016/j.micromeso.2018.12.002
Article source: Figure 4c
Adsorbate Methane: InChIKey VNWKTOKETHGBQD-UHFFFAOYSA-N
Kind: experiment
Temperature: 298 K
Tabular data in the source: 0
pressure (bar)	uptake (mmol/g)
0.0686	0.0288
0.143	0.0578
0.209	0.0794
0.306	0.123
0.452	0.181
0.671	0.268
0.872	0.34
