Adsorption isotherm of Carbon Dioxide, Nitrogen on Zeolite 13X
DOI: 10.1016/j.micromeso.2018.12.002
Article source: Figure 5
Adsorbate Carbon Dioxide: InChIKey CURLTUGMZLYLDI-UHFFFAOYSA-N
Adsorbate Nitrogen: InChIKey IJGRMHOSHXDMSA-UHFFFAOYSA-N
Kind: experiment
Temperature: 298 K
Tabular data in the source: 0
pressure (bar)	Carbon Dioxide fraction	Carbon Dioxide uptake (mmol/g)	Nitrogen fraction	Nitrogen uptake (mmol/g)	total uptake (mmol/g)
0.0725	0.15	0.121	0.85	0.0194	
0.139	0.15	0.175	0.85	0.0658	
0.299	0.15	0.229	0.85	0.0735	
0.546	0.15	0.453	0.85	0.121	
0.699	0.15	0.509	0.85	0.154	
0.781	0.15	0.571	0.85	0.154	
