Adsorption isotherm of Carbon Dioxide, Nitrogen on Zeolite NaX@NaA core-shell
DOI: 10.1016/j.micromeso.2018.12.002
Article source: Figure 5
Adsorbate Carbon Dioxide: InChIKey CURLTUGMZLYLDI-UHFFFAOYSA-N
Adsorbate Nitrogen: InChIKey IJGRMHOSHXDMSA-UHFFFAOYSA-N
Kind: experiment
Temperature: 298 K
Tabular data in the source: 0
pressure (bar)	Carbon Dioxide fraction	Carbon Dioxide uptake (mmol/g)	Nitrogen fraction	Nitrogen uptake (mmol/g)	total uptake (mmol/g)
0.0635	0.15	0.562	0.85	0.406	
0.149	0.15	1.12	0.85	0.531	
0.27	0.15	1.93	0.85	0.875	
0.447	0.15	2.12	0.85	1.06	
0.602	0.15	2.77	0.85	1.28	
0.758	0.15	3.58	0.85	1.49	
