Adsorption isotherm of Nitrogen on Zeolite 13X
DOI: 10.1016/j.micromeso.2018.12.002
Article source: Figure 4a
Adsorbate Nitrogen: InChIKey IJGRMHOSHXDMSA-UHFFFAOYSA-N
Kind: experiment
Temperature: 298 K
Tabular data in the source: 0
pressure (bar)	uptake (mmol/g)
0.0644	0.0214
0.125	0.0356
0.184	0.0571
0.24	0.0714
0.3	0.0856
0.355	0.114
0.408	0.129
0.465	0.143
0.52	0.157
0.577	0.171
0.624	0.186
0.676	0.207
0.722	0.214
0.769	0.214
0.815	0.228
0.859	0.243
0.904	0.264
0.946	0.279
0.975	0.278
