Adsorption isotherm of Carbon Dioxide on Zeolite 13X
DOI: 10.1016/j.micromeso.2018.12.002
Article source: Figure 4a
Adsorbate Carbon Dioxide: InChIKey CURLTUGMZLYLDI-UHFFFAOYSA-N
Kind: experiment
Temperature: 298 K
Tabular data in the source: 0
pressure (bar)	uptake (mmol/g)
0.00342	0.527
0.00687	1.03
0.0147	1.51
0.0244	1.95
0.0402	2.38
0.0605	2.74
0.086	3.08
0.115	3.35
0.149	3.62
0.19	3.84
0.234	4.03
0.277	4.2
0.321	4.32
0.372	4.44
0.418	4.53
0.469	4.63
0.518	4.71
0.574	4.79
0.633	4.87
0.673	4.9
0.719	4.95
0.766	4.99
0.813	5.04
0.852	5.09
0.903	5.19
0.938	5.21
0.978	5.32
