Adsorption isotherm of Nitrogen on Zeolite KX@KA core-shell
DOI: 10.1016/j.micromeso.2018.12.002
Article source: Figure 4c
Adsorbate Nitrogen: InChIKey IJGRMHOSHXDMSA-UHFFFAOYSA-N
Kind: experiment
Temperature: 298 K
Tabular data in the source: 0
pressure (bar)	uptake (mmol/g)
0.0214	0
0.0348	0.00698
0.057	0.0142
0.0882	0.0213
0.174	0.0207
0.308	0.0344
0.553	0.0621
0.834	0.0895
