Adsorption isotherm of Carbon Dioxide on Zeolite NaX@NaA core-shell
DOI: 10.1016/j.micromeso.2018.12.002
Article source: Figure 4b
Adsorbate Carbon Dioxide: InChIKey CURLTUGMZLYLDI-UHFFFAOYSA-N
Kind: experiment
Temperature: 298 K
Tabular data in the source: 0
pressure (bar)	uptake (mmol/g)
0.00166	0.662
0.00252	0.885
0.00428	1.12
0.00869	1.7
0.0122	2.41
0.0131	2.48
0.0417	3.18
0.0811	3.74
0.143	4.19
0.208	4.51
0.264	4.72
0.321	4.84
0.381	4.97
0.443	5.08
0.567	5.24
0.505	5.16
0.628	5.3
0.691	5.36
0.753	5.42
0.814	5.47
0.875	5.52
0.937	5.56
