Adsorption isotherm of Carbon Dioxide, Nitrogen on Zeolite KX@KA core-shell
DOI: 10.1016/j.micromeso.2018.12.002
Article source: Figure S2
Adsorbate Carbon Dioxide: InChIKey CURLTUGMZLYLDI-UHFFFAOYSA-N
Adsorbate Nitrogen: InChIKey IJGRMHOSHXDMSA-UHFFFAOYSA-N
Kind: experiment
Temperature: 298 K
Tabular data in the source: 0
pressure (bar)	Carbon Dioxide fraction	Carbon Dioxide uptake (ml(STP)/g)	Nitrogen fraction	Nitrogen uptake (ml(STP)/g)	total uptake (ml(STP)/g)
0.0772	0.15	1.29	0.85	0.284	
0.152	0.15	1.27	0.85	0.396	
0.303	0.15	2.55	0.85	1.04	
0.459	0.15	3.86	0.85	1.51	
0.602	0.15	5.13	0.85	2.04	
0.744	0.15	6.38	0.85	2.48	
