Adsorption isotherm of Carbon Dioxide on {[Cu-(CF3SO3)2(bpp)2]*H2O}
DOI: 10.1021/Ic301949n
Adsorbate Carbon Dioxide: InChIKey CURLTUGMZLYLDI-UHFFFAOYSA-N
Temperature: 195 K
Tabular data in the source: 0
pressure (bar)	uptake (cm3(STP)/g)
0.00702701	3.12722
0.00702701	8.36665
0.00702701	13.9441
0.00702701	18.93
0.00702701	21.423
0.0197031	23.5357
0.0478721	24.7188
0.115478	25.6061
0.214069	26.2399
0.298576	26.6202
0.374633	26.916
0.456323	27.254
0.542238	27.592
0.62252	27.8878
0.72252	28.0145
0.825337	27.93
0.923928	27.93
0.97745	27.9723
1.00421	28.1836
