Adsorption isotherm of Carbon Dioxide on {[Cu(CF3SO3)(bpp)2]*CF3SO3*2acetone}
DOI: 10.1021/Ic301949n
Adsorbate Carbon Dioxide: InChIKey CURLTUGMZLYLDI-UHFFFAOYSA-N
Temperature: 195 K
Tabular data in the source: 0
pressure (bar)	uptake (cm3(STP)/g)
0.00229475	0.72604
0.110986	3.12868
0.25829	5.13088
0.45708	6.93286
0.590084	26.3542
0.591514	14.7414
0.595804	44.5742
0.601525	9.53572
0.611536	87.2211
0.615826	105.641
0.622977	123.06
0.644429	137.677
0.685903	145.285
0.816046	149.49
0.921877	151.091
0.997674	153.294
