Adsorption isotherm of Oxygen on {[Cu(CF3SO3)(bpp)2]*CF3SO3*2acetone}
DOI: 10.1021/Ic301949n
Adsorbate Oxygen: InChIKey MYMOFIZGZYHOMD-UHFFFAOYSA-N
Temperature: 195 K
Tabular data in the source: 0
pressure (bar)	uptake (cm3(STP)/g)
0.025177	0.0748405
0.118136	0.3256
0.218246	0.3256
0.308345	0.0748405
0.415606	0.12538
0.504275	0.3256
0.584363	0.12538
0.628697	0.3256
0.737388	0.275061
0.840359	0.12538
0.936178	0.3256
0.991954	0.3256
1.03057	0.52582
