Adsorption isotherm of Nitrogen on {[Cu(CF3SO3)(bpp)2]*CF3SO3*2acetone}
DOI: 10.1021/Ic301949n
Adsorbate Nitrogen: InChIKey IJGRMHOSHXDMSA-UHFFFAOYSA-N
Temperature: 77 K
Tabular data in the source: 0
pressure (bar)	uptake (cm3(STP)/g)
0.0154777	0.848119
0.0760411	0.848119
0.128154	0.848119
0.163365	0.848119
0.194351	0.848119
0.22252	1.12981
0.326745	0.848119
0.521111	0.848119
0.574633	0.848119
0.676041	1.12981
0.773224	1.97488
0.876041	3.66502
0.921112	5.35516
0.956323	9.58051
0.978858	18.8763
0.998576	28.1721
1.00844	35.496
