Adsorption isotherm of Oxygen on {[Cu-(CF3SO3)2(bpp)2]*H2O}
DOI: 10.1021/Ic301949n
Adsorbate Oxygen: InChIKey MYMOFIZGZYHOMD-UHFFFAOYSA-N
Temperature: 195 K
Tabular data in the source: 0
pressure (bar)	uptake (cm3(STP)/g)
0.00139321	1.0568
0.0520974	1.0568
0.112661	1.0568
0.171816	1.0568
0.235196	1.0568
0.316886	1.0568
0.399985	1.0568
0.480266	1.18356
0.561957	1.22581
0.619703	1.31032
0.719703	1.31032
0.82252	1.47933
0.929562	1.52158
0.96759	1.52158
1.00139	1.56384
