Adsorption isotherm of Argon on {[Cu-(CF3SO3)2(bpp)2]*H2O}
DOI: 10.1021/Ic301949n
Adsorbate Argon: InChIKey XKRFYHLGVUSROY-UHFFFAOYSA-N
Temperature: 195 K
Tabular data in the source: 0
pressure (bar)	uptake (cm3(STP)/g)
0.0182946	0.549753
0.0619566	0.5075
0.173224	0.5075
0.249281	0.465246
0.330971	0.5075
0.402802	0.549753
0.526745	0.549753
0.715478	0.803274
0.819703	0.761021
0.925337	0.845528
0.976041	0.761021
1.00421	0.930035
