Adsorption isotherm of Nitrogen on {[Cu-(CF3SO3)2(bpp)2]*H2O}
DOI: 10.1021/Ic301949n
Adsorbate Nitrogen: InChIKey IJGRMHOSHXDMSA-UHFFFAOYSA-N
Temperature: 195 K
Tabular data in the source: 0
pressure (bar)	uptake (cm3(STP)/g)
0.0168862	0.803274
0.0873087	0.845528
0.1859	0.845528
0.266182	0.887781
0.345055	0.845528
0.426745	0.887781
0.507027	0.887781
0.588717	0.803274
0.636604	0.803274
0.736604	0.5075
0.839421	0.296232
0.938013	0.169471
0.990126	0.000457
