Adsorption isotherm of Argon on {[Cu(CF3SO3)(bpp)2]*CF3SO3*2acetone}
DOI: 10.1021/Ic301949n
Adsorbate Argon: InChIKey XKRFYHLGVUSROY-UHFFFAOYSA-N
Temperature: 77 K
Tabular data in the source: 0
pressure (bar)	uptake (cm3(STP)/g)
0.0154777	0.848119
0.0760411	0.848119
0.128154	0.848119
0.163365	0.848119
0.194351	0.848119
0.22252	1.12981
