Adsorption isotherm of Oxygen on {[Cu(CF3SO3)(bpp)2]*CF3SO3*2acetone}
DOI: 10.1021/Ic301949n
Adsorbate Oxygen: InChIKey MYMOFIZGZYHOMD-UHFFFAOYSA-N
Temperature: 77 K
Tabular data in the source: 0
pressure (bar)	uptake (cm3(STP)/g)
0.0182946	22.82
0.0197031	2.25657
0.0197031	36.3411
0.0197031	65.0735
0.0197031	94.3692
0.0281538	109.017
0.0689988	120.003
0.129562	130.426
0.180266	141.411
0.199985	157.468
0.209844	190.144
0.212661	207.045
