Adsorption isotherm of Methane on CuBTC
DOI: 10.1002/ceat.201300046
Adsorbate Methane: InChIKey VNWKTOKETHGBQD-UHFFFAOYSA-N
Temperature: 373 K
Tabular data in the source: 0
pressure (bar)	uptake (mmol/g)
0.13515	0.0986983
0.242193	0.19729
0.354869	0.305741
0.478812	0.42405
0.602756	0.493064
0.867545	0.66067
1.17177	0.847994
1.72952	1.20292
2.29853	1.55785
2.89008	1.85363
3.44783	2.13954
3.98867	2.48461
