Adsorption isotherm of Carbon Dioxide on MIL-53(Al)
DOI: 10.1002/ceat.201300046
Article source: Figure 3
Adsorbate Carbon Dioxide: InChIKey CURLTUGMZLYLDI-UHFFFAOYSA-N
Kind: experiment
Temperature: 303 K
Tabular data in the source: 0
pressure (bar)	uptake (mmol/g)
1	1.26866
2.21212	1.56716
3.21212	1.79104
4	1.86567
4.80303	2.01493
6.21212	2.38806
7	3.13433
