Adsorption isotherm of Carbon Dioxide on CuBTC
DOI: 10.1002/ceat.201300046
Adsorbate Carbon Dioxide: InChIKey CURLTUGMZLYLDI-UHFFFAOYSA-N
Temperature: 343 K
Tabular data in the source: 0
pressure (bar)	uptake (mmol/g)
0.396481	0.64573
0.596701	1.02329
0.816943	1.36652
0.977119	1.64111
1.5077	2.44771
1.98823	3.15134
2.98933	4.47279
4.01045	5.57114
4.98152	6.48071
5.99263	7.25299
6.99373	7.81933
