Adsorption isotherm of Carbon Dioxide on CuBTC
DOI: 10.1002/ceat.201300046
Adsorbate Carbon Dioxide: InChIKey CURLTUGMZLYLDI-UHFFFAOYSA-N
Temperature: 308 K
Tabular data in the source: 0
pressure (bar)	uptake (mmol/g)
0.106162	0.474113
0.196261	0.903156
0.396481	1.74408
0.516613	2.22461
0.58669	2.51636
0.766888	3.1685
1.07723	3.94078
1.47767	5.24507
2.03829	6.49788
3.02937	8.26553
4.01045	9.46685
5.00154	10.3249
6.01265	11.0457
7.03377	11.5091
