Adsorption isotherm of Methane on CuBTC
DOI: 10.1002/ceat.201300046
Adsorbate Methane: InChIKey VNWKTOKETHGBQD-UHFFFAOYSA-N
Temperature: 308 K
Tabular data in the source: 0
pressure (bar)	uptake (mmol/g)
0.0675447	0.217008
0.129516	0.345177
0.247826	0.611374
0.366136	0.857853
0.473178	1.16349
0.580221	1.38039
0.867545	2.02123
1.1605	2.52405
1.72952	3.55926
2.30416	4.47616
2.85628	5.28461
3.44783	6.12264
3.99994	6.80292
