Adsorption isotherm of Methane on Cu-BTC powder
DOI: 10.1002/ceat.201300046
Article source: Figure 1b
Adsorbate Methane: InChIKey VNWKTOKETHGBQD-UHFFFAOYSA-N
Kind: experiment
Temperature: 373 K
Tabular data in the source: 0
pressure (bar)	uptake (mmol/g)
0.398249	0.075195
0.520788	0.075456
0.643326	0.164935
0.980306	0.28461
1.48578	0.434383
2.00656	0.584188
2.51204	0.748831
3.01751	0.898603
3.98249	1.13857
4.48796	1.2586
4.99344	1.33403
5.98906	1.58893
6.98468	1.78435
