Adsorption isotherm of Methane on Cu-BTC tablet
DOI: 10.1002/ceat.201300046
Article source: Figure 1b
Adsorbate Methane: InChIKey VNWKTOKETHGBQD-UHFFFAOYSA-N
Kind: experiment
Temperature: 308 K
Tabular data in the source: 0
pressure (bar)	uptake (mmol/g)
0.122807	0
0.230263	0
0.429825	0
0.629386	0
0.828947	0
1.02851	0
1.50439	0
2.01096	0
2.57895	0
2.97807	0
3.97588	0
4.54386	0
4.97368	0
6.01754	0
6.98465	0
