Adsorption isotherm of Carbon Dioxide on CuBTC
DOI: 10.1002/ceat.201300046
Adsorbate Carbon Dioxide: InChIKey CURLTUGMZLYLDI-UHFFFAOYSA-N
Temperature: 343 K
Tabular data in the source: 0
pressure (bar)	uptake (mmol/g)
0.396481	0.525598
0.606712	0.765862
0.816943	1.05761
0.997141	1.26355
1.44764	1.7784
1.98823	2.32758
2.98933	3.44309
3.93036	4.21537
4.98152	4.98764
5.97261	5.55398
6.92365	6.08599
