Adsorption isotherm of Carbon Dioxide on AlPO4-11
DOI: 10.1002/ceat.201300046
Article source: Figure 3
Adsorbate Carbon Dioxide: InChIKey CURLTUGMZLYLDI-UHFFFAOYSA-N
Kind: experiment
Temperature: 308 K
Tabular data in the source: 0
pressure (bar)	uptake (mmol/g)
0.181818	0.148699
0.272727	0.260223
0.348485	0.334572
0.484848	0.371747
0.560606	0.446097
0.636364	0.520446
0.69697	0.520446
0.787879	0.594796
0.848485	0.63197
1	0.70632
1.09091	0.669145
1.15152	0.70632
