Adsorption isotherm of Carbon Dioxide on Cu-BTC tablet
DOI: 10.1002/ceat.201300046
Article source: Figure 1a
Adsorbate Carbon Dioxide: InChIKey CURLTUGMZLYLDI-UHFFFAOYSA-N
Kind: experiment
Temperature: 308 K
Tabular data in the source: 0
pressure (bar)	uptake (mmol/g)
0.092715	0.380952
0.216336	0.761905
0.417219	1.33333
0.525386	1.71429
0.633554	1.95238
0.818985	2.52381
1.09713	3.19048
1.48344	4.09524
1.94702	4.95238
2.53422	5.90476
2.93598	6.28571
3.98675	7.2381
4.52759	7.71429
5.00662	8
6.07285	8.52381
7.04636	8.90476
