Adsorption isotherm of Carbon Dioxide on CuBTC
DOI: 10.1002/ceat.201300046
Adsorbate Carbon Dioxide: InChIKey CURLTUGMZLYLDI-UHFFFAOYSA-N
Temperature: 373 K
Tabular data in the source: 0
pressure (bar)	uptake (mmol/g)
0.116173	0.0279085
0.406492	0.268173
0.626734	0.422628
0.796921	0.577083
1.02717	0.748701
1.52772	1.07477
2.01826	1.36652
3.00935	2.01867
3.98042	2.63649
4.94148	3.13418
5.98262	3.63187
6.95369	4.1124
