Adsorption isotherm of Methane on CuBTC
DOI: 10.1002/ceat.201300046
Adsorbate Methane: InChIKey VNWKTOKETHGBQD-UHFFFAOYSA-N
Temperature: 343 K
Tabular data in the source: 0
pressure (bar)	uptake (mmol/g)
0.129516	0.019825
0.884446	1.07475
1.1605	1.40011
1.74078	2.08039
2.30416	2.60292
2.87318	3.25363
3.44219	3.77616
4.01684	4.25926
