Adsorption isotherm of Methane on CuBTC
DOI: 10.1002/ceat.201300046
Adsorbate Methane: InChIKey VNWKTOKETHGBQD-UHFFFAOYSA-N
Temperature: 373 K
Tabular data in the source: 0
pressure (bar)	uptake (mmol/g)
0.225291	0.108557
0.354869	0.236726
0.867545	0.769121
1.1605	1.05504
1.74078	1.57757
2.29853	1.99166
2.87318	2.34659
3.43656	2.78039
3.99994	3.12546
