Adsorption isotherm of Carbon Dioxide on Zeolite 13X
DOI: 10.1002/ceat.201300046
Article source: Figure 3
Adsorbate Carbon Dioxide: InChIKey CURLTUGMZLYLDI-UHFFFAOYSA-N
Kind: experiment
Temperature: 308 K
Tabular data in the source: 0
pressure (bar)	uptake (mmol/g)
0	0
0.151188	2.42457
0.211663	2.76007
0.468683	3.43034
0.967603	4.09932
1.61771	4.5063
2.20734	4.72704
2.8121	4.9477
3.7041	5.20414
4.85313	5.34726
5.69978	5.41738
6.98488	5.5971
