Adsorption isotherm of Methane on Cu-BTC powder
DOI: 10.1002/ceat.201300046
Article source: Figure 1b
Adsorbate Methane: InChIKey VNWKTOKETHGBQD-UHFFFAOYSA-N
Kind: experiment
Temperature: 343 K
Tabular data in the source: 0
pressure (bar)	uptake (mmol/g)
0.215385	0
1.50769	0.594796
2.01538	0.802974
2.50769	0.996283
3.01538	1.18959
4	1.50186
4.49231	1.71004
5	1.85874
6	2.14126
7.01538	2.40892
