Adsorption isotherm of Carbon Dioxide on CuBTC
DOI: 10.1002/ceat.201300046
Adsorbate Carbon Dioxide: InChIKey CURLTUGMZLYLDI-UHFFFAOYSA-N
Temperature: 373 K
Tabular data in the source: 0
pressure (bar)	uptake (mmol/g)
0.106162	0.113717
0.436525	0.388305
0.806932	0.731539
1.02717	0.920318
1.52772	1.41801
2.01826	1.81273
3.02937	2.63649
4.00044	3.37444
5.00154	4.06091
6.01265	4.67873
6.98372	5.21075
