Adsorption isotherm of Carbon Dioxide on Cu-BTC powder
DOI: 10.1002/ceat.201300046
Article source: Figure 1a
Adsorbate Carbon Dioxide: InChIKey CURLTUGMZLYLDI-UHFFFAOYSA-N
Kind: experiment
Temperature: 308 K
Tabular data in the source: 0
pressure (bar)	uptake (mmol/g)
0.108168	0.47619
0.18543	0.904762
0.386313	1.7619
0.494481	2.2381
0.587196	2.52381
0.803532	3.19048
1.09713	4
1.48344	5.28571
2.00883	6.52381
2.50331	7.52381
2.99779	8.2381
4.00221	9.47619
4.51214	9.95238
5.00662	10.3333
6.01104	11
7.01545	11.4762
