Adsorption isotherm of Methane on Cu-BTC tablet
DOI: 10.1002/ceat.201300046
Article source: Figure 1b
Adsorbate Methane: InChIKey VNWKTOKETHGBQD-UHFFFAOYSA-N
Kind: experiment
Temperature: 343 K
Tabular data in the source: 0
pressure (bar)	uptake (mmol/g)
0.828947	0.296296
1.04386	0.37037
1.53509	0.518519
2.02632	0.666667
2.54825	0.859259
3.02412	0.962963
4.00658	1.21481
4.54386	1.37778
5.03509	1.48148
6.00219	1.7037
7.01535	1.91111
