Adsorption isotherm of Carbon Dioxide on Cu-BTC tablet
DOI: 10.1002/ceat.201300046
Article source: Figure 1a
Adsorbate Carbon Dioxide: InChIKey CURLTUGMZLYLDI-UHFFFAOYSA-N
Kind: experiment
Temperature: 343 K
Tabular data in the source: 0
pressure (bar)	uptake (mmol/g)
0.387906	0.571429
0.496497	0.714286
0.58954	0.809524
0.806662	1.04762
0.992748	1.2381
1.4426	1.80952
1.98537	2.38095
2.51272	3
3.00891	3.47619
3.9391	4.2381
4.5126	4.61905
4.99318	5
5.98507	5.57143
6.94592	6.09524
