Adsorption isotherm of Methane on CuBTC
DOI: 10.1002/ceat.201300046
Adsorbate Methane: InChIKey VNWKTOKETHGBQD-UHFFFAOYSA-N
Temperature: 308 K
Tabular data in the source: 0
pressure (bar)	uptake (mmol/g)
0.0675447	0.157853
0.13515	0.325459
0.242193	0.532501
0.349235	0.719825
0.456277	0.926867
0.591488	1.13391
0.873178	1.61701
1.17177	2.05081
1.72952	2.77053
2.28726	3.46067
2.85628	4.16067
3.44783	4.79166
3.99431	5.36349
