Adsorption isotherm of Carbon Dioxide on ZnDABCO
DOI: 10.1002/ceat.201300046
Article source: Figure 3
Adsorbate Carbon Dioxide: InChIKey CURLTUGMZLYLDI-UHFFFAOYSA-N
Kind: experiment
Temperature: 314 K
Tabular data in the source: 0
pressure (bar)	uptake (mmol/g)
1.02628	0
2.00709	0
3.00285	0
4.01401	0
5.01033	0
6.00677	0
6.98842	0
