Adsorption isotherm of Carbon Dioxide on Cu-BTC powder
DOI: 10.1002/ceat.201300046
Article source: Figure 1a
Adsorbate Carbon Dioxide: InChIKey CURLTUGMZLYLDI-UHFFFAOYSA-N
Kind: experiment
Temperature: 343 K
Tabular data in the source: 0
pressure (bar)	uptake (mmol/g)
0.401766	0.666667
0.494481	0.904762
0.602649	1.09524
0.803532	1.38095
1.00442	1.66667
1.48344	2.42857
1.99338	3.19048
2.51876	3.90476
2.99779	4.42857
4.00221	5.57143
4.51214	6.09524
5.00662	6.47619
6.01104	7.2381
7.01545	7.90476
