Adsorption isotherm of Methane on CuBTC
DOI: 10.1002/ceat.201300046
Adsorbate Methane: InChIKey VNWKTOKETHGBQD-UHFFFAOYSA-N
Temperature: 343 K
Tabular data in the source: 0
pressure (bar)	uptake (mmol/g)
0.101347	0.108557
0.484446	0.562079
0.60839	0.690248
0.878812	0.966304
1.1605	1.19306
1.73515	1.73532
2.3098	2.17898
2.87881	2.58321
3.45346	2.98743
4.02811	3.35222
