Adsorption isotherm of Methane on Cu-BTC tablet
DOI: 10.1002/ceat.201300046
Article source: Figure 1b
Adsorbate Methane: InChIKey VNWKTOKETHGBQD-UHFFFAOYSA-N
Kind: experiment
Temperature: 373 K
Tabular data in the source: 0
pressure (bar)	uptake (mmol/g)
0.414474	0.118519
0.506579	0.133333
0.644737	0.177778
0.828947	0.222222
1.05921	0.266667
1.51974	0.355556
2.02632	0.474074
2.51754	0.577778
3.02412	0.681481
4.00658	0.874074
4.52851	0.992593
5.01974	1.06667
6.01754	1.22963
7	1.42222
