Adsorption isotherm of Carbon Dioxide on CuBTC
DOI: 10.1002/ceat.201300046
Adsorbate Carbon Dioxide: InChIKey CURLTUGMZLYLDI-UHFFFAOYSA-N
Temperature: 308 K
Tabular data in the source: 0
pressure (bar)	uptake (mmol/g)
0.0861403	0.268173
0.226294	0.680054
0.38647	1.29788
0.596701	1.96718
0.816943	2.55068
1.07723	3.20283
1.48768	4.06091
1.96821	4.90184
2.92926	6.24045
3.98042	7.25299
4.97151	7.99094
6.0527	8.54012
7.02376	8.90052
