Adsorption isotherm of Methane on Cu-BTC powder
DOI: 10.1002/ceat.201300046
Article source: Figure 1b
Adsorbate Methane: InChIKey VNWKTOKETHGBQD-UHFFFAOYSA-N
Kind: experiment
Temperature: 308 K
Tabular data in the source: 0
pressure (bar)	uptake (mmol/g)
0.092308	0.118714
0.2	0.178201
0.384615	0.341555
0.507692	0.430704
0.6	0.504974
0.784615	0.668327
0.984615	0.787269
1.49231	1.15871
1.96923	1.45602
2.49231	1.79787
3	2.03598
4	2.5418
4.49231	2.82432
4.98462	3.03277
6	3.50899
7	3.91111
