Adsorption isotherm of Carbon Dioxide on Cu-BTC tablet
DOI: 10.1002/ceat.201300046
Article source: Figure 1a
Adsorbate Carbon Dioxide: InChIKey CURLTUGMZLYLDI-UHFFFAOYSA-N
Kind: experiment
Temperature: 373 K
Tabular data in the source: 0
pressure (bar)	uptake (mmol/g)
0.108168	0
0.247241	0.142857
0.417219	0.285714
0.540839	0.428571
0.618102	0.47619
0.803532	0.571429
1.03532	0.761905
1.48344	1.09524
2.00883	1.38095
2.61148	1.80952
2.99779	2.04762
3.9713	2.66667
4.65121	3.09524
4.94481	3.14286
5.98013	3.66667
6.96909	4.09524
