Adsorption isotherm of Carbon Dioxide on Cu-BTC tablet
DOI: 10.1002/ceat.201300046
Article source: Figure 3
Adsorbate Carbon Dioxide: InChIKey CURLTUGMZLYLDI-UHFFFAOYSA-N
Kind: experiment
Temperature: 308 K
Tabular data in the source: 0
pressure (bar)	uptake (mmol/g)
0.136364	0.299234
0.227273	0.672853
0.333333	1.08387
0.424242	1.34555
0.515152	1.68185
0.772727	2.39218
1.0303	3.02788
1.51515	4.07524
2.0303	4.9362
3.0303	6.2475
4.0303	7.22298
5.0303	7.93726
6.0303	8.53961
7.0303	9.03001
