Adsorption isotherm of Carbon Dioxide on Cu-BTC powder
DOI: 10.1002/ceat.201300046
Article source: Figure 1a
Adsorbate Carbon Dioxide: InChIKey CURLTUGMZLYLDI-UHFFFAOYSA-N
Kind: experiment
Temperature: 373 K
Tabular data in the source: 0
pressure (bar)	uptake (mmol/g)
0.108168	0
0.247241	0.236413
0.417219	0.282876
0.509934	0.425102
0.649007	0.471775
0.834437	0.708609
1.01987	0.945443
1.51435	1.41827
2.02428	1.89099
2.50331	2.26868
3.0287	2.64606
4.01766	3.35362
4.49669	3.73132
5.02208	4.06107
6.01104	4.67339
7.03091	5.19027
