Adsorption isotherm of Carbon Dioxide on MIL-53(Al)/GNP 10%
DOI: 10.1016/j.micromeso.2015.07.013
Article source: Figure 7
Adsorbate Carbon Dioxide: InChIKey CURLTUGMZLYLDI-UHFFFAOYSA-N
Kind: experiment
Temperature: 298 K
Tabular data in the source: 0
pressure (bar)	uptake (mmol/g)
0	0
0.088608	0.601375
0.202532	1.08247
0.297468	1.16838
0.392405	1.16838
0.5	1.18557
0.601266	1.18557
0.689873	1.21993
0.797468	3.28179
0.892405	3.52234
1.00633	3.59107
1.24684	3.67698
1.49367	3.72852
1.99367	3.81443
2.50633	3.91753
3	3.96907
