Adsorption isotherm of Nitrogen on MIL-53(Al)/GNP 5%
DOI: 10.1016/j.micromeso.2015.07.013
Article source: Figure 3
Adsorbate Nitrogen: InChIKey IJGRMHOSHXDMSA-UHFFFAOYSA-N
Kind: experiment
Temperature: 77 K
Tabular data in the source: 0
pressure (bar)	uptake (mmol/g)
6e-06	-0.079873
0.009679	2.0759
0.019358	4.15181
0.031106	4.94959
0.040943	5.02868
0.050773	5.18764
0.056678	5.18717
0.064546	5.26641
0.076351	5.34534
0.09013	5.34424
0.099967	5.42333
0.200367	5.33543
0.300762	5.32742
0.401143	5.47914
0.499569	5.47128
0.499575	5.39141
0.599951	5.62301
0.599982	5.22364
0.69837	5.69502
0.698402	5.29565
0.798759	5.76687
0.798796	5.28764
0.89714	6.31812
0.897209	5.43952
0.905014	6.31749
0.905071	5.59864
0.91097	5.67804
0.9168	6.63604
0.924725	5.99643
0.92663	6.795
0.936435	7.27345
0.938479	6.31482
0.944284	7.59231
0.946322	6.71355
0.95802	8.15032
0.960064	7.19169
0.967762	9.4275
0.967875	7.98979
0.977548	10.1456
0.988988	14.8571
0.991032	13.8985
0.996572	18.5306
