Adsorption isotherm of Carbon Dioxide on MIL-53(Al)
DOI: 10.1016/j.micromeso.2015.07.013
Article source: Figure 8
Adsorbate Carbon Dioxide: InChIKey CURLTUGMZLYLDI-UHFFFAOYSA-N
Kind: experiment
Temperature: 298 K
Tabular data in the source: 0
pressure (bar)	uptake (mmol/g)
0.434465	1.65056
0.954125	3.39033
1.97144	3.74721
2.98718	3.88104
4.00324	4.05948
5.01804	4.05948
6.03347	4.1487
6.96433	4.23792
7.92254	8.20818
9.02819	9.10037
10.0452	9.41264
15.1223	9.85874
20.1143	10.2156
25.1043	10.3048
30.0941	10.3494
40.1591	10.5725
