Adsorption isotherm of Nitrogen on MIL-53(Al)
DOI: 10.1016/j.micromeso.2015.07.013
Article source: Figure 7
Adsorbate Nitrogen: InChIKey IJGRMHOSHXDMSA-UHFFFAOYSA-N
Kind: experiment
Temperature: 298 K
Tabular data in the source: 0
pressure (bar)	uptake (mmol/g)
0.094937	0.120275
0.196203	0.137457
0.291139	0.171821
0.398734	0.206186
0.493671	0.206186
0.601266	0.189003
0.696203	0.206186
0.797468	0.257732
0.898734	0.274914
1	0.309278
1.24051	0.309278
1.5	0.309278
1.99367	0.343643
2.5	0.360825
3	0.360825
