Adsorption isotherm of Nitrogen on MIL-53(Al)/GNP 10%
DOI: 10.1016/j.micromeso.2015.07.013
Article source: Figure 7
Adsorbate Nitrogen: InChIKey IJGRMHOSHXDMSA-UHFFFAOYSA-N
Kind: experiment
Temperature: 298 K
Tabular data in the source: 0
pressure (bar)	uptake (mmol/g)
0.088608	0.034364
0.196203	0.068728
0.297468	0.085911
0.398734	0.085911
0.493671	0.085911
0.594937	0.103093
0.696203	0.120275
0.797468	0.137457
0.892405	0.137457
1	0.171821
1.24684	0.206186
1.5	0.24055
1.99367	0.24055
2.5	0.257732
3	0.257732
