Adsorption isotherm of Carbon Dioxide on MIL-53(Al)/GNP 2.5%
DOI: 10.1016/j.micromeso.2015.07.013
Article source: Figure 7
Adsorbate Carbon Dioxide: InChIKey CURLTUGMZLYLDI-UHFFFAOYSA-N
Kind: experiment
Temperature: 298 K
Tabular data in the source: 0
pressure (bar)	uptake (mmol/g)
0	0
0.196203	1.18557
0.297468	1.35739
0.392405	1.42612
0.5	1.52921
0.601266	1.66667
0.689873	1.80412
0.797468	1.97595
0.898734	2.33677
1	3.72852
1.23418	3.98625
1.5	4.08935
1.99367	4.17526
2.5	4.24399
3	4.31271
