Adsorption isotherm of Carbon Dioxide on MIL-53(Al)/GNP 5%
DOI: 10.1016/j.micromeso.2015.07.013
Article source: Figure 7
Adsorbate Carbon Dioxide: InChIKey CURLTUGMZLYLDI-UHFFFAOYSA-N
Kind: experiment
Temperature: 298 K
Tabular data in the source: 0
pressure (bar)	uptake (mmol/g)
0	0
0.094937	0.824742
0.189873	1.34021
0.291139	1.56357
0.398734	1.66667
0.5	1.83849
0.588608	1.94158
0.696203	2.02749
0.797468	2.23368
0.898734	2.66323
0.993671	3.95189
1.24684	4.41581
1.5	4.53608
2	4.62199
2.5	4.7079
3	4.72509
