Adsorption isotherm of Nitrogen on MIL-53(Al)/GNP 2.5%
DOI: 10.1016/j.micromeso.2015.07.013
Article source: Figure 3
Adsorbate Nitrogen: InChIKey IJGRMHOSHXDMSA-UHFFFAOYSA-N
Kind: experiment
Temperature: 77 K
Tabular data in the source: 0
pressure (bar)	uptake (mmol/g)
6e-06	-0.079873
0.050691	6.22598
0.058552	6.3851
0.070363	6.38416
0.078225	6.54327
0.090036	6.54233
0.099853	6.86103
0.200242	6.93289
0.300623	7.08461
0.397062	7.31653
0.399036	7.2365
0.497443	7.46826
0.499418	7.38823
0.597813	7.77973
0.597831	7.54011
0.698182	8.0912
0.700169	7.85142
0.798532	8.64229
0.798576	8.08318
0.896945	8.79417
0.898832	9.83236
0.906675	10.2311
0.908744	8.95298
0.918473	10.3899
0.918568	9.19181
0.928272	10.9482
0.928385	9.51051
0.938089	11.2669
0.938177	10.1487
0.9459	12.065
0.945995	10.8669
0.957623	13.1823
0.95773	11.8245
0.971409	13.1013
0.973296	14.1395
0.988686	18.691
0.998321	21.326
