Adsorption isotherm of Nitrogen on GNP
DOI: 10.1016/j.micromeso.2015.07.013
Article source: Figure S1
Adsorbate Nitrogen: InChIKey IJGRMHOSHXDMSA-UHFFFAOYSA-N
Kind: experiment
Temperature: 77 K
Tabular data in the source: 0
pressure (bar)	uptake (mmol/g)
0.012427	1.91481
0.019919	2.49354
0.02119	2.22623
0.029929	2.93853
0.031195	2.7603
0.04119	3.42801
0.049951	3.78397
0.051234	3.33848
0.06249	3.91704
0.062506	3.64978
0.070004	4.13942
0.072524	3.96113
0.080011	4.62895
0.082548	4.18341
0.090046	4.67305
0.091314	4.45028
0.101324	4.89526
0.101338	4.67255
0.201659	5.55895
0.201664	5.46986
0.300761	5.86634
0.300775	5.64362
0.401113	6.26276
0.40113	5.9955
0.500207	6.70378
0.501495	6.1692
0.600477	8.39196
0.600586	6.65476
0.699549	9.18933
0.700927	7.22936
0.801122	10.1202
0.80125	8.07121
0.898894	11.6303
0.90028	9.53674
0.91017	11.8971
0.910295	9.89264
0.920182	12.2975
0.920299	10.4267
0.928926	12.9208
0.930306	10.9162
0.938944	13.2321
0.939042	11.6731
0.950206	13.7216
0.950287	12.4298
0.960196	14.4784
0.960271	13.2757
0.969012	13.9435
0.970192	15.1461
0.980187	15.8138
0.980249	14.8338
0.988898	16.9715
0.98892	16.6152
1.00008	18.6637
