Adsorption isotherm of Nitrogen on MIL-53(Al)/GNP 5%
DOI: 10.1016/j.micromeso.2015.07.013
Article source: Figure 9
Adsorbate Nitrogen: InChIKey IJGRMHOSHXDMSA-UHFFFAOYSA-N
Kind: experiment
Temperature: 323 K
Tabular data in the source: 0
pressure (bar)	uptake (mmol/g)
0.339703	3.07904
0.934183	4.28179
1.95329	4.57045
2.9724	4.85911
3.99151	5.09966
4.92569	5.2921
5.9448	5.58076
6.96391	5.86942
7.98301	6.20619
9.00212	6.7354
9.93631	7.55326
14.9469	11.1615
19.9575	11.9313
24.9682	12.3162
29.9788	12.7491
40	12.9416
