Adsorption isotherm of Carbon Dioxide on MIL-53(Al)/GNP 5%
DOI: 10.1016/j.micromeso.2015.07.013
Article source: Figure 8
Adsorbate Carbon Dioxide: InChIKey CURLTUGMZLYLDI-UHFFFAOYSA-N
Kind: experiment
Temperature: 298 K
Tabular data in the source: 0
pressure (bar)	uptake (mmol/g)
0.444525	3.07807
0.960727	4.32714
1.97741	4.5948
2.99347	4.77323
4.01078	5.13011
4.94227	5.30855
5.95927	5.62082
7.06084	5.93309
7.90871	6.24535
9.01216	6.82528
10.0323	7.58364
15.0472	11.197
20.1268	12
25.1179	12.223
30.1098	12.5799
40.0063	12.8922
