Adsorption isotherm of Nitrogen on MIL-53(Al)/GNP 2.5%
DOI: 10.1016/j.micromeso.2015.07.013
Article source: Figure 7
Adsorbate Nitrogen: InChIKey IJGRMHOSHXDMSA-UHFFFAOYSA-N
Kind: experiment
Temperature: 298 K
Tabular data in the source: 0
pressure (bar)	uptake (mmol/g)
0.088608	0.171821
0.196203	0.206186
0.297468	0.257732
0.398734	0.274914
0.493671	0.274914
0.594937	0.292096
0.689873	0.292096
0.791139	0.309278
0.898734	0.32646
1	0.360825
1.24684	0.395189
1.5	0.412371
2	0.412371
2.49367	0.429553
3	0.463918
