Adsorption isotherm of Nitrogen on MIL-53(Al)/GNP 5%
DOI: 10.1016/j.micromeso.2015.07.013
Article source: Figure 8
Adsorbate Nitrogen: InChIKey IJGRMHOSHXDMSA-UHFFFAOYSA-N
Kind: experiment
Temperature: 298 K
Tabular data in the source: 0
pressure (bar)	uptake (mmol/g)
0.425034	0.312268
1.01731	0.356877
1.94786	0.401487
3.0488	0.624535
3.97997	0.758364
4.99572	0.892193
6.01114	0.981413
6.94263	1.15985
7.95775	1.20446
8.97318	1.29368
9.98892	1.42751
14.9802	1.69517
20.0564	2.00743
24.9619	2.09665
30.0375	2.3197
40.017	2.40892
