Adsorption isotherm of Nitrogen on MIL-53(Al)/GNP 2.5%
DOI: 10.1016/j.micromeso.2015.07.013
Article source: Figure 8
Adsorbate Nitrogen: InChIKey IJGRMHOSHXDMSA-UHFFFAOYSA-N
Kind: experiment
Temperature: 298 K
Tabular data in the source: 0
pressure (bar)	uptake (mmol/g)
7.02406	0.713755
7.95523	0.847584
9.05554	0.981413
9.98672	1.11524
14.9774	1.29368
19.9684	1.51673
24.9588	1.65056
30.0337	1.78439
40.0984	1.96283
