Adsorption isotherm of Nitrogen on MIL-53(Al)/GNP 10%
DOI: 10.1016/j.micromeso.2015.07.013
Article source: Figure 8
Adsorbate Nitrogen: InChIKey IJGRMHOSHXDMSA-UHFFFAOYSA-N
Kind: experiment
Temperature: 298 K
Tabular data in the source: 0
pressure (bar)	uptake (mmol/g)
0.508343	0.133829
1.01606	0.178439
2.03148	0.267658
2.96203	0.312268
3.97746	0.401487
4.90801	0.446097
6.008	0.535316
6.93823	0.535316
7.78421	0.579926
8.88421	0.669145
9.9842	0.758364
14.9739	0.802974
20.0486	0.892193
24.9541	0.981413
30.0284	1.02602
40.0082	1.15985
