Adsorption isotherm of Carbon Dioxide on MIL-53(Al)/GNP 2.5%
DOI: 10.1016/j.micromeso.2015.07.013
Article source: Figure 8
Adsorbate Carbon Dioxide: InChIKey CURLTUGMZLYLDI-UHFFFAOYSA-N
Kind: experiment
Temperature: 298 K
Tabular data in the source: 0
pressure (bar)	uptake (mmol/g)
0.956954	3.79182
2.99064	4.37175
4.00795	4.72862
4.93976	4.95167
5.95644	5.21933
6.97156	5.26394
7.98824	5.5316
8.92099	5.88848
9.93862	6.28996
15.0428	10.5725
20.0363	11.1524
25.0267	11.2862
30.1016	11.4201
40.1669	11.6877
