Adsorption isotherm of Nitrogen on MIL-53(Al)
DOI: 10.1016/j.micromeso.2015.07.013
Article source: Figure 9
Adsorbate Nitrogen: InChIKey IJGRMHOSHXDMSA-UHFFFAOYSA-N
Kind: experiment
Temperature: 323 K
Tabular data in the source: 0
pressure (bar)	uptake (mmol/g)
0.424628	1.49141
0.934183	2.16495
1.95329	2.83849
2.9724	3.03093
3.99151	3.07904
4.92569	3.22337
5.9448	3.3677
7.04883	3.3677
7.98301	3.60825
8.9172	3.70447
9.93631	3.89691
14.9469	8.51546
20.0425	8.90034
25.0531	9.33333
30.0637	9.42955
40	9.62199
