Adsorption isotherm of Carbon Dioxide on MIL-53(Al)/GNP 10%
DOI: 10.1016/j.micromeso.2015.07.013
Article source: Figure 7
Adsorbate Carbon Dioxide: InChIKey CURLTUGMZLYLDI-UHFFFAOYSA-N
Kind: experiment
Temperature: 298 K
Tabular data in the source: 0
pressure (bar)	uptake (mmol/g)
0	0
0.101266	0.515464
0.189873	0.738832
0.291139	0.841924
0.398734	0.893471
0.493671	0.962199
0.594937	0.979381
0.696203	0.979381
0.797468	1.08247
0.892405	1.1512
0.993671	1.4433
1.24051	2.02749
1.49367	2.56014
1.99367	3.09278
2.5	3.17869
3	3.24742
