Adsorption isotherm of Nitrogen on MIL-53(Al)
DOI: 10.1016/j.micromeso.2015.07.013
Article source: Figure 9
Adsorbate Nitrogen: InChIKey IJGRMHOSHXDMSA-UHFFFAOYSA-N
Kind: experiment
Temperature: 298 K
Tabular data in the source: 0
pressure (bar)	uptake (mmol/g)
0.339703	1.78007
0.934183	3.46392
1.95329	3.89691
2.9724	3.94502
3.90658	4.08935
4.92569	4.08935
5.9448	4.13746
6.96391	4.28179
8.06794	8.2268
8.9172	9.14089
9.93631	9.38144
15.0318	9.91065
20.0425	10.1512
24.9682	10.2955
30.0637	10.4399
40.0849	10.6323
