Adsorption isotherm of Nitrogen on MIL-53(Al)/GNP 10%
DOI: 10.1016/j.micromeso.2015.07.013
Article source: Figure 3
Adsorbate Nitrogen: InChIKey IJGRMHOSHXDMSA-UHFFFAOYSA-N
Kind: experiment
Temperature: 77 K
Tabular data in the source: 0
pressure (bar)	uptake (mmol/g)
6e-06	-0.079873
0.009704	1.75641
0.019434	3.19334
0.031226	3.43201
0.037119	3.59128
0.041087	3.19161
0.048924	3.67021
0.05876	3.7493
0.058779	3.50968
0.068602	3.74851
0.072558	3.50858
0.078445	3.74773
0.078464	3.50811
0.08437	3.50764
0.090256	3.74678
0.09813	3.74616
0.098149	3.50654
0.200487	3.81785
0.200506	3.57823
0.298906	3.88986
0.298944	3.41063
0.399301	3.88184
0.399338	3.40261
0.499701	3.79395
0.499733	3.39459
0.598121	3.86596
0.600133	3.3067
0.698509	3.93782
0.698553	3.37871
0.798897	4.00967
0.798947	3.37069
0.897316	4.08168
0.899342	3.36267
0.907209	3.44192
0.909121	4.16061
0.917052	3.44113
0.918951	4.31957
0.926819	4.39882
0.93475	3.67933
0.936636	4.71752
0.948416	5.11594
0.948485	4.23734
0.958296	4.63592
0.960177	5.75398
0.968013	6.23259
0.970063	5.19408
0.977805	6.87078
0.979837	6.0719
0.987478	9.02656
0.987503	8.70707
0.996723	16.6137
