Adsorption isotherm of Nitrogen on MIL-53(Al)/GNP 5%
DOI: 10.1016/j.micromeso.2015.07.013
Article source: Figure 9
Adsorbate Nitrogen: InChIKey IJGRMHOSHXDMSA-UHFFFAOYSA-N
Kind: experiment
Temperature: 323 K
Tabular data in the source: 0
pressure (bar)	uptake (mmol/g)
0	0
0.509554	2.30928
1.01911	2.74227
1.86837	3.41581
2.9724	3.51203
3.99151	3.60825
4.92569	3.70447
5.9448	3.8488
6.96391	3.94502
7.98301	4.13746
9.00212	4.23368
9.93631	4.42612
14.9469	5.38832
20.0425	9.189
25.0531	10.488
30.0637	10.7766
40	10.9691
