Adsorption isotherm of Nitrogen on MIL-53(Al)/GNP 5%
DOI: 10.1016/j.micromeso.2015.07.013
Article source: Figure 7
Adsorbate Nitrogen: InChIKey IJGRMHOSHXDMSA-UHFFFAOYSA-N
Kind: experiment
Temperature: 298 K
Tabular data in the source: 0
pressure (bar)	uptake (mmol/g)
0.088608	0.189003
0.196203	0.292096
0.297468	0.378007
0.398734	0.360825
0.506329	0.378007
0.588608	0.395189
0.696203	0.412371
0.797468	0.446735
0.892405	0.4811
0.993671	0.498282
1.24684	0.532646
1.5	0.549828
2	0.584192
2.49367	0.584192
3	0.584192
