Adsorption isotherm of Nitrogen on MIL-53(Al)/GNP 5%
DOI: 10.1016/j.micromeso.2015.07.013
Article source: Figure 9
Adsorbate Nitrogen: InChIKey IJGRMHOSHXDMSA-UHFFFAOYSA-N
Kind: experiment
Temperature: 348 K
Tabular data in the source: 0
pressure (bar)	uptake (mmol/g)
1.10403	2.06873
1.95329	2.35739
2.9724	2.54983
3.99151	2.59794
4.92569	2.69416
5.9448	2.79038
6.96391	2.8866
8.06794	3.03093
8.9172	3.17526
9.93631	3.3677
14.862	3.8488
19.9575	4.71478
25.0531	7.12027
29.9788	7.89003
40.0849	8.37113
