Adsorption isotherm of Nitrogen on MIL-53(Al)
DOI: 10.1016/j.micromeso.2015.07.013
Article source: Figure 3
Adsorbate Nitrogen: InChIKey IJGRMHOSHXDMSA-UHFFFAOYSA-N
Kind: experiment
Temperature: 77 K
Tabular data in the source: 0
pressure (bar)	uptake (mmol/g)
0	0
0.009634	2.64423
0.0193	4.88782
0.031023	6.00962
0.038853	6.57051
0.048588	7.93269
0.048613	7.61218
0.058412	8.17308
0.07021	8.33333
0.080046	8.41346
0.089876	8.57372
0.099693	8.89423
0.200087	8.89423
0.300468	9.05449
0.398874	9.29487
0.398881	9.21474
0.499256	9.45513
0.499262	9.375
0.599637	9.61538
0.698074	9.45513
0.700011	9.85577
0.798399	10.3365
0.798443	9.77564
0.896742	11.3782
0.898742	10.9776
0.906565	11.6186
0.91637	12.0994
0.916414	11.5385
0.926181	12.5
0.928187	12.0192
0.936024	12.5
0.937961	12.9006
0.947734	13.7821
0.949734	13.3814
0.957519	14.5032
0.957551	14.1026
0.967305	15.2244
0.969223	15.8654
0.977022	16.8269
0.986631	19.7917
0.996208	23.1571
