Adsorption isotherm of Carbon Dioxide on MIL-53(Al)/GNP 10%
DOI: 10.1016/j.micromeso.2015.07.013
Article source: Figure 8
Adsorbate Carbon Dioxide: InChIKey CURLTUGMZLYLDI-UHFFFAOYSA-N
Kind: experiment
Temperature: 298 K
Tabular data in the source: 0
pressure (bar)	uptake (mmol/g)
0.431321	1.20446
0.940921	1.51673
1.95918	2.00743
2.89193	2.36431
3.99318	2.63197
5.00955	2.85502
6.02561	3.03346
6.95804	3.34572
7.89016	3.61338
8.9059	3.74721
9.92259	4.01487
15.0032	4.95167
20.0913	6.95911
25.0908	8.38662
29.9991	8.87732
40.0641	9.10037
