Adsorption isotherm of Nitrogen on MIL-53(Al)
DOI: 10.1016/j.micromeso.2015.07.013
Article source: Figure 8
Adsorbate Nitrogen: InChIKey IJGRMHOSHXDMSA-UHFFFAOYSA-N
Kind: experiment
Temperature: 298 K
Tabular data in the source: 0
pressure (bar)	uptake (mmol/g)
1.18456	0.089219
2.11542	0.178439
4.23053	0.312268
6.008	0.535316
7.10737	0.535316
14.9749	0.936803
20.0498	1.07063
25.0399	1.15985
30.1148	1.29368
40.0104	1.47212
