Adsorption isotherm of Nitrogen on MIL-53(Al)/GNP 5%
DOI: 10.1016/j.micromeso.2015.07.013
Article source: Figure 9
Adsorbate Nitrogen: InChIKey IJGRMHOSHXDMSA-UHFFFAOYSA-N
Kind: experiment
Temperature: 348 K
Tabular data in the source: 0
pressure (bar)	uptake (mmol/g)
0.339703	1.20275
1.01911	1.53952
1.86837	1.82818
2.9724	2.06873
4.07643	2.16495
4.84076	2.21306
5.85987	2.35739
6.96391	2.35739
7.98301	2.45361
9.00212	2.59794
9.93631	2.74227
15.0318	4.08935
19.8726	6.78351
24.9682	7.31271
30.0637	7.55326
40	7.69759
