Adsorption isotherm of Water on Mg-MOF-74
DOI: 10.1021/Jp503778m
Adsorbate Water: InChIKey XLYOFNOQVPJJNP-UHFFFAOYSA-N
Temperature: 300 K
Tabular data in the source: 0
pressure (bar)	uptake (mmol/g)
-1.66081e-06	2.41814
0.000270988	5.44081
0.000272096	3.82872
0.000489385	7.45592
0.000541839	11.0831
0.000542946	9.47103
0.000760096	13.2997
0.00076065	12.4937
0.000814488	14.1058
0.00103385	14.7103
0.00130761	16.1209
0.00152642	17.5315
0.00158067	18.539
0.00185471	19.5466
0.00256816	20.7557
0.0033922	20.9572
0.00421582	21.7632
0.00547942	21.9647
0.00745703	22.5693
0.00888532	22.9723
0.0111926	23.5768
0.0128956	23.9798
0.0176198	25.5919
0.0232793	25.3904
0.0271799	25.995
0.0290479	26.1965
0.0305863	26.398
0.0319599	26.398
