Adsorption isotherm of Water on Mg-MOF-74
DOI: 10.1021/Jp503778m
Adsorbate Water: InChIKey XLYOFNOQVPJJNP-UHFFFAOYSA-N
Temperature: 300 K
Tabular data in the source: 0
pressure (bar)	uptake (mmol/g)
-5.91073e-05	3.23199
-5.71648e-05	6.06026
0.000159285	8.08173
0.000488676	8.48767
0.000818068	8.89361
0.00136738	9.0988
0.00158674	9.70613
0.00202574	10.5167
0.00252011	10.7216
0.00301433	11.1285
0.00499082	13.3621
0.00998706	18.8455
0.0149845	22.5107
0.019983	24.7618
0.024982	26.2048
0.0300362	27.2441
