Adsorption isotherm of Water on Mg-MOF-74
DOI: 10.1021/Jp503778m
Adsorbate Water: InChIKey XLYOFNOQVPJJNP-UHFFFAOYSA-N
Temperature: 300 K
Tabular data in the source: 0
pressure (bar)	uptake (mmol/g)
0.00223254	29.4207
0.00393556	29.8237
0.00569311	30.8312
0.00734077	31.8388
0.00915354	32.4433
0.0108566	32.8463
0.0142626	33.6524
0.0176685	34.6599
0.0210196	35.466
0.0245357	36.0705
0.027942	36.4736
0.0313483	36.8766
