Adsorption isotherm of Water on Mg-MOF-74
DOI: 10.1021/Jp503778m
Adsorbate Water: InChIKey XLYOFNOQVPJJNP-UHFFFAOYSA-N
Temperature: 300 K
Tabular data in the source: 0
pressure (bar)	uptake (mmol/g)
0.00142663	2.82116
0.00510477	7.45592
0.00751972	11.2846
0.0150451	14.3073
0.019604	16.5239
0.025702	17.9345
0.0285024	20.5542
0.0312496	20.5542
