Adsorption isotherm of Water on Mg-MOF-74
DOI: 10.1021/Jp503778m
Adsorbate Water: InChIKey XLYOFNOQVPJJNP-UHFFFAOYSA-N
Temperature: 300 K
Tabular data in the source: 0
pressure (bar)	uptake (mmol/g)
0.00224693	8.46348
0.00455103	13.7028
0.00916558	14.9118
0.0137251	16.3224
0.0183397	17.33
0.0229537	19.3451
0.0275675	21.7632
0.0321264	23.9798
