Adsorption isotherm of Water on Mg-MOF-74
DOI: 10.1021/Jp503778m
Adsorbate Water: InChIKey XLYOFNOQVPJJNP-UHFFFAOYSA-N
Temperature: 300 K
Tabular data in the source: 0
pressure (bar)	uptake (mmol/g)
-5.49448e-05	-0.000317142
0.000494504	0.00285428
0.000989007	0.00570855
0.00192293	0.213119
0.00258213	0.418944
0.0029963	37.391
0.00491909	37.8062
0.00997304	39.2495
0.0200274	40.1156
