Adsorption isotherm of Water on Mg-MOF-74
DOI: 10.1021/Jp503778m
Adsorbate Water: InChIKey XLYOFNOQVPJJNP-UHFFFAOYSA-N
Temperature: 300 K
Tabular data in the source: 0
pressure (bar)	uptake (mmol/g)
0.000210646	13.2997
0.000211476	12.0907
0.000212583	10.4786
0.000264899	14.3073
0.00037382	15.7179
0.000482603	17.33
0.000646054	19.3451
0.000920087	20.3526
0.00108354	22.3678
0.00130221	23.9798
0.00141099	25.5919
0.00162994	26.801
0.00201401	27.6071
0.00261799	28.2116
0.00300233	28.6146
0.00327705	28.6146
0.00349655	29.0176
0.00410067	29.4207
0.00454023	29.4207
0.00514449	29.6222
0.00525438	29.6222
0.00596839	30.0252
0.00646289	30.0252
0.00723185	30.4282
0.00833061	30.6297
0.00893473	31.0327
0.0100883	31.4358
0.0109673	31.6373
0.0123406	32.0403
0.0139336	32.6448
0.0145377	33.0479
0.0161858	33.4509
0.0176689	34.0554
0.0189873	34.4584
0.0201412	34.4584
0.0213495	35.063
0.0230526	35.466
0.0247005	36.0705
0.0251949	36.272
0.0271177	36.6751
0.0288755	37.2796
0.0301936	38.0856
0.031512	38.4887
0.0319516	38.4887
