Adsorption isotherm of Water on Mg-MOF-74
DOI: 10.1021/Jp503778m
Adsorbate Water: InChIKey XLYOFNOQVPJJNP-UHFFFAOYSA-N
Temperature: 300 K
Tabular data in the source: 0
pressure (bar)	uptake (mmol/g)
0.000218947	1.21338
0.000383088	2.22443
0.000657534	2.63006
0.000931565	3.64174
0.00148004	5.05905
0.00191891	6.07168
0.00252261	7.08527
0.00307178	7.49248
0.00499193	11.746
0.00745127	30.9521
0.00997637	34.401
0.0150303	35.8443
0.0200298	36.6813
0.0249742	37.5179
0.0299741	37.7488
