Adsorption isotherm of Oxygen on CuBTC
DOI: 10.1039/C0cc02194f
Adsorbate Oxygen: InChIKey MYMOFIZGZYHOMD-UHFFFAOYSA-N
Temperature: 298 K
Tabular data in the source: 0
pressure (bar)	uptake (mmol/g)
1.03934	0.486909
1.50813	0.585229
1.99891	0.81464
2.5194	0.945733
4.08362	1.33901
5.98543	1.76506
8.01343	2.15834
9.79971	2.48607
20.0201	4.25582
29.6405	5.3701
40.8994	6.3533
59.3469	7.53313
77.872	8.18859
96.1936	8.38523
