Adsorption isotherm of Nitrogen on CuBTC
DOI: 10.1039/C0cc02194f
Adsorbate Nitrogen: InChIKey IJGRMHOSHXDMSA-UHFFFAOYSA-N
Temperature: 298 K
Tabular data in the source: 0
pressure (bar)	uptake (mmol/g)
1.49304	0.421363
1.95909	0.519682
2.95947	0.716321
4.04274	1.01128
6.1071	1.40456
7.77515	1.69951
9.79971	2.02725
19.8196	3.20708
30.5488	4.02641
39.2861	4.55078
59.9471	5.33733
79.4549	5.59951
99.1414	5.73061
