Adsorption isotherm of Oxygen on CuBTC
DOI: 10.1039/C0cc02194f
Adsorbate Oxygen: InChIKey MYMOFIZGZYHOMD-UHFFFAOYSA-N
Temperature: 298 K
Tabular data in the source: 0
pressure (bar)	uptake (mmol/g)
1.47809	0.421363
2.3718	0.650775
3.73007	0.945733
5.98543	1.30624
14.0775	2.3222
19.2303	2.78103
39.6833	4.22304
59.9471	4.74741
