Adsorption isotherm of Argon on CuBTC
DOI: 10.1039/C0cc02194f
Adsorbate Argon: InChIKey XKRFYHLGVUSROY-UHFFFAOYSA-N
Temperature: 298 K
Tabular data in the source: 0
pressure (bar)	uptake (mmol/g)
4.04274	1.1096
8.01343	1.9617
14.8038	3.14153
24.9804	4.48523
35.1699	5.56674
44.3277	6.38607
54.7571	6.97599
64.9719	7.40204
74.0513	7.69699
85.2529	7.99195
93.3333	8.12304
