Adsorption isotherm of Carbon Tetrachloride on CuBTC
DOI: 10.1039/C0cc02194f
Adsorbate Carbon Tetrachloride: InChIKey VZGDMQKNWNREIO-UHFFFAOYSA-N
Temperature: 298 K
Tabular data in the source: 0
pressure (bar)	uptake (mmol/g)
2.1e-05	0.0374528
3.2e-05	0.0505621
5.09e-05	0.142327
0.000103	1.07308
0.000116	2.14804
0.000126	3.24922
0.000142	4.27174
0.0002	5.24182
0.000293	5.64821
0.001062	5.88418
0.0103202	6.08081
0.0282268	6.14636
0.0698134	6.22502
0.102327	6.23813
