Adsorption isotherm of Argon on CuBTC
DOI: 10.1039/C0cc02194f
Adsorbate Argon: InChIKey XKRFYHLGVUSROY-UHFFFAOYSA-N
Temperature: 298 K
Tabular data in the source: 0
pressure (bar)	uptake (mmol/g)
1.73627	0.552456
10.1	2.28943
20.8422	5.92725
31.485	8.02472
41.313	9.72893
54.2089	11.3676
64.3215	12.4491
74.0513	13.4323
85.2529	14.5466
