Adsorption isotherm of Argon on CuBTC
DOI: 10.1039/C0cc02194f
Adsorbate Argon: InChIKey XKRFYHLGVUSROY-UHFFFAOYSA-N
Temperature: 298 K
Tabular data in the source: 0
pressure (bar)	uptake (mmol/g)
1.32322	0.126405
3.14363	0.454136
5.35832	0.650775
9.04181	1.04405
11.7454	2.3222
19.2303	3.53481
34.1242	4.91128
59.3469	6.2222
