Adsorption isotherm of In(III), Water on 2.2 mm Alginate-Sulfonate-Silica Spheres
DOI: 10.1021/acs.iecr.7b01101
Article source: Figure 4
Adsorbate In(III): InChIKey NYJDZIHMFYLPPU-UHFFFAOYSA-N
Adsorbate Water: InChIKey XLYOFNOQVPJJNP-UHFFFAOYSA-N
Kind: experiment
Temperature: 298 K
Tabular data in the source: 0
pressure (bar)	In(III) fraction	In(III) uptake (mmol/g)	Water fraction	Water uptake (mmol/g)	total uptake (mmol/g)
1.01325	-0.0006	0.04883			
1.01325	0.023	0.19503			
1.01325	0.024	0.09885			
1.01325	0.16	0.44273			
1.01325	1.111	0.55428			
1.01325	3.36	0.66137			
1.01325	10.449	0.8536			
1.01325	22.476	1.02264			
