Adsorption isotherm of Nitrogen on 2.2mm alginate-sulfonate-silica particles
DOI: 10.1021/acs.iecr.7b01101
Article source: Figure S5
Adsorbate Nitrogen: InChIKey IJGRMHOSHXDMSA-UHFFFAOYSA-N
Kind: experiment
Temperature: 77 K
Tabular data in the source: 0
pressure (bar)	uptake (cm3(STP)/g)
0.002928	16.5
0.007934	46.87
0.019241	57.93
0.03063	62.49
0.050378	68.64
0.075921	74.26
0.102488	79.53
0.150363	87.27
0.202646	92.89
0.25277	100.27
0.303321	109.41
0.303584	106.95
0.354134	112.05
0.404603	120.84
0.434453	126.81
0.454464	126.29
0.474303	132.26
0.50545	135.6
0.505713	134.72
0.538755	141.92
0.554885	142.63
0.578777	150
0.604574	150.71
0.608718	154.4
0.642449	161.6
0.662896	160.55
0.68161	168.63
0.711723	176.88
0.71224	172.67
0.738462	183.91
0.759689	185.49
0.778748	196.73
0.806876	209.2
0.808345	202.88
0.845176	233.25
0.864589	233.78
0.884084	279.95
0.912464	285.05
0.914886	360.17
0.960775	454.27
0.967594	1043.88
0.992266	1087.24
0.996319	1750.57
1.00572	1803.76
