Adsorption isotherm of In(III), Water on 2.8 mm Alginate-Sulfonate-Silica Spheres
DOI: 10.1021/acs.iecr.7b01101
Article source: Figure 4
Adsorbate In(III): InChIKey NYJDZIHMFYLPPU-UHFFFAOYSA-N
Adsorbate Water: InChIKey XLYOFNOQVPJJNP-UHFFFAOYSA-N
Kind: experiment
Temperature: 298 K
Tabular data in the source: 0
pressure (bar)	In(III) fraction	In(III) uptake (mmol/g)	Water fraction	Water uptake (mmol/g)	total uptake (mmol/g)
1.01325	0.006	0.04794			
1.01325	0.031	0.09589			
1.01325	0.042	0.19503			
1.01325	0.16	0.42823			
1.01325	0.997	0.57648			
1.01325	3.34	0.6812			
1.01325	10.423	0.87668			
1.01325	22.488	1.04572			
