Adsorption isotherm of In(III), Water on 3.5 mm Alginate-Sulfonate-Silica Spheres
DOI: 10.1021/acs.iecr.7b01101
Article source: Figure 4
Adsorbate In(III): InChIKey NYJDZIHMFYLPPU-UHFFFAOYSA-N
Adsorbate Water: InChIKey XLYOFNOQVPJJNP-UHFFFAOYSA-N
Kind: experiment
Temperature: 298 K
Tabular data in the source: 0
pressure (bar)	In(III) fraction	In(III) uptake (mmol/g)	Water fraction	Water uptake (mmol/g)	total uptake (mmol/g)
1.01325	0.023	0.19473			
1.01325	0.025	0.05031			
1.01325	0.031	0.09737			
1.01325	0.192	0.40929			
1.01325	1.099	0.55636			
1.01325	3.283	0.6667			
1.01325	10.353	0.85656			
1.01325	22.451	1.01702			
