Adsorption isotherm of Water on AQSOA-FAM-Z02
DOI: 10.1021/acs.jced.1c00942
Article source: Figure 3 / AIF Supplementary Data
Adsorbate Water: InChIKey XLYOFNOQVPJJNP-UHFFFAOYSA-N
Kind: experiment
Isotherm type: excess
Temperature: 323 K
Tabular data in the source: 0
pressure (bar)	uptake (g/g)
0.00247	0.087
0.00494	0.109
0.00741	0.132
0.00988	0.163
0.0247	0.235
0.03706	0.246
0.06176	0.262
0.08646	0.278
0.11117	0.299
0.08646	0.288
0.06176	0.274
0.03706	0.26
0.0247	0.251
0.01235	0.234
0.00741	0.209
0.00371	0.131
0.00124	0.098
