Adsorption isotherm of Water on AQSOA-FAM-Z02
DOI: 10.1021/acs.jced.1c00942
Article source: Figure 3 / AIF Supplementary Data
Adsorbate Water: InChIKey XLYOFNOQVPJJNP-UHFFFAOYSA-N
Kind: experiment
Isotherm type: excess
Temperature: 303 K
Tabular data in the source: 0
pressure (bar)	uptake (g/g)
0.00085	0.125
0.0017	0.153
0.00255	0.191
0.0034	0.249
0.00425	0.255
0.00849	0.27
0.01274	0.28
0.02124	0.295
0.02973	0.311
0.03822	0.332
0.02973	0.322
0.02124	0.306
0.01274	0.292
0.00849	0.283
0.00425	0.268
0.00319	0.26
0.00212	0.249
0.00255	0.259
0.00127	0.227
0.00042	0.15
