Adsorption isotherm of Water on AQSOA-FAM-Z02
DOI: 10.1021/acs.jced.1c00942
Article source: Figure 3 / AIF Supplementary Data
Adsorbate Water: InChIKey XLYOFNOQVPJJNP-UHFFFAOYSA-N
Kind: experiment
Isotherm type: excess
Temperature: 343 K
Tabular data in the source: 0
pressure (bar)	uptake (g/g)
0.00624	0.075
0.01248	0.093
0.01872	0.109
0.02496	0.125
0.0312	0.143
0.0624	0.217
0.0936	0.231
0.15601	0.247
0.21841	0.264
0.28081	0.283
0.21841	0.272
0.15601	0.258
0.09329	0.245
0.0624	0.235
0.0312	0.206
0.01872	0.137
0.00936	0.104
0.00312	0.084
0.0025	0.069
