Adsorption isotherm of Carbon Dioxide on Amine Modified TiO2
DOI: 10.1016/j.apenergy.2015.01.081
Article source: Figure 9a
Adsorbate Carbon Dioxide: InChIKey CURLTUGMZLYLDI-UHFFFAOYSA-N
Kind: experiment
Temperature: 333 K
Tabular data in the source: 0
pressure (bar)	uptake (mmol/g)
1.273	0.1317
5.021	0.2832
9.971	0.3324
15.122	0.3535
20.005	0.3745
25.022	0.3862
30.038	0.3699
34.988	0.3441
