Adsorption isotherm of Carbon Dioxide on Amine Modified TiO2
DOI: 10.1016/j.apenergy.2015.01.081
Article source: Figure 9c
Adsorbate Carbon Dioxide: InChIKey CURLTUGMZLYLDI-UHFFFAOYSA-N
Kind: experiment
Temperature: 296 K
Tabular data in the source: 0
pressure (bar)	uptake (mmol/g)
1.0283	0.9841
5.0292	1.7762
10.0788	2.5864
15.0022	3.379
20.0514	4.1716
25.0995	4.9203
30.0594	5.4669
35.0973	5.759
