Adsorption isotherm of Methane on Amine Modified TiO2
DOI: 10.1016/j.apenergy.2015.01.081
Article source: Figure 9b
Adsorbate Methane: InChIKey VNWKTOKETHGBQD-UHFFFAOYSA-N
Kind: experiment
Temperature: 333 K
Tabular data in the source: 0
pressure (bar)	uptake (mmol/g)
1.137	0.2281
5.017	0.5657
9.967	0.9791
14.916	1.3079
20	1.5775
25.017	1.771
30.1	1.8968
34.983	2.0481
