Adsorption isotherm of Methane on TiO2
DOI: 10.1016/j.apenergy.2015.01.081
Article source: Figure 8a
Adsorbate Methane: InChIKey VNWKTOKETHGBQD-UHFFFAOYSA-N
Kind: experiment
Temperature: 333 K
Tabular data in the source: 0
pressure (bar)	uptake (mmol/g)
1.011	0.3377
4.981	1.0545
9.961	2.0878
15.007	3.0365
19.917	3.795
25.027	4.5111
29.937	5.2907
35.18	5.9011
