Adsorption isotherm of Carbon Dioxide on TiO2
DOI: 10.1016/j.apenergy.2015.01.081
Article source: Figure 8c
Adsorbate Carbon Dioxide: InChIKey CURLTUGMZLYLDI-UHFFFAOYSA-N
Kind: experiment
Temperature: 313 K
Tabular data in the source: 0
pressure (bar)	uptake (mmol/g)
1.086	1.3246
4.991	2.7395
10.037	4.1526
15.016	5.5342
19.928	6.9791
24.973	8.2027
29.948	9.2369
34.99	10.0816
