Adsorption isotherm of Methane on Amine Modified TiO2
DOI: 10.1016/j.apenergy.2015.01.081
Article source: Figure 7b
Adsorbate Methane: InChIKey VNWKTOKETHGBQD-UHFFFAOYSA-N
Kind: experiment
Temperature: 296 K
Tabular data in the source: 0
pressure (bar)	uptake (mmol/g)
1.053	0.669
5	1.1233
9.934	1.8958
15	2.5014
19.868	3.1235
24.868	3.6622
29.803	4.0672
34.868	4.5558
