Adsorption isotherm of Carbon Dioxide on TiO2
DOI: 10.1016/j.apenergy.2015.01.081
Article source: Figure 7a
Adsorbate Carbon Dioxide: InChIKey CURLTUGMZLYLDI-UHFFFAOYSA-N
Kind: experiment
Temperature: 313 K
Tabular data in the source: 0
pressure (bar)	uptake (mmol/g)
1.072	0.7938
4.942	2.7794
10.059	4.2704
15.045	5.8604
20.094	7.1862
25.137	8.2476
30.185	9.5404
35.161	10.5357
