Adsorption isotherm of Carbon Dioxide on Amine Modified TiO2
DOI: 10.1016/j.apenergy.2015.01.081
Article source: Figure 7b
Adsorbate Carbon Dioxide: InChIKey CURLTUGMZLYLDI-UHFFFAOYSA-N
Kind: experiment
Temperature: 333 K
Tabular data in the source: 0
pressure (bar)	uptake (mmol/g)
1.118	0.953
4.934	1.8081
9.934	2.8981
14.934	3.8042
19.934	4.6269
25	5.4162
29.934	5.9883
34.868	6.5102
