Adsorption isotherm of Methane on TiO2
DOI: 10.1016/j.apenergy.2015.01.081
Article source: Figure 8c
Adsorbate Methane: InChIKey VNWKTOKETHGBQD-UHFFFAOYSA-N
Kind: experiment
Temperature: 296 K
Tabular data in the source: 0
pressure (bar)	uptake (mmol/g)
1.009	0.251
4.971	0.4658
9.938	0.5843
14.839	0.766
19.941	0.9159
24.841	1.0029
29.877	1.216
34.979	1.3658
