Adsorption isotherm of Methane on Amine Modified TiO2
DOI: 10.1016/j.apenergy.2015.01.081
Article source: Figure 9a
Adsorbate Methane: InChIKey VNWKTOKETHGBQD-UHFFFAOYSA-N
Kind: experiment
Temperature: 333 K
Tabular data in the source: 0
pressure (bar)	uptake (mmol/g)
1.14	0
5.158	0
9.979	0
15.069	0
19.958	0
24.982	0
29.937	0
35.025	0
