Adsorption isotherm of Methane on TiO2
DOI: 10.1016/j.apenergy.2015.01.081
Article source: Figure 7a
Adsorbate Methane: InChIKey VNWKTOKETHGBQD-UHFFFAOYSA-N
Kind: experiment
Temperature: 296 K
Tabular data in the source: 0
pressure (bar)	uptake (mmol/g)
1.072	0.7938
4.933	2.2838
9.985	3.8408
15.096	4.9684
19.94	5.9966
25.048	6.926
30.022	7.7891
35.06	8.5862
