Adsorption isotherm of Methane on TiO2
DOI: 10.1016/j.apenergy.2015.01.081
Article source: Figure 8a
Adsorbate Methane: InChIKey VNWKTOKETHGBQD-UHFFFAOYSA-N
Kind: experiment
Temperature: 296 K
Tabular data in the source: 0
pressure (bar)	uptake (mmol/g)
1.087	0.9931
4.859	1.9636
9.91	3.2717
14.894	4.601
20.007	5.5285
24.915	6.1391
30.022	6.6226
35.062	7.1485
