Adsorption isotherm of Methane on TiO2
DOI: 10.1016/j.apenergy.2015.01.081
Article source: Figure 8a
Adsorbate Methane: InChIKey VNWKTOKETHGBQD-UHFFFAOYSA-N
Kind: experiment
Temperature: 313 K
Tabular data in the source: 0
pressure (bar)	uptake (mmol/g)
0.947	0.5703
4.853	1.5196
9.903	2.7643
14.957	4.305
19.936	5.2115
25.047	6.0121
29.955	6.6649
35.06	7.0005
