Adsorption isotherm of Carbon Dioxide on Amine Modified TiO2
DOI: 10.1016/j.apenergy.2015.01.081
Article source: Figure 9a
Adsorbate Carbon Dioxide: InChIKey CURLTUGMZLYLDI-UHFFFAOYSA-N
Kind: experiment
Temperature: 313 K
Tabular data in the source: 0
pressure (bar)	uptake (mmol/g)
1.205	0.1036
5.086	0.2084
10.037	0.2481
14.987	0.2786
19.87	0.2715
25.02	0.2645
29.836	0.2574
34.986	0.2224
