Adsorption isotherm of Carbon Dioxide on TiO2
DOI: 10.1016/j.apenergy.2015.01.081
Article source: Figure 8a
Adsorbate Carbon Dioxide: InChIKey CURLTUGMZLYLDI-UHFFFAOYSA-N
Kind: experiment
Temperature: 333 K
Tabular data in the source: 0
pressure (bar)	uptake (mmol/g)
1.076	0.1263
4.835	0.23
9.873	0.5022
14.91	0.7744
19.946	0.9831
24.847	1.1285
29.882	1.2104
34.917	1.3135
