Adsorption isotherm of Carbon Dioxide on TiO2
DOI: 10.1016/j.apenergy.2015.01.081
Article source: Figure 8c
Adsorbate Carbon Dioxide: InChIKey CURLTUGMZLYLDI-UHFFFAOYSA-N
Kind: experiment
Temperature: 333 K
Tabular data in the source: 0
pressure (bar)	uptake (mmol/g)
1.082	0.9141
4.985	2.0763
10.03	3.3947
15.007	4.5237
20.05	5.621
25.027	6.7815
29.935	7.6896
35.108	8.3446
