Adsorption isotherm of Nitrogen on Amine Modified TiO2
DOI: 10.1016/j.apenergy.2015.01.081
Article source: Figure 2a
Adsorbate Nitrogen: InChIKey IJGRMHOSHXDMSA-UHFFFAOYSA-N
Kind: experiment
Temperature: 77 K
Tabular data in the source: 0
pressure (bar)	uptake (cm3(STP)/g)
0.09996	157.04
0.198365	214.31
0.293642	243.38
0.390483	257.26
0.479513	263.57
0.584165	267.68
0.676314	272.89
0.78253	276.99
0.873115	281.13
0.959026	313.48
