Adsorption isotherm of Methane on Amine Modified TiO2
DOI: 10.1016/j.apenergy.2015.01.081
Article source: Figure 9c
Adsorbate Methane: InChIKey VNWKTOKETHGBQD-UHFFFAOYSA-N
Kind: experiment
Temperature: 333 K
Tabular data in the source: 0
pressure (bar)	uptake (mmol/g)
0.9652	0.0356
5.0744	0.0461
9.9809	0.0834
14.9714	0.1295
19.961	0.1317
25.0344	0.1339
29.8142	0.1273
35.0553	0.1296
