Adsorption isotherm of Nitrogen on TiO2
DOI: 10.1016/j.apenergy.2015.01.081
Article source: Figure 2a
Adsorbate Nitrogen: InChIKey IJGRMHOSHXDMSA-UHFFFAOYSA-N
Kind: experiment
Temperature: 77 K
Tabular data in the source: 0
pressure (bar)	uptake (cm3(STP)/g)
0.051539	185.35
0.09996	234.05
0.14838	278.41
0.198365	311.92
0.242103	340.02
0.293642	362.68
0.343627	377.76
0.388919	385.25
0.434221	389.49
0.481077	392.64
0.532616	396.86
0.579473	400.01
0.627893	402.07
0.676314	405.21
0.72317	407.28
0.773155	409.34
0.82314	413.56
0.873115	415.62
0.919981	419.85
0.959026	432.78
