Adsorption isotherm of Carbon Dioxide on TiO2
DOI: 10.1016/j.apenergy.2015.01.081
Article source: Figure 8c
Adsorbate Carbon Dioxide: InChIKey CURLTUGMZLYLDI-UHFFFAOYSA-N
Kind: experiment
Temperature: 296 K
Tabular data in the source: 0
pressure (bar)	uptake (mmol/g)
1.018	1.2931
4.929	3.3396
9.978	5.0685
14.892	6.6712
19.94	8.2738
24.855	10.066
29.836	11.6687
35.151	13.1129
