Adsorption isotherm of Carbon Dioxide on TiO2
DOI: 10.1016/j.apenergy.2015.01.081
Article source: Figure 7a
Adsorbate Carbon Dioxide: InChIKey CURLTUGMZLYLDI-UHFFFAOYSA-N
Kind: experiment
Temperature: 296 K
Tabular data in the source: 0
pressure (bar)	uptake (mmol/g)
0.885	1.4214
1.072	0.7938
4.891	3.6714
10.015	5.5589
15.073	7.4464
20.064	9.2346
25.126	11.3534
30.109	12.7451
35.295	14.3684
