Adsorption isotherm of Methane on Amine Modified TiO2
DOI: 10.1016/j.apenergy.2015.01.081
Article source: Figure 9c
Adsorbate Methane: InChIKey VNWKTOKETHGBQD-UHFFFAOYSA-N
Kind: experiment
Temperature: 313 K
Tabular data in the source: 0
pressure (bar)	uptake (mmol/g)
1.0494	0.0532
4.9077	0.09
9.9817	0.1186
14.9305	0.1734
19.9207	0.202
25.0775	0.1867
29.8571	0.1712
34.8464	0.1646
