Adsorption isotherm of Carbon Dioxide on Amine Modified TiO2
DOI: 10.1016/j.apenergy.2015.01.081
Article source: Figure 7b
Adsorbate Carbon Dioxide: InChIKey CURLTUGMZLYLDI-UHFFFAOYSA-N
Kind: experiment
Temperature: 313 K
Tabular data in the source: 0
pressure (bar)	uptake (mmol/g)
1.118	0.9029
5.066	1.9586
9.868	2.8646
14.934	3.7374
20	4.5267
24.934	5.1155
29.868	5.604
34.868	5.9757
