Adsorption isotherm of Methane on Amine Modified TiO2
DOI: 10.1016/j.apenergy.2015.01.081
Article source: Figure 7b
Adsorbate Methane: InChIKey VNWKTOKETHGBQD-UHFFFAOYSA-N
Kind: experiment
Temperature: 313 K
Tabular data in the source: 0
pressure (bar)	uptake (mmol/g)
1.053	0.3851
5.066	0.9731
9.868	1.6786
14.934	2.4178
19.934	2.9064
24.934	3.4284
29.868	3.8334
34.868	4.1717
