Adsorption isotherm of Methane on TiO2
DOI: 10.1016/j.apenergy.2015.01.081
Article source: Figure 8c
Adsorbate Methane: InChIKey VNWKTOKETHGBQD-UHFFFAOYSA-N
Kind: experiment
Temperature: 333 K
Tabular data in the source: 0
pressure (bar)	uptake (mmol/g)
1.008	0.1879
4.969	0.2448
9.936	0.3633
14.904	0.5133
19.87	0.5055
24.972	0.5921
29.805	0.6793
34.973	0.7027
