Adsorption isotherm of Methane on Amine Modified TiO2
DOI: 10.1016/j.apenergy.2015.01.081
Article source: Figure 9a
Adsorbate Methane: InChIKey VNWKTOKETHGBQD-UHFFFAOYSA-N
Kind: experiment
Temperature: 313 K
Tabular data in the source: 0
pressure (bar)	uptake (mmol/g)
1.141	0.3189
5.028	0.8451
10.121	1.5403
15.013	2.1887
20.036	2.7154
25.059	3.1484
29.946	3.4972
35.034	3.7992
