Adsorption isotherm of Methane on Amine Modified TiO2
DOI: 10.1016/j.apenergy.2015.01.081
Article source: Figure 7b
Adsorbate Methane: InChIKey VNWKTOKETHGBQD-UHFFFAOYSA-N
Kind: experiment
Temperature: 333 K
Tabular data in the source: 0
pressure (bar)	uptake (mmol/g)
0.987	0.3015
5.132	0.923
9.934	1.4949
15	2.184
19.934	2.6558
24.868	3.0275
29.868	3.4325
34.868	3.7541
