Adsorption isotherm of Methane on Amine Modified TiO2
DOI: 10.1016/j.apenergy.2015.01.081
Article source: Figure 9a
Adsorbate Methane: InChIKey VNWKTOKETHGBQD-UHFFFAOYSA-N
Kind: experiment
Temperature: 296 K
Tabular data in the source: 0
pressure (bar)	uptake (mmol/g)
1.342	0.3377
5.028	0.8451
10.054	1.559
15.08	2.2074
20.037	2.7435
25.059	3.1578
29.946	3.4972
34.967	3.7991
