Adsorption isotherm of Carbon Dioxide on TiO2
DOI: 10.1016/j.apenergy.2015.01.081
Article source: Figure 8b
Adsorbate Carbon Dioxide: InChIKey CURLTUGMZLYLDI-UHFFFAOYSA-N
Kind: experiment
Temperature: 333 K
Tabular data in the source: 0
pressure (bar)	uptake (mmol/g)
1.139	0.6025
4.958	1.3478
9.916	2.2833
14.874	3.1871
19.899	3.6152
24.925	4.5349
30.017	5.407
35.042	6.0888
