Adsorption isotherm of Methane on Amine Modified TiO2
DOI: 10.1016/j.apenergy.2015.01.081
Article source: Figure 9c
Adsorbate Methane: InChIKey VNWKTOKETHGBQD-UHFFFAOYSA-N
Kind: experiment
Temperature: 296 K
Tabular data in the source: 0
pressure (bar)	uptake (mmol/g)
1.0494	0.0532
4.8661	0.1075
9.9825	0.1537
15.015	0.1998
19.9218	0.2546
24.9533	0.2569
29.8592	0.2678
35.0157	0.2349
