Adsorption isotherm of Methane on TiO2
DOI: 10.1016/j.apenergy.2015.01.081
Article source: Figure 8b
Adsorbate Methane: InChIKey VNWKTOKETHGBQD-UHFFFAOYSA-N
Kind: experiment
Temperature: 296 K
Tabular data in the source: 0
pressure (bar)	uptake (mmol/g)
1.072	0.4281
5.025	1.0148
9.916	1.7125
14.941	2.2992
19.966	2.9968
24.925	3.6786
29.749	4.2178
34.975	4.5507
