Adsorption isotherm of Carbon Dioxide on Amine Modified TiO2
DOI: 10.1016/j.apenergy.2015.01.081
Article source: Figure 9b
Adsorbate Carbon Dioxide: InChIKey CURLTUGMZLYLDI-UHFFFAOYSA-N
Kind: experiment
Temperature: 333 K
Tabular data in the source: 0
pressure (bar)	uptake (mmol/g)
1.137	0.5496
5.017	1.107
10.033	1.6389
14.983	2.1369
20	2.6518
25.017	3.1752
29.967	3.6901
34.983	3.909
