Adsorption isotherm of Carbon Dioxide on TiO2
DOI: 10.1016/j.apenergy.2015.01.081
Article source: Figure 8b
Adsorbate Carbon Dioxide: InChIKey CURLTUGMZLYLDI-UHFFFAOYSA-N
Kind: experiment
Temperature: 296 K
Tabular data in the source: 0
pressure (bar)	uptake (mmol/g)
1.005	0.8404
4.891	1.6173
9.849	2.5529
14.874	3.4249
19.899	4.2178
24.858	4.9789
29.749	5.7875
34.975	6.5486
