Adsorption isotherm of Methane on TiO2
DOI: 10.1016/j.apenergy.2015.01.081
Article source: Figure 8b
Adsorbate Methane: InChIKey VNWKTOKETHGBQD-UHFFFAOYSA-N
Kind: experiment
Temperature: 313 K
Tabular data in the source: 0
pressure (bar)	uptake (mmol/g)
1.139	0.333
4.891	0.8562
9.983	1.4746
14.941	2.1564
19.966	2.8858
24.925	3.4884
29.883	4.1385
34.975	4.408
