Adsorption isotherm of Methane on Amine Modified TiO2
DOI: 10.1016/j.apenergy.2015.01.081
Article source: Figure 9b
Adsorbate Methane: InChIKey VNWKTOKETHGBQD-UHFFFAOYSA-N
Kind: experiment
Temperature: 313 K
Tabular data in the source: 0
pressure (bar)	uptake (mmol/g)
1.204	0.1097
4.95	0.4896
10.033	0.903
14.983	1.2487
20.067	1.6029
24.95	1.974
29.9	2.2268
34.983	2.4541
