Adsorption isotherm of Carbon Dioxide on TiO2
DOI: 10.1016/j.apenergy.2015.01.081
Article source: Figure 7a
Adsorbate Carbon Dioxide: InChIKey CURLTUGMZLYLDI-UHFFFAOYSA-N
Kind: experiment
Temperature: 333 K
Tabular data in the source: 0
pressure (bar)	uptake (mmol/g)
9.978	3.4444
15.024	4.638
20.006	5.9637
25.051	7.1242
30.094	8.1526
35.064	8.7845
