Adsorption isotherm of Methane on TiO2
DOI: 10.1016/j.apenergy.2015.01.081
Article source: Figure 8b
Adsorbate Methane: InChIKey VNWKTOKETHGBQD-UHFFFAOYSA-N
Kind: experiment
Temperature: 333 K
Tabular data in the source: 0
pressure (bar)	uptake (mmol/g)
1.206	0.3013
4.958	0.7294
9.983	1.3002
15.075	1.9186
19.899	2.3943
24.925	3.0127
29.816	3.5994
35.042	4.0116
