Adsorption isotherm of Carbon Dioxide on TiO2
DOI: 10.1016/j.apenergy.2015.01.081
Article source: Figure 8a
Adsorbate Carbon Dioxide: InChIKey CURLTUGMZLYLDI-UHFFFAOYSA-N
Kind: experiment
Temperature: 313 K
Tabular data in the source: 0
pressure (bar)	uptake (mmol/g)
0.808	0.1898
4.906	0.4837
9.808	0.7136
14.912	0.9435
19.881	1.11
24.983	1.2553
29.884	1.3584
35.053	1.4614
