Adsorption isotherm of Methane on TiO2
DOI: 10.1016/j.apenergy.2015.01.081
Article source: Figure 8c
Adsorbate Methane: InChIKey VNWKTOKETHGBQD-UHFFFAOYSA-N
Kind: experiment
Temperature: 333 K
Tabular data in the source: 0
pressure (bar)	uptake (mmol/g)
1.0478	0.1459
4.9923	0.2043
9.9846	0.4086
14.9153	0.7004
20.0308	0.7879
24.9615	0.963
29.8921	1.1089
34.9461	1.2257
