Adsorption isotherm of Carbon Dioxide on TiO2
DOI: 10.1016/j.apenergy.2015.01.081
Article source: Figure 8b
Adsorbate Carbon Dioxide: InChIKey CURLTUGMZLYLDI-UHFFFAOYSA-N
Kind: experiment
Temperature: 313 K
Tabular data in the source: 0
pressure (bar)	uptake (mmol/g)
1.139	0.7294
5.025	1.5063
9.916	2.4101
14.941	3.1871
19.966	4.1385
24.858	4.963
29.816	5.7558
34.975	6.4218
