Adsorption isotherm of Methane on TiO2
DOI: 10.1016/j.apenergy.2015.01.081
Article source: Figure 7a
Adsorbate Methane: InChIKey VNWKTOKETHGBQD-UHFFFAOYSA-N
Kind: experiment
Temperature: 333 K
Tabular data in the source: 0
pressure (bar)	uptake (mmol/g)
1.063	0.2982
4.98	1.2266
9.958	2.321
14.999	3.2503
19.973	4.0804
25.077	4.8445
30.114	5.5425
35.019	6.2073
