Adsorption isotherm of Methane on TiO2
DOI: 10.1016/j.apenergy.2015.01.081
Article source: Figure 7a
Adsorbate Methane: InChIKey VNWKTOKETHGBQD-UHFFFAOYSA-N
Kind: experiment
Temperature: 313 K
Tabular data in the source: 0
pressure (bar)	uptake (mmol/g)
1.068	0.5956
4.924	1.7552
9.905	3.0478
14.949	4.1423
20.056	5.0716
25.097	5.9679
30.07	6.798
35.109	7.562
