Adsorption isotherm of Nitrogen on [La2(ox)3(H2ox)(H2O)2](H2O)8
DOI: 10.1016/j.poly.2012.09.018
Adsorbate Nitrogen: InChIKey IJGRMHOSHXDMSA-UHFFFAOYSA-N
Temperature: 77 K
Tabular data in the source: 0
pressure (bar)	uptake (mmol/g)
0.0065143	0.441928
0.0108078	0.911015
0.014223	1.3801
0.0187172	1.83775
0.0242125	2.28395
0.0318634	2.73016
0.0412183	3.19924
0.0771141	3.85139
0.117419	4.17174
0.145514	4.28615
0.21045	4.42345
0.314992	4.61795
0.447807	4.7438
0.594387	4.85821
0.977717	5.05271
