Adsorption isotherm of Nitrogen on [La2(ox)3(H2ox)(H2O)2](H2O)8
DOI: 10.1016/j.poly.2012.09.018
Adsorbate Nitrogen: InChIKey IJGRMHOSHXDMSA-UHFFFAOYSA-N
Temperature: 77 K
Tabular data in the source: 0
pressure (bar)	uptake (mmol/g)
0.0100908	0.567781
0.0123984	0.922456
0.0149744	1.35722
0.0182416	1.88351
0.0270699	2.90177
0.0412183	3.50815
0.0616938	3.80562
0.089225	3.97724
0.108692	4.12598
0.134699	4.09165
0.206869	4.30903
0.304364	4.5493
0.37077	4.69803
0.554953	4.97262
0.664531	4.94974
1.01186	5.1328
