Adsorption isotherm of Nitrogen on [La2(ox)3(H2ox)(H2O)2](H2O)8
DOI: 10.1016/j.poly.2012.09.018
Adsorbate Nitrogen: InChIKey IJGRMHOSHXDMSA-UHFFFAOYSA-N
Temperature: 77 K
Tabular data in the source: 0
pressure (bar)	uptake (mmol/g)
0.00255662	0.0300468
0.00372939	0.0872525
0.00553429	0.201664
0.0079356	0.430487
0.00991909	0.750839
0.0121874	1.08263
0.0149744	1.65469
0.022801	2.92466
0.0275384	3.45095
0.032976	3.85139
0.040517	4.1603
0.0622255	4.52642
0.112488	4.88109
0.139402	4.84677
0.205101	5.1328
0.387024	5.60188
0.540849	5.86503
0.676034	5.87647
0.83063	6.01377
1.01186	6.07097
