Adsorption isotherm of Nitrogen on MC-SBA (HNO3+2H2O2)
DOI: 10.1007/s10450-019-00143-0
Article source: Figure 5 (b)
Adsorbate Nitrogen: InChIKey IJGRMHOSHXDMSA-UHFFFAOYSA-N
Kind: experiment
Temperature: 77 K
Tabular data in the source: 0
pressure (bar)	uptake (cm3(STP)/g)
0.002786	256
0.005563	280
0.022271	352
0.033407	372
0.050105	392
0.072376	424
0.122482	484
0.150316	516
0.172587	540
0.200421	568
0.222692	592
0.250526	620
0.275584	644
0.331252	676
0.350736	688
0.375794	696
0.428686	712
0.453733	720
0.503839	736
0.559517	752
0.606835	768
0.656941	780
0.707046	788
0.784995	804
0.907467	820
0.957572	832
0.97428	840
0.990979	848
0.10021	464
0.155889	520
0.200421	568
0.253312	628
0.306204	664
0.359096	688
0.381357	696
0.403628	704
0.434249	716
0.459306	728
0.481567	748
0.509411	764
0.553944	780
0.612408	792
0.656941	796
0.712619	804
0.762724	808
0.815616	816
0.865721	820
0.910253	828
0.963145	840
0.98263	848
1.00211	864
