Adsorption isotherm of Nitrogen on MC-SBA (H2O2)
DOI: 10.1007/s10450-019-00143-0
Article source: Figure 5 (b)
Adsorbate Nitrogen: InChIKey IJGRMHOSHXDMSA-UHFFFAOYSA-N
Kind: experiment
Temperature: 77 K
Tabular data in the source: 0
pressure (bar)	uptake (cm3(STP)/g)
0.03062	448
0.061241	484
0.077939	500
0.119695	532
0.13918	544
0.161451	556
0.250526	596
0.353523	676
0.464869	704
0.570652	724
0.654154	736
0.746015	752
0.807256	760
0.849012	768
0.882419	772
0.91304	776
0.935311	776
0.952009	780
0.963145	780
0.971494	784
0.98263	788
0.011136	400
0.052892	480
0.105783	520
0.153102	552
0.203207	576
0.23939	592
0.439821	708
0.492703	748
0.562303	752
0.662514	760
0.751588	768
0.812829	772
0.851799	776
0.887982	780
0.899118	780
0.918602	780
0.946446	776
0.963145	784
0.990979	792
1.00211	796
1.00769	800
