Adsorption isotherm of Nitrogen on MC-MCM (H2O2+HNO3)
DOI: 10.1007/s10450-019-00143-0
Article source: Figure 5 (b)
Adsorbate Nitrogen: InChIKey IJGRMHOSHXDMSA-UHFFFAOYSA-N
Kind: experiment
Temperature: 77 K
Tabular data in the source: 0
pressure (bar)	uptake (cm3(STP)/g)
0.005563	384
0.022271	412
0.036183	424
0.047319	432
0.075163	444
0.097424	456
0.125268	468
0.150316	476
0.175373	484
0.200421	492
0.225479	500
0.250526	512
0.275584	516
0.328475	536
0.34796	548
0.375794	560
0.400842	576
0.428686	592
0.450947	608
0.503839	640
0.55673	664
0.606835	676
0.654154	688
0.704259	704
0.784995	732
0.857361	780
0.907467	832
0.957572	884
0.97428	904
0.990979	920
0.10021	464
0.155889	480
0.205994	496
0.258875	512
0.300631	532
0.356309	552
0.384143	564
0.403628	576
0.431462	604
0.459306	628
0.48714	648
0.509411	664
0.55673	684
0.606835	700
0.656941	716
0.704259	728
0.762724	752
0.807256	780
0.860148	816
0.91304	864
0.963145	912
0.98263	928
1.00211	944
