Adsorption isotherm of Nitrogen on MC-MCM
DOI: 10.1007/s10450-019-00143-0
Article source: Figure 5 (a)
Adsorbate Nitrogen: InChIKey IJGRMHOSHXDMSA-UHFFFAOYSA-N
Kind: experiment
Temperature: 77 K
Tabular data in the source: 0
pressure (bar)	uptake (cm3(STP)/g)
0.008349	100
0.022271	140
0.033407	156
0.050105	168
0.072376	184
0.10021	200
0.125268	216
0.153102	228
0.175373	240
0.203207	252
0.228255	264
0.253312	276
0.27837	288
0.328475	316
0.353523	328
0.375794	344
0.406415	372
0.431462	392
0.453733	416
0.503839	464
0.559517	500
0.606835	516
0.654154	532
0.709832	556
0.782209	592
0.862934	664
0.91304	736
0.960358	816
0.977067	844
0.990979	868
1.00769	900
0.10021	208
0.153102	232
0.203207	256
0.256099	280
0.308991	308
0.359096	336
0.384143	356
0.406415	376
0.437035	412
0.459306	448
0.48714	476
0.503839	496
0.562303	528
0.612408	548
0.66529	568
0.707046	588
0.762724	620
0.815616	664
0.860148	712
0.91304	784
0.971494	852
0.988192	876
