Adsorption isotherm of Nitrogen on MC-SBA (HNO3)
DOI: 10.1007/s10450-019-00143-0
Article source: Figure 5 (b)
Adsorbate Nitrogen: InChIKey IJGRMHOSHXDMSA-UHFFFAOYSA-N
Kind: experiment
Temperature: 77 K
Tabular data in the source: 0
pressure (bar)	uptake (cm3(STP)/g)
0.002786	216
0.005563	236
0.019485	292
0.033407	316
0.047319	336
0.072376	360
0.097424	388
0.122482	412
0.147529	436
0.172587	460
0.197634	480
0.222692	504
0.250526	524
0.27837	544
0.328475	564
0.34796	572
0.375794	580
0.403628	588
0.428686	592
0.450947	600
0.503839	612
0.55673	624
0.606835	636
0.659727	644
0.704259	652
0.782209	664
0.854585	672
0.907467	676
0.963145	688
0.97428	692
0.990979	696
0.105783	400
0.155889	444
0.205994	488
0.258875	528
0.303418	552
0.356309	572
0.384143	580
0.406415	584
0.459306	604
0.481567	620
0.506625	632
0.55673	644
0.612408	652
0.656941	656
0.712619	664
0.762724	664
0.815616	672
0.865721	676
0.910253	680
0.965931	696
0.985416	704
1.0049	712
