Adsorption isotherm of Nitrogen on MC-SBA (HNO3+H2O2)
DOI: 10.1007/s10450-019-00143-0
Article source: Figure 5 (b)
Adsorbate Nitrogen: InChIKey IJGRMHOSHXDMSA-UHFFFAOYSA-N
Kind: experiment
Temperature: 77 K
Tabular data in the source: 0
pressure (bar)	uptake (cm3(STP)/g)
0.002786	292
0.005563	324
0.019485	396
0.03897	432
0.047319	452
0.075163	492
0.10021	528
0.125268	556
0.150316	584
0.175373	612
0.197634	640
0.225479	672
0.250526	700
0.275584	728
0.328475	764
0.350736	776
0.375794	788
0.400842	800
0.428686	808
0.450947	816
0.503839	836
0.553944	852
0.606835	868
0.654154	880
0.704259	892
0.784995	908
0.857361	916
0.907467	924
0.957572	940
0.97428	948
0.988192	960
0.10021	528
0.155889	592
0.205994	652
0.256099	712
0.300631	748
0.356309	776
0.384143	788
0.403628	796
0.428686	808
0.459306	828
0.484354	860
0.509411	884
0.55673	896
0.606835	900
0.656941	904
0.707046	908
0.762724	920
0.807256	928
0.860148	932
0.91304	932
0.963145	948
0.98263	964
1.00211	984
