Adsorption isotherm of Nitrogen on MC-SBA
DOI: 10.1007/s10450-019-00143-0
Article source: Figure 5 (a)
Adsorbate Nitrogen: InChIKey IJGRMHOSHXDMSA-UHFFFAOYSA-N
Kind: experiment
Temperature: 77 K
Tabular data in the source: 0
pressure (bar)	uptake (cm3(STP)/g)
0.013922	120
0.033407	144
0.044542	152
0.052892	156
0.061241	160
0.066804	164
0.075163	168
0.080726	172
0.091861	176
0.105783	184
0.116909	188
0.128044	192
0.164238	204
0.200421	216
0.264448	236
0.489927	308
0.503839	312
0.512188	316
0.553944	332
0.590137	348
0.615185	360
0.640242	372
0.662514	388
0.690347	400
0.732104	428
0.7655	456
0.790558	480
0.812829	512
0.823965	528
0.832314	548
0.857361	656
0.887982	716
0.907467	736
0.946446	768
0.965931	784
0.988192	804
0.999328	820
1.00769	840
0.13918	196
0.150316	200
0.155889	204
0.1698	204
0.180936	212
0.192072	212
0.205994	220
0.231041	228
0.258875	236
0.283933	240
0.297855	244
0.311767	252
0.322903	256
0.334038	256
0.34796	260
0.359096	268
0.375794	272
0.38693	276
0.411977	280
0.437035	292
0.448171	296
0.464869	304
0.484354	312
0.501062	320
0.512188	324
0.537245	336
0.551167	340
0.565079	348
0.584564	360
0.598486	368
0.615185	380
0.62632	388
0.637456	396
0.654154	408
0.662514	416
0.679212	432
0.687561	444
0.704259	460
0.715395	476
0.726531	492
0.743239	516
0.748802	524
0.754375	532
0.757151	544
0.779422	632
0.784995	676
0.790558	700
0.815616	748
0.823965	752
0.832314	756
0.840663	760
0.854585	768
0.868497	772
0.885206	776
0.91304	788
0.940874	796
0.971494	812
0.990979	832
0.999328	844
1.00769	856
