Adsorption isotherm of Nitrogen on CCOF 17
DOI: 10.1021/jacs.0c11050
Article source: Figure S28
Adsorbate Nitrogen: InChIKey IJGRMHOSHXDMSA-UHFFFAOYSA-N
Kind: experiment
Temperature: 77 K
Tabular data in the source: 0
pressure (bar)	uptake (cm3(STP)/g)
0.006451	3.29763
0.014645	5.85894
0.017574	7.01573
0.024797	8.08952
0.064904	9.57385
0.10855	9.81823
0.134965	10.3119
0.169806	10.3917
0.206876	10.554
0.23949	10.5513
0.272211	10.714
0.307053	10.7938
0.343853	10.5428
0.387392	10.6219
0.422288	10.7844
0.452727	10.7819
0.487515	10.7791
0.520236	10.9417
0.554916	10.7736
0.593891	10.5224
0.637376	10.5189
0.672164	10.5161
0.698255	10.5139
0.737607	10.8413
0.778971	10.9206
0.805008	10.8358
0.848709	11.1628
0.881753	11.8213
0.923711	12.8096
0.94849	14.1299
0.987015	16.5234
1.01925	25.9423
0.058237	16.0207
0.104328	16.6781
0.141344	16.7577
0.171729	16.6726
0.208637	16.5869
0.239131	16.6671
0.282561	16.5809
0.308544	16.4135
0.343225	16.2454
0.375623	15.9121
0.423294	15.6603
0.45129	15.2448
0.494667	15.076
0.524998	14.9082
0.546741	14.9065
0.589956	14.4897
0.615885	14.2397
0.644042	14.0721
0.676494	13.8215
0.715631	13.8183
0.743896	13.816
0.778576	13.6479
0.8157	13.8928
0.855267	14.5507
0.886138	15.2093
0.926514	17.1069
0.975246	21.8137
1.02132	25.7768
