Adsorption isotherm of Argon on CCOF 17
DOI: 10.1021/jacs.0c11050
Article source: Figure S28
Adsorbate Argon: InChIKey XKRFYHLGVUSROY-UHFFFAOYSA-N
Kind: experiment
Temperature: 87 K
Tabular data in the source: 0
pressure (bar)	uptake (cm3(STP)/g)
0.006362	3.01918
0.007859	6.06232
0.016252	8.12568
0.026783	9.53639
0.054369	10.6172
0.089171	11.3704
0.131404	12.2306
0.16487	12.7667
0.193471	13.4125
0.233139	14.0559
0.265375	14.5922
0.297451	14.8025
0.329687	15.3389
0.371546	15.4383
0.393839	15.7594
0.436019	16.511
0.473174	17.0462
0.51268	17.3635
0.552187	17.6809
0.584263	17.8912
0.61388	18.102
0.646116	18.6383
0.695727	19.4969
0.730262	19.7066
0.752609	20.1365
0.78971	20.563
0.807138	20.994
0.839481	21.7477
0.891604	22.7144
0.933731	23.3572
0.953671	23.8963
0.991574	25.9531
0.060089	17.2464
0.094838	17.8909
0.141883	18.5326
0.168987	18.6353
0.198764	19.1722
0.230893	19.4912
0.265375	19.5922
0.299857	19.6933
0.334285	19.6857
0.366307	19.7873
0.403408	20.2138
0.433186	20.7507
0.477664	21.1756
0.522089	21.4919
0.558977	21.4837
0.591053	21.694
0.613239	21.7978
0.677444	22.327
0.744001	22.6384
0.81815	23.3828
0.894865	24.3441
0.994194	26.2786
