Adsorption isotherm of Methanol on {[Dy(ox)(Bpybc)(H2O)]*OH*13H2O}n
DOI: 10.1039/C3cc38260e
Adsorbate Methanol: InChIKey OKKJLVBELUTLKV-UHFFFAOYSA-N
Temperature: 298 K
Tabular data in the source: 0
pressure (bar)	uptake (mg/g)
0.000626	9.16229
0.00567133	14.5253
0.0160027	22.3911
0.0258535	28.1117
0.0361849	33.4747
0.0457954	35.9775
0.0551657	38.4802
0.0650165	42.7706
0.0753479	43.8433
0.085439	45.9885
0.0960106	47.7761
0.106342	48.8488
0.114991	50.994
0.126284	52.7816
0.135174	55.2844
0.145265	66.368
