Adsorption isotherm of Water on {[Dy(ox)(Bpybc)(H2O)]*OH*13H2O}n
DOI: 10.1039/C3cc38260e
Adsorbate Water: InChIKey XLYOFNOQVPJJNP-UHFFFAOYSA-N
Temperature: 298 K
Tabular data in the source: 0
pressure (bar)	uptake (mg/g)
0.000198	2.72664
0.00380152	45.2734
0.00611835	62.0776
0.00804904	70.3009
0.00993683	78.5242
0.0118675	88.1777
0.0137124	98.5462
0.015686	113.563
0.0175309	134.657
0.0193758	162.188
0.0212636	195.796
0.0231084	231.55
0.0248246	245.851
