Adsorption isotherm of Methane on {[Dy(ox)(Bpybc)(H2O)]*OH*13H2O}n
DOI: 10.1039/C3cc38260e
Adsorbate Methane: InChIKey VNWKTOKETHGBQD-UHFFFAOYSA-N
Temperature: 298 K
Tabular data in the source: 0
pressure (bar)	uptake (mg/g)
0.257752	2.01157
2.61749	1.65403
7.55148	2.36911
12.557	2.36911
17.4195	2.01157
22.425	2.36911
27.359	3.08418
32.1499	3.79925
37.37	3.79925
42.3755	3.44171
47.2379	3.79925
49.7407	4.15679
