Adsorption isotherm of Ethanol on {[Dy(ox)(Bpybc)(H2O)]*OH*13H2O}n
DOI: 10.1039/C3cc38260e
Adsorbate Ethanol: InChIKey LFQSCWFLJHTTHZ-UHFFFAOYSA-N
Temperature: 298 K
Tabular data in the source: 0
pressure (bar)	uptake (mg/g)
0.000473	3.79925
0.00410118	4.15679
0.00781383	4.15679
0.0113577	4.15679
0.0150704	4.51432
0.018783	4.87186
0.0262927	4.87186
0.033718	5.94446
0.0412277	5.94446
0.048653	5.58693
0.0521125	5.58693
