Adsorption isotherm of Nitrogen on MBS
DOI: 10.1007/s11244-006-0025-6
Adsorbate Nitrogen: InChIKey IJGRMHOSHXDMSA-UHFFFAOYSA-N
Temperature: 77 K
Tabular data in the source: 0
pressure (bar)	uptake (cm3(STP)/g)
0.00987652	154.777
0.0225093	174.841
0.0372835	190.605
0.0605292	209.236
0.0795661	220.701
0.104967	232.166
0.149425	250.796
0.198118	270.86
0.246812	290.924
0.295492	313.854
0.344165	338.217
0.390744	356.847
0.443727	366.879
0.498845	374.045
0.545506	375.478
0.592159	378.344
0.645183	379.777
0.691829	384.076
0.738483	386.943
0.791513	386.943
0.838167	389.809
0.88482	392.675
0.933581	398.408
0.969581	411.306
