Adsorption isotherm of Hydrogen on Zeolite 13X
DOI: 10.1007/s10450-021-00306-y
Article source: Figure 3
Adsorbate Hydrogen: InChIKey UFHFLCQGNIYNRP-UHFFFAOYSA-N
Kind: experiment
Temperature: 318 K
Tabular data in the source: 0
pressure (bar)	uptake (mmol/g)
0.99644	0.01943
4.98221	0.09007
4.98221	0.09536
9.96441	0.1819
14.9778	0.26313
19.9911	0.34614
24.9733	0.43179
30.0178	0.49625
29.9867	0.50596
