Adsorption isotherm of Methane on Zeolite 13X
DOI: 10.1007/s10450-021-00306-y
Article source: Figure 2
Adsorbate Methane: InChIKey VNWKTOKETHGBQD-UHFFFAOYSA-N
Kind: experiment
Temperature: 338 K
Tabular data in the source: 0
pressure (bar)	uptake (mmol/g)
0.06135	0.01474
0.21472	0.06386
0.55215	0.14738
0.79755	0.2309
1.04294	0.29967
1.90184	0.54531
3.49693	0.91867
6.01227	1.41485
10.0307	1.96015
15	2.40229
20	2.68723
30	3.06059
