Adsorption isotherm of Hydrogen on Zeolite 13X
DOI: 10.1007/s10450-021-00306-y
Article source: Figure 3
Adsorbate Hydrogen: InChIKey UFHFLCQGNIYNRP-UHFFFAOYSA-N
Kind: experiment
Temperature: 298 K
Tabular data in the source: 0
pressure (bar)	uptake (mmol/g)
0.06228	0.00177
1.02758	0.02649
4.98221	0.11302
4.98221	0.12362
9.99555	0.2181
14.9778	0.33554
19.9911	0.41589
19.9911	0.42561
24.9733	0.51391
29.9867	0.60662
