Adsorption isotherm of Hydrogen on Zeolite 13X
DOI: 10.1007/s10450-021-00306-y
Article source: Figure 3
Adsorbate Hydrogen: InChIKey UFHFLCQGNIYNRP-UHFFFAOYSA-N
Kind: experiment
Temperature: 338 K
Tabular data in the source: 0
pressure (bar)	uptake (mmol/g)
0.99644	0.01943
4.98221	0.06534
4.98221	0.0777
9.96441	0.13245
14.9778	0.20397
19.9911	0.2649
19.9911	0.27196
19.9911	0.28079
24.9733	0.35673
29.9867	0.40265
