Adsorption isotherm of Methane on Zeolite 13X
DOI: 10.1007/s10450-021-00306-y
Article source: Figure 2
Adsorbate Methane: InChIKey VNWKTOKETHGBQD-UHFFFAOYSA-N
Kind: experiment
Temperature: 318 K
Tabular data in the source: 0
pressure (bar)	uptake (mmol/g)
0.06135	0.06386
0.4908	0.2309
0.79755	0.31932
1.01227	0.41758
2.05521	0.8155
3.52761	1.28221
6.01227	1.87172
10	2.44651
15.092	2.87882
20	3.14902
30.2761	3.47325
