Adsorption isotherm of Methane on Zeolite 13X
DOI: 10.1007/s10450-021-00306-y
Article source: Figure 2
Adsorbate Methane: InChIKey VNWKTOKETHGBQD-UHFFFAOYSA-N
Kind: experiment
Temperature: 298 K
Tabular data in the source: 0
pressure (bar)	uptake (mmol/g)
0.18405	0.06386
0.18405	0.14247
0.52147	0.33406
0.76687	0.49618
1.04294	0.65338
1.50307	0.92849
2.02454	1.11517
2.02454	1.17413
2.08589	1.22325
3.55828	1.77838
6.01227	2.43177
10	2.93286
10	2.98199
10	3.03111
15	3.37009
20	3.60098
30	3.87118
30	3.92522
