Adsorption isotherm of Hydrogen on VPOC
DOI: 10.1016/j.ijhydene.2012.06.046
Adsorbate Hydrogen: InChIKey UFHFLCQGNIYNRP-UHFFFAOYSA-N
Temperature: 77 K
Tabular data in the source: 0
pressure (bar)	uptake (wt%)
0.0535853	0.159276
0.102299	0.224434
0.153449	0.282353
0.199727	0.333032
0.258184	0.372851
0.306898	0.41267
0.362919	0.441629
0.414069	0.470588
0.462782	0.499548
0.516368	0.524887
0.565082	0.542986
0.616231	0.564706
0.667381	0.586425
0.718531	0.608145
0.76968	0.629864
0.823266	0.644344
0.87198	0.666063
0.920694	0.680543
0.969407	0.702262
1.01325	0.716742
