Adsorption isotherm of Hydrogen on MN270
DOI: 10.1016/j.ijhydene.2012.06.046
Adsorbate Hydrogen: InChIKey UFHFLCQGNIYNRP-UHFFFAOYSA-N
Temperature: 294 K
Tabular data in the source: 0
pressure (bar)	uptake (wt%)
1.75708	0.00969697
9.95679	0.05
19.9136	0.0956061
30.1632	0.13697
39.8272	0.174091
49.4911	0.210152
59.7408	0.239848
70.2832	0.266364
80.24	0.291818
90.1968	0.315152
99.5679	0.331061
