Adsorption isotherm of Hydrogen on Pt/AC
DOI: 10.1016/j.ijhydene.2012.06.046
Adsorbate Hydrogen: InChIKey UFHFLCQGNIYNRP-UHFFFAOYSA-N
Temperature: 294 K
Tabular data in the source: 0
pressure (bar)	uptake (wt%)
1.46423	0.00969697
9.3711	0.0627273
19.6207	0.109394
30.1632	0.149697
39.8272	0.179394
49.784	0.205909
60.3264	0.231364
69.6975	0.253636
79.6543	0.269545
90.1968	0.286515
99.8608	0.298182
