Adsorption isotherm of Nitrogen on MN270
DOI: 10.1016/j.ijhydene.2012.06.046
Adsorbate Nitrogen: InChIKey IJGRMHOSHXDMSA-UHFFFAOYSA-N
Temperature: 77 K
Tabular data in the source: 0
pressure (bar)	uptake (cm3(STP)/g)
0.00647197	302.581
0.0120804	351.314
0.0284435	361.614
0.0366949	387.276
0.0503453	400.133
0.0639783	407.861
0.0857755	415.611
0.0967045	428.46
0.118502	436.21
0.143029	446.531
0.170277	456.86
0.200239	464.631
0.216584	469.802
0.246537	475.01
0.265595	477.624
0.287384	482.81
0.311902	490.567
0.336412	495.76
0.360922	500.953
0.388135	501.024
0.409932	508.774
0.434433	511.403
0.458943	516.596
0.486166	519.232
0.507954	524.418
0.532464	529.61
0.559695	534.811
0.584187	534.875
0.608697	540.068
0.630485	545.254
0.654986	547.883
0.679505	555.64
0.704006	558.268
0.728507	560.897
0.772092	573.833
0.804775	581.611
0.823851	589.354
0.851091	597.118
0.875635	612.567
0.900189	630.581
0.91936	666.529
0.941489	771.716
0.957931	805.092
0.966208	838.448
