Adsorption isotherm of Hydrogen on MN270-Bridged
DOI: 10.1016/j.ijhydene.2012.06.046
Adsorbate Hydrogen: InChIKey UFHFLCQGNIYNRP-UHFFFAOYSA-N
Temperature: 77 K
Tabular data in the source: 0
pressure (bar)	uptake (wt%)
0.0147908	0.197895
0.0437875	0.269474
0.0670182	0.345263
0.0959845	0.4
0.122056	0.450526
0.145226	0.492632
0.252295	0.635789
0.281215	0.665263
0.327502	0.72
0.36797	0.749474
0.402664	0.778947
0.431569	0.8
0.472045	0.833684
0.500958	0.858947
0.547176	0.875789
0.590538	0.909474
0.642553	0.938947
0.700364	0.981053
0.755266	1.01053
0.824601	1.04
0.888178	1.07789
0.92863	1.09895
0.983532	1.12842
1.01822	1.15368
