Adsorption isotherm of Hydrogen on MN270-6wt%Pt
DOI: 10.1016/j.ijhydene.2012.06.046
Adsorbate Hydrogen: InChIKey UFHFLCQGNIYNRP-UHFFFAOYSA-N
Temperature: 294 K
Tabular data in the source: 0
pressure (bar)	uptake (wt%)
1.17139	0.00863636
9.95679	0.0648485
20.4993	0.10303
29.8704	0.139091
40.12	0.170909
49.784	0.202727
59.7408	0.234545
69.9904	0.255758
79.6543	0.27697
89.6111	0.299242
99.5679	0.317273
