Adsorption isotherm of Nitrogen on MN270-6wt%Pt
DOI: 10.1016/j.ijhydene.2012.06.046
Adsorbate Nitrogen: InChIKey IJGRMHOSHXDMSA-UHFFFAOYSA-N
Temperature: 77 K
Tabular data in the source: 0
pressure (bar)	uptake (cm3(STP)/g)
0.011653	225.672
0.0307811	248.799
0.0498918	266.798
0.0717063	279.676
0.0962335	289.998
0.118039	300.312
0.145262	302.947
0.177953	313.29
0.205184	318.49
0.226973	323.676
0.246031	326.29
0.273262	331.49
0.297772	336.683
0.324994	339.319
0.352217	341.955
0.376726	347.148
0.401227	349.777
0.423007	352.398
0.45023	355.034
0.477469	362.799
0.531897	362.942
0.553676	365.564
0.580925	375.892
0.632631	376.029
0.654419	381.214
0.678912	381.279
0.727931	391.665
0.771491	396.908
0.804165	402.122
0.81778	404.722
0.850463	412.501
0.872277	425.379
0.896813	438.264
0.92414	471.67
0.943478	556.336
0.962693	605.105
