Adsorption isotherm of Hydrogen on MN270
DOI: 10.1016/j.ijhydene.2012.06.046
Adsorbate Hydrogen: InChIKey UFHFLCQGNIYNRP-UHFFFAOYSA-N
Temperature: 77 K
Tabular data in the source: 0
pressure (bar)	uptake (wt%)
0.0119572	0.227368
0.0410603	0.357895
0.0614574	0.463158
0.0962656	0.555789
0.110783	0.602105
0.14844	0.673684
0.168731	0.72
0.191916	0.770526
0.223746	0.812632
0.246931	0.863158
0.26723	0.913684
0.299022	0.934737
0.322177	0.968421
0.37426	1.03579
0.432101	1.09474
0.484154	1.14526
0.530433	1.19579
0.585357	1.23789
0.692319	1.32211
0.770368	1.38105
0.842613	1.42316
0.894635	1.45684
0.949544	1.49053
0.97554	1.49895
1.01889	1.52421
