Adsorption isotherm of Hydrogen on L493
DOI: 10.1016/j.ijhydene.2012.06.046
Adsorbate Hydrogen: InChIKey UFHFLCQGNIYNRP-UHFFFAOYSA-N
Temperature: 77 K
Tabular data in the source: 0
pressure (bar)	uptake (wt%)
0.0487139	0.311312
0.0974279	0.459729
0.143706	0.564706
0.202163	0.655204
0.248441	0.723982
0.299591	0.78552
0.35074	0.836199
0.399454	0.883258
0.455475	0.930317
0.506625	0.970136
0.555339	1.00633
0.604053	1.03529
0.660074	1.07149
0.706352	1.10045
0.759938	1.12941
0.811087	1.15475
0.864672	1.18371
0.915822	1.20543
0.959665	1.22353
1.00351	1.24525
