Adsorption isotherm of Hydrogen on MN170
DOI: 10.1016/j.ijhydene.2012.06.046
Adsorbate Hydrogen: InChIKey UFHFLCQGNIYNRP-UHFFFAOYSA-N
Temperature: 77 K
Tabular data in the source: 0
pressure (bar)	uptake (wt%)
0.0462782	0.209955
0.0925565	0.318552
0.151013	0.41267
0.199727	0.481448
0.253313	0.542986
0.297155	0.593665
0.35074	0.644344
0.40189	0.687783
0.455475	0.727602
0.501754	0.763801
0.555339	0.79638
0.608924	0.828959
0.657638	0.861538
0.708788	0.890498
0.764809	0.915837
0.806216	0.941176
0.85493	0.966516
0.913386	0.995475
0.959665	1.00995
1.00838	1.03167
