Adsorption isotherm of Hydrogen on MN200
DOI: 10.1016/j.ijhydene.2012.06.046
Adsorbate Hydrogen: InChIKey UFHFLCQGNIYNRP-UHFFFAOYSA-N
Temperature: 77 K
Tabular data in the source: 0
pressure (bar)	uptake (wt%)
0.0438425	0.336652
0.0949922	0.499548
0.146142	0.619005
0.199727	0.713122
0.246005	0.78552
0.302026	0.847059
0.35074	0.904977
0.40189	0.948416
0.457911	0.999095
0.504189	1.03529
0.550468	1.07149
0.608924	1.10769
0.657638	1.13665
0.711224	1.16561
0.759938	1.19095
0.808651	1.21267
0.862237	1.23801
0.910951	1.26335
0.9621	1.28507
1.00838	1.30317
