Adsorption isotherm of Hydrogen on Pt/AC
DOI: 10.1016/j.ijhydene.2012.06.046
Adsorbate Hydrogen: InChIKey UFHFLCQGNIYNRP-UHFFFAOYSA-N
Temperature: 77 K
Tabular data in the source: 0
pressure (bar)	uptake (wt%)
0.0150643	0.349474
0.0383938	0.48
0.0645341	0.568421
0.0935232	0.635789
0.116686	0.673684
0.139856	0.715789
0.171686	0.757895
0.191939	0.783158
0.223754	0.816842
0.244022	0.850526
0.272935	0.875789
0.304727	0.896842
0.333617	0.909474
0.350983	0.934737
0.377017	0.964211
0.403021	0.976842
0.431919	0.993684
0.455051	1.01474
0.486828	1.02737
0.507058	1.04
0.535948	1.05263
0.553299	1.06947
0.61108	1.09474
0.634197	1.10737
0.691985	1.13684
0.738203	1.15368
0.793082	1.17053
0.845089	1.19579
0.894209	1.22105
0.951967	1.23368
0.977978	1.25053
1.01263	1.25474
