Adsorption isotherm of Nitrogen on MN270-Bridged
DOI: 10.1016/j.ijhydene.2012.06.046
Adsorbate Nitrogen: InChIKey IJGRMHOSHXDMSA-UHFFFAOYSA-N
Temperature: 77 K
Tabular data in the source: 0
pressure (bar)	uptake (cm3(STP)/g)
0.00885317	202.587
0.0252686	228.272
0.0471181	251.406
0.0934249	264.349
0.123412	279.813
0.145201	284.999
0.196942	295.392
0.224155	295.463
0.275879	300.728
0.319456	311.1
0.363024	318.907
0.395689	321.557
0.439257	329.364
0.469201	332.008
0.51822	342.393
0.559049	345.065
0.613503	352.901
0.657062	358.144
0.708803	368.537
0.752371	376.345
0.801408	391.859
0.831352	394.502
0.847689	397.109
0.869504	409.987
0.894057	428.001
0.924079	453.721
0.946086	523.01
0.965414	605.112
