Adsorption isotherm of Hydrogen on MN270-Bridged
DOI: 10.1016/j.ijhydene.2012.06.046
Adsorbate Hydrogen: InChIKey UFHFLCQGNIYNRP-UHFFFAOYSA-N
Temperature: 294 K
Tabular data in the source: 0
pressure (bar)	uptake (wt%)
0.87854	0.00651515
9.95679	0.0701515
19.9136	0.12
29.8704	0.164545
40.12	0.202727
49.784	0.234545
59.7408	0.264242
69.9904	0.290758
80.24	0.316212
90.1968	0.337424
99.5679	0.350152
