Adsorption isotherm of Hydrogen on SD2
DOI: 10.1016/j.ijhydene.2012.06.046
Adsorbate Hydrogen: InChIKey UFHFLCQGNIYNRP-UHFFFAOYSA-N
Temperature: 77 K
Tabular data in the source: 0
pressure (bar)	uptake (wt%)
0.0487139	0.278733
0.107171	0.430769
0.15832	0.528507
0.202163	0.600905
0.248441	0.666063
0.302026	0.720362
0.355612	0.774661
0.409197	0.8181
0.457911	0.861538
0.511496	0.901357
0.61136	0.973756
0.66251	0.999095
0.716095	1.03529
0.764809	1.05701
0.818394	1.08597
0.869544	1.10769
0.920694	1.12579
0.971843	1.15113
1.01325	1.17285
