Adsorption isotherm of Hydrogen on MN270-6wt%Pt
DOI: 10.1016/j.ijhydene.2012.06.046
Adsorbate Hydrogen: InChIKey UFHFLCQGNIYNRP-UHFFFAOYSA-N
Temperature: 77 K
Tabular data in the source: 0
pressure (bar)	uptake (wt%)
0.0380368	0.282105
0.0670638	0.370526
0.0960529	0.437895
0.116336	0.48
0.14531	0.538947
0.16557	0.568421
0.194514	0.610526
0.220548	0.64
0.246605	0.682105
0.275518	0.707368
0.301529	0.724211
0.32757	0.757895
0.356468	0.774737
0.379623	0.808421
0.402748	0.825263
0.425887	0.850526
0.4548	0.875789
0.480811	0.892632
0.509694	0.901053
0.561732	0.943158
0.584864	0.964211
0.639773	0.997895
0.668648	1.00211
0.717783	1.03579
0.743794	1.05263
0.795802	1.07789
0.821805	1.09053
0.868031	1.11158
0.894042	1.12842
0.946049	1.15368
0.974932	1.16211
1.01828	1.18737
