Adsorption isotherm of Nitrogen on NiPc-NH-CuPcF8 (water treatment)
DOI: 10.1021/jacs.1c13012
Article source: Figure S22
Adsorbate Nitrogen: InChIKey IJGRMHOSHXDMSA-UHFFFAOYSA-N
Kind: experiment
Temperature: 77 K
Tabular data in the source: 0
pressure (bar)	uptake (cm3(STP)/g)
0.005117	5.56485
0.010235	16.614
0.015352	22.7552
0.015352	30.1171
0.015352	36.2521
0.017911	41.7767
0.023028	47.3043
0.046057	54.0807
0.069085	59.0165
0.092114	63.9524
0.120259	70.1215
0.148405	75.0635
0.176551	80.0056
0.204697	82.4936
0.245636	86.8377
0.276341	89.3289
0.307045	90.593
0.33775	92.4707
0.376131	95.5847
0.427305	98.7141
0.447775	100.579
0.498949	103.095
0.542447	103.762
0.588504	107.498
0.629443	111.842
0.670383	116.8
0.706205	121.138
0.739468	125.473
0.770172	129.191
0.800877	135.363
0.839258	140.317
0.87508	144.655
0.91346	151.45
0.944165	159.463
0.977428	168.705
0.99278	176.7
1.00557	185.304
1.01069	195.74
1.01069	206.783
1.00557	214.138
1.00557	225.795
0.225167	92.3344
0.255871	94.8256
0.289134	99.1603
0.332633	101.053
0.360778	102.928
0.3966	105.425
0.43754	109.769
0.470803	113.491
0.504066	117.212
0.534771	119.703
0.59618	120.391
0.642237	125.355
0.693411	132.165
0.724116	135.883
0.782966	145.771
0.805994	151.32
0.836699	157.492
0.869962	163.054
0.900667	169.839
0.923695	174.775
0.982545	195.092
1.00557	217.206
