Adsorption isotherm of Nitrogen on NiPc-NH-CuPcF8 (HCI treatment)
DOI: 10.1021/jacs.1c13012
Article source: Figure S22
Adsorbate Nitrogen: InChIKey IJGRMHOSHXDMSA-UHFFFAOYSA-N
Kind: experiment
Temperature: 77 K
Tabular data in the source: 0
pressure (bar)	uptake (cm3(STP)/g)
0.010235	3.11706
0.015352	14.7797
0.023028	20.3105
0.025587	24.608
0.030705	30.7492
0.038381	35.6665
0.053733	43.6605
0.074203	51.6608
0.09979	58.4402
0.130494	66.4529
0.166316	72.6312
0.209814	77.5919
0.240519	80.083
0.2789	84.424
0.312163	88.7588
0.360778	92.4986
0.401718	95.6157
0.434981	98.1099
0.49639	101.252
0.53733	102.528
0.568034	105.633
0.606415	107.52
0.642237	110.631
0.693411	116.214
0.772731	120.605
0.818788	123.728
0.862286	128.689
0.887873	132.401
0.921136	144.097
0.926254	150.239
0.949282	162.536
0.9544	165.61
0.967193	174.215
0.974869	185.267
0.979987	192.635
0.99278	198.172
0.995339	205.537
1.00557	214.138
0.214932	86.187
0.248195	89.2948
0.2789	93.6264
0.319839	96.13
0.365896	97.4128
0.404277	102.981
0.43754	107.315
0.470803	111.037
0.491273	114.129
0.529653	118.47
0.578269	122.823
0.619208	124.1
0.657589	126.6
0.693411	132.165
0.731792	136.506
0.782966	139.022
0.852051	145.241
0.890432	151.422
0.923695	158.824
0.946723	168.668
0.977428	184.656
0.995339	191.427
1.00557	199.414
1.01069	206.783
1.00813	215.982
