Adsorption isotherm of Nitrogen on NiPc-NH-CoPcF8 (NaOH treatment)
DOI: 10.1021/jacs.1c13012
Article source: Figure S21
Adsorbate Nitrogen: InChIKey IJGRMHOSHXDMSA-UHFFFAOYSA-N
Kind: experiment
Temperature: 77 K
Tabular data in the source: 0
pressure (bar)	uptake (cm3(STP)/g)
0.021761	3.11871
0.011615	13.3615
0.009249	19.1168
0.009472	23.2698
0.012298	26.1398
0.020438	28.3608
0.036597	30.5667
0.074175	33.371
0.100976	34.5982
0.14385	36.4341
0.186723	38.2699
0.21349	38.8582
0.253622	39.4213
0.285701	39.3606
0.347236	40.2026
0.376675	40.7859
0.419498	41.6634
0.440901	41.9424
0.481016	42.186
0.537188	42.7187
0.585305	42.6276
0.649514	43.4646
0.732435	44.2662
0.783345	46.4063
0.826219	48.2421
0.858366	49.4593
0.890547	51.3153
0.920089	53.8154
0.949665	56.9543
0.955097	58.5415
0.982102	63.6022
1.01216	75.6859
1.00909	68.3435
1.01252	82.3945
0.237719	42.0073
0.267244	44.1878
0.283301	44.4769
0.318138	46.0085
0.350268	46.9062
0.374344	47.1801
0.414459	47.4237
0.46794	47.642
0.510746	48.2
0.548222	49.0876
0.599064	49.9498
0.639197	50.5129
0.682002	51.0709
0.7221	50.995
0.770389	54.0986
0.799863	55.3208
0.839995	55.8838
0.890957	58.9823
0.909738	60.2247
0.931209	61.7815
0.960887	66.8372
0.971734	69.6921
1.00703	79.849
1.0071	81.1268
1.00732	85.2797
