Adsorption isotherm of Nitrogen on NiPc-NH-CoPcF8 (hexane treatment)
DOI: 10.1021/jacs.1c13012
Article source: Figure S21
Adsorbate Nitrogen: InChIKey IJGRMHOSHXDMSA-UHFFFAOYSA-N
Kind: experiment
Temperature: 77 K
Tabular data in the source: 0
pressure (bar)	uptake (cm3(STP)/g)
0.011547	12.0837
0.022513	17.1748
0.022735	21.3277
0.028287	25.1511
0.039133	28.006
0.063397	31.7939
0.095663	35.2473
0.122515	37.4329
0.189567	41.4594
0.211004	42.3773
0.237822	43.924
0.286025	45.4303
0.302082	45.7194
0.334263	47.5754
0.361046	48.4832
0.398522	49.3708
0.476131	50.8214
0.518988	52.3378
0.564449	52.5712
0.601908	53.1394
0.647404	54.0117
0.711749	57.4044
0.757262	58.5962
0.800034	58.5153
0.829473	59.0986
0.88573	61.2286
0.931414	65.615
0.961058	70.0318
0.977337	74.4738
0.993735	81.1521
0.999337	85.9338
1.00222	89.7622
1.00235	92.3179
1.00271	99.0265
0.24322	44.8723
0.286094	46.7081
0.315584	48.2497
0.350404	49.4618
0.379895	51.0035
0.444121	52.1599
0.476216	52.4187
0.513692	53.3062
0.537803	54.2191
0.575296	55.4261
0.615462	56.6281
0.658319	58.1445
0.698486	59.3464
0.744016	60.8577
0.781475	61.4258
0.805534	61.3803
0.837612	61.3196
0.888625	65.3765
0.907423	66.9384
0.942312	69.4283
0.953141	71.9637
0.969351	75.1279
0.982956	79.575
0.985783	82.4451
0.999354	86.2533
