Adsorption isotherm of Nitrogen on NiPc-NH-CoPcF8
DOI: 10.1021/jacs.1c13012
Article source: Figure S5
Adsorbate Nitrogen: InChIKey IJGRMHOSHXDMSA-UHFFFAOYSA-N
Kind: experiment
Temperature: 77 K
Tabular data in the source: 0
pressure (bar)	uptake (cm3(STP)/g)
0.013426	2.53026
0.004999	12.7592
0.012914	21.3804
0.015509	25.8516
0.015431	28.7271
0.01807	31.6008
0.028858	34.4694
0.042345	37.9753
0.061291	40.5192
0.091086	43.6953
0.107342	45.2825
0.12904	46.5468
0.15887	48.4449
0.186009	49.3863
0.221298	50.3225
0.256587	51.2587
0.291884	51.8754
0.324474	52.1744
0.359772	52.7911
0.389636	53.4112
0.419501	54.0314
0.449374	54.332
0.487379	55.2665
0.533543	55.8764
0.598688	57.7522
0.644843	58.6816
0.696414	60.2465
0.73441	61.5005
0.785964	63.7044
0.826677	64.9567
0.856516	66.5353
0.926981	72.5612
0.959457	77.0135
0.999919	87.5312
1.00225	101.587
0.223806	57.9886
0.256344	60.2045
0.291633	61.1408
0.316081	61.1253
0.340522	61.4294
0.383977	61.7215
0.435592	61.6889
0.470924	61.0277
0.517044	63.235
0.574031	65.4355
0.622911	66.0437
0.67173	68.8883
0.712461	69.5016
0.774915	70.4207
0.799347	71.0442
0.84006	72.2965
0.880721	75.4658
0.913233	78.6401
0.956507	85.6416
0.988775	97.7618
