Adsorption isotherm of Nitrogen on NiPc-NH-CoPcF8 (DMF treatment)
DOI: 10.1021/jacs.1c13012
Article source: Figure S21
Adsorbate Nitrogen: InChIKey IJGRMHOSHXDMSA-UHFFFAOYSA-N
Kind: experiment
Temperature: 77 K
Tabular data in the source: 0
pressure (bar)	uptake (cm3(STP)/g)
0.011581	12.7226
0.00123	19.132
0.004142	23.5993
0.015023	27.0931
0.031233	30.2573
0.042045	32.4733
0.066258	35.3029
0.090437	37.4936
0.128032	40.6173
0.16023	42.7928
0.189653	43.0567
0.229836	44.5781
0.262018	46.4341
0.302184	47.6361
0.342299	47.8797
0.39321	50.0198
0.419976	50.6081
0.462782	51.1661
0.513675	52.9868
0.537768	53.5802
0.577935	54.7822
0.634089	54.9954
0.671531	55.2441
0.738362	55.1176
0.770526	56.6542
0.808002	57.5418
0.840149	58.7589
0.883074	61.5531
0.909926	63.7387
0.936811	66.5633
0.958402	70.3563
0.97732	74.1544
0.985425	75.7365
0.99382	82.7494
1.00484	88.7988
1.01049	94.5389
1.01063	97.0945
0.238112	49.3548
0.275623	50.8812
0.305148	53.0618
0.337295	54.2789
0.409557	55.7397
0.430942	55.6992
0.479146	57.2055
0.530005	58.3872
0.551425	58.9857
0.591557	59.5487
0.650453	61.0347
0.690551	60.9589
0.722698	62.176
0.760209	63.7025
0.792321	64.2807
0.819122	65.508
0.837868	66.1115
0.867376	67.9726
0.902248	70.143
0.923753	72.3388
0.964039	75.7769
0.982922	78.9361
0.983144	83.089
0.983264	85.3252
0.986227	90.7509
