Adsorption isotherm of Nitrogen on NiPc-NH-CuPcF8 (hexane treatment)
DOI: 10.1021/jacs.1c13012
Article source: Figure S22
Adsorbate Nitrogen: InChIKey IJGRMHOSHXDMSA-UHFFFAOYSA-N
Kind: experiment
Temperature: 77 K
Tabular data in the source: 0
pressure (bar)	uptake (cm3(STP)/g)
0.007676	13.5434
0	24.5771
0	28.258
0.002559	35.6231
0.015352	41.1601
0.033263	45.4762
0.05885	51.0287
0.086996	54.1303
0.127936	56.6338
0.168875	61.5914
0.214932	64.1011
0.240519	66.5861
0.2789	69.7001
0.324956	72.2098
0.35822	74.7041
0.391483	76.5849
0.445216	77.8769
0.493831	80.3898
0.545006	84.7462
0.59618	89.7162
0.644795	95.91
0.698528	100.883
0.757379	102.795
0.808553	111.446
0.846934	117.627
0.877638	123.799
0.921136	129.987
0.9544	136.776
0.967193	143.54
0.977428	159.503
0.990222	174.856
0.987663	185.896
0.995339	198.175
0.990222	214.12
0.225167	78.224
0.286576	84.4333
0.31728	88.1515
0.360778	89.4311
0.3966	91.9285
0.43754	94.4321
0.481038	95.7117
0.539888	100.077
0.557799	100.099
0.601297	104.446
0.624326	108.769
0.662706	111.883
0.703646	113.773
0.749703	116.896
0.790642	123.08
0.821347	127.412
0.859727	132.98
0.898108	139.775
0.928813	147.174
0.951841	153.337
0.964634	159.488
0.972311	169.313
0.977428	176.067
0.979987	181.592
0.985104	192.641
0.985104	205.525
0.990222	219.028
