Adsorption isotherm of Nitrogen on NiPc-NH-CuPcF8
DOI: 10.1021/jacs.1c13012
Article source: Figure S6
Adsorbate Nitrogen: InChIKey IJGRMHOSHXDMSA-UHFFFAOYSA-N
Kind: experiment
Temperature: 77 K
Tabular data in the source: 0
pressure (bar)	uptake (cm3(STP)/g)
0.004928	3.73511
0.002628	6.23652
0.006488	15.6091
0.002875	28.1114
0.006735	37.484
0.010102	43.1069
0.024229	50.5982
0.048622	56.2082
0.064801	59.3232
0.096997	64.3033
0.131492	66.782
0.165905	68.6358
0.200892	74.8642
0.232759	77.3446
0.272511	79.8201
0.317683	83.5422
0.354888	86.6442
0.395214	93.4944
0.43012	99.0978
0.464615	101.577
0.485969	104.063
0.520875	109.667
0.584526	114.003
0.653516	118.96
0.703945	122.679
0.746817	128.902
0.786979	134.503
0.834861	138.848
0.888493	146.94
0.950091	155.652
0.972431	165.638
1.00496	193.118
1.02524	227.481
0.239412	107.965
0.255345	109.206
0.287212	111.686
0.30832	112.298
0.329674	114.785
0.361458	116.64
0.380102	118.504
0.404084	120.989
0.435705	121.594
0.456895	122.831
0.49681	126.557
0.591754	128.998
0.626413	132.727
0.67717	138.945
0.714129	140.173
0.762176	145.768
0.815232	149.485
0.870178	167.576
0.949763	173.152
0.98935	194.378
1.02187	221.858
