Adsorption isotherm of Nitrogen on NiPc-NH-CoPcF8 (HCI treatment)
DOI: 10.1021/jacs.1c13012
Article source: Figure S21
Adsorbate Nitrogen: InChIKey IJGRMHOSHXDMSA-UHFFFAOYSA-N
Kind: experiment
Temperature: 77 K
Tabular data in the source: 0
pressure (bar)	uptake (cm3(STP)/g)
0.014306	13.6759
0.003971	20.4048
0.006832	23.9137
0.012384	27.7371
0.015194	30.2877
0.028799	34.7348
0.050338	37.5694
0.085278	41.0177
0.117527	44.1516
0.163074	45.9823
0.200585	47.5088
0.246064	48.0618
0.286247	49.5832
0.323775	51.4291
0.371944	52.2965
0.438808	52.8089
0.500326	53.3315
0.540544	55.4919
0.567327	56.3997
0.602148	57.6117
0.639624	58.4993
0.687742	58.4083
0.725218	59.2958
0.765367	60.1784
0.805534	61.3803
0.86712	63.1807
0.893955	65.0469
0.936948	69.1189
0.963919	73.5407
0.974903	78.9513
1.00186	83.0536
0.991523	89.7824
1.00254	95.8319
1.01349	100.604
0.22759	52.5696
0.248993	52.8486
0.275759	53.4369
0.307923	54.9735
0.334741	56.5202
0.37489	57.4027
0.417747	58.9191
0.468624	60.4203
0.506151	62.2662
0.546318	63.4682
0.610492	63.6662
0.690773	65.1118
0.738994	66.9375
0.781851	68.4539
0.838022	68.9866
0.872859	70.5181
0.899711	72.7038
0.929304	76.1621
0.96421	78.9715
0.96971	81.8365
0.98071	87.5665
0.986364	93.3066
0.994691	99.0416
