Adsorption isotherm of Nitrogen on NiPc-NH-CuPcF8 (NaOH treatment)
DOI: 10.1021/jacs.1c13012
Article source: Figure S22
Adsorbate Nitrogen: InChIKey IJGRMHOSHXDMSA-UHFFFAOYSA-N
Kind: experiment
Temperature: 77 K
Tabular data in the source: 0
pressure (bar)	uptake (cm3(STP)/g)
0.007676	3.72746
0.017911	13.5558
0.023028	19.0835
0.023028	23.9914
0.025587	27.6755
0.038381	33.826
0.05885	41.8262
0.07932	46.1455
0.104907	51.698
0.140729	56.6493
0.186786	59.7726
0.222608	61.6564
0.284017	67.8658
0.304487	70.3446
0.33775	74.6793
0.368455	76.557
0.409394	78.447
0.442657	80.3278
0.481038	83.4418
0.504066	84.6967
0.562917	89.6759
0.588504	92.7744
0.603856	94.6335
0.667824	98.3919
0.73435	100.313
0.788083	106.513
0.829023	109.63
0.880197	115.213
0.926254	121.404
0.967193	134.337
0.979987	150.304
0.990222	164.426
0.990222	180.991
0.987663	199.393
0.240519	75.7886
0.271223	79.5067
0.304487	79.547
0.355661	82.6765
0.422188	84.5975
0.455451	87.7053
0.514301	89.617
0.562917	91.5164
0.606415	97.0905
0.644795	101.431
0.683176	103.318
0.749703	105.853
0.803436	109.599
0.841816	118.234
0.862286	125.008
0.892991	131.18
0.93393	142.272
0.941606	145.963
0.964634	153.353
0.974869	157.659
0.982545	168.712
0.987663	174.853
0.987663	182.215
