Adsorption isotherm of Nitrogen on NiPc-NH-CoPcF8 (water treatment)
DOI: 10.1021/jacs.1c13012
Article source: Figure S21
Adsorbate Nitrogen: InChIKey IJGRMHOSHXDMSA-UHFFFAOYSA-N
Kind: experiment
Temperature: 77 K
Tabular data in the source: 0
pressure (bar)	uptake (cm3(STP)/g)
0.014203	11.7592
0.019806	16.5409
0.020045	21.0133
0.025511	23.2394
0.033633	25.141
0.041858	28.9593
0.049997	31.1803
0.063499	33.7107
0.082297	35.2725
0.111856	38.092
0.141381	40.2726
0.168199	41.8193
0.195033	43.6855
0.224507	44.9077
0.251273	45.496
0.294079	46.054
0.334228	46.9365
0.369049	48.1486
0.414613	50.2988
0.465489	51.8
0.519022	52.9767
0.577884	53.8238
0.620672	54.0623
0.666219	55.8931
0.701056	57.4246
0.741274	59.585
0.78677	60.4574
0.826902	61.0204
0.885901	64.4232
0.915443	66.9232
0.969163	71.6139
0.982837	77.3388
0.996579	84.3416
1.00213	88.1649
1.00232	91.679
1.00807	99.3358
0.251325	46.4544
0.286162	47.9859
0.329053	50.1412
0.369271	52.3015
0.438928	55.0451
0.47906	55.6082
0.508466	55.5526
0.551322	57.0689
0.567413	57.9969
0.610321	60.4717
0.647831	61.9982
0.696017	63.185
0.752257	64.9955
0.781731	66.2177
0.816568	67.7492
0.840695	68.9815
0.883621	71.7757
0.913111	73.3174
0.93729	75.5081
0.961519	78.6571
0.98311	82.4501
1.00761	90.7105
1.01604	98.3623
