Adsorption isotherm of Nitrogen on NiPc-NH-CuPcF8 (DMF treatment)
DOI: 10.1021/jacs.1c13012
Article source: Figure S22
Adsorbate Nitrogen: InChIKey IJGRMHOSHXDMSA-UHFFFAOYSA-N
Kind: experiment
Temperature: 77 K
Tabular data in the source: 0
pressure (bar)	uptake (cm3(STP)/g)
0.005117	8.01884
0	19.6691
-0.002559	27.6414
0.005117	33.1722
0.02047	40.5528
0.040939	46.099
0.061409	51.0318
0.084437	54.7407
0.130494	58.4774
0.153523	59.7323
0.220049	67.1748
0.245636	70.8868
0.276341	75.8319
0.307045	78.9366
0.368455	81.465
0.3966	83.3395
0.452892	90.1562
0.481038	91.4172
0.521977	93.3073
0.580828	98.2865
0.611532	100.164
0.660148	102.677
0.711322	107.034
0.736909	109.519
0.770172	111.399
0.800877	115.117
0.839258	117.004
0.887873	125.652
0.910902	129.975
0.931371	135.521
0.949282	141.064
0.959517	145.371
0.972311	157.043
0.99278	168.111
0.990222	177.923
0.99278	190.81
0.997898	202.473
0.230284	81.9111
0.248195	84.3868
0.296811	88.1267
0.324956	88.7742
0.368455	93.7349
0.401718	96.8427
0.43754	100.567
0.483597	103.077
0.521977	102.51
0.547564	102.541
0.578269	106.259
0.601297	110.581
0.632002	114.913
0.678059	119.263
0.706205	122.978
0.747144	127.322
0.782966	130.433
0.808553	133.532
0.841816	136.639
0.869962	137.9
0.908343	153.284
0.936489	160.067
0.962076	167.46
0.982545	173.62
0.990222	179.764
0.99278	191.423
