Adsorption isotherm of Nitrogen on TAPB-TFPA COF Benzaldehyde 1 eq
DOI: 10.1039/d0py00776e
Article source: Figure 4b
Adsorbate Nitrogen: InChIKey IJGRMHOSHXDMSA-UHFFFAOYSA-N
Kind: experiment
Temperature: 77 K
Tabular data in the source: 0
pressure (bar)	uptake (cm3(STP)/g)
0.002518	145.282
0.003548	114.486
0.003548	92.5763
0.003548	71.7619
0.00421	11.0401
0.002116	192.145
0.001086	165.975
0.002824	40.6772
0.007264	223.488
0.010354	249.232
0.014988	271.142
0.030627	293.326
0.091448	316.605
0.1123	322.083
0.144738	352.209
0.144738	330.299
0.167908	357.686
0.165922	331.864
0.193063	354.556
0.191077	332.49
0.216233	360.034
0.212702	336.233
0.237417	368.641
0.237417	339.884
0.260587	368.641
0.258601	342.819
0.283756	374.119
0.283756	345.362
0.307956	369.25
0.305381	343.993
0.330096	379.596
0.32811	353.774
0.355251	376.466
0.353265	354.4
0.376435	385.074
0.376435	363.164
0.399605	385.074
0.399605	363.164
0.422774	385.074
0.422774	364.259
0.445944	385.074
0.445944	365.902
0.4711	381.944
0.46448	365.902
0.538623	401.506
0.538623	371.928
0.56353	397.398
0.559807	370.989
0.584962	406.984
0.584962	377.953
0.608132	406.984
0.608132	378.227
0.631302	406.984
0.631302	378.227
0.654471	406.984
0.654471	378.227
0.677641	406.984
0.677641	378.227
0.700811	406.984
0.698825	381.161
0.725967	403.854
0.723981	381.787
0.74715	412.461
0.745413	385.416
0.77032	412.461
0.77032	390.551
0.79349	412.461
0.79349	391.647
0.816659	412.461
0.816659	393.29
0.839829	404.245
0.862999	406.436
0.886168	409.722
0.909338	413.009
0.932508	415.2
0.955678	417.665
0.980833	424.198
1.00202	420.951
0.126656	347.793
0.098077	341.651
0.08119	335.509
0.075994	312.476
0.051312	323.225
0.048714	298.656
0.485191	386.18
0.482593	369.29
0.502078	396.929
0.509873	366.219
