Adsorption isotherm of Nitrogen on TAPB-TFPA COF Benzaldehyde 2 eq
DOI: 10.1039/d0py00776e
Article source: Figure 4b
Adsorbate Nitrogen: InChIKey IJGRMHOSHXDMSA-UHFFFAOYSA-N
Kind: experiment
Temperature: 77 K
Tabular data in the source: 0
pressure (bar)	uptake (cm3(STP)/g)
0.00399	112.652
0.001654	77.5925
0.001654	50.3908
0.001654	25.9093
0.008736	367.177
0.005273	330.115
0.005273	302.913
0.005273	275.711
0.005273	248.51
0.005273	221.308
0.005273	195.466
0.002964	170.078
0.002964	146.503
0.018797	401.81
0.039908	428.857
0.062997	454.426
0.086087	472.651
0.109177	505.565
0.107638	468.39
0.132267	520.798
0.132267	471.291
0.155357	526.783
0.155357	476.188
0.178447	528.415
0.180179	486.864
0.201537	527.327
0.200511	490.151
0.224627	529.503
0.226606	494.555
0.247717	532.767
0.247717	496.317
0.270807	532.767
0.270807	497.949
0.293897	535.487
0.293897	503.389
0.316987	542.56
0.318013	507.681
0.340077	543.648
0.338345	509.476
0.363167	544.736
0.363167	515.086
0.386257	549.088
0.386257	521.886
0.409346	549.088
0.409346	519.71
0.432436	553.44
0.432436	518.656
0.455526	559.969
0.455526	524.335
0.480348	559.289
0.476637	526.938
0.503438	573.91
0.501706	538.389
0.494779	527.327
0.524796	577.922
0.524796	532.767
0.547886	587.17
0.547886	536.031
0.570976	589.891
0.572002	535.789
0.594066	590.979
0.592087	538.985
0.617156	592.611
0.618182	541.23
0.640246	592.611
0.638267	544.425
0.663336	595.331
0.664362	546.67
0.686426	600.771
0.686426	549.904
0.709516	600.771
0.709516	551.808
0.732606	600.771
0.732606	556.161
0.755695	600.771
0.755695	558.881
0.778785	600.771
0.778785	562.145
0.801875	603.491
0.799896	565.798
0.824965	603.491
0.824965	570.849
0.848055	600.227
0.848055	575.746
0.871145	588.667
0.894235	593.971
0.917325	594.243
0.940415	595.331
0.963505	603.491
0.986595	605.668
1.00507	612.559
