Adsorption isotherm of Carbon Dioxide on TAPB-PDA COF Benzaldehyde 3 eq
DOI: 10.1039/d0py00776e
Article source: Figure 1b
Adsorbate Carbon Dioxide: InChIKey CURLTUGMZLYLDI-UHFFFAOYSA-N
Kind: experiment
Temperature: 77 K
Tabular data in the source: 0
pressure (bar)	uptake (cm3(STP)/g)
0.001554	47.0994
0.006451	280.149
0.002373	213.889
0.002373	169.313
0.002373	117.51
0.000346	0.5547
0.015967	339.663
0.034319	381.95
0.057429	421.104
0.086656	457.246
0.113845	479.413
0.141033	503.508
0.168221	530.132
0.19118	572.365
0.215951	618.948
0.23891	689.158
0.233472	630.728
0.248879	765.659
0.26066	824.175
0.271536	876.495
0.283317	920.668
0.309599	941.069
0.336787	951.67
0.363975	953.598
0.391163	955.525
0.418352	963.236
0.44554	969.982
0.472728	979.62
0.499916	987.331
0.527104	995.041
0.554292	1001.79
0.58148	1001.79
0.608668	1010.46
0.635857	1016.24
0.663045	1021.06
0.690233	1021.06
0.717421	1024.92
0.744609	1026.85
0.771797	1030.7
0.798985	1030.7
0.826174	1033.59
0.853362	1040.34
0.88055	1042.27
0.907738	1049.98
0.934926	1056.72
0.962114	1067.33
0.989302	1076.96
