Adsorption isotherm of Nitrogen on TAPB-TFPA COF Benzaldehyde 3 eq
DOI: 10.1039/d0py00776e
Article source: Figure 4b
Adsorbate Nitrogen: InChIKey IJGRMHOSHXDMSA-UHFFFAOYSA-N
Kind: experiment
Temperature: 77 K
Tabular data in the source: 0
pressure (bar)	uptake (cm3(STP)/g)
0.004943	229.663
0.000655	195.466
0.000655	168.265
0.000655	141.063
0.000655	115.221
0.001654	92.1001
0.001654	64.8984
0.000335	29.1476
0.007582	261.838
0.0122	454.222
0.009891	415.8
0.008505	385.878
0.013739	291.579
0.014509	346.096
0.026713	518.13
0.022975	313.34
0.032651	481.084
0.046257	546.028
0.051914	516.99
0.050991	495.229
0.069347	562.009
0.073773	531.407
0.084548	525.513
0.090705	581.73
0.097055	547.728
0.115527	575.61
0.118413	546.368
0.136885	586.264
0.142163	556.86
0.161707	586.49
0.166133	559.062
0.184797	591.931
0.187683	562.3
0.207887	597.371
0.209234	568.129
0.231224	605.046
0.233093	575.61
0.252335	618.724
0.255221	583.26
0.275425	621.989
0.281775	587.68
0.298515	625.253
0.303133	589.755
0.322631	617.999
0.327762	588.984
0.346674	626.03
0.348735	595.331
0.367785	637.766
0.372403	600.771
0.390875	641.574
0.395493	603.219
0.413964	643.75
0.418582	605.123
0.437054	642.39
0.441672	606.212
0.461876	635.453
0.464762	605.046
0.485213	642.351
0.487275	610.632
0.506324	652.454
0.510942	615.732
0.530953	649.734
0.533519	615.883
0.552504	657.895
0.557122	619.812
0.577326	651.774
0.580212	619.035
0.598684	663.335
0.603302	625.797
0.623313	661.068
0.625879	626.764
0.644864	669.863
0.649482	631.237
0.667954	668.775
0.672572	632.053
0.691044	668.775
0.695662	633.413
0.716113	662.558
0.715057	636.133
0.73825	660.313
0.760313	659.255
0.783403	660.343
0.804762	662.655
0.829583	671.768
0.852673	675.304
0.875763	678.024
0.898853	680.2
0.921943	681.016
0.945033	681.016
0.968123	681.016
0.991213	682.376
1.01045	684.643
1.02816	687.817
