Adsorption isotherm of Nitrogen on TAPB-PDA COF Benzaldehyde 9 eq
DOI: 10.1039/d0py00776e
Article source: Figure 1b
Adsorbate Nitrogen: InChIKey IJGRMHOSHXDMSA-UHFFFAOYSA-N
Kind: experiment
Temperature: 77 K
Tabular data in the source: 0
pressure (bar)	uptake (cm3(STP)/g)
0.003528	0.188324
0.000871	42.5612
0.003113	87.2881
0.001785	127.307
0.001785	172.034
0.001785	221.469
0.004441	252.072
0.008426	277.966
0.025691	376.836
0.04827	421.563
0.076161	466.29
0.100067	506.309
0.127958	536.911
0.154521	569.868
0.177099	607.533
0.201005	656.968
0.228896	699.341
0.22624	732.298
0.248818	840.584
0.242177	779.379
0.254131	927.684
0.280933	1025.75
0.280933	995.777
0.300917	1046.18
0.303222	1008.04
0.323206	1051.63
0.329355	1013.49
0.350107	1063.89
0.357024	1024.38
0.374702	1065.25
0.381619	1039.37
0.402371	1070.7
0.403909	1051.63
0.423123	1084.33
0.431578	1047.54
0.45233	1093.86
0.456173	1061.17
0.472314	1103.4
0.480768	1081.6
0.502289	1107.48
0.512281	1072.07
0.530727	1107.48
0.536107	1078.88
0.552248	1115.66
0.557628	1087.05
0.576074	1121.11
0.586066	1089.78
0.602975	1133.37
0.612198	1100.67
0.626033	1140.18
0.631413	1108.85
0.651397	1146.99
0.66062	1107.48
0.685984	1152.44
0.681372	1132.01
0.706736	1149.72
0.70981	1130.64
0.732099	1156.53
0.737479	1133.37
0.757463	1153.8
0.760537	1137.46
0.780521	1167.43
0.783595	1157.89
0.806653	1176.96
0.809728	1152.44
0.834323	1178.32
0.839703	1157.89
0.859686	1187.86
0.863529	1176.96
0.881976	1194.67
0.887356	1168.79
0.905802	1196.03
0.915025	1179.69
0.937315	1197.4
0.93962	1176.96
0.957298	1201.48
0.987273	1215.11
1.00341	1230.09
