Adsorption isotherm of Carbon Dioxide on TAPB-PDA COF
DOI: 10.1039/d0py00776e
Article source: Figure 1b
Adsorbate Carbon Dioxide: InChIKey CURLTUGMZLYLDI-UHFFFAOYSA-N
Kind: experiment
Temperature: 77 K
Tabular data in the source: 0
pressure (bar)	uptake (cm3(STP)/g)
0.002063	21.25
0.000589	81.1458
0.005305	120.208
0.027409	190.521
0.027409	226.979
0.055408	232.188
0.056881	255.625
0.08488	247.812
0.081932	281.667
0.098142	273.854
0.101089	310.312
0.127614	297.292
0.127614	331.146
0.155613	315.521
0.149718	349.375
0.183611	344.167
0.183611	385.833
0.205715	359.792
0.205715	401.458
0.229293	398.854
0.229293	443.125
0.251397	497.812
0.254344	562.917
0.276448	560.312
0.288237	604.583
0.300026	599.375
0.308867	570.729
0.329498	575.938
0.323603	612.396
0.357496	615
0.381074	628.021
0.404652	633.229
0.407599	588.958
0.428229	607.188
0.429703	633.229
0.453281	638.438
0.356023	583.75
0.381074	601.979
0.457701	609.792
0.4857	620.208
0.481279	643.646
0.510751	620.208
0.510751	661.875
0.531382	669.688
0.531382	622.812
0.566748	630.625
0.557906	669.688
0.582958	674.896
0.587378	643.646
0.613903	648.854
0.606535	672.292
0.628639	687.917
0.63306	648.854
0.661059	661.875
0.661059	695.729
0.68611	700.938
0.684636	661.875
0.709688	703.542
0.708214	669.688
0.73916	698.333
0.740633	669.688
0.764211	698.333
0.776	685.312
0.787789	713.958
0.793683	687.917
0.811366	711.354
0.818734	687.917
0.843786	698.333
0.868837	706.146
0.88652	724.375
0.904203	721.771
0.930728	721.771
0.961674	742.604
0.989672	753.021
1.00588	781.667
0.006779	167.083
