Adsorption isotherm of Nitrogen on TAPB-TFPA COF Benzaldehyde 4 eq
DOI: 10.1039/d0py00776e
Article source: Figure 4b
Adsorbate Nitrogen: InChIKey IJGRMHOSHXDMSA-UHFFFAOYSA-N
Kind: experiment
Temperature: 77 K
Tabular data in the source: 0
pressure (bar)	uptake (cm3(STP)/g)
0.049163	593.218
0.063313	617.475
0.086235	630.875
0.095751	596.348
0.109652	645.645
0.117514	600.749
0.132574	656.209
0.141842	614.443
0.154585	665.11
0.163274	620.331
0.177176	670.207
0.186444	627.452
0.202083	677.548
0.210643	635.516
0.225501	684.77
0.232783	639.503
0.248671	689.856
0.255953	644.98
0.269854	697.29
0.279122	648.266
0.291286	696.605
0.302292	653.47
0.316194	708.245
0.325462	657.304
0.339364	708.245
0.349211	662.029
0.362533	713.722
0.371801	667.164
0.387689	711.375
0.396001	668.685
0.407328	716.461
0.418141	668.533
0.432042	719.2
0.440795	670.511
0.456242	714.737
0.46448	674.011
0.478382	724.677
0.48765	680.857
0.501551	724.677
0.510819	683.048
0.524721	730.155
0.533989	686.335
0.549435	728.481
0.557931	685.422
0.571061	735.632
0.580328	692.908
0.595775	733.806
0.603498	695.921
0.6174	741.11
0.626668	699.481
0.64057	741.11
0.649838	701.124
0.663739	746.587
0.673007	702.767
0.686909	746.587
0.696177	702.767
0.710079	746.587
0.719347	704.958
0.733248	746.587
0.735234	719.982
0.756418	746.587
0.758156	719.2
0.779588	746.587
0.779588	717.83
0.802758	746.587
0.801728	718.591
0.827472	744.761
0.825927	723.034
0.849097	752.065
0.847552	727.872
0.872267	752.065
0.872267	731.25
0.896981	750.239
0.893119	732.894
0.915173	753.167
0.915173	733.205
0.933359	750.096
0.956742	751.631
0.990517	753.167
1.0074	766.987
0.976227	753.167
0.078592	584.261
0.05391	556.622
0.027929	518.234
0.035724	556.622
0.042219	536.66
0.01364	438.388
0.018836	482.917
0.005846	406.142
0.001949	370.825
0.001949	338.58
0.001949	309.405
0.001949	263.34
0.004547	231.094
0.004547	185.029
0.001949	201.919
0.004547	157.39
0.004547	126.679
0.001949	99.0403
0.00065	69.8656
0.00065	48.3685
0.001949	20.7294
