Adsorption isotherm of Nitrogen on TAPB-TFPA COF
DOI: 10.1039/d0py00776e
Article source: Figure 4b
Adsorbate Nitrogen: InChIKey IJGRMHOSHXDMSA-UHFFFAOYSA-N
Kind: experiment
Temperature: 77 K
Tabular data in the source: 0
pressure (bar)	uptake (cm3(STP)/g)
0.002631	140.413
0.007264	160.953
0.014988	181.859
0.030876	200.796
0.038157	190.623
0.053089	218.315
0.042791	201.578
0.075229	228.144
0.077546	212.533
0.100385	238.355
0.096082	223.488
0.121568	238.003
0.145768	243.268
0.13547	231.704
0.167908	251.423
0.167908	236.086
0.192815	249.164
0.184127	237.182
0.214247	256.901
0.214247	241.564
0.238575	254.641
0.232783	239.008
0.262573	260.265
0.255953	245.398
0.283756	265.117
0.283756	249.78
0.306926	266.212
0.306926	250.875
0.330096	267.856
0.330096	251.423
0.353265	267.308
0.353265	251.971
0.376435	267.308
0.376435	252.519
0.400763	264.569
0.394971	253.614
0.422774	273.333
0.422774	257.448
0.445944	270.96
0.445944	258.407
0.469114	277.167
0.469114	262.378
0.492284	278.263
0.492284	262.926
0.515453	278.263
0.515453	262.926
0.540168	276.437
0.536306	263.2
0.563337	276.437
0.559476	264.569
0.584962	275.133
0.588438	265.254
0.608794	275.133
0.615855	266.395
0.63304	277.92
0.653699	281.914
0.65563	270.047
0.676979	280.61
0.679186	270.047
0.700039	281.914
0.702356	270.047
0.725967	281.393
0.71703	270.047
0.747812	285.305
0.745606	272.785
0.772306	285.305
0.765686	274.611
0.795476	285.305
0.788856	274.611
0.816659	284.836
0.841374	291.957
0.861454	291.957
0.885506	293.521
0.910111	295.608
0.934053	296.978
0.956192	292.869
0.980585	295.38
1.00202	300.447
