Adsorption isotherm of Carbon Dioxide on TAPB-PDA COF Benzaldehyde 1 eq
DOI: 10.1039/d0py00776e
Article source: Figure 1b
Adsorbate Carbon Dioxide: InChIKey CURLTUGMZLYLDI-UHFFFAOYSA-N
Kind: experiment
Temperature: 77 K
Tabular data in the source: 0
pressure (bar)	uptake (cm3(STP)/g)
0.000228	28.5293
0.014987	202.645
0.013822	106.206
0.011103	65.3659
0.038292	286.385
0.06548	323.542
0.092669	349.328
0.119857	370.949
0.147046	395.934
0.174234	427.325
0.202329	467.098
0.228611	514.9
0.25157	583.943
0.273321	643.54
0.297489	679.416
0.32649	698.251
0.353678	701.902
0.380867	710.166
0.408055	720.737
0.435244	721.698
0.462432	725.542
0.489621	726.022
0.516809	729.642
0.543997	735.792
0.571186	735.792
0.598374	742.839
0.625563	745.722
0.652751	748.605
0.67994	750.526
0.707128	750.526
0.734317	751.487
0.761505	750.526
0.788694	754.37
0.815882	759.175
0.843071	762.058
0.870259	765.902
0.897448	763.019
0.924636	766.863
0.951825	773.589
0.979013	773.782
1.0062	784.16
