Adsorption isotherm of Mercury on Zn-DABCO
DOI: 10.1016/j.micromeso.2014.09.038
Article source: Figure 5b
Adsorbate Mercury: InChIKey QSHDDOUJBYECFT-UHFFFAOYSA-N
Kind: experiment
Temperature: 298 K
Tabular data in the source: 0
pressure (bar)	uptake (mmol/g)
0.013104	0.009557
0.044575	0.022924
0.065541	0.038216
0.102258	0.053492
0.133727	0.067816
0.200595	0.099332
0.267464	0.130848
0.335645	0.162362
0.39989	0.192924
0.466761	0.223483
0.534944	0.25404
0.600505	0.283643
0.667377	0.313245
0.734252	0.34189
0.799817	0.36958
0.865383	0.396312
0.933574	0.423042
0.999136	0.451688
1.06601	0.479376
