Adsorption isotherm of Methane on Cu-DABCO
DOI: 10.1016/j.micromeso.2014.09.038
Article source: Figure 5b
Adsorbate Methane: InChIKey VNWKTOKETHGBQD-UHFFFAOYSA-N
Kind: experiment
Temperature: 298 K
Tabular data in the source: 0
pressure (bar)	uptake (mmol/g)
0.017086	0.009632
0.040745	0.022157
0.069667	0.034692
0.098577	0.052987
0.131439	0.069369
0.202418	0.105984
0.269455	0.139711
0.333863	0.172473
0.402216	0.206202
0.469257	0.238009
0.532355	0.267889
0.599393	0.301616
0.666445	0.328623
0.732168	0.361387
0.801842	0.393199
0.867578	0.420204
0.93725	0.452976
1.00299	0.479981
1.06477	0.506978
