Adsorption isotherm of Nitrogen on Cu-DABCO
DOI: 10.1016/j.micromeso.2014.09.038
Article source: Figure 4
Adsorbate Nitrogen: InChIKey IJGRMHOSHXDMSA-UHFFFAOYSA-N
Kind: experiment
Temperature: 77 K
Tabular data in the source: 0
pressure (bar)	uptake (cm3(STP)/g)
0.000118	116.4
0.000135	46.8
0.000215	318
0.000218	303.6
0.000224	279.6
0.000233	242.4
0.000254	158.4
0.000267	104.4
0.000269	97.2
0.000271	86.4
0.000274	73.2
0.000276	64.8
0.000286	25.2
0.000289	13.2
0.000359	325.2
0.000367	291.6
0.000374	264
0.000376	254.4
0.000383	226.8
0.000385	219.6
0.000388	206.4
0.00039	196.8
0.000394	182.4
0.000397	170.4
0.000402	148.8
0.000406	133.2
0.000411	110.4
0.000429	38.4
0.000503	333.6
0.000646	345.6
0.000647	340.8
0.00079	354
0.001226	364.8
0.003122	378
0.006335	382.8
0.008088	384
0.009987	384
0.011739	386.4
0.013201	385.2
0.013493	386.4
0.015538	387.6
0.017291	386.4
0.017437	388.8
0.019336	388.8
0.022257	390
0.024157	390
0.027224	391.2
0.02927	390
0.032337	391.2
0.033944	391.2
0.038911	392.4
0.040957	392.4
0.043586	392.4
0.045485	392.4
0.046654	394.8
0.050453	392.4
0.051621	396
0.055566	393.6
0.056442	394.8
0.060095	393.6
0.061116	397.2
0.064915	396
0.06623	397.2
0.070174	396
0.071051	397.2
0.074703	397.2
0.075871	399.6
0.078355	399.6
0.079378	397.2
0.08113	400.8
0.082738	397.2
0.083614	400.8
0.085951	402
0.086974	402
0.087558	402
0.088288	405.6
0.089895	403.2
0.091647	410.4
0.092378	408
0.094275	417.6
0.094419	424.8
0.095292	439.2
0.095296	421.2
0.095878	433.2
0.096603	454.8
