Adsorption isotherm of Mercury on Ni-DABCO
DOI: 10.1016/j.micromeso.2014.09.038
Article source: Figure 5b
Adsorbate Mercury: InChIKey QSHDDOUJBYECFT-UHFFFAOYSA-N
Kind: experiment
Temperature: 298 K
Tabular data in the source: 0
pressure (bar)	uptake (mmol/g)
0.013142	0.012493
0.043369	0.026921
0.067024	0.043264
0.098565	0.064413
0.131421	0.077884
0.202388	0.117312
0.265468	0.152892
0.335121	0.193278
0.402146	0.222141
0.463913	0.25388
0.53488	0.286587
0.599277	0.317368
0.666301	0.345271
0.73201	0.374134
0.800349	0.403958
0.864745	0.430899
0.93177	0.457843
0.996166	0.486704
1.06713	0.515571
