Adsorption isotherm of Nitrogen on Ni-DABCO
DOI: 10.1016/j.micromeso.2014.09.038
Article source: Figure 4
Adsorbate Nitrogen: InChIKey IJGRMHOSHXDMSA-UHFFFAOYSA-N
Kind: experiment
Temperature: 77 K
Tabular data in the source: 0
pressure (bar)	uptake (cm3(STP)/g)
0.000143	12
0.000226	268.8
0.000229	256.8
0.000233	242.4
0.000241	207.6
0.000243	199.2
0.00026	132
0.000262	121.2
0.000345	379.2
0.000381	232.8
0.000383	223.2
0.000386	213.6
0.000393	183.6
0.000395	175.2
0.000397	166.8
0.0004	156
0.000402	145.2
0.000414	97.2
0.000417	86.4
0.00042	73.2
0.000423	61.2
0.000425	50.4
0.000429	34.8
0.000432	24
0.000487	398.4
0.000493	370.8
0.000503	330
0.000509	306
0.000513	291.6
0.000515	280.8
0.000557	108
0.000645	346.8
0.000652	316.8
0.00077	434.4
0.000771	427.2
0.000775	412.8
0.000789	354
0.000913	445.2
0.001203	451.2
0.001493	457.2
0.001636	469.2
0.003672	498
0.005567	501.6
0.008192	504
0.009797	505.2
0.011839	504
0.013735	505.2
0.017528	505.2
0.021321	505.2
0.022341	506.4
0.026281	504
0.027155	506.4
0.031094	504
0.032115	506.4
0.035762	506.4
0.036637	506.4
0.040722	505.2
0.041597	505.2
0.04539	506.4
0.04714	505.2
0.050349	506.4
0.05137	506.4
0.055163	505.2
0.056184	505.2
0.059977	504
0.061144	505.2
0.064791	504
0.066104	506.4
0.069897	504
0.070772	506.4
0.074711	504
0.075877	506.4
0.078357	505.2
0.079378	505.2
0.080837	506.4
0.083316	507.6
0.084484	504
0.085358	508.8
0.086527	504
0.087984	508.8
0.089006	505.2
0.089735	506.4
0.090317	512.4
0.092069	508.8
0.092796	516
0.094401	514.8
0.094545	522
0.094984	517.2
0.095712	522
0.096294	528
