Adsorption isotherm of Carbon Dioxide on Ni-DABCO
DOI: 10.1016/j.micromeso.2014.09.038
Article source: Figure 5a
Adsorbate Carbon Dioxide: InChIKey CURLTUGMZLYLDI-UHFFFAOYSA-N
Kind: experiment
Temperature: 298 K
Tabular data in the source: 0
pressure (bar)	uptake (mmol/g)
0.016801	0.036
0.04265	0.076
0.085299	0.152
0.121487	0.224
0.151212	0.28
0.217125	0.396
0.28433	0.508
0.352828	0.636
0.420034	0.768
0.487238	0.896
0.554444	1.032
0.622942	1.16
0.687562	1.292
0.753475	1.428
0.820681	1.58
0.889179	1.724
0.955091	1.864
1.0223	2.012
1.08821	2.164
