Adsorption isotherm of Carbon Dioxide on Cu-DABCO
DOI: 10.1016/j.micromeso.2014.09.038
Article source: Figure 5a
Adsorbate Carbon Dioxide: InChIKey CURLTUGMZLYLDI-UHFFFAOYSA-N
Kind: experiment
Temperature: 298 K
Tabular data in the source: 0
pressure (bar)	uptake (mmol/g)
0.016766	0.027911
0.043853	0.063796
0.082547	0.119617
0.103181	0.155502
0.152193	0.227273
0.219265	0.318979
0.268277	0.39075
0.335347	0.486443
0.421765	0.610048
0.466907	0.677831
0.554615	0.801435
0.620391	0.905104
0.668114	0.972887
0.755818	1.10447
0.800957	1.17624
0.868026	1.27592
0.953148	1.4075
0.998281	1.49123
1.06665	1.58293
