Adsorption isotherm of Carbon Dioxide on Zn-DABCO
DOI: 10.1016/j.micromeso.2014.09.038
Article source: Figure 5a
Adsorbate Carbon Dioxide: InChIKey CURLTUGMZLYLDI-UHFFFAOYSA-N
Kind: experiment
Temperature: 298 K
Tabular data in the source: 0
pressure (bar)	uptake (mmol/g)
0.018112	0.036
0.043975	0.064
0.065969	0.108
0.102181	0.156
0.13323	0.216
0.200489	0.32
0.269045	0.432
0.335012	0.536
0.39969	0.648
0.466953	0.76
0.535511	0.876
0.601485	0.996
0.667457	1.108
0.733436	1.236
0.800706	1.36
0.867974	1.484
0.933958	1.62
1.00511	1.748
1.0685	1.872
