Adsorption isotherm of Methane on Co-DABCO
DOI: 10.1016/j.micromeso.2014.09.038
Article source: Figure 5b
Adsorbate Methane: InChIKey VNWKTOKETHGBQD-UHFFFAOYSA-N
Kind: experiment
Temperature: 298 K
Tabular data in the source: 0
pressure (bar)	uptake (mmol/g)
0.014456	0.010543
0.04074	0.02492
0.067024	0.039297
0.102507	0.05655
0.134049	0.07476
0.199759	0.111182
0.270725	0.149521
0.332493	0.184026
0.396889	0.222364
0.466542	0.256869
0.53488	0.294249
0.599277	0.329712
0.668929	0.367093
0.733324	0.400639
0.801663	0.437061
0.866059	0.471565
0.935712	0.507029
1.00011	0.541534
1.06713	0.57508
