Adsorption isotherm of Nitrogen on Zn-DABCO
DOI: 10.1016/j.micromeso.2014.09.038
Article source: Figure 4
Adsorbate Nitrogen: InChIKey IJGRMHOSHXDMSA-UHFFFAOYSA-N
Kind: experiment
Temperature: 77 K
Tabular data in the source: 0
pressure (bar)	uptake (cm3(STP)/g)
0.000146	12
0.000292	367.2
0.000438	48
0.000584	122.4
0.000877	418.8
0.001315	424.8
0.002922	428.4
0.00672	432
0.008181	432
0.009934	432
0.01198	432
0.013733	432
0.017677	433.2
0.019577	433.2
0.021476	430.8
0.022352	434.4
0.026297	432
0.027319	434.4
0.03068	434.4
0.031994	434.4
0.036085	433.2
0.037108	433.2
0.04076	432
0.04412	434.4
0.045581	432
0.047042	436.8
0.05084	430.8
0.051717	440.4
0.055515	433.2
0.056538	439.2
0.060483	433.2
0.061359	440.4
0.065011	433.2
0.06618	441.6
0.069979	434.4
0.071001	440.4
0.074946	435.6
0.076115	441.6
0.077575	436.8
0.078306	440.4
0.079767	438
0.08079	441.6
0.082689	439.2
0.083127	442.8
0.085026	438
0.085611	442.8
0.08824	441.6
0.089263	440.4
0.090432	442.8
0.092039	441.6
0.093938	441.6
0.094522	445.2
0.095399	444
0.096129	444
