Adsorption isotherm of Nitrogen on Co-DABCO
DOI: 10.1016/j.micromeso.2014.09.038
Article source: Figure 4
Adsorbate Nitrogen: InChIKey IJGRMHOSHXDMSA-UHFFFAOYSA-N
Kind: experiment
Temperature: 77 K
Tabular data in the source: 0
pressure (bar)	uptake (cm3(STP)/g)
0.000146	0.001502
0.000292	375.6
0.000438	430.8
0.000583	400.8
0.000729	465.6
0.001459	471.6
0.003209	474
0.006564	477.6
0.008023	478.8
0.008607	477.6
0.009919	478.8
0.011524	478.8
0.011962	478.8
0.015754	477.6
0.017505	478.8
0.019401	477.6
0.022319	477.6
0.026403	477.6
0.027133	477.6
0.031217	477.6
0.032092	477.6
0.036031	478.8
0.03676	478.8
0.040699	477.6
0.041866	476.4
0.045659	478.8
0.04668	478.8
0.050618	477.6
0.051493	478.8
0.055432	477.6
0.056307	478.8
0.060392	476.4
0.061267	478.8
0.06506	476.4
0.066081	478.8
0.069582	476.4
0.071041	478.8
0.074833	476.4
0.075854	478.8
0.078334	478.8
0.079501	476.4
0.080668	477.6
0.083148	477.6
0.084461	476.4
0.085774	477.6
0.086941	477.6
0.087962	478.8
0.089275	476.4
0.090588	477.6
0.091755	476.4
0.093797	475.2
0.09438	478.8
0.095547	478.8
0.096131	478.8
0.096714	483.6
