Adsorption isotherm of Carbon Dioxide on Co-DABCO
DOI: 10.1016/j.micromeso.2014.09.038
Article source: Figure 5a
Adsorbate Carbon Dioxide: InChIKey CURLTUGMZLYLDI-UHFFFAOYSA-N
Kind: experiment
Temperature: 298 K
Tabular data in the source: 0
pressure (bar)	uptake (mmol/g)
0.016801	0.02
0.04265	0.036
0.084007	0.088
0.121487	0.12
0.153797	0.156
0.221002	0.22
0.286915	0.276
0.354121	0.34
0.422618	0.4
0.487238	0.46
0.555736	0.52
0.620357	0.58
0.687562	0.636
0.754768	0.696
0.820681	0.756
0.889179	0.824
0.9538	0.88
1.021	0.952
1.08951	1.024
