Adsorption isotherm of Hydrogen on IRMOF-1
DOI: 10.1016/j.susc.2008.10.054
Adsorbate Hydrogen: InChIKey UFHFLCQGNIYNRP-UHFFFAOYSA-N
Temperature: 50 K
Tabular data in the source: 0
pressure (bar)	uptake (wt%)
0.314371	3.42434
0.523952	1.75364
0.628743	4.92757
0.943114	5.65122
1.57186	6.34678
2.30539	6.95872
3.14371	7.40353
4.19162	7.76465
5.4491	8.06991
7.23054	8.31907
8.17365	8.40185
9.95509	8.5118
11.003	8.53881
12.0509	8.51014
13.3084	8.50913
14.3563	8.53614
15.4042	8.50747
16.3473	8.47888
18.024	8.42186
18.9671	8.36542
20.015	8.3089
21.0629	8.25239
22.9491	8.11167
23.997	8.05516
24.9401	7.97088
25.988	7.88652
26.7216	7.83025
27.7695	7.74589
28.7126	7.66161
29.7605	7.57725
30.7036	7.49298
31.6467	7.4087
32.6946	7.32434
33.6377	7.21222
35.3144	7.07168
36.2575	6.9874
37.3054	6.90304
38.2485	6.79092
39.1916	6.70664
40.2395	6.62228
41.1826	6.51016
42.2305	6.4258
43.1737	6.34153
44.2216	6.25717
45.1647	6.17289
46.1078	6.06077
47.1557	5.97641
48.0988	5.89213
49.8802	5.7515
50.9281	5.66714
51.8713	5.58287
52.9192	5.49851
53.8623	5.41423
54.9102	5.35771
55.8533	5.27343
56.9012	5.21692
57.8443	5.13264
58.8922	5.07612
59.8353	4.99184
60.8832	4.93533
61.8263	4.87889
62.8743	4.82237
63.8174	4.76594
64.8653	4.70942
65.8084	4.62514
66.8563	4.59647
67.7994	4.51219
68.8473	4.48352
