Adsorption isotherm of Hydrogen on IRMOF-1
DOI: 10.1016/j.susc.2008.10.054
Adsorbate Hydrogen: InChIKey UFHFLCQGNIYNRP-UHFFFAOYSA-N
Temperature: 200 K
Tabular data in the source: 0
pressure (bar)	uptake (wt%)
2.61976	0.0814427
4.61078	0.107701
6.18263	0.162135
7.23054	0.189144
8.8024	0.215736
9.8503	0.242744
12.1557	0.296595
13.2036	0.295761
14.2515	0.32277
15.2994	0.349778
16.7665	0.348611
17.8144	0.431304
18.8623	0.402629
19.7006	0.429804
20.7485	0.456813
22.7395	0.483071
23.6826	0.482321
24.7305	0.509329
25.6737	0.536421
26.7216	0.535588
28.3982	0.562096
29.3413	0.61703
30.3892	0.616197
31.4371	0.615363
32.3802	0.642455
33.4281	0.669464
34.476	0.696472
36.0479	0.66738
36.991	0.722314
38.0389	0.72148
38.982	0.748572
40.0299	0.747739
41.0778	0.774747
43.488	0.800672
44.9551	0.827348
46.003	0.826514
46.9461	0.853606
47.994	0.880615
49.0419	0.879781
51.0329	0.878197
52.1856	0.932965
53.2335	0.932131
54.1766	0.959223
55.2246	0.958389
57.4251	0.956639
58.5778	0.983564
61.4072	1.00916
63.503	1.06317
64.5509	1.06234
65.5988	1.08935
66.6467	1.08851
67.5898	1.11561
68.6377	1.11477
69.6856	1.14178
