Adsorption isotherm of Hydrogen on IRMOF-1
DOI: 10.1016/j.susc.2008.10.054
Adsorbate Hydrogen: InChIKey UFHFLCQGNIYNRP-UHFFFAOYSA-N
Temperature: 60 K
Tabular data in the source: 0
pressure (bar)	uptake (wt%)
0.419162	2.05999
0.943114	3.28463
1.46707	3.98027
1.78144	4.48118
2.72455	5.03728
3.66766	5.50984
4.71557	5.87096
5.55389	6.14871
6.28743	6.28734
7.23054	6.45364
8.06886	6.62003
9.32635	6.78608
10.2695	6.8967
11.2126	7.00732
12.5749	7.11761
13.6228	7.17246
14.5659	7.22739
15.6138	7.28224
16.976	7.309
18.024	7.33601
19.0719	7.36302
20.015	7.39011
21.0629	7.38928
22.6347	7.38803
23.6826	7.38719
24.7305	7.38636
25.7784	7.38553
27.5599	7.35627
28.6078	7.32759
29.6557	7.29891
30.5988	7.27032
31.6467	7.24165
32.6946	7.21297
35.3144	7.12736
36.3623	7.09868
37.3054	7.04225
38.3533	7.01357
40.1347	6.92863
41.1826	6.89995
42.1257	6.84352
43.1737	6.81484
44.2216	6.75833
46.003	6.67338
47.0509	6.64471
47.994	6.58827
49.0419	6.5596
50.0898	6.50308
51.0329	6.44664
51.976	6.39021
53.024	6.36153
53.9671	6.3051
55.015	6.24858
56.0629	6.2199
57.006	6.16347
58.0539	6.10695
58.997	6.05052
60.0449	6.02184
60.988	5.96541
62.0359	5.90889
63.0838	5.85237
64.0269	5.82378
65.0749	5.76726
66.018	5.71082
67.6946	5.62596
68.7425	5.56945
69.6856	5.54085
