Adsorption isotherm of Hydrogen on IRMOF-1
DOI: 10.1016/j.susc.2008.10.054
Adsorbate Hydrogen: InChIKey UFHFLCQGNIYNRP-UHFFFAOYSA-N
Temperature: 77 K
Tabular data in the source: 0
pressure (bar)	uptake (wt%)
0.209581	0.445309
0.943114	1.00157
1.57186	1.50223
2.09581	1.91945
3.14371	2.47546
4.19162	2.89226
4.92515	3.25362
6.70659	3.69768
7.85928	3.9195
8.6976	4.08589
9.53593	4.25228
10.5838	4.41849
11.5269	4.52911
12.4701	4.66757
14.0419	4.86122
14.985	4.91615
16.0329	4.99885
16.976	5.08162
18.9671	5.24709
19.9102	5.27418
20.9581	5.32904
21.9012	5.38397
22.9491	5.43882
24.7305	5.52093
25.7784	5.54794
26.8263	5.57495
27.7695	5.60204
29.6557	5.65622
30.7036	5.68323
31.7515	5.71024
32.7994	5.70941
33.7425	5.7365
34.7904	5.76351
36.6766	5.73417
37.6198	5.7891
38.6677	5.78827
39.7156	5.78743
40.7635	5.81444
41.8114	5.81361
43.2784	5.81244
44.3263	5.81161
45.3743	5.81077
46.4222	5.80994
47.4701	5.80911
48.7275	5.78026
49.8802	5.80719
50.9281	5.77851
51.976	5.77768
53.024	5.77685
54.0719	5.77601
55.3293	5.74717
56.3772	5.74634
57.4251	5.7455
58.4731	5.71683
62.3503	5.65806
63.3982	5.65722
64.4461	5.62855
65.494	5.62771
66.5419	5.59904
68.009	5.54219
69.5808	5.54094
69.8952	5.54069
