Adsorption isotherm of Hydrogen on IRMOF-1
DOI: 10.1016/j.susc.2008.10.054
Adsorbate Hydrogen: InChIKey UFHFLCQGNIYNRP-UHFFFAOYSA-N
Temperature: 200 K
Tabular data in the source: 0
pressure (bar)	uptake (wt%)
3.87725	0.108285
5.55389	0.134793
8.17365	0.188394
11.5269	0.24141
16.1377	0.321269
22.006	0.42797
27.7695	0.534754
35.3144	0.612279
42.4401	0.717979
49.8802	0.767745
56.5868	0.845937
59.8353	0.871195
61.512	0.869861
62.2455	0.924962
