Adsorption isotherm of Hydrogen on IRMOF-1
DOI: 10.1016/j.susc.2008.10.054
Adsorbate Hydrogen: InChIKey UFHFLCQGNIYNRP-UHFFFAOYSA-N
Temperature: 125 K
Tabular data in the source: 0
pressure (bar)	uptake (wt%)
1.0479	0.16622
1.67665	0.249246
2.41018	0.332189
2.72455	0.387624
3.35329	0.442808
4.19162	0.525668
5.55389	0.663795
7.75449	0.85694
11.003	1.13278
15.2994	1.43563
20.5389	1.73772
25.8832	1.95621
31.1228	2.17478
37.4102	2.36467
43.8024	2.52664
50.0898	2.66085
55.9581	2.73971
59.6257	2.79248
61.3024	2.79114
62.2455	2.81823
