Adsorption isotherm of Hydrogen on IRMOF-1
DOI: 10.1016/j.susc.2008.10.054
Adsorbate Hydrogen: InChIKey UFHFLCQGNIYNRP-UHFFFAOYSA-N
Temperature: 100 K
Tabular data in the source: 0
pressure (bar)	uptake (wt%)
0.943114	0.277672
1.78144	0.499743
2.51497	0.694055
3.87725	0.971394
5.55389	1.33201
6.49701	1.47047
7.6497	1.69229
8.59281	1.80291
9.11677	1.99739
10.2695	2.05216
11.2126	2.16277
12.1557	2.27339
13.6228	2.46712
14.5659	2.52206
15.509	2.63267
16.5569	2.71537
18.5479	2.88084
19.5958	2.96353
20.5389	3.04631
21.482	3.10124
23.3683	3.21111
24.3114	3.26604
25.3593	3.32089
26.4072	3.37575
27.3503	3.43068
28.503	3.48545
29.5509	3.5403
30.494	3.59523
31.5419	3.62224
32.485	3.67717
33.5329	3.70418
35.2096	3.78638
36.2575	3.81338
37.3054	3.84039
38.2485	3.86749
39.2964	3.89449
40.3443	3.94934
42.6497	4.0032
43.6976	4.0302
44.7455	4.02937
45.7934	4.05638
47.3653	4.11081
48.4132	4.10998
49.4611	4.13699
50.509	4.164
51.5569	4.16316
52.9192	4.18992
53.9671	4.21693
55.015	4.2161
56.0629	4.24311
57.1108	4.24227
57.8443	4.21385
58.1587	4.26928
59.2066	4.26845
60.2545	4.29546
61.3024	4.29462
62.3503	4.29379
63.3982	4.3208
64.4461	4.31996
65.494	4.31913
66.4371	4.34622
67.485	4.34539
68.5329	4.34455
69.5808	4.37156
