Adsorption isotherm of Hydrogen on IRMOF-1
DOI: 10.1016/j.susc.2008.10.054
Adsorbate Hydrogen: InChIKey UFHFLCQGNIYNRP-UHFFFAOYSA-N
Temperature: 100 K
Tabular data in the source: 0
pressure (bar)	uptake (wt%)
0.944528	0.334107
1.994	0.556845
4.09295	1.00232
5.56222	1.28074
6.4018	1.41995
7.76612	1.69838
8.92054	1.86543
10.1799	2.03248
11.0195	2.17169
11.964	2.3109
13.6432	2.5058
14.5877	2.61717
15.5322	2.72854
16.5817	2.81206
18.2609	3.00696
19.2054	3.09049
20.2549	3.17401
21.1994	3.25754
22.2489	3.34107
22.7736	3.39675
23.8231	3.48028
24.7676	3.53596
25.8171	3.61949
26.7616	3.70302
27.8111	3.7587
28.8606	3.81439
29.8051	3.89791
30.8546	3.9536
31.904	4.00928
32.8486	4.09281
33.7931	4.14849
34.8426	4.20418
35.7871	4.25986
36.8366	4.31555
37.8861	4.34339
38.8306	4.39907
39.8801	4.45476
40.8246	4.51044
41.8741	4.56613
42.9235	4.59397
43.8681	4.64965
44.9175	4.70534
45.8621	4.73318
46.9115	4.78886
47.961	4.81671
48.9055	4.87239
49.955	4.90023
51.0045	4.95592
51.949	4.98376
52.9985	5.0116
54.048	5.06729
54.9925	5.09513
56.042	5.12297
57.0915	5.15081
58.036	5.2065
59.0855	5.23434
60.1349	5.26218
61.1844	5.29002
62.2339	5.34571
63.2834	5.37355
64.3328	5.40139
65.2774	5.42923
66.3268	5.45708
67.3763	5.48492
68.4258	5.51276
69.3703	5.5406
