Adsorption isotherm of Hydrogen on IRMOF-1
DOI: 10.1016/j.susc.2008.10.054
Adsorbate Hydrogen: InChIKey UFHFLCQGNIYNRP-UHFFFAOYSA-N
Temperature: 40 K
Tabular data in the source: 0
pressure (bar)	uptake (wt%)
0.314843	0.314843
0.41979	7.48956
1.04948	8.65893
2.30885	9.52204
3.04348	9.71694
3.88306	9.88399
4.82759	9.99536
5.77211	10.1067
6.82159	10.1624
11.4393	10.3295
12.4888	10.3295
13.5382	10.3573
14.5877	10.3573
15.6372	10.3852
16.6867	10.3852
17.7361	10.3852
18.6807	10.413
19.7301	10.413
20.7796	10.413
21.8291	10.4408
22.8786	10.4408
23.928	10.4408
24.9775	10.4408
26.027	10.4408
27.0765	10.4408
28.1259	10.4687
29.1754	10.4687
30.2249	10.4687
31.2744	10.4687
32.3238	10.4687
33.3733	10.4687
34.4228	10.4687
35.4723	10.4687
36.5217	10.4687
37.5712	10.4687
38.6207	10.4687
39.6702	10.4965
40.7196	10.4965
41.7691	10.4965
42.8186	10.4965
43.8681	10.4965
44.9175	10.4965
45.967	10.4965
47.0165	10.4965
48.066	10.4965
49.1154	10.4965
50.1649	10.4965
51.2144	10.4965
52.2639	10.4965
53.3133	10.4965
54.3628	10.4965
55.4123	10.4965
56.4618	10.4965
57.5112	10.4965
58.5607	10.4965
59.6102	10.4965
60.6597	10.4965
61.7091	10.4965
62.7586	10.4965
63.7031	10.5244
64.7526	10.5244
65.8021	10.5244
66.8516	10.5244
67.901	10.5244
68.9505	10.5244
