Adsorption isotherm of Hydrogen on IRMOF-1
DOI: 10.1016/j.susc.2008.10.054
Adsorbate Hydrogen: InChIKey UFHFLCQGNIYNRP-UHFFFAOYSA-N
Temperature: 125 K
Tabular data in the source: 0
pressure (bar)	uptake (wt%)
0.83958	0.0556845
2.41379	0.222738
4.82759	0.417633
6.08696	0.640371
6.92654	0.668213
8.29085	0.835267
9.13043	0.835267
10.1799	0.918794
11.5442	1.11369
12.2789	1.08585
13.3283	1.16937
14.3778	1.22506
15.8471	1.39211
16.8966	1.41995
17.8411	1.47564
18.8906	1.55916
19.94	1.61485
21.1994	1.69838
22.2489	1.75406
23.1934	1.80974
24.2429	1.86543
25.1874	1.92111
26.4468	1.94896
27.2864	2.03248
28.3358	2.08817
29.3853	2.14385
30.3298	2.19954
31.6942	2.28306
32.7436	2.3109
33.6882	2.36659
34.7376	2.42227
35.7871	2.45012
36.7316	2.5058
37.7811	2.56148
38.096	2.39443
38.5157	2.58933
39.5652	2.64501
40.5097	2.67285
41.5592	2.72854
42.6087	2.75638
43.5532	2.81206
44.6027	2.83991
45.5472	2.89559
46.5967	2.92343
47.6462	2.95128
48.5907	3.00696
49.6402	3.0348
50.6897	3.06265
51.6342	3.11833
52.6837	3.14617
53.7331	3.17401
54.7826	3.20186
55.7271	3.25754
56.7766	3.28538
57.8261	3.31323
58.8756	3.34107
59.8201	3.39675
60.8696	3.42459
61.919	3.45244
62.8636	3.48028
63.913	3.50812
64.9625	3.53596
66.012	3.56381
66.9565	3.59165
68.006	3.61949
69.0555	3.64733
