Adsorption isotherm of Hydrogen on IRMOF-1
DOI: 10.1016/j.susc.2008.10.054
Adsorbate Hydrogen: InChIKey UFHFLCQGNIYNRP-UHFFFAOYSA-N
Temperature: 125 K
Tabular data in the source: 0
pressure (bar)	uptake (wt%)
1.46707	0.165886
3.45808	0.359198
5.13473	0.524918
6.07784	0.663379
7.02096	0.690471
8.27844	0.884366
9.01198	0.85594
10.0599	0.938633
11.5269	1.1602
12.2605	1.07609
13.2036	1.15887
14.2515	1.21372
15.1946	1.2965
15.8234	1.43521
16.6617	1.37886
17.6048	1.43379
18.6527	1.48864
19.5958	1.54358
21.1677	1.62585
22.2156	1.6807
23.1587	1.73564
24.2066	1.79049
25.1497	1.84542
26.4072	1.98363
27.2455	1.92728
28.1886	1.98222
29.2365	2.00923
30.1796	2.06416
31.6467	2.11868
32.6946	2.14569
33.6377	2.20062
34.6856	2.22763
35.7335	2.25464
36.6766	2.30957
38.0389	2.39201
39.0868	2.39118
40.0299	2.41827
41.0778	2.44528
42.1257	2.47229
43.1737	2.4993
44.4311	2.52614
45.479	2.58099
46.4222	2.60808
47.4701	2.63509
48.518	2.6621
49.5659	2.66127
50.6138	2.66043
51.5569	2.71537
52.6048	2.74238
53.5479	2.76947
54.5958	2.79648
56.3772	2.73938
57.2156	2.85008
58.2635	2.84924
62.6647	2.95711
63.7126	2.95628
64.7605	2.98329
65.8084	2.98245
66.8563	3.00946
67.7994	3.03655
68.8473	3.00788
