Adsorption isotherm of Hydrogen on IRMOF-1
DOI: 10.1016/j.susc.2008.10.054
Adsorbate Hydrogen: InChIKey UFHFLCQGNIYNRP-UHFFFAOYSA-N
Temperature: 60 K
Tabular data in the source: 0
pressure (bar)	uptake (wt%)
0.419162	2.08783
0.523952	1.53091
0.733533	2.64443
1.0479	3.14534
1.15269	3.39583
1.57186	3.89666
1.67665	4.11932
1.99102	4.42533
2.41018	4.73126
2.61976	5.0652
3.14371	5.37105
3.66766	5.62121
4.82036	6.06577
6.6018	6.53767
8.90719	6.86994
12.0509	7.14587
16.6617	7.33709
22.006	7.44421
26.9311	7.30108
33.5329	7.18446
39.8204	7.04025
45.5838	6.78508
51.6617	6.50183
