Adsorption isotherm of Hydrogen on IRMOF-1
DOI: 10.1016/j.susc.2008.10.054
Adsorbate Hydrogen: InChIKey UFHFLCQGNIYNRP-UHFFFAOYSA-N
Temperature: 50 K
Tabular data in the source: 0
pressure (bar)	uptake (wt%)
0.209581	3.36874
0.314371	3.11808
0.628743	4.17583
0.733533	4.56554
0.838323	5.3172
1.0479	5.90172
1.25749	6.37487
1.36228	6.40263
1.67665	6.76433
2.09581	7.07026
2.41018	7.29275
3.03892	7.54283
3.66766	7.79291
4.82036	8.07041
6.49701	8.3475
9.22156	8.54023
12.6796	8.56532
17.3952	8.53373
22.4251	8.2513
27.3503	7.9968
