Adsorption isotherm of Hydrogen on IRMOF-1
DOI: 10.1016/j.susc.2008.10.054
Adsorbate Hydrogen: InChIKey UFHFLCQGNIYNRP-UHFFFAOYSA-N
Temperature: 77 K
Tabular data in the source: 0
pressure (bar)	uptake (wt%)
0.943114	1.36352
1.36228	1.53024
1.57186	1.72497
1.88623	1.94746
2.51497	2.19754
2.93413	2.44778
3.56287	2.69786
3.98204	2.94811
5.4491	3.39242
7.23054	3.92
9.95509	4.41899
13.3084	4.8618
18.3383	5.27544
24.1018	5.52143
28.9222	5.62896
36.0479	5.70682
42.7545	5.70149
48.4132	5.69699
54.8054	5.60837
59.2066	5.57703
60.988	5.51993
61.8263	5.51926
