Adsorption isotherm of Hydrogen on IRMOF-1
DOI: 10.1016/j.susc.2008.10.054
Adsorbate Hydrogen: InChIKey UFHFLCQGNIYNRP-UHFFFAOYSA-N
Temperature: 60 K
Tabular data in the source: 0
pressure (bar)	uptake (wt%)
0.41979	1.92111
0.944528	3.14617
1.36432	3.9536
2.09895	4.73318
3.25337	5.45708
4.72264	5.95824
5.66717	6.29234
7.13643	6.65429
7.87106	6.82135
9.02549	7.04408
9.86507	7.21114
10.8096	7.35035
11.7541	7.46172
12.6987	7.60093
13.6432	7.7123
14.5877	7.82367
15.5322	7.93503
16.5817	8.01856
17.5262	8.10209
18.5757	8.18561
19.5202	8.26914
20.5697	8.32483
21.5142	8.40835
22.6687	8.46404
23.6132	8.51972
24.6627	8.57541
25.7121	8.63109
26.6567	8.68677
27.7061	8.74246
28.6507	8.7703
29.7001	8.82599
30.7496	8.85383
31.6942	8.90951
32.7436	8.93735
33.7931	8.9652
34.7376	9.02088
35.7871	9.04872
36.8366	9.07657
37.8861	9.10441
38.8306	9.13225
39.8801	9.16009
40.9295	9.18794
41.979	9.21578
42.9235	9.24362
43.973	9.27146
45.0225	9.2993
46.072	9.32715
47.1214	9.32715
48.066	9.35499
49.1154	9.38283
50.1649	9.41067
51.2144	9.41067
52.2639	9.43852
53.3133	9.43852
54.3628	9.46636
55.3073	9.4942
56.3568	9.4942
57.4063	9.52204
58.4558	9.52204
59.5052	9.54988
60.5547	9.54988
61.6042	9.57773
62.6537	9.57773
63.5982	9.60557
64.6477	9.60557
65.6972	9.63341
66.7466	9.63341
67.7961	9.66125
68.8456	9.66125
69.8951	9.6891
