Adsorption isotherm of Hydrogen on IRMOF-1
DOI: 10.1016/j.susc.2008.10.054
Adsorbate Hydrogen: InChIKey UFHFLCQGNIYNRP-UHFFFAOYSA-N
Temperature: 100 K
Tabular data in the source: 0
pressure (bar)	uptake (wt%)
0.943114	0.305514
1.25749	0.472318
1.36228	0.555761
1.88623	0.638871
2.41018	0.777665
3.03892	0.916376
3.66766	1.02724
5.02994	1.30458
7.12575	1.69271
9.53593	2.05274
12.994	2.43978
17.9192	2.88134
22.8443	3.21153
28.0838	3.45794
34.5808	3.70335
40.9731	3.83748
47.1557	3.97177
53.1287	4.0227
58.3683	4.04638
60.7784	4.04446
61.7216	4.04371
