Adsorption isotherm of Hydrogen on IRMOF-1
DOI: 10.1016/j.susc.2008.10.054
Adsorbate Hydrogen: InChIKey UFHFLCQGNIYNRP-UHFFFAOYSA-N
Temperature: 40 K
Tabular data in the source: 0
pressure (bar)	uptake (wt%)
0.209581	6.15297
0.419162	7.48923
0.523952	6.70956
0.628743	7.76748
0.733533	7.93445
0.838323	8.12926
0.943114	8.51897
1.25749	8.71362
1.78144	9.04731
2.61976	9.29722
3.66766	9.49128
4.92515	9.57381
7.23054	9.59982
9.95509	9.4306
13.4132	9.17726
