Adsorption isotherm of Hydrogen on IRMOF-1
DOI: 10.1016/j.susc.2008.10.054
Adsorbate Hydrogen: InChIKey UFHFLCQGNIYNRP-UHFFFAOYSA-N
Temperature: 77 K
Tabular data in the source: 0
pressure (bar)	uptake (wt%)
0.314843	0.334107
0.734633	0.807425
1.25937	1.19722
1.78411	1.55916
2.83358	2.33875
4.30285	2.95128
5.87706	3.48028
6.61169	3.67517
7.76612	3.98144
8.50075	4.17633
9.34033	4.34339
10.3898	4.53828
11.2294	4.67749
12.1739	4.81671
13.6432	5.03944
14.5877	5.15081
15.5322	5.26218
16.4768	5.37355
17.5262	5.48492
18.4708	5.56845
19.4153	5.67981
20.4648	5.76334
21.4093	5.84687
22.4588	5.93039
23.4033	6.01392
24.4528	6.09745
25.3973	6.15313
26.4468	6.23666
27.3913	6.29234
28.4408	6.37587
29.3853	6.43155
30.4348	6.48724
31.3793	6.54292
32.4288	6.59861
33.3733	6.65429
34.4228	6.70998
35.3673	6.76566
36.4168	6.7935
37.4663	6.84919
38.4108	6.90487
40.5097	6.9884
41.5592	7.04408
42.5037	7.07193
43.5532	7.12761
44.6027	7.15545
45.5472	7.21114
46.5967	7.23898
47.6462	7.26682
48.5907	7.32251
49.6402	7.35035
50.6897	7.37819
51.7391	7.40603
52.6837	7.46172
53.7331	7.48956
54.7826	7.5174
55.7271	7.54524
56.7766	7.57309
57.8261	7.60093
58.8756	7.62877
59.8201	7.65661
60.8696	7.68445
61.919	7.7123
62.9685	7.74014
64.018	7.76798
64.9625	7.79582
66.012	7.82367
67.0615	7.85151
68.1109	7.87935
69.0555	7.90719
