Adsorption isotherm of Hydrogen on IRMOF-1
DOI: 10.1016/j.susc.2008.10.054
Adsorbate Hydrogen: InChIKey UFHFLCQGNIYNRP-UHFFFAOYSA-N
Temperature: 40 K
Tabular data in the source: 0
pressure (bar)	uptake (wt%)
0.209581	5.40123
0.314371	6.8211
0.523952	7.51698
0.943114	8.6025
1.99102	9.29772
3.56287	9.60273
5.13473	9.65717
6.70659	9.62808
7.75449	9.57156
8.6976	9.48728
10.5838	9.29088
11.5269	9.20661
12.4701	9.09449
13.7275	8.92643
14.6707	8.81432
15.6138	8.67435
17.6048	8.33866
18.4431	8.17094
19.2814	8.00322
20.015	7.83559
20.8533	7.66787
22.4251	7.27682
23.2635	7.08126
23.997	6.88578
24.7305	6.71815
25.4641	6.52267
26.1976	6.32719
27.0359	6.13163
27.7695	5.93615
29.6557	5.54485
30.494	5.37713
31.3323	5.23726
32.2754	5.06945
33.2186	4.92949
34.0569	4.81746
35	4.67749
35.9431	4.56538
36.991	4.45317
37.9341	4.3689
38.8772	4.25678
39.9251	4.17242
40.8683	4.08814
42.6497	3.94751
43.5928	3.86323
44.6407	3.80672
45.6886	3.72236
46.6317	3.66592
47.6796	3.6094
48.7275	3.55288
49.6707	3.46861
50.7186	3.43993
51.6617	3.3835
52.7096	3.32698
53.6527	3.27054
54.7006	3.21403
55.7485	3.18535
56.6916	3.12892
57.7395	3.0724
58.6826	3.04381
59.7305	2.98729
62.6647	2.87358
63.7126	2.84491
64.6557	2.81632
65.7036	2.7598
66.7515	2.73112
67.7994	2.70245
68.7425	2.64601
69.7904	2.61734
