Adsorption isotherm of Hydrogen on IRMOF-1
DOI: 10.1016/j.susc.2008.10.054
Adsorbate Hydrogen: InChIKey UFHFLCQGNIYNRP-UHFFFAOYSA-N
Temperature: 200 K
Tabular data in the source: 0
pressure (bar)	uptake (wt%)
3.04348	0.0556845
5.87706	0.111369
7.97601	0.139211
10.7046	0.222738
13.8531	0.278422
16.6867	0.334107
17.8411	0.361949
19.3103	0.361949
22.9835	0.473318
24.7676	0.50116
26.8666	0.529002
29.8051	0.584687
31.2744	0.612529
32.3238	0.640371
34.3178	0.696056
37.5712	0.723898
39.8801	0.779582
41.7691	0.807425
42.8186	0.863109
44.8126	0.863109
45.7571	0.890951
46.8066	0.890951
47.8561	0.918794
48.9055	0.946636
49.8501	0.946636
51.0045	0.974478
52.054	1.00232
53.1034	1.00232
54.048	1.03016
55.0975	1.03016
55.937	1.03016
57.0915	1.08585
58.1409	1.08585
59.1904	1.11369
60.2399	1.11369
61.2894	1.14153
62.2339	1.14153
63.2834	1.16937
64.3328	1.19722
65.3823	1.19722
66.4318	1.22506
67.4813	1.22506
68.5307	1.2529
69.4753	1.28074
