Adsorption isotherm of Hydrogen on IRMOF-1
DOI: 10.1016/j.susc.2008.10.054
Adsorbate Hydrogen: InChIKey UFHFLCQGNIYNRP-UHFFFAOYSA-N
Temperature: 50 K
Tabular data in the source: 0
pressure (bar)	uptake (wt%)
0.41979	4.00928
0.83958	5.2065
1.46927	6.29234
2.41379	7.09977
2.83358	7.35035
3.67316	7.76798
4.51274	8.0464
5.14243	8.2413
5.87706	8.40835
6.61169	8.57541
7.45127	8.74246
8.3958	8.88167
9.34033	8.99304
10.2849	9.10441
11.2294	9.21578
12.2789	9.2993
13.2234	9.35499
14.2729	9.43852
15.2174	9.4942
16.2669	9.54988
17.2114	9.60557
18.2609	9.63341
19.3103	9.6891
20.2549	9.71694
21.3043	9.77262
22.3538	9.80046
23.2984	9.82831
24.3478	9.85615
25.3973	9.88399
26.4468	9.88399
27.4963	9.91183
28.4408	9.93968
29.4903	9.96752
30.5397	9.96752
31.5892	9.99536
32.6387	10.0232
33.6882	10.0232
34.6327	10.051
35.6822	10.051
36.7316	10.0789
37.7811	10.0789
38.8306	10.0789
39.8801	10.1067
40.9295	10.1067
41.979	10.1346
43.0285	10.1346
44.078	10.1346
45.1274	10.1624
46.1769	10.1624
47.2264	10.1624
48.1709	10.1624
49.2204	10.1903
50.2699	10.1903
51.3193	10.1903
52.3688	10.2181
53.4183	10.2181
54.4678	10.2181
55.5172	10.2181
56.5667	10.2181
57.6162	10.2459
58.6657	10.2459
59.7151	10.2459
60.7646	10.2459
61.8141	10.2459
62.8636	10.2459
63.913	10.2738
64.9625	10.2738
66.012	10.2738
67.0615	10.2738
68.1109	10.2738
69.1604	10.2738
