Adsorption isotherm of Carbon Dioxide on MNS-Activated Carbon B
DOI: 10.1016/j.ijggc.2013.08.013
Adsorbate Carbon Dioxide: InChIKey CURLTUGMZLYLDI-UHFFFAOYSA-N
Temperature: 273 K
Tabular data in the source: 0
pressure (bar)	uptake (mmol/g)
0.0133045	0.316008
0.042131	0.755079
0.0665227	1.14145
0.119741	1.63355
0.170741	1.98526
0.190698	2.1084
0.243916	2.33735
0.306004	2.65416
0.35257	2.86545
0.392484	2.97137
0.436832	3.0949
0.494485	3.27129
0.552138	3.41259
0.618661	3.57158
0.711792	3.74855
0.802707	3.90794
0.858142	3.97903
0.904708	4.04997
0.964579	4.10359
0.98897	4.13907
1.0178	4.17464
1.06658	4.21053
