Adsorption isotherm of Carbon Dioxide on Carbon Fiber Composite C
DOI: 10.1016/j.ijggc.2013.08.013
Adsorbate Carbon Dioxide: InChIKey CURLTUGMZLYLDI-UHFFFAOYSA-N
Temperature: 273 K
Tabular data in the source: 0
pressure (bar)	uptake (mmol/g)
0.00886969	0.122953
0.015522	0.298501
0.0288265	0.474158
0.0465659	0.737608
0.0598704	0.895722
0.0753923	1.03633
0.0931317	1.19451
0.115306	1.42295
0.133045	1.54605
0.166307	1.79221
0.199568	2.03837
0.237264	2.24952
0.286047	2.53102
0.317091	2.70697
0.35257	2.88299
0.419093	3.23496
0.49005	3.49929
0.554356	3.79859
0.620878	4.02776
0.64527	4.11588
0.680749	4.23927
0.753923	4.48609
0.818229	4.68013
0.84262	4.7507
0.878099	4.87409
0.953491	5.08586
1.01336	5.26228
1.06436	5.40347
