Adsorption isotherm of Carbon Dioxide on Carbon Fiber Composite C
DOI: 10.1016/j.ijggc.2013.08.013
Adsorbate Carbon Dioxide: InChIKey CURLTUGMZLYLDI-UHFFFAOYSA-N
Temperature: 298 K
Tabular data in the source: 0
pressure (bar)	uptake (mmol/g)
0.0110378	0.0415589
0.0462983	0.270381
0.0815785	0.467953
0.116872	0.644692
0.147766	0.779807
0.189704	0.946064
0.236062	1.12269
0.271388	1.24735
0.300096	1.34082
0.370768	1.55888
0.401688	1.65233
0.445866	1.7769
0.483418	1.8807
0.520984	1.96366
0.554124	2.04667
0.582844	2.11931
0.62041	2.20227
0.662394	2.29561
0.69996	2.37858
0.730893	2.4512
0.766253	2.52377
0.806031	2.60671
0.87455	2.73104
0.914341	2.79315
0.951913	2.8657
1.02264	3.00043
