Adsorption isotherm of Carbon Dioxide on MNS-Activated Carbon B
DOI: 10.1016/j.ijggc.2013.08.013
Adsorbate Carbon Dioxide: InChIKey CURLTUGMZLYLDI-UHFFFAOYSA-N
Temperature: 298 K
Tabular data in the source: 0
pressure (bar)	uptake (mmol/g)
0.0110049	0.0936425
0.0219834	0.228952
0.0329752	0.343428
0.0395544	0.437114
0.0527721	0.530735
0.0681961	0.634751
0.0836069	0.7596
0.107869	0.884363
0.1233	0.977962
0.140963	1.04029
0.1586	1.14428
0.178462	1.22742
0.200538	1.31054
0.231452	1.41441
0.255721	1.52875
0.293266	1.64297
0.328606	1.74679
0.375003	1.86092
0.41918	1.98549
0.476635	2.10993
0.507569	2.18254
0.540715	2.25514
0.618079	2.3898
0.706486	2.5556
0.746285	2.60729
0.792701	2.69017
0.839131	2.75222
0.896612	2.83499
0.958519	2.91772
0.989479	2.94867
1.01823	2.97964
