Adsorption isotherm of Carbon Dioxide on PR-950-15
DOI: 10.1016/j.ijggc.2013.08.013
Adsorbate Carbon Dioxide: InChIKey CURLTUGMZLYLDI-UHFFFAOYSA-N
Temperature: 298 K
Tabular data in the source: 0
pressure (bar)	uptake (mmol/g)
0.0110669	0.0746269
0.0265274	0.216418
0.0442345	0.335821
0.0664148	0.432836
0.0774751	0.514925
0.108549	0.626866
0.130736	0.716418
0.15959	0.820896
0.190683	0.910448
0.224004	1
0.252878	1.08209
0.286218	1.14925
0.310665	1.20149
0.341779	1.26866
0.375126	1.32836
0.397352	1.37313
0.430706	1.42537
0.459613	1.47015
0.488513	1.52239
0.5152	1.5597
0.548554	1.61194
0.577467	1.64925
0.601934	1.6791
0.635295	1.72388
0.664215	1.75373
0.688682	1.78358
0.728722	1.82836
0.757629	1.87313
0.784329	1.89552
0.822149	1.93284
0.84439	1.96269
0.87777	1.98507
0.940057	2.05224
1.01126	2.11194
