Adsorption isotherm of Carbon Dioxide on Carbon Composite C1-30
DOI: 10.1016/j.ijggc.2013.08.013
Adsorbate Carbon Dioxide: InChIKey CURLTUGMZLYLDI-UHFFFAOYSA-N
Temperature: 298 K
Tabular data in the source: 0
pressure (bar)	uptake (mmol/g)
0.0111801	0.107463
0.0178881	0.179104
0.0268322	0.322388
0.0514283	0.501493
0.0827325	0.734328
0.105093	0.859701
0.134161	1.0209
0.174409	1.2
0.225837	1.41493
0.28621	1.64776
0.368942	1.91642
0.482979	2.23881
0.53888	2.4
0.699873	2.72239
0.809437	2.95522
0.901114	3.11642
0.963722	3.24179
1.02186	3.31343
