Adsorption isotherm of Carbon Dioxide on PR-950-0
DOI: 10.1016/j.ijggc.2013.08.013
Adsorbate Carbon Dioxide: InChIKey CURLTUGMZLYLDI-UHFFFAOYSA-N
Temperature: 298 K
Tabular data in the source: 0
pressure (bar)	uptake (mmol/g)
0.0110669	0.0746269
0.0331808	0.246269
0.0708549	0.447761
0.124102	0.664179
0.157403	0.776119
0.195143	0.902985
0.228464	0.992537
0.268464	1.08209
0.308478	1.15672
0.344032	1.23881
0.399612	1.33582
0.49746	1.47761
0.528587	1.52985
0.584194	1.59701
0.637581	1.65672
0.677621	1.70149
0.726562	1.75373
0.771056	1.79851
0.817776	1.84328
0.871176	1.88806
0.90899	1.93284
0.964617	1.97761
1.0158	2.01493
