Adsorption isotherm of Nitrogen on Carbon Composite C1-30
DOI: 10.1016/j.ijggc.2013.08.013
Adsorbate Nitrogen: InChIKey IJGRMHOSHXDMSA-UHFFFAOYSA-N
Temperature: 273 K
Tabular data in the source: 0
pressure (bar)	uptake (mmol/g)
0.0156521	0.0537313
0.0559004	0.0895522
0.114037	0.143284
0.136397	0.179104
0.174409	0.197015
0.214657	0.250746
0.268322	0.304478
0.321986	0.358209
0.382358	0.41194
0.442731	0.447761
0.503103	0.519403
0.567948	0.573134
0.62832	0.608955
0.697637	0.680597
0.775897	0.716418
0.851922	0.752239
0.932418	0.841791
0.974902	0.859701
1.01739	0.895522
