Adsorption isotherm of Carbon Dioxide on MNS-Activated Carbon A
DOI: 10.1016/j.ijggc.2013.08.013
Adsorbate Carbon Dioxide: InChIKey CURLTUGMZLYLDI-UHFFFAOYSA-N
Temperature: 273 K
Tabular data in the source: 0
pressure (bar)	uptake (mmol/g)
0.0133045	0.298464
0.0310439	0.684721
0.042131	0.860342
0.0598704	1.07116
0.0731749	1.24682
0.0931317	1.44013
0.104219	1.54557
0.119741	1.66864
0.153002	1.9148
0.190698	2.17858
0.212873	2.31929
0.241699	2.46012
0.270525	2.5834
0.306004	2.75942
0.341483	2.9179
0.381397	3.05891
0.434615	3.25276
0.496703	3.44677
0.549921	3.58799
0.620878	3.7646
0.700705	3.97644
0.78275	4.11814
0.829316	4.22417
0.880317	4.31273
0.93797	4.41894
0.964579	4.47201
0.993405	4.54266
1.03554	4.61352
1.05993	4.66656
