Adsorption isotherm of Carbon Dioxide on PR-950-60
DOI: 10.1016/j.ijggc.2013.08.013
Adsorbate Carbon Dioxide: InChIKey CURLTUGMZLYLDI-UHFFFAOYSA-N
Temperature: 298 K
Tabular data in the source: 0
pressure (bar)	uptake (mmol/g)
0.00885354	0.0597015
0.0243472	0.164179
0.0398609	0.246269
0.0598146	0.343284
0.0797816	0.425373
0.110842	0.552239
0.133036	0.634328
0.157456	0.716418
0.179643	0.80597
0.204077	0.873134
0.232964	0.940299
0.259637	0.992537
0.281838	1.06716
0.310738	1.1194
0.332952	1.1791
0.361859	1.22388
0.388532	1.27612
0.415206	1.32836
0.441886	1.37313
0.468566	1.41791
0.49524	1.47015
0.51746	1.52239
0.544147	1.5597
0.568607	1.59701
0.610861	1.65672
0.621988	1.66418
0.650901	1.70149
0.659788	1.72388
0.675362	1.73881
0.697595	1.77612
0.710948	1.78358
0.737642	1.81343
0.753209	1.83582
0.777676	1.86567
0.815483	1.91791
0.83995	1.94776
0.871103	1.97015
0.900017	2.00746
0.93339	2.03731
0.962304	2.07463
0.982324	2.09701
1.01124	2.12687
