Adsorption isotherm of Carbon Dioxide on Carbon Composite C1-30
DOI: 10.1016/j.ijggc.2013.08.013
Adsorbate Carbon Dioxide: InChIKey CURLTUGMZLYLDI-UHFFFAOYSA-N
Temperature: 273 K
Tabular data in the source: 0
pressure (bar)	uptake (mmol/g)
0.00894406	0.322388
0.0268322	0.734328
0.0447203	1.09254
0.0693165	1.41493
0.0894406	1.64776
0.107329	1.80896
0.129689	2.00597
0.145341	2.14925
0.163229	2.25672
0.178881	2.4
0.228073	2.72239
0.27503	3.00896
0.29739	3.11642
0.33093	3.29552
0.389067	3.6
0.458383	3.85075
0.525463	4.10149
0.588072	4.31642
0.621612	4.44179
0.655152	4.56716
0.719997	4.72836
0.784841	4.92537
0.818381	5.01493
0.851922	5.10448
0.916766	5.28358
0.950306	5.3194
0.98161	5.39104
1.01515	5.4806
