Adsorption isotherm of Carbon Dioxide on MNS-Activated Carbon A
DOI: 10.1016/j.ijggc.2013.08.013
Adsorbate Carbon Dioxide: InChIKey CURLTUGMZLYLDI-UHFFFAOYSA-N
Temperature: 298 K
Tabular data in the source: 0
pressure (bar)	uptake (mmol/g)
0.00657923	0.0936857
0.0241568	0.291431
0.0351485	0.405907
0.0571649	0.582775
0.0770013	0.707581
0.0946184	0.842826
0.12328	1.00921
0.136504	1.09242
0.154148	1.18599
0.178429	1.27951
0.200492	1.38346
0.22698	1.48737
0.257887	1.60165
0.291001	1.72632
0.326327	1.85098
0.370505	1.97555
0.419095	2.12091
0.474323	2.2662
0.50747	2.33879
0.545035	2.42176
0.615741	2.58774
0.701929	2.76398
0.741721	2.82609
0.790357	2.89853
0.84118	3.01262
0.894241	3.08502
0.958348	3.18856
0.987095	3.21953
1.01583	3.27133
