Adsorption isotherm of Carbon Dioxide on PR-950-30
DOI: 10.1016/j.ijggc.2013.08.013
Adsorbate Carbon Dioxide: InChIKey CURLTUGMZLYLDI-UHFFFAOYSA-N
Temperature: 298 K
Tabular data in the source: 0
pressure (bar)	uptake (mmol/g)
0.00660692	0.0820896
0.042041	0.298507
0.0686482	0.425373
0.0997087	0.552239
0.128542	0.679104
0.155183	0.768657
0.181823	0.858209
0.208477	0.932836
0.237357	1.00746
0.268471	1.07463
0.297351	1.14925
0.335138	1.22388
0.372932	1.29104
0.412959	1.35075
0.448539	1.40299
0.481886	1.46269
0.515227	1.52985
0.54414	1.56716
0.573047	1.61194
0.604181	1.65672
0.637548	1.69403
0.670902	1.74627
0.719849	1.79104
0.762102	1.85075
0.806589	1.90299
0.853303	1.95522
0.90447	2.00746
0.955637	2.0597
0.993457	2.09701
1.01571	2.11194
