Adsorption isotherm of Nitrogen on Carbon Composite C1-30
DOI: 10.1016/j.ijggc.2013.08.013
Adsorbate Nitrogen: InChIKey IJGRMHOSHXDMSA-UHFFFAOYSA-N
Temperature: 298 K
Tabular data in the source: 0
pressure (bar)	uptake (mmol/g)
0.0223601	0.0179104
0.0581364	0.0537313
0.0849686	0.0537313
0.116273	0.0895522
0.136397	0.0895522
0.176645	0.0895522
0.216893	0.143284
0.270558	0.161194
0.31975	0.197015
0.384595	0.214925
0.442731	0.232836
0.505339	0.286567
0.565712	0.304478
0.630556	0.340299
0.699873	0.376119
0.775897	0.41194
0.856394	0.447761
0.934654	0.483582
0.972666	0.501493
1.01515	0.501493
1.02186	0.519403
