Adsorption isotherm of Carbon Dioxide on PR-C
DOI: 10.1016/j.ijggc.2013.08.013
Adsorbate Carbon Dioxide: InChIKey CURLTUGMZLYLDI-UHFFFAOYSA-N
Temperature: 298 K
Tabular data in the source: 0
pressure (bar)	uptake (mmol/g)
0.0155136	0.0820896
0.0443209	0.238806
0.0642812	0.328358
0.0909083	0.432836
0.124215	0.537313
0.161976	0.641791
0.20419	0.746269
0.25307	0.865672
0.308638	0.977612
0.359778	1.0597
0.410919	1.14179
0.466512	1.22388
0.531013	1.30597
0.582167	1.37313
0.640014	1.42537
0.691174	1.48507
0.742341	1.53731
0.795735	1.58955
0.855809	1.64179
0.922569	1.68657
0.97597	1.73134
1.01824	1.76866
