Adsorption isotherm of Nitrogen on MOF-5_DMF
DOI: 10.1016/S1003-6326(14)63521-4
Adsorbate Nitrogen: InChIKey IJGRMHOSHXDMSA-UHFFFAOYSA-N
Temperature: 77 K
Tabular data in the source: 0
pressure (bar)	uptake (cm3(STP)/g)
0.0314559	550.077
0.0493127	766.788
0.0998781	805.007
0.198431	857.629
0.24375	872.026
0.273045	888.764
0.297047	893.585
0.339697	907.975
0.38772	912.855
0.43843	912.979
0.486427	925.002
0.585134	937.148
0.683887	937.39
0.777292	940
0.876018	947.385
0.972093	950.001
