Adsorption isotherm of Nitrogen on MOF-5_NMP-N
DOI: 10.1016/S1003-6326(14)63521-4
Adsorbate Nitrogen: InChIKey IJGRMHOSHXDMSA-UHFFFAOYSA-N
Temperature: 77 K
Tabular data in the source: 0
pressure (bar)	uptake (cm3(STP)/g)
0.0290956	469.119
0.0442016	707.251
0.0947217	757.375
0.195953	807.623
0.241253	826.782
0.275931	831.629
0.291909	841.192
0.342583	850.84
0.387938	855.713
0.438603	867.742
0.486636	870.24
0.580014	879.993
0.68139	892.146
0.774796	894.756
0.873512	904.522
0.972249	909.526
