Adsorption isotherm of Nitrogen on MOF-5_NMP-D
DOI: 10.1016/S1003-6326(14)63521-4
Adsorbate Nitrogen: InChIKey IJGRMHOSHXDMSA-UHFFFAOYSA-N
Temperature: 77 K
Tabular data in the source: 0
pressure (bar)	uptake (cm3(STP)/g)
0.0293316	407.215
0.0498029	638.217
0.0950032	683.566
0.193556	736.189
0.244212	750.599
0.273553	755.432
0.29485	769.77
0.340186	779.405
0.385551	781.897
0.441572	789.177
0.486881	805.955
0.580277	810.946
0.678993	820.712
0.777719	828.096
0.879104	837.869
0.977854	838.111
