Adsorption isotherm of Nitrogen on MOF-5_NMP
DOI: 10.1016/S1003-6326(14)63521-4
Adsorbate Nitrogen: InChIKey IJGRMHOSHXDMSA-UHFFFAOYSA-N
Temperature: 77 K
Tabular data in the source: 0
pressure (bar)	uptake (cm3(STP)/g)
0.0311654	626.267
0.0489314	866.787
0.0967734	919.285
0.195344	967.145
0.237993	981.536
0.272654	991.144
0.291292	1003.09
0.339306	1010.36
0.389989	1017.62
0.438004	1024.88
0.486001	1036.91
0.579379	1046.66
0.680763	1056.43
0.776829	1061.43
0.870225	1066.42
0.97698	1069.06
