Adsorption isotherm of Nitrogen on MIL-101
DOI: 10.1039/C2an35429b
Adsorbate Nitrogen: InChIKey IJGRMHOSHXDMSA-UHFFFAOYSA-N
Temperature: 77 K
Tabular data in the source: 0
pressure (bar)	uptake (cm3(STP)/g)
0.0991347	642.553
0.152951	712.766
0.198269	810.638
0.252085	827.66
0.297404	836.17
0.348388	846.809
0.405036	855.319
0.450355	861.702
0.504171	870.213
0.557987	874.468
0.606138	880.851
0.659954	885.106
0.710937	889.362
0.759089	897.872
0.804407	902.128
0.855391	910.638
0.914872	925.532
0.954525	938.298
