Adsorption isotherm of Methylene blue, Auramine-O on ZnO: Au-NRs-AC
DOI: 10.1016/j.ecoenv.2017.04.011
Article source: Figure 3
Adsorbate Methylene blue: InChIKey CXKWCBBOMKCUKX-UHFFFAOYSA-M
Adsorbate Auramine-O: InChIKey KSCQDDRPFHTIRL-UHFFFAOYSA-N
Kind: experiment
Temperature: 298 K
Tabular data in the source: 0
pressure (bar)	Methylene blue fraction	Methylene blue uptake (mg/g)	Auramine-O fraction	Auramine-O uptake (mg/g)	total uptake (mg/g)
1.01325	0.053354	30.676	0.11195	62.054	
1.01325	0.130615	61.329	0.335713	91.265	
1.01325	0.889407	87.865	1.94274	112.812	
1.01325	3.6277	101.817	5.96018	118.212	
1.01325	8.04218	105.811	10.3346	91.984	
