Adsorption isotherm of Nitrogen on Carbon
DOI: 10.1016/j.carbon.2010.06.008
Adsorbate Nitrogen: InChIKey IJGRMHOSHXDMSA-UHFFFAOYSA-N
Temperature: 77 K
Tabular data in the source: 0
pressure (bar)	uptake (cm3(STP)/g)
0.00837971	317.68
0.0542621	381.915
0.139472	470.621
0.253086	559.327
0.403842	641.915
0.60922	687.798
0.742497	724.504
0.862665	748.974
0.952245	788.739
0.998128	874.386
