Adsorption isotherm of Nitrogen on Carbon
DOI: 10.1016/j.carbon.2010.06.008
Adsorbate Nitrogen: InChIKey IJGRMHOSHXDMSA-UHFFFAOYSA-N
Temperature: 77 K
Tabular data in the source: 0
pressure (bar)	uptake (cm3(STP)/g)
0.00619484	288.403
0.0258587	334.285
0.0870352	380.167
0.198464	453.579
0.406027	536.167
0.558968	577.461
0.70317	646.285
0.829892	760.991
0.917287	1040.87
0.993758	1678.64
