Adsorption isotherm of Nitrogen on Carbon
DOI: 10.1016/j.carbon.2010.06.008
Adsorbate Nitrogen: InChIKey IJGRMHOSHXDMSA-UHFFFAOYSA-N
Temperature: 77 K
Tabular data in the source: 0
pressure (bar)	uptake (cm3(STP)/g)
0.00837971	361.814
0.0935898	453.579
0.242161	595.814
0.395102	724.285
0.550228	894.05
0.714094	1059.23
0.825523	1187.7
0.919472	1357.46
0.95443	1518.05
0.989388	1976.87
