Adsorption isotherm of Nitrogen on Carbon
DOI: 10.1016/j.carbon.2010.06.008
Adsorbate Nitrogen: InChIKey IJGRMHOSHXDMSA-UHFFFAOYSA-N
Temperature: 77 K
Tabular data in the source: 0
pressure (bar)	uptake (cm3(STP)/g)
0.00837971	409.445
0.0302285	461.445
0.0826654	547.092
0.141657	617.445
0.202833	651.092
0.253086	678.621
0.351405	706.151
0.552413	715.327
0.768716	727.562
0.993758	727.562
