Adsorption isotherm of Nitrogen on Carbon
DOI: 10.1016/j.carbon.2010.06.008
Adsorbate Nitrogen: InChIKey IJGRMHOSHXDMSA-UHFFFAOYSA-N
Temperature: 77 K
Tabular data in the source: 0
pressure (bar)	uptake (cm3(STP)/g)
0.0127495	238.151
0.0302285	280.974
0.0979595	329.915
0.250901	391.092
0.554598	510.386
0.711909	599.092
0.803674	690.857
0.87796	822.386
0.967539	1082.39
0.993758	1247.56
