Adsorption isotherm of Nitrogen on Carbon
DOI: 10.1016/j.carbon.2010.06.008
Adsorbate Nitrogen: InChIKey IJGRMHOSHXDMSA-UHFFFAOYSA-N
Temperature: 77 K
Tabular data in the source: 0
pressure (bar)	uptake (cm3(STP)/g)
0.0105646	91.1085
0.0586318	95.6967
0.126363	95.6967
0.198464	95.6967
0.325186	100.285
0.482497	100.285
0.583002	91.1085
0.681321	86.5202
0.860481	81.932
0.980649	100.285
