Adsorption isotherm of Carbon Dioxide on Sc2(BDC)3
DOI: 10.1021/Ic201387d
Adsorbate Carbon Dioxide: InChIKey CURLTUGMZLYLDI-UHFFFAOYSA-N
Temperature: 273 K
Tabular data in the source: 0
pressure (bar)	uptake (mmol/g)
0.0198019	0.0792862
0.0733628	0.322355
0.101338	0.406999
0.199207	0.766516
0.396235	1.31686
0.549017	1.66641
0.645833	1.86776
0.751994	2.06921
0.84768	2.21783
0.910679	2.33448
