Adsorption isotherm of Carbon Dioxide on Sc2(NO2-BDC)3
DOI: 10.1021/Ic201387d
Adsorbate Carbon Dioxide: InChIKey CURLTUGMZLYLDI-UHFFFAOYSA-N
Temperature: 273 K
Tabular data in the source: 0
pressure (bar)	uptake (mmol/g)
0.0291746	0.0424822
0.0606548	0.127163
0.1108	0.248944
0.18897	0.386836
0.282339	0.509072
0.41774	0.663383
0.603363	0.834039
0.899928	1.05858
0.91978	1.06934
