Adsorption isotherm of Carbon Dioxide on Sc2(NO2-BDC)3
DOI: 10.1021/Ic201387d
Adsorbate Carbon Dioxide: InChIKey CURLTUGMZLYLDI-UHFFFAOYSA-N
Temperature: 196 K
Tabular data in the source: 0
pressure (bar)	uptake (mmol/g)
0.000251811	0.489437
0.00282848	0.830959
0.0283668	1.46894
0.0705715	1.83413
0.151169	2.15466
0.279768	2.44214
0.384281	2.58111
0.502	2.72037
0.550037	2.75561
0.653338	2.87178
0.751831	2.97646
0.801063	3.00035
