Adsorption isotherm of Carbon Dioxide on Sc2(BDC)3
DOI: 10.1021/Ic201387d
Adsorbate Carbon Dioxide: InChIKey CURLTUGMZLYLDI-UHFFFAOYSA-N
Temperature: 196 K
Tabular data in the source: 0
pressure (bar)	uptake (mmol/g)
8.2e-05	0.159351
0.0032794	1.70739
0.00597905	2.28794
0.0110504	2.81163
0.0305687	3.41533
0.0498937	3.64341
0.0752212	3.87163
0.201671	4.64849
0.40247	5.2677
0.654802	5.71735
0.779736	5.87954
0.855419	5.9837
0.913078	6.05331
