Adsorption isotherm of Carbon Dioxide on Sc2(NH2-BDC)3
DOI: 10.1021/Ic201387d
Adsorbate Carbon Dioxide: InChIKey CURLTUGMZLYLDI-UHFFFAOYSA-N
Temperature: 196 K
Tabular data in the source: 0
pressure (bar)	uptake (mmol/g)
0.00462044	1.98059
0.00993189	2.97096
0.0377541	3.38135
0.0750807	3.59846
0.100338	3.69009
0.20016	4.04521
0.402072	4.49371
0.552257	4.73615
0.671211	4.94373
0.776942	5.11687
0.852609	5.18689
0.915087	5.29075
