Adsorption isotherm of Carbon Dioxide on Sc2(NH2-BDC)3
DOI: 10.1021/Ic201387d
Adsorbate Carbon Dioxide: InChIKey CURLTUGMZLYLDI-UHFFFAOYSA-N
Temperature: 273 K
Tabular data in the source: 0
pressure (bar)	uptake (mmol/g)
0.00690536	0.142412
0.0195979	0.358691
0.0497252	0.696406
0.0891904	1.04476
0.140365	1.35634
0.248678	1.81086
0.418906	2.26603
0.599729	2.61061
0.802787	2.9027
0.920673	3.04628
