Adsorption isotherm of Methanol on {[Cu(4-bcba-H)]*H2O}n
DOI: 10.1039/B806616g
Adsorbate Methanol: InChIKey OKKJLVBELUTLKV-UHFFFAOYSA-N
Temperature: 298 K
Tabular data in the source: 0
pressure (bar)	uptake (ml/g)
0.00619484	0.936194
0.119808	88.3312
0.18317	106.903
0.218128	116.735
0.226867	300.264
0.244346	310.096
0.386363	331.945
0.530565	342.869
0.731573	358.163
0.884514	375.642
0.9588	405.138
