Adsorption isotherm of Nitrogen on {[Cu(4-bcba-H)]*H2O}n
DOI: 10.1039/B806616g
Adsorbate Nitrogen: InChIKey IJGRMHOSHXDMSA-UHFFFAOYSA-N
Temperature: 77 K
Tabular data in the source: 0
pressure (bar)	uptake (ml/g)
0.00182509	114.55
0.00400996	221.608
0.00619484	282.785
0.0171192	340.684
0.0258587	389.844
0.0345982	414.97
0.130733	453.205
0.205018	461.945
0.60485	485.978
0.897623	518.751
