Adsorption isotherm of Carbon Dioxide on {[Cu(4-bcba-H)]*H2O}n
DOI: 10.1039/B806616g
Adsorbate Carbon Dioxide: InChIKey CURLTUGMZLYLDI-UHFFFAOYSA-N
Temperature: 195 K
Tabular data in the source: 0
pressure (bar)	uptake (ml/g)
-0.00036	8.58325
0.0127495	70.8522
0.0258587	106.903
0.200649	210.684
0.229052	367.995
0.307707	390.936
0.397287	400.768
0.554598	412.785
0.799304	424.802
0.998128	433.541
