Adsorption isotherm of Acetonitrile on {[Cu(4-bcba-H)]*H2O}n
DOI: 10.1039/B806616g
Adsorbate Acetonitrile: InChIKey WEVYAHXRMPXWCK-UHFFFAOYSA-N
Temperature: 298 K
Tabular data in the source: 0
pressure (bar)	uptake (ml/g)
0.0258587	28.2471
0.0477074	68.6673
0.0935898	106.903
0.124178	115.642
0.146027	240.18
0.148212	256.566
0.194094	267.491
0.281489	277.323
0.818968	309.003
0.9588	326.482
