Adsorption isotherm of Nitrogen on NaY
DOI: 10.1007/s10450-022-00373-9
Article source: Figure 1B
Adsorbate Nitrogen: InChIKey IJGRMHOSHXDMSA-UHFFFAOYSA-N
Kind: experiment
Isotherm type: excess
Temperature: 298 K
Tabular data in the source: 0
pressure (bar)	uptake (mmol/g)
0	0.023739
0	0.047478
0.09768	0.066469
0.29304	0.090208
0.4884	0.118694
0.781441	0.156677
1.12332	0.199407
1.4652	0.227893
1.66056	0.261128
1.90476	0.289614
2.34432	0.365579
3.22344	0.508012
4.24908	0.64095
5.22588	0.773887
6.20269	0.902077
7.27717	1.02552
8.79121	1.15371
