Adsorption isotherm of Carbon Dioxide on Na-X
DOI: 10.1007/s10450-022-00373-9
Article source: Figure 1A
Adsorbate Carbon Dioxide: InChIKey CURLTUGMZLYLDI-UHFFFAOYSA-N
Kind: experiment
Isotherm type: excess
Temperature: 298 K
Tabular data in the source: 0
pressure (bar)	uptake (mmol/g)
0.146699	2.41044
0.440098	4.22301
1.61369	5.01068
3.08068	5.38078
4.40098	5.58482
5.72127	5.69395
6.94377	5.80783
8.11736	5.90273
9.14425	5.96916
10.1711	6.03559
11.1002	6.10202
11.8826	6.13049
12.665	6.1637
13.4474	6.20641
14.132	6.23962
14.8166	6.26809
15.3056	6.28232
16.8215	6.32028
18.1418	6.3535
19.4132	6.39146
20.5379	6.42467
21.6137	6.45789
22.5428	6.48161
23.4719	6.50534
24.2054	6.52432
25.0367	6.54804
25.7213	6.56702
26.4059	6.57651
26.9438	6.59549
27.335	6.60973
27.9218	6.61922
28.4108	6.62396
28.6553	6.63345
29.0954	6.64294
29.3888	6.66192
29.6822	6.66192
29.9755	6.67141
30.2689	6.6809
30.4645	6.6809
30.8557	6.69039
31.4914	6.70937
32.7139	6.72835
33.7897	6.74733
34.8655	6.76157
35.7457	6.76631
36.5281	6.79004
37.2616	6.79953
37.9462	6.81376
38.5819	6.82799
39.1687	6.83748
39.7066	6.84697
40.1956	6.85172
40.7335	6.86595
41.1736	6.86595
41.5159	6.86121
41.8093	6.86121
42.1027	6.88019
42.6895	6.88968
42.9829	6.90866
43.4719	6.90866
43.6675	6.91815
44.0587	6.92764
44.4499	6.94662
44.7433	6.9656
44.9389	6.97509
45.3301	6.98932
45.7213	7.00356
