Adsorption isotherm of Methane on Na-X
DOI: 10.1007/s10450-022-00373-9
Article source: Figure 1A
Adsorbate Methane: InChIKey VNWKTOKETHGBQD-UHFFFAOYSA-N
Kind: experiment
Isotherm type: excess
Temperature: 298 K
Tabular data in the source: 0
pressure (bar)	uptake (mmol/g)
5.52567	1.64176
11.4914	2.41518
17.4572	2.79953
23.1296	3.0605
28.5575	3.24555
33.7408	3.40688
38.7775	3.51127
43.3741	3.6204
47.9218	3.70581
