Adsorption isotherm of Hydrogen sulfide on Na-X
DOI: 10.1007/s10450-022-00373-9
Article source: Figure 1A
Adsorbate Hydrogen sulfide: InChIKey RWSOTUBLDIXVET-UHFFFAOYSA-N
Kind: experiment
Isotherm type: excess
Temperature: 298 K
Tabular data in the source: 0
pressure (bar)	uptake (mmol/g)
0.0489	2.55753
0.0489	3.1981
0.244499	3.81969
0.440098	4.34638
0.488998	4.78766
0.733496	5.0866
0.929095	5.29063
1.22249	5.4567
1.51589	5.58956
1.76039	5.67972
2.00489	5.79834
2.20049	5.85053
2.44499	5.90747
2.68949	5.96916
2.83619	6.05457
3.03179	6.11151
3.17848	6.13998
3.37408	6.17794
3.71638	6.23013
3.86308	6.27283
4.20538	6.31079
4.35208	6.34401
5.03667	6.34875
5.52567	6.38671
5.81907	6.41044
6.06357	6.44365
6.35697	6.47212
6.50367	6.4911
6.89487	6.52906
7.28606	6.57651
7.38386	6.57651
7.48166	6.586
7.67726	6.60498
7.87286	6.63345
8.16626	6.66192
8.36186	6.69039
8.55746	6.69988
8.75306	6.70937
8.85086	6.73784
8.94866	6.75682
