Adsorption isotherm of Hydrogen sulfide on NaY
DOI: 10.1007/s10450-022-00373-9
Article source: Figure 1B
Adsorbate Hydrogen sulfide: InChIKey RWSOTUBLDIXVET-UHFFFAOYSA-N
Kind: experiment
Isotherm type: excess
Temperature: 298 K
Tabular data in the source: 0
pressure (bar)	uptake (mmol/g)
0.04884	0.389318
0.04884	1.05875
0.04884	2.16024
0.04884	3.02908
0.04884	3.727
0.09768	4.21128
0.19536	5.39822
0.586081	5.80178
0.781441	6.02493
1.07448	6.16261
1.26984	6.28131
1.61172	6.37626
1.75824	6.44273
