Adsorption isotherm of Carbon Dioxide, Nitrogen, Hydrogen sulfide, Methane on NaY
DOI: 10.1007/s10450-022-00373-9
Article source: Figure 2B
Adsorbate Carbon Dioxide: InChIKey CURLTUGMZLYLDI-UHFFFAOYSA-N
Adsorbate Nitrogen: InChIKey IJGRMHOSHXDMSA-UHFFFAOYSA-N
Adsorbate Hydrogen sulfide: InChIKey RWSOTUBLDIXVET-UHFFFAOYSA-N
Adsorbate Methane: InChIKey VNWKTOKETHGBQD-UHFFFAOYSA-N
Kind: experiment
Temperature: 303 K
Tabular data in the source: 0
pressure (bar)	Carbon Dioxide fraction	Carbon Dioxide uptake ()	Nitrogen fraction	Nitrogen uptake ()	Hydrogen sulfide fraction	Hydrogen sulfide uptake ()	Methane fraction	Methane uptake ()	total uptake ()
40	0.901992	0.923555			0.02	0.079553			
40	0.801369	0.917961			0.02	0.088254			
40	0.700747	0.907396			0.02	0.099441			
40	0.601162	0.893723			0.02	0.114978			
40	0.501577	0.873213			0.02	0.134866			
40	0.400954	0.840273			0.02	0.162834			
40	0.301369	0.78931			0.02	0.204475			
40	0.19971	0.699192			0.02	0.274083			
40	0.100124	0.520199			0.02	0.410814			
40	0.050332	0.339963			0.02	0.547545			
