Adsorption isotherm of Carbon Dioxide, Nitrogen, Hydrogen sulfide, Methane on Na-X
DOI: 10.1007/s10450-022-00373-9
Article source: Figure 2A
Adsorbate Carbon Dioxide: InChIKey CURLTUGMZLYLDI-UHFFFAOYSA-N
Adsorbate Nitrogen: InChIKey IJGRMHOSHXDMSA-UHFFFAOYSA-N
Adsorbate Hydrogen sulfide: InChIKey RWSOTUBLDIXVET-UHFFFAOYSA-N
Adsorbate Methane: InChIKey VNWKTOKETHGBQD-UHFFFAOYSA-N
Kind: experiment
Temperature: 298 K
Tabular data in the source: 0
pressure (bar)	Carbon Dioxide fraction	Carbon Dioxide uptake ()	Nitrogen fraction	Nitrogen uptake ()	Hydrogen sulfide fraction	Hydrogen sulfide uptake ()	Methane fraction	Methane uptake ()	total uptake ()
40	0.902482	0.631285			0.02	0.372439			
40	0.800717	0.612042			0.02	0.394165			
40	0.700509	0.586592			0.02	0.422098			
40	0.600301	0.556797			0.02	0.451893			
40	0.500613	0.518312			0.02	0.490379			
40	0.399367	0.469894			0.02	0.536313			
40	0.300717	0.405959			0.02	0.594662			
40	0.19947	0.319056			0.02	0.674115			
40	0.099782	0.194289			0.02	0.787709			
40	0.049938	0.108628			0.02	0.86406			
