Adsorption isotherm of Methane on NaY
DOI: 10.1007/s10450-022-00373-9
Article source: Figure 1B
Adsorbate Methane: InChIKey VNWKTOKETHGBQD-UHFFFAOYSA-N
Kind: experiment
Isotherm type: excess
Temperature: 298 K
Tabular data in the source: 0
pressure (bar)	uptake (mmol/g)
1.31868	0.47003
1.85592	0.636202
2.24664	0.792878
2.88156	0.944807
3.36996	1.08724
3.9072	1.21068
4.34676	1.35312
4.78632	1.47656
5.86081	1.7092
6.93529	1.92285
7.86325	2.11276
8.88889	2.27418
9.96337	2.43086
10.8913	2.56855
11.917	2.70623
12.8938	2.80593
13.8706	2.91988
14.8962	3.01484
15.873	3.10979
16.8987	3.2
17.9243	3.27122
18.9011	3.35668
19.8779	3.43264
20.8059	3.48961
21.8315	3.56083
22.8083	3.6273
23.8339	3.68902
24.8596	3.7365
25.8852	3.80297
26.8132	3.85045
27.8388	3.89792
28.7668	3.9549
29.8413	3.99288
30.8669	4.03561
31.8926	4.07834
32.7717	4.11632
33.895	4.1638
34.823	4.20178
35.8486	4.23501
36.7766	4.26825
37.8999	4.30623
38.8767	4.34421
39.7558	4.3727
40.8303	4.42018
41.8071	4.44392
42.8327	4.4724
43.9072	4.52463
44.7863	4.54837
45.812	4.57686
46.7399	4.60534
47.8632	4.63858
48.8889	4.65757
49.475	4.67656
