Adsorption isotherm of Nitrogen on Na-X
DOI: 10.1007/s10450-022-00373-9
Article source: Figure 1A
Adsorbate Nitrogen: InChIKey IJGRMHOSHXDMSA-UHFFFAOYSA-N
Kind: experiment
Isotherm type: excess
Temperature: 298 K
Tabular data in the source: 0
pressure (bar)	uptake (mmol/g)
2.73839	0.702254
8.94866	1.5516
23.8142	2.34875
42.0538	2.72361
