Adsorption isotherm of Carbon Dioxide on NaY
DOI: 10.1007/s10450-022-00373-9
Article source: Figure 1B
Adsorbate Carbon Dioxide: InChIKey CURLTUGMZLYLDI-UHFFFAOYSA-N
Kind: experiment
Isotherm type: excess
Temperature: 298 K
Tabular data in the source: 0
pressure (bar)	uptake (mmol/g)
0.2442	3.2997
0.537241	4.12107
0.830281	4.80475
1.36752	5.36024
1.85592	5.67359
2.34432	5.88724
2.83272	6.05341
3.36996	6.18635
3.9072	6.28131
4.3956	6.37151
4.78632	6.44748
5.76313	6.56142
6.83761	6.65638
7.86325	6.74659
8.84005	6.84154
9.81685	6.90801
10.8913	6.96973
11.8193	7.02196
12.7961	7.05994
13.8706	7.11691
14.8474	7.15964
15.873	7.19763
16.9475	7.24036
17.8755	7.26884
18.8523	7.30683
19.7802	7.33531
20.8547	7.37329
21.9292	7.41128
22.8083	7.43027
23.7851	7.45401
24.7619	7.49199
25.7875	7.51573
26.8132	7.55371
27.8877	7.5727
28.7668	7.59644
29.8901	7.63917
30.8181	7.65341
31.8437	7.67715
32.8205	7.70089
33.7973	7.72938
34.7741	7.74837
35.8486	7.77685
36.9231	7.79585
37.8999	7.83858
38.779	7.85757
39.8535	7.87181
