Adsorption isotherm of Methane on [HDMA]2-[Zn2(BDC)3(DMA)2]*6DMF
DOI: 10.1039/C3dt32846e
Adsorbate Methane: InChIKey VNWKTOKETHGBQD-UHFFFAOYSA-N
Temperature: 298 K
Tabular data in the source: 0
pressure (bar)	uptake (cm3(STP)/g)
0.0108756	0.0165404
0.109555	0.11665
0.208235	0.248939
0.311206	0.370501
0.407025	0.470611
0.505705	0.595748
0.602955	0.667255
0.705925	0.792393
0.808895	0.888928
0.906145	0.978312
0.996244	1.07127
