Adsorption isotherm of Methane on [HDMA]2-[Zn2(BDC)3(DMA)2]*6DMF
DOI: 10.1039/C3dt32846e
Adsorbate Methane: InChIKey VNWKTOKETHGBQD-UHFFFAOYSA-N
Temperature: 298 K
Tabular data in the source: 0
pressure (bar)	uptake (cm3(STP)/g)
0.0380483	0.0165404
0.0809526	0.0344171
0.142449	0.0558693
0.188213	0.0701707
0.285463	0.0987736
0.382713	0.130952
0.479963	0.16313
0.528587	0.177431
0.578642	0.188158
0.635848	0.20961
0.735958	0.252514
0.836068	0.298994
0.881833	0.331172
0.931888	0.352624
0.984803	0.377651
