Adsorption isotherm of Methane on [HDMA]2-[Zn2(BDC)3(DMA)2]*6DMF
DOI: 10.1039/C3dt32846e
Adsorbate Methane: InChIKey VNWKTOKETHGBQD-UHFFFAOYSA-N
Temperature: 298 K
Tabular data in the source: 0
pressure (bar)	uptake (cm3(STP)/g)
0.00658518	0.0308418
0.0466292	0.113075
0.0923938	0.195308
0.131008	0.266815
0.195364	0.349049
0.242559	0.402679
0.292614	0.495638
0.344099	0.577872
0.395584	0.656529
0.441349	0.695858
0.488543	0.735187
0.537168	0.792393
0.591514	0.860325
0.638708	0.942558
0.688763	0.989038
0.740249	1.02837
0.791734	1.07485
0.843219	1.16065
0.887553	1.24289
0.940469	1.27507
0.993384	1.32512
