Adsorption isotherm of Methane on [HDMA]2-[Zn2(BDC)3(DMA)2]*6DMF
DOI: 10.1039/C3dt32846e
Adsorbate Methane: InChIKey VNWKTOKETHGBQD-UHFFFAOYSA-N
Temperature: 298 K
Tabular data in the source: 0
pressure (bar)	uptake (cm3(STP)/g)
0.129577	0.0808968
0.182493	0.241788
0.226827	0.377651
0.278312	0.50994
0.328367	0.66368
0.376992	0.81742
0.422757	0.960435
0.479963	1.09272
0.525727	1.20356
0.575782	1.33942
0.628697	1.47171
0.673032	1.61473
0.725947	1.71841
0.776002	1.84712
0.826057	1.93293
0.877542	2.06522
0.926167	2.19751
0.974792	2.28689
