Adsorption isotherm of Methane on [HDMA]2-[Zn2(BDC)3(DMA)2]*6DMF
DOI: 10.1039/C3dt32846e
Adsorbate Methane: InChIKey VNWKTOKETHGBQD-UHFFFAOYSA-N
Temperature: 298 K
Tabular data in the source: 0
pressure (bar)	uptake (cm3(STP)/g)
0.0180263	0.0201157
0.126717	0.0344171
0.226827	0.0415679
0.326937	0.0308418
0.424187	0.0272664
0.528587	0.0308418
0.627267	0.0236911
0.731668	0.0272664
0.830348	0.0236911
0.927597	0.0272664
