Adsorption isotherm of Methane on [HDMA]2-[Zn2(BDC)3(DMA)2]*6DMF
DOI: 10.1039/C3dt32846e
Adsorbate Methane: InChIKey VNWKTOKETHGBQD-UHFFFAOYSA-N
Temperature: 298 K
Tabular data in the source: 0
pressure (bar)	uptake (cm3(STP)/g)
0.0695115	0.0379925
0.123857	0.0522939
0.171052	0.0594446
0.218246	0.0773214
0.271162	0.0844721
0.316926	0.0987736
0.371272	0.123801
0.418466	0.130952
0.520007	0.166705
0.568631	0.181007
0.670172	0.20961
0.770282	0.238213
0.823197	0.252514
0.871822	0.26324
0.917586	0.284692
0.966211	0.281117
