Adsorption isotherm of Carbon Dioxide on [N=N]100%â€“TAPH-COF
DOI: 10.1039/c6ra04859e
Article source: Figure 6b
Adsorbate Carbon Dioxide: InChIKey CURLTUGMZLYLDI-UHFFFAOYSA-N
Kind: experiment
Temperature: 273 K
Tabular data in the source: 0
pressure (bar)	uptake (mg/g)
0.032599	4.73297
0.054678	7.21804
0.076757	9.3481
0.098835	11.8332
0.120914	13.6082
0.142993	15.0283
0.165072	16.8033
0.187151	18.9334
0.209229	20.7084
0.231308	22.1285
0.253387	23.5485
0.275466	25.3235
0.297545	26.7436
0.319624	28.1636
0.341702	28.8736
0.363781	30.6487
0.38586	32.0687
0.407939	33.1338
0.430018	33.8438
0.452097	35.9738
0.474175	37.0389
0.496254	38.1039
0.518333	39.5239
0.540412	40.234
0.562491	41.299
0.58457	42.719
0.606648	43.4291
0.628727	44.8491
0.650806	45.5591
0.672885	46.6241
0.694964	48.3992
0.717043	49.1092
0.739121	49.4642
0.7612	50.8843
0.783279	51.9493
0.805358	53.3693
0.827437	54.0794
0.849515	55.1444
0.871594	56.2094
0.893673	57.6295
0.915752	57.9845
0.937831	60.1145
0.95991	60.1145
0.981988	61.1796
0.015579	2.89855
