Adsorption isotherm of Carbon Dioxide on [HO]100%â€“TAPH-COF
DOI: 10.1039/c6ra04859e
Article source: Figure 6a
Adsorbate Carbon Dioxide: InChIKey CURLTUGMZLYLDI-UHFFFAOYSA-N
Kind: experiment
Temperature: 273 K
Tabular data in the source: 0
pressure (bar)	uptake (mg/g)
0.175	22.0548
0.2	24.0345
0.225	26.0143
0.25	27.3341
0.275	29.3139
0.3	30.6337
0.325	31.9535
0.35	33.9333
0.375	35.2531
0.4	36.5729
0.425	37.8928
0.45	39.2126
0.475	40.2025
0.5	41.1924
0.525	42.5122
0.55	43.832
0.575	45.1519
0.6	45.8118
0.625	47.1316
0.65	48.1215
0.675	49.1114
0.7	50.4312
0.725	51.0911
0.75	52.411
0.775	53.0709
0.8	53.7308
0.825	55.0506
0.85	56.0405
0.875	57.0304
0.899258	58.6216
0.924258	59.2815
0.949258	59.9414
0.974258	60.2713
0.992953	61.5299
0.147255	18.459
0.126855	18.1264
0.099036	15.4656
0.089763	14.6341
0.08049	13.8027
0.073071	12.4723
0.065653	11.6408
0.060089	10.9756
0.050816	9.47894
0.041543	8.14856
0.034125	7.31707
0.030415	6.31929
0.024852	4.98891
0.013724	3.65854
0.010015	2.66075
