Adsorption isotherm of Nitrogen on [C=C]50%â€“TAPH-COF
DOI: 10.1039/c6ra04859e
Article source: Figure S12c/S11
Adsorbate Nitrogen: InChIKey IJGRMHOSHXDMSA-UHFFFAOYSA-N
Kind: experiment
Temperature: 273 K
Tabular data in the source: 0
pressure (bar)	uptake (mg/g)
0.325	1.96982
0.35	2.09576
0.375	2.22171
0.4	2.37913
0.425	2.50508
0.45	2.69399
0.475	2.85142
0.5	3.00885
0.525	3.07182
0.55	3.26074
0.575	3.38668
0.6	3.48114
0.625	3.51262
0.65	3.63857
0.675	3.70154
0.7	3.92194
0.725	4.0164
0.75	4.17382
0.775	4.29977
0.8	4.4572
0.825	4.61462
0.85	4.70908
0.875	4.74057
0.9	4.80354
0.925	4.96097
0.95	5.1184
0.968163	5.39957
0.983571	5.40809
0.294742	1.80554
0.268458	1.55855
0.243986	1.36267
0.216796	1.21789
0.19323	1.09865
0.168759	0.936835
0.137036	0.783534
0.121628	0.698368
0.093531	0.562101
0.080842	0.417317
0.064528	0.315117
0.042775	0.221434
0.02918	0.144784
0.010147	0.07665
