Adsorption isotherm of Nitrogen on [C=C]75%â€“TAPH-COF
DOI: 10.1039/c6ra04859e
Article source: Figure 3c
Adsorbate Nitrogen: InChIKey IJGRMHOSHXDMSA-UHFFFAOYSA-N
Kind: experiment
Temperature: 77 K
Tabular data in the source: 0
pressure (bar)	uptake (cm3(STP)/g)
0.057641	107.017
0.082973	116.768
0.108304	122.618
0.133635	130.419
0.158966	130.419
0.180808	133.899
0.206139	135.849
0.233215	140.17
0.258547	142.12
0.283006	146.338
0.308337	148.288
0.333668	150.238
0.358999	152.189
0.384331	156.089
0.410534	157.301
0.436738	160.885
0.462069	164.575
0.4874	168.475
0.512732	170.425
0.538063	176.276
0.563394	178.226
0.588725	179.228
0.614057	182.444
0.635898	187.293
0.66123	191.193
0.686561	193.143
0.714509	193.617
0.73984	197.518
0.766044	200.68
0.790503	201.365
0.814962	207.215
0.840293	209.166
0.865624	215.016
0.890956	218.917
0.916287	224.767
0.941618	238.155
0.970068	263.838
0.996239	280.443
1.01369	297.048
0.030097	94.0959
0.057641	92.2564
0.082973	102.007
0.108304	107.858
0.133635	115.659
0.158966	115.659
0.180808	119.139
0.206139	121.089
0.233215	125.41
0.258547	127.36
0.283006	131.578
0.308337	133.528
0.333668	135.478
0.358999	137.429
0.384331	141.329
0.411407	142.541
0.43761	146.124
0.462941	149.814
0.488273	153.715
0.513604	155.665
0.538935	161.516
0.563394	165.68
0.588725	166.682
0.614057	169.898
0.635898	174.746
0.66123	178.647
0.686561	180.597
0.714509	181.071
0.73984	184.972
0.766044	188.134
0.790503	192.509
0.814962	198.359
0.840293	200.31
0.865624	206.16
0.890956	210.061
0.916287	215.911
0.941618	224.133
0.030097	79.3358
0.989696	258.303
0.017011	77.4908
0.012649	66.4207
0.008287	51.6605
0.003926	42.4354
0.003926	33.2103
