Adsorption isotherm of Nitrogen on [HO]100%â€“TAPH-COF
DOI: 10.1039/c6ra04859e
Article source: Figure 3a
Adsorbate Nitrogen: InChIKey IJGRMHOSHXDMSA-UHFFFAOYSA-N
Kind: experiment
Temperature: 77 K
Tabular data in the source: 0
pressure (bar)	uptake (cm3(STP)/g)
0.075994	333.808
0.101325	347.282
0.126656	358.061
0.151987	366.145
0.177319	371.535
0.20265	382.314
0.227981	387.703
0.253312	393.093
0.278644	401.177
0.303975	409.261
0.329306	414.651
0.354637	420.04
0.379969	425.43
0.4053	433.514
0.430631	438.903
0.455962	446.988
0.481294	452.377
0.506625	457.767
0.531956	465.851
0.557288	473.935
0.582619	479.325
0.60795	484.714
0.633281	490.104
0.658613	495.493
0.709275	506.272
0.734606	511.662
0.759937	522.441
0.785269	527.83
0.8106	533.22
0.835931	538.609
0.860388	548.004
0.885719	556.088
0.91105	564.172
0.937256	576.336
0.962587	589.809
0.679144	500.701
0.985262	617.973
1.00494	666.412
0.049416	312.046
0.025364	284.003
0.007872	261.058
0.007434	243.212
0.005248	225.366
0.000875	199.873
0.000875	179.477
0.000875	153.983
0.000875	133.588
0.000875	115.743
0.000875	97.8968
0.000875	80.051
0.075119	384.796
0.10045	398.27
0.125782	409.049
0.151113	421.212
0.17557	428.641
0.200901	437.38
0.226232	442.77
0.251563	448.159
0.276895	456.244
0.302226	464.328
0.327557	469.717
0.352888	475.107
0.37822	480.497
0.403551	488.581
0.428882	493.97
0.454213	498.995
0.479545	504.385
0.504876	514.873
0.530207	524.997
0.555538	529.002
0.58087	534.392
0.606201	539.781
0.631532	545.171
0.656863	550.56
0.707526	561.339
0.732857	566.729
0.758188	564.251
0.78352	569.64
0.808851	575.03
0.834182	580.419
0.858639	589.814
0.88397	597.898
0.909301	605.982
0.935507	618.146
0.961713	625.501
0.677395	555.768
0.983513	641.428
1.00494	683.748
0.048542	363.034
0.023615	328.872
