Adsorption isotherm of Carbon Dioxide on [HO]100%â€“TAPH-COF
DOI: 10.1039/c6ra04859e
Article source: Figure 6a
Adsorbate Carbon Dioxide: InChIKey CURLTUGMZLYLDI-UHFFFAOYSA-N
Kind: experiment
Temperature: 298 K
Tabular data in the source: 0
pressure (bar)	uptake (mg/g)
0.018538	1.6331
0.040634	3.15209
0.062729	4.59874
0.084824	5.90074
0.106919	7.13039
0.129015	8.36005
0.15111	9.58971
0.173205	10.6747
0.1953	11.6874
0.217395	12.7724
0.239491	13.785
0.261586	14.5807
0.283681	15.4487
0.305776	16.172
0.327872	17.04
0.349967	18.0527
0.372062	18.776
0.394157	19.7163
0.416252	20.4396
0.438348	21.2353
0.460443	22.031
0.482538	22.8266
0.504633	23.4776
0.526728	24.2733
0.548824	24.9966
0.570919	25.7199
0.593014	26.5156
0.615109	27.2389
0.637205	27.8176
0.6593	28.4686
0.681395	29.1919
0.70349	29.9152
0.725585	30.6386
0.747681	31.2172
0.769776	31.7959
0.791871	32.5192
0.813966	33.0979
0.836062	33.6766
0.858157	34.3275
0.880252	35.0509
0.902347	35.5572
0.924442	36.3529
0.946538	37.0762
0.968633	37.7272
0.990728	38.3059
0.098429	6.613
0.073682	5.4282
0.053576	4.06112
0.031923	2.51177
0.01027	0.871282
