Adsorption isotherm of Nitrogen on [C=C]100%â€“TAPH-COF
DOI: 10.1039/c6ra04859e
Article source: Figure S12c/S11
Adsorbate Nitrogen: InChIKey IJGRMHOSHXDMSA-UHFFFAOYSA-N
Kind: experiment
Temperature: 298 K
Tabular data in the source: 0
pressure (bar)	uptake (mg/g)
0.125	0.166324
0.15	0.235158
0.175	0.3212
0.2	0.390034
0.225	0.476077
0.25	0.510494
0.275	0.579327
0.3	0.648161
0.325	0.716995
0.35	0.768621
0.375	0.820246
0.4	0.88908
0.429596	0.946771
0.454596	1.03281
0.475	1.11279
0.5	1.16442
0.531893	1.25652
0.556893	1.29094
0.581893	1.32536
0.606893	1.39419
0.631893	1.4114
0.656893	1.42861
0.681893	1.46303
0.706893	1.51465
0.731893	1.54907
0.756893	1.6179
0.781893	1.63511
0.806893	1.66953
0.831893	1.72115
0.856893	1.75557
0.881893	1.80719
0.906893	1.87603
0.981893	2.08253
1.00368	2.10066
0.940257	1.94337
0.962316	2.00853
0.101103	0.086113
0.08364	0.020946
0.066176	-0.030256
0.045037	-0.067494
0.029412	-0.109387
0.015625	-0.15128
0.01011	-0.179209
