Adsorption isotherm of Carbon Dioxide on [HO]50%â€“TAPH-COF
DOI: 10.1039/c6ra04859e
Article source: Figure 6a
Adsorbate Carbon Dioxide: InChIKey CURLTUGMZLYLDI-UHFFFAOYSA-N
Kind: experiment
Temperature: 273 K
Tabular data in the source: 0
pressure (bar)	uptake (mg/g)
0.069397	5.60399
0.135633	10.2234
0.157712	11.4333
0.179791	12.5331
0.20187	13.9629
0.223949	15.1728
0.246028	16.6026
0.268106	17.8125
0.290185	18.9123
0.312264	20.1222
0.334343	21.552
0.356422	22.6519
0.378501	24.1917
0.400579	25.4015
0.422658	26.7213
0.444737	27.9312
0.466816	29.141
0.488895	30.4609
0.510973	31.6707
0.533052	32.8806
0.555131	34.0904
0.57721	35.1903
0.599289	36.1802
0.621368	37.5
0.643446	39.0398
0.665525	40.3596
0.687604	41.5695
0.709683	42.5593
0.731762	43.6592
0.753841	44.8691
0.775919	45.8589
0.797998	46.9588
0.820077	48.0587
0.842156	49.1585
0.864235	50.2584
0.886314	51.1383
0.908392	52.2381
0.930471	53.558
0.95255	54.5478
0.974629	55.7577
0.121291	8.64745
0.097181	7.48337
0.087908	6.65189
0.054525	4.15743
0.035979	3.15965
0.022997	2.16186
0.010015	1.49667
0.991098	56.3747
