Adsorption isotherm of Nitrogen on [C=C]25%â€“TAPH-COFs
DOI: 10.1039/c6ra04859e
Article source: Figure 3c
Adsorbate Nitrogen: InChIKey IJGRMHOSHXDMSA-UHFFFAOYSA-N
Kind: experiment
Temperature: 77 K
Tabular data in the source: 0
pressure (bar)	uptake (cm3(STP)/g)
0.055897	185.342
0.081228	204.844
0.106559	214.596
0.13189	222.396
0.157222	230.197
0.182553	236.048
0.207884	243.849
0.233215	249.699
0.258547	253.6
0.283878	261.401
0.309209	265.301
0.33454	271.152
0.359872	277.002
0.385203	282.853
0.410534	286.754
0.435865	292.604
0.461197	298.455
0.486528	304.305
0.511859	310.156
0.53719	314.057
0.562522	319.907
0.587853	323.808
0.613184	329.658
0.638515	335.509
0.663847	341.359
0.689178	343.31
0.714509	349.16
0.73984	355.011
0.765172	360.862
0.790503	368.663
0.815834	374.513
0.841165	380.364
0.866497	386.214
0.891828	392.065
0.917159	397.916
0.94249	405.717
0.967887	413.284
0.991877	433.579
1.01369	487.085
0.034458	167.897
0.021373	151.292
0.01483	134.686
0.008287	114.391
0.006107	105.166
0.001745	81.1808
0.001745	68.2657
0.003926	53.5055
0.001745	40.5904
0.003926	31.3653
0.003926	94.0959
0.13189	279.11
0.157222	283.01
0.182553	290.811
0.207884	294.237
0.233215	300.088
0.258547	303.514
0.28475	307.995
0.310082	313.846
0.335413	318.748
0.360744	323.597
0.386075	327.498
0.411407	333.348
0.436738	338.25
0.462069	343.099
0.4874	347
0.511859	352.744
0.53719	357.91
0.562522	362.495
0.587853	368.345
0.613184	370.296
0.638515	378.096
0.663847	381.997
0.689178	387.847
0.714509	389.798
0.73984	395.648
0.765172	401.499
0.790503	405.399
0.815834	411.25
0.841165	417.101
0.866497	421.001
0.891828	428.802
0.917159	432.702
0.94249	440.503
0.967822	452.204
0.030097	221.402
0.054087	241.697
0.084619	263.838
0.108609	269.373
0.989696	477.86
1.01151	518.45
