Adsorption isotherm of Carbon Dioxide on [HO]50%â€“TAPH-COF
DOI: 10.1039/c6ra04859e
Article source: Figure 6a
Adsorbate Carbon Dioxide: InChIKey CURLTUGMZLYLDI-UHFFFAOYSA-N
Kind: experiment
Temperature: 298 K
Tabular data in the source: 0
pressure (bar)	uptake (mg/g)
0.13638	4.70522
0.158475	5.57322
0.18057	6.29654
0.202665	7.09221
0.22476	7.81553
0.246856	8.53886
0.268951	9.26219
0.291046	9.98552
0.313141	10.9258
0.335237	11.5768
0.357332	12.4448
0.379427	13.2764
0.401522	14.1444
0.423617	15.0124
0.445713	15.8804
0.467808	16.6037
0.489903	17.3993
0.511998	18.158
0.534094	18.9536
0.556189	19.677
0.578284	20.6173
0.600379	21.34
0.622474	22.1357
0.64457	23.0049
0.666665	24.0175
0.68876	24.7397
0.710855	25.3907
0.731713	26.1846
0.753808	26.9803
0.775904	27.7759
0.797999	28.8968
0.819475	29.9106
0.841571	30.851
0.863666	31.6466
0.885761	32.2976
0.907856	33.0209
0.925002	33.6719
0.947097	34.4676
0.969193	35.3356
0.118535	4.17049
0.096882	3.36847
0.076776	2.63937
0.065949	2.18367
0.052029	1.8738
0.039656	1.41811
0.027283	0.871282
0.01955	0.506729
0.987441	36.3788
