Adsorption isotherm of Carbon Dioxide on [C=C]25%â€“TAPH-COF
DOI: 10.1039/c6ra04859e
Article source: Figure 6c
Adsorbate Carbon Dioxide: InChIKey CURLTUGMZLYLDI-UHFFFAOYSA-N
Kind: experiment
Temperature: 273 K
Tabular data in the source: 0
pressure (bar)	uptake (mg/g)
0.012764	2.1242
0.027352	4.21358
0.047411	6.12885
0.063822	8.00929
0.082057	9.26291
0.102115	11.0041
0.123997	12.9193
0.147702	14.2774
0.165937	15.8445
0.184172	17.4115
0.19876	18.6303
0.215171	19.8491
0.234357	20.8392
0.256066	21.9907
0.277774	23.1423
0.300875	24.6895
0.322757	25.5601
0.340992	26.953
0.36242	27.8879
0.385587	29.6904
0.407295	30.9116
0.429004	31.7122
0.450712	32.8637
0.47242	34.0153
0.494129	35.0517
0.518026	36.1791
0.539005	37.6762
0.560713	38.8278
0.582421	39.9793
0.60413	41.246
0.625838	42.6279
0.647547	43.6643
0.669255	44.8159
0.690964	45.7344
0.712672	46.6529
0.73438	48.1499
0.756089	49.1863
0.778527	50.5951
0.800235	51.5164
0.822673	52.6224
0.844381	53.8891
0.86609	55.0407
0.887798	56.3074
0.909507	57.3438
0.931215	58.2651
0.948942	58.9901
0.972648	60.5572
0.992706	61.4277
