Adsorption isotherm of Nitrogen on [C=C]50%â€“TAPH-COF
DOI: 10.1039/c6ra04859e
Article source: Figure S12c/S11
Adsorbate Nitrogen: InChIKey IJGRMHOSHXDMSA-UHFFFAOYSA-N
Kind: experiment
Temperature: 298 K
Tabular data in the source: 0
pressure (bar)	uptake (mg/g)
0.375	1.19883
0.403217	1.35047
0.428217	1.4193
0.453217	1.48813
0.478217	1.55697
0.503217	1.66022
0.528217	1.69464
0.557813	1.80628
0.582812	1.8579
0.607812	1.92674
0.629596	1.92998
0.654596	2.01602
0.679596	2.05044
0.704596	2.13648
0.729596	2.22253
0.754596	2.32578
0.779596	2.36019
0.804596	2.44624
0.829596	2.53228
0.854596	2.5667
0.882812	2.61367
0.909191	2.63179
0.934651	2.72439
0.959651	2.82066
0.984651	2.92391
1.0046	2.96249
0.354779	1.17998
0.329044	1.03569
0.305147	0.96121
0.279412	0.854151
0.252757	0.747091
0.226103	0.66796
0.203125	0.630721
0.179228	0.523662
0.155331	0.444531
0.13511	0.374709
0.109375	0.304888
0.086397	0.239721
0.061581	0.137316
0.068015	0.169899
0.045956	0.118697
0.033088	0.062839
0.017463	0.030256
