Adsorption isotherm of Nitrogen on [HO]25%â€“TAPH-COF
DOI: 10.1039/c6ra04859e
Article source: Figure S12a/S9
Adsorbate Nitrogen: InChIKey IJGRMHOSHXDMSA-UHFFFAOYSA-N
Kind: experiment
Temperature: 273 K
Tabular data in the source: 0
pressure (bar)	uptake (mg/g)
0.090478	0.111163
0.117284	0.300945
0.14409	0.463616
0.170896	0.662435
0.197702	0.834143
0.224508	1.03296
0.251314	1.20467
0.27812	1.38541
0.304926	1.5029
0.330101	1.65923
0.358538	1.83855
0.385344	2.00122
0.41215	2.17293
0.435605	2.29644
0.45571	2.38079
0.532777	2.82266
0.559583	2.94919
0.586389	3.03956
0.613195	3.16608
0.640001	3.30164
0.666807	3.4372
0.693613	3.57276
0.720419	3.73543
0.747225	3.91617
0.774031	4.05173
0.800837	4.28971
0.827643	4.47648
0.848525	4.68097
0.874628	4.84524
0.89638	5.03298
0.925746	5.18552
0.947498	5.32632
0.973602	5.46712
0.989916	5.61966
0.480907	2.58065
0.500484	2.65105
0.517886	2.70971
0.076311	0.069643
0.106764	0.198714
