Adsorption isotherm of Nitrogen on [HO]75%â€“TAPH-COF
DOI: 10.1039/c6ra04859e
Article source: Figure S12a/S9
Adsorbate Nitrogen: InChIKey IJGRMHOSHXDMSA-UHFFFAOYSA-N
Kind: experiment
Temperature: 273 K
Tabular data in the source: 0
pressure (bar)	uptake (mg/g)
0.322356	2.37243
0.347356	2.55318
0.372356	2.73392
0.397356	2.84237
0.425	3.11682
0.45	3.26142
0.475	3.40601
0.5	3.55061
0.525	3.7675
0.55	3.87595
0.575	4.0567
0.6	4.20129
0.625	4.41819
0.65	4.49048
0.675	4.63508
0.701511	4.75827
0.726511	4.86671
0.751511	4.97516
0.776511	5.11976
0.801511	5.26435
0.297386	2.22
0.273216	2.04888
0.250557	1.89406
0.224877	1.72295
0.199952	1.52739
0.173895	1.26257
0.153502	1.05071
0.128577	0.863295
0.094589	0.590324
0.077217	0.484395
0.068153	0.394763
0.058335	0.31328
0.044739	0.239944
0.03341	0.174757
0.02208	0.101422
0.00924	0.052532
0.825715	5.3449
0.848374	5.46712
0.867256	5.42638
0.895202	5.52416
0.924658	5.5812
0.945807	5.65454
0.970731	5.79306
0.990369	5.90714
