Adsorption isotherm of Nitrogen on [C=C]25%â€“TAPH-COF
DOI: 10.1039/c6ra04859e
Article source: Figure S12c/S11
Adsorbate Nitrogen: InChIKey IJGRMHOSHXDMSA-UHFFFAOYSA-N
Kind: experiment
Temperature: 298 K
Tabular data in the source: 0
pressure (bar)	uptake (mg/g)
1.01011	2.79519
0.98989	2.76726
0.971507	2.73468
0.935662	2.5578
0.912684	2.5159
0.884191	2.38091
0.857537	2.25524
0.830882	2.17145
0.814338	2.15749
0.782169	2.04112
0.767463	2.00388
0.742647	1.96664
0.714154	1.91544
0.689338	1.8782
0.658088	1.76649
0.636949	1.7339
0.610294	1.68736
0.587316	1.6315
0.566176	1.57098
0.540441	1.51978
0.511029	1.44065
0.487132	1.37548
0.454044	1.24515
0.436581	1.1986
0.404412	1.11016
0.381434	1.03569
0.359375	0.979829
0.329963	0.914663
0.303309	0.858805
0.277574	0.798293
0.252757	0.728472
0.222426	0.616757
0.19761	0.574864
0.181066	0.523662
0.155331	0.46315
0.141544	0.384019
0.118566	0.323507
0.099265	0.25834
0.079963	0.183863
0.0625	0.132661
0.049632	0.090768
0.033088	0.05353
0.019301	0.016292
