Adsorption isotherm of Carbon Dioxide on [N=N]50%â€“TAPH-COF
DOI: 10.1039/c6ra04859e
Article source: Figure 6b
Adsorbate Carbon Dioxide: InChIKey CURLTUGMZLYLDI-UHFFFAOYSA-N
Kind: experiment
Temperature: 273 K
Tabular data in the source: 0
pressure (bar)	uptake (mg/g)
0.165072	24.6135
0.187151	26.7436
0.209229	29.2287
0.231308	31.7137
0.253387	33.8438
0.275466	35.9738
0.297545	38.8139
0.319624	41.299
0.341702	43.7841
0.363781	46.6241
0.38586	49.1092
0.407939	51.5943
0.430018	54.0794
0.452097	56.2094
0.474175	59.0495
0.496254	61.1796
0.518333	64.0196
0.540412	66.8597
0.562491	68.9898
0.58457	71.1198
0.606648	72.8949
0.628727	75.0249
0.650806	77.51
0.672885	80.3501
0.694964	82.4801
0.717043	84.6102
0.739121	86.7403
0.7612	90.2904
0.783279	92.4204
0.805358	94.1955
0.827437	97.0356
0.849515	99.1656
0.871594	101.651
0.893673	104.491
0.915752	106.621
0.937831	109.816
0.95991	111.591
0.981988	113.366
0.102745	16.3178
0.084199	13.6339
0.063798	10.9501
0.045252	8.80301
0.03227	7.1927
0.017433	5.04563
0.128709	19.0016
0.14911	21.6855
