Adsorption isotherm of Carbon Dioxide on [N=N]50%â€“TAPH-COF
DOI: 10.1039/c6ra04859e
Article source: Figure 6b
Adsorbate Carbon Dioxide: InChIKey CURLTUGMZLYLDI-UHFFFAOYSA-N
Kind: experiment
Temperature: 298 K
Tabular data in the source: 0
pressure (bar)	uptake (mg/g)
0.121649	9.97025
0.143745	11.3756
0.16584	12.8836
0.187935	14.8912
0.21003	16.4973
0.232126	17.7018
0.254221	19.9117
0.276316	21.1163
0.298411	22.7223
0.320506	24.3284
0.342602	25.7337
0.364697	27.3398
0.386792	28.9458
0.408887	30.1504
0.430983	31.9572
0.453078	33.3625
0.475173	34.7678
0.497268	36.7754
0.519363	37.9799
0.541459	39.1844
0.563554	40.9913
0.585649	42.1958
0.607744	43.4003
0.629839	44.6049
0.651935	46.4117
0.67403	48.0178
0.696125	49.2223
0.71822	50.8284
0.740316	52.2337
0.762411	53.4382
0.784506	54.6427
0.806601	56.6503
0.828696	58.0556
0.850792	59.0594
0.872887	60.4647
0.894982	61.4685
0.917077	63.6768
0.939173	65.2829
0.961268	66.2867
0.983363	67.692
0.098429	8.60034
0.082962	7.33558
0.065949	6.07083
0.052029	5.05902
0.038109	4.30017
0.021096	3.03541
