Adsorption isotherm of Argon on [N=N]50%â€“TAPH-COF
DOI: 10.1039/c6ra04859e
Article source: Figure S6a
Adsorbate Argon: InChIKey XKRFYHLGVUSROY-UHFFFAOYSA-N
Kind: experiment
Temperature: 87 K
Tabular data in the source: 0
pressure (bar)	uptake (cm3(STP)/g)
0.349209	147.849
0.377002	158.956
0.402475	166.017
0.427948	173.449
0.453421	180.51
0.479819	192.058
0.505292	199.118
0.530765	206.179
0.556238	214.355
0.581711	224.016
0.607184	232.563
0.632657	243.34
0.65813	251.516
0.683602	261.549
0.709075	269.725
0.734548	278.643
0.760021	288.119
0.783569	297.354
0.810104	308.348
0.833666	315.984
0.861049	326.696
0.984183	418.74
0.882397	336.256
0.907828	348.061
0.935571	361.551
0.961001	378.415
0.251252	110.287
0.302114	127.15
0.325233	138.954
0.276683	118.718
0.098668	61.3828
0.128722	69.8145
0.154153	78.2462
0.177272	86.6779
0.198079	90.0506
0.221198	96.796
0.077861	51.2648
0.05243	39.4604
0.031623	29.3423
0.008504	22.597
0.00388	12.4789
0.001568	2.36088
0.050662	102.042
0.075994	113.19
0.101325	124.338
0.126656	133.629
0.151987	141.061
0.177319	148.493
0.20265	155.925
0.225207	164.375
0.250538	171.808
0.275869	179.24
0.303975	186.494
0.329306	193.926
0.354637	201.359
0.379969	205.075
0.4053	214.365
0.429706	222.128
0.455038	229.56
0.480369	236.993
0.5057	244.425
0.531031	253.715
0.556363	261.147
0.581694	268.58
0.607025	276.012
0.633281	281.764
0.658613	291.054
0.683944	298.486
0.709275	304.06
0.731832	310.309
0.759937	315.718
0.785269	323.15
0.8106	334.298
0.834082	342.583
0.859413	352.039
0.884744	363.187
0.910075	374.335
0.935407	391.058
0.956378	408.769
0.98412	459.359
1.00493	540.304
1.00493	552.108
0.020063	90.0506
