Adsorption isotherm of Argon on [N=N]75%â€“TAPH-COF
DOI: 10.1039/c6ra04859e
Article source: Figure S6a
Adsorbate Argon: InChIKey XKRFYHLGVUSROY-UHFFFAOYSA-N
Kind: experiment
Temperature: 87 K
Tabular data in the source: 0
pressure (bar)	uptake (cm3(STP)/g)
0.046051	42.9004
0.0731	51.4239
0.097724	57.2045
0.124046	64.1619
0.14867	71.2844
0.174143	77.7463
0.199616	84.2908
0.227273	89.688
0.25129	94.3951
0.276884	101.323
0.301508	110.427
0.326981	115.878
0.352454	121.823
0.377927	128.265
0.4034	134.384
0.428873	139.289
0.454346	146.845
0.480668	151.284
0.505292	158.489
0.530765	166.095
0.558421	169.761
0.581711	178.977
0.607184	185.74
0.632657	190.324
0.65813	196.517
0.683602	203.578
0.709075	211.01
0.734548	218.071
0.760021	225.503
0.785494	233.307
0.810967	240.739
0.83644	248.171
0.861913	257.833
0.887386	267.421
0.912859	276.909
0.961258	311.345
0.984183	362.256
0.024687	32.715
0.006192	25.9696
0.00388	14.1653
0.935571	289.039
0.022213	61.4131
0.047686	71.1121
0.073159	80.0431
0.098632	86.0666
0.124105	91.0958
0.149578	98.5775
0.175051	103.32
0.200524	109.12
0.225997	115.069
0.25147	121.783
0.276943	127.721
0.302416	135.264
0.326039	140.872
0.351512	144.871
0.376985	152.588
0.402458	155.999
0.427931	163.328
0.453404	168.357
0.478877	173.052
0.50435	180.273
0.529823	185.625
0.555296	192.314
0.580769	200.737
0.602543	202.339
0.628016	208.458
0.653489	215.581
0.678037	219.264
0.70351	227.659
0.728983	234.831
0.754456	242.407
0.779929	249.881
0.805402	256.549
0.830875	264.378
0.930947	327.825
0.956378	364.924
0.98412	405.396
1.00261	511.636
0.859278	275.548
0.882397	285.666
0.907828	302.53
