Adsorption isotherm of Nitrogen on [HO]25%â€“TAPH-COF
DOI: 10.1039/c6ra04859e
Article source: Figure S12a/S9
Adsorbate Nitrogen: InChIKey IJGRMHOSHXDMSA-UHFFFAOYSA-N
Kind: experiment
Temperature: 298 K
Tabular data in the source: 0
pressure (bar)	uptake (mg/g)
0.997243	3.49859
0.981618	3.45352
0.952206	3.34648
0.928309	3.1662
0.904412	3.09859
0.875919	2.96901
0.854779	2.89014
0.825368	2.80563
0.806985	2.7493
0.78125	2.60845
0.745404	2.4338
0.725184	2.41127
0.694853	2.31549
0.67739	2.24789
0.647059	2.14648
0.631434	2.09014
0.602022	2.00563
0.576287	1.94366
0.553309	1.87042
0.525735	1.76901
0.502757	1.71268
0.477941	1.62253
0.44761	1.53239
0.431985	1.47042
0.401654	1.38592
0.377757	1.27324
0.352022	1.22817
0.327206	1.16056
0.301471	1.04225
0.274816	0.935211
0.248162	0.850704
0.226103	0.783099
0.203125	0.715493
0.175551	0.614085
0.151654	0.501408
0.130515	0.422535
0.106618	0.321127
0.090993	0.259155
0.07261	0.191549
0.043199	0.090141
0.026654	0.022535
0.060662	0.11831
