Adsorption isotherm of Nitrogen on [C=C]50%â€“TAPH-COF
DOI: 10.1039/c6ra04859e
Article source: Figure 3c
Adsorbate Nitrogen: InChIKey IJGRMHOSHXDMSA-UHFFFAOYSA-N
Kind: experiment
Temperature: 77 K
Tabular data in the source: 0
pressure (bar)	uptake (cm3(STP)/g)
0.309209	164.364
0.33454	168.528
0.359872	174.643
0.385203	178.807
0.410534	184.658
0.435865	191.931
0.461197	199.732
0.486528	207.533
0.511859	215.334
0.53719	219.234
0.562522	227.035
0.587853	231.937
0.613184	239.738
0.638515	247.539
0.663847	253.389
0.689178	259.24
0.715382	266.988
0.73984	281.641
0.765172	289.442
0.790503	299.193
0.815834	305.043
0.841165	312.844
0.866497	318.695
0.891828	326.496
0.917159	334.297
0.94249	345.998
0.991877	381.919
1.01151	452.03
0.283082	156.827
0.261273	149.446
0.235102	143.911
0.208931	134.686
0.18276	123.616
0.15877	114.391
0.132599	105.166
0.11079	99.631
0.084619	94.0959
0.060629	84.8708
0.036639	75.6458
0.970068	357.934
0.310954	194.622
0.336285	198.787
0.361616	204.901
0.386948	211.279
0.412279	217.868
0.43761	225.141
0.462941	229.99
0.488273	237.791
0.513604	245.592
0.538935	249.492
0.565139	255.079
0.59047	259.981
0.615801	267.782
0.641133	275.583
0.666464	281.434
0.691795	287.284
0.717999	295.032
0.740713	301.567
0.766044	309.368
0.791375	319.119
0.816707	324.97
0.842038	332.771
0.867369	338.621
0.8927	346.422
0.918032	354.223
0.94249	361.496
0.994494	397.417
0.284827	187.085
0.263018	179.705
0.236847	174.17
0.208931	169.373
0.18276	158.303
0.15877	152.03
0.132599	142.804
0.11079	137.269
0.084619	128.782
0.060629	119.557
0.032277	108.118
0.970068	368.266
0.027916	75.6458
0.017011	68.2657
0.012649	57.1956
0.012649	47.9705
0.010468	35.0554
0.012649	23.9852
