Adsorption isotherm of Nitrogen on [N=N]50%â€“TAPH-COF
DOI: 10.1039/c6ra04859e
Article source: Figure S12b/S10
Adsorbate Nitrogen: InChIKey IJGRMHOSHXDMSA-UHFFFAOYSA-N
Kind: experiment
Temperature: 273 K
Tabular data in the source: 0
pressure (bar)	uptake (mg/g)
0.375	1.10995
0.4	1.18287
0.425	1.25483
0.45	1.32775
0.475	1.38244
0.5	1.43713
0.525	1.513
0.55	1.5884
0.575	1.66132
0.6	1.73424
0.625	1.78893
0.65	1.86185
0.675	2.00769
0.7	2.08061
0.725	2.11707
0.75	2.18999
0.775	2.28113
0.8	2.29936
0.825	2.37228
0.85	2.40874
0.875	2.51812
0.9	2.57281
0.925	2.66396
0.95	2.71865
0.975	2.8098
0.34006	1.00659
0.315588	0.947414
0.295648	0.898104
0.269364	0.804415
0.236735	0.740312
0.221327	0.681139
0.199575	0.651553
0.170571	0.548002
0.147006	0.429658
0.121628	0.340899
0.095344	0.266934
0.071779	0.173245
0.051839	0.109142
0.032806	0.035177
