Adsorption isotherm of Nitrogen on [C=C]100%â€“TAPH-COF
DOI: 10.1039/c6ra04859e
Article source: Figure S12c/S11
Adsorbate Nitrogen: InChIKey IJGRMHOSHXDMSA-UHFFFAOYSA-N
Kind: experiment
Temperature: 273 K
Tabular data in the source: 0
pressure (bar)	uptake (mg/g)
0.120552	0.433406
0.238653	0.950857
0.265459	1.04531
0.292265	1.15551
0.319071	1.24997
0.340439	1.36546
0.367245	1.44418
0.394051	1.54651
0.415419	1.60625
0.442225	1.68497
0.469031	1.76368
0.495837	1.84239
0.512673	1.94408
0.539479	2.02279
0.566285	2.05428
0.593091	2.18809
0.619897	2.22745
0.646703	2.25107
0.673509	2.33765
0.73981	2.6236
0.766616	2.70232
0.793422	2.75742
0.820228	2.82826
0.847034	2.89123
0.87384	3.00931
0.887957	3.14841
0.914763	3.21925
0.941569	3.31371
0.968375	3.37668
0.99183	3.5
0.140662	0.570617
0.169665	0.604684
0.19323	0.715401
0.222234	0.885735
0.002896	0.004258
0.020117	0.021292
0.036431	0.063875
0.054558	0.110717
0.073592	0.195884
0.09625	0.3066
0.698976	2.35912
0.71801	2.53797
