Adsorption isotherm of Argon on [C=C]100%â€“TAPH-COF
DOI: 10.1039/c6ra04859e
Article source: Figure S6b
Adsorbate Argon: InChIKey XKRFYHLGVUSROY-UHFFFAOYSA-N
Kind: experiment
Temperature: 87 K
Tabular data in the source: 0
pressure (bar)	uptake (cm3(STP)/g)
0.030116	33.771
0.05474	40.6886
0.081062	49.9724
0.10746	56.6328
0.132933	63.0211
0.158405	68.6793
0.183878	73.2423
0.209351	78.718
0.234824	83.6461
0.260297	87.9116
0.282071	94.0974
0.307544	98.8795
0.333017	105.049
0.359415	108.489
0.384888	112.066
0.410361	118.017
0.435834	121.923
0.461307	126.985
0.48678	130.027
0.510054	136.078
0.535527	142.01
0.561	147.029
0.586473	152.961
0.611946	156.611
0.637419	161.174
0.664498	167.4
0.688697	171.872
0.714898	177.713
0.737096	184.283
0.766163	189.394
0.790871	192.314
0.816344	196.768
0.840798	201.221
0.868054	207.829
0.893527	215.495
0.917406	222.018
0.941987	230.505
0.970249	240.53
0.991056	265.378
1.01186	316.731
0.031041	18.5308
0.055665	25.4484
0.081987	34.7322
0.108384	41.3926
0.133857	47.7809
0.15933	53.4391
0.184803	58.0021
0.210276	63.4778
0.235749	68.4059
0.261222	72.6714
0.282996	78.8572
0.333942	89.8086
0.36034	93.2488
0.385813	96.8262
0.411286	102.776
0.436759	106.682
0.462232	111.744
0.487705	114.786
0.510979	120.837
0.536452	126.769
0.561925	131.789
0.587398	137.721
0.612871	141.371
0.638344	145.934
0.665423	152.16
0.689622	156.632
0.715823	162.472
0.73802	169.043
0.767087	174.154
0.789947	182.375
0.81542	186.829
0.839874	191.282
0.86713	197.889
0.892603	205.555
0.916481	212.079
0.941062	220.566
0.969324	230.591
0.99383	248.15
0.309049	94.7543
0.017752	15.2402
0.010816	10.2706
