Adsorption isotherm of Nitrogen on [HO]50%â€“TAPH-COF
DOI: 10.1039/c6ra04859e
Article source: Figure S12a/S9
Adsorbate Nitrogen: InChIKey IJGRMHOSHXDMSA-UHFFFAOYSA-N
Kind: experiment
Temperature: 298 K
Tabular data in the source: 0
pressure (bar)	uptake (mg/g)
0.984375	3.2
0.956801	3.05352
0.928309	2.89578
0.897978	2.7831
0.876838	2.72113
0.851103	2.59718
0.828125	2.59718
0.80239	2.49014
0.786765	2.40563
0.76011	2.26479
0.725184	2.18591
0.701287	2.13521
0.679228	2.06197
0.655331	1.98873
0.630515	1.91549
0.600184	1.87042
0.575368	1.78592
0.546875	1.70704
0.529412	1.66197
0.501838	1.5662
0.485294	1.50986
0.449449	1.40282
0.421875	1.30704
0.400735	1.2507
0.375	1.16056
0.352941	1.10986
0.324449	1.03662
0.30239	0.940845
0.278493	0.850704
0.258272	0.783099
0.230699	0.721127
0.203125	0.647887
0.17739	0.552113
0.148897	0.439437
0.125919	0.4
0.107537	0.292958
0.087316	0.208451
0.067096	0.140845
0.047794	0.078873
0.03125	0.039437
