Adsorption isotherm of Carbon Dioxide on [C=C]100%â€“TAPH-COF
DOI: 10.1039/c6ra04859e
Article source: Figure 6c
Adsorbate Carbon Dioxide: InChIKey CURLTUGMZLYLDI-UHFFFAOYSA-N
Kind: experiment
Temperature: 273 K
Tabular data in the source: 0
pressure (bar)	uptake (mg/g)
0.04044	5.92534
0.083857	9.26488
0.105565	11.1074
0.127274	12.7196
0.148982	14.1015
0.170691	15.3682
0.257524	20.8957
0.279233	22.0473
0.300941	23.1988
0.32265	24.2353
0.344358	25.1565
0.366067	26.4232
0.387775	27.3445
0.409483	28.3809
0.431192	29.4173
0.4529	30.3386
0.474609	31.2598
0.496317	32.0659
0.518026	32.9872
0.539734	33.9084
0.561442	34.8297
0.583151	35.7509
0.604859	36.7873
0.626568	37.7086
0.648276	38.5147
0.669985	39.5511
0.691693	40.242
0.713401	41.1633
0.73511	41.9694
0.756818	42.7755
0.778527	43.4664
0.800235	44.618
0.821944	45.3089
0.843652	46.3454
0.86536	46.9211
0.887069	47.7272
0.908777	48.4182
0.930486	49.1091
0.952194	49.9152
0.973903	50.8365
0.995611	51.1819
0.19876	17.4115
0.220642	18.4562
0.242524	19.8491
0.096645	10.0987
0.071116	8.35752
0.060175	7.48694
0.052881	6.79048
0.032823	4.7011
0.025529	3.83053
0.020058	3.13407
0.010941	2.26349
