Adsorption isotherm of Carbon Dioxide on [HO]75%â€“TAPH-COF
DOI: 10.1039/c6ra04859e
Article source: Figure 6a
Adsorbate Carbon Dioxide: InChIKey CURLTUGMZLYLDI-UHFFFAOYSA-N
Kind: experiment
Temperature: 273 K
Tabular data in the source: 0
pressure (bar)	uptake (mg/g)
0.047318	4.28416
0.069397	6.48388
0.091476	8.13368
0.113555	9.67348
0.135633	11.2133
0.157712	12.6431
0.179791	14.0729
0.246769	18.6081
0.268848	19.9279
0.290927	21.1377
0.313006	22.5676
0.335085	23.8874
0.357164	25.0972
0.379242	26.5271
0.401321	27.9569
0.4234	29.0567
0.445479	30.4866
0.467558	31.8064
0.489636	33.0162
0.511715	34.2261
0.533794	35.4359
0.577952	37.7456
0.600031	38.9555
0.643446	41.5978
0.665525	42.9176
0.687604	44.2375
0.709683	45.4473
0.731762	46.8771
0.753841	47.977
0.775919	49.2968
0.797998	50.3967
0.820077	51.2766
0.842156	52.4864
0.864235	53.7424
0.886314	54.4023
0.908392	55.8578
0.930471	56.7377
0.95255	57.8376
0.024852	2.49446
0.010015	1.16408
0.970697	58.8692
0.992953	60.1996
0.623887	40.4102
0.201039	15.9645
0.225148	17.4612
0.551558	36.5854
