Adsorption isotherm of Nitrogen on "[N=N]75%â€“TAPH- COF"
DOI: 10.1039/c6ra04859e
Article source: Figure 3b
Adsorbate Nitrogen: InChIKey IJGRMHOSHXDMSA-UHFFFAOYSA-N
Kind: experiment
Temperature: 77 K
Tabular data in the source: 0
pressure (bar)	uptake (cm3(STP)/g)
0.227981	108.961
0.329306	126.709
0.354637	130.653
0.379969	136.569
0.4053	136.569
0.430631	140.514
0.455962	144.458
0.481294	148.402
0.506625	150.374
0.531956	158.262
0.557288	162.206
0.582619	166.15
0.60795	170.094
0.633281	177.982
0.658613	181.926
0.683944	185.871
0.709275	189.815
0.734606	195.731
0.759937	201.647
0.785269	207.563
0.8106	213.479
0.835931	221.367
0.861262	229.256
0.886594	237.144
0.911925	243.06
0.937256	258.836
0.987919	337.718
0.961344	280.597
0.25473	116.418
0.280901	118.284
0.300529	123.881
0.202388	105.224
0.178398	101.493
0.15877	97.7612
0.126057	92.1642
0.102067	84.7015
0.078077	80.9701
0.047544	75.3731
0.023554	67.9104
0.006107	60.4478
0.003926	47.3881
0.001745	36.194
0.050662	112.905
0.075994	116.849
0.101325	120.793
0.126656	124.737
0.151987	130.653
0.177319	134.597
0.20265	141.581
0.227981	145.525
0.253312	149.469
0.278644	153.413
0.303975	157.357
0.329306	161.301
0.354637	167.217
0.379969	169.189
0.4053	173.133
0.430631	175.531
0.455962	179.475
0.481294	183.419
0.506625	189.335
0.531956	193.279
0.557288	196.957
0.582619	200.901
0.60795	206.817
0.633281	208.789
0.658613	214.438
0.683944	218.382
0.709275	223.339
0.734606	227.283
0.759937	233.2
0.784396	237.623
0.809728	243.539
0.835059	249.455
0.86039	257.344
0.885721	269.176
0.911053	284.952
0.935173	304.851
0.956983	340.299
0.985334	385.075
1.00932	424.254
0.027916	105.224
