Adsorption isotherm of Nitrogen on [N=N]50%â€“TAPH-COF
DOI: 10.1039/c6ra04859e
Article source: Figure S12b/S10
Adsorbate Nitrogen: InChIKey IJGRMHOSHXDMSA-UHFFFAOYSA-N
Kind: experiment
Temperature: 298 K
Tabular data in the source: 0
pressure (bar)	uptake (mg/g)
0.425	0.491291
0.45	0.543755
0.475	0.56474
0.5	0.617204
0.525	0.63819
0.55	0.701146
0.575	0.743117
0.6	0.743117
0.625	0.806074
0.65	0.848045
0.675	0.890016
0.7	0.931987
0.725	0.973959
0.75	1.01593
0.775	1.0579
0.8	1.07889
0.825	1.14184
0.85	1.18381
0.875	1.22579
0.9	1.26776
0.925	1.30973
0.95	1.33071
0.975	1.38318
0.991728	1.42053
0.400735	0.44702
0.378676	0.412961
0.346507	0.370388
0.324449	0.376064
0.299632	0.327815
0.279412	0.273888
0.251838	0.254021
0.220588	0.208609
0.203125	0.180227
0.171875	0.154683
0.148897	0.117786
0.125	0.083728
0.097426	0.072375
0.084559	0.046831
0.063419	0.021287
0.045037	0.007096
0.013787	0.004257
