Adsorption isotherm of Argon on [C=C]75%â€“TAPH-COF
DOI: 10.1039/c6ra04859e
Article source: Figure S6b
Adsorbate Argon: InChIKey XKRFYHLGVUSROY-UHFFFAOYSA-N
Kind: experiment
Temperature: 87 K
Tabular data in the source: 0
pressure (bar)	uptake (cm3(STP)/g)
0.130355	118.804
0.155687	120.629
0.181018	126.105
0.206349	127.93
0.23168	133.406
0.257012	135.231
0.282343	138.881
0.307674	142.532
0.333005	146.182
0.358337	148.008
0.383668	149.833
0.408999	153.483
0.43433	157.134
0.459662	160.784
0.484068	169.91
0.509399	171.735
0.534731	175.386
0.561911	178.036
0.587243	182.524
0.612574	186.175
0.637905	189.825
0.663236	193.475
0.688568	195.301
0.713899	197.626
0.740155	201.764
0.765486	203.589
0.790817	207.24
0.814299	211.728
0.83963	217.203
0.864962	224.504
0.890293	229.98
0.914699	239.118
0.938181	257.196
0.965362	290.375
0.987919	307.964
1.01186	500.607
0.105603	112.976
0.077861	94.7543
0.057054	83.1585
0.026999	68.2496
0.130355	104.889
0.155687	106.714
0.181018	112.19
0.206349	114.015
0.23168	119.491
0.257012	121.316
0.282343	124.966
0.307674	128.617
0.333005	132.267
0.358337	134.093
0.383668	135.918
0.408999	139.568
0.43433	143.219
0.459662	146.869
0.484993	151.357
0.509399	155.833
0.534731	159.483
0.561911	162.133
0.587243	166.621
0.612574	170.272
0.637905	173.922
0.663236	177.573
0.688568	179.398
0.713899	181.723
0.740155	185.861
0.765486	187.687
0.790817	191.337
0.814299	195.825
0.105603	99.0613
0.077861	80.8393
0.057054	69.2435
0.026999	54.3346
0.840783	205.743
0.866214	214.025
0.924011	232.247
0.893957	222.308
0.991056	283.6
0.022375	45.058
0.01544	36.7753
0.013128	26.836
0.010816	16.8967
