Adsorption isotherm of Nitrogen on [HO]75%â€“TAPH-COF
DOI: 10.1039/c6ra04859e
Article source: Figure 3a
Adsorbate Nitrogen: InChIKey IJGRMHOSHXDMSA-UHFFFAOYSA-N
Kind: experiment
Temperature: 77 K
Tabular data in the source: 0
pressure (bar)	uptake (cm3(STP)/g)
0.075994	255.66
0.101325	266.439
0.126656	277.218
0.151987	285.303
0.177319	290.692
0.20265	296.082
0.227981	306.861
0.253312	312.25
0.278644	320.334
0.303975	325.724
0.329306	331.113
0.354637	339.198
0.379969	344.587
0.4053	352.671
0.430631	360.756
0.455962	363.45
0.481294	371.535
0.506625	376.924
0.531956	382.314
0.557288	387.703
0.582619	393.093
0.60795	401.177
0.633281	406.566
0.658613	411.956
0.683944	417.345
0.709275	422.735
0.734606	428.124
0.759937	436.209
0.785269	441.598
0.8106	446.988
0.835931	455.072
0.861262	463.156
0.886594	471.24
0.911925	490.104
0.937256	508.967
0.962587	533.22
0.987919	573.641
0.014431	171.829
0.005685	156.533
0.003498	138.687
0.003498	113.193
0.001312	95.3474
0.003498	74.9522
-0.000875	57.1064
0.001312	41.8101
0.023177	199.873
0.04723	230.465
1.00494	656.214
0.987449	625.621
0.978702	600.127
0.074245	289.312
0.099576	300.091
0.124907	310.87
0.150238	318.955
0.17557	324.344
0.200901	329.734
0.226232	340.513
0.251563	345.902
0.276895	353.986
0.302226	359.376
0.327557	364.765
0.352888	372.85
0.37822	378.239
0.403551	386.323
0.428882	394.408
0.454213	397.102
0.479545	405.187
0.504876	410.576
0.530207	415.966
0.555538	421.355
0.58087	426.745
0.606201	434.829
0.631532	440.218
0.656863	445.608
0.682195	450.997
0.707526	456.387
0.732857	461.776
0.758188	469.861
0.78352	475.25
0.808851	480.64
0.835057	489.744
0.860388	497.828
0.886594	511.011
0.911925	529.874
0.937256	548.737
0.962587	572.99
0.04548	264.117
