Adsorption isotherm of Carbon Dioxide on [N=N]25%â€“TAPH-COF
DOI: 10.1039/c6ra04859e
Article source: Figure 6b
Adsorbate Carbon Dioxide: InChIKey CURLTUGMZLYLDI-UHFFFAOYSA-N
Kind: experiment
Temperature: 298 K
Tabular data in the source: 0
pressure (bar)	uptake (mg/g)
0.022643	4.30017
0.031923	6.07083
0.044296	8.34739
0.053576	10.118
0.062856	11.6357
0.073682	13.6594
0.082962	15.9359
0.095335	17.4536
0.110802	20.2361
0.137095	23.2715
0.160272	27.1326
0.182367	30.5455
0.21003	34.1655
0.232126	36.9761
0.254221	39.9875
0.276316	42.5973
0.298411	46.0102
0.320506	48.2185
0.342602	50.8284
0.364697	53.4382
0.386792	56.048
0.408887	58.2564
0.430983	61.067
0.453078	63.4761
0.475173	65.6844
0.497268	68.495
0.519363	70.3018
0.541459	72.7109
0.563554	75.12
0.585649	77.3283
0.607744	79.3359
0.629839	81.745
0.651935	83.9533
0.67403	86.5631
0.696125	88.7715
0.71822	90.779
0.740316	92.7866
0.762411	94.7942
0.784506	97.0025
0.806601	99.4116
0.828696	101.018
0.850792	103.226
0.872887	105.234
0.894982	107.241
0.917077	109.65
0.939173	111.859
0.961268	113.866
0.983363	115.673
