Adsorption isotherm of Nitrogen on [C=C]75%â€“TAPH-COF
DOI: 10.1039/c6ra04859e
Article source: Figure S12c/S11
Adsorbate Nitrogen: InChIKey IJGRMHOSHXDMSA-UHFFFAOYSA-N
Kind: experiment
Temperature: 298 K
Tabular data in the source: 0
pressure (bar)	uptake (mg/g)
0.15046	0.430446
0.17546	0.49928
0.20046	0.568114
0.22546	0.636947
0.25046	0.705781
0.27546	0.774615
0.30046	0.843449
0.32546	0.912283
0.35046	0.981117
0.37546	1.01553
0.40046	1.08437
0.42546	1.1532
0.45046	1.22204
0.47546	1.29087
0.502757	1.35505
0.527757	1.38947
0.552757	1.4583
0.577757	1.49272
0.602757	1.52713
0.627757	1.59597
0.652757	1.6648
0.102022	0.295578
0.126838	0.360745
0.686581	1.70597
0.711397	1.76183
0.731618	1.827
0.758272	1.85493
0.786765	1.89682
0.811581	1.91078
0.830882	1.96199
0.861213	2.05508
0.886029	2.11559
0.912684	2.1668
0.934743	2.3204
0.965993	2.39022
0.988051	2.4135
1.0046	2.43677
0.01011	0.030256
0.023897	0.062839
0.034007	0.081458
0.046875	0.128006
0.058824	0.155935
0.07261	0.188518
0.090074	0.230411
