Adsorption isotherm of Argon on [N=N]25%â€“TAPH-COF
DOI: 10.1039/c6ra04859e
Article source: Figure S6a
Adsorbate Argon: InChIKey XKRFYHLGVUSROY-UHFFFAOYSA-N
Kind: experiment
Temperature: 87 K
Tabular data in the source: 0
pressure (bar)	uptake (cm3(STP)/g)
0.151987	111.332
0.177319	120.622
0.20265	129.912
0.227981	141.061
0.252388	151.866
0.277719	163.014
0.30305	170.446
0.328381	182.435
0.353713	191.725
0.379044	201.855
0.455038	238.023
0.480369	247.313
0.5057	256.604
0.531031	265.894
0.557288	278.048
0.582619	287.338
0.60795	298.486
0.633281	307.777
0.658613	318.925
0.683944	328.215
0.709275	339.364
0.734606	350.512
0.759937	361.66
0.785269	372.808
0.8106	383.957
0.835931	395.105
0.861262	406.253
0.886594	417.402
0.911925	430.917
0.403837	214.84
0.429267	228.331
0.124098	101.855
0.098668	88.3643
0.075549	76.5599
0.050118	64.7555
0.026999	51.2648
0.010816	46.2057
0.00388	34.4013
0.00388	27.656
0.00388	14.1653
0.933259	449.241
0.958689	474.536
0.981808	516.695
0.025331	124.835
0.050662	141.557
0.075994	152.362
0.101325	166.73
0.126656	177.878
0.151987	187.512
0.177319	198.66
0.199876	207.454
0.225207	216.744
0.250538	226.035
0.276794	235.999
0.302125	243.432
0.327457	252.722
0.352788	260.154
0.378119	268.426
0.40345	278.735
0.428782	288.025
0.454113	297.315
0.479444	304.747
0.504775	315.896
0.529182	322.488
0.554513	333.636
0.579844	341.068
0.605176	350.359
0.630507	359.649
0.655838	368.939
0.681169	376.371
0.706501	385.662
0.731832	393.094
0.757163	404.242
0.782494	413.532
0.807826	422.823
0.834082	434.811
0.859413	444.776
0.886594	455.072
0.911925	468.078
0.958689	503.204
0.98412	568.971
0.935571	476.223
