Adsorption isotherm of Carbon Dioxide on [HO]75%â€“TAPH-COF
DOI: 10.1039/c6ra04859e
Article source: Figure 6a
Adsorbate Carbon Dioxide: InChIKey CURLTUGMZLYLDI-UHFFFAOYSA-N
Kind: experiment
Temperature: 298 K
Tabular data in the source: 0
pressure (bar)	uptake (mg/g)
0.13638	4.96041
0.158475	5.8284
0.18057	6.55173
0.202665	7.34739
0.22476	8.07072
0.246856	8.79405
0.268951	9.51738
0.291046	10.2407
0.313141	11.181
0.335237	11.832
0.357332	12.7
0.379427	13.568
0.401522	14.436
0.423617	15.304
0.445713	16.172
0.467808	16.8953
0.489903	17.691
0.511998	18.559
0.534094	19.3546
0.556189	20.078
0.578284	21.0183
0.600379	21.814
0.622474	22.6096
0.64457	23.333
0.666665	24.3456
0.68876	25.2136
0.710855	25.8646
0.732951	26.8773
0.755046	27.6729
0.777141	28.4686
0.799236	29.6259
0.821331	30.4939
0.843427	31.4342
0.865522	32.2299
0.887617	32.8809
0.909712	33.6042
0.926858	34.4375
0.948953	35.2332
0.971049	36.1012
0.118535	4.42568
0.096882	3.51429
0.076776	2.78519
0.065949	2.32949
0.052029	1.8738
0.039656	1.41811
0.027283	0.871282
0.01955	0.506729
0.989297	37.1443
