Adsorption isotherm of Carbon Dioxide on [N=N]25%â€“TAPH-COF
DOI: 10.1039/c6ra04859e
Article source: Figure 6b
Adsorbate Carbon Dioxide: InChIKey CURLTUGMZLYLDI-UHFFFAOYSA-N
Kind: experiment
Temperature: 273 K
Tabular data in the source: 0
pressure (bar)	uptake (mg/g)
0.135633	35.9738
0.157712	41.654
0.179791	46.9792
0.20187	51.9493
0.223949	56.9194
0.246028	61.8896
0.268106	66.8597
0.290185	70.7648
0.312264	75.735
0.334343	80.3501
0.356422	84.9652
0.378501	89.5803
0.400579	94.5505
0.422658	98.4556
0.444737	103.426
0.466816	108.041
0.488895	112.301
0.510973	116.561
0.533052	120.821
0.555131	125.081
0.57721	129.341
0.599289	133.602
0.621368	138.217
0.643446	142.832
0.665525	147.092
0.687604	150.997
0.709683	155.257
0.731762	159.517
0.753841	163.777
0.775919	168.038
0.797998	171.943
0.820077	176.203
0.842156	181.173
0.864235	185.433
0.886314	189.693
0.941024	199.356
0.961424	204.187
0.978116	207.407
0.915059	195.062
0.106454	28.1267
0.089763	24.9061
0.082344	21.6855
0.069362	17.9281
0.058234	15.2442
0.047107	13.0972
0.034125	10.4133
0.022997	8.26624
