Adsorption isotherm of Carbon Dioxide on [N=N]100%â€“TAPH-COF
DOI: 10.1039/c6ra04859e
Article source: Figure 6b
Adsorbate Carbon Dioxide: InChIKey CURLTUGMZLYLDI-UHFFFAOYSA-N
Kind: experiment
Temperature: 298 K
Tabular data in the source: 0
pressure (bar)	uptake (mg/g)
0.018538	0.438296
0.040634	1.24132
0.062729	2.44587
0.084824	3.65041
0.106919	4.6542
0.129015	6.0595
0.15111	7.06328
0.173205	7.86631
0.1953	8.8701
0.217395	9.67313
0.239491	10.4762
0.261586	11.4799
0.283681	12.0822
0.305776	12.8852
0.327872	14.0898
0.349967	14.4913
0.372062	15.2943
0.394157	16.2981
0.416252	17.3019
0.438348	18.1049
0.460443	19.3095
0.482538	20.1125
0.504633	20.9155
0.526728	21.317
0.548824	22.5216
0.570919	23.7261
0.593014	23.7261
0.615109	24.7299
0.637205	25.7337
0.6593	26.7375
0.681395	27.7413
0.70349	28.7451
0.725585	29.7489
0.747681	30.9534
0.769776	31.3549
0.791871	32.1579
0.813966	33.3625
0.836062	34.1655
0.858157	34.9685
0.880252	35.9723
0.902347	36.7754
0.924442	37.3776
0.946538	38.5822
0.968633	39.586
0.981564	39.4604
