Adsorption isotherm of Nitrogen on [HO]25%â€“TAPH-COF
DOI: 10.1039/c6ra04859e
Article source: Figure 3a
Adsorbate Nitrogen: InChIKey IJGRMHOSHXDMSA-UHFFFAOYSA-N
Kind: experiment
Temperature: 77 K
Tabular data in the source: 0
pressure (bar)	uptake (cm3(STP)/g)
0.050662	155.954
0.075994	177.512
0.101325	188.291
0.126656	199.07
0.151987	204.46
0.177319	212.544
0.20265	217.934
0.227981	226.018
0.253312	231.408
0.278644	236.797
0.303975	242.187
0.329306	247.576
0.354637	252.966
0.379969	258.355
0.4053	263.745
0.430631	266.439
0.455962	274.524
0.481294	277.218
0.506625	285.303
0.531956	287.997
0.557288	290.692
0.582619	296.082
0.60795	304.166
0.633281	306.861
0.658613	312.25
0.683944	317.64
0.709275	320.334
0.734606	328.419
0.759937	336.503
0.785269	339.198
0.8106	344.587
0.835931	349.977
0.861262	355.366
0.886594	360.756
0.911925	368.84
0.937256	374.229
0.962587	387.703
0.989635	398.725
1.00713	449.713
1.00494	485.405
0.029737	136.138
0.014431	108.094
0.010495	85.1498
0.006122	64.7546
0.001749	34.1619
0.003936	16.3161
0.003936	6.11855
0.048913	203.883
0.074245	225.441
0.099576	236.22
0.124907	246.999
0.150238	252.389
0.17557	260.473
0.200901	265.862
0.226232	273.947
0.251563	279.336
0.276895	284.726
0.302226	290.115
0.327557	295.505
0.352888	300.894
0.37822	306.284
0.403551	311.673
0.428882	314.368
0.454213	322.452
0.479545	325.147
0.504876	333.231
0.530207	335.926
0.555538	338.621
0.58087	344.01
0.606201	352.094
0.631532	354.789
0.656863	360.179
0.682195	365.568
0.707526	368.263
0.732857	376.347
0.758188	384.431
0.78352	387.126
0.808851	392.516
0.834182	397.905
0.859513	403.295
0.884845	408.684
0.910176	416.768
0.935507	422.158
0.960838	435.632
0.987886	446.654
0.027988	184.066
0.012682	156.023
0.008746	133.078
0.004373	112.683
0	82.0905
0.002187	64.2447
0.002187	54.0472
1.00494	490.504
