Adsorption isotherm of Carbon Dioxide on [C=C]50%â€“TAPH-COF
DOI: 10.1039/c6ra04859e
Article source: Figure 6c
Adsorbate Carbon Dioxide: InChIKey CURLTUGMZLYLDI-UHFFFAOYSA-N
Kind: experiment
Temperature: 298 K
Tabular data in the source: 0
pressure (bar)	uptake (mg/g)
0.270188	11.7354
0.292283	12.4609
0.314379	13.5249
0.336474	14.3955
0.358569	15.1209
0.380664	16.0664
0.40276	17.1546
0.424855	18.0251
0.44695	18.7506
0.467808	19.7674
0.489903	20.4929
0.511998	21.3634
0.534094	22.234
0.556189	23.1771
0.578284	24.1202
0.600379	25.0633
0.622474	26.0064
0.64457	26.8044
0.666665	27.675
0.68876	28.6181
0.710855	29.3436
0.732951	30.2141
0.755046	31.0121
0.777141	32.1752
0.799236	32.9007
0.821331	33.6987
0.843427	34.6418
0.865522	35.5849
0.887617	36.4554
0.909712	37.3643
0.931807	38.3074
0.953903	39.2848
0.975998	40.373
0.998093	41.0984
0.25464	11.1883
0.202054	8.8117
0.175761	7.98903
0.151015	6.89214
0.129362	5.97806
0.096882	4.88117
0.081415	4.0585
0.064402	3.32724
0.052029	2.77879
0.035016	2.04753
0.02419	1.31627
0.016456	0.95064
0.2268	10
