Adsorption isotherm of Nitrogen on [C=C]75%â€“TAPH-COF
DOI: 10.1039/c6ra04859e
Article source: Figure S12c/S11
Adsorbate Nitrogen: InChIKey IJGRMHOSHXDMSA-UHFFFAOYSA-N
Kind: experiment
Temperature: 273 K
Tabular data in the source: 0
pressure (bar)	uptake (mg/g)
0.008943	7.63513
0.030164	7.76108
0.23121	8.80011
0.265834	8.93655
0.298225	9.09922
0.32168	9.17794
0.364123	9.31438
0.393163	9.44032
0.414059	2.20835
0.418852	9.53215
0.440865	2.3343
0.445658	9.63448
0.467671	2.45237
0.472464	9.74468
0.494477	2.58618
0.49927	9.8234
0.512673	2.69187
0.526076	9.90211
0.539479	2.77058
0.549531	9.96508
0.565378	2.86078
0.579688	10.0438
0.592184	2.98672
0.605377	10.1015
0.61899	3.07331
0.623248	10.154
0.64489	3.16777
0.660106	10.217
0.67079	3.31177
0.686912	10.2721
0.697143	3.44198
0.713718	10.335
0.740524	10.3901
0.764803	3.67347
0.76733	10.4846
0.792516	3.70922
0.794136	10.5318
0.819322	3.74857
0.846128	3.83516
0.872934	3.94536
0.89974	4.02408
0.914763	4.0615
0.941569	4.19531
0.968375	4.25041
0.98848	4.29764
0.720729	3.49184
0.7452	3.60256
0.342779	1.85664
0.366344	1.93329
0.393535	2.0951
0.317401	1.70334
0.297461	1.60114
0.27027	1.47338
0.242173	1.3797
0.195043	1.0731
0.169665	0.936835
0.143381	0.809084
0.221327	1.19234
0.113471	0.664301
0.092625	0.519517
0.066341	0.417317
0.042775	0.289567
0.021023	0.1533
0.010147	0.085167
