Adsorption isotherm of Nitrogen on [C=C]100%â€“TAPH-COF
DOI: 10.1039/c6ra04859e
Article source: Figure 3c
Adsorbate Nitrogen: InChIKey IJGRMHOSHXDMSA-UHFFFAOYSA-N
Kind: experiment
Temperature: 77 K
Tabular data in the source: 0
pressure (bar)	uptake (cm3(STP)/g)
0.032975	53.8288
0.058333	62.4098
0.081386	70.2106
0.109049	76.0613
0.132101	80.4493
0.159764	85.8123
0.185994	91.9155
0.209047	96.2059
0.232099	100.106
0.256305	102.837
0.387984	122.866
0.413342	126.767
0.436395	132.617
0.464058	136.518
0.48711	142.661
0.512468	146.503
0.537826	150.169
0.565028	155.422
0.587669	159.813
0.614871	163.651
0.639257	172.304
0.663847	173.572
0.689973	178.513
0.717175	181.919
0.763741	190.441
0.817403	198.16
0.83955	202.881
0.741073	188.192
0.789053	195.572
0.865384	208.487
0.895917	210.332
0.915545	215.867
0.941716	214.022
0.967887	219.557
0.991877	232.472
1.01369	271.218
0.361595	119.926
0.335424	116.236
0.309253	110.701
0.280901	108.856
0.032975	36.1167
0.058333	44.6976
0.081386	52.4985
0.109049	58.3491
0.132101	62.7371
0.159764	68.1002
0.185994	74.2033
0.209047	78.4938
0.232099	82.3942
0.256305	85.1245
0.387984	105.154
0.413342	109.055
0.436395	114.905
0.46493	116.592
0.487983	122.735
0.513341	126.577
0.538698	130.243
0.5659	135.496
0.588542	139.886
0.614871	145.939
0.639257	154.592
0.663847	155.86
0.689973	160.8
0.717175	164.207
0.763741	172.729
0.817403	180.448
0.83955	185.169
0.741073	170.48
0.789053	177.86
0.865384	190.775
0.895045	194.096
0.91729	201.845
0.942589	208.118
0.968759	213.653
0.996239	225.83
1.01718	266.052
0.361595	102.214
0.335424	98.524
0.309253	92.9889
0.280901	91.1439
0.017011	35.0554
0.008287	25.8303
0.008287	14.7601
