Adsorption isotherm of Nitrogen on [N=N]50%â€“TAPH- COF
DOI: 10.1039/c6ra04859e
Article source: Figure 3b
Adsorbate Nitrogen: InChIKey IJGRMHOSHXDMSA-UHFFFAOYSA-N
Kind: experiment
Temperature: 77 K
Tabular data in the source: 0
pressure (bar)	uptake (cm3(STP)/g)
0.20265	139.365
0.227981	147.253
0.278644	172.89
0.303975	176.834
0.329306	184.722
0.354637	190.638
0.455962	224.163
0.481294	232.051
0.506625	243.883
0.531956	251.771
0.557288	259.66
0.582619	269.52
0.60795	277.408
0.633281	285.296
0.658613	293.184
0.683944	303.045
0.709275	310.933
0.734606	320.793
0.759937	328.681
0.785269	336.569
0.8106	346.43
0.835931	354.318
0.861262	364.178
0.886594	372.066
0.911925	383.898
0.937256	391.787
0.963525	403.731
0.983153	416.791
0.427022	219.03
0.381223	204.104
0.407394	207.836
0.250368	159.328
0.176217	122.015
0.150046	116.418
0.126057	108.955
0.102067	101.493
0.075896	94.0299
0.051906	82.8358
0.027916	71.6418
0.01483	62.3134
0.012649	52.9851
0.008287	41.791
0.006107	28.7313
0.303103	195.49
0.328434	203.379
0.353765	209.295
0.45509	245.805
0.480421	253.693
0.505753	265.525
0.531084	270.428
0.556415	278.316
0.581746	288.177
0.607078	296.065
0.632409	303.953
0.65774	311.841
0.683071	321.701
0.708403	329.59
0.733734	339.45
0.759065	347.338
0.784396	355.226
0.809728	365.086
0.835059	372.975
0.86039	382.835
0.885721	390.723
0.911053	402.555
0.936384	410.443
0.426149	237.687
0.38035	222.761
0.406521	226.493
0.249496	177.985
0.151791	145.522
0.127801	138.06
0.983153	426.119
1.00714	454.104
0.961344	416.791
0.27872	189.179
0.204569	164.925
0.226378	172.388
0.176217	155.597
0.023554	92.1642
0.049725	108.955
0.078077	118.284
0.102067	127.612
