Adsorption isotherm of Carbon Dioxide on [C=C]100%â€“TAPH-COF
DOI: 10.1039/c6ra04859e
Article source: Figure 6c
Adsorbate Carbon Dioxide: InChIKey CURLTUGMZLYLDI-UHFFFAOYSA-N
Kind: experiment
Temperature: 298 K
Tabular data in the source: 0
pressure (bar)	uptake (mg/g)
0.129015	5.7659
0.15111	6.49136
0.173205	7.50702
0.1953	8.37758
0.217395	9.10304
0.239491	9.82851
0.261586	10.6991
0.283681	11.4971
0.305776	12.2951
0.327872	13.0931
0.349967	13.8911
0.372062	14.6891
0.394157	15.3421
0.416252	16.0675
0.438348	16.793
0.460443	17.5185
0.482538	18.2439
0.504633	19.1145
0.526728	19.6223
0.548824	20.3478
0.570919	21.0007
0.593014	21.5569
0.615109	22.3065
0.637205	23.1771
0.6593	23.6849
0.681395	24.4829
0.70349	25.1359
0.725585	25.7888
0.747681	26.3691
0.769776	26.9495
0.791871	27.6024
0.813966	28.1828
0.836062	28.9083
0.858157	29.7063
0.880252	30.3592
0.902347	31.1572
0.924442	31.8827
0.946538	32.6082
0.968633	33.4787
0.990728	34.0591
0.104615	4.78976
0.086055	4.24132
0.070589	3.69287
0.061309	3.14442
0.052029	2.68739
0.039656	2.23035
0.031923	1.6819
0.022643	1.40768
0.01491	1.04205
