Adsorption isotherm of Nitrogen on [HO]100%â€“TAPH-COF
DOI: 10.1039/c6ra04859e
Article source: Figure S12a/S9
Adsorbate Nitrogen: InChIKey IJGRMHOSHXDMSA-UHFFFAOYSA-N
Kind: experiment
Temperature: 273 K
Tabular data in the source: 0
pressure (bar)	uptake (mg/g)
0.325	2.13206
0.35	2.3128
0.375	2.49355
0.4	2.60199
0.425	2.78274
0.45	2.92734
0.475	3.07193
0.5	3.21653
0.525	3.43342
0.55	3.54187
0.575	3.72261
0.6	3.86721
0.625	4.0841
0.65	4.1564
0.675	4.301
0.7	4.51789
0.725	4.62634
0.75	4.73479
0.775	4.87938
0.8	5.02398
0.825	5.16857
0.85	5.31317
0.875	5.53006
0.9	5.53006
0.925	5.81925
0.95	5.89155
0.974254	6.2744
0.989916	6.33072
0.300029	1.97962
0.27586	1.80851
0.253201	1.65369
0.227521	1.48257
0.202596	1.28701
0.173895	1.12404
0.153502	0.912185
0.128577	0.724772
0.094589	0.58625
0.077217	0.464025
0.068153	0.374392
0.058335	0.292909
0.044739	0.219573
0.03341	0.154386
0.02208	0.081051
0.00924	0.032161
