Adsorption isotherm of Nitrogen on [N=N]25%â€“TAPH-COF
DOI: 10.1039/c6ra04859e
Article source: Figure S12b/S10
Adsorbate Nitrogen: InChIKey IJGRMHOSHXDMSA-UHFFFAOYSA-N
Kind: experiment
Temperature: 298 K
Tabular data in the source: 0
pressure (bar)	uptake (mg/g)
0.42454	0.544873
0.44954	0.586844
0.47454	0.626837
0.49954	0.699727
0.525	0.722132
0.55	0.795581
0.575	0.837552
0.6	0.848045
0.625	0.921495
0.65	0.94248
0.675	0.994944
0.7	1.03691
0.725	1.09987
0.75	1.14184
0.775	1.18381
0.8	1.24677
0.825	1.26776
0.85	1.3517
0.875	1.38318
0.9	1.43564
0.925	1.44613
0.95	1.4986
0.974265	1.52554
0.98989	1.58799
0.402574	0.503784
0.375919	0.438505
0.356618	0.421476
0.328125	0.407285
0.299632	0.347682
0.280331	0.299432
0.257353	0.27105
0.227022	0.219962
0.203125	0.183065
0.172794	0.149007
0.148897	0.114948
0.122243	0.097919
0.10386	0.069536
0.080882	0.061022
0.056985	0.029801
0.035846	0.024125
0.025735	0.021287
