Adsorption isotherm of Nitrogen on [N=N]75%â€“TAPH-COF
DOI: 10.1039/c6ra04859e
Article source: Figure S12b/S10
Adsorbate Nitrogen: InChIKey IJGRMHOSHXDMSA-UHFFFAOYSA-N
Kind: experiment
Temperature: 273 K
Tabular data in the source: 0
pressure (bar)	uptake (mg/g)
0.375	1.07797
0.4	1.11443
0.425	1.16912
0.45	1.20558
0.475	1.2785
0.5	1.33319
0.525	1.38788
0.55	1.42434
0.575	1.4608
0.6	1.49725
0.625	1.53371
0.65	1.57017
0.675	1.5884
0.7	1.62486
0.725	1.64309
0.75	1.66132
0.775	1.71601
0.8	1.75247
0.825	1.80716
0.85	1.84362
0.875	1.91654
0.9	1.97123
0.925	1.97123
0.95	1.97123
0.975	2.00769
0.989916	2.01744
0.346404	1.00659
0.323745	0.917828
0.296555	0.868518
0.271177	0.740312
0.244893	0.705794
0.22314	0.666346
0.198668	0.582519
0.168759	0.498692
0.148819	0.405003
0.123441	0.331037
0.095344	0.227486
0.071779	0.153521
0.052745	0.119004
0.031899	0.064763
0.014678	0.015453
