Adsorption isotherm of Nitrogen on [C=C]25%â€“TAPH-COF
DOI: 10.1039/c6ra04859e
Article source: Figure S12c/S11
Adsorbate Nitrogen: InChIKey IJGRMHOSHXDMSA-UHFFFAOYSA-N
Kind: experiment
Temperature: 273 K
Tabular data in the source: 0
pressure (bar)	uptake (mg/g)
0.0106	0.085167
0.021476	0.1533
0.042775	0.225692
0.066341	0.353442
0.092625	0.455642
0.113471	0.604684
0.143381	0.749468
0.169665	0.877218
0.195043	1.01348
0.221327	1.13272
0.242173	1.29454
0.27027	1.38822
0.297461	1.51597
0.317401	1.61817
0.342779	1.77147
0.369063	1.92903
0.393535	2.05678
0.414059	2.17003
0.440865	2.29597
0.467671	2.41404
0.494477	2.59044
0.512673	2.73445
0.539479	2.88556
0.565378	2.97575
0.592184	3.1017
0.61899	3.18828
0.64489	3.28274
0.67079	3.42675
0.692632	3.55146
0.723448	3.59404
0.744294	3.69624
0.767859	3.75586
0.794143	3.98581
0.818615	4.04542
0.844899	4.21576
0.874809	4.41164
0.898374	4.67566
0.921939	4.74379
0.950036	5.00781
0.976321	5.09297
0.991729	5.15259
