Adsorption isotherm of Carbon Dioxide on [HO]25%â€“TAPH-COF
DOI: 10.1039/c6ra04859e
Article source: Figure 6a
Adsorbate Carbon Dioxide: InChIKey CURLTUGMZLYLDI-UHFFFAOYSA-N
Kind: experiment
Temperature: 298 K
Tabular data in the source: 0
pressure (bar)	uptake (mg/g)
0.475	13.1668
0.5	14.0348
0.525	14.9028
0.55	15.7708
0.575	16.6388
0.6	17.5068
0.625	18.1578
0.65	19.2428
0.675	20.1108
0.7	20.9788
0.725	21.8468
0.75	22.7148
0.775	23.5828
0.8	24.4507
0.825	25.5357
0.85	26.6207
0.875	27.4887
0.9	28.3567
0.925	29.2247
0.95	30.0927
0.447971	12.6464
0.423224	11.5527
0.395385	10.7324
0.375278	9.9122
0.352079	8.89145
0.324239	7.98007
0.294853	7.15983
0.276293	6.613
0.248453	5.51934
0.223707	4.79023
0.197414	3.96999
0.172668	3.14974
0.147921	2.14722
0.127815	1.69153
0.096882	0.871282
0.069042	0.233314
0.975377	31.1292
0.984657	32.1317
