Adsorption isotherm of Nitrogen on [HO]50%â€“TAPH-COF
DOI: 10.1039/c6ra04859e
Article source: Figure 3a
Adsorbate Nitrogen: InChIKey IJGRMHOSHXDMSA-UHFFFAOYSA-N
Kind: experiment
Temperature: 77 K
Tabular data in the source: 0
pressure (bar)	uptake (cm3(STP)/g)
0.048913	199.804
0.074245	221.362
0.099576	232.141
0.124907	242.92
0.150238	248.31
0.17557	256.394
0.200901	261.783
0.226232	269.868
0.251563	275.257
0.276895	280.647
0.302226	286.036
0.327557	291.426
0.352888	296.815
0.37822	302.205
0.403551	307.594
0.428882	310.289
0.454213	318.373
0.479545	321.068
0.504876	329.152
0.530207	331.847
0.555538	334.542
0.58087	339.931
0.606201	348.015
0.631532	350.71
0.656863	356.1
0.682195	361.489
0.707526	364.184
0.732857	372.268
0.758188	380.352
0.78352	383.047
0.808851	388.437
0.834182	393.826
0.859513	399.216
0.884845	404.605
0.910176	412.689
0.935507	418.079
0.960838	431.553
0.027988	179.987
0.012682	151.944
0.008746	128.999
0.004373	108.604
0	78.0115
0.002187	60.1657
0.002187	49.9681
0.983076	470.108
0.987449	536.393
1.00494	597.578
0.048913	227.338
0.074245	248.896
0.099576	259.675
0.124907	270.454
0.150238	277.883
0.17557	285.967
0.200901	291.356
0.226232	298.421
0.251563	303.81
0.276895	309.2
0.302226	314.589
0.327557	319.979
0.352888	325.368
0.37822	330.758
0.403551	339.207
0.428882	341.901
0.454213	349.986
0.479545	352.68
0.504876	360.765
0.530207	363.459
0.555538	366.154
0.58087	371.544
0.606201	379.628
0.631532	379.263
0.656863	384.653
0.682195	390.042
0.707526	392.737
0.732857	400.821
0.758188	408.906
0.78352	411.6
0.808851	416.99
0.834182	422.379
0.859513	427.769
0.884845	433.158
0.910176	441.243
0.934632	455.81
0.959964	478.462
0.012682	151.944
0.008746	128.999
0.004373	108.604
0	78.0115
0.002187	60.1657
0.002187	49.9681
0.987449	536.393
1.00494	597.578
0.018804	176.928
0.029737	204.971
