Adsorption isotherm of Nitrogen on [N=N]25%â€“TAPH-COF
DOI: 10.1039/c6ra04859e
Article source: Figure S12b/S10
Adsorbate Nitrogen: InChIKey IJGRMHOSHXDMSA-UHFFFAOYSA-N
Kind: experiment
Temperature: 273 K
Tabular data in the source: 0
pressure (bar)	uptake (mg/g)
0.323912	1.07949
0.348912	1.17064
0.373912	1.24356
0.398912	1.33471
0.422281	1.42538
0.447281	1.4983
0.472281	1.57122
0.5	1.67955
0.525	1.78893
0.55	1.89831
0.575	2.00769
0.6	2.09884
0.625	2.18999
0.65	2.2629
0.675	2.35405
0.7	2.40874
0.725	2.51812
0.75	2.55458
0.775	2.68219
0.8	2.71865
0.825	2.77334
0.85	2.90094
0.875	2.91917
0.9	2.99209
0.925	3.06501
0.95	3.19262
0.973602	3.25118
0.984478	3.2571
0.298186	0.955304
0.270996	0.860628
0.248155	0.777787
0.224228	0.706781
0.195949	0.594354
0.173109	0.511513
0.153532	0.434589
0.126341	0.363582
0.096975	0.286658
0.070872	0.1979
0.051295	0.120976
0.038244	0.079556
0.017579	0.026301
