Adsorption isotherm of Nitrogen on [N=N]75%â€“TAPH-COF
DOI: 10.1039/c6ra04859e
Article source: Figure S12b/S10
Adsorbate Nitrogen: InChIKey IJGRMHOSHXDMSA-UHFFFAOYSA-N
Kind: experiment
Temperature: 298 K
Tabular data in the source: 0
pressure (bar)	uptake (mg/g)
0.952206	1.04588
0.930147	1.02318
0.900735	0.983444
0.878676	0.94087
0.855699	0.892621
0.823529	0.858562
0.803309	0.807474
0.772059	0.787606
0.747243	0.747871
0.721507	0.719489
0.69761	0.68543
0.67739	0.657048
0.65625	0.645695
0.629596	0.620151
0.60386	0.603122
0.578125	0.594607
0.555147	0.560549
0.522059	0.509461
0.497243	0.500946
0.47886	0.472564
0.452206	0.438505
0.431066	0.418638
0.401654	0.381741
0.378676	0.361873
0.352941	0.353359
0.325368	0.316462
0.297794	0.273888
0.277574	0.27105
0.244485	0.219962
0.221507	0.208609
0.192096	0.174551
0.173713	0.154683
0.147059	0.120624
0.126838	0.089404
0.092831	0.075213
0.07261	0.046831
0.045956	0.029801
0.019301	0.004257
0.995404	1.10549
0.975184	1.0544
