Adsorption isotherm of Carbon Dioxide on [C=C]75%â€“TAPH-COF
DOI: 10.1039/c6ra04859e
Article source: Figure 6c
Adsorbate Carbon Dioxide: InChIKey CURLTUGMZLYLDI-UHFFFAOYSA-N
Kind: experiment
Temperature: 273 K
Tabular data in the source: 0
pressure (bar)	uptake (mg/g)
0.128733	14.1272
0.149712	15.3287
0.17142	17.1328
0.193128	18.5147
0.214837	19.7814
0.236545	21.0481
0.258254	22.1997
0.279962	23.3512
0.301671	24.3394
0.324108	25.9785
0.345817	27.13
0.367525	28.2816
0.389234	29.4332
0.409483	30.6571
0.431192	31.8087
0.4529	32.73
0.474609	33.9512
0.496317	34.8724
0.518026	35.9088
0.539734	36.7149
0.561442	37.8451
0.583151	39.0905
0.604859	39.7814
0.626568	40.7027
0.648276	41.6239
0.669985	42.6603
0.691693	43.5816
0.713401	44.5028
0.73511	45.4241
0.756818	46.2302
0.778527	47.0363
0.800235	48.1879
0.821944	49.1091
0.843652	49.6849
0.86536	50.7213
0.887069	51.4123
0.908777	52.3335
0.930486	53.2548
0.952194	54.0609
0.973903	54.7518
0.12035	12.7104
0.103939	11.4916
0.091174	10.2728
0.07841	9.22809
0.069292	8.35752
0.060175	7.48694
0.052881	6.79048
0.043764	5.91991
0.030999	4.35287
0.025529	3.4823
0.016411	1.91526
0.9938	55.3685
