Adsorption isotherm of Nitrogen on [HO]100%â€“TAPH-COF
DOI: 10.1039/c6ra04859e
Article source: Figure S12a/S9
Adsorbate Nitrogen: InChIKey IJGRMHOSHXDMSA-UHFFFAOYSA-N
Kind: experiment
Temperature: 298 K
Tabular data in the source: 0
pressure (bar)	uptake (mg/g)
0.275	1.18875
0.3	1.27206
0.325	1.39703
0.35	1.48034
0.375	1.60531
0.4	1.68862
0.425	1.81359
0.45	1.8969
0.475	1.98021
0.5	2.06352
0.525	2.18849
0.55	2.31346
0.575	2.39677
0.6	2.48008
0.625	2.56339
0.65	2.6467
0.675	2.77167
0.7	2.81333
0.725	2.89664
0.75	2.97995
0.775	3.02161
0.8	3.10492
0.825	3.1674
0.85	3.27154
0.875	3.3132
0.9	3.39651
0.925	3.47982
0.95	3.60479
0.975	3.60479
1	3.64645
0.251838	1.07042
0.227022	0.985915
0.202206	0.890141
0.17739	0.811268
0.147059	0.676056
0.125	0.591549
0.099265	0.461972
0.086397	0.366197
0.078125	0.309859
0.069853	0.253521
0.058824	0.202817
0.046875	0.152113
0.034926	0.112676
0.022059	0.078873
0.013787	0.022535
