Adsorption isotherm of Carbon Dioxide on [N=N]75%â€“TAPH-COF
DOI: 10.1039/c6ra04859e
Article source: Figure 6b
Adsorbate Carbon Dioxide: InChIKey CURLTUGMZLYLDI-UHFFFAOYSA-N
Kind: experiment
Temperature: 298 K
Tabular data in the source: 0
pressure (bar)	uptake (mg/g)
0.040634	1.14014
0.062729	2.34469
0.084824	3.24569
0.106919	4.24948
0.129015	5.04769
0.15111	6.15266
0.173205	7.05687
0.1953	8.06066
0.217395	8.86368
0.239491	9.66671
0.261586	10.6705
0.283681	11.5763
0.305776	12.3793
0.327872	13.5839
0.349967	13.9854
0.372062	15.2943
0.394157	16.6017
0.416252	17.6054
0.438348	18.4085
0.460443	19.613
0.482538	20.416
0.504633	21.4214
0.526728	22.5312
0.548824	23.7358
0.570919	24.9403
0.593014	25.8509
0.615109	26.8547
0.637205	27.8585
0.6593	28.8623
0.681395	29.8661
0.70349	30.8699
0.725585	32.076
0.747681	33.2805
0.769776	34.2891
0.791871	35.0922
0.813966	36.6003
0.836062	37.4033
0.858157	38.2063
0.880252	39.2101
0.902347	40.0131
0.924442	41.3237
0.946538	42.8317
0.968633	43.8355
0.981564	44.4182
0.021096	1.0118
