Adsorption isotherm of Nitrogen on [HO]75%â€“TAPH-COF
DOI: 10.1039/c6ra04859e
Article source: Figure S12a/S9
Adsorbate Nitrogen: InChIKey IJGRMHOSHXDMSA-UHFFFAOYSA-N
Kind: experiment
Temperature: 298 K
Tabular data in the source: 0
pressure (bar)	uptake (mg/g)
0.45	1.45217
0.475	1.53548
0.5	1.63962
0.525	1.68128
0.55	1.76459
0.575	1.86873
0.6	1.95204
0.625	1.9937
0.65	2.07701
0.675	2.16032
0.7	2.19856
0.725	2.26105
0.75	2.29989
0.775	2.37304
0.8	2.49519
0.825	2.48008
0.85	2.64218
0.875	2.68606
0.90046	2.78012
0.925	2.85942
0.95	2.99625
0.975	3.09476
0.990349	3.20232
0.428309	1.34084
0.402574	1.1831
0.378676	1.13239
0.351103	0.991549
0.327206	0.895775
0.306066	0.839437
0.277574	0.738028
0.25	0.647887
0.225184	0.557746
0.204044	0.501408
0.176471	0.467606
0.147978	0.371831
0.126838	0.287324
0.100184	0.152113
0.085478	0.084507
0.068934	0.056338
0.054228	0.016901
