Adsorption isotherm of Nitrogen on [HO]50%â€“TAPH-COF
DOI: 10.1039/c6ra04859e
Article source: Figure S12a/S9
Adsorbate Nitrogen: InChIKey IJGRMHOSHXDMSA-UHFFFAOYSA-N
Kind: experiment
Temperature: 273 K
Tabular data in the source: 0
pressure (bar)	uptake (mg/g)
0.4	2.20436
0.425	2.34895
0.45	2.49355
0.475	2.56585
0.5	2.71044
0.525	2.85504
0.55	2.99963
0.575	3.07193
0.6	3.21653
0.625	3.36112
0.65	3.43342
0.675	3.57802
0.7	3.72261
0.725	3.86721
0.75	4.0841
0.775	4.2287
0.8	4.44559
0.825	4.59019
0.85	4.69864
0.875	4.80708
0.9	5.02398
0.925	5.09627
0.95	5.24087
0.975	5.42162
0.374803	2.08691
0.318786	1.86283
0.296127	1.68628
0.272209	1.62517
0.245774	1.41467
0.221227	1.25849
0.202344	1.12947
0.17465	0.925765
0.149474	0.783169
0.13185	0.633782
0.102897	0.450444
0.080238	0.335009
0.061356	0.226364
0.039956	0.083767
0.348368	1.94431
0.009114	0.049816
0.022962	0.049816
