Adsorption isotherm of Nitrogen on "[N=N]100%â€“TAPH- COF"
DOI: 10.1039/c6ra04859e
Article source: Figure 3b
Adsorbate Nitrogen: InChIKey IJGRMHOSHXDMSA-UHFFFAOYSA-N
Kind: experiment
Temperature: 77 K
Tabular data in the source: 0
pressure (bar)	uptake (cm3(STP)/g)
0.10475	56.5608
0.127802	60.2682
0.150855	64.5541
0.17506	69.6814
0.203067	73.8885
0.226119	77.5696
0.330041	97.2901
0.353094	103.101
0.378452	105.047
0.403809	111.094
0.429479	114.868
0.454837	119.01
0.480195	123.94
0.505553	129.856
0.53091	134.589
0.556268	137.744
0.581626	144.843
0.604678	148.262
0.632342	149.576
0.660005	158.648
0.683057	163.906
0.70611	168.113
0.729162	172.846
0.756825	177.185
0.782183	182.115
0.807541	189.017
0.832899	195.426
0.860562	203.314
0.883614	211.696
0.908972	223.331
0.93433	238.318
0.959163	273.134
0.985334	321.642
1.00496	394.403
0.250368	84.7015
0.280901	88.4328
0.30271	94.0299
0.023554	38.0597
0.049725	45.5224
0.078077	51.1194
0.106495	47.6055
0.129547	51.313
0.1526	55.5989
0.176805	60.7262
0.203067	62.6944
0.226119	66.3756
0.330041	86.096
0.353094	91.907
0.378452	93.8528
0.403809	99.9004
0.429479	103.674
0.454837	107.816
0.480195	112.746
0.505553	118.662
0.53091	121.902
0.556268	125.057
0.581626	132.157
0.604678	135.575
0.632342	136.89
0.660005	145.961
0.683057	151.22
0.70611	155.427
0.729162	160.16
0.756825	164.498
0.782183	169.428
0.807541	176.331
0.832899	182.74
0.860562	190.628
0.883614	193.039
0.908972	204.674
0.936075	216.677
0.960036	232.836
0.250368	73.5075
0.280901	77.2388
0.30271	82.8358
0.025299	29.1045
0.051469	36.5672
0.079821	42.1642
0.985334	276.866
0.012649	28.7313
0.003926	23.1343
