Adsorption isotherm of Nitrogen on [N=N]100%â€“TAPH-COF
DOI: 10.1039/c6ra04859e
Article source: Figure S12b/S10
Adsorbate Nitrogen: InChIKey IJGRMHOSHXDMSA-UHFFFAOYSA-N
Kind: experiment
Temperature: 273 K
Tabular data in the source: 0
pressure (bar)	uptake (mg/g)
0.040217	0.012151
0.060321	0.097223
0.080426	0.182295
0.10053	0.236984
0.120635	0.309903
0.140739	0.388899
0.160844	0.443588
0.180948	0.480047
0.201053	0.52866
0.221157	0.577273
0.241262	0.631962
0.261366	0.668421
0.281471	0.710957
0.301575	0.75957
0.32168	0.808183
0.341784	0.875025
0.361889	0.899331
0.381993	0.935791
0.402098	0.978327
0.422202	1.01479
0.442307	1.03302
0.462411	1.09378
0.482516	1.13632
0.50262	1.18493
0.522725	1.23354
0.54283	1.25177
0.562934	1.25785
0.583039	1.28216
0.603143	1.31254
0.623248	1.35508
0.643352	1.36723
0.663457	1.40369
0.683561	1.42192
0.703666	1.4523
0.72377	1.46445
0.743875	1.46445
0.763979	1.50091
0.784084	1.51914
0.804188	1.54953
0.824293	1.61637
0.844397	1.62852
0.864502	1.61637
0.884606	1.6346
0.904711	1.64675
0.924815	1.6589
0.94492	1.66498
0.965024	1.67713
0.985129	1.68321
0.998532	1.68321
