Adsorption isotherm of Nitrogen on [N=N]25%â€“TAPH- COF
DOI: 10.1039/c6ra04859e
Article source: Figure 3b
Adsorbate Nitrogen: InChIKey IJGRMHOSHXDMSA-UHFFFAOYSA-N
Kind: experiment
Temperature: 77 K
Tabular data in the source: 0
pressure (bar)	uptake (cm3(STP)/g)
0.050662	178.806
0.075994	198.526
0.101325	210.359
0.126656	218.247
0.151987	226.135
0.177319	234.023
0.20265	243.883
0.227981	249.799
0.253312	257.688
0.278644	265.576
0.303975	276.875
0.329306	283.324
0.354637	291.212
0.379969	297.129
0.4053	305.017
0.430631	312.905
0.455962	320.793
0.481294	326.709
0.506625	334.597
0.531956	342.486
0.557288	348.402
0.582619	354.318
0.60795	362.206
0.633281	366.15
0.658613	372.066
0.683944	377.982
0.709275	385.871
0.734606	389.815
0.759937	397.703
0.785269	404.365
0.8106	410.281
0.835931	416.197
0.861262	424.086
0.886594	431.974
0.911925	439.862
0.937256	447.75
0.962587	461.713
0.987046	489.909
0.025735	159.328
0.01483	138.806
0.010468	127.612
0.001745	108.955
0.001745	90.2985
0.002617	75.3731
0.000436	62.3134
0.000436	43.6567
0.001745	32.4627
0.050662	218.358
0.075994	238.078
0.101325	249.911
0.126656	257.799
0.151987	265.687
0.177319	273.575
0.201778	281.943
0.227109	287.859
0.25244	295.747
0.277771	303.635
0.303103	308.964
0.328434	315.414
0.353765	323.302
0.379096	329.218
0.404428	333.375
0.429759	341.263
0.45509	349.151
0.480421	355.067
0.505753	362.956
0.531084	370.844
0.556415	376.76
0.581746	382.676
0.607078	387.579
0.632409	390.777
0.65774	393.708
0.683071	399.624
0.708403	407.512
0.733734	411.456
0.759065	419.345
0.784396	426.007
0.8106	428.938
0.835931	434.854
0.861262	442.742
0.886594	450.631
0.911925	458.519
0.937256	466.407
0.962587	480.37
0.025735	195.149
0.987515	513.806
1.00496	582.836
