Adsorption isotherm of Carbon Dioxide on [C=C]75%â€“TAPH-COF
DOI: 10.1039/c6ra04859e
Article source: Figure 6c
Adsorbate Carbon Dioxide: InChIKey CURLTUGMZLYLDI-UHFFFAOYSA-N
Kind: experiment
Temperature: 298 K
Tabular data in the source: 0
pressure (bar)	uptake (mg/g)
0.128396	4.88838
0.150491	5.61385
0.172586	6.41013
0.194682	7.09787
0.216777	7.82334
0.238872	8.58537
0.261586	9.34624
0.283681	10.0346
0.305776	10.8326
0.327872	11.6306
0.349967	12.4286
0.372062	13.2266
0.394157	13.8795
0.416252	14.605
0.438348	15.3305
0.460443	16.0559
0.482538	16.7814
0.504633	17.652
0.526728	18.1598
0.548824	19.1046
0.570919	19.7575
0.593014	20.4966
0.615109	21.2462
0.637205	22.1168
0.681395	23.6054
0.70349	24.2583
0.725585	25.0941
0.747681	26.0035
0.769776	26.5839
0.791871	27.2368
0.813966	27.8172
0.836062	28.7255
0.858157	29.5235
0.880252	30.1764
0.902347	30.9744
0.924442	31.6999
0.946538	32.4253
0.968633	33.2959
0.990728	33.8763
0.103997	3.91225
0.086055	3.40037
0.070589	2.85192
0.061309	2.30347
0.052029	1.84643
0.039656	1.3894
0.025736	0.95064
0.01491	0.767824
0.656768	22.8885
