Adsorption isotherm of Argon on [C=C]50%â€“TAPH-COF
DOI: 10.1039/c6ra04859e
Article source: Figure S6b
Adsorbate Argon: InChIKey XKRFYHLGVUSROY-UHFFFAOYSA-N
Kind: experiment
Temperature: 87 K
Tabular data in the source: 0
pressure (bar)	uptake (cm3(STP)/g)
0.054362	106.853
0.079693	125.105
0.106874	142.52
0.132205	153.471
0.157536	160.772
0.182867	168.073
0.208199	175.374
0.23353	182.675
0.258861	186.325
0.284192	193.626
0.309524	197.276
0.334855	202.752
0.360186	210.053
0.385517	217.354
0.410849	221.004
0.43618	228.305
0.461511	235.606
0.486842	241.082
0.512174	246.557
0.53658	251.208
0.561911	258.509
0.587243	263.984
0.612574	271.285
0.637905	274.936
0.663236	282.237
0.688568	289.538
0.713899	293.188
0.73923	300.489
0.766411	308.29
0.788043	310.452
0.813374	317.753
0.838706	323.229
0.864037	330.53
0.889368	334.18
0.913775	343.644
0.939106	354.595
0.965362	367.034
0.993368	399.558
0.031623	91.4412
0.13128	122.328
0.156611	129.629
0.181943	136.93
0.207274	144.231
0.232605	151.532
0.257936	155.182
0.283268	162.483
0.310448	172.097
0.33578	177.573
0.361111	184.874
0.386442	192.174
0.411773	195.825
0.437105	203.126
0.462436	210.427
0.487767	215.902
0.513098	221.378
0.537505	226.028
0.562836	235.317
0.588167	240.793
0.613499	248.094
0.63883	251.744
0.664161	259.045
0.689492	266.346
0.714824	269.996
0.740155	277.297
0.765486	289.074
0.788968	294.549
0.814299	303.176
0.83963	308.651
0.864962	315.952
0.891218	322.253
0.916549	332.379
0.94188	343.33
0.968136	355.77
0.993368	379.68
1.01649	449.255
0.107915	114.633
0.082484	98.0674
0.061677	86.4716
0.045494	73.2192
0.036247	66.593
0.024687	54.9972
0.020063	43.4014
0.01544	35.1187
0.010816	23.5229
0.010816	16.8967
