Adsorption isotherm of Carbon Dioxide on [HO]25%â€“TAPH-COF
DOI: 10.1039/c6ra04859e
Article source: Figure 6a
Adsorbate Carbon Dioxide: InChIKey CURLTUGMZLYLDI-UHFFFAOYSA-N
Kind: experiment
Temperature: 273 K
Tabular data in the source: 0
pressure (bar)	uptake (mg/g)
0.135633	13.0172
0.157712	14.2271
0.179791	15.3269
0.20187	16.7567
0.223949	17.9666
0.246028	19.3964
0.268106	20.6063
0.290185	21.7061
0.312264	22.916
0.334343	24.3458
0.356422	25.4456
0.378501	26.9855
0.403547	27.7962
0.425626	29.1825
0.447704	30.4589
0.469783	31.6688
0.491862	32.9886
0.513941	34.1984
0.53602	35.4083
0.558098	36.6181
0.580177	37.718
0.602256	38.7079
0.624335	40.0277
0.645672	40.8358
0.667751	42.1556
0.68983	43.3655
0.711908	44.2888
0.733987	45.3887
0.756066	46.6651
0.778145	47.6549
0.800224	48.6883
0.820819	49.5886
0.842898	50.888
0.864977	51.9879
0.885572	53.0673
0.909134	53.9676
0.931213	55.2875
0.953292	56.2773
0.975371	57.4872
0.121291	11.4412
0.097181	10.2772
0.087908	9.44568
0.99184	58.1042
0.073071	8.64745
0.060089	7.48337
0.039688	6.15299
0.03227	5.32151
0.024852	3.82483
0.017433	2.82705
0.011869	1.82927
