Adsorption isotherm of Carbon Dioxide on [C=C]25%â€“TAPH-COF
DOI: 10.1039/c6ra04859e
Article source: Figure 6c
Adsorbate Carbon Dioxide: InChIKey CURLTUGMZLYLDI-UHFFFAOYSA-N
Kind: experiment
Temperature: 298 K
Tabular data in the source: 0
pressure (bar)	uptake (mg/g)
0.270188	11.2967
0.292283	12.0953
0.314379	13.1593
0.336474	14.0298
0.358569	14.6456
0.380664	15.4814
0.40276	16.4964
0.424855	17.367
0.44695	18.0925
0.467808	19.1093
0.489903	19.8347
0.511998	20.7053
0.534094	21.3565
0.556189	22.0802
0.578903	22.8771
0.600998	23.8202
0.623093	24.7633
0.645188	25.6344
0.667284	26.505
0.689379	27.4481
0.711474	28.1735
0.733569	29.0441
0.755664	29.8421
0.778997	30.7127
0.801092	31.4381
0.823187	32.2361
0.845283	33.1793
0.867378	34.1224
0.889473	34.9929
0.911568	35.9018
0.933663	36.8449
0.955759	37.8222
0.977854	38.9104
0.999949	39.6359
0.25464	10.7495
0.202054	8.37294
0.175761	7.55027
0.151015	6.45338
0.129362	5.75868
0.096882	4.66179
0.081415	3.83912
0.064402	3.10786
0.052029	2.55942
0.035016	1.82815
0.02419	1.09689
0.016456	0.731261
0.2268	9.56124
