Adsorption isotherm of Carbon Dioxide on [C=C]50%â€“TAPH-COF
DOI: 10.1039/c6ra04859e
Article source: Figure 6c
Adsorbate Carbon Dioxide: InChIKey CURLTUGMZLYLDI-UHFFFAOYSA-N
Kind: experiment
Temperature: 273 K
Tabular data in the source: 0
pressure (bar)	uptake (mg/g)
0.012764	1.91526
0.027352	4.00464
0.047411	5.91991
0.063822	7.31283
0.082057	9.05398
0.102115	10.7951
0.123997	12.7104
0.147702	14.2774
0.165937	15.8445
0.184172	17.4115
0.19876	18.6303
0.215171	19.8491
0.234357	21.3963
0.256066	22.5479
0.277774	23.6995
0.300875	25.2467
0.322757	26.1172
0.340992	27.5102
0.36242	28.445
0.385587	30.2475
0.407295	31.3991
0.429004	32.8961
0.450712	34.0477
0.47242	35.1993
0.494129	36.2357
0.518026	37.3631
0.539734	38.8602
0.561442	40.0117
0.583151	41.1633
0.604859	42.43
0.626568	43.8119
0.648276	44.8483
0.669985	45.9999
0.691693	47.2666
0.713401	48.5333
0.73511	50.0304
0.756818	51.0668
0.778527	51.988
0.800235	52.9093
0.821944	53.9457
0.843652	55.2124
0.86536	56.364
0.887069	57.6307
0.908777	58.6671
0.930486	59.5884
0.948213	60.9402
0.971918	62.5073
0.991977	63.3778
