Adsorption isotherm of Nitrogen on [N=N]100%â€“TAPH-COF
DOI: 10.1039/c6ra04859e
Article source: Figure S12b/S10
Adsorbate Nitrogen: InChIKey IJGRMHOSHXDMSA-UHFFFAOYSA-N
Kind: experiment
Temperature: 298 K
Tabular data in the source: 0
pressure (bar)	uptake (mg/g)
0.15	0.124043
0.175	0.134536
0.2	0.166015
0.225	0.197493
0.25	0.218478
0.275	0.239464
0.3	0.26045
0.325	0.281435
0.35	0.302421
0.375	0.323406
0.4	0.344392
0.425	0.365377
0.45	0.386363
0.475	0.407348
0.5	0.44932
0.525	0.470305
0.55	0.491291
0.575	0.512276
0.6	0.533262
0.625	0.554247
0.65	0.575233
0.675	0.575233
0.7	0.596218
0.725	0.596218
0.75	0.627697
0.775	0.63819
0.8	0.659175
0.85	0.722132
0.875	0.743117
0.9	0.785089
0.925	0.82706
0.95	0.848045
0.975	0.869031
0.826287	0.659886
0.993566	0.884106
0.125919	0.09508
0.100184	0.055345
0.080882	0.038316
0.059743	0.018448
0.045037	0.018448
0.018382	0.007096
