Adsorption isotherm of Argon on [N=N]100%â€“TAPH-COF
DOI: 10.1039/c6ra04859e
Article source: Figure S6a
Adsorbate Argon: InChIKey XKRFYHLGVUSROY-UHFFFAOYSA-N
Kind: experiment
Temperature: 87 K
Tabular data in the source: 0
pressure (bar)	uptake (cm3(STP)/g)
0.023506	2.70754
0.046229	9.45846
0.071702	13.7939
0.097175	16.7668
0.122648	19.9874
0.146777	23.5487
0.17225	27.2648
0.197723	30.5396
0.22454	32.9525
0.250013	36.6686
0.275486	39.8067
0.300888	46.1705
0.326361	49.8402
0.351834	52.8595
0.377944	54.9188
0.40278	57.0633
0.428324	59.0891
0.454363	61.8969
0.47927	65.902
0.505309	68.0491
0.52922	73.0154
0.557513	78.6228
0.580803	80.4218
0.606276	84.0141
0.631749	88.7624
0.657222	93.3869
0.682695	94.6669
0.708168	98.2591
0.732716	100.778
0.760963	105.705
0.785511	112.033
0.809852	114.122
0.837741	117.653
0.864416	124.049
0.877773	127.15
0.91014	133.895
0.935571	138.954
0.958689	145.7
0.979496	172.681
1.00493	467.791
0.048079	2.7131
0.073552	7.04856
0.099025	10.0214
0.124498	13.2421
0.149551	15.4543
0.175024	17.1468
0.200497	20.4216
0.225465	22.1599
0.250938	25.876
0.276411	29.0141
0.300888	30.6562
0.326361	34.3258
0.351834	37.3452
0.377944	39.4045
0.40278	41.549
0.428324	43.5748
0.454363	46.3825
0.47927	49.0386
0.504384	50.5111
0.530145	52.7793
0.555664	57.7121
0.578953	59.5112
0.604426	63.1034
0.629899	67.8518
0.655372	72.4763
0.680845	73.7563
0.706318	77.3485
0.730866	79.8672
0.759113	84.7946
0.783662	91.1226
0.809852	92.5373
0.835891	99.4402
0.861642	105.162
0.883322	108.938
0.91014	115.008
0.935571	121.417
0.958689	128.162
0.98412	197.976
0.013128	2.36088
0.001568	2.36088
0.026999	4.04722
