Adsorption isotherm of Argon on [C=C]25%â€“TAPH-COF
DOI: 10.1039/c6ra04859e
Article source: Figure S6b
Adsorbate Argon: InChIKey XKRFYHLGVUSROY-UHFFFAOYSA-N
Kind: experiment
Temperature: 87 K
Tabular data in the source: 0
pressure (bar)	uptake (cm3(STP)/g)
0.029174	106.387
0.052601	128.415
0.080045	151.776
0.104668	179.385
0.129217	197.279
0.15469	206.315
0.180163	213.178
0.205636	219.579
0.231108	226.028
0.256581	230.7
0.282054	235.762
0.307527	239.474
0.333	245.375
0.357549	253.602
0.383022	257.617
0.408494	261.596
0.434892	267.671
0.460365	274.278
0.484913	280.768
0.510386	283.323
0.535859	286.572
0.561332	290.174
0.586805	296.38
0.615523	300.165
0.639147	302.755
0.66462	309.605
0.690093	314.497
0.715566	320.69
0.741039	324.949
0.766512	330.413
0.791984	336.996
0.817457	341.936
0.84293	347.217
0.868403	353.435
0.892027	358.887
0.9175	368.305
0.942973	377.018
1.01418	573.495
0.993368	426.063
0.966088	391.607
0.130141	172.762
0.155614	181.799
0.181087	188.661
0.20656	195.062
0.232033	201.511
0.257506	206.184
0.282979	211.245
0.308452	214.957
0.333925	220.858
0.358473	229.085
0.383946	233.101
0.409419	237.08
0.435817	243.154
0.46129	249.761
0.485838	256.251
0.511311	258.806
0.535859	268.019
0.561332	271.621
0.586805	277.826
0.615523	281.612
0.639147	284.201
0.66462	291.052
0.690093	296.606
0.715566	302.8
0.741039	307.059
0.766512	312.522
0.791984	319.105
0.817457	324.045
0.84293	329.326
0.868403	335.544
0.892027	340.997
0.9175	350.415
0.942973	359.127
0.966088	373.716
0.107915	156.046
0.082484	122.916
0.059366	103.037
0.031623	81.5019
0.017752	61.6234
0.01544	51.6842
0.010816	45.058
0.010816	36.7753
0.010816	23.5229
0.006192	15.2402
