Adsorption isotherm of Carbon Dioxide on [N=N]75%â€“TAPH-COF
DOI: 10.1039/c6ra04859e
Article source: Figure 6b
Adsorbate Carbon Dioxide: InChIKey CURLTUGMZLYLDI-UHFFFAOYSA-N
Kind: experiment
Temperature: 273 K
Tabular data in the source: 0
pressure (bar)	uptake (mg/g)
0.01052	5.798
0.142993	15.8701
0.165072	17.9087
0.187151	19.3288
0.209229	21.3844
0.231308	23.1595
0.253387	25.6445
0.275466	27.0646
0.297545	28.4846
0.319624	30.2682
0.341702	31.4735
0.363781	33.3974
0.38586	35.1724
0.407939	36.5924
0.430018	38.3675
0.452097	39.8619
0.474175	41.992
0.496254	43.412
0.518333	44.8321
0.540412	46.2521
0.562491	48.7542
0.58457	50.5293
0.606648	51.9493
0.628727	53.3693
0.650806	54.7894
0.672885	56.9194
0.694964	57.9845
0.717043	59.0495
0.739121	61.1796
0.7612	63.3096
0.783279	64.7297
0.805358	66.5047
0.827437	68.2798
0.849515	69.3448
0.871594	70.4098
0.893673	72.5399
0.915752	74.6699
0.937831	76.445
0.95991	77.865
0.981988	78.22
0.126855	13.6339
0.106454	12.5604
0.084199	10.9501
0.067507	9.87654
0.047107	7.72947
0.034125	7.1927
