Adsorption isotherm of Nitrogen on MOF-5-SBA-15
DOI: 10.1039/C2cc38366g
Adsorbate Nitrogen: InChIKey IJGRMHOSHXDMSA-UHFFFAOYSA-N
Temperature: 77 K
Tabular data in the source: 0
pressure (bar)	uptake (cm3(STP)/g)
0.293277	370.408
0.485207	404.082
0.5332	415.306
0.574928	423.724
0.633377	443.367
0.681391	460.204
0.734054	603.316
0.825978	653.827
0.85309	656.633
0.896882	659.439
0.917719	656.633
