Adsorption isotherm of Nitrogen on SBA-15
DOI: 10.1039/C2cc38366g
Adsorbate Nitrogen: InChIKey IJGRMHOSHXDMSA-UHFFFAOYSA-N
Temperature: 77 K
Tabular data in the source: 0
pressure (bar)	uptake (cm3(STP)/g)
0.294936	258.163
0.48276	308.673
0.539103	322.704
0.582969	345.153
0.635164	364.796
0.676945	387.245
0.729544	513.52
0.788546	679.082
0.876161	693.112
0.903275	695.918
0.919974	701.531
