Adsorption isotherm of Benzene on SBA-15
DOI: 10.1039/C2cc38366g
Adsorbate Benzene: InChIKey UHOVQNZJYSORNB-UHFFFAOYSA-N
Temperature: 293 K
Tabular data in the source: 0
pressure (bar)	uptake (cm3(STP)/g)
0.00119956	10.0619
0.0350271	73.4729
0.0403052	83.4859
0.0443837	86.7958
0.0503815	96.8002
0.0546999	104.586
0.0580587	138.133
0.067895	226.463
0.078691	229.692
0.0870879	231.831
