Adsorption isotherm of Benzene on IRMOF-1
DOI: 10.1039/C2cc38366g
Adsorbate Benzene: InChIKey UHOVQNZJYSORNB-UHFFFAOYSA-N
Temperature: 293 K
Tabular data in the source: 0
pressure (bar)	uptake (cm3(STP)/g)
0.00119956	6.70317
0.010796	316.715
0.0170337	323.358
0.0232714	324.403
0.0285495	326.579
0.0338276	328.754
0.0376661	328.708
0.0602178	330.677
0.0647761	331.742
0.0705341	332.793
0.0753323	332.735
0.0801305	331.558
0.0851686	334.856
