Adsorption isotherm of Nitrogen on IRMOF-1
DOI: 10.1039/C2cc38366g
Adsorbate Nitrogen: InChIKey IJGRMHOSHXDMSA-UHFFFAOYSA-N
Temperature: 77 K
Tabular data in the source: 0
pressure (bar)	uptake (cm3(STP)/g)
0.00456317	103.827
0.00479718	165.561
0.00708409	218.878
0.00925399	241.327
0.00979642	384.439
0.0108495	662.245
0.0133279	766.071
0.733448	993.367
0.795981	990.561
0.829327	987.755
0.877288	990.561
0.929409	990.561
