Adsorption isotherm of Benzene on MOF-5-2-SBA-15
DOI: 10.1039/C2cc38366g
Adsorbate Benzene: InChIKey UHOVQNZJYSORNB-UHFFFAOYSA-N
Temperature: 293 K
Tabular data in the source: 0
pressure (bar)	uptake (cm3(STP)/g)
0.0019193	32.4452
0.00599779	98.4522
0.00767717	100.671
0.0105561	105.115
0.0148745	108.422
0.0215921	115.059
0.0266302	120.597
0.0321482	123.889
0.0379061	129.418
0.0400652	131.631
0.046063	139.397
0.0499016	142.709
0.0530204	154.987
0.0705341	233.149
0.0777313	240.9
0.0803705	244.227
0.0820498	250.924
