Adsorption isotherm of Nitrogen on Azo-COF
DOI: 10.1039/c4ce00369a
Article source: Figure 4a/S4a
Adsorbate Nitrogen: InChIKey IJGRMHOSHXDMSA-UHFFFAOYSA-N
Kind: experiment
Temperature: 77 K
Tabular data in the source: 0
pressure (bar)	uptake (cm3(STP)/g)
0.054888	150.742
0.082633	165.913
0.222146	229.84
0.493919	402.988
0.524384	404.745
0.583139	408.097
0.615781	408.65
0.654951	410.407
0.689769	411.969
0.720234	413.922
0.866034	423.814
0.903028	427.198
0.936395	433.017
0.970487	442.812
0.186253	213.06
0.149121	194.403
0.153577	210.261
0.19665	227.985
0.215958	240.112
0.25309	247.575
0.25606	259.701
0.287251	283.955
0.306559	291.418
0.33775	378.172
0.328838	388.433
0.367455	398.694
0.414984	394.963
0.401617	404.291
0.435778	409.888
0.471424	411.754
0.452116	399.627
0.505585	414.552
0.545688	404.291
0.542717	415.485
0.581334	418.284
0.618466	419.216
0.648171	420.149
0.689759	421.082
0.725405	422.015
0.756596	423.881
0.790757	424.813
0.792242	417.351
0.80858	425.746
0.844226	429.478
0.881358	431.343
0.917005	436.94
0.958592	448.134
0.995724	470.522
0.100107	171.082
0.119416	180.41
0.11793	197.201
0.088225	181.343
0.064461	174.813
0.048123	162.687
0.067431	155.224
0.00802	120.709
0.006535	104.851
0.013962	111.381
0.010991	99.2537
0.00802	91.791
0.003565	85.2612
0.000891	76.8657
0.002376	61.9403
