Adsorption isotherm of Carbon Dioxide on SION-8P
DOI: 10.1021/acsami.8b13362
Article source: Figure 6c
Adsorbate Carbon Dioxide: InChIKey CURLTUGMZLYLDI-UHFFFAOYSA-N
Kind: experiment
Temperature: 273 K
Tabular data in the source: 0
pressure (bar)	uptake (mmol/g)
0.0226	0.252
0.0426	0.369
0.0602	0.47
0.0802	0.537
0.15	0.755
0.251	0.989
0.351	1.17
0.451	1.34
