Adsorption isotherm of Carbon Dioxide, Methane on SION-8F
DOI: 10.1021/acsami.8b13362
Article source: Table S2
Adsorbate Carbon Dioxide: InChIKey CURLTUGMZLYLDI-UHFFFAOYSA-N
Adsorbate Methane: InChIKey VNWKTOKETHGBQD-UHFFFAOYSA-N
Kind: experiment
Temperature: 323 K
Tabular data in the source: 0
pressure (bar)	Carbon Dioxide fraction	Carbon Dioxide uptake (mmol/g)	Methane fraction	Methane uptake (mmol/g)	total uptake (mmol/g)
1	0.9	1	0.1	0.07	1.07
1	0.75	0.88	0.25	0.19	1.07
1	0.5	0.69	0.5	0.43	1.12
1	0.25	0.43	0.75	0.67	1.1
1	0.1	0.19	0.9	0.88	1.07
