Adsorption isotherm of Methane on SION-8P
DOI: 10.1021/acsami.8b13362
Article source: Figure 6e
Adsorbate Methane: InChIKey VNWKTOKETHGBQD-UHFFFAOYSA-N
Kind: experiment
Temperature: 273 K
Tabular data in the source: 0
pressure (bar)	uptake (mmol/g)
0.485	0.405
0.754	0.577
1.99	1.13
4	1.6
6	1.89
8	2.1
10	2.28
12	2.43
