Adsorption isotherm of Methane on SION-8F
DOI: 10.1021/acsami.8b13362
Article source: Figure 6f
Adsorbate Methane: InChIKey VNWKTOKETHGBQD-UHFFFAOYSA-N
Kind: experiment
Temperature: 303 K
Tabular data in the source: 0
pressure (bar)	uptake (mmol/g)
0.251	0.109
0.483	0.273
0.752	0.429
1	0.57
2	1.06
3.01	1.48
3.99	1.84
4.99	2.19
6	2.5
7	2.82
8	3.07
9	3.32
9.99	3.53
11	3.77
12	3.96
13	4.16
14	4.34
