Adsorption isotherm of Methane on SION-8F
DOI: 10.1021/acsami.8b13362
Article source: Figure 6f
Adsorbate Methane: InChIKey VNWKTOKETHGBQD-UHFFFAOYSA-N
Kind: experiment
Temperature: 273 K
Tabular data in the source: 0
pressure (bar)	uptake (mmol/g)
0.483	0.577
0.752	0.827
1	1.05
1.99	1.79
3.01	2.33
3.99	2.79
4.99	3.17
6	3.49
7	3.78
8	4.03
9	4.27
9.99	4.47
11	4.67
12	4.9
