Adsorption isotherm of Carbon Dioxide, Methane on SION-8F
DOI: 10.1021/acsami.8b13362
Article source: Table S2
Adsorbate Carbon Dioxide: InChIKey CURLTUGMZLYLDI-UHFFFAOYSA-N
Adsorbate Methane: InChIKey VNWKTOKETHGBQD-UHFFFAOYSA-N
Kind: experiment
Temperature: 303 K
Tabular data in the source: 0
pressure (bar)	Carbon Dioxide fraction	Carbon Dioxide uptake (mmol/g)	Methane fraction	Methane uptake (mmol/g)	total uptake (mmol/g)
1	0.9	1.38	0.1	0.09	1.47
1	0.75	1.35	0.25	0.26	1.61
1	0.5	0.98	0.5	0.56	1.54
1	0.25	0.64	0.75	0.61	1.25
1	0.1	0.37	0.9	0.9	1.27
