Adsorption isotherm of Carbon Dioxide on SION-8F
DOI: 10.1021/acsami.8b13362
Article source: Figure 6d
Adsorbate Carbon Dioxide: InChIKey CURLTUGMZLYLDI-UHFFFAOYSA-N
Kind: experiment
Temperature: 273 K
Tabular data in the source: 0
pressure (bar)	uptake (mmol/g)
0.021	0.156
0.0421	0.289
0.0584	0.414
0.0795	0.531
0.15	0.851
0.25	1.23
0.35	1.57
0.451	1.89
