Adsorption isotherm of Carbon Dioxide on SION-8F
DOI: 10.1021/acsami.8b13362
Article source: Figure 6d
Adsorbate Carbon Dioxide: InChIKey CURLTUGMZLYLDI-UHFFFAOYSA-N
Kind: experiment
Temperature: 303 K
Tabular data in the source: 0
pressure (bar)	uptake (mmol/g)
0.0187	0.0389
0.0397	0.101
0.063	0.156
0.077	0.211
0.152	0.382
0.25	0.585
0.35	0.764
0.45	0.928
