Adsorption isotherm of Methane on SION-8P
DOI: 10.1021/acsami.8b13362
Article source: Figure 6e
Adsorbate Methane: InChIKey VNWKTOKETHGBQD-UHFFFAOYSA-N
Kind: experiment
Temperature: 303 K
Tabular data in the source: 0
pressure (bar)	uptake (mmol/g)
0.197	0.0623
0.484	0.156
0.735	0.265
2.01	0.655
3.99	1.06
6	1.41
8	1.69
9.99	1.92
12	2.11
