Adsorption isotherm of Carbon Dioxide, Methane on SION-8P
DOI: 10.1021/acsami.8b13362
Article source: Table S2
Adsorbate Carbon Dioxide: InChIKey CURLTUGMZLYLDI-UHFFFAOYSA-N
Adsorbate Methane: InChIKey VNWKTOKETHGBQD-UHFFFAOYSA-N
Kind: experiment
Temperature: 303 K
Tabular data in the source: 0
pressure (bar)	Carbon Dioxide fraction	Carbon Dioxide uptake (mmol/g)	Methane fraction	Methane uptake (mmol/g)	total uptake (mmol/g)
1	0.9	1.11	0.1	0.12	1.23
1	0.25	0.39	0.75	0.83	1.22
1	0.1	0.18	0.9	1.13	1.31
