Adsorption isotherm of Carbon Dioxide on SION-8P
DOI: 10.1021/acsami.8b13362
Article source: Figure 6c
Adsorbate Carbon Dioxide: InChIKey CURLTUGMZLYLDI-UHFFFAOYSA-N
Kind: experiment
Temperature: 303 K
Tabular data in the source: 0
pressure (bar)	uptake (mmol/g)
0.0201	0.0418
0.0426	0.0836
0.0576	0.117
0.0652	0.134
0.0802	0.184
0.15	0.31
0.251	0.435
0.351	0.552
0.451	0.644
