Adsorption isotherm of Carbon Dioxide, Methane on SION-8F
DOI: 10.1021/acsami.8b13362
Article source: Table S2
Adsorbate Carbon Dioxide: InChIKey CURLTUGMZLYLDI-UHFFFAOYSA-N
Adsorbate Methane: InChIKey VNWKTOKETHGBQD-UHFFFAOYSA-N
Kind: experiment
Temperature: 273 K
Tabular data in the source: 0
pressure (bar)	Carbon Dioxide fraction	Carbon Dioxide uptake (mmol/g)	Methane fraction	Methane uptake (mmol/g)	total uptake (mmol/g)
1	0.9	1.92	0.1	0.1	2.02
1	0.75	1.89	0.25	0.29	2.18
1	0.5	1.46	0.5	0.47	1.93
1	0.25	1.08	0.75	0.6	1.68
1	0.1	0.56	0.9	0.92	1.48
