Adsorption isotherm of Methane on Rho-ZMOF
DOI: 10.1021/Ja901061j
Adsorbate Methane: InChIKey VNWKTOKETHGBQD-UHFFFAOYSA-N
Temperature: 298 K
Tabular data in the source: 0
pressure (bar)	uptake (mmol/g)
0.251391	0.0187239
0.906854	0.0624214
2.93879	0.149816
10.0833	0.302758
20.1119	0.346455
30.0094	0.390152
