Adsorption isotherm of Carbon Dioxide on Rho-ZMOF
DOI: 10.1021/Ja901061j
Adsorbate Carbon Dioxide: InChIKey CURLTUGMZLYLDI-UHFFFAOYSA-N
Temperature: 298 K
Tabular data in the source: 0
pressure (bar)	uptake (mmol/g)
0.120299	1.24225
0.185845	1.87587
0.251391	2.90276
0.513576	3.68931
1.10349	4.7162
3.13543	6.00528
10.2144	7.49099
20.1119	8.2994
30.0749	8.75822
