Adsorption isotherm of Carbon Dioxide on Rho-ZMOF
DOI: 10.1021/Ja901061j
Adsorbate Carbon Dioxide: InChIKey CURLTUGMZLYLDI-UHFFFAOYSA-N
Temperature: 298 K
Tabular data in the source: 0
pressure (bar)	uptake (mmol/g)
0.120299	2.18175
0.120299	2.72797
0.120299	3.77671
0.316938	4.67251
0.841307	6.07082
3.00433	7.57839
9.95223	8.99856
20.0463	9.78511
30.0094	10.4187
