Adsorption isotherm of Nitrogen on Rho-ZMOF
DOI: 10.1021/Ja901061j
Adsorbate Nitrogen: InChIKey IJGRMHOSHXDMSA-UHFFFAOYSA-N
Temperature: 298 K
Tabular data in the source: 0
pressure (bar)	uptake (mmol/g)
0.251391	0.0405726
1.03795	0.0624214
3.13543	0.127968
10.0833	0.302758
20.1774	0.368304
29.9438	0.499396
