Adsorption isotherm of Carbon Dioxide on Rho-ZMOF
DOI: 10.1021/Ja901061j
Adsorbate Carbon Dioxide: InChIKey CURLTUGMZLYLDI-UHFFFAOYSA-N
Temperature: 298 K
Tabular data in the source: 0
pressure (bar)	uptake (mmol/g)
0.120299	1.24225
0.185845	2.05066
0.251391	2.81536
0.382484	3.62377
1.03795	4.67251
3.00433	5.80864
10.0178	7.57839
20.0463	8.38679
30.0749	8.86746
