Adsorption isotherm of Hydrogen on Rho-ZMOF
DOI: 10.1021/Ja901061j
Adsorbate Hydrogen: InChIKey UFHFLCQGNIYNRP-UHFFFAOYSA-N
Temperature: 298 K
Tabular data in the source: 0
pressure (bar)	uptake (mmol/g)
0.251391	0.0405726
1.10349	0.0405726
3.13543	0.0624214
10.1489	0.127968
20.1119	0.193514
30.0094	0.237211
