Adsorption isotherm of Hydrogen on PCN-21
DOI: 10.1039/C0cc00779j
Adsorbate Hydrogen: InChIKey UFHFLCQGNIYNRP-UHFFFAOYSA-N
Temperature: 77 K
Tabular data in the source: 0
pressure (bar)	uptake (wt%)
4.41e-05	0.0202532
5.88e-05	0.0270042
0.00361792	0.0607595
0.00722113	0.114768
0.0177955	0.168776
0.0318259	0.209283
0.0423561	0.243038
0.0634165	0.310549
0.0844622	0.371308
0.109008	0.438819
0.130024	0.486076
0.151041	0.533333
0.172042	0.57384
0.193059	0.621097
0.214045	0.654852
0.238518	0.688608
0.259534	0.735865
0.284021	0.776371
0.312009	0.823629
0.350453	0.870886
0.378425	0.911392
0.406398	0.951899
0.434356	0.985654
0.465814	1.02616
0.497243	1.05316
0.521716	1.08692
0.553159	1.12068
0.588103	1.16118
0.630018	1.20169
0.668447	1.24219
0.727834	1.30295
0.77672	1.34346
0.815135	1.37722
0.839607	1.41097
0.874507	1.43122
0.919893	1.46498
0.951336	1.49873
0.986236	1.51899
1.00721	1.54599
1.04909	1.573
