Adsorption isotherm of Oxygen on PCN-21
DOI: 10.1039/C0cc00779j
Adsorbate Oxygen: InChIKey MYMOFIZGZYHOMD-UHFFFAOYSA-N
Temperature: 77 K
Tabular data in the source: 0
pressure (bar)	uptake (cm3(STP)/g)
0.000244593	36.7142
0.000751712	68.8426
0.00124688	128.504
0.001752	165.222
0.00226809	176.7
0.00250471	231.77
0.00251467	208.825
0.00301283	261.604
0.0032634	284.551
0.00428461	332.747
0.00530184	390.12
0.00710166	445.209
0.00812387	491.11
0.0109668	543.916
0.0140723	592.136
0.0171887	615.118
0.0184795	642.667
0.0194987	695.451
0.0197443	729.871
0.0223396	752.846
0.0244179	766.638
0.0288351	794.224
0.0329946	814.923
0.0368957	831.031
0.0407977	844.844
0.0444372	863.243
0.0478181	877.049
0.0512011	886.267
0.0548416	902.372
0.0584801	923.065
0.0595103	950.611
0.0600064	1007.98
0.0618063	1063.07
0.0651862	1079.17
0.0696103	1090.69
0.0758572	1104.53
0.0852304	1118.41
0.0901765	1127.65
0.097728	1136.92
0.103196	1143.86
0.107623	1148.5
0.112831	1155.45
0.117777	1164.69
0.121945	1167.03
0.128454	1176.29
0.132621	1180.92
0.139652	1187.89
0.144081	1187.94
0.147466	1192.57
0.152154	1197.22
0.157883	1201.87
0.161527	1211.09
0.167258	1213.46
0.169861	1218.08
0.176112	1222.74
0.183404	1229.71
0.187572	1229.76
