Adsorption isotherm of Nitrogen on PCN-21
DOI: 10.1039/C0cc00779j
Adsorbate Nitrogen: InChIKey IJGRMHOSHXDMSA-UHFFFAOYSA-N
Temperature: 77 K
Tabular data in the source: 0
pressure (bar)	uptake (cm3(STP)/g)
5.55e-17	38.674
0.00198269	226.519
0.00396539	270.718
0.00594808	314.917
0.00991347	386.74
0.0178442	469.613
0.0218096	505.525
0.0317231	552.486
0.0356885	566.298
0.045602	591.16
0.0555154	616.022
0.0634462	629.834
0.0733597	657.459
0.0812904	682.32
0.0931866	709.945
0.113014	743.094
0.140771	759.669
0.144737	765.193
0.172494	787.293
0.204217	798.343
0.245854	820.442
0.25775	823.204
0.287491	848.066
0.293439	861.878
0.299387	883.978
0.303352	911.602
0.3093	925.414
0.317231	939.227
0.370764	953.039
0.396539	958.564
0.424296	961.326
0.465933	966.851
0.497656	969.613
0.533345	975.138
0.576964	975.138
0.660237	983.425
0.719718	988.95
0.769285	988.95
0.812904	988.95
0.84661	994.475
0.880316	997.238
0.917987	997.238
