Adsorption isotherm of Methane on SNU-70'
DOI: 10.1002/chem.201200456
Adsorbate Methane: InChIKey VNWKTOKETHGBQD-UHFFFAOYSA-N
Temperature: 298 K
Tabular data in the source: 0
pressure (bar)	uptake (cm3(STP)/g)
0.0828999	0.402586
0.117033	0.588332
0.164161	0.913195
0.216163	1.28444
0.266542	1.62479
0.315287	2.02685
0.367294	2.35179
0.419294	2.73847
0.468054	3.01705
0.518422	3.45001
0.568805	3.75949
0.617563	4.05351
0.669565	4.42475
0.723187	4.84233
0.771949	5.10548
0.822332	5.41495
0.871086	5.73984
0.924714	6.11111
0.975099	6.40515
