Adsorption isotherm of Carbon Dioxide on SNU-70'
DOI: 10.1002/chem.201200456
Adsorbate Carbon Dioxide: InChIKey CURLTUGMZLYLDI-UHFFFAOYSA-N
Temperature: 273 K
Tabular data in the source: 0
pressure (bar)	uptake (cm3(STP)/g)
0.16159	4.81414
0.209392	6.41946
0.260517	7.82318
0.314932	9.42784
0.367681	11.1836
0.410528	12.7391
0.461649	14.1931
0.51441	15.798
0.56718	17.3022
0.610032	18.8073
0.666103	20.3615
0.718856	22.067
0.765031	23.3706
0.817784	25.076
0.865603	26.4801
0.918356	28.1855
0.964514	29.6904
