Adsorption isotherm of Nitrogen on SNU-71'
DOI: 10.1002/chem.201200456
Adsorbate Nitrogen: InChIKey IJGRMHOSHXDMSA-UHFFFAOYSA-N
Temperature: 77 K
Tabular data in the source: 0
pressure (bar)	uptake (cm3(STP)/g)
0.00452465	68.0172
0.0109796	370.545
0.0155625	403.386
0.0224912	419.818
0.0433473	426.901
0.0641957	438.675
0.0920155	441.084
0.131425	445.865
0.184742	453.024
0.235744	457.832
0.307618	460.343
0.360939	465.157
0.418901	467.636
0.465274	467.743
0.618293	475.133
0.671621	475.256
0.727265	477.73
0.778271	480.193
0.82464	482.646
0.882602	485.125
0.931294	485.237
