Adsorption isotherm of Carbon Dioxide on SNU-71'
DOI: 10.1002/chem.201200456
Adsorbate Carbon Dioxide: InChIKey CURLTUGMZLYLDI-UHFFFAOYSA-N
Temperature: 298 K
Tabular data in the source: 0
pressure (bar)	uptake (cm3(STP)/g)
0.105961	2.57778
0.158941	3.74057
0.205299	5.05436
0.258279	6.46935
0.309604	8.13647
0.357618	9.50078
0.412254	10.7141
0.461923	11.8767
0.511592	13.0393
0.612586	15.1629
0.663911	16.1743
0.716891	17.3371
0.763249	18.2978
0.81954	19.3598
0.870865	20.3712
0.917223	21.4328
0.968548	22.4946
