Adsorption isotherm of Methane on SNU-70'
DOI: 10.1002/chem.201200456
Adsorbate Methane: InChIKey VNWKTOKETHGBQD-UHFFFAOYSA-N
Temperature: 195 K
Tabular data in the source: 0
pressure (bar)	uptake (cm3(STP)/g)
0.060177	3.10442
0.0829466	4.25757
0.110596	6.38394
0.156135	8.77862
0.20818	11.7932
0.258598	14.5424
0.309017	17.2915
0.356183	20.3052
0.41636	22.9677
0.463525	25.8046
0.512317	28.3767
0.564362	30.8609
0.613154	33.5214
0.66032	36.0931
0.712365	38.6657
0.76441	40.9732
0.814829	43.4571
0.863621	46.1175
0.914039	48.9551
0.966084	51.8813
