Adsorption isotherm of Hydrogen on SNU-71'
DOI: 10.1002/chem.201200456
Adsorbate Hydrogen: InChIKey UFHFLCQGNIYNRP-UHFFFAOYSA-N
Temperature: 77 K
Tabular data in the source: 0
pressure (bar)	uptake (mmol/g)
1.15839	7.0939
9.26714	15.8328
15.0591	17.3749
24.8227	18.8143
35.0827	19.4311
44.8463	19.6368
49.9764	19.8424
55.1064	19.9452
60.0709	19.9452
65.5319	20.048
70.331	19.8424
