Adsorption isotherm of Carbon Dioxide on SNU-71'
DOI: 10.1002/chem.201200456
Adsorbate Carbon Dioxide: InChIKey CURLTUGMZLYLDI-UHFFFAOYSA-N
Temperature: 273 K
Tabular data in the source: 0
pressure (bar)	uptake (cm3(STP)/g)
0.105502	3.46122
0.151643	5.16733
0.196098	7.27612
0.252115	9.4844
0.299851	11.8947
0.352538	14.4052
0.405258	16.5132
0.456337	18.4704
0.504119	20.3273
0.556847	22.3346
0.60462	24.2922
0.655708	26.1487
0.706787	28.1059
0.75787	30.0128
0.810619	31.7686
0.858388	33.7764
0.911129	35.6328
0.960555	37.5901
1.00835	39.2961
