Adsorption isotherm of Methane on SNU-70'
DOI: 10.1002/chem.201200456
Adsorbate Methane: InChIKey VNWKTOKETHGBQD-UHFFFAOYSA-N
Temperature: 273 K
Tabular data in the source: 0
pressure (bar)	uptake (cm3(STP)/g)
0.113749	0.850685
0.164111	1.34539
0.214463	1.91727
0.26482	2.44284
0.316793	3.06106
0.370404	3.58668
0.417503	4.15851
0.469489	4.66867
0.518216	5.22509
0.566945	5.76608
0.617303	6.29165
0.670911	6.83271
0.721251	7.51264
0.771605	8.06909
0.820323	8.70268
0.873943	9.15113
0.924304	9.64583
0.976275	10.2795
