Adsorption isotherm of Hydrogen on SNU-70'
DOI: 10.1002/chem.201200456
Adsorbate Hydrogen: InChIKey UFHFLCQGNIYNRP-UHFFFAOYSA-N
Temperature: 77 K
Tabular data in the source: 0
pressure (bar)	uptake (mmol/g)
0.827423	2.57026
1.15839	6.99111
5.13002	16.8609
9.76359	23.3379
15.3901	28.0672
20.5201	31.0487
25.3191	33.1049
30.2837	34.6471
35.5792	35.5723
40.2128	36.0864
45.0118	36.7032
50.3073	37.0117
55.2719	37.1145
60.0709	37.2173
65.2009	37.1145
70.1655	36.8061
