Adsorption isotherm of Hydrogen on SNU-70'
DOI: 10.1002/chem.201200456
Adsorbate Hydrogen: InChIKey UFHFLCQGNIYNRP-UHFFFAOYSA-N
Temperature: 77 K
Tabular data in the source: 0
pressure (bar)	uptake (cm3(STP)/g)
0.0505316	12.1134
0.0682369	15.7482
0.0910531	18.7795
0.111314	22.1126
0.149261	29.6854
0.20498	38.7757
0.260729	46.9587
0.31395	54.5361
0.354453	61.8071
0.41024	68.7803
0.463471	76.0552
0.511649	82.1187
0.564929	87.8813
0.615663	93.6431
0.668952	99.1033
0.722222	105.168
0.772975	110.325
0.823718	115.785
0.879553	121.246
0.981088	130.652
