Adsorption isotherm of Hydrogen on SNU-71'
DOI: 10.1002/chem.201200456
Adsorbate Hydrogen: InChIKey UFHFLCQGNIYNRP-UHFFFAOYSA-N
Temperature: 298 K
Tabular data in the source: 0
pressure (bar)	uptake (mmol/g)
5.57974	0.244482
10.1402	0.434635
15.1971	0.624788
20.6509	0.950764
25.516	1.08659
31.0693	1.27674
36.3181	1.52122
41.0044	1.62988
45.7436	1.8472
50.9527	2.01019
56.4797	2.14601
61.8412	2.28183
66.3884	2.44482
71.4321	2.60781
