Adsorption isotherm of Methane on SNU-71'
DOI: 10.1002/chem.201200456
Adsorbate Methane: InChIKey VNWKTOKETHGBQD-UHFFFAOYSA-N
Temperature: 273 K
Tabular data in the source: 0
pressure (bar)	uptake (cm3(STP)/g)
0.0763458	0.819245
0.112071	1.29829
0.160797	1.87015
0.21277	2.48836
0.259866	3.09106
0.315097	3.66301
0.363819	4.26574
0.415796	4.85308
0.461258	5.5175
0.516487	6.10489
0.563587	6.67672
0.615563	7.26406
0.662659	7.86677
0.716262	8.45413
0.766613	9.04145
0.820219	9.59794
0.870577	10.1235
0.920927	10.7108
0.97127	11.3599
