Adsorption isotherm of Hydrogen on SNU-71'
DOI: 10.1002/chem.201200456
Adsorbate Hydrogen: InChIKey UFHFLCQGNIYNRP-UHFFFAOYSA-N
Temperature: 87 K
Tabular data in the source: 0
pressure (bar)	uptake (cm3(STP)/g)
0.0506664	7.87902
0.0988061	15.1524
0.157168	21.2189
0.207882	27.5857
0.258635	32.7426
0.304306	37.5956
0.355049	43.0549
0.398203	46.9998
0.454038	52.4607
0.499758	55.8014
0.558129	61.5655
0.613983	66.4215
0.659712	69.4597
0.71302	74.3149
0.766377	77.6579
0.814613	81.9067
0.867979	84.9472
0.91878	88.5918
0.969571	92.5389
