Adsorption isotherm of Hydrogen on SNU-71'
DOI: 10.1002/chem.201200456
Adsorbate Hydrogen: InChIKey UFHFLCQGNIYNRP-UHFFFAOYSA-N
Temperature: 77 K
Tabular data in the source: 0
pressure (bar)	uptake (mmol/g)
5.62648	14.1878
15.2246	18.9171
24.8227	21.5901
35.7447	23.2351
40.3783	23.852
45.0118	24.2632
49.9764	24.9829
55.2719	25.5997
60.4019	26.1138
65.3664	26.7307
70	27.1419
