Adsorption isotherm of Nitrogen on SNU-70'
DOI: 10.1002/chem.201200456
Adsorbate Nitrogen: InChIKey IJGRMHOSHXDMSA-UHFFFAOYSA-N
Temperature: 77 K
Tabular data in the source: 0
pressure (bar)	uptake (cm3(STP)/g)
0.0064821	286.112
0.00857936	419.785
0.0110262	342.404
0.024472	623.842
0.026375	874.768
0.0308492	973.271
0.0468311	1123.39
0.06298	1172.68
0.093068	1205.58
0.141701	1240.86
0.188043	1259.73
0.252945	1271.61
0.327115	1288.19
0.436064	1304.86
0.55198	1314.51
0.602983	1319.32
0.658622	1324.14
0.716584	1326.62
0.769901	1333.78
0.830182	1336.26
0.888144	1338.74
0.939147	1343.55
