Adsorption isotherm of Hydrogen on SNU-71'
DOI: 10.1002/chem.201200456
Adsorbate Hydrogen: InChIKey UFHFLCQGNIYNRP-UHFFFAOYSA-N
Temperature: 77 K
Tabular data in the source: 0
pressure (bar)	uptake (cm3(STP)/g)
0.0352085	13.6211
0.0376869	15.739
0.0503006	19.3723
0.0578418	22.3991
0.0653831	25.4259
0.0729436	27.8479
0.0804944	30.5722
0.0931273	33.6006
0.138596	44.8051
0.191712	55.7094
0.242292	66.3105
0.297992	76.0058
0.401784	94.4867
0.452479	101.458
0.503174	108.43
0.538643	113.885
0.609676	121.77
0.645163	126.62
0.744104	137.538
0.784693	142.087
0.893817	153.008
0.944599	157.257
