Adsorption isotherm of Hydrogen on SNU-70'
DOI: 10.1002/chem.201200456
Adsorbate Hydrogen: InChIKey UFHFLCQGNIYNRP-UHFFFAOYSA-N
Temperature: 298 K
Tabular data in the source: 0
pressure (bar)	uptake (mmol/g)
6.04154	1.19525
11.1897	2.25467
17.2312	3.44992
28.2027	5.59593
33.9996	6.62818
38.9558	7.63328
44.4218	8.66553
50.0268	9.64346
55.4663	10.6214
61.4683	11.7351
71.7981	13.5823
77.4163	14.5874
