Adsorption isotherm of Hydrogen on SNU-70'
DOI: 10.1002/chem.201200456
Adsorbate Hydrogen: InChIKey UFHFLCQGNIYNRP-UHFFFAOYSA-N
Temperature: 77 K
Tabular data in the source: 0
pressure (bar)	uptake (mmol/g)
3.47518	14.9075
4.63357	18.403
9.76359	26.7307
15.3901	33.0021
25.3191	41.0213
30.1182	44.0028
35.4137	46.4702
45.1773	50.788
49.9764	52.6388
55.4374	54.1811
60.4019	55.6202
65.0355	57.1624
70.331	58.4988
