Adsorption isotherm of Hydrogen on SNU-70'
DOI: 10.1002/chem.201200456
Adsorbate Hydrogen: InChIKey UFHFLCQGNIYNRP-UHFFFAOYSA-N
Temperature: 298 K
Tabular data in the source: 0
pressure (bar)	uptake (mmol/g)
11.6488	0.814941
15.7128	1.00509
26.4418	1.62988
31.2205	1.92869
36.3302	2.2275
41.1089	2.52632
46.7018	2.79796
57.2125	3.31409
66.8695	3.77589
72.4492	4.02037
