Adsorption isotherm of Carbon Dioxide on SNU-70'
DOI: 10.1002/chem.201200456
Adsorbate Carbon Dioxide: InChIKey CURLTUGMZLYLDI-UHFFFAOYSA-N
Temperature: 195 K
Tabular data in the source: 0
pressure (bar)	uptake (cm3(STP)/g)
0.105612	122.699
0.155082	153.741
0.171559	155.11
0.20785	187.482
0.254019	214.479
0.260618	221.222
0.306806	261.687
0.353923	979.595
0.370399	979.617
0.396804	1011.98
0.41328	1012
0.449558	1034.94
0.464384	1033.61
0.49571	1049.82
0.510538	1049.84
0.541858	1062
0.556686	1062.02
0.594597	1074.19
0.611072	1074.21
0.648983	1086.38
0.662164	1086.4
0.703364	1094.54
0.719839	1094.56
0.74621	1101.33
0.762685	1101.35
0.889572	1119.03
0.9044	1119.05
0.950541	1125.84
0.965369	1125.86
0.995031	1129.94
1.01151	1129.96
1.02798	1129.99
