Adsorption isotherm of Carbon Dioxide on SNU-71'
DOI: 10.1002/chem.201200456
Adsorbate Carbon Dioxide: InChIKey CURLTUGMZLYLDI-UHFFFAOYSA-N
Temperature: 195 K
Tabular data in the source: 0
pressure (bar)	uptake (cm3(STP)/g)
0.0379347	29.6801
0.0494898	45.857
0.0742439	75.5196
0.0808675	99.7708
0.0891571	137.492
0.0990887	171.175
0.148603	234.541
0.257371	256.234
0.303512	263.03
0.346358	269.821
0.407327	276.636
0.461699	278.055
0.499597	280.799
0.552319	280.869
0.603393	280.937
0.656119	283.7
0.703902	286.458
0.759919	286.532
0.807704	290.636
0.862074	290.708
0.913155	296.163
0.962586	298.923
