Adsorption isotherm of Hydrogen on SNU-70 Br'
DOI: 10.1002/chem.201200456
Adsorbate Hydrogen: InChIKey UFHFLCQGNIYNRP-UHFFFAOYSA-N
Temperature: 77 K
Tabular data in the source: 0
pressure (bar)	uptake (cm3(STP)/g)
0.0197579	3.74192
0.0395158	7.48384
0.0395423	6.20305
0.0527109	8.86187
0.0592921	10.3391
0.0724871	11.7171
0.0823824	12.7999
0.0939224	14.2766
0.108752	16.5411
0.159873	22.349
0.201113	26.3844
0.260497	32.2899
0.305055	35.7339
0.351252	39.8673
0.400758	43.8034
0.455232	47.3449
0.506394	51.1823
0.557568	54.4285
0.610395	57.6746
0.658269	60.6256
0.711096	63.8717
0.760629	66.527
0.813466	69.2805
0.86465	72.0342
0.91913	75.2801
0.96868	77.1472
