Adsorption isotherm of Methane on SNU-71'
DOI: 10.1002/chem.201200456
Adsorbate Methane: InChIKey VNWKTOKETHGBQD-UHFFFAOYSA-N
Temperature: 195 K
Tabular data in the source: 0
pressure (bar)	uptake (cm3(STP)/g)
0.0276489	2.92195
0.0374073	4.07283
0.068309	7.08374
0.0796938	8.1465
0.0829466	8.76585
0.105716	10.1842
0.149629	13.7278
0.209806	18.0698
0.309017	25.5125
0.349677	28.0831
0.409854	32.3367
0.512317	39.2496
0.611528	46.0736
0.713992	52.3677
0.756278	54.6734
0.814829	58.5731
0.858742	60.8791
0.905907	63.6277
0.969337	66.8211
