Adsorption isotherm of Hydrogen on SNU-70 Br'
DOI: 10.1002/chem.201200456
Adsorbate Hydrogen: InChIKey UFHFLCQGNIYNRP-UHFFFAOYSA-N
Temperature: 87 K
Tabular data in the source: 0
pressure (bar)	uptake (cm3(STP)/g)
0.0643629	4.91985
0.0841696	6.29723
0.100683	7.08381
0.115547	7.67349
0.160123	10.2307
0.206345	13.1819
0.255878	15.8372
0.308719	18.3936
0.361562	20.8515
0.407804	22.8175
0.458992	25.3741
0.510188	27.5366
0.564689	29.7973
0.609277	31.7634
0.662131	33.7287
0.710021	35.8916
0.762885	37.3642
0.814083	39.4282
0.865283	41.3937
0.918139	43.2605
0.96769	45.0291
