Adsorption isotherm of Nitrogen on SNU-70 Br'
DOI: 10.1002/chem.201200456
Adsorbate Nitrogen: InChIKey IJGRMHOSHXDMSA-UHFFFAOYSA-N
Temperature: 77 K
Tabular data in the source: 0
pressure (bar)	uptake (cm3(STP)/g)
0	144.907
0.00137111	123.44
0.00411333	164.844
0.00685555	244.584
0.00822666	257.618
0.00959777	274.487
0.0137111	374.162
0.0233089	481.507
0.0411333	516.789
0.0548444	526.767
0.0726688	536.747
0.0850088	542.123
0.126142	555.189
0.17276	564.424
0.227604	570.599
0.285191	577.543
0.349633	581.426
0.412704	589.14
0.453837	589.171
0.60603	596.187
0.658133	596.226
0.710235	599.333
0.762337	600.905
0.813068	603.244
0.862428	604.048
