Adsorption isotherm of Methane on SNU-71'
DOI: 10.1002/chem.201200456
Adsorbate Methane: InChIKey VNWKTOKETHGBQD-UHFFFAOYSA-N
Temperature: 298 K
Tabular data in the source: 0
pressure (bar)	uptake (cm3(STP)/g)
0.12025	0.897091
0.209623	1.57761
0.263255	1.91801
0.313632	2.2738
0.362383	2.62956
0.414383	3.01624
0.468011	3.3875
0.516764	3.72783
0.567139	4.09905
0.617518	4.4394
0.669514	4.85695
0.718272	5.15096
0.768646	5.53762
0.822276	5.89345
0.869402	6.23375
0.921406	6.58956
0.971783	6.94534
