Adsorption isotherm of Hydrogen on SNU-70'
DOI: 10.1002/chem.201200456
Adsorbate Hydrogen: InChIKey UFHFLCQGNIYNRP-UHFFFAOYSA-N
Temperature: 87 K
Tabular data in the source: 0
pressure (bar)	uptake (cm3(STP)/g)
0.11168	10.6193
0.152288	14.5634
0.203079	18.5105
0.258924	23.669
0.307179	27.3129
0.357961	31.5624
0.406207	35.5088
0.46209	39.4574
0.510355	42.7988
0.558591	47.0476
0.61701	51.2995
0.665304	53.7336
0.71353	58.2848
0.766887	61.6278
0.815132	65.5741
0.863407	68.6131
0.916783	71.3512
0.975231	74.6956
