Adsorption isotherm of Carbon Dioxide on SNU-70'
DOI: 10.1002/chem.201200456
Adsorbate Carbon Dioxide: InChIKey CURLTUGMZLYLDI-UHFFFAOYSA-N
Temperature: 298 K
Tabular data in the source: 0
pressure (bar)	uptake (cm3(STP)/g)
0.112583	2.0737
0.162252	2.93368
0.210266	3.79357
0.263246	4.65371
0.312915	5.61457
0.360929	6.57534
0.413909	7.28416
0.46689	8.19474
0.514903	9.15552
0.566228	9.91469
0.615897	10.926
0.663911	11.7354
0.718547	12.5957
0.768216	13.5061
0.822852	14.3159
0.872521	15.2263
0.923846	16.1368
0.971859	17.0471
