Adsorption isotherm of Hydrogen on SNU-71'
DOI: 10.1002/chem.201200456
Adsorbate Hydrogen: InChIKey UFHFLCQGNIYNRP-UHFFFAOYSA-N
Temperature: 298 K
Tabular data in the source: 0
pressure (bar)	uptake (mmol/g)
5.90356	0.570458
10.5959	1.03226
15.7848	1.49406
20.8345	2.01019
26.4803	2.39049
36.8711	3.34126
42.3118	3.64007
47.196	4.1562
51.6702	4.50934
57.7128	5.02547
63.0012	5.35144
67.9981	5.75891
72.8296	6.16638
