Adsorption isotherm of Nitrogen on Salen-COF (fourth trial)
DOI: 10.1021/jacs.7b01523
Article source: Figure S12
Adsorbate Nitrogen: InChIKey IJGRMHOSHXDMSA-UHFFFAOYSA-N
Kind: experiment
Temperature: 77 K
Tabular data in the source: 0
pressure (bar)	uptake (cm3(STP)/g)
0.001226	5.9555
0.001226	11.4529
0.001226	19.6989
0.001226	26.1126
0	32.9843
0	39.856
0.001226	66.4267
0.001226	76.5052
0.00612	89.3325
0.008562	94.8298
0.011014	103.534
0.01836	121.401
0.03059	134.228
0.037936	142.932
0.045282	149.804
0.052618	156.217
0.06119	162.173
0.080766	175
0.101568	186.453
0.121154	198.364
0.14073	209.359
0.162758	218.521
0.181108	224.935
0.20192	229.058
0.253312	238.22
0.304705	243.259
0.356107	246.924
0.405057	248.757
0.454007	251.505
0.505399	252.421
0.556801	254.254
0.605751	256.086
0.657143	257.003
0.707319	258.835
0.757485	259.751
0.808888	262.5
0.828464	263.416
0.857838	266.165
0.88476	267.997
0.90923	270.746
0.93371	273.495
0.960632	279.908
0.985102	292.736
0.992448	299.149
0.999784	311.06
0.14073	214.856
0.155412	222.186
0.172546	227.683
0.20192	234.097
0.21415	237.762
0.22639	239.594
0.252086	243.717
0.302263	248.757
0.353655	251.505
0.402605	253.338
0.454007	255.17
0.505399	257.003
0.556801	258.835
0.606967	259.751
0.657143	261.126
0.686517	262.5
0.758711	264.332
0.808888	266.165
0.838252	267.997
0.863958	268.914
0.885986	270.288
0.912908	273.037
0.93983	278.534
0.980208	299.607
1.00346	322.513
