Adsorption isotherm of Nitrogen on Salen-COF
DOI: 10.1021/jacs.7b01523
Article source: Figure S10
Adsorbate Nitrogen: InChIKey IJGRMHOSHXDMSA-UHFFFAOYSA-N
Kind: experiment
Temperature: 77 K
Tabular data in the source: 0
pressure (bar)	uptake (cm3(STP)/g)
0	1.49813
0	20.9738
0	34.4569
0	44.9438
0	52.4345
0	59.9251
0.005208	122.097
0.010416	143.82
0.031238	191.76
0.058313	234.457
0.079145	262.172
0.101011	282.397
0.1208	298.127
0.141622	313.858
0.160367	331.086
0.181199	355.805
0.199945	387.266
0.252016	405.993
0.306164	426.966
0.357191	434.457
0.424876	439.7
0.47486	442.697
0.506108	444.944
0.556092	446.442
0.608163	446.442
0.656059	449.438
0.70813	449.438
0.759157	449.438
0.810185	450.936
0.831007	452.434
0.860168	454.682
0.90391	456.929
0.912239	456.929
0.936192	459.925
0.980968	470.412
0.98722	474.906
0.993461	480.899
1.00076	494.382
0.145786	340.075
0.200988	411.236
0.254093	427.715
0.304076	446.442
0.334281	451.685
0.404054	457.678
0.456114	459.925
0.505065	465.169
0.557136	466.667
0.58733	467.416
0.639401	467.416
0.689385	467.416
0.738325	466.667
0.789352	466.667
0.814349	467.416
0.839346	467.416
0.864333	467.416
0.891407	468.914
0.916404	469.663
0.942434	471.91
0.983055	485.393
1.00596	512.36
