Adsorption isotherm of Nitrogen on Co/Salen-COF
DOI: 10.1021/jacs.7b01523
Article source: Figure S11
Adsorbate Nitrogen: InChIKey IJGRMHOSHXDMSA-UHFFFAOYSA-N
Kind: experiment
Temperature: 77 K
Tabular data in the source: 0
pressure (bar)	uptake (cm3(STP)/g)
0	1.99253
0	16.9365
0	21.9178
0	26.8991
0	32.8767
0	37.858
0	42.8394
0.002006	71.731
0.002006	80.6974
0.006009	95.1432
0.008015	103.611
0.010021	111.582
0.021045	132.503
0.030063	145.455
0.038088	154.421
0.044097	161.395
0.054118	169.365
0.060136	174.844
0.080178	188.294
0.102227	202.242
0.121266	214.695
0.141318	224.159
0.162363	231.133
0.183408	236.613
0.204454	241.096
0.254569	249.066
0.305677	254.047
0.355793	257.534
0.404895	260.025
0.457016	262.017
0.506129	264.508
0.557237	266.999
0.607352	267.995
0.657457	270.486
0.708576	271.98
0.758681	273.474
0.8098	275.965
0.829842	277.958
0.859905	279.452
0.883959	281.943
0.91002	284.932
0.936081	288.917
0.960135	294.894
0.986186	306.849
0.992205	315.816
1.00022	335.741
0.142311	235.118
0.202447	252.055
0.252563	261.021
0.303671	265.006
0.353786	267.995
0.404895	270.984
0.456013	273.474
0.506129	274.969
0.556234	276.463
0.607352	277.958
0.659464	278.954
0.709579	279.95
0.759684	280.946
0.788754	281.943
0.813812	282.939
0.839863	283.935
0.86492	285.928
0.887972	287.422
0.914033	289.913
0.940083	293.898
0.96815	303.861
0.987189	321.793
1.00523	356.164
