Adsorption isotherm of Water on SNU-80
DOI: 10.1002/chem.201103078
Adsorbate Water: InChIKey XLYOFNOQVPJJNP-UHFFFAOYSA-N
Temperature: 298 K
Tabular data in the source: 0
pressure (bar)	uptake (cm3(STP)/g)
0.00373573	3.2954
0.0051641	4.3872
0.00648259	4.33921
0.00813071	5.42301
0.0113171	6.45082
0.0118664	6.43082
0.0127454	5.25504
0.0142837	7.48663
0.015712	7.43464
0.0173602	8.51844
0.0193379	9.59025
0.0213156	8.37447
0.0226341	9.47027
0.024502	9.40228
0.0261501	10.4861
0.0277982	12.7137
0.0291167	11.5219
0.0305451	11.4699
