Adsorption isotherm of Nitrogen on SNU-80
DOI: 10.1002/chem.201103078
Adsorbate Nitrogen: InChIKey IJGRMHOSHXDMSA-UHFFFAOYSA-N
Temperature: 77 K
Tabular data in the source: 0
pressure (bar)	uptake (cm3(STP)/g)
0.0104895	51.4586
0.0174825	67.4637
0.027972	75.4582
0.0384615	81.1652
0.048951	86.8721
0.0699301	89.1357
0.0979021	93.6789
0.108392	94.8107
0.15035	98.194
0.20979	104.989
0.255245	107.224
0.304196	109.456
0.356643	111.684
0.405594	112.771
0.458042	114.999
0.506993	117.231
0.559441	119.458
0.604895	121.694
0.653846	261.18
0.702797	274.85
0.751748	282.8
0.800699	286.176
0.856643	297.55
0.902098	300.929
0.951049	305.448
