Adsorption isotherm of Carbon Dioxide on SNU-80
DOI: 10.1002/chem.201103078
Adsorbate Carbon Dioxide: InChIKey CURLTUGMZLYLDI-UHFFFAOYSA-N
Temperature: 195 K
Tabular data in the source: 0
pressure (bar)	uptake (cm3(STP)/g)
0.0034965	4.57116
0.020979	10.2701
0.0384615	17.1129
0.048951	21.676
0.0629371	27.379
0.0699301	30.8024
0.0839161	37.6491
0.101399	43.3481
0.15035	55.8738
0.199301	63.8243
0.251748	70.6271
0.307692	73.9945
0.346154	77.3819
0.402098	80.7492
0.447552	82.9848
0.5	86.3562
0.545455	184.67
0.604895	233.785
0.657343	239.444
0.706294	241.676
0.744755	245.063
0.797203	247.291
0.863636	251.79
0.895105	254.042
0.947552	255.125
0.996503	256.213
