Adsorption isotherm of Oxygen on SNU-80
DOI: 10.1002/chem.201103078
Adsorbate Oxygen: InChIKey MYMOFIZGZYHOMD-UHFFFAOYSA-N
Temperature: 77 K
Tabular data in the source: 0
pressure (bar)	uptake (cm3(STP)/g)
0.000725954	97.2182
0.00217786	113.223
0.00508168	118.926
0.00871145	126.913
0.0108893	129.188
0.0166969	133.732
0.0188748	134.863
0.0254084	138.259
0.0355718	142.778
0.0464611	146.149
0.0573504	148.377
0.0689657	150.6
0.079855	152.828
0.0907443	155.056
0.101634	157.283
0.111797	158.371
0.122686	160.599
0.132124	160.547
0.143739	163.914
0.153902	165.002
0.161162	166.106
0.174229	168.321
0.182215	170.565
0.184392	315.814
