Adsorption isotherm of Carbon Dioxide on MOF Mg-MOF-74
DOI: 10.2533/chimia.2015.248
Article source: Figure 3
Adsorbate Carbon Dioxide: InChIKey CURLTUGMZLYLDI-UHFFFAOYSA-N
Kind: experiment
Temperature: 313 K
Tabular data in the source: 0
pressure (bar)	uptake (mmol/g)
0.000771	0.0143
0.003446	0.4614
0.009891	1.662
0.018394	2.6301
0.038055	3.9335
0.057586	4.7881
0.077235	5.3704
0.096152	5.7797
0.120564	6.1912
0.139926	6.4829
0.151201	6.5983
0.159689	6.7029
0.177875	6.8832
0.200062	7.0708
0.249871	7.3887
0.302721	7.6784
0.355035	7.9148
0.451581	8.291
0.548329	8.5853
0.649262	8.8418
0.749618	9.0911
0.848818	9.3083
0.950482	9.5148
