Adsorption isotherm of Carbon Dioxide on zeolite silicalite
DOI: 10.2533/chimia.2015.248
Article source: Figure 3
Adsorbate Carbon Dioxide: InChIKey CURLTUGMZLYLDI-UHFFFAOYSA-N
Kind: experiment
Temperature: 307 K
Tabular data in the source: 0
pressure (bar)	uptake (mmol/g)
1.07634	1.43348
1.29417	1.67801
2.02642	1.97148
3.40369	2.30184
5.03883	2.49827
6.76098	2.60102
9.87552	2.78188
