Adsorption isotherm of Carbon Dioxide on MOF Mg-MOF-74
DOI: 10.2533/chimia.2015.248
Article source: Figure 3
Adsorbate Carbon Dioxide: InChIKey CURLTUGMZLYLDI-UHFFFAOYSA-N
Kind: experiment
Temperature: 313 K
Tabular data in the source: 0
pressure (bar)	uptake (mmol/g)
0.001684	0.022
0.009165	1.3215
0.018177	2.0939
0.03773	3.1506
0.057592	3.8119
0.07669	4.2779
0.095942	4.6258
0.120013	4.954
0.140034	5.1676
0.149467	5.2722
0.160152	5.3797
0.179403	5.516
0.200965	5.6666
0.250726	5.9244
0.303345	6.1517
0.354208	6.3275
0.403492	6.4786
0.452488	6.6268
0.500907	6.7622
0.550865	6.8789
0.600183	6.9844
0.650384	7.0979
0.701607	7.1949
0.750507	7.2902
0.800177	7.3526
0.850424	7.4565
0.900462	7.5376
0.950975	7.6097
0.995727	7.7051
