Adsorption isotherm of Carbon Dioxide on zeolite silicalite
DOI: 10.2533/chimia.2015.248
Article source: Figure 3
Adsorbate Carbon Dioxide: InChIKey CURLTUGMZLYLDI-UHFFFAOYSA-N
Kind: experiment
Temperature: 300 K
Tabular data in the source: 0
pressure (bar)	uptake (mmol/g)
0.002736	0.01458
0.007419	0.02942
0.016539	0.05206
0.028154	0.07198
0.0489	0.10358
0.068557	0.15663
0.133275	0.29935
0.256319	0.54874
0.459875	0.86397
0.571426	1.06379
0.863993	1.37112
1.14773	1.59463
