Adsorption isotherm of Cr(VI), Water on RES-02 pH 6
DOI: 10.1007/s10450-017-9925-y
Article source: Figure 4a
Adsorbate Cr(VI): InChIKey JOPOVCBBYLSVDA-UHFFFAOYSA-N
Adsorbate Water: InChIKey XLYOFNOQVPJJNP-UHFFFAOYSA-N
Kind: experiment
Temperature: 298 K
Tabular data in the source: 0
pressure (bar)	Cr(VI) fraction	Cr(VI) uptake (mg/g)	Water fraction	Water uptake (mg/g)	total uptake (mg/g)
1.01325	0	0			
1.01325	36.2158	1.27749			
1.01325	54.3237	1.66492			
1.01325	68.7361	1.98953			
1.01325	87.2136	2.26178			
1.01325	97.561	2.79581			
1.01325	116.408	3.06806			
1.01325	136.733	3.28796			
1.01325	150.776	3.79058			
1.01325	232.816	5.56021			
1.01325	290.466	6.17801			
1.01325	327.79	7.03665			
1.01325	419.438	8.64921			
