Adsorption isotherm of Cr(VI), Water on RES-02 pH 2
DOI: 10.1007/s10450-017-9925-y
Article source: Figure 4c
Adsorbate Cr(VI): InChIKey JOPOVCBBYLSVDA-UHFFFAOYSA-N
Adsorbate Water: InChIKey XLYOFNOQVPJJNP-UHFFFAOYSA-N
Kind: experiment
Temperature: 298 K
Tabular data in the source: 0
pressure (bar)	Cr(VI) fraction	Cr(VI) uptake (mg/g)	Water fraction	Water uptake (mg/g)	total uptake (mg/g)
1.01325	0	6.31579			
1.01325	0.772201	0			
1.01325	0.772201	12.3684			
1.01325	0.772201	20.5263			
1.01325	0.772201	31.3158			
1.01325	13.8996	106.842			
1.01325	18.5328	110.263			
1.01325	22.3938	114.737			
1.01325	28.5714	133.684			
1.01325	114.286	162.105			
1.01325	195.367	186.842			
1.01325	393.05	203.421			
1.01325	489.575	211.316			
1.01325	587.645	207.368			
1.01325	644.015	218.421			
1.01325	860.232	225.263			
