Adsorption isotherm of Cr(VI), Water on RES-02 pH 4
DOI: 10.1007/s10450-017-9925-y
Article source: Figure 4b
Adsorbate Cr(VI): InChIKey JOPOVCBBYLSVDA-UHFFFAOYSA-N
Adsorbate Water: InChIKey XLYOFNOQVPJJNP-UHFFFAOYSA-N
Kind: experiment
Temperature: 298 K
Tabular data in the source: 0
pressure (bar)	Cr(VI) fraction	Cr(VI) uptake (mg/g)	Water fraction	Water uptake (mg/g)	total uptake (mg/g)
1.01325	0.376506	0			
1.01325	0.376506	10.0746			
1.01325	22.2139	34.6482			
1.01325	68.9006	39.3923			
1.01325	168.675	44.0299			
1.01325	270.708	46.8017			
1.01325	378.389	48.2409			
1.01325	481.551	47.9211			
