Adsorption isotherm of N-propane, Carbon Dioxide on Zeolite H-mordenite
DOI: 10.1002/aic.690320805
Article source: Table 5
Adsorbate N-propane: InChIKey ATUOYWHBWRKTHZ-UHFFFAOYSA-N
Adsorbate Carbon Dioxide: InChIKey CURLTUGMZLYLDI-UHFFFAOYSA-N
Kind: experiment
Temperature: 303 K
Tabular data in the source: 0
pressure (bar)	N-propane fraction	N-propane uptake (mmol/g)	Carbon Dioxide fraction	Carbon Dioxide uptake (mmol/g)	total uptake (mmol/g)
0.4088	0.042	0.33233	0.958	1.33767	1.67
0.4155	0.367	0.721215	0.633	0.983785	1.705
0.4095	0.662	0.82161	0.338	0.78939	1.611
0.4086	0.965	0.924017	0.035	0.346983	1.271
