Adsorption isotherm of N-propane, Hydrogen sulfide on Zeolite H-mordenite
DOI: 10.1002/aic.690320805
Article source: Table 5
Adsorbate N-propane: InChIKey ATUOYWHBWRKTHZ-UHFFFAOYSA-N
Adsorbate Hydrogen sulfide: InChIKey RWSOTUBLDIXVET-UHFFFAOYSA-N
Kind: experiment
Temperature: 303 K
Tabular data in the source: 0
pressure (bar)	N-propane fraction	N-propane uptake (mmol/g)	Hydrogen sulfide fraction	Hydrogen sulfide uptake (mmol/g)	total uptake (mmol/g)
0.0813	0.064	0.155484	0.936	1.69552	1.851
0.0814	0.416	0.406134	0.584	1.45687	1.863
0.083	0.721	0.526838	0.279	1.23516	1.762
0.0797	0.897	0.6232	0.103	0.9348	1.558
