Adsorption isotherm of N-propane, Carbon Dioxide on Zeolite H-mordenite
DOI: 10.1002/aic.690320805
Article source: Table 5
Adsorbate N-propane: InChIKey ATUOYWHBWRKTHZ-UHFFFAOYSA-N
Adsorbate Carbon Dioxide: InChIKey CURLTUGMZLYLDI-UHFFFAOYSA-N
Kind: experiment
Temperature: 303 K
Tabular data in the source: 0
pressure (bar)	N-propane fraction	N-propane uptake (mmol/g)	Carbon Dioxide fraction	Carbon Dioxide uptake (mmol/g)	total uptake (mmol/g)
0.0129	0.833	0.471344	0.167	0.190656	0.662
0.1011	0.835	0.711543	0.165	0.381457	1.093
0.2141	0.837	0.805662	0.163	0.481338	1.287
0.4103	0.833	0.87615	0.167	0.59885	1.475
0.6119	0.822	0.90277	0.178	0.69223	1.595
