Adsorption isotherm of Carbon Dioxide, Hydrogen sulfide on Zeolite H-mordenite
DOI: 10.1002/aic.690320805
Article source: Table 5
Adsorbate Carbon Dioxide: InChIKey CURLTUGMZLYLDI-UHFFFAOYSA-N
Adsorbate Hydrogen sulfide: InChIKey RWSOTUBLDIXVET-UHFFFAOYSA-N
Kind: experiment
Temperature: 303 K
Tabular data in the source: 0
pressure (bar)	Carbon Dioxide fraction	Carbon Dioxide uptake (mmol/g)	Hydrogen sulfide fraction	Hydrogen sulfide uptake (mmol/g)	total uptake (mmol/g)
0.006	0.771	0.138006	0.229	0.599994	0.738
0.0062	0.784	0.12126	0.216	0.52374	0.645
0.07	0.788	0.166268	0.212	0.621732	0.788
0.1217	0.795	0.172515	0.205	0.622485	0.795
