Adsorption isotherm of Carbon Dioxide on Zeolite H-mordenite
DOI: 10.1002/aic.690320805
Article source: Table 4
Adsorbate Carbon Dioxide: InChIKey CURLTUGMZLYLDI-UHFFFAOYSA-N
Kind: experiment
Temperature: 303 K
Tabular data in the source: 0
pressure (bar)	uptake (mmol/g)
0.0037	0.25
0.0057	0.29
0.0063	0.31
0.0072	0.32
0.0094	0.36
0.012	0.4
0.0157	0.45
0.0297	0.6
0.0363	0.68
0.0424	0.73
0.0456	0.73
0.0508	0.78
0.0602	0.84
0.0688	0.86
0.0751	0.92
0.0822	0.92
0.0959	1.01
0.1174	1.07
0.1271	1.13
0.1467	1.2
0.1771	1.28
0.1987	1.3
0.232	1.39
0.275	1.49
0.2829	1.49
0.3413	1.58
0.4029	1.67
0.4672	1.75
