Adsorption isotherm of Hydrogen sulfide on Zeolite H-mordenite
DOI: 10.1002/aic.690320805
Article source: Table 4
Adsorbate Hydrogen sulfide: InChIKey RWSOTUBLDIXVET-UHFFFAOYSA-N
Kind: experiment
Temperature: 303 K
Tabular data in the source: 0
pressure (bar)	uptake (mmol/g)
0.0049	0.89
0.0058	0.96
0.0076	1.03
0.0086	1.1
0.011	1.16
0.0136	1.23
0.017	1.3
0.0189	1.38
0.0257	1.45
0.0332	1.51
0.0403	1.57
0.0487	1.63
0.0573	1.69
0.0678	1.75
0.0809	1.82
0.096	1.88
0.1167	1.96
0.1432	2.04
0.171	2.11
0.2026	2.18
0.2595	2.26
0.2762	2.28
