Adsorption isotherm of N-propane, Hydrogen sulfide on Zeolite H-mordenite
DOI: 10.1002/aic.690320805
Article source: Table 5
Adsorbate N-propane: InChIKey ATUOYWHBWRKTHZ-UHFFFAOYSA-N
Adsorbate Hydrogen sulfide: InChIKey RWSOTUBLDIXVET-UHFFFAOYSA-N
Kind: experiment
Temperature: 303 K
Tabular data in the source: 0
pressure (bar)	N-propane fraction	N-propane uptake (mmol/g)	Hydrogen sulfide fraction	Hydrogen sulfide uptake (mmol/g)	total uptake (mmol/g)
0.0185	0.959	0.504	0.041	0.456	0.96
0.0487	0.969	0.608215	0.031	0.572785	1.181
0.0811	0.96	0.645932	0.04	0.711068	1.357
0.1832	0.965	0.73154	0.035	0.84846	1.58
