Adsorption isotherm of Carbon Dioxide, Hydrogen sulfide on Zeolite H-mordenite
DOI: 10.1002/aic.690320805
Article source: Table 5
Adsorbate Carbon Dioxide: InChIKey CURLTUGMZLYLDI-UHFFFAOYSA-N
Adsorbate Hydrogen sulfide: InChIKey RWSOTUBLDIXVET-UHFFFAOYSA-N
Kind: experiment
Temperature: 303 K
Tabular data in the source: 0
pressure (bar)	Carbon Dioxide fraction	Carbon Dioxide uptake (mmol/g)	Hydrogen sulfide fraction	Hydrogen sulfide uptake (mmol/g)	total uptake (mmol/g)
0.1555	0.819	0.42771	0.181	1.18629	1.614
0.1438	0.16	0.06224	0.84	1.88276	1.945
0.1493	0.362	0.147108	0.638	1.73889	1.886
0.1569	0.536	0.233728	0.464	1.59227	1.826
0.1577	0.934	0.663432	0.066	0.772568	1.436
