Adsorption isotherm of N-propane on Zeolite H-mordenite
DOI: 10.1002/aic.690320805
Article source: Table 4
Adsorbate N-propane: InChIKey ATUOYWHBWRKTHZ-UHFFFAOYSA-N
Kind: experiment
Temperature: 303 K
Tabular data in the source: 0
pressure (bar)	uptake (mmol/g)
0.001	0.09
0.0014	0.12
0.0022	0.18
0.0033	0.24
0.0041	0.3
0.0049	0.31
0.0057	0.36
0.0077	0.41
0.0099	0.44
0.0108	0.48
0.0147	0.51
0.0151	0.53
0.0227	0.59
0.024	0.59
0.0322	0.64
0.0472	0.69
0.0506	0.7
0.0739	0.75
0.1026	0.79
0.1267	0.81
0.167	0.85
0.2481	0.9
0.3428	0.95
0.4385	0.98
0.5462	1.02
0.6579	1.04
0.7319	1.06
0.9466	1.09
1.1589	1.14
1.4007	1.17
1.589	1.19
1.7476	1.2
