Adsorption isotherm of Methane on IRMOF-1
DOI: 10.1021/Jp074889i
Adsorbate Methane: InChIKey VNWKTOKETHGBQD-UHFFFAOYSA-N
Temperature: 240 K
Tabular data in the source: 0
pressure (bar)	uptake (wt%)
1.31579	2.4034
1.57895	3.20494
2.36842	4.00527
3.15789	4.96602
3.94737	6.40807
5.26316	8.81147
7.36842	12.0152
10.2632	15.8588
13.9474	20.0215
19.4737	24.3404
24.7368	27.216
30	29.1291
36.8421	31.0386
43.6842	32.3063
50	33.2544
56.0526	33.8822
60	34.3545
61.3158	34.5119
62.3684	34.5095
