Adsorption isotherm of Hydrogen on ZIF-8
DOI: 10.1021/Jp074889i
Adsorbate Hydrogen: InChIKey UFHFLCQGNIYNRP-UHFFFAOYSA-N
Temperature: 50 K
Tabular data in the source: 0
pressure (bar)	uptake (wt%)
0.259259	3.54672
0.518519	3.69343
0.777778	3.80015
1.03704	3.85353
1.2963	3.93358
1.81481	4.00035
2.07407	4.0404
3.11111	4.10726
4.14815	4.17412
7.25926	4.26805
10.8889	4.36207
15.5556	4.44296
18.1481	4.48346
19.963	4.51047
