Adsorption isotherm of Hydrogen on IRMOF-1
DOI: 10.1021/Jp074889i
Adsorbate Hydrogen: InChIKey UFHFLCQGNIYNRP-UHFFFAOYSA-N
Temperature: 30 K
Tabular data in the source: 0
pressure (bar)	uptake (wt%)
0.285562	9.97376
0.293938	9.62099
0.306884	9.0758
0.542949	10.1341
1.32425	10.2303
1.84663	10.2303
2.36978	10.1983
3.15489	10.1341
