Adsorption isotherm of Methane on IRMOF-1
DOI: 10.1021/Jp074889i
Adsorbate Methane: InChIKey VNWKTOKETHGBQD-UHFFFAOYSA-N
Temperature: 240 K
Tabular data in the source: 0
pressure (bar)	uptake (wt%)
0.786517	1.76
1.31086	2.24
1.83521	2.88
2.35955	3.68
2.8839	4.64
3.67041	5.92
4.98127	8
7.34082	11.04
10.2247	14.4
13.8951	18.08
19.4007	21.6
24.6442	23.68
29.8876	24.48
36.9663	25.28
43.2584	25.28
49.8127	24.8
56.1049	24.32
59.7753	23.84
61.0861	23.68
61.8727	23.52
