Adsorption isotherm of Hydrogen on IRMOF-1
DOI: 10.1021/Jp074889i
Adsorbate Hydrogen: InChIKey UFHFLCQGNIYNRP-UHFFFAOYSA-N
Temperature: 100 K
Tabular data in the source: 0
pressure (bar)	uptake (wt%)
1.04869	0.41691
1.83521	0.609329
2.09738	0.737609
2.62172	0.865889
3.40824	1.02624
4.7191	1.2828
6.81648	1.6035
9.17603	1.95627
12.5843	2.30904
17.5655	2.69388
22.5468	2.91837
27.7903	3.11079
34.3446	3.27114
40.6367	3.30321
46.9288	3.36735
52.6966	3.33528
57.9401	3.33528
60.5618	3.27114
61.6105	3.30321
