Adsorption isotherm of Hydrogen on ZIF-8
DOI: 10.1021/Jp074889i
Adsorbate Hydrogen: InChIKey UFHFLCQGNIYNRP-UHFFFAOYSA-N
Temperature: 30 K
Tabular data in the source: 0
pressure (bar)	uptake (wt%)
0.284619	4.28125
0.292751	4.375
0.813197	4.375
1.329	4.32143
2.10734	4.29464
2.62546	4.26786
3.40033	4.20089
3.65822	4.17411
3.91612	4.14732
