Adsorption isotherm of Hydrogen on IRMOF-1
DOI: 10.1021/Jp074889i
Adsorbate Hydrogen: InChIKey UFHFLCQGNIYNRP-UHFFFAOYSA-N
Temperature: 50 K
Tabular data in the source: 0
pressure (bar)	uptake (wt%)
0.41654	4.45773
0.648035	5.70845
0.653366	5.48397
0.657935	5.29155
0.662504	5.09913
0.903899	5.93294
0.927505	4.93878
1.16129	6.09329
1.41639	6.34985
1.66768	6.76676
1.67301	6.54227
1.92355	6.99125
2.4406	7.21574
2.9569	7.4723
3.47472	7.66472
4.77383	7.95335
6.5961	8.20991
9.20728	8.24198
12.6036	8.20991
17.3111	7.95335
22.283	7.56851
27.2571	7.08746
