Adsorption isotherm of Hydrogen on IRMOF-1
DOI: 10.1021/Jp074889i
Adsorbate Hydrogen: InChIKey UFHFLCQGNIYNRP-UHFFFAOYSA-N
Temperature: 77 K
Tabular data in the source: 0
pressure (bar)	uptake (wt%)
0.524345	0.935242
0.786517	1.22544
1.04869	1.58016
1.31086	1.77359
1.83521	1.99915
2.09738	2.22484
2.62172	2.51492
3.40824	2.83714
3.67041	3.06282
4.98127	3.54609
7.07865	4.15803
9.70037	4.76972
13.1086	5.3488
18.0899	5.92715
23.8577	6.40836
28.839	6.69639
35.9176	7.08022
42.4719	7.30301
48.764	7.52592
54.5318	7.68455
58.9888	7.77927
60.824	7.81068
61.8727	7.84245
