Adsorption isotherm of Hydrogen on IRMOF-1
DOI: 10.1021/Jp074889i
Adsorbate Hydrogen: InChIKey UFHFLCQGNIYNRP-UHFFFAOYSA-N
Temperature: 40 K
Tabular data in the source: 0
pressure (bar)	uptake (wt%)
0.335059	7.88921
0.338105	7.76093
0.343436	7.53644
0.349528	7.27988
0.357143	6.95918
0.593207	8.01749
0.841456	8.56268
0.844502	8.4344
0.848309	8.27405
1.0996	8.69096
1.35699	8.85131
1.87329	9.10787
2.1322	9.20408
2.91349	9.30029
3.69479	9.3965
5.26119	9.42857
6.83064	9.33236
9.97182	9.04373
13.1168	8.59475
