Adsorption isotherm of Hydrogen on IRMOF-1
DOI: 10.1021/Jp074889i
Adsorbate Hydrogen: InChIKey UFHFLCQGNIYNRP-UHFFFAOYSA-N
Temperature: 77 K
Tabular data in the source: 0
pressure (bar)	uptake (wt%)
0.789474	1.34759
1.05263	1.50802
1.31579	1.70053
1.57895	1.92513
2.10526	2.14973
2.63158	2.4385
3.42105	2.6631
3.68421	2.91979
5	3.36898
6.84211	3.88235
9.73684	4.39572
13.4211	4.84492
18.1579	5.22995
23.9474	5.48663
28.9474	5.64706
36.0526	5.74332
42.6316	5.74332
48.9474	5.71123
55	5.64706
59.2105	5.61497
60.7895	5.5508
62.1053	5.51872
