Adsorption isotherm of Hydrogen on IRMOF-1
DOI: 10.1021/Jp074889i
Adsorbate Hydrogen: InChIKey UFHFLCQGNIYNRP-UHFFFAOYSA-N
Temperature: 300 K
Tabular data in the source: 0
pressure (bar)	uptake (wt%)
2.09738	0.0312915
3.40824	0.0629455
4.98127	0.0299625
7.34082	0.0611333
10.7491	0.156337
15.7303	0.218557
21.7603	0.280295
27.2659	0.374532
34.6067	0.467923
41.6854	0.529177
48.764	0.654947
55.0562	0.716564
59.5131	0.746768
61.3483	0.778181
62.1348	0.777818
