Adsorption isotherm of Methane on ZIF-8
DOI: 10.1021/Jp074889i
Adsorbate Methane: InChIKey VNWKTOKETHGBQD-UHFFFAOYSA-N
Temperature: 150 K
Tabular data in the source: 0
pressure (bar)	uptake (wt%)
0.367425	14.4385
0.396432	11.631
0.598102	17.1123
0.607771	16.1765
0.850188	17.7139
1.10366	18.1818
1.35712	18.6497
1.61059	19.1176
2.38205	19.4519
2.8952	19.7861
3.66734	20.0535
5.2144	20.3209
