Adsorption isotherm of Methane on IRMOF-1
DOI: 10.1021/Jp074889i
Adsorbate Methane: InChIKey VNWKTOKETHGBQD-UHFFFAOYSA-N
Temperature: 300 K
Tabular data in the source: 0
pressure (bar)	uptake (wt%)
1.31579	0.799123
2.10526	1.2786
2.89474	1.75807
3.68421	2.23755
5.26316	3.03607
7.36842	4.31466
10.5263	5.9117
15	8.14744
20.5263	10.7016
26.0526	12.7745
31.5789	14.8474
38.4211	16.7569
44.7368	18.3467
51.3158	19.7754
57.6316	21.0444
60.5263	21.519
62.1053	21.6758
62.3684	21.8357
