Adsorption isotherm of Hydrogen on ZIF-8
DOI: 10.1021/Jp074889i
Adsorbate Hydrogen: InChIKey UFHFLCQGNIYNRP-UHFFFAOYSA-N
Temperature: 125 K
Tabular data in the source: 0
pressure (bar)	uptake (wt%)
1.04581	0.094541
1.56837	0.135073
2.35325	0.216086
3.39766	0.283673
4.44277	0.364737
5.74951	0.472805
8.09926	0.621505
10.9702	0.783783
15.1443	0.986743
20.3586	1.17643
25.5709	1.32568
30.781	1.4345
39.6371	1.59793
47.4494	1.70725
52.1356	1.74858
54.9995	1.77609
56.5623	1.80334
