Adsorption isotherm of Hydrogen on IRMOF-1
DOI: 10.1021/Jp074889i
Adsorbate Hydrogen: InChIKey UFHFLCQGNIYNRP-UHFFFAOYSA-N
Temperature: 60 K
Tabular data in the source: 0
pressure (bar)	uptake (wt%)
0.526316	0.526316
0.789474	3.17647
1.05263	3.88235
1.57895	4.13904
1.84211	4.39572
2.10526	4.74866
2.36842	5.03743
2.89474	5.39037
3.42105	5.61497
4.73684	6.03209
6.31579	6.48128
8.94737	6.83422
12.1053	7.15508
16.3158	7.37968
21.8421	7.41176
26.8421	7.34759
33.4211	7.21925
39.4737	7.05882
45.7895	6.80214
51.5789	6.57754
