Adsorption isotherm of Hydrogen on ZIF-8
DOI: 10.1021/Jp074889i
Adsorbate Hydrogen: InChIKey UFHFLCQGNIYNRP-UHFFFAOYSA-N
Temperature: 300 K
Tabular data in the source: 0
pressure (bar)	uptake (wt%)
3.37037	0.040642
4.66667	0.0542222
5.7037	0.0810864
8.81481	0.0683457
11.9259	0.0956049
16.8519	0.12321
23.0741	0.164395
29.037	0.205531
37.0741	0.260395
44.5926	0.31516
49.7778	0.342815
52.1111	0.356593
53.4074	0.370173
