Adsorption isotherm of Methane on ZIF-8
DOI: 10.1021/Jp074889i
Adsorbate Methane: InChIKey VNWKTOKETHGBQD-UHFFFAOYSA-N
Temperature: 240 K
Tabular data in the source: 0
pressure (bar)	uptake (wt%)
0.524893	0.802139
1.04426	1.06952
1.04979	1.60428
1.31292	2.07219
1.83505	2.60695
2.35857	3.2754
2.88208	3.94385
3.66596	4.81283
4.7123	6.08289
6.79322	7.48663
9.64698	8.68984
13.5333	9.8262
18.968	10.8289
24.1402	11.4305
29.5694	11.8984
36.2888	12.2326
43.0067	12.4332
49.4649	12.5
55.6642	12.5
59.2804	12.5
61.0879	12.4332
61.8621	12.3663
