Adsorption isotherm of Methane on ZIF-8
DOI: 10.1021/Jp074889i
Adsorbate Methane: InChIKey VNWKTOKETHGBQD-UHFFFAOYSA-N
Temperature: 270 K
Tabular data in the source: 0
pressure (bar)	uptake (wt%)
1.55556	1.53595
2.33333	1.80258
3.11111	2.40345
3.88889	2.87062
5.18519	3.73836
7.51852	4.93934
10.6296	6.20643
14.7778	7.53936
20.4815	8.73713
25.9259	9.60091
31.1111	10.2644
37.8519	10.9933
44.8519	11.5213
51.3333	11.9831
57.2963	12.4453
60.6667	12.5758
62.2222	12.708
