Adsorption isotherm of Methane on IRMOF-1
DOI: 10.1021/Jp074889i
Adsorbate Methane: InChIKey VNWKTOKETHGBQD-UHFFFAOYSA-N
Temperature: 240 K
Tabular data in the source: 0
pressure (bar)	uptake (wt%)
1.31086	2.08556
1.83521	2.8877
2.62172	3.52941
3.14607	4.81283
3.93258	5.93583
5.24345	8.02139
7.34082	11.0695
10.2247	14.5989
13.8951	18.6096
19.4007	22.4599
24.6442	24.5455
29.8876	25.9893
36.7041	27.1123
43.5206	27.4332
49.8127	27.4332
56.1049	27.2727
59.7753	27.2727
61.6105	27.1123
62.1348	26.9519
