Adsorption isotherm of Methane on IRMOF-1
DOI: 10.1021/Jp074889i
Adsorbate Methane: InChIKey VNWKTOKETHGBQD-UHFFFAOYSA-N
Temperature: 270 K
Tabular data in the source: 0
pressure (bar)	uptake (wt%)
1.31579	0.959551
1.57895	1.76109
2.63158	2.40039
3.42105	3.20072
4.21053	4.00105
5.78947	5.28085
8.15789	7.36098
11.3158	9.92059
15.7895	13.1189
21.3158	16.4752
26.5789	19.1904
31.8421	21.4243
38.6842	23.6547
45.2632	25.2439
51.5789	26.3524
57.8947	27.6213
60.5263	27.9362
61.8421	28.0936
62.1053	28.2534
