Adsorption isotherm of Hydrogen on ZIF-8
DOI: 10.1021/Jp074889i
Adsorbate Hydrogen: InChIKey UFHFLCQGNIYNRP-UHFFFAOYSA-N
Temperature: 50 K
Tabular data in the source: 0
pressure (bar)	uptake (wt%)
0.218401	3.51786
0.493727	3.69196
0.76092	3.77232
0.764405	3.8125
1.29066	3.87946
1.81227	3.89286
2.33504	3.91964
3.11687	3.93304
4.15892	3.94643
7.01324	3.85268
10.9026	3.69196
