Adsorption isotherm of Methane on IRMOF-1
DOI: 10.1021/Jp074889i
Adsorbate Methane: InChIKey VNWKTOKETHGBQD-UHFFFAOYSA-N
Temperature: 150 K
Tabular data in the source: 0
pressure (bar)	uptake (wt%)
0.262172	0.262172
0.524345	30
0.786517	36.5775
1.04869	41.2299
1.57303	42.5134
2.09738	43.7968
2.35955	44.9198
3.40824	45.8824
4.19476	46.6845
5.76779	47.3262
7.86517	47.8075
