Adsorption isotherm of Methane on ZIF-8
DOI: 10.1021/Jp074889i
Adsorbate Methane: InChIKey VNWKTOKETHGBQD-UHFFFAOYSA-N
Temperature: 125 K
Tabular data in the source: 0
pressure (bar)	uptake (wt%)
0.466188	20.1203
0.737613	21.3904
0.741757	21.7914
1.00144	21.9251
1.26182	22.1257
1.78049	22.3262
