Adsorption isotherm of Methane on ZIF-8
DOI: 10.1021/Jp074889i
Adsorbate Methane: InChIKey VNWKTOKETHGBQD-UHFFFAOYSA-N
Temperature: 270 K
Tabular data in the source: 0
pressure (bar)	uptake (wt%)
1.79707	1.06952
2.56576	1.67112
3.33652	2.07219
4.1066	2.54011
5.64882	3.2754
7.96249	4.34492
10.5358	5.28075
14.9173	6.21658
20.5917	7.01872
25.755	7.2861
31.178	7.41979
38.1521	7.41979
44.6111	7.2861
51.0721	6.95187
57.2734	6.75134
60.3751	6.5508
61.409	6.48396
61.9256	6.48396
