Adsorption isotherm of Hydrogen on ZIF-8
DOI: 10.1021/Jp074889i
Adsorbate Hydrogen: InChIKey UFHFLCQGNIYNRP-UHFFFAOYSA-N
Temperature: 30 K
Tabular data in the source: 0
pressure (bar)	uptake (wt%)
0.259259	4.28005
0.777778	4.44015
1.2963	4.46691
2.33333	4.52044
2.85185	4.53388
3.88889	4.54741
