Adsorption isotherm of Methane on ZIF-8
DOI: 10.1021/Jp074889i
Adsorbate Methane: InChIKey VNWKTOKETHGBQD-UHFFFAOYSA-N
Temperature: 200 K
Tabular data in the source: 0
pressure (bar)	uptake (wt%)
0.518519	3.94336
0.777778	4.54471
1.03704	5.3466
1.2963	7.08432
1.55556	7.95306
2.07407	8.95524
2.59259	10.0243
3.11111	11.0264
3.62963	11.8949
5.18519	13.1635
7.25926	14.3647
10.3704	15.3644
14.2593	16.3634
19.963	17.2269
25.4074	17.8233
30.5926	18.2863
35.7778	18.6156
37.8519	18.8141
38.8889	18.9468
