Adsorption isotherm of Methane on ZIF-8
DOI: 10.1021/Jp074889i
Adsorbate Methane: InChIKey VNWKTOKETHGBQD-UHFFFAOYSA-N
Temperature: 270 K
Tabular data in the source: 0
pressure (bar)	uptake (wt%)
2.08092	1.40374
2.60167	1.80481
3.12242	2.20588
3.90216	2.6738
5.46096	3.54278
7.53843	4.6123
10.3915	5.74866
14.7944	6.88503
20.4881	7.95455
25.661	8.62299
30.8306	8.95722
37.8089	9.35829
44.7858	9.62567
50.9871	9.8262
56.9295	9.95989
60.0284	9.89305
60.545	9.89305
61.8365	9.89305
