Adsorption isotherm of Methane on IRMOF-1
DOI: 10.1021/Jp074889i
Adsorbate Methane: InChIKey VNWKTOKETHGBQD-UHFFFAOYSA-N
Temperature: 150 K
Tabular data in the source: 0
pressure (bar)	uptake (wt%)
0.263158	0.263158
0.526316	28.7154
0.789474	35.2923
1.05263	39.7837
1.31579	42.8312
1.84211	44.1134
2.63158	45.395
3.42105	46.5162
4.21053	47.3166
5.52632	48.4365
7.89474	49.2332
