Adsorption isotherm of Hydrogen on IRMOF-1
DOI: 10.1021/Jp074889i
Adsorbate Hydrogen: InChIKey UFHFLCQGNIYNRP-UHFFFAOYSA-N
Temperature: 200 K
Tabular data in the source: 0
pressure (bar)	uptake (wt%)
2.09738	0.0958077
3.67041	0.127341
5.24345	0.191132
7.86517	0.25444
11.0112	0.382022
15.7303	0.541138
22.0225	0.699529
27.2659	0.858403
35.1311	1.04833
42.2097	1.23861
49.5506	1.42878
56.1049	1.55479
59.7753	1.64987
61.3483	1.68141
62.1348	1.7133
