Adsorption isotherm of Hydrogen on ZIF-8
DOI: 10.1021/Jp074889i
Adsorbate Hydrogen: InChIKey UFHFLCQGNIYNRP-UHFFFAOYSA-N
Temperature: 60 K
Tabular data in the source: 0
pressure (bar)	uptake (wt%)
0.124303	2.43304
0.404275	2.66071
0.678439	2.82143
0.691217	2.96875
0.698188	3.04911
0.967704	3.15625
0.975836	3.25
1.50558	3.35714
2.03299	3.4375
2.2967	3.47768
3.08434	3.55804
4.12988	3.61161
6.47305	3.625
9.59224	3.58482
14.0044	3.45089
18.9324	3.26339
24.1171	3.03571
29.3018	2.80804
