Adsorption isotherm of Hydrogen on IRMOF-1
DOI: 10.1021/Jp074889i
Adsorbate Hydrogen: InChIKey UFHFLCQGNIYNRP-UHFFFAOYSA-N
Temperature: 40 K
Tabular data in the source: 0
pressure (bar)	uptake (wt%)
0.263158	0.263158
0.526316	8.24599
0.789474	8.4385
1.05263	8.72727
1.31579	8.8877
1.84211	9.14439
2.36842	9.27273
2.63158	9.40107
3.68421	9.49733
4.73684	9.5615
6.84211	9.52941
9.73684	9.46524
13.4211	9.14439
