Adsorption isotherm of Hydrogen on ZIF-8
DOI: 10.1021/Jp074889i
Adsorbate Hydrogen: InChIKey UFHFLCQGNIYNRP-UHFFFAOYSA-N
Temperature: 200 K
Tabular data in the source: 0
pressure (bar)	uptake (wt%)
2.34343	0.0274054
3.38434	0.0276058
4.16571	0.0412333
6.24892	0.0685885
8.85188	0.0825668
11.9774	0.137077
16.9238	0.17846
22.9118	0.233522
28.8998	0.288583
36.971	0.370999
44.521	0.439838
50.7679	0.467995
53.6303	0.468546
55.4526	0.482374
