Adsorption isotherm of Methane on IRMOF-1
DOI: 10.1021/Jp074889i
Adsorbate Methane: InChIKey VNWKTOKETHGBQD-UHFFFAOYSA-N
Temperature: 270 K
Tabular data in the source: 0
pressure (bar)	uptake (wt%)
1.04869	0.962567
1.57303	1.44385
2.8839	2.08556
3.14607	2.72727
4.19476	3.36898
5.50562	4.65241
8.12734	6.41711
11.2734	8.6631
15.7303	11.7112
21.236	14.5989
26.4794	16.8449
31.7228	18.6096
38.5393	20.2139
45.0936	21.1765
51.3858	21.6578
57.6779	22.139
60.5618	22.2995
61.6105	22.2995
62.1348	22.139
