Adsorption isotherm of Methane on ZIF-8
DOI: 10.1021/Jp074889i
Adsorbate Methane: InChIKey VNWKTOKETHGBQD-UHFFFAOYSA-N
Temperature: 300 K
Tabular data in the source: 0
pressure (bar)	uptake (wt%)
0.771455	0.334225
1.54429	0.534759
2.05744	0.868984
3.34619	1.13636
3.86073	1.3369
5.40502	1.87166
7.98114	2.54011
10.8162	3.14171
14.9408	3.94385
20.6166	4.6123
26.2944	5.08021
31.4577	5.34759
38.1735	5.34759
44.8887	5.41444
51.3477	5.28075
57.8066	5.14706
60.65	4.94652
62.2005	4.87968
