Adsorption isotherm of Hydrogen on ZIF-8
DOI: 10.1021/Jp074889i
Adsorbate Hydrogen: InChIKey UFHFLCQGNIYNRP-UHFFFAOYSA-N
Temperature: 77 K
Tabular data in the source: 0
pressure (bar)	uptake (wt%)
0.571655	0.983938
0.827672	0.903124
1.10333	1.19967
1.37478	1.41536
1.38179	1.55013
1.38951	1.69838
1.91697	1.83325
2.18351	1.9546
2.71168	2.10295
2.97822	2.22429
2.98383	2.33211
3.77012	2.44008
4.82014	2.61548
6.65294	2.83147
9.00339	2.99365
12.394	3.14255
18.3855	3.265
25.4137	3.30678
34.7805	3.28163
43.1056	3.2428
49.8693	3.20367
53.7713	3.17747
56.6331	3.16454
