Adsorption isotherm of Hydrogen on ZIF-8
DOI: 10.1021/Jp074889i
Adsorbate Hydrogen: InChIKey UFHFLCQGNIYNRP-UHFFFAOYSA-N
Temperature: 77 K
Tabular data in the source: 0
pressure (bar)	uptake (wt%)
0.799257	1.21429
0.807388	1.30804
1.07691	1.41518
1.08736	1.53571
1.37198	1.81696
1.62059	1.68304
1.90172	1.92411
2.1724	2.04464
2.70446	2.17857
2.97282	2.27232
3.24117	2.36607
4.296	2.52679
6.65428	2.71429
8.48629	2.83482
12.1341	2.88839
18.118	2.875
25.395	2.76786
34.4819	2.52679
42.529	2.29911
49.5388	2.11161
53.4329	2.00446
56.0281	1.92411
