Adsorption isotherm of Hydrogen on ZIF-8
DOI: 10.1021/Jp074889i
Adsorbate Hydrogen: InChIKey UFHFLCQGNIYNRP-UHFFFAOYSA-N
Temperature: 30 K
Tabular data in the source: 0
pressure (bar)	uptake (wt%)
0.483276	4.28581
0.751217	4.43411
1.01074	4.42068
1.53049	4.4073
2.57139	4.4075
3.35207	4.40765
4.13135	4.38085
