Adsorption isotherm of Hydrogen on ZIF-8
DOI: 10.1021/Jp074889i
Adsorbate Hydrogen: InChIKey UFHFLCQGNIYNRP-UHFFFAOYSA-N
Temperature: 300 K
Tabular data in the source: 0
pressure (bar)	uptake (wt%)
5.72701	0.0403226
8.58736	0
11.9717	0.0268817
16.9159	0.0268817
22.9024	0.0537634
29.4087	0.0672043
37.4763	0.0806452
44.764	0.107527
50.2286	0.107527
52.3111	0.120968
53.6122	0.120968
