Adsorption isotherm of Methane on IRMOF-1
DOI: 10.1021/Jp074889i
Adsorbate Methane: InChIKey VNWKTOKETHGBQD-UHFFFAOYSA-N
Temperature: 300 K
Tabular data in the source: 0
pressure (bar)	uptake (wt%)
1.57303	0.8
2.35955	1.44
3.67041	1.76
5.24345	2.56
7.603	3.52
10.7491	4.8
15.206	6.4
20.4494	8.32
25.9551	9.92
31.1985	11.2
38.015	12.32
44.5693	13.12
51.1236	13.92
57.4157	14.24
60.2996	14.4
61.8727	14.4
