Adsorption isotherm of Hydrogen on IRMOF-1
DOI: 10.1021/Jp074889i
Adsorbate Hydrogen: InChIKey UFHFLCQGNIYNRP-UHFFFAOYSA-N
Temperature: 60 K
Tabular data in the source: 0
pressure (bar)	uptake (wt%)
0.262172	2.51601
0.524345	2.83847
0.786517	3.41899
1.04869	3.96726
1.31086	4.25746
1.83521	4.51528
2.09738	4.87
2.35955	5.1602
2.8839	5.5148
3.40824	5.80488
4.7191	6.28815
6.29213	6.83581
8.65169	7.31859
11.7978	7.76876
16.5169	8.18594
21.7603	8.53836
26.7416	8.76187
33.2959	8.9524
39.588	9.14305
45.618	9.23704
51.3858	9.2989
