Adsorption isotherm of Hydrogen on IRMOF-1
DOI: 10.1021/Jp074889i
Adsorbate Hydrogen: InChIKey UFHFLCQGNIYNRP-UHFFFAOYSA-N
Temperature: 100 K
Tabular data in the source: 0
pressure (bar)	uptake (wt%)
0.786517	0.418992
1.31086	0.515525
1.57303	0.644436
2.09738	0.773227
2.62172	0.966534
3.40824	1.12746
4.7191	1.44944
6.81648	1.86783
9.17603	2.31835
12.5843	2.80065
17.5655	3.34674
22.809	3.86046
27.5281	4.24538
34.3446	4.62933
40.3745	4.94914
46.9288	5.23644
52.6966	5.45959
58.2022	5.61834
60.5618	5.68177
61.6105	5.7458
