Adsorption isotherm of Hydrogen on ZIF-8
DOI: 10.1021/Jp074889i
Adsorbate Hydrogen: InChIKey UFHFLCQGNIYNRP-UHFFFAOYSA-N
Temperature: 60 K
Tabular data in the source: 0
pressure (bar)	uptake (wt%)
0.385779	2.41247
0.65863	2.65511
0.667749	2.83032
0.934989	2.96514
0.939899	3.05948
0.944809	3.15382
1.47157	3.27522
1.99764	3.38313
2.26277	3.47752
2.5258	3.53148
3.31209	3.63945
4.3572	3.72052
6.70274	3.78835
9.82825	3.84286
14.2514	3.83024
19.195	3.81771
24.6562	3.75138
29.8572	3.68499
