Adsorption isotherm of Hydrogen on ZIF-8
DOI: 10.1021/Jp074889i
Adsorbate Hydrogen: InChIKey UFHFLCQGNIYNRP-UHFFFAOYSA-N
Temperature: 125 K
Tabular data in the source: 0
pressure (bar)	uptake (wt%)
0.177742	0.0491071
0.700511	0.0758929
1.22677	0.142857
2.01208	0.196429
3.05878	0.263393
4.36571	0.330357
5.41357	0.410714
7.76603	0.53125
10.6401	0.665179
14.8164	0.8125
20.0302	0.919643
25.2416	1
30.4519	1.06696
39.5632	1.10714
47.1108	1.12054
51.7937	1.10714
54.6561	1.10714
56.4765	1.09375
