Adsorption isotherm of Hydrogen on ZIF-8
DOI: 10.1021/Jp074889i
Adsorbate Hydrogen: InChIKey UFHFLCQGNIYNRP-UHFFFAOYSA-N
Temperature: 125 K
Tabular data in the source: 0
pressure (bar)	uptake (wt%)
1.2963	0.146914
1.55556	0.186963
2.07407	0.240395
2.85185	0.293877
3.37037	0.347309
4.40741	0.44084
5.7037	0.561086
7.77778	0.721481
10.8889	0.922074
15.037	1.16286
20.2222	1.40385
25.6667	1.59156
30.5926	1.75249
39.4074	2.00751
47.1852	2.18232
51.8519	2.27654
54.4444	2.33037
56.2593	2.37072
