Adsorption isotherm of Hydrogen on ZIF-8
DOI: 10.1021/Jp074889i
Adsorbate Hydrogen: InChIKey UFHFLCQGNIYNRP-UHFFFAOYSA-N
Temperature: 200 K
Tabular data in the source: 0
pressure (bar)	uptake (wt%)
3.37037	0.080642
4.66667	0.107556
5.96296	0.134469
8.55556	0.174963
12.1852	0.242321
16.8519	0.32321
22.8148	0.417679
28.7778	0.512148
36.8148	0.633679
44.0741	0.741728
50.5556	0.80963
53.1481	0.83679
55.2222	0.863852
