Adsorption isotherm of Methane on ZIF-8
DOI: 10.1021/Jp074889i
Adsorbate Methane: InChIKey VNWKTOKETHGBQD-UHFFFAOYSA-N
Temperature: 240 K
Tabular data in the source: 0
pressure (bar)	uptake (wt%)
0.518519	0.868489
1.03704	1.67013
1.55556	2.73916
2.33333	3.40686
2.85185	4.14166
3.62963	4.94306
4.66667	6.41266
7	7.81417
9.59259	9.21544
13.4815	10.4818
18.9259	11.7466
24.3704	12.6104
29.5556	13.4076
36.2963	14.1365
43.037	14.6648
49.7778	15.1263
56	15.5882
59.6296	15.7853
61.1852	15.8507
61.963	15.8499
