Adsorption isotherm of Hydrogen on IRMOF-1
DOI: 10.1021/Jp074889i
Adsorbate Hydrogen: InChIKey UFHFLCQGNIYNRP-UHFFFAOYSA-N
Temperature: 200 K
Tabular data in the source: 0
pressure (bar)	uptake (wt%)
3.68421	0.0962567
5.26316	0.0962567
7.89474	0.160428
11.3158	0.224599
15.7895	0.320856
22.1053	0.417112
27.6316	0.481283
35.5263	0.641711
42.3684	0.737968
49.7368	0.802139
56.3158	0.898396
60.2632	0.898396
61.5789	0.898396
62.3684	0.930481
