Adsorption isotherm of Methane on IRMOF-1
DOI: 10.1021/Jp074889i
Adsorbate Methane: InChIKey VNWKTOKETHGBQD-UHFFFAOYSA-N
Temperature: 200 K
Tabular data in the source: 0
pressure (bar)	uptake (wt%)
0.789474	0.789474
1.05263	5.93342
1.31579	7.37666
1.84211	8.97974
2.10526	10.9043
2.63158	13.6303
3.15789	16.6773
3.94737	19.7236
5	24.3736
7.10526	29.1816
9.73684	32.8654
13.6842	35.5836
19.2105	37.6565
24.4737	39.0883
29.7368	40.1992
36.8421	40.9851
43.4211	41.7721
49.7368	42.3994
