Adsorption isotherm of Methane on ZIF-8
DOI: 10.1021/Jp074889i
Adsorbate Methane: InChIKey VNWKTOKETHGBQD-UHFFFAOYSA-N
Temperature: 300 K
Tabular data in the source: 0
pressure (bar)	uptake (wt%)
2.33333	1.06729
3.11111	1.40077
3.88889	1.66741
5.18519	2.26778
7.51852	3.13453
10.8889	4.06714
14.7778	5.13295
20.7407	6.33046
26.1852	7.1274
31.1111	7.85799
38.1111	8.51976
44.5926	9.04833
51.5926	9.50956
57.5556	9.97178
60.4074	10.1027
61.7037	10.2352
62.2222	10.2347
