Adsorption isotherm of Methane on IRMOF-1
DOI: 10.1021/Jp074889i
Adsorbate Methane: InChIKey VNWKTOKETHGBQD-UHFFFAOYSA-N
Temperature: 200 K
Tabular data in the source: 0
pressure (bar)	uptake (wt%)
0.786517	4
1.04869	5.92
1.57303	7.04
2.09738	10.56
2.62172	13.12
3.14607	16.16
3.93258	19.2
4.98127	23.52
7.07865	28
9.70037	31.04
13.633	33.12
18.8764	34.24
24.6442	34.24
29.8876	33.92
36.7041	32.64
42.9963	30.72
49.2884	27.84
