Adsorption isotherm of Hydrogen on IRMOF-1
DOI: 10.1021/Jp074889i
Adsorbate Hydrogen: InChIKey UFHFLCQGNIYNRP-UHFFFAOYSA-N
Temperature: 200 K
Tabular data in the source: 0
pressure (bar)	uptake (wt%)
3.65519	0.0641399
5.48203	0.12828
8.09397	0.12828
11.488	0.19242
15.9275	0.22449
22.1939	0.3207
27.6782	0.35277
35.2521	0.38484
42.302	0.48105
49.6147	0.51312
56.4057	0.51312
59.8005	0.54519
61.3677	0.54519
62.1512	0.54519
