Adsorption isotherm of Hydrogen on IRMOF-1
DOI: 10.1021/Jp074889i
Adsorbate Hydrogen: InChIKey UFHFLCQGNIYNRP-UHFFFAOYSA-N
Temperature: 50 K
Tabular data in the source: 0
pressure (bar)	uptake (wt%)
0.262172	0.262172
0.524345	5.3546
0.786517	5.77383
1.04869	6.19307
1.31086	6.41875
1.57303	6.9025
1.83521	7.16044
2.35955	7.45053
2.8839	7.74061
3.40824	7.96617
4.7191	8.35266
6.55431	8.73892
8.91386	9.06041
12.5843	9.34904
17.3034	9.57267
22.2846	9.73167
27.2659	9.8584
