Adsorption isotherm of Methane on IRMOF-1
DOI: 10.1021/Jp074889i
Adsorbate Methane: InChIKey VNWKTOKETHGBQD-UHFFFAOYSA-N
Temperature: 270 K
Tabular data in the source: 0
pressure (bar)	uptake (wt%)
1.04869	1.28
2.35955	2.08
3.14607	2.72
4.19476	3.52
5.76779	4.48
8.12734	6.4
11.2734	8.48
15.7303	11.2
21.236	13.76
26.4794	16
31.985	17.12
38.5393	18.56
44.8315	19.2
51.3858	19.36
57.9401	19.52
60.5618	19.52
62.397	19.36
