Adsorption isotherm of Methane on ZIF-8
DOI: 10.1021/Jp074889i
Adsorbate Methane: InChIKey VNWKTOKETHGBQD-UHFFFAOYSA-N
Temperature: 240 K
Tabular data in the source: 0
pressure (bar)	uptake (wt%)
0.763167	1.13636
0.76662	0.802139
1.01594	1.67112
1.27079	2.00535
2.04018	2.54011
2.29157	3.20856
2.80127	3.87701
3.56789	4.67914
5.10597	5.81551
6.90027	7.15241
9.72986	8.28877
13.5954	9.15775
19.0129	9.8262
24.4345	10.0936
29.6005	10.0936
36.3171	10.0267
43.0364	9.69251
49.4995	9.15775
55.7029	8.75668
59.5816	8.35561
61.1335	8.15508
61.9097	8.02139
