Adsorption isotherm of Hydrogen on IRMOF-1
DOI: 10.1021/Jp074889i
Adsorbate Hydrogen: InChIKey UFHFLCQGNIYNRP-UHFFFAOYSA-N
Temperature: 125 K
Tabular data in the source: 0
pressure (bar)	uptake (wt%)
1.84211	0.224599
2.36842	0.320856
3.15789	0.417112
3.94737	0.513369
5.26316	0.641711
7.63158	0.86631
10.7895	1.12299
15.2632	1.41176
20.2632	1.73262
25.7895	1.95722
31.0526	2.18182
37.6316	2.37433
43.9474	2.53476
50.2632	2.6631
56.3158	2.75936
59.7368	2.79144
61.3158	2.82353
62.1053	2.82353
