Adsorption isotherm of Hydrogen on IRMOF-1
DOI: 10.1021/Jp074889i
Adsorbate Hydrogen: InChIKey UFHFLCQGNIYNRP-UHFFFAOYSA-N
Temperature: 60 K
Tabular data in the source: 0
pressure (bar)	uptake (wt%)
0.469845	2.21283
0.712001	3.01458
0.721139	2.62974
0.964819	3.36735
0.968626	3.207
1.21383	3.88047
1.21992	3.62391
1.72327	4.42566
1.73012	4.13703
2.23881	4.71429
2.49239	5.03499
3.00868	5.29155
3.52422	5.58017
4.82105	5.96501
6.37831	6.38192
8.98264	6.70262
12.1124	6.89504
16.5512	6.95918
21.5154	6.89504
26.7431	6.73469
33.2813	6.38192
39.2971	6.02915
45.5757	5.61224
51.5923	5.22741
