Adsorption isotherm of Methane on ZIF-8
DOI: 10.1021/Jp074889i
Adsorbate Methane: InChIKey VNWKTOKETHGBQD-UHFFFAOYSA-N
Temperature: 150 K
Tabular data in the source: 0
pressure (bar)	uptake (wt%)
0.259259	14.4383
0.518519	17.3123
1.03704	17.9134
1.2963	18.9159
1.55556	19.3835
2.07407	19.851
2.85185	20.2513
3.62963	20.6516
4.92593	21.1851
