Adsorption isotherm of Hydrogen on IRMOF-1
DOI: 10.1021/Jp074889i
Adsorbate Hydrogen: InChIKey UFHFLCQGNIYNRP-UHFFFAOYSA-N
Temperature: 300 K
Tabular data in the source: 0
pressure (bar)	uptake (wt%)
3.65599	0.030395
5.22394	-0.00239331
7.57395	0.0286
10.9703	-0.00502595
15.6711	0.0248904
21.9398	0.0220184
27.4249	0.0195055
34.7384	0.0161548
41.7907	0.0129239
48.5811	0.0418829
55.111	0.0388912
59.2902	0.0369766
61.9029	0.00370963
