Adsorption isotherm of Hydrogen on ZIF-8
DOI: 10.1021/Jp074889i
Adsorbate Hydrogen: InChIKey UFHFLCQGNIYNRP-UHFFFAOYSA-N
Temperature: 50 K
Tabular data in the source: 0
pressure (bar)	uptake (wt%)
0.443295	3.51761
0.452414	3.69281
0.977074	3.77377
0.981282	3.85464
1.50454	3.90865
2.02709	3.94918
2.28942	3.98966
3.33313	4.04377
4.37614	4.0844
7.23932	4.09843
11.4015	4.07228
15.8212	3.99226
18.4213	3.95233
20.2408	3.91225
