Adsorption isotherm of Hydrogen on ZIF-8
DOI: 10.1021/Jp074889i
Adsorbate Hydrogen: InChIKey UFHFLCQGNIYNRP-UHFFFAOYSA-N
Temperature: 100 K
Tabular data in the source: 0
pressure (bar)	uptake (wt%)
1.03704	0.373531
1.55556	0.506963
2.07407	0.627062
2.59259	0.733827
2.85185	0.813877
3.37037	0.893975
4.14815	1.09412
5.7037	1.30775
7.77778	1.58815
10.3704	1.85531
14.5185	2.1361
19.7037	2.40375
24.6296	2.61802
33.963	2.87314
43.2963	3.07491
51.3333	3.20978
54.7037	3.27709
57.037	3.3042
