Adsorption isotherm of Methane on IRMOF-1
DOI: 10.1021/Jp074889i
Adsorbate Methane: InChIKey VNWKTOKETHGBQD-UHFFFAOYSA-N
Temperature: 300 K
Tabular data in the source: 0
pressure (bar)	uptake (wt%)
1.57303	0.641711
2.62172	1.28342
3.67041	1.76471
5.24345	2.56684
7.603	3.52941
11.0112	4.97326
15.206	6.73797
20.7116	8.98396
25.9551	10.7487
31.4607	12.3529
38.015	13.7968
44.8315	14.7594
51.1236	15.7219
57.1536	16.3636
60.2996	16.6845
61.0861	16.6845
62.1348	16.8449
