Adsorption isotherm of Hydrogen on ZIF-8
DOI: 10.1021/Jp074889i
Adsorbate Hydrogen: InChIKey UFHFLCQGNIYNRP-UHFFFAOYSA-N
Temperature: 300 K
Tabular data in the source: 0
pressure (bar)	uptake (wt%)
0.693541	-0.00446429
1.47305	-0.0178571
2.77533	-0.00446429
4.07644	-0.00446429
8.23885	-0.0178571
11.6206	-0.03125
16.5637	-0.0446429
22.5476	-0.0580357
29.0509	-0.0848214
36.8564	-0.0982143
44.6608	-0.125
49.6039	-0.138393
51.6856	-0.138393
52.9856	-0.151786
