Adsorption isotherm of Hydrogen on IRMOF-1
DOI: 10.1021/Jp074889i
Adsorbate Hydrogen: InChIKey UFHFLCQGNIYNRP-UHFFFAOYSA-N
Temperature: 50 K
Tabular data in the source: 0
pressure (bar)	uptake (wt%)
0.263158	0.263158
0.526316	5.48663
0.789474	5.67914
1.05263	6.09626
1.31579	6.32086
1.57895	6.77005
1.84211	7.02674
2.36842	7.28342
2.63158	7.54011
3.42105	7.73262
4.73684	8.05348
6.57895	8.34225
8.94737	8.47059
12.6316	8.53476
17.1053	8.47059
22.3684	8.27807
27.3684	7.9893
