Adsorption isotherm of Methane on ZIF-8
DOI: 10.1021/Jp074889i
Adsorbate Methane: InChIKey VNWKTOKETHGBQD-UHFFFAOYSA-N
Temperature: 200 K
Tabular data in the source: 0
pressure (bar)	uptake (wt%)
0.495195	2.07219
0.746591	2.74064
0.986937	4.47861
0.994534	3.74332
1.00075	3.14171
1.22935	6.01604
1.23764	5.2139
1.47799	6.95187
1.728	7.75401
1.97595	8.75668
2.74049	9.75936
3.24743	10.6952
4.01405	11.4973
5.2952	12.5
7.61026	13.4358
10.4454	14.0374
14.5734	14.5053
19.997	14.5722
25.4248	14.238
30.5964	13.7032
35.7701	12.9679
37.8399	12.6337
38.8752	12.4332
