Adsorption isotherm of Hydrogen on IRMOF-1
DOI: 10.1021/Jp074889i
Adsorbate Hydrogen: InChIKey UFHFLCQGNIYNRP-UHFFFAOYSA-N
Temperature: 77 K
Tabular data in the source: 0
pressure (bar)	uptake (wt%)
0.510966	0.48105
0.761499	0.930029
0.766068	0.737609
0.769114	0.609329
1.01584	1.21866
1.26942	1.53936
1.27399	1.34694
1.52604	1.73178
2.04386	1.9242
2.29896	2.18076
2.81602	2.40525
3.33156	2.69388
3.84938	2.8863
5.14545	3.30321
7.22358	3.78426
9.82409	4.26531
13.4717	4.65015
18.1663	4.93878
23.6476	5.09913
28.8707	5.1312
35.6633	5.06706
42.7178	4.97085
48.4671	4.84257
54.4784	4.68222
58.9225	4.52187
61.0136	4.45773
61.7971	4.45773
