Adsorption isotherm of Hydrogen on ZIF-8
DOI: 10.1021/Jp074889i
Adsorbate Hydrogen: InChIKey UFHFLCQGNIYNRP-UHFFFAOYSA-N
Temperature: 60 K
Tabular data in the source: 0
pressure (bar)	uptake (wt%)
0.259259	2.66672
0.518519	2.8401
0.777778	2.97348
1.03704	3.18686
1.2963	3.30691
1.55556	3.41363
1.81481	3.50701
2.33333	3.58711
3.11111	3.69393
4.14815	3.78746
6.48148	3.92123
9.33333	4.04178
13.7407	4.16262
18.9259	4.2436
24.3704	4.31131
29.2963	4.37891
