Adsorption isotherm of Hydrogen on ZIF-8
DOI: 10.1021/Jp074889i
Adsorbate Hydrogen: InChIKey UFHFLCQGNIYNRP-UHFFFAOYSA-N
Temperature: 77 K
Tabular data in the source: 0
pressure (bar)	uptake (wt%)
0.518519	0.760099
0.777778	1.21348
1.03704	1.45353
1.2963	1.58691
1.55556	1.73363
1.81481	2.00035
2.33333	2.14711
2.59259	2.28049
3.37037	2.49398
4.66667	2.70756
6.48148	2.9479
8.81481	3.16168
12.1852	3.34899
18.1481	3.57679
25.1481	3.73812
34.4815	3.88657
42.7778	3.98148
49.5185	4.06277
53.4074	4.10351
56	4.13067
