Adsorption isotherm of Hydrogen on IRMOF-1
DOI: 10.1021/Jp074889i
Adsorbate Hydrogen: InChIKey UFHFLCQGNIYNRP-UHFFFAOYSA-N
Temperature: 30 K
Tabular data in the source: 0
pressure (bar)	uptake (wt%)
0.262172	0.262172
0.786517	10.1932
1.04869	10.3544
1.57303	10.4831
2.09738	10.5474
2.62172	10.6117
3.14607	10.6437
