Adsorption isotherm of Methane on IRMOF-1
DOI: 10.1021/Jp074889i
Adsorbate Methane: InChIKey VNWKTOKETHGBQD-UHFFFAOYSA-N
Temperature: 125 K
Tabular data in the source: 0
pressure (bar)	uptake (wt%)
0.263158	0.263158
0.526316	49.2501
0.789474	50.0517
1.05263	51.1741
1.31579	51.6547
1.57895	52.1354
