Adsorption isotherm of Methane on IRMOF-1
DOI: 10.1021/Jp074889i
Adsorbate Methane: InChIKey VNWKTOKETHGBQD-UHFFFAOYSA-N
Temperature: 150 K
Tabular data in the source: 0
pressure (bar)	uptake (wt%)
0.524345	35.04
0.786517	38.08
1.04869	39.52
1.57303	42.56
2.09738	43.68
2.62172	44.8
3.40824	45.6
4.19476	46.4
5.76779	47.04
7.86517	47.2
