Adsorption isotherm of Methane on ZIF-8
DOI: 10.1021/Jp074889i
Adsorbate Methane: InChIKey VNWKTOKETHGBQD-UHFFFAOYSA-N
Temperature: 300 K
Tabular data in the source: 0
pressure (bar)	uptake (wt%)
2.07402	0.735294
2.33439	0.935829
3.11275	1.27005
3.88973	1.47059
5.18677	2.00535
7.77739	2.74064
10.6277	3.60963
15.0285	4.54545
20.4632	5.54813
25.8945	6.21658
31.3244	6.75134
38.0437	7.08556
44.763	7.41979
51.2226	7.62032
57.6823	7.82086
60.266	7.8877
61.5575	7.8877
61.8158	7.8877
