Adsorption isotherm of Hydrogen on ZIF-8
DOI: 10.1021/Jp074889i
Adsorbate Hydrogen: InChIKey UFHFLCQGNIYNRP-UHFFFAOYSA-N
Temperature: 100 K
Tabular data in the source: 0
pressure (bar)	uptake (wt%)
0.18355	0.116071
0.198652	0.290179
0.44842	0.169643
0.45539	0.25
0.983968	0.34375
1.24884	0.397321
1.25349	0.450893
1.78322	0.558036
2.3118	0.651786
2.579	0.732143
2.84503	0.799107
4.16008	0.959821
5.4763	1.13393
7.57667	1.34821
9.93611	1.54911
14.375	1.72321
19.5911	1.85714
24.799	1.89732
33.9057	1.88393
43.2679	1.81696
50.8086	1.75
54.7072	1.69643
57.0469	1.66964
