Adsorption isotherm of Methane on ZIF-8
DOI: 10.1021/Jp074889i
Adsorbate Methane: InChIKey VNWKTOKETHGBQD-UHFFFAOYSA-N
Temperature: 125 K
Tabular data in the source: 0
pressure (bar)	uptake (wt%)
0.30872	20.1203
0.551828	21.5909
0.5539	21.3904
0.808059	21.7914
1.06429	21.992
1.57813	22.2594
