Adsorption isotherm of Methane on ZIF-8
DOI: 10.1021/Jp074889i
Adsorbate Methane: InChIKey VNWKTOKETHGBQD-UHFFFAOYSA-N
Temperature: 200 K
Tabular data in the source: 0
pressure (bar)	uptake (wt%)
0.276259	1.73797
0.544231	2.6738
0.549756	3.20856
0.562879	4.47861
0.813584	3.74332
1.08708	5.2139
1.09537	6.01604
1.36403	7.01872
1.62993	7.75401
2.15759	8.82353
2.42694	9.89305
3.21152	10.8289
3.7371	11.6979
5.29866	12.8342
7.63512	13.9706
10.4847	14.7727
14.6245	15.4412
20.3134	16.0428
25.4815	16.2433
30.6475	16.2433
35.8122	16.1096
37.6203	16.1096
38.9111	16.0428
