Adsorption isotherm of Hydrogen on IRMOF-1
DOI: 10.1021/Jp074889i
Adsorbate Hydrogen: InChIKey UFHFLCQGNIYNRP-UHFFFAOYSA-N
Temperature: 125 K
Tabular data in the source: 0
pressure (bar)	uptake (wt%)
0.524345	0.128791
1.31086	0.192944
2.09738	0.289356
2.62172	0.385889
3.14607	0.482421
3.93258	0.578833
5.50562	0.739398
7.603	1.02875
10.7491	1.38214
14.9438	1.76731
20.4494	2.18412
25.6929	2.53655
30.9363	2.85671
37.4906	3.17627
43.7828	3.49595
50.0749	3.71886
55.8427	3.97427
59.7753	4.06923
61.3483	4.10076
62.1348	4.16491
