Adsorption isotherm of Methane on ZIF-8
DOI: 10.1021/Jp074889i
Adsorbate Methane: InChIKey VNWKTOKETHGBQD-UHFFFAOYSA-N
Temperature: 150 K
Tabular data in the source: 0
pressure (bar)	uptake (wt%)
0.120173	11.631
0.407483	14.4385
0.42544	16.1765
0.952404	17.1791
0.95862	17.7807
1.22176	18.2487
1.22728	18.7834
1.74803	19.1845
2.26878	19.5856
2.78953	19.9866
3.82619	20.3209
5.12323	20.8556
