Adsorption isotherm of Methane on IRMOF-1
DOI: 10.1021/Jp074889i
Adsorbate Methane: InChIKey VNWKTOKETHGBQD-UHFFFAOYSA-N
Temperature: 200 K
Tabular data in the source: 0
pressure (bar)	uptake (wt%)
0.786517	4.65241
1.31086	5.7754
1.57303	6.8984
1.83521	8.50267
2.09738	10.4278
2.62172	12.9947
3.14607	16.2032
3.67041	19.0909
4.98127	23.7433
7.07865	28.3957
9.70037	31.4439
13.633	33.6898
19.1386	35.2941
24.382	35.9358
29.8876	35.7754
36.7041	35.2941
43.2584	34.3316
49.5506	32.5668
