Adsorption isotherm of Hydrogen on ZIF-8
DOI: 10.1021/Jp074889i
Adsorbate Hydrogen: InChIKey UFHFLCQGNIYNRP-UHFFFAOYSA-N
Temperature: 200 K
Tabular data in the source: 0
pressure (bar)	uptake (wt%)
4.07876	0.0223214
5.38104	0.0357143
8.50488	0.0491071
11.6287	0.0625
16.573	0.0625
22.5604	0.0892857
28.5455	0.0892857
36.3522	0.0892857
44.4191	0.0892857
50.4031	0.0758929
53.2656	0.0758929
54.8269	0.0758929
