Adsorption isotherm of Hydrogen on IRMOF-1
DOI: 10.1021/Jp074889i
Adsorbate Hydrogen: InChIKey UFHFLCQGNIYNRP-UHFFFAOYSA-N
Temperature: 125 K
Tabular data in the source: 0
pressure (bar)	uptake (wt%)
2.34465	0.25656
3.38638	0.38484
4.16768	0.48105
5.46984	0.641399
7.55559	0.801749
10.9458	1.02624
15.38	1.2828
20.5978	1.53936
25.8171	1.73178
31.0372	1.89213
37.3028	2.02041
43.8303	2.11662
50.0975	2.18076
56.1042	2.21283
59.4997	2.21283
61.3281	2.21283
62.1116	2.21283
