Adsorption isotherm of Hydrogen on ZIF-8
DOI: 10.1021/Jp074889i
Adsorbate Hydrogen: InChIKey UFHFLCQGNIYNRP-UHFFFAOYSA-N
Temperature: 100 K
Tabular data in the source: 0
pressure (bar)	uptake (wt%)
0.528167	0.14835
0.7919	0.215786
0.794004	0.256218
1.31796	0.323704
1.32147	0.39109
1.5852	0.458526
2.11197	0.579921
2.3771	0.674312
2.90176	0.755276
3.1662	0.836189
4.21622	1.01159
5.52716	1.20053
7.6223	1.45699
10.7583	1.71366
14.4141	1.95695
19.6292	2.16011
24.8407	2.29589
34.476	2.43251
43.5881	2.51513
51.3977	2.57054
54.7814	2.58467
57.3829	2.57169
