Adsorption isotherm of Hydrogen on IRMOF-1
DOI: 10.1021/Jp074889i
Adsorbate Hydrogen: InChIKey UFHFLCQGNIYNRP-UHFFFAOYSA-N
Temperature: 300 K
Tabular data in the source: 0
pressure (bar)	uptake (wt%)
4.47368	0
5	0
7.63158	0.0320856
11.0526	0.0320856
16.0526	0.0641711
21.8421	0.128342
27.3684	0.128342
34.7368	0.192513
42.1053	0.224599
48.9474	0.224599
55.5263	0.256684
60	0.256684
61.3158	0.256684
62.3684	0.256684
