Adsorption isotherm of Hydrogen on IRMOF-1
DOI: 10.1021/Jp074889i
Adsorbate Hydrogen: InChIKey UFHFLCQGNIYNRP-UHFFFAOYSA-N
Temperature: 40 K
Tabular data in the source: 0
pressure (bar)	uptake (wt%)
0	7.06452
0.262172	7.77407
0.524345	7.54815
0.786517	8.22544
1.04869	8.64468
1.31086	8.87036
1.83521	9.28948
2.35955	9.48278
2.8839	9.61157
3.40824	9.77262
4.98127	9.96545
6.81648	10.0936
9.70037	10.2536
13.3708	10.3487
