Adsorption isotherm of Hydrogen on IRMOF-1
DOI: 10.1021/Jp074889i
Adsorbate Hydrogen: InChIKey UFHFLCQGNIYNRP-UHFFFAOYSA-N
Temperature: 30 K
Tabular data in the source: 0
pressure (bar)	uptake (wt%)
0	9.94652
0.263158	10.0428
0.789474	10.139
1.31579	10.2353
1.57895	10.2995
2.63158	10.2995
3.42105	10.2995
