Adsorption isotherm of Hydrogen on IRMOF-1
DOI: 10.1021/Jp074889i
Adsorbate Hydrogen: InChIKey UFHFLCQGNIYNRP-UHFFFAOYSA-N
Temperature: 100 K
Tabular data in the source: 0
pressure (bar)	uptake (wt%)
1.05263	0.481283
1.84211	0.609626
2.10526	0.737968
2.63158	0.86631
3.15789	1.02674
4.47368	1.31551
6.57895	1.66845
9.21053	2.05348
12.8947	2.47059
17.3684	2.8877
22.8947	3.20856
27.6316	3.43316
34.2105	3.68984
40.5263	3.85027
47.1053	3.94652
52.8947	4.0107
58.4211	4.04278
60.7895	4.07487
61.8421	4.07487
