Adsorption isotherm of Carbon Dioxide on [Cu2(m-OH)2(bdim)]
DOI: 10.1039/C3cc46597g
Adsorbate Carbon Dioxide: InChIKey CURLTUGMZLYLDI-UHFFFAOYSA-N
Temperature: 290 K
Tabular data in the source: 0
pressure (bar)	uptake (mmol/g)
0.00248196	0.0151082
0.0141486	0.235108
0.0308153	0.485108
0.0408153	0.715108
0.0558153	0.915108
0.0708153	1.12511
0.082482	1.26511
0.102482	1.56511
0.134149	1.93511
0.190815	2.42511
0.244149	2.80511
0.299149	3.14511
0.350815	3.39511
0.382482	3.56511
0.430815	3.73511
0.542482	4.10511
0.640815	4.32511
0.744149	4.53511
0.852482	4.69511
0.965815	4.80511
1.01415	4.85511
