Adsorption isotherm of Carbon Dioxide on [Cu2(m-OH)2(bdim)]
DOI: 10.1039/C3cc46597g
Adsorbate Carbon Dioxide: InChIKey CURLTUGMZLYLDI-UHFFFAOYSA-N
Temperature: 283 K
Tabular data in the source: 0
pressure (bar)	uptake (cm3(STP)/g)
-0.0082871	1.02749
0.00978855	8.94054
0.0298726	14.4797
0.0599987	21.6014
0.0820912	27.9318
0.110209	36.1087
0.130293	43.2304
0.188537	53.2536
0.24678	62.7492
0.294982	69.871
0.349209	75.6739
0.38536	79.6304
0.429545	83.8507
0.540008	89.6536
0.646453	95.4565
0.75089	100.468
0.855327	104.688
0.96579	107.326
1.02203	108.381
