Adsorption isotherm of Carbon Dioxide on [Cu2(m-OH)2(bdim)]
DOI: 10.1039/C3cc46597g
Adsorbate Carbon Dioxide: InChIKey CURLTUGMZLYLDI-UHFFFAOYSA-N
Temperature: 283 K
Tabular data in the source: 0
pressure (bar)	uptake (cm3(STP)/g)
0.00376333	1.29126
0.0198306	6.03909
0.0459399	13.4246
0.0840996	21.8652
0.122259	29.2507
0.160419	38.7463
0.244772	50.3521
0.298999	57.2101
0.353226	63.013
0.397411	67.2333
0.435571	71.4536
0.540008	79.1029
0.648462	85.4333
0.756916	89.9174
0.865369	94.4014
0.971815	96.5116
1.02002	97.5666
