Adsorption isotherm of Carbon Dioxide on [Cu2(m-OH)2(bdim)]
DOI: 10.1039/C3cc46597g
Adsorbate Carbon Dioxide: InChIKey CURLTUGMZLYLDI-UHFFFAOYSA-N
Temperature: 298 K
Tabular data in the source: 0
pressure (bar)	uptake (mmol/g)
0.00248196	0.0151082
0.0141486	0.145108
0.027482	0.335108
0.0441486	0.535108
0.0558153	0.695108
0.067482	0.825108
0.0841486	0.995108
0.104149	1.20511
0.135815	1.50511
0.189149	1.89511
0.244149	2.27511
0.294149	2.56511
0.347482	2.81511
0.394149	3.02511
0.432482	3.19511
0.542482	3.54511
0.642482	3.80511
0.744149	3.99511
0.857482	4.18511
0.964149	4.33511
1.01582	4.40511
