Adsorption isotherm of Nitrogen on [Cu2(m-OH)2(bdim)]
DOI: 10.1039/C3cc46597g
Adsorbate Nitrogen: InChIKey IJGRMHOSHXDMSA-UHFFFAOYSA-N
Temperature: 77 K
Tabular data in the source: 0
pressure (bar)	uptake (cm3(STP)/g)
0.000477	207.409
0.00232376	5.20741
0.00417035	20.4418
0.00417035	55.0654
0.00417035	136.777
0.00786353	225.875
0.0226363	229.568
0.0392556	233.723
0.0761874	236.493
0.126045	237.878
0.175903	238.34
0.25346	238.34
0.310704	239.263
0.391954	239.263
0.475051	240.186
0.521216	239.724
0.574767	239.263
0.628318	237.878
0.678176	237.878
0.731727	238.34
0.772352	237.416
0.82775	239.263
0.853602	238.801
0.881301	239.263
0.916386	240.648
0.940392	242.494
0.957011	244.803
