Adsorption isotherm of Carbon Dioxide on [Cu2(m-OH)2(bdim)]
DOI: 10.1039/C3cc46597g
Adsorbate Carbon Dioxide: InChIKey CURLTUGMZLYLDI-UHFFFAOYSA-N
Temperature: 298 K
Tabular data in the source: 0
pressure (bar)	uptake (cm3(STP)/g)
0.00935904	0.585859
0.029819	0.585859
0.077559	1.05253
0.138939	1.51919
0.196909	2.45253
0.273634	3.38586
0.377639	4.55253
0.435609	5.01919
0.490169	5.71919
0.650439	7.35253
0.810709	8.28586
0.861859	8.75253
0.919829	9.21919
0.976094	9.45253
1.02895	10.1525
