Adsorption isotherm of Carbon Dioxide on [Cu2(m-OH)2(bdim)]
DOI: 10.1039/C3cc46597g
Adsorbate Carbon Dioxide: InChIKey CURLTUGMZLYLDI-UHFFFAOYSA-N
Temperature: 273 K
Tabular data in the source: 0
pressure (bar)	uptake (mmol/g)
0.000815	0.0451082
0.00581529	0.295108
0.0141486	0.515108
0.0241486	0.775108
0.0308153	0.955108
0.0441486	1.36511
0.0591486	1.68511
0.0691486	2.00511
0.082482	2.28511
0.105815	2.69511
0.107482	2.76511
0.134149	3.19511
0.192482	3.76511
0.247482	4.18511
0.295815	4.46511
0.347482	4.65511
0.392482	4.80511
0.430815	4.93511
0.537482	5.15511
0.639149	5.34511
0.744149	5.48511
0.854149	5.59511
0.955815	5.69511
1.01082	5.74511
