Adsorption isotherm of Carbon Dioxide on [Cu2(m-OH)2(bdim)]
DOI: 10.1039/C3cc46597g
Adsorbate Carbon Dioxide: InChIKey CURLTUGMZLYLDI-UHFFFAOYSA-N
Temperature: 283 K
Tabular data in the source: 0
pressure (bar)	uptake (mmol/g)
0.000815	0.0451082
0.012482	0.385108
0.027482	0.645108
0.0458153	0.945108
0.057482	1.14511
0.0741486	1.43511
0.087482	1.63511
0.105815	2.00511
0.139149	2.39511
0.192482	2.93511
0.245815	3.37511
0.295815	3.68511
0.350815	3.92511
0.389149	4.09511
0.425815	4.22511
0.537482	4.55511
0.640815	4.77511
0.742482	4.93511
0.850815	5.07511
0.955815	5.18511
1.01415	5.22511
