Adsorption isotherm of Nitrogen on [Cu2(m-OH)2(bdim)]
DOI: 10.1039/C3cc46597g
Adsorbate Nitrogen: InChIKey IJGRMHOSHXDMSA-UHFFFAOYSA-N
Temperature: 273 K
Tabular data in the source: 0
pressure (bar)	uptake (cm3(STP)/g)
0.00935904	0.585859
0.031524	1.05253
0.087789	1.98586
0.140644	2.21919
0.190089	3.85253
0.382754	6.65253
0.490169	8.98586
0.544729	9.91919
0.759559	12.9525
0.863564	13.8859
0.916419	14.5859
0.976094	15.5192
1.02724	15.9859
