Adsorption isotherm of Carbon Dioxide on [Cu2(m-OH)2(bdim)]
DOI: 10.1039/C3cc46597g
Adsorbate Carbon Dioxide: InChIKey CURLTUGMZLYLDI-UHFFFAOYSA-N
Temperature: 298 K
Tabular data in the source: 0
pressure (bar)	uptake (cm3(STP)/g)
0.00765404	2.45253
0.021294	7.58586
0.040049	12.7192
0.070739	19.7192
0.106544	27.1859
0.137234	33.4859
0.188384	42.5859
0.244649	51.9192
0.294094	57.9859
0.348654	62.8859
0.394689	67.7859
0.430494	71.0525
0.551549	79.4525
0.648734	84.5859
0.751034	89.7192
0.863564	93.2192
0.970979	97.1859
1.02383	98.3525
