Adsorption isotherm of Carbon Dioxide on [Cu2(m-OH)2(bdim)]
DOI: 10.1039/C3cc46597g
Adsorbate Carbon Dioxide: InChIKey CURLTUGMZLYLDI-UHFFFAOYSA-N
Temperature: 273 K
Tabular data in the source: 0
pressure (bar)	uptake (cm3(STP)/g)
0.00765404	2.45253
0.00935904	10.1525
0.022999	18.0859
0.040049	29.9859
0.058804	38.8525
0.069034	45.6192
0.082674	51.4525
0.108249	61.9525
0.137234	71.9859
0.193499	84.5859
0.244649	93.9192
0.300914	99.9859
0.352064	103.953
0.394689	107.686
0.435609	109.553
0.541319	114.686
0.645324	118.653
0.756149	122.153
0.866974	125.186
0.965864	127.286
1.02554	128.453
