Adsorption isotherm of Hydrogen on [Cu2(m-OH)2(bdim)]
DOI: 10.1039/C3cc46597g
Adsorbate Hydrogen: InChIKey UFHFLCQGNIYNRP-UHFFFAOYSA-N
Temperature: 77 K
Tabular data in the source: 0
pressure (bar)	uptake (wt%)
0.0070714	0.0750361
0.00909806	0.181703
0.0131514	0.331703
0.0192314	0.511703
0.0313914	0.758369
0.0617914	1.07837
0.0861114	1.22837
0.118538	1.36504
0.134751	1.40837
0.161098	1.49504
0.197578	1.54837
0.242165	1.61504
0.274591	1.66837
0.345525	1.7117
0.414431	1.7617
0.473205	1.79504
0.542111	1.82837
0.615071	1.8517
0.679925	1.87504
0.748831	1.8917
0.825845	1.90504
0.884618	1.9217
0.955551	1.92837
1.03256	1.9417
1.09134	1.94837
1.15214	1.95837
1.18862	1.95837
1.23118	1.96837
