Adsorption isotherm of Carbon Dioxide on [Cu2(m-OH)2(bdim)]
DOI: 10.1039/C3cc46597g
Adsorbate Carbon Dioxide: InChIKey CURLTUGMZLYLDI-UHFFFAOYSA-N
Temperature: 273 K
Tabular data in the source: 0
pressure (bar)	uptake (cm3(STP)/g)
0.00577174	8.14923
0.0238474	18.7
0.041923	29.7782
0.0519651	36.3724
0.0660239	43.7579
0.086108	50.8797
0.102175	59.8478
0.110209	61.9579
0.13431	71.7173
0.194562	84.3782
0.24678	92.8188
0.298999	98.6217
0.345192	104.161
0.38536	106.271
0.427537	109.172
0.489798	112.865
0.540008	115.239
0.642436	118.404
0.75089	122.625
0.859344	124.735
0.96579	126.581
1.01801	128.164
