Adsorption isotherm of Carbon Dioxide on [Cu2(m-OH)2(bdim)]
DOI: 10.1039/C3cc46597g
Adsorbate Carbon Dioxide: InChIKey CURLTUGMZLYLDI-UHFFFAOYSA-N
Temperature: 283 K
Tabular data in the source: 0
pressure (bar)	uptake (cm3(STP)/g)
0.00376333	4.19271
0.00978855	11.3144
0.0399146	21.6014
0.0660239	30.042
0.0840996	36.9
0.102175	43.2304
0.13431	53.2536
0.188537	65.6507
0.242764	74.6188
0.290965	82.5318
0.353226	88.071
0.391386	92.0275
0.471722	97.0391
0.537999	100.996
0.640428	106.007
0.746873	110.227
0.853319	112.865
0.953739	115.767
1.02403	117.349
