Adsorption isotherm of N-Octane on Zeolite 5A
DOI: 10.1002/cjce.22362
Article source: Figure 2
Adsorbate N-Octane: InChIKey TVMXDCGIABBOFY-UHFFFAOYSA-N
Kind: experiment
Temperature: 473 K
Tabular data in the source: 0
pressure (bar)	uptake (g/g)
5.1e-05	0.00623
0.0002	0.02012
0.0006	0.03362
0.001159	0.04487
0.002259	0.05226
0.003198	0.05753
