Adsorption isotherm of 2-Methylheptane on Zeolite 5A
DOI: 10.1002/cjce.22362
Article source: Figure 2
Adsorbate 2-Methylheptane: InChIKey JVSWJIKNEAIKJW-UHFFFAOYSA-N
Kind: experiment
Temperature: 473 K
Tabular data in the source: 0
pressure (bar)	uptake (g/g)
5e-05	0.00275
0.000201	0.014547
0.000599	0.024354
0.00116	0.033131
0.00226	0.040166
0.003198	0.045157
