Adsorption isotherm of Isooctane on Zeolite 5A
DOI: 10.1002/cjce.22362
Article source: Figure 2
Adsorbate Isooctane: InChIKey NHTMVDHEPJAVLT-UHFFFAOYSA-N
Kind: experiment
Temperature: 473 K
Tabular data in the source: 0
pressure (bar)	uptake (g/g)
5e-05	0.000383
0.000198	0.003354
0.000599	0.010691
0.001158	0.016903
0.002259	0.023832
0.003197	0.026954
