Adsorption isotherm of 2,5-Dimethylhexane on Zeolite 5A
DOI: 10.1002/cjce.22362
Article source: Figure 2
Adsorbate 2,5-Dimethylhexane: InChIKey UWNADWZGEHDQAB-UHFFFAOYSA-N
Kind: experiment
Temperature: 473 K
Tabular data in the source: 0
pressure (bar)	uptake (g/g)
4.7e-05	0.001111
0.000201	0.004375
0.000597	0.014998
0.001158	0.025236
0.002257	0.034384
0.003196	0.040378
