Adsorption isotherm of Krypton on Grafoil
DOI: 10.1016/0039-6028(93)91088-7
Article source: Figure 1
Adsorbate Krypton: InChIKey DNNSSWSSYDEUBZ-UHFFFAOYSA-N
Kind: experiment
Temperature: 100 K
Tabular data in the source: 0
pressure (bar)	uptake (mmol/g)
0.003468	0.263013
0.013513	0.279747
0.022123	0.30273
0.024657	0.304939
0.030332	0.320224
0.035523	0.345276
0.037704	0.378995
0.039198	0.337696
0.041627	0.413811
0.04823	0.368202
0.049729	0.450829
0.054312	0.409548
0.054911	0.496518
0.055473	0.52261
0.055984	0.46826
0.056043	0.550878
0.056618	0.578059
0.057142	0.528056
0.0572	0.606327
0.058358	0.63351
0.060726	0.660699
0.063815	0.68789
0.065022	0.612888
0.067729	0.718349
0.071176	0.747714
0.072513	0.660755
0.076291	0.780349
0.080063	0.701008
0.080181	0.815153
0.086799	0.852138
0.087547	0.754304
0.090334	0.891286
0.092949	0.811936
0.093099	0.935865
0.095802	0.863038
0.095945	0.980444
0.099741	0.931538
0.102821	0.99786
