Adsorption isotherm of Krypton on Grafoil
DOI: 10.1016/0039-6028(93)91088-7
Article source: Figure 1
Adsorbate Krypton: InChIKey DNNSSWSSYDEUBZ-UHFFFAOYSA-N
Kind: experiment
Temperature: 112 K
Tabular data in the source: 0
pressure (bar)	uptake (mmol/g)
0.056402	0.280196
0.071457	0.28788
0.078859	0.290087
0.087891	0.29338
0.099911	0.298857
0.114708	0.310857
0.131705	0.327209
0.143924	0.329411
0.155759	0.344653
0.160433	0.344663
0.171927	0.360992
0.173637	0.365342
0.180627	0.368617
0.187916	0.3795
0.191678	0.389291
0.195521	0.400166
0.19945	0.414306
0.203457	0.429531
0.205519	0.446926
0.207603	0.465411
0.211774	0.479548
0.2159	0.446944
0.218164	0.492605
0.22035	0.501304
0.22038	0.512173
0.22691	0.483918
0.227025	0.523054
0.229305	0.533929
0.231496	0.506755
0.233896	0.543719
0.238585	0.553508
0.240976	0.563296
0.245665	0.528515
0.263332	0.564411
0.26597	0.574196
0.271315	0.588334
0.293679	0.617712
0.293801	0.650324
0.324305	0.667747
0.351328	0.762349
0.38463	0.908048
