Adsorption isotherm of Krypton on Grafoil
DOI: 10.1016/0039-6028(93)91088-7
Article source: Figure 1
Adsorbate Krypton: InChIKey DNNSSWSSYDEUBZ-UHFFFAOYSA-N
Kind: experiment
Temperature: 120 K
Tabular data in the source: 0
pressure (bar)	uptake (mmol/g)
0.304434	0.350301
0.332723	0.363372
0.360092	0.379704
0.385907	0.399293
0.413564	0.418883
0.426082	0.437372
0.447675	0.45152
0.461193	0.465661
0.47045	0.477625
0.475174	0.4885
0.479947	0.500462
0.484789	0.51351
0.494519	0.526561
0.499509	0.540696
0.499612	0.557003
0.514675	0.568969
0.525017	0.583107
0.530277	0.591809
0.546265	0.602689
0.562734	0.613569
0.579713	0.625536
0.591307	0.634237
0.603147	0.641855
0.621302	0.650559
0.627542	0.660347
0.640108	0.670138
0.659391	0.678842
0.665998	0.687543
0.686046	0.695161
0.692936	0.706036
0.692984	0.712559
0.713876	0.722352
0.713975	0.733222
0.735518	0.746276
0.750349	0.765849
0.765496	0.787597
0.788793	0.819133
0.796917	0.849574
0.821227	0.887633
