Adsorption isotherm of Krypton on Grafoil
DOI: 10.1016/0039-6028(93)91088-7
Article source: Figure 1
Adsorbate Krypton: InChIKey DNNSSWSSYDEUBZ-UHFFFAOYSA-N
Kind: experiment
Temperature: 97 K
Tabular data in the source: 0
pressure (bar)	uptake (mmol/g)
0.001515	0.254055
0.002361	0.257457
0.003468	0.263013
0.006326	0.269724
0.008338	0.278508
0.009022	0.283967
0.010668	0.286194
0.011317	0.284038
0.012126	0.287321
0.012992	0.288431
0.013921	0.292801
0.014481	0.29825
0.017295	0.311349
0.019089	0.326599
0.019658	0.309217
0.019665	0.336393
0.020059	0.34727
0.02026	0.357056
0.020463	0.366844
0.020873	0.377722
0.022147	0.386436
0.023732	0.397329
0.024909	0.32777
0.030082	0.444148
0.030346	0.356097
0.034171	0.390921
0.03422	0.503977
0.034591	0.574643
0.034875	0.444194
0.034905	0.510508
0.034966	0.64748
0.037434	0.587712
0.039391	0.717092
0.040582	0.735582
0.04181	0.755158
0.043433	0.652985
0.043932	0.77474
0.046164	0.795411
0.050379	0.694339
0.050472	0.836747
0.052516	0.859589
0.052939	0.717184
0.055625	0.734592
0.056303	0.910704
0.058471	0.783528
0.059189	0.965074
0.061009	1.02053
0.061483	0.857464
0.063393	0.936832
