Adsorption isotherm of Krypton on Grafoil
DOI: 10.1016/0039-6028(93)91088-7
Article source: Figure 1
Adsorbate Krypton: InChIKey DNNSSWSSYDEUBZ-UHFFFAOYSA-N
Kind: experiment
Temperature: 110 K
Tabular data in the source: 0
pressure (bar)	uptake (mmol/g)
0.03122	0.265878
0.038023	0.269202
0.04196	0.268145
0.148294	0.357684
0.154299	0.378349
0.165471	0.45012
0.16866	0.402293
0.184584	0.521903
0.186274	0.464288
0.205728	0.526286
0.207947	0.594773
0.234015	0.581765
0.246129	0.67527
0.248344	0.606788
0.271571	0.662258
0.280119	0.773151
0.291308	0.753594
0.303573	0.894929
0.30629	0.822097
0.322028	0.88625
0.338878	1.02106
0.348829	0.973242
