Adsorption isotherm of Krypton on Grafoil
DOI: 10.1016/0039-6028(93)91088-7
Article source: Figure 1
Adsorbate Krypton: InChIKey DNNSSWSSYDEUBZ-UHFFFAOYSA-N
Kind: experiment
Temperature: 123 K
Tabular data in the source: 0
pressure (bar)	uptake (mmol/g)
0.356232	0.307954
0.404989	0.321038
0.451453	0.338467
0.483841	0.361316
0.488588	0.354798
0.513432	0.380903
0.528778	0.372217
0.53939	0.385268
0.539514	0.401574
0.566752	0.400503
0.572549	0.426594
0.595502	0.416824
0.607621	0.451617
0.613455	0.428791
0.631936	0.437497
0.644589	0.446199
0.644842	0.477724
0.651033	0.453814
0.664099	0.465776
0.677537	0.491872
0.684547	0.525577
0.712464	0.567985
0.748674	0.591916
0.794517	0.615849
0.834916	0.641957
0.868786	0.668059
0.912984	0.696339
0.950064	0.725702
0.978978	0.758324
1.0088	0.79312
1.03954	0.829003
1.06073	0.864883
1.08236	0.901849
1.11533	0.937735
