Adsorption isotherm of Krypton on Grafoil
DOI: 10.1016/0039-6028(93)91088-7
Article source: Figure 1
Adsorbate Krypton: InChIKey DNNSSWSSYDEUBZ-UHFFFAOYSA-N
Kind: experiment
Temperature: 99 K
Tabular data in the source: 0
pressure (bar)	uptake (mmol/g)
0.004223	0.260901
0.008093	0.266541
0.011542	0.27861
0.019654	0.293997
0.024904	0.311464
0.028317	0.337594
0.031582	0.396332
0.033148	0.326773
0.03882	0.349653
0.040428	0.439893
0.044145	0.383393
0.044636	0.476885
0.046407	0.438849
0.046482	0.562778
0.046508	0.60626
0.047446	0.628008
0.048405	0.651931
0.050864	0.673689
0.052336	0.593253
0.053451	0.69762
0.055616	0.722635
0.057871	0.746564
0.061418	0.773758
0.063803	0.672671
0.065827	0.802046
0.069179	0.8325
0.071988	0.862949
0.073303	0.737941
0.074914	0.896661
0.077962	0.931462
0.079554	0.970602
0.080381	1.00865
0.081836	0.871686
0.084361	0.936921
0.085267	0.999974
