Adsorption isotherm of Krypton on Grafoil
DOI: 10.1016/0039-6028(93)91088-7
Article source: Figure 1
Adsorbate Krypton: InChIKey DNNSSWSSYDEUBZ-UHFFFAOYSA-N
Kind: experiment
Temperature: 116 K
Tabular data in the source: 0
pressure (bar)	uptake (mmol/g)
0.029138	0.262594
0.037649	0.267026
0.048167	0.269276
0.051103	0.271469
0.078847	0.277041
0.107032	0.288008
0.129075	0.291329
0.165159	0.304452
0.191502	0.31863
0.203195	0.328431
0.237981	0.356745
0.257563	0.376337
0.273334	0.399186
0.304834	0.452487
0.304932	0.47749
0.33663	0.504699
0.350569	0.593852
0.364429	0.544944
0.398403	0.578673
0.435555	0.614574
0.449193	0.713508
0.46231	0.653727
0.495705	0.713538
0.526518	0.803786
0.53232	0.890755
0.559117	0.877727
0.576359	0.940788
0.605931	1.00059
