Adsorption isotherm of Krypton on Grafoil
DOI: 10.1016/0039-6028(93)91088-7
Article source: Figure 1
Adsorbate Krypton: InChIKey DNNSSWSSYDEUBZ-UHFFFAOYSA-N
Kind: experiment
Temperature: 105 K
Tabular data in the source: 0
pressure (bar)	uptake (mmol/g)
0.037293	0.294199
0.046788	0.307314
0.051636	0.311694
0.059283	0.323696
0.068739	0.337875
0.076625	0.354214
0.078934	0.362921
0.079723	0.370533
0.081321	0.381411
0.082953	0.393375
0.083784	0.403161
0.083796	0.414033
0.083809	0.42599
0.086336	0.43687
0.087986	0.376
0.088065	0.446661
0.09072	0.456454
0.093451	0.465161
0.094389	0.476033
0.095236	0.403202
0.096282	0.486911
0.099187	0.498878
0.100077	0.428219
0.10018	0.508666
0.105304	0.554337
0.109442	0.486952
0.109603	0.602181
0.116194	0.544584
0.118671	0.652212
0.12455	0.58048
0.129758	0.701161
0.137522	0.622908
0.143302	0.759893
0.15036	0.667508
0.156719	0.822972
0.159633	0.72188
0.166411	0.891477
0.171192	0.793648
0.176719	0.966505
0.180021	0.873023
