Adsorption isotherm of Krypton on Grafoil
DOI: 10.1016/0039-6028(93)91088-7
Article source: Figure 1
Adsorbate Krypton: InChIKey DNNSSWSSYDEUBZ-UHFFFAOYSA-N
Kind: experiment
Temperature: 114 K
Tabular data in the source: 0
pressure (bar)	uptake (mmol/g)
0.047698	0.274709
0.055849	0.280194
0.077311	0.281383
0.105987	0.292352
0.129093	0.303286
0.148208	0.313112
0.168493	0.326199
0.182345	0.339268
0.205278	0.356699
0.21998	0.370852
0.222169	0.374117
0.242858	0.402408
0.250186	0.414378
0.255213	0.429602
0.260365	0.451349
0.262986	0.463311
0.273604	0.476367
0.276473	0.520941
0.279108	0.492681
0.28755	0.511171
0.296396	0.567709
0.302157	0.531842
0.314408	0.557944
0.320843	0.601434
0.337181	0.630801
0.350561	0.591676
0.354285	0.648209
0.368615	0.665615
0.372086	0.628656
0.391141	0.680852
0.403007	0.705865
0.427674	0.727625
0.432039	0.751543
0.44971	0.803737
0.477577	0.879852
0.482573	0.924426
