Adsorption isotherm of Krypton on Grafoil
DOI: 10.1016/0039-6028(93)91088-7
Article source: Figure 1
Adsorbate Krypton: InChIKey DNNSSWSSYDEUBZ-UHFFFAOYSA-N
Kind: experiment
Temperature: 87 K
Tabular data in the source: 0
pressure (bar)	uptake (mmol/g)
0.001095	0.269171
0.001185	0.265936
0.00122	0.27138
0.001269	0.269219
0.00136	0.274676
0.001387	0.267071
0.001516	0.279059
0.001561	0.271459
0.001624	0.284515
0.001706	0.285617
0.001757	0.273668
0.00181	0.289985
0.001865	0.294342
0.001939	0.276962
0.001978	0.298709
0.002078	0.301987
0.002249	0.30636
0.002293	0.281362
0.002557	0.311834
0.002659	0.285758
0.002878	0.317309
0.003052	0.291237
0.003239	0.323867
0.003504	0.296714
0.003646	0.330429
0.003983	0.304365
0.004024	0.339156
0.004484	0.313099
0.004759	0.354426
0.004948	0.321827
0.005462	0.333816
0.005626	0.345783
0.005638	0.499061
0.005686	0.401227
0.00569	0.450145
0.005697	0.542548
0.005741	0.38275
0.005802	0.43276
0.005805	0.482765
0.005814	0.590388
0.005867	0.533862
0.006608	0.584992
0.006878	0.641533
0.007818	0.633964
0.008634	0.694872
0.009068	0.679668
0.009915	0.723179
0.009919	0.756878
0.010525	0.767768
0.01074	0.812344
0.010965	0.888446
0.011067	0.84388
0.011084	0.964546
0.011187	0.917804
