Adsorption isotherm of Methanol on C4H8HoKO12 Dehydrated
DOI: 10.1021/Cm9014749
Adsorbate Methanol: InChIKey OKKJLVBELUTLKV-UHFFFAOYSA-N
Temperature: 293 K
Tabular data in the source: 0
pressure (bar)	uptake (ml/g)
3.37e-05	3.48548
9.48e-05	9.79253
0.000510695	12.7801
0.00635959	17.2614
0.0106539	21.0788
0.0130067	24.2324
0.0176832	27.5519
0.0262189	29.7095
0.0382298	31.0373
0.0494635	32.0332
0.0630162	32.6971
0.0761818	33.361
0.0912843	34.1909
0.107936	35.1867
0.115685	36.0166
0.118788	36.6805
0.125011	39.834
