Adsorption isotherm of Nitrogen on C4H8HoKO12 Dehydrated
DOI: 10.1021/Cm9014749
Adsorbate Nitrogen: InChIKey IJGRMHOSHXDMSA-UHFFFAOYSA-N
Temperature: 77 K
Tabular data in the source: 0
pressure (bar)	uptake (ml/g)
0.00336655	9.13793
0.00691441	10.6897
0.0104375	13.2759
0.02118	13.7931
0.0408642	15.1724
0.0551793	16.2069
0.0712868	17.2414
0.0999417	18.2759
0.148272	21.0345
0.194823	23.2759
0.244955	25.6897
0.293302	27.7586
0.341641	30.1724
0.391764	32.931
0.436498	36.2069
0.486584	40.5172
0.534907	43.6207
0.581462	45.6897
0.633386	48.1034
0.678131	50.8621
0.728238	54.3103
0.781938	57.4138
0.826651	61.5517
0.874957	65.3448
0.923276	68.6207
