Adsorption isotherm of Hydrogen on C4H8HoKO12 Dehydrated
DOI: 10.1021/Cm9014749
Adsorbate Hydrogen: InChIKey UFHFLCQGNIYNRP-UHFFFAOYSA-N
Temperature: 195 K
Tabular data in the source: 0
pressure (bar)	uptake (ml/g)
3.55e-15	0.208333
1.2959	0.6295
3.62851	1.47093
5.70194	2.72813
7.90497	3.98578
12.1814	5.6673
26.4363	9.67513
29.2873	9.89336
34.9892	11.1632
37.8402	11.3814
43.2829	11.817
46.2635	11.8273
49.2441	12.046
51.9654	12.0554
54.8164	12.0653
57.6674	12.0752
