Adsorption isotherm of Water on C4H8HoKO12 Dehydrated
DOI: 10.1021/Cm9014749
Adsorbate Water: InChIKey XLYOFNOQVPJJNP-UHFFFAOYSA-N
Temperature: 298 K
Tabular data in the source: 0
pressure (bar)	uptake (ml/g)
0.000242602	9.66495
0.000545855	41.8814
0.000667156	67.6546
0.000909759	108.247
0.00121301	145.619
0.00127366	126.933
0.00139496	184.923
0.00163757	202.964
0.00224407	208.763
0.00333578	211.34
0.0056405	215.206
0.00691417	215.851
0.00915824	219.072
0.011281	220.361
0.0134644	222.938
0.0157692	224.871
0.0195295	228.093
0.0232292	231.314
0.0303859	237.113
