Adsorption isotherm of Carbon Dioxide on C4H8HoKO12 Dehydrated
DOI: 10.1021/Cm9014749
Adsorbate Carbon Dioxide: InChIKey CURLTUGMZLYLDI-UHFFFAOYSA-N
Temperature: 195 K
Tabular data in the source: 0
pressure (bar)	uptake (ml/g)
0.0456092	47.5862
0.176606	48.9655
0.230882	49.3103
0.28141	49.8276
0.331933	50.5172
0.384337	50.8621
0.434869	51.2069
0.481653	51.7241
0.534057	52.069
0.582717	52.4138
0.635125	52.5862
0.685657	52.931
0.786726	53.4483
0.833501	54.3103
0.884033	54.6552
0.936411	56.0345
0.988815	56.3793
1.00941	56.3793
