Adsorption isotherm of Hydrogen on C4H8HoKO12 Dehydrated
DOI: 10.1021/Cm9014749
Adsorbate Hydrogen: InChIKey UFHFLCQGNIYNRP-UHFFFAOYSA-N
Temperature: 77 K
Tabular data in the source: 0
pressure (bar)	uptake (ml/g)
0.111111	7.51958
0.555556	66.0052
1.55556	71.436
2.33333	73.9426
3.44444	75.6136
6.44444	77.4935
9.44444	78.5379
13.2222	78.9556
16.1111	78.1201
17.7778	78.5379
19.5556	78.7467
20.8889	78.9556
22.6667	78.5379
24.3333	78.5379
25.8889	78.9556
27.3333	78.5379
29.5556	78.7467
31.7778	78.329
33.7778	78.5379
36	78.7467
38.1111	79.1645
40.1111	78.9556
42.2222	78.7467
43.1111	78.9556
47.5556	78.7467
50.2222	78.9556
52.8889	78.7467
