Adsorption isotherm of Carbon Dioxide on C4H8HoKO12 Dehydrated
DOI: 10.1021/Cm9014749
Adsorbate Carbon Dioxide: InChIKey CURLTUGMZLYLDI-UHFFFAOYSA-N
Temperature: 298 K
Tabular data in the source: 0
pressure (bar)	uptake (ml/g)
0.185185	0.0976703
0.246914	4.35603
0.37037	12.2921
0.432099	14.9053
0.617284	15.874
0.925926	16.6496
1.11111	17.328
1.48148	18.3943
1.79012	18.7829
2.22222	19.172
2.53086	19.4639
2.96296	19.7563
3.45679	20.2425
4.38272	20.8277
4.81481	21.2168
5.18519	21.1219
6.54321	21.7091
7.96296	21.8127
9.50617	22.0137
10.9877	22.3112
13.8889	22.7124
15.3086	23.0096
18.2716	23.5078
19.6914	23.6114
