Adsorption isotherm of Ethanol on C4H8HoKO12 Dehydrated
DOI: 10.1021/Cm9014749
Adsorbate Ethanol: InChIKey LFQSCWFLJHTTHZ-UHFFFAOYSA-N
Temperature: 298 K
Tabular data in the source: 0
pressure (bar)	uptake (ml/g)
0.00195924	0.165975
0.00427309	0
0.0108615	0.165975
0.0279538	0.165975
0.0336498	-0.165975
0.0466486	0.165975
0.0571525	0
