Adsorption isotherm of Acetonitrile on C4H8HoKO12 Dehydrated
DOI: 10.1021/Cm9014749
Adsorbate Acetonitrile: InChIKey WEVYAHXRMPXWCK-UHFFFAOYSA-N
Temperature: 293 K
Tabular data in the source: 0
pressure (bar)	uptake (ml/g)
0.00018093	24.8963
0.000316025	3.48548
0.000342561	7.13693
0.000367892	10.6224
0.000418552	17.5934
0.000446295	21.4108
0.000498161	28.5477
0.000522285	31.8672
0.00083831	35.3527
0.00695013	36.3485
0.0139292	36.6805
0.0191629	36.8465
0.0307931	37.1784
0.0409698	37.5104
0.050564	37.6763
0.0645209	38.1743
0.0784779	38.6722
0.0872024	39.1701
0.0924397	39.834
