Adsorption isotherm of 1,1,2-Trichloroethene on ZSM-5
DOI: 10.1063/1.2759896
Adsorbate 1,1,2-Trichloroethene: InChIKey XSTXAVWGXDQKEL-UHFFFAOYSA-N
Temperature: 348 K
Tabular data in the source: 0
pressure (bar)	uptake (molecules/unitcell)
0.0187752	0.106119
0.0259428	0.127968
0.035535	0.368304
0.0499668	0.630489
0.0696483	1.24225
0.0970824	2.59688
0.13651	3.88595
0.185357	4.8473
0.258368	6.4204
0.360137	7.4036
0.501992	7.79688
