Adsorption isotherm of 1,1,2-Trichloroethene on ZSM-5
DOI: 10.1063/1.2759896
Adsorbate 1,1,2-Trichloroethene: InChIKey XSTXAVWGXDQKEL-UHFFFAOYSA-N
Temperature: 348 K
Tabular data in the source: 0
pressure (bar)	uptake (molecules/unitcell)
0.0367992	0.499396
0.0465926	0.761581
0.0595102	1.19856
0.0740422	1.72293
0.0929315	2.90276
0.11664	3.64561
0.169845	5.37167
0.245169	6.4641
0.363298	7.20696
0.515328	7.86242
0.750397	8.19015
