Adsorption isotherm of 1,1,2-Trichloroethene on ZSM-5
DOI: 10.1063/1.2759896
Adsorbate 1,1,2-Trichloroethene: InChIKey XSTXAVWGXDQKEL-UHFFFAOYSA-N
Temperature: 298 K
Tabular data in the source: 0
pressure (bar)	uptake (molecules/unitcell)
0.0371222	4.7162
0.0470016	5.93973
0.0584791	6.74814
0.0714986	6.72629
0.0929315	6.98847
0.117663	7.46914
0.142608	7.84057
0.185357	8.1683
0.232644	8.43049
0.289454	8.51788
0.372949	8.97671
