Adsorption isotherm of 1,1,2-Trichloroethene on ZSM-5
DOI: 10.1063/1.2759896
Adsorbate 1,1,2-Trichloroethene: InChIKey XSTXAVWGXDQKEL-UHFFFAOYSA-N
Temperature: 323 K
Tabular data in the source: 0
pressure (bar)	uptake (molecules/unitcell)
0.0374481	2.07251
0.0465926	2.61872
0.0746921	3.60192
0.109718	5.21872
0.161169	6.4641
0.232644	7.03217
0.289454	7.57839
0.369704	8.05906
0.510844	8.2994
0.750397	8.73637
