Adsorption isotherm of 1,1,2-Trichloroethene on ZSM-5
DOI: 10.1063/1.2759896
Adsorbate 1,1,2-Trichloroethene: InChIKey XSTXAVWGXDQKEL-UHFFFAOYSA-N
Temperature: 298 K
Tabular data in the source: 0
pressure (bar)	uptake (molecules/unitcell)
0.0374481	4.16998
0.0474142	5.02209
0.0595102	5.41536
0.0746921	5.26242
0.0937472	6.07082
0.117663	6.87923
0.147681	7.3162
0.186984	7.97166
0.234686	8.2994
0.297144	8.71452
0.366487	8.95486
