Adsorption isotherm of 1,1,2-Trichloroethene on ZSM-5
DOI: 10.1063/1.2759896
Adsorbate 1,1,2-Trichloroethene: InChIKey XSTXAVWGXDQKEL-UHFFFAOYSA-N
Temperature: 348 K
Tabular data in the source: 0
pressure (bar)	uptake (molecules/unitcell)
0.0371222	0.477547
0.0465926	0.739732
0.0569658	1.15486
0.0746921	1.70108
0.0945701	2.90276
0.11664	3.68931
0.171336	5.34982
0.243035	6.44225
0.353897	7.20696
0.510844	7.84057
0.737394	8.212
