Adsorption isotherm of Tetrachloroethene on ZSM-5
DOI: 10.1063/1.2759896
Adsorbate Tetrachloroethene: InChIKey CYTYCFOTNPOANT-UHFFFAOYSA-N
Temperature: 298 K
Tabular data in the source: 0
pressure (bar)	uptake (molecules/unitcell)
0.18056	4.93469
0.215046	5.43721
0.251682	6.4641
0.353897	7.51284
0.417822	7.64393
0.497624	7.64393
