Adsorption isotherm of 1,1,2-Trichloroethene on ZSM-5
DOI: 10.1063/1.2759896
Adsorbate 1,1,2-Trichloroethene: InChIKey XSTXAVWGXDQKEL-UHFFFAOYSA-N
Temperature: 298 K
Tabular data in the source: 0
pressure (bar)	uptake (molecules/unitcell)
0.0381084	4.73805
0.0470016	5.89603
0.0589924	6.68259
0.0740422	6.70444
0.0913212	7.03217
0.117663	7.55654
0.147681	7.84057
0.182145	8.19015
0.232644	8.40864
0.294558	8.53973
0.369704	8.84561
