Adsorption isotherm of 1,1,2-Trichloroethene on ZSM-5
DOI: 10.1063/1.2759896
Adsorbate 1,1,2-Trichloroethene: InChIKey XSTXAVWGXDQKEL-UHFFFAOYSA-N
Temperature: 348 K
Tabular data in the source: 0
pressure (bar)	uptake (molecules/unitcell)
0.0684415	1.19856
0.0773494	1.56998
0.101419	2.05066
0.126184	2.68427
0.152935	3.29603
0.205852	4.08259
0.27951	4.91284
0.360137	5.72124
