Adsorption isotherm of 1,1,2-Trichloroethene on ZSM-5
DOI: 10.1063/1.2759896
Adsorbate 1,1,2-Trichloroethene: InChIKey XSTXAVWGXDQKEL-UHFFFAOYSA-N
Temperature: 298 K
Tabular data in the source: 0
pressure (bar)	uptake (molecules/unitcell)
0.0746921	6.98847
0.141367	8.51788
0.193636	8.86746
0.228613	9.0204
0.376223	9.41368
