Adsorption isotherm of 1,1,2-Trichloroethene on ZSM-5
DOI: 10.1063/1.2759896
Adsorbate 1,1,2-Trichloroethene: InChIKey XSTXAVWGXDQKEL-UHFFFAOYSA-N
Temperature: 298 K
Tabular data in the source: 0
pressure (bar)	uptake (molecules/unitcell)
0.0753478	7.01032
0.140137	8.49603
0.190281	8.84561
0.228613	9.0204
0.386217	9.43553
