Adsorption isotherm of 1,1,2-Trichloroethene on ZSM-5
DOI: 10.1063/1.2759896
Adsorbate 1,1,2-Trichloroethene: InChIKey XSTXAVWGXDQKEL-UHFFFAOYSA-N
Temperature: 348 K
Tabular data in the source: 0
pressure (bar)	uptake (molecules/unitcell)
0.0787133	1.52629
0.102309	2.18175
0.126184	2.66242
0.154278	3.25234
0.205852	4.03889
0.274667	4.89099
0.360137	5.67755
