Adsorption isotherm of 1,1,2-Trichloroethene on ZSM-5
DOI: 10.1063/1.2759896
Adsorbate 1,1,2-Trichloroethene: InChIKey XSTXAVWGXDQKEL-UHFFFAOYSA-N
Temperature: 298 K
Tabular data in the source: 0
pressure (bar)	uptake (molecules/unitcell)
0.0187752	2.00696
0.0257171	4.06074
0.0367992	5.06578
0.0508478	6.61704
0.0708764	7.55654
0.0954002	7.3599
0.13651	7.75318
0.182145	8.78007
0.260635	8.40864
0.360137	9.21704
0.506399	9.39183
