Adsorption isotherm of 1,1,2-Trichloroethene on ZSM-5
DOI: 10.1063/1.2759896
Adsorbate 1,1,2-Trichloroethene: InChIKey XSTXAVWGXDQKEL-UHFFFAOYSA-N
Temperature: 323 K
Tabular data in the source: 0
pressure (bar)	uptake (molecules/unitcell)
0.0780284	3.71116
0.101419	4.47587
0.12185	5.04393
0.152935	5.6557
0.207659	6.68259
0.281964	7.42545
0.369704	8.01536
