Adsorption isotherm of Tetrachloroethene on ZSM-5
DOI: 10.1063/1.2759896
Adsorbate Tetrachloroethene: InChIKey CYTYCFOTNPOANT-UHFFFAOYSA-N
Temperature: 298 K
Tabular data in the source: 0
pressure (bar)	uptake (molecules/unitcell)
0.0512941	1.00192
0.0666704	1.59183
0.085902	2.31284
0.112633	2.94646
0.150285	3.36158
0.193636	3.84225
0.228613	4.19183
0.299752	4.7162
0.396477	5.02209
