Adsorption isotherm of Tetrachloroethene on ZSM-5
DOI: 10.1063/1.2759896
Adsorbate Tetrachloroethene: InChIKey CYTYCFOTNPOANT-UHFFFAOYSA-N
Temperature: 298 K
Tabular data in the source: 0
pressure (bar)	uptake (molecules/unitcell)
0.053119	1.74477
0.0921228	2.9683
0.137709	3.53637
0.171336	3.73301
0.200525	5.6994
0.243035	6.79183
0.256119	7.22881
0.289454	7.16326
0.335818	7.4036
