Adsorption isotherm of Nitrogen on H-380
DOI: 10.1016/j.jcis.2015.09.061
Article source: Figure  3
Adsorbate Nitrogen: InChIKey IJGRMHOSHXDMSA-UHFFFAOYSA-N
Kind: experiment
Temperature: 77 K
Tabular data in the source: 0
pressure (bar)	uptake (cm3(STP)/g)
0.00078	41.82
0.007356	51.75
0.011784	58.8
0.019627	65.59
0.050865	77.84
0.10093	89.55
0.151633	99.43
0.201191	106.96
0.232166	111.63
0.251762	115.01
0.263394	115
0.303347	119.92
0.333562	125.9
0.366563	132.14
0.406252	136.54
0.425099	139.92
0.455942	143.55
0.48869	148.22
0.506645	150.29
0.536982	156.54
0.557977	159.65
0.586803	165.89
0.608669	169.01
0.639776	177.6
0.659747	179.93
0.688706	187.48
0.707036	193.48
0.710835	194.26
0.740169	202.33
0.755966	207.54
0.760393	205.71
0.791125	222.14
0.808705	227.29
0.809455	227.61
0.84196	248.49
0.861678	251.34
0.872185	272.5
0.911145	324.74
0.912908	323.99
0.922919	350.08
0.931754	325.5
0.943559	405.74
0.96352	530.22
0.963591	530.39
0.982923	505.54
0.98421	780.25
0.992975	620.54
0.994049	992.48
1.00258	1104.61
