Adsorption isotherm of Carbon Dioxide on H-380
DOI: 10.1016/j.jcis.2015.09.061
Article source: Figure  5
Adsorbate Carbon Dioxide: InChIKey CURLTUGMZLYLDI-UHFFFAOYSA-N
Kind: experiment
Temperature: 273 K
Tabular data in the source: 0
pressure (bar)	uptake (cm3(STP)/g)
0.318318	0.1381
0.666142	0.4466
0.857758	0.5583
1.25418	0.8463
1.55653	1.096
2.43408	1.7161
3.32446	2.3008
5.08233	3.4261
5.18959	3.479
6.08311	4.0402
6.95718	4.525
8.64979	5.3975
9.78039	5.9204
10.4368	6.2994
12.1652	7.0866
13.2017	7.5684
13.9293	7.9268
14.9464	8.3703
15.6674	8.7082
16.707	9.1546
17.3798	9.4778
18.4257	9.8919
19.1112	10.2121
20.1801	10.6115
20.859	10.8876
21.9247	11.3017
22.6134	11.5808
23.6531	11.9861
24.3383	12.2739
25.3683	12.6528
26.057	12.9171
27.0997	13.3048
27.8211	13.5573
28.8507	13.9185
29.9164	14.3179
30.9459	14.688
31.6187	14.9229
32.2879	15.4195
33.0124	15.6397
33.698	16.0687
34.0847	16.2714
34.3902	16.4536
34.6207	16.6123
