Adsorption isotherm of Methane on SDU-6
DOI: 10.1021/Ic3015207
Adsorbate Methane: InChIKey VNWKTOKETHGBQD-UHFFFAOYSA-N
Temperature: 298 K
Tabular data in the source: 0
pressure (bar)	uptake (mmol/g)
1.24255	0.788321
1.86544	1.40146
3.19547	2.07299
4.61578	3.0073
5.94452	3.50365
7.71775	4.37956
11.1733	5.78102
15.6891	7.21168
20.2037	8.46715
25.2461	9.43066
30.1989	10.219
35.3273	10.8613
40.2775	11.2993
45.4926	11.708
