Adsorption isotherm of Hydrogen on SDU-8
DOI: 10.1021/Ic3015207
Adsorbate Hydrogen: InChIKey UFHFLCQGNIYNRP-UHFFFAOYSA-N
Temperature: 77 K
Tabular data in the source: 0
pressure (bar)	uptake (mmol/g)
0.185185	0.185185
1.11111	9.03143
2.03704	13.2357
3.7037	16.35
5.92593	18.8414
8.88889	21.3329
12.963	23.6686
17.4074	25.6929
22.037	27.0943
26.8519	28.1843
32.037	29.43
36.8519	30.3643
41.6667	30.52
46.8519	31.1429
51.8519	31.7657
56.8519	31.7657
