Adsorption isotherm of Methane on SDU-7
DOI: 10.1021/Ic3015207
Adsorbate Methane: InChIKey VNWKTOKETHGBQD-UHFFFAOYSA-N
Temperature: 298 K
Tabular data in the source: 0
pressure (bar)	uptake (mmol/g)
1.50929	1.0219
2.57452	1.72263
4.25898	2.54015
5.85554	3.41606
7.89357	4.26277
11.2599	5.54745
15.4211	6.80292
20.2879	7.91241
25.2412	8.75912
30.3704	9.51825
35.4101	10.1022
40.449	10.5985
45.3991	11.0073
