Adsorption isotherm of Methane on SDU-8
DOI: 10.1021/Ic3015207
Adsorbate Methane: InChIKey VNWKTOKETHGBQD-UHFFFAOYSA-N
Temperature: 298 K
Tabular data in the source: 0
pressure (bar)	uptake (mmol/g)
0.177538	0.116788
0.355291	0.262774
0.621599	0.437956
0.888766	0.729927
1.86437	1.25547
2.84083	1.89781
4.43652	2.65693
6.56375	3.62044
8.86724	4.52555
11.7003	5.37226
15.0641	6.30657
20.2841	7.38686
25.6783	8.14599
31.1603	8.81752
37.525	9.40146
45.479	9.86861
