Adsorption isotherm of Methane on SDU-6
DOI: 10.1021/Ic3015207
Adsorbate Methane: InChIKey VNWKTOKETHGBQD-UHFFFAOYSA-N
Temperature: 298 K
Tabular data in the source: 0
pressure (bar)	uptake (volume/volume)
2.02128	20.3704
4.68085	44.4444
5.85106	51.8519
7.65957	64.8148
11.1702	86.4198
15.3191	108.642
20.2128	129.63
25.1064	146.296
30	160.494
35.1064	173.457
40.2128	183.333
45.3191	191.975
