Adsorption isotherm of Hydrogen on SDU-7
DOI: 10.1021/Ic3015207
Adsorbate Hydrogen: InChIKey UFHFLCQGNIYNRP-UHFFFAOYSA-N
Temperature: 77 K
Tabular data in the source: 0
pressure (bar)	uptake (mmol/g)
0.114723	0.0569096
0.344168	3.26584
1.0325	8.53573
1.95029	12.2469
3.32696	15.7354
5.16252	18.0363
8.37476	20.6342
12.5048	22.8609
16.979	24.2711
21.7973	25.3102
26.8451	25.9783
31.8929	26.201
36.826	26.3494
41.8738	26.3494
46.8069	26.2752
51.9694	26.1267
