Adsorption isotherm of Hydrogen on SDU-6
DOI: 10.1021/Ic3015207
Adsorbate Hydrogen: InChIKey UFHFLCQGNIYNRP-UHFFFAOYSA-N
Temperature: 77 K
Tabular data in the source: 0
pressure (bar)	uptake (mmol/g)
0.37037	5.45
0.740741	9.34286
1.85185	13.5471
3.33333	17.5957
5.18519	20.8657
8.33333	24.4471
12.2222	27.4057
16.6667	29.7414
21.6667	31.61
26.6667	33.0114
31.6667	34.2571
36.8519	35.1914
41.8519	35.97
46.8519	36.7486
52.2222	37.2157
