Adsorption isotherm of Methane on SDU-8
DOI: 10.1021/Ic3015207
Adsorbate Methane: InChIKey VNWKTOKETHGBQD-UHFFFAOYSA-N
Temperature: 298 K
Tabular data in the source: 0
pressure (bar)	uptake (volume/volume)
0.744681	8.02469
1.59574	14.1975
2.55319	25.3086
4.25532	36.4198
6.06383	49.3827
7.97872	60.4938
11.383	77.7778
15.6383	96.2963
20.3191	111.111
25.3191	124.074
30.4255	136.42
35.3191	146.296
40.3191	154.321
