Adsorption isotherm of Hydrogen on SDU-7
DOI: 10.1021/Ic3015207
Adsorbate Hydrogen: InChIKey UFHFLCQGNIYNRP-UHFFFAOYSA-N
Temperature: 77 K
Tabular data in the source: 0
pressure (bar)	uptake (mmol/g)
0.185185	3.42571
1.85185	12.3014
3.51852	16.1943
5.55556	18.9971
8.51852	22.1114
12.5926	24.7586
17.2222	27.0943
21.8519	28.8071
26.8519	30.52
31.8519	31.61
36.8519	32.5443
41.8519	33.4786
46.8519	34.4129
52.037	35.1914
