Adsorption isotherm of Nitrogen on SDU-8
DOI: 10.1021/Ic3015207
Adsorbate Nitrogen: InChIKey IJGRMHOSHXDMSA-UHFFFAOYSA-N
Temperature: 77 K
Tabular data in the source: 0
pressure (bar)	uptake (cm3(STP)/g)
0.00030455	137.93
0.000434492	196.781
0.000536009	242.758
0.00415407	281.371
0.00430025	347.578
0.00449923	437.693
0.00812947	481.824
0.0152722	516.753
0.0295089	564.542
0.0419264	588.426
0.0719917	604.921
0.0896718	612.244
0.114414	617.714
0.135622	623.192
0.156823	624.99
0.185098	630.454
0.204528	630.417
0.223966	634.059
0.259306	639.509
0.27697	639.476
0.301704	641.268
0.340569	643.033
0.393564	644.772
0.434196	646.534
0.457163	648.33
0.478355	646.451
0.494257	648.26
0.527822	650.035
0.55079	651.831
0.57022	651.794
0.626745	651.687
0.669138	651.607
0.725667	653.339
0.780429	655.074
0.821052	653.158
0.858154	656.766
0.895252	658.535
0.935879	658.458
