Adsorption isotherm of Hydrogen on SDU-8
DOI: 10.1021/Ic3015207
Adsorbate Hydrogen: InChIKey UFHFLCQGNIYNRP-UHFFFAOYSA-N
Temperature: 77 K
Tabular data in the source: 0
pressure (bar)	uptake (mmol/g)
0.114723	0.114723
0.458891	10.4738
1.14723	18.404
2.29446	26.1845
3.90057	32.02
5.96558	36.2095
9.0631	40.6983
13.0784	43.99
17.4379	46.2344
22.1415	47.4314
26.8451	48.3292
31.8929	49.2269
36.826	49.2269
41.8738	48.0299
46.8069	47.581
51.9694	47.1322
56.9025	45.9352
