Adsorption isotherm of Nitrogen on SDU-7
DOI: 10.1021/Ic3015207
Adsorbate Nitrogen: InChIKey IJGRMHOSHXDMSA-UHFFFAOYSA-N
Temperature: 77 K
Tabular data in the source: 0
pressure (bar)	uptake (cm3(STP)/g)
0.00829595	557.226
0.0189633	588.47
0.0260655	605.008
0.0402534	630.728
0.0544171	645.414
0.0756503	661.926
0.0986256	667.4
0.128671	674.699
0.158715	681.998
0.199355	687.439
0.234687	689.211
0.252351	689.177
0.277088	692.809
0.314182	692.739
0.353051	696.343
0.397215	698.099
0.427252	701.72
0.439621	703.536
0.467883	703.482
0.485547	703.449
0.542071	703.342
0.557977	706.99
0.579174	706.95
0.602137	706.906
0.6251	706.863
0.655129	706.806
0.676325	706.766
0.697526	708.565
0.71519	708.531
0.74169	710.32
0.761112	706.605
0.771719	710.263
0.821178	710.17
0.856506	710.103
0.898903	711.862
0.946587	708.093
0.97662	709.875
