Adsorption isotherm of Nitrogen on SDU-6
DOI: 10.1021/Ic3015207
Adsorbate Nitrogen: InChIKey IJGRMHOSHXDMSA-UHFFFAOYSA-N
Temperature: 77 K
Tabular data in the source: 0
pressure (bar)	uptake (cm3(STP)/g)
0.0189024	560.884
0.0224718	577.429
0.0295982	605.001
0.0526629	650.935
0.0862812	676.618
0.118105	689.432
0.149916	696.728
0.178194	704.03
0.224141	713.139
0.259489	722.267
0.29835	722.194
0.340759	729.47
0.372559	731.249
0.388456	731.219
0.411423	733.014
0.446759	736.626
0.471493	738.418
0.496226	740.21
0.526259	741.992
0.543927	743.798
0.563361	745.6
0.581025	745.567
0.602222	745.527
0.618116	743.657
0.634017	745.466
0.646382	745.443
0.665812	745.406
0.697611	747.185
0.724107	747.135
0.759439	748.907
0.785931	747.018
0.821259	746.951
0.831861	748.77
0.877792	750.522
0.916656	752.288
0.944923	754.073
