Adsorption isotherm of Methane on SDU-7
DOI: 10.1021/Ic3015207
Adsorbate Methane: InChIKey VNWKTOKETHGBQD-UHFFFAOYSA-N
Temperature: 298 K
Tabular data in the source: 0
pressure (bar)	uptake (volume/volume)
2.76596	27.1605
5.95745	50.6173
7.76596	62.963
11.2766	82.0988
15.4255	101.852
20.2128	119.753
25.1064	134.568
30.2128	148.148
35.1064	159.877
40.3191	170.37
45.2128	179.012
