Adsorption isotherm of Hydrogen on SDU-6
DOI: 10.1021/Ic3015207
Adsorbate Hydrogen: InChIKey UFHFLCQGNIYNRP-UHFFFAOYSA-N
Temperature: 77 K
Tabular data in the source: 0
pressure (bar)	uptake (mmol/g)
0.229446	0.113819
0.344168	5.49254
0.917782	9.27793
1.72084	13.286
3.21224	17.0715
5.0478	20.1146
8.26004	23.0093
12.1606	25.3102
16.7495	26.869
21.5679	27.7596
26.7304	28.2792
31.6635	28.5019
36.7113	28.3534
41.7591	28.4276
46.9216	28.1307
51.9694	27.7596
