Adsorption isotherm of Carbon Dioxide on AO@{[Zn(oxo-pba)2(bpy)]4H2O}n
DOI: 10.1039/c5ra14267a
Article source: Figure 4
Adsorbate Carbon Dioxide: InChIKey CURLTUGMZLYLDI-UHFFFAOYSA-N
Kind: experiment
Temperature: 195 K
Tabular data in the source: 0
pressure (bar)	uptake (ml/g)
0.006664	0.842697
0.008841	0.505618
0.024271	0.842697
0.024364	2.10674
0.030991	2.44382
0.037495	1.09551
0.044227	2.86517
0.050725	1.43258
0.053055	3.20225
0.05954	1.60112
0.072777	2.02247
0.083812	2.44382
0.105832	2.61236
0.105956	4.29775
0.130091	3.28652
0.154443	5.22472
0.156538	3.79213
0.182974	4.12921
0.207326	6.06742
0.211622	4.63483
0.233662	5.05618
0.255812	6.99438
0.262304	5.47753
0.286544	5.89888
0.310901	7.92135
0.312985	6.32022
0.339439	6.91011
0.363777	8.67978
0.365874	7.24719
0.390114	7.66854
0.416555	8.08989
0.416666	9.60674
0.438601	8.59551
0.465147	10.4494
0.467231	8.84831
0.493678	9.35393
0.518017	11.1236
0.520119	9.77528
0.544353	10.1124
0.5708	10.618
0.570905	12.0506
0.595053	11.2079
0.619374	12.7247
0.621469	11.2921
0.645722	11.882
0.672262	13.6517
0.674357	12.2191
0.696404	12.7247
0.722931	14.3258
0.729447	13.1461
0.751493	13.6517
0.777934	14.073
0.797841	15.4213
0.804369	14.4101
0.82647	15.6742
0.828615	14.9157
0.850699	15.927
0.857251	15.2528
0.87929	15.6742
0.903569	16.6011
0.907939	16.1798
0.93001	17.0225
0.93218	16.6011
0.95642	17.0225
0.958602	16.7697
0.980666	17.5281
1.0093	17.8652
1.02253	18.2022
