Adsorption isotherm of Methanol on {[Zn(oxo-pba)2(bpy)]4H2O}n
DOI: 10.1039/c5ra14267a
Article source: Figure 5a
Adsorbate Methanol: InChIKey OKKJLVBELUTLKV-UHFFFAOYSA-N
Kind: experiment
Temperature: 293 K
Tabular data in the source: 0
pressure (bar)	uptake (ml/g)
0.002292	3.06727
0.003602	3.75099
0.007203	5.80131
0.010477	7.17048
0.011132	47.9885
0.014079	8.20039
0.017353	9.56956
0.018662	51.4098
0.020299	10.5977
0.024228	12.3088
0.024883	53.1268
0.027175	13.337
0.030122	16.406
0.031104	54.8439
0.033396	19.1357
0.03667	23.9062
0.037652	55.5415
0.040272	27.9973
0.043546	32.4277
0.043873	56.5783
0.04682	35.8377
0.048129	56.9296
0.054678	58.3074
0.055005	40.9614
0.061226	59.3451
0.066792	46.4346
0.068756	60.3854
0.074322	62.1007
0.074977	49.5174
0.079888	51.5712
0.080216	63.4768
0.086764	64.5145
0.087091	54.9915
0.093312	60.7903
0.09364	64.8728
0.098551	62.8449
0.100843	66.2523
0.105426	65.244
0.107063	66.949
0.111647	67.9815
0.111975	68.6626
0.115249	69.0114
0.117868	72.0795
