Adsorption isotherm of Water on {[Zn(oxo-pba)2(bpy)]4H2O}n
DOI: 10.1039/c5ra14267a
Article source: Figure 5a
Adsorbate Water: InChIKey XLYOFNOQVPJJNP-UHFFFAOYSA-N
Kind: experiment
Temperature: 298 K
Tabular data in the source: 0
pressure (bar)	uptake (ml/g)
0.000159	2.38268
0.000874	7.49249
0.001509	10.5606
0.002383	12.6109
0.00286	20.0991
0.003416	15.3432
0.004449	24.8783
0.004528	17.056
0.005958	18.7722
0.006117	37.1413
0.006435	43.6073
0.00707	20.1449
0.007626	55.8652
0.008421	22.5405
0.008897	62.3416
0.00993	23.9174
0.010169	67.4574
0.011042	24.9499
0.012552	74.2861
0.013902	28.3824
0.014776	81.113
0.015571	31.8019
0.017318	84.5419
0.018907	37.9606
0.019225	86.9436
0.021608	46.8335
0.022005	90.3752
0.023594	92.7734
0.023991	57.4036
0.025183	74.7635
0.02558	95.1759
0.026851	89.0673
0.028917	99.9741
