Adsorption isotherm of Carbon Dioxide on {[Zn(oxo-pba)2(bpy)]4H2O}n
DOI: 10.1039/c5ra14267a
Article source: Figure 4
Adsorbate Carbon Dioxide: InChIKey CURLTUGMZLYLDI-UHFFFAOYSA-N
Kind: experiment
Temperature: 195 K
Tabular data in the source: 0
pressure (bar)	uptake (ml/g)
0.003153	12.9775
0.003233	14.073
0.003487	17.5281
0.01982	0.168539
0.024234	0.337079
0.026453	0.589888
0.034435	19.382
0.037501	1.17978
0.052975	2.10674
0.068437	2.86517
0.079484	3.45506
0.087385	21.1517
0.094927	3.96067
0.110365	4.38202
0.121399	4.80337
0.140298	22.4157
0.15448	5.73034
0.190992	23.427
0.209589	6.91011
0.237272	24.2697
0.255886	8.00562
0.276931	24.8596
0.326419	9.4382
0.334196	25.4494
0.366127	10.7022
0.376038	25.7865
0.414633	11.882
0.43329	26.2079
0.475131	26.5449
0.480781	13.5674
0.514778	26.9663
0.529293	14.8315
0.558813	27.2191
0.566801	16.0955
0.60505	27.4719
0.639553	17.7809
0.660096	27.809
0.677059	19.0449
0.717342	28.1461
0.72337	20.309
0.771894	21.7416
0.776784	28.3989
0.836214	28.4831
0.846853	23.5112
0.886555	24.691
0.900057	28.736
0.928464	25.9551
0.972703	28.9888
0.994607	27.5562
1.03212	28.9045
