Adsorption isotherm of Nitrogen on {[Zn(oxo-pba)2(bpy)]4H2O}n
DOI: 10.1039/c5ra14267a
Article source: Figure S9
Adsorbate Nitrogen: InChIKey IJGRMHOSHXDMSA-UHFFFAOYSA-N
Kind: experiment
Temperature: 77 K
Tabular data in the source: 0
pressure (bar)	uptake (ml/g)
0.003663	-0.543652
0.010989	0.716205
0.027473	0.889858
0.03663	0.29492
0.051282	1.17708
0.064103	1.23936
0.084249	1.36063
0.086081	0.761293
0.098901	1.42401
0.137363	1.17418
0.166667	1.8468
0.188645	1.53248
0.203297	1.97796
0.234432	1.94207
0.263736	2.39635
0.282051	2.24359
0.298535	2.69017
0.335165	2.65758
0.369963	3.11515
0.386447	2.96129
0.406593	3.3009
0.434066	3.3174
0.446886	3.65261
0.487179	3.94973
0.518315	4.13218
0.540293	4.4183
0.56044	4.43039
0.593407	4.94146
0.598901	4.67183
0.635531	5.45802
0.663004	5.31076
0.684982	5.70605
0.699634	5.4965
0.738095	6.55672
0.765568	6.30029
0.789377	7.13336
0.794872	6.80915
0.836996	8.03531
0.858974	7.721
0.891941	9.70586
0.895604	8.94387
0.954212	14.3284
0.989011	23.0283
