Adsorption isotherm of Carbon Dioxide on {[Zn(oxo-pba)2(bpy)]4H2O}n
DOI: 10.1039/c5ra14267a
Article source: Figure S15
Adsorbate Carbon Dioxide: InChIKey CURLTUGMZLYLDI-UHFFFAOYSA-N
Kind: experiment
Temperature: 195 K
Tabular data in the source: 0
pressure (bar)	uptake (ml/g)
0.003445	0.181673
0.012057	0.484798
0.017224	3.92951
0.018946	5.50071
0.020669	0.848346
0.024114	6.70978
0.029281	8.22096
0.031003	9.55047
0.039615	10.6391
0.041338	1.27373
0.04995	11.5466
0.051672	1.57706
0.060284	1.81976
0.070619	12.395
0.074064	2.18392
0.084398	2.42682
0.089565	13.0619
0.094732	2.54888
0.105067	2.79178
0.115401	3.09511
0.141238	14.3368
0.148127	3.7636
0.167073	15.1253
0.191188	4.79585
0.198077	15.9749
0.208411	5.4021
0.223913	16.5822
0.22908	5.94833
0.246304	17.1286
0.251471	6.55518
0.254917	6.8577
0.265251	17.4934
0.268696	7.04059
0.27903	7.22307
0.280752	17.7973
0.289364	7.46597
0.296254	18.2221
0.299699	7.64846
0.308311	18.586
0.315201	7.95239
0.330702	19.072
0.342759	8.55985
0.347927	19.3157
0.353093	8.9236
0.37204	9.22794
0.375484	19.8024
0.384097	9.47105
0.403043	9.89623
0.406488	20.3498
0.423712	10.2612
0.435769	10.5043
0.437491	20.7764
0.45816	10.9299
0.468494	11.1124
0.470218	21.2636
0.480552	11.5972
0.494331	11.8405
0.496053	21.5688
0.511556	12.0842
0.520168	12.3269
0.527057	21.9349
0.540837	13.1148
0.559782	22.2409
0.566672	13.9033
0.583897	22.425
0.590786	14.8125
0.609732	22.6697
0.620067	15.6619
0.640736	23.0359
0.644181	16.4502
0.668294	23.2204
0.673461	17.1787
0.690686	23.4043
0.695853	17.7251
0.716522	23.7094
0.723411	18.2722
0.742358	23.8937
0.74408	18.6371
0.768194	24.078
0.773361	19.2448
0.79403	19.5494
0.799198	24.3234
0.823311	24.5679
0.825033	20.1572
0.847424	20.6432
0.849147	24.6918
0.876706	24.8763
0.902542	24.9397
0.907709	21.9796
0.928378	22.828
0.935268	25.3061
0.949047	23.5555
0.962826	25.551
0.98005	24.5863
0.990384	25.9168
0.995552	25.1923
1.01794	26.1013
