Adsorption isotherm of Hydrogen on Aluminum formate
DOI: 10.1021/jacs.3c08037
Article source: Figure 1
Adsorbate Hydrogen: InChIKey UFHFLCQGNIYNRP-UHFFFAOYSA-N
Kind: experiment
Isotherm type: excess
Temperature: 120 K
Tabular data in the source: 1
pressure (bar)	uptake (mmol/g)
0.03571	0.1055
0.05693	0.1929
0.07396	0.265
0.08603	0.3237
0.09592	0.3724
0.1061	0.4179
0.1184	0.4657
0.1321	0.5167
0.1479	0.572
0.1672	0.6347
0.1883	0.7042
0.2124	0.7806
0.2397	0.8609
0.2706	0.9543
0.3071	1.051
0.3472	1.161
0.3946	1.279
0.4497	1.407
0.5186	1.552
0.5952	1.701
0.688	1.869
0.8132	2.067
0.961	2.275
1.18	2.546
1.457	2.827
1.806	3.117
2.246	3.406
2.828	3.702
3.608	3.997
4.654	4.278
6.126	4.546
8.154	4.779
11.05	4.979
14.07	5.103
19.08	5.221
25.1	5.29
29.87	5.319
33.34	5.332
39.08	5.334
44.24	5.33
53.15	5.303
61.95	5.27
73.55	5.216
86.3	5.147
101.5	5.057
113.9	4.976
97.91	5.152
60.32	5.399
44.39	5.431
34.72	5.418
29.82	5.397
24.42	5.359
21.27	5.322
17.52	5.26
15.3	5.206
13.58	5.152
11.28	5.059
8.668	4.897
6.567	4.688
5.004	4.444
3.861	4.176
3.022	3.901
2.405	3.622
1.944	3.352
1.553	3.065
1.257	2.795
1.041	2.557
0.8607	2.33
0.7272	2.13
0.6177	1.948
0.5306	1.787
0.4606	1.646
0.4041	1.519
0.3539	1.402
0.3121	1.296
0.2775	1.2
0.2464	1.115
0.2208	1.034
0.1973	0.9607
0.177	0.8935
0.159	0.8322
0.1435	0.7748
0.1293	0.7213
