Adsorption isotherm of Hydrogen on Aluminum formate
DOI: 10.1021/jacs.3c08037
Article source: Figure S3
Adsorbate Hydrogen: InChIKey UFHFLCQGNIYNRP-UHFFFAOYSA-N
Kind: experiment
Isotherm type: absolute
Temperature: 273 K
Tabular data in the source: 1
pressure (bar)	uptake (mmol/g)
0.09963	0.003246
0.1382	0.004436
0.1889	0.005991
0.2605	0.008214
0.3545	0.01115
0.4848	0.01508
0.6531	0.0203
0.8584	0.02673
1.16	0.03616
1.596	0.04949
2.154	0.06651
2.941	0.09036
4.12	0.1258
5.423	0.1648
7.122	0.2146
9.433	0.2818
12.81	0.378
17.87	0.5181
23.53	0.6697
30.17	0.8395
35.41	0.9696
42.97	1.144
49.67	1.294
55.05	1.409
65.4	1.619
73.87	1.786
88.08	2.04
100.2	2.24
115.7	2.479
99.06	2.243
59.45	1.547
43.57	1.204
36.83	1.044
29.86	0.873
25.97	0.7729
22.99	0.694
18.89	0.5833
16.5	0.516
13.53	0.4318
10.2	0.3354
7.553	0.257
5.591	0.1978
4.162	0.1538
3.123	0.1216
2.366	0.09779
1.722	0.07735
1.272	0.06297
0.9249	0.05174
0.6867	0.044
0.5147	0.0382
0.3856	0.03385
0.2894	0.03059
0.2145	0.02796
0.159	0.02602
0.1163	0.02445
