Adsorption isotherm of Hydrogen on Aluminum formate
DOI: 10.1021/jacs.3c08037
Article source: Figure 1
Adsorbate Hydrogen: InChIKey UFHFLCQGNIYNRP-UHFFFAOYSA-N
Kind: experiment
Isotherm type: excess
Temperature: 233 K
Tabular data in the source: 1
pressure (bar)	uptake (mmol/g)
0.09746	0.004917
0.1342	0.006693
0.1846	0.009234
0.2536	0.0127
0.3455	0.01724
0.4704	0.0235
0.6396	0.03187
0.8359	0.04169
1.11	0.0553
1.456	0.07196
1.928	0.09461
2.599	0.1263
3.585	0.172
4.657	0.2204
6.058	0.2817
7.954	0.3612
10.62	0.4676
14.51	0.6118
18.61	0.7516
25.72	0.9701
28.81	1.059
33.31	1.18
37.02	1.272
43.5	1.417
49.26	1.536
59.4	1.721
69.47	1.883
83.63	2.074
98.36	2.24
114.2	2.386
90.08	2.18
57.22	1.722
42.72	1.432
33.53	1.211
26.72	1.025
23.11	0.9182
20.43	0.8323
18.17	0.7563
14.97	0.6459
13.07	0.5745
10.75	0.4861
8.152	0.3813
6.073	0.293
4.529	0.224
3.609	0.1814
2.77	0.1418
2.122	0.1105
1.511	0.08042
1.127	0.06124
0.859	0.04766
0.6518	0.03701
0.4962	0.02896
0.3821	0.02285
0.2853	0.01775
0.2121	0.01374
0.1563	0.01069
0.1155	0.008397
