Adsorption isotherm of Hydrogen on Aluminum formate
DOI: 10.1021/jacs.3c08037
Article source: Figure S3
Adsorbate Hydrogen: InChIKey UFHFLCQGNIYNRP-UHFFFAOYSA-N
Kind: experiment
Isotherm type: absolute
Temperature: 200 K
Tabular data in the source: 1
pressure (bar)	uptake (mmol/g)
0.09294	0.01246
0.1258	0.01674
0.1707	0.02256
0.2278	0.0299
0.3077	0.04029
0.416	0.05438
0.5546	0.0722
0.7231	0.09361
0.9545	0.1228
1.264	0.1608
1.656	0.2084
2.219	0.2746
3.031	0.3668
3.911	0.4622
5.024	0.5775
6.531	0.7242
8.644	0.9153
11.7	1.166
14.84	1.397
20.13	1.743
26.58	2.11
31.65	2.364
35.27	2.532
41.48	2.791
47.04	3.003
56.75	3.327
66.34	3.61
79.84	3.954
94.4	4.27
112.5	4.601
119.1	4.717
100.2	4.426
64.36	3.626
48.17	3.105
37.84	2.698
30.15	2.346
26.06	2.134
23.05	1.965
18.99	1.721
16.58	1.563
14.71	1.433
11.35	1.181
8.504	0.9436
6.749	0.784
5.138	0.627
3.888	0.4967
2.956	0.3939
2.264	0.3144
1.752	0.2538
1.336	0.2029
0.9847	0.1592
0.7556	0.13
0.58	0.1075
0.444	0.08964
0.3371	0.07553
0.2579	0.06499
0.1931	0.05637
0.1443	0.04972
0.1082	0.04486
