Adsorption isotherm of Hydrogen on Aluminum formate
DOI: 10.1021/jacs.3c08037
Article source: Figure 1
Adsorbate Hydrogen: InChIKey UFHFLCQGNIYNRP-UHFFFAOYSA-N
Kind: experiment
Isotherm type: excess
Temperature: 273 K
Tabular data in the source: 1
pressure (bar)	uptake (mmol/g)
0.09963	0.002392
0.1382	0.003251
0.1889	0.004372
0.2605	0.005981
0.3545	0.008107
0.4848	0.01092
0.6531	0.0147
0.8584	0.01938
1.16	0.02622
1.596	0.03582
2.154	0.04807
2.941	0.06519
4.12	0.09054
5.423	0.1185
7.122	0.1538
9.433	0.2014
12.81	0.2691
17.87	0.3666
23.53	0.471
30.17	0.5857
35.41	0.6727
42.97	0.7854
49.67	0.8808
55.05	0.9534
65.4	1.081
73.87	1.181
88.08	1.325
100.2	1.432
115.7	1.556
99.06	1.445
59.45	1.056
43.57	0.8403
36.83	0.7353
29.86	0.6217
25.97	0.5539
22.99	0.4998
18.89	0.4232
16.5	0.376
13.53	0.3167
10.2	0.2485
7.553	0.1925
5.591	0.15
4.162	0.1183
3.123	0.09486
2.366	0.07753
1.722	0.0626
1.272	0.05207
0.9249	0.04382
0.6867	0.03811
0.5147	0.03379
0.3856	0.03055
0.2894	0.02811
0.2145	0.02613
0.159	0.02466
0.1163	0.02345
