Adsorption isotherm of Hydrogen on Aluminum formate
DOI: 10.1021/jacs.3c08037
Article source: Figure S3
Adsorbate Hydrogen: InChIKey UFHFLCQGNIYNRP-UHFFFAOYSA-N
Kind: experiment
Isotherm type: absolute
Temperature: 160 K
Tabular data in the source: 1
pressure (bar)	uptake (mmol/g)
0.07453	0.04006
0.1106	0.0586
0.1427	0.07495
0.1849	0.09635
0.2361	0.122
0.3013	0.154
0.3817	0.1928
0.4906	0.2442
0.6163	0.3016
0.7867	0.3767
0.9858	0.4611
1.284	0.5803
1.696	0.7325
2.135	0.8827
2.846	1.102
3.702	1.338
4.799	1.601
6.246	1.901
8.254	2.251
11.16	2.663
14.21	3.013
19.36	3.479
25.6	3.907
30.63	4.185
34.23	4.356
40.19	4.596
45.58	4.785
54.98	5.058
64.17	5.281
77.06	5.542
91.01	5.774
108.8	6.02
116.4	6.122
98.71	5.947
60.05	5.278
44.12	4.811
34.51	4.43
29.68	4.193
24.33	3.884
21.22	3.669
18.83	3.484
16.79	3.307
13.98	3.031
11.44	2.738
8.782	2.369
6.661	2.013
5.064	1.692
3.878	1.414
2.999	1.176
2.341	0.9788
1.848	0.8142
1.387	0.6472
1.066	0.5209
0.8346	0.4242
0.6486	0.3427
0.5105	0.2796
0.4065	0.2305
0.3239	0.1907
0.2556	0.157
0.2024	0.1303
0.1598	0.1085
0.1259	0.09111
