Adsorption isotherm of Hydrogen on Aluminum formate
DOI: 10.1021/jacs.3c08037
Article source: Figure S3
Adsorbate Hydrogen: InChIKey UFHFLCQGNIYNRP-UHFFFAOYSA-N
Kind: experiment
Isotherm type: absolute
Temperature: 233 K
Tabular data in the source: 1
pressure (bar)	uptake (mmol/g)
0.09746	0.005895
0.1342	0.00804
0.1846	0.01109
0.2536	0.01525
0.3455	0.02071
0.4704	0.02822
0.6396	0.03829
0.8359	0.05008
1.11	0.06643
1.456	0.08656
1.928	0.1139
2.599	0.1524
3.585	0.2079
4.657	0.267
6.058	0.3422
7.954	0.4406
10.62	0.5734
14.51	0.7559
18.61	0.936
25.72	1.224
28.81	1.343
33.31	1.507
37.02	1.634
43.5	1.841
49.26	2.014
59.4	2.293
69.47	2.547
83.63	2.867
98.36	3.163
114.2	3.445
90.08	3.03
57.22	2.275
42.72	1.848
33.53	1.539
26.72	1.289
23.11	1.146
20.43	1.034
18.17	0.9363
14.97	0.7946
13.07	0.7045
10.75	0.5932
8.152	0.4627
6.073	0.3537
4.529	0.2693
3.609	0.2176
2.77	0.1695
2.122	0.1317
1.511	0.09556
1.127	0.07254
0.859	0.05628
0.6518	0.04355
0.4962	0.03394
0.3821	0.02668
0.2853	0.02062
0.2121	0.01587
0.1563	0.01226
0.1155	0.009556
