Adsorption isotherm of Hydrogen on Aluminum formate
DOI: 10.1021/jacs.3c08037
Article source: Figure 1
Adsorbate Hydrogen: InChIKey UFHFLCQGNIYNRP-UHFFFAOYSA-N
Kind: experiment
Isotherm type: excess
Temperature: 160 K
Tabular data in the source: 1
pressure (bar)	uptake (mmol/g)
0.07453	0.03897
0.1106	0.05698
0.1427	0.07287
0.1849	0.09364
0.2361	0.1186
0.3013	0.1496
0.3817	0.1872
0.4906	0.237
0.6163	0.2926
0.7867	0.3652
0.9858	0.4467
1.284	0.5616
1.696	0.7077
2.135	0.8515
2.846	1.061
3.702	1.284
4.799	1.531
6.246	1.81
8.254	2.131
11.16	2.502
14.21	2.808
19.36	3.2
25.6	3.539
30.63	3.747
34.23	3.867
40.19	4.025
45.58	4.14
54.98	4.285
64.17	4.386
77.06	4.478
91.01	4.532
108.8	4.558
116.4	4.569
98.71	4.609
60.05	4.437
44.12	4.186
34.51	3.938
29.68	3.768
24.33	3.534
21.22	3.364
18.83	3.212
16.79	3.064
13.98	2.829
11.44	2.572
8.782	2.242
6.661	1.916
5.064	1.618
3.878	1.357
2.999	1.133
2.341	0.9446
1.848	0.7872
1.387	0.6269
1.066	0.5053
0.8346	0.412
0.6486	0.3332
0.5105	0.2721
0.4065	0.2246
0.3239	0.1859
0.2556	0.1533
0.2024	0.1273
0.1598	0.1062
0.1259	0.08927
