Adsorption isotherm of Hydrogen on Aluminum formate
DOI: 10.1021/jacs.3c08037
Article source: Figure S3
Adsorbate Hydrogen: InChIKey UFHFLCQGNIYNRP-UHFFFAOYSA-N
Kind: experiment
Isotherm type: absolute
Temperature: 296 K
Tabular data in the source: 1
pressure (bar)	uptake (mmol/g)
0.1013	0.001891
0.1414	0.002376
0.196	0.003344
0.2718	0.004822
0.3662	0.006758
0.4968	0.009703
0.6754	0.01369
0.9015	0.01886
1.254	0.02689
1.669	0.03621
2.224	0.04873
3.029	0.06728
4.254	0.09551
5.601	0.1263
7.335	0.1656
9.757	0.2202
13.17	0.2969
18.41	0.4119
24.12	0.535
28.17	0.6213
33.9	0.7422
38.47	0.8355
45.84	0.9758
52.3	1.099
57.52	1.194
68.05	1.379
76.46	1.525
91	1.746
101.9	1.926
116.4	2.133
99.07	1.907
59.12	1.288
43.25	0.9953
36.55	0.8619
32.09	0.771
28.46	0.6954
25.29	0.6268
20.76	0.5313
18.1	0.4724
14.82	0.3982
12.92	0.3552
10.59	0.3019
7.977	0.2418
5.911	0.194
4.384	0.1582
3.274	0.1319
2.467	0.1125
1.782	0.09598
1.268	0.08349
0.9674	0.07602
0.7182	0.06986
0.5296	0.06502
0.3991	0.0617
0.2962	0.05901
0.2193	0.05691
0.1643	0.05538
0.1197	0.05406
