Adsorption isotherm of Hydrogen on Aluminum formate
DOI: 10.1021/jacs.3c08037
Article source: Figure 1
Adsorbate Hydrogen: InChIKey UFHFLCQGNIYNRP-UHFFFAOYSA-N
Kind: experiment
Isotherm type: excess
Temperature: 296 K
Tabular data in the source: 1
pressure (bar)	uptake (mmol/g)
0.1013	0.001087
0.1414	0.001255
0.196	0.001789
0.2718	0.002665
0.3662	0.003853
0.4968	0.005761
0.6754	0.008333
0.9015	0.01171
1.254	0.01695
1.669	0.02298
2.224	0.0311
3.029	0.04328
4.254	0.06183
5.601	0.08199
7.335	0.1077
9.757	0.1433
13.17	0.1932
18.41	0.2674
24.12	0.3463
28.17	0.4015
33.9	0.4786
38.47	0.5372
45.84	0.622
52.3	0.6967
57.52	0.7535
68.05	0.8606
76.46	0.9448
91	1.062
101.9	1.165
116.4	1.271
99.07	1.166
59.12	0.8348
43.25	0.6608
36.55	0.5781
32.09	0.5211
28.46	0.4734
25.29	0.4292
20.76	0.3686
18.1	0.3303
14.82	0.2817
12.92	0.2535
10.59	0.2184
7.977	0.1788
5.911	0.1472
4.384	0.1235
3.274	0.106
2.467	0.09294
1.782	0.08185
1.268	0.07344
0.9674	0.06835
0.7182	0.06416
0.5296	0.06082
0.3991	0.05854
0.2962	0.05666
0.2193	0.05516
0.1643	0.05407
0.1197	0.05311
