Adsorption isotherm of Hydrogen on Aluminum formate
DOI: 10.1021/jacs.3c08037
Article source: Figure S3
Adsorbate Hydrogen: InChIKey UFHFLCQGNIYNRP-UHFFFAOYSA-N
Kind: experiment
Isotherm type: absolute
Temperature: 120 K
Tabular data in the source: 1
pressure (bar)	uptake (mmol/g)
0.03571	0.1062
0.05693	0.194
0.07396	0.2665
0.08603	0.3254
0.09592	0.3743
0.1061	0.4199
0.1184	0.468
0.1321	0.5193
0.1479	0.5749
0.1672	0.638
0.1883	0.7079
0.2124	0.7847
0.2397	0.8656
0.2706	0.9596
0.3071	1.057
0.3472	1.167
0.3946	1.287
0.4497	1.416
0.5186	1.562
0.5952	1.713
0.688	1.882
0.8132	2.083
0.961	2.294
1.18	2.569
1.457	2.856
1.806	3.152
2.246	3.45
2.828	3.757
3.608	4.067
4.654	4.369
6.126	4.665
8.154	4.937
11.05	5.193
14.07	5.376
19.08	5.59
25.1	5.774
29.87	5.894
33.34	5.972
39.08	6.082
44.24	6.173
53.15	6.31
61.95	6.436
73.55	6.587
86.3	6.737
101.5	6.899
113.9	7.016
97.91	6.936
60.32	6.536
44.39	6.277
34.72	6.084
29.82	5.97
24.42	5.83
21.27	5.733
17.52	5.599
15.3	5.502
13.58	5.415
11.28	5.277
8.668	5.065
6.567	4.816
5.004	4.541
3.861	4.252
3.022	3.96
2.405	3.669
1.944	3.39
1.553	3.095
1.257	2.819
1.041	2.577
0.8607	2.347
0.7272	2.144
0.6177	1.96
0.5306	1.797
0.4606	1.655
0.4041	1.527
0.3539	1.409
0.3121	1.302
0.2775	1.205
0.2464	1.12
0.2208	1.039
0.1973	0.9646
0.177	0.8969
0.159	0.8353
0.1435	0.7776
0.1293	0.7238
