Adsorption isotherm of Hydrogen on Aluminum formate
DOI: 10.1021/jacs.3c08037
Article source: Figure 1
Adsorbate Hydrogen: InChIKey UFHFLCQGNIYNRP-UHFFFAOYSA-N
Kind: experiment
Isotherm type: excess
Temperature: 200 K
Tabular data in the source: 1
pressure (bar)	uptake (mmol/g)
0.09294	0.01137
0.1258	0.01527
0.1707	0.02057
0.2278	0.02724
0.3077	0.03669
0.416	0.04952
0.5546	0.06572
0.7231	0.08515
0.9545	0.1116
1.264	0.1461
1.656	0.189
2.219	0.2486
3.031	0.3314
3.911	0.4166
5.024	0.5189
6.531	0.6482
8.644	0.8148
11.7	1.03
14.84	1.226
20.13	1.511
26.58	1.805
31.65	2.002
35.27	2.13
41.48	2.32
47.04	2.471
56.75	2.69
66.34	2.87
79.84	3.073
94.4	3.24
112.5	3.39
119.1	3.442
100.2	3.337
64.36	2.907
48.17	2.561
37.84	2.267
30.15	2.001
26.06	1.835
23.05	1.7
18.99	1.502
16.58	1.372
14.71	1.263
11.35	1.05
8.504	0.8447
6.749	0.7054
5.138	0.5671
3.888	0.4513
2.956	0.3594
2.264	0.288
1.752	0.2333
1.336	0.1873
0.9847	0.1477
0.7556	0.1212
0.58	0.1007
0.444	0.08445
0.3371	0.07159
0.2579	0.06197
0.1931	0.05411
0.1443	0.04803
0.1082	0.0436
