Adsorption isotherm of Hydrogen on MOF-5-int
DOI: 10.1039/B922528e
Adsorbate Hydrogen: InChIKey UFHFLCQGNIYNRP-UHFFFAOYSA-N
Temperature: 77 K
Tabular data in the source: 0
pressure (bar)	uptake (wt%)
0.134746	0.961432
0.204662	1.13331
0.270208	1.25566
0.334298	1.35762
0.46539	1.51202
0.599396	1.62563
0.731945	1.70138
0.861581	1.75964
0.982477	1.80916
1.04948	1.82956
1.13251	1.85577
