Adsorption isotherm of Hydrogen on MOF-5-int
DOI: 10.1039/B922528e
Adsorbate Hydrogen: InChIKey UFHFLCQGNIYNRP-UHFFFAOYSA-N
Temperature: 77 K
Tabular data in the source: 0
pressure (bar)	uptake (wt%)
0.00802345	0.154485
0.0356985	0.466194
0.0648302	0.649723
0.147855	0.964345
0.201749	1.10126
0.338668	1.32558
0.475586	1.47706
0.666399	1.62563
0.992673	1.80334
1.06113	1.82373
