Adsorption isotherm of Hydrogen on MOF-5-int
DOI: 10.1039/B922528e
Adsorbate Hydrogen: InChIKey UFHFLCQGNIYNRP-UHFFFAOYSA-N
Temperature: 77 K
Tabular data in the source: 0
pressure (bar)	uptake (wt%)
0.0153064	0.338015
0.0327854	0.477847
0.0662868	0.664289
0.13329	0.920648
0.270208	1.22653
0.53385	1.53533
0.730488	1.67807
1.06696	1.8179
1.13105	1.84121
