Adsorption isotherm of Hydrogen on MOF-5-int
DOI: 10.1039/B922528e
Adsorbate Hydrogen: InChIKey UFHFLCQGNIYNRP-UHFFFAOYSA-N
Temperature: 77 K
Tabular data in the source: 0
pressure (bar)	uptake (wt%)
0.131833	0.973085
0.200292	1.14787
0.267295	1.27605
0.398388	1.45084
0.530937	1.5732
0.669312	1.6635
0.801861	1.73925
0.911105	1.77421
0.981021	1.78877
1.04657	1.81208
