Adsorption isotherm of Hydrogen on MOF-5-int
DOI: 10.1039/B922528e
Adsorbate Hydrogen: InChIKey UFHFLCQGNIYNRP-UHFFFAOYSA-N
Temperature: 77 K
Tabular data in the source: 0
pressure (bar)	uptake (wt%)
0.0153064	0.244793
0.0342419	0.407931
0.12892	0.777903
0.264382	1.04009
0.402757	1.20614
0.602309	1.34597
0.803318	1.45084
1.00578	1.5295
1.06405	1.55863
1.12814	1.57028
