Adsorption isotherm of Methane on MIL-100(Cr)
DOI: 10.1039/C2dt12102f
Adsorbate Methane: InChIKey VNWKTOKETHGBQD-UHFFFAOYSA-N
Temperature: 303 K
Tabular data in the source: 0
pressure (bar)	uptake (mmol/g)
1.25714	0.163481
2.05714	0.219415
3.14286	0.276428
4.11429	0.333009
4.62857	0.387863
6.05714	0.446172
7.54286	0.451787
8.68571	0.509016
9.54286	0.565166
10.5714	0.621963
11.7714	0.626498
13.3143	0.632329
14.8	0.690854
