Adsorption isotherm of Methane on MIL-100(Cr)
DOI: 10.1039/C2dt12102f
Adsorbate Methane: InChIKey VNWKTOKETHGBQD-UHFFFAOYSA-N
Temperature: 303 K
Tabular data in the source: 0
pressure (bar)	uptake (mmol/g)
1.77143	0.0596048
2.34286	0.0617644
3.14286	0.0647878
3.42857	0.0658676
4.34286	0.069323
5.82857	0.0749379
6.57143	0.130655
6.85714	0.0788252
7.88571	0.135623
8.34286	0.13735
9.31429	0.193932
9.88571	0.196091
10.8	0.199546
11.3714	0.201706
12.0571	0.151388
12.5714	0.153331
12.9714	0.154843
13.7714	0.157866
14.4	0.213152
