Adsorption isotherm of Methane on MIL-100(Cr)
DOI: 10.1039/C2dt12102f
Adsorbate Methane: InChIKey VNWKTOKETHGBQD-UHFFFAOYSA-N
Temperature: 303 K
Tabular data in the source: 0
pressure (bar)	uptake (mmol/g)
0.576132	0.0529101
0.806584	0.0529101
1.78601	0.0529101
2.30453	0.0529101
2.99588	0.0529101
3.39918	0.10582
4.14815	0.15873
4.49383	0.15873
5.35802	0.15873
5.99177	0.15873
6.5679	0.21164
6.97119	0.21164
7.77778	0.21164
8.41152	0.26455
8.93004	0.26455
9.50617	0.26455
10.1399	0.26455
10.5432	0.26455
11.3498	0.31746
11.9259	0.31746
12.6173	0.31746
13.0206	0.31746
13.8272	0.31746
14.4609	0.31746
14.9794	0.31746
