Adsorption isotherm of Carbon Dioxide on MIL-100(Cr)
DOI: 10.1039/C2dt12102f
Adsorbate Carbon Dioxide: InChIKey CURLTUGMZLYLDI-UHFFFAOYSA-N
Temperature: 303 K
Tabular data in the source: 0
pressure (bar)	uptake (mmol/g)
0.460905	1.37566
0.864198	1.64021
1.3251	2.06349
1.78601	2.38095
2.24691	2.6455
2.65021	2.85714
3.0535	3.06878
3.45679	3.28042
3.97531	3.49206
4.43621	3.65079
4.95473	3.91534
5.47325	4.07407
5.99177	4.2328
6.5679	4.44444
7.20165	4.60317
7.77778	4.81481
8.35391	4.97354
9.10288	5.18519
9.73663	5.39683
10.5432	5.55556
11.465	5.7672
12.2716	5.97884
13.0782	6.13757
13.7695	6.2963
14.3457	6.40212
14.9794	6.50794
