Adsorption isotherm of Carbon Dioxide on MIL-100(Cr)
DOI: 10.1039/C2dt12102f
Adsorbate Carbon Dioxide: InChIKey CURLTUGMZLYLDI-UHFFFAOYSA-N
Temperature: 303 K
Tabular data in the source: 0
pressure (bar)	uptake (mmol/g)
1.01471	2.62434
5.02941	4.74074
10.0147	6.09524
