Adsorption isotherm of Methane on MIL-100(Cr)
DOI: 10.1039/C2dt12102f
Adsorbate Methane: InChIKey VNWKTOKETHGBQD-UHFFFAOYSA-N
Temperature: 303 K
Tabular data in the source: 0
pressure (bar)	uptake (mmol/g)
0.514286	0.208593
1.02857	0.311923
1.65714	0.414823
2.45714	0.622342
3.08571	0.67261
3.6	0.723308
4.28571	0.773362
4.74286	0.876907
5.37143	0.927175
6.11429	0.977014
6.8	1.0797
7.6	1.18195
8.51429	1.23115
9.37143	1.28056
10.4571	1.38174
11.1429	1.43179
11.8857	1.53426
12.8	1.53083
13.6	1.58045
14.2857	1.6305
14.8571	1.62836
