Adsorption isotherm of Methane on MIL-100(Cr)
DOI: 10.1039/C2dt12102f
Adsorbate Methane: InChIKey VNWKTOKETHGBQD-UHFFFAOYSA-N
Temperature: 303 K
Tabular data in the source: 0
pressure (bar)	uptake (mmol/g)
0.986301	0.105194
5.04892	0.482979
10.0978	0.55954
