Adsorption isotherm of Methane on MIL-100(Cr)
DOI: 10.1039/C2dt12102f
Adsorbate Methane: InChIKey VNWKTOKETHGBQD-UHFFFAOYSA-N
Temperature: 303 K
Tabular data in the source: 0
pressure (bar)	uptake (mmol/g)
0.974729	0.614637
4.98195	1.10916
10	1.56364
