Adsorption isotherm of Methane on MIL-100(Cr)
DOI: 10.1039/C2dt12102f
Adsorbate Methane: InChIKey VNWKTOKETHGBQD-UHFFFAOYSA-N
Temperature: 303 K
Tabular data in the source: 0
pressure (bar)	uptake (mmol/g)
0.742857	0.155102
1.77143	0.151235
2.34286	0.201719
2.97143	0.251987
3.42857	0.250269
4.17143	0.300107
4.4	0.299248
5.31429	0.348443
5.88571	0.398926
6.57143	0.44898
6.91429	0.447691
7.77143	0.4971
8.4	0.494737
8.97143	0.54522
9.48571	0.543287
10.1714	0.59334
10.4571	0.592266
11.3714	0.588829
11.9429	0.691944
12.5143	0.637164
12.8571	0.635875
13.7714	0.68507
14.4571	0.682492
14.9714	0.680559
