Adsorption isotherm of Carbon Dioxide on MIL-100(Cr)
DOI: 10.1039/C2dt12102f
Adsorbate Carbon Dioxide: InChIKey CURLTUGMZLYLDI-UHFFFAOYSA-N
Temperature: 303 K
Tabular data in the source: 0
pressure (bar)	uptake (mmol/g)
0.571429	1.10311
1.42857	1.57358
1.94286	1.78217
2.57143	2.04296
3.14286	2.25134
3.6	2.35489
4.17143	2.56327
4.68571	2.71923
5.37143	2.87454
6.11429	3.02965
6.74286	3.18518
7.48571	3.34028
8.22857	3.49538
8.74286	3.59871
9.2	3.70226
9.65714	3.75317
10.4	3.90827
10.9714	3.95875
11.6	4.11429
12.1714	4.16477
12.9143	4.31987
13.6	4.42256
14.1714	4.47304
14.8571	4.52309
