Adsorption isotherm of Methane on MIL-100(Cr)
DOI: 10.1039/C2dt12102f
Adsorbate Methane: InChIKey VNWKTOKETHGBQD-UHFFFAOYSA-N
Temperature: 303 K
Tabular data in the source: 0
pressure (bar)	uptake (mmol/g)
0.971223	0.472727
5	0.727273
10	0.945455
