Adsorption isotherm of Methane on MIL-100(Cr)
DOI: 10.1039/C2dt12102f
Adsorbate Methane: InChIKey VNWKTOKETHGBQD-UHFFFAOYSA-N
Temperature: 303 K
Tabular data in the source: 0
pressure (bar)	uptake (mmol/g)
0.107914	0.109091
2.01439	0.472727
4.02878	0.727273
5.97122	1.01818
7.91367	1.30909
9.85612	1.6
