Adsorption isotherm of Methane on MIL-100(Cr)
DOI: 10.1039/C2dt12102f
Adsorbate Methane: InChIKey VNWKTOKETHGBQD-UHFFFAOYSA-N
Temperature: 303 K
Tabular data in the source: 0
pressure (bar)	uptake (mmol/g)
1.00978	0.105152
5.02544	0.611363
10.0744	0.901828
