Adsorption isotherm of Carbon Dioxide on MIL-100(Cr)
DOI: 10.1039/C2dt12102f
Adsorbate Carbon Dioxide: InChIKey CURLTUGMZLYLDI-UHFFFAOYSA-N
Temperature: 303 K
Tabular data in the source: 0
pressure (bar)	uptake (mmol/g)
1.20988	2.01058
1.84362	2.43386
2.36214	2.69841
2.99588	3.01587
3.68724	3.33333
4.20576	3.59788
4.95473	3.91534
5.87654	4.2328
6.5679	4.49735
7.02881	4.70899
7.72016	4.92063
8.41152	5.13228
8.93004	5.29101
9.44856	5.44974
10.1975	5.66138
10.5432	5.7672
11.3498	5.92593
11.9835	6.13757
12.5597	6.24339
13.0206	6.34921
13.7695	6.56085
14.5185	6.71958
14.9794	6.8254
