Adsorption isotherm of Methane on MIL-100(Cr)
DOI: 10.1039/C2dt12102f
Adsorbate Methane: InChIKey VNWKTOKETHGBQD-UHFFFAOYSA-N
Temperature: 303 K
Tabular data in the source: 0
pressure (bar)	uptake (mmol/g)
0.518519	0.15873
1.26749	0.21164
2.01646	0.37037
2.70782	0.42328
3.34156	0.47619
4.03292	0.582011
4.72428	0.634921
5.47325	0.687831
6.45267	0.740741
7.14403	0.793651
8.18107	0.899471
8.98765	0.952381
9.67901	0.952381
10.3704	1.00529
11.1193	1.00529
12.0988	1.0582
13.0782	1.16402
14.0576	1.16402
14.8642	1.16402
