Adsorption isotherm of Carbon Dioxide on MIL-100(Cr)
DOI: 10.1039/C2dt12102f
Adsorbate Carbon Dioxide: InChIKey CURLTUGMZLYLDI-UHFFFAOYSA-N
Temperature: 303 K
Tabular data in the source: 0
pressure (bar)	uptake (mmol/g)
0.514286	1.69507
1.54286	2.75715
1.88571	3.023
2.85714	3.66159
3.54286	4.08746
4.17143	4.51312
4.8	4.83296
5.88571	5.41907
6.45714	5.63287
6.85714	5.84602
7.6	6.11338
7.88571	6.22028
8.74286	6.59389
9.14286	6.70122
9.54286	6.91437
10.1143	7.07526
10.4571	7.18238
11.3143	7.45017
11.9429	7.71709
12.4571	7.82486
12.8571	7.9851
13.6	8.19955
14	8.35979
14.8571	8.52176
