Adsorption isotherm of Carbon Dioxide on MIL-100(Cr)
DOI: 10.1039/C2dt12102f
Adsorbate Carbon Dioxide: InChIKey CURLTUGMZLYLDI-UHFFFAOYSA-N
Temperature: 303 K
Tabular data in the source: 0
pressure (bar)	uptake (mmol/g)
0.514286	1.64216
0.8	1.9607
1.2	2.4384
1.65714	2.8105
2	3.12925
2.4	3.39531
2.62857	3.502
3.02857	3.82097
3.48571	4.08725
3.88571	4.3004
4.45714	4.56711
4.97143	4.8336
5.54286	5.10031
6.17143	5.36724
6.68571	5.63373
7.25714	5.84753
7.82857	6.06133
8.4	6.32804
9.02857	6.54206
9.65714	6.75607
10.6286	7.07721
11.4857	7.345
12.1714	7.50632
13.0857	7.77432
13.8286	8.04168
14.5714	8.15031
14.8571	8.31012
