Adsorption isotherm of Methane on Haynesville GU 1-2
DOI: 10.1016/j.jngse.2016.12.024
Article source: Figure 8
Adsorbate Methane: InChIKey VNWKTOKETHGBQD-UHFFFAOYSA-N
Kind: experiment
Temperature: 297 K
Tabular data in the source: 0
pressure (bar)	uptake (scf/ton)
0.068948	11.993
0.068948	27.275
0.068948	36.161
0.068948	38.369
0.068948	37.406
