Adsorption isotherm of Methane on Barnett 26-Ha
DOI: 10.1016/j.jngse.2016.12.024
Article source: Figure 8
Adsorbate Methane: InChIKey VNWKTOKETHGBQD-UHFFFAOYSA-N
Kind: experiment
Temperature: 297 K
Tabular data in the source: 0
pressure (bar)	uptake (scf/ton)
0.068948	4.017
0.068948	13.156
0.068948	20.662
0.068948	24.747
