Adsorption isotherm of Nitrogen on Barnett 26-Ha
DOI: 10.1016/j.jngse.2016.12.024
Article source: Figure 8
Adsorbate Nitrogen: InChIKey IJGRMHOSHXDMSA-UHFFFAOYSA-N
Kind: experiment
Temperature: 297 K
Tabular data in the source: 0
pressure (bar)	uptake (scf/ton)
0.068948	0.58
0.068948	1.222
0.068948	3.074
0.068948	3.148
0.068948	3.187
