Adsorption isotherm of Carbon Dioxide on Haynesville GU 1-2
DOI: 10.1016/j.jngse.2016.12.024
Article source: Figure 8
Adsorbate Carbon Dioxide: InChIKey CURLTUGMZLYLDI-UHFFFAOYSA-N
Kind: experiment
Temperature: 297 K
Tabular data in the source: 0
pressure (bar)	uptake (scf/ton)
0.068948	51.43
0.068948	100.19
0.068948	146.71
0.068948	176.42
0.068948	226.3
0.068948	291.33
0.068948	383.83
0.068948	462.88
