Adsorption isotherm of Nitrogen on Haynesville GU1-2
DOI: 10.1016/j.jngse.2016.12.024
Article source: Figure 14
Adsorbate Nitrogen: InChIKey IJGRMHOSHXDMSA-UHFFFAOYSA-N
Kind: experiment
Temperature: 297 K
Tabular data in the source: 0
pressure (bar)	uptake (scf/ton)
0.068948	0.004861
0.068948	0.012604
0.068948	0.013835
0.068948	0.0155
0.068948	0.016351
0.068948	0.017288
0.068948	0.018251
