Adsorption isotherm of Carbon Dioxide on Haynesville GU1-2
DOI: 10.1016/j.jngse.2016.12.024
Article source: Figure 14
Adsorbate Carbon Dioxide: InChIKey CURLTUGMZLYLDI-UHFFFAOYSA-N
Kind: experiment
Temperature: 297 K
Tabular data in the source: 0
pressure (bar)	uptake (scf/ton)
0.068948	0.00178
0.068948	0.08363
0.068948	0.14724
0.068948	0.20519
0.068948	0.24177
0.068948	0.2952
0.068948	0.37769
0.068948	0.4867
0.068948	0.5472
