Adsorption isotherm of Nitrogen on Haynesville GU 1-2
DOI: 10.1016/j.jngse.2016.12.024
Article source: Figure 8
Adsorbate Nitrogen: InChIKey IJGRMHOSHXDMSA-UHFFFAOYSA-N
Kind: experiment
Temperature: 297 K
Tabular data in the source: 0
pressure (bar)	uptake (scf/ton)
0.068948	5.039
0.068948	14.703
0.068948	16.299
0.068948	18.454
0.068948	19.218
