Adsorption isotherm of Methane on Haynesville GU1-2
DOI: 10.1016/j.jngse.2016.12.024
Article source: Figure 14
Adsorbate Methane: InChIKey VNWKTOKETHGBQD-UHFFFAOYSA-N
Kind: experiment
Temperature: 297 K
Tabular data in the source: 0
pressure (bar)	uptake (scf/ton)
0.068948	0.000198
0.068948	0.006855
0.068948	0.014006
0.068948	0.017893
0.068948	0.019085
0.068948	0.019474
0.068948	0.021812
