Adsorption isotherm of Carbon Dioxide on Barnett 26-Ha
DOI: 10.1016/j.jngse.2016.12.024
Article source: Figure 8
Adsorbate Carbon Dioxide: InChIKey CURLTUGMZLYLDI-UHFFFAOYSA-N
Kind: experiment
Temperature: 297 K
Tabular data in the source: 0
pressure (bar)	uptake (scf/ton)
0.068948	14.97
0.068948	36.95
0.068948	77.62
0.068948	128.5
0.068948	161.62
