Adsorption isotherm of Hydrogen on IRMOF-1
DOI: 10.1002/adfm.200500561
Adsorbate Hydrogen: InChIKey UFHFLCQGNIYNRP-UHFFFAOYSA-N
Temperature: 77 K
Tabular data in the source: 0
pressure (bar)	uptake (wt%)
0.310676	0.019531
2.12862	1.61819
3.82065	2.26167
5.82457	2.8857
10.3151	3.62699
17.9221	4.2517
28.966	4.46747
45.3008	4.71312
50.1287	4.61624
