Adsorption isotherm of Hydrogen on IRMOF-1
DOI: 10.1002/adfm.200500561
Adsorbate Hydrogen: InChIKey UFHFLCQGNIYNRP-UHFFFAOYSA-N
Temperature: 200 K
Tabular data in the source: 0
pressure (bar)	uptake (wt%)
0.310676	0.019531
3.73327	0.068681
6.99871	0.166545
14.4665	0.26492
27.9985	0.54922
55.0722	0.80593
61.9192	0.84575
