Adsorption isotherm of Hydrogen on CuBTC
DOI: 10.1002/adfm.200500561
Adsorbate Hydrogen: InChIKey UFHFLCQGNIYNRP-UHFFFAOYSA-N
Temperature: 77 K
Tabular data in the source: 0
pressure (bar)	uptake (wt%)
1.69355	2.18875
1.97581	2.30136
2.25806	2.5025
2.82258	2.63919
3.3871	2.77588
4.375	2.91247
7.33871	3.17739
12.7016	3.33712
22.2984	3.52002
32.7419	3.52567
43.4677	3.39443
50.3831	3.62624
