Adsorption isotherm of Hydrogen on IRMOF-1
DOI: 10.1002/adfm.200500561
Adsorbate Hydrogen: InChIKey UFHFLCQGNIYNRP-UHFFFAOYSA-N
Temperature: 87 K
Tabular data in the source: 0
pressure (bar)	uptake (wt%)
0.310676	0.019531
2.30003	1.11139
2.60646	1.26737
3.06914	1.40388
3.83976	1.64764
4.14831	1.7354
5.07549	1.94994
6.31273	2.2035
7.55119	2.41807
8.47958	2.59363
10.9598	2.91557
19.3435	3.5891
42.2077	4.07922
48.2746	4.17742
