Adsorption isotherm of Hydrogen on CuBTC
DOI: 10.1002/adfm.200500561
Adsorbate Hydrogen: InChIKey UFHFLCQGNIYNRP-UHFFFAOYSA-N
Temperature: 298 K
Tabular data in the source: 0
pressure (bar)	uptake (wt%)
0.141129	0.00801584
4.375	0.0311871
8.18548	0.0786006
18.629	0.132537
29.9194	0.202376
44.879	0.279418
58.7097	0.340624
65.9073	0.347018
