Adsorption isotherm of Hydrogen on CuBTC
DOI: 10.1002/adfm.200500561
Adsorbate Hydrogen: InChIKey UFHFLCQGNIYNRP-UHFFFAOYSA-N
Temperature: 87 K
Tabular data in the source: 0
pressure (bar)	uptake (wt%)
0.141129	0.00801584
1.41129	1.52885
1.97581	1.86675
2.82258	2.11605
2.96371	2.18041
3.95161	2.34919
5.3629	2.55812
6.20968	2.6706
7.47984	2.78299
10.1613	2.92724
19.4758	3.13435
42.621	3.24171
48.125	3.54628
