Adsorption isotherm of Hydrogen on CuBTC
DOI: 10.1002/adfm.200500561
Adsorbate Hydrogen: InChIKey UFHFLCQGNIYNRP-UHFFFAOYSA-N
Temperature: 200 K
Tabular data in the source: 0
pressure (bar)	uptake (wt%)
0.141129	0.00801584
2.25806	0.0638671
3.24597	0.11193
6.63306	0.191634
13.8306	0.383138
28.5081	0.637308
54.4758	0.937171
61.25	1
