Adsorption isotherm of Hydrogen on IRMOF-1-AI
DOI: 10.1021/Jp405857p
Adsorbate Hydrogen: InChIKey UFHFLCQGNIYNRP-UHFFFAOYSA-N
Temperature: 77 K
Tabular data in the source: 0
pressure (bar)	uptake (cm3(STP)/cm3)
0.210372	54.9963
0.495235	94.761
0.777783	121.416
1.05802	148.072
