Adsorption isotherm of Hydrogen on IRMOF-1-AHI
DOI: 10.1021/Jp405857p
Adsorbate Hydrogen: InChIKey UFHFLCQGNIYNRP-UHFFFAOYSA-N
Temperature: 77 K
Tabular data in the source: 0
pressure (bar)	uptake (cm3(STP)/cm3)
0.212688	61.114
0.495235	100.442
0.777783	130.593
1.06033	155.064
