Adsorption isotherm of Carbon Dioxide on IRMOF-1-EHI
DOI: 10.1021/Jp405857p
Adsorbate Carbon Dioxide: InChIKey CURLTUGMZLYLDI-UHFFFAOYSA-N
Temperature: 298 K
Tabular data in the source: 0
pressure (bar)	uptake (cm3(STP)/cm3)
0.212688	9.25137
0.495235	18.1657
0.777783	26.9051
1.05802	35.4699
