Adsorption isotherm of Carbon Dioxide on IRMOF-1
DOI: 10.1021/Jp405857p
Adsorbate Carbon Dioxide: InChIKey CURLTUGMZLYLDI-UHFFFAOYSA-N
Temperature: 298 K
Tabular data in the source: 0
pressure (bar)	uptake (cm3(STP)/cm3)
0.212688	1.648
0.495235	3.65809
0.775467	5.75557
1.05802	7.85305
