Adsorption isotherm of Carbon Dioxide on IRMOF-1-EI
DOI: 10.1021/Jp405857p
Adsorbate Carbon Dioxide: InChIKey CURLTUGMZLYLDI-UHFFFAOYSA-N
Temperature: 298 K
Tabular data in the source: 0
pressure (bar)	uptake (cm3(STP)/cm3)
0.212688	11.8732
0.495235	22.1858
0.777783	31.2749
1.05802	39.7522
