Adsorption isotherm of Hydrogen on IRMOF-1
DOI: 10.1021/Jp405857p
Adsorbate Hydrogen: InChIKey UFHFLCQGNIYNRP-UHFFFAOYSA-N
Temperature: 77 K
Tabular data in the source: 0
pressure (bar)	uptake (cm3(STP)/cm3)
0.0788494	18.7274
0.214012	32.2736
0.335192	41.4501
0.498319	53.2484
0.62649	61.5509
0.770974	70.2904
0.896815	78.156
1.01566	83.3997
1.06227	86.0215
