Adsorption isotherm of Carbon Dioxide on IRMOF-1
DOI: 10.1021/Jp405857p
Adsorbate Carbon Dioxide: InChIKey CURLTUGMZLYLDI-UHFFFAOYSA-N
Temperature: 298 K
Tabular data in the source: 0
pressure (bar)	uptake (cm3(STP)/cm3)
0.076519	15.6061
0.316549	39.2027
0.470354	55.8078
0.717375	78.5305
0.880502	96.0095
1.06227	116.11
