Adsorption isotherm of Carbon Dioxide on IRMOF-1-EI
DOI: 10.1021/Jp405857p
Adsorbate Carbon Dioxide: InChIKey CURLTUGMZLYLDI-UHFFFAOYSA-N
Temperature: 298 K
Tabular data in the source: 0
pressure (bar)	uptake (cm3(STP)/cm3)
0.0695278	30.4632
0.232655	65.4212
0.44239	106.497
0.614838	138.833
0.715045	158.934
0.819912	173.791
0.957405	206.127
1.05994	227.102
