Adsorption isotherm of Hydrogen on IRMOF-1-AI
DOI: 10.1021/Jp405857p
Adsorbate Hydrogen: InChIKey UFHFLCQGNIYNRP-UHFFFAOYSA-N
Temperature: 77 K
Tabular data in the source: 0
pressure (bar)	uptake (cm3(STP)/cm3)
0.0695278	34.8955
0.179056	55.4333
0.26062	68.5425
0.451711	90.8283
0.56357	101.753
0.719706	115.736
0.784957	123.601
0.917789	130.593
1.0646	140.643
