Adsorption isotherm of Hydrogen on IRMOF-1-AH
DOI: 10.1021/Jp405857p
Adsorbate Hydrogen: InChIKey UFHFLCQGNIYNRP-UHFFFAOYSA-N
Temperature: 77 K
Tabular data in the source: 0
pressure (bar)	uptake (cm3(STP)/cm3)
0.210372	36.6434
0.497551	67.2316
0.777783	91.2652
1.05802	116.173
