Adsorption isotherm of Hydrogen on IRMOF-1-AHI
DOI: 10.1021/Jp405857p
Adsorbate Hydrogen: InChIKey UFHFLCQGNIYNRP-UHFFFAOYSA-N
Temperature: 77 K
Tabular data in the source: 0
pressure (bar)	uptake (cm3(STP)/cm3)
0.0811798	46.6938
0.151091	61.5509
0.218673	75.9711
0.363157	96.5089
0.458702	108.744
0.544927	116.61
0.766313	138.459
0.843216	143.702
1.00401	153.753
1.06227	157.248
