Adsorption isotherm of Hydrogen on IRMOF-1-AH
DOI: 10.1021/Jp405857p
Adsorbate Hydrogen: InChIKey UFHFLCQGNIYNRP-UHFFFAOYSA-N
Temperature: 77 K
Tabular data in the source: 0
pressure (bar)	uptake (cm3(STP)/cm3)
0.076519	29.2148
0.179056	45.3829
0.227994	54.1224
0.395782	68.9795
0.561239	83.8367
0.710384	96.5089
0.770974	102.19
0.896815	109.181
1.02499	115.736
1.05994	118.358
