Adsorption isotherm of Hydrogen on IRMOF-1
DOI: 10.1021/Jp405857p
Adsorbate Hydrogen: InChIKey UFHFLCQGNIYNRP-UHFFFAOYSA-N
Temperature: 77 K
Tabular data in the source: 0
pressure (bar)	uptake (cm3(STP)/cm3)
0.212688	22.6602
0.497551	46.2568
0.777783	63.7358
1.05802	81.6518
