Adsorption isotherm of Carbon Dioxide on IRMOF-1-EHI
DOI: 10.1021/Jp405857p
Adsorbate Carbon Dioxide: InChIKey CURLTUGMZLYLDI-UHFFFAOYSA-N
Temperature: 298 K
Tabular data in the source: 0
pressure (bar)	uptake (cm3(STP)/cm3)
0.0741886	51.438
0.193038	94.2616
0.300236	126.598
0.393452	157.186
0.495989	188.648
0.596195	222.732
0.754662	266.43
0.859529	297.892
0.978379	335.472
1.05994	360.816
