Adsorption isotherm of Water on Activated carbon: Sorbonorit 4
DOI: 10.1177/0263617415623423
Article source: Figure 1
Adsorbate Water: InChIKey XLYOFNOQVPJJNP-UHFFFAOYSA-N
Kind: experiment
Temperature: 293 K
Tabular data in the source: 0
pressure (bar)	uptake (mmol/g)
0	0
0.00235	0.452
0.00471	1.03
0.00688	1.87
0.00833	2.71
0.0096	4
0.0107	5.81
0.0118	7.42
0.013	9.68
0.0141	12.7
0.0152	15.2
0.0165	17
0.0176	18.1
0.0187	18.8
0.0199	19.6
0.0212	19.9
0.0225	20.4
