Adsorption isotherm of Toluene on Activated carbon: BPL
DOI: 10.1177/0263617415623423
Article source: Figure 5
Adsorbate Toluene: InChIKey YXFVVABEGXRONW-UHFFFAOYSA-N
Kind: experiment
Temperature: 293 K
Tabular data in the source: 0
pressure (bar)	uptake (mmol/g)
0	0
0.000417	3.17
0.000954	3.4
0.00155	3.53
0.00209	3.64
0.00292	3.72
0.00382	3.81
0.00489	3.87
0.00584	3.92
0.00728	3.95
0.00877	4
0.0117	4.06
0.0175	4.14
0.0233	4.22
0.0292	4.28
