Adsorption isotherm of Water, Toluene on Activated carbon: Sorbonorit 4
DOI: 10.1177/0263617415623423
Article source: Figure 11
Adsorbate Water: InChIKey XLYOFNOQVPJJNP-UHFFFAOYSA-N
Adsorbate Toluene: InChIKey YXFVVABEGXRONW-UHFFFAOYSA-N
Kind: experiment
Temperature: 313 K
Tabular data in the source: 0
pressure (bar)	Water fraction	Water uptake (mmol/g)	Toluene fraction	Toluene uptake (mmol/g)	total uptake (mmol/g)
0.0001	0.5	1.66	0.5	2.37	
0.000259	0.5	1.55	0.5	2.62	
0.000535	0.5	1.45	0.5	2.92	
0.000907	0.5	1.38	0.5	3.19	
0.00128	0.5	1.28	0.5	3.43	
0.00171	0.5	1.16	0.5	3.57	
0.00211	0.5	0.957	0.5	3.65	
