Adsorption isotherm of Water on Activated carbon: Sorbonorit 4
DOI: 10.1177/0263617415623423
Article source: Figure 1
Adsorbate Water: InChIKey XLYOFNOQVPJJNP-UHFFFAOYSA-N
Kind: experiment
Temperature: 313 K
Tabular data in the source: 0
pressure (bar)	uptake (mmol/g)
0	0
0.0148	0.903
0.0223	1.61
0.0257	2.39
0.0295	3.68
0.0333	5.55
0.0368	7.23
0.0406	9.55
0.0444	12.8
0.0482	15.4
0.0516	16.9
0.0554	17.9
0.0589	18.7
0.0628	19.2
0.0663	19.7
0.0701	20.1
