Adsorption isotherm of Toluene on Activated carbon: Sorbonorit 4
DOI: 10.1177/0263617415623423
Article source: Figure 5
Adsorbate Toluene: InChIKey YXFVVABEGXRONW-UHFFFAOYSA-N
Kind: experiment
Temperature: 293 K
Tabular data in the source: 0
pressure (bar)	uptake (mmol/g)
0	0
0.000477	3.7
0.000895	4.06
0.00155	4.2
0.00209	4.31
0.00292	4.47
0.00382	4.61
0.00489	4.65
0.00579	4.71
0.0074	4.75
0.00871	4.81
0.0117	4.9
0.0175	5.02
0.0233	5.13
0.0292	5.16
