Adsorption isotherm of Water, Toluene on Activated carbon: Sorbonorit 4
DOI: 10.1177/0263617415623423
Article source: Figure 11
Adsorbate Water: InChIKey XLYOFNOQVPJJNP-UHFFFAOYSA-N
Adsorbate Toluene: InChIKey YXFVVABEGXRONW-UHFFFAOYSA-N
Kind: experiment
Temperature: 313 K
Tabular data in the source: 0
pressure (bar)	Water fraction	Water uptake (mmol/g)	Toluene fraction	Toluene uptake (mmol/g)	total uptake (mmol/g)
0.000254	0.25	1.39	0.75	2.77	
0.00054	0.25	1.01	0.75	3.04	
0.000907	0.25	0.671	0.75	3.37	
0.00128	0.25	0.522	0.75	3.52	
0.00171	0.25	0.41	0.75	3.63	
