Adsorption isotherm of 1-Butanol on Activated carbon: Sorbonorit 4
DOI: 10.1177/0263617415623423
Article source: Figure 6
Adsorbate 1-Butanol: InChIKey LRHPLDYGYMQRHN-UHFFFAOYSA-N
Kind: experiment
Temperature: 293 K
Tabular data in the source: 0
pressure (bar)	uptake (mmol/g)
0	0
9.7e-05	3.93
0.000207	4.29
0.000373	4.67
0.000484	4.82
0.000664	5
0.000871	5.1
0.00111	5.18
0.00131	5.25
0.00165	5.33
0.00196	5.41
0.00263	5.52
0.00395	5.69
0.00524	5.87
0.00657	6.06
