Adsorption isotherm of Water, Toluene on Activated carbon: Sorbonorit 4
DOI: 10.1177/0263617415623423
Article source: Figure 11
Adsorbate Water: InChIKey XLYOFNOQVPJJNP-UHFFFAOYSA-N
Adsorbate Toluene: InChIKey YXFVVABEGXRONW-UHFFFAOYSA-N
Kind: experiment
Temperature: 313 K
Tabular data in the source: 0
pressure (bar)	Water fraction	Water uptake (mmol/g)	Toluene fraction	Toluene uptake (mmol/g)	total uptake (mmol/g)
0.000258	0.75	4.93	0.25	2.48	
0.000538	0.75	3.07	0.25	2.84	
0.00091	0.75	2.31	0.25	3.14	
0.00129	0.75	1.75	0.25	3.24	
0.00171	0.75	1.49	0.25	3.34	
