Adsorption isotherm of Toluene on Activated carbon: Sorbonorit 4
DOI: 10.1177/0263617415623423
Article source: Figure 5
Adsorbate Toluene: InChIKey YXFVVABEGXRONW-UHFFFAOYSA-N
Kind: experiment
Temperature: 313 K
Tabular data in the source: 0
pressure (bar)	uptake (mmol/g)
0	0
0.000477	2.97
0.000954	3.28
0.00155	3.6
0.00209	3.74
0.00292	3.9
0.00388	4.02
0.00489	4.11
0.00579	4.18
0.00734	4.25
0.00883	4.32
0.0117	4.44
0.0175	4.55
0.0234	4.62
0.0292	4.67
