Adsorption isotherm of 1-Butanol, Water on Activated carbon: Sorbonorit 4
DOI: 10.1177/0263617415623423
Article source: Figure 13
Adsorbate 1-Butanol: InChIKey LRHPLDYGYMQRHN-UHFFFAOYSA-N
Adsorbate Water: InChIKey XLYOFNOQVPJJNP-UHFFFAOYSA-N
Kind: experiment
Temperature: 313 K
Tabular data in the source: 0
pressure (bar)	1-Butanol fraction	1-Butanol uptake (mmol/g)	Water fraction	Water uptake (mmol/g)	total uptake (mmol/g)
0.000237	0.1	2.23	0.9	11.1	
0.000532	0.1	2.99	0.9	7.89	
0.000919	0.1	3.48	0.9	6.07	
0.00134	0.1	3.66	0.9	5.54	
0.00175	0.1	3.91	0.9	5.53	
