Adsorption isotherm of 1-Butanol, Water on Activated carbon: Sorbonorit 4
DOI: 10.1177/0263617415623423
Article source: Figure 12
Adsorbate 1-Butanol: InChIKey LRHPLDYGYMQRHN-UHFFFAOYSA-N
Adsorbate Water: InChIKey XLYOFNOQVPJJNP-UHFFFAOYSA-N
Kind: experiment
Temperature: 293 K
Tabular data in the source: 0
pressure (bar)	1-Butanol fraction	1-Butanol uptake (mmol/g)	Water fraction	Water uptake (mmol/g)	total uptake (mmol/g)
4.5e-05	0.1	1.48	0.9	16.5	
0.000116	0.1	2.68	0.9	14	
0.000231	0.1	3.39	0.9	12.1	
0.000533	0.1	4.06	0.9	8.83	
0.000921	0.1	4.24	0.9	7.31	
0.00134	0.1	4.38	0.9	6.75	
0.00175	0.1	4.49	0.9	6.5	
