Adsorption isotherm of 1-Butanol, Water on Activated carbon: BPL
DOI: 10.1177/0263617415623423
Article source: Figure 12
Adsorbate 1-Butanol: InChIKey LRHPLDYGYMQRHN-UHFFFAOYSA-N
Adsorbate Water: InChIKey XLYOFNOQVPJJNP-UHFFFAOYSA-N
Kind: experiment
Temperature: 293 K
Tabular data in the source: 0
pressure (bar)	1-Butanol fraction	1-Butanol uptake (mmol/g)	Water fraction	Water uptake (mmol/g)	total uptake (mmol/g)
4.5e-05	0.1	1.34	0.9	12.8	
0.000116	0.1	2.51	0.9	8.65	
0.000235	0.1	3.21	0.9	6.82	
0.000533	0.1	3.46	0.9	5.26	
0.000921	0.1	3.6	0.9	4.8	
0.00134	0.1	3.64	0.9	4.45	
0.00175	0.1	3.74	0.9	4.31	
