Adsorption isotherm of Water, Toluene on Activated carbon: Sorbonorit 4
DOI: 10.1177/0263617415623423
Article source: Figure 10
Adsorbate Water: InChIKey XLYOFNOQVPJJNP-UHFFFAOYSA-N
Adsorbate Toluene: InChIKey YXFVVABEGXRONW-UHFFFAOYSA-N
Kind: experiment
Temperature: 293 K
Tabular data in the source: 0
pressure (bar)	Water fraction	Water uptake (mmol/g)	Toluene fraction	Toluene uptake (mmol/g)	total uptake (mmol/g)
9.4e-05	0.9	14	0.1	1.46	
0.000251	0.9	9.93	0.1	2.42	
0.000546	0.9	8.38	0.1	2.97	
0.000909	0.9	7.8	0.1	3.26	
0.00128	0.9	7.6	0.1	3.43	
0.0017	0.9	7.33	0.1	3.58	
