Adsorption isotherm of 1-Butanol, Water on Activated carbon: Sorbonorit 4
DOI: 10.1177/0263617415623423
Article source: Figure 13
Adsorbate 1-Butanol: InChIKey LRHPLDYGYMQRHN-UHFFFAOYSA-N
Adsorbate Water: InChIKey XLYOFNOQVPJJNP-UHFFFAOYSA-N
Kind: experiment
Temperature: 313 K
Tabular data in the source: 0
pressure (bar)	1-Butanol fraction	1-Butanol uptake (mmol/g)	Water fraction	Water uptake (mmol/g)	total uptake (mmol/g)
0.000238	0.5	3.19	0.5	1.17	
0.000535	0.5	3.76	0.5	0.667	
0.000922	0.5	4.11	0.5	0.369	
0.00134	0.5	4.45	0.5	0.204	
0.00176	0.5	4.61	0.5	0.134	
