Adsorption isotherm of 1-Butanol, Water on Activated carbon: Sorbonorit 4
DOI: 10.1177/0263617415623423
Article source: Figure 12
Adsorbate 1-Butanol: InChIKey LRHPLDYGYMQRHN-UHFFFAOYSA-N
Adsorbate Water: InChIKey XLYOFNOQVPJJNP-UHFFFAOYSA-N
Kind: experiment
Temperature: 293 K
Tabular data in the source: 0
pressure (bar)	1-Butanol fraction	1-Butanol uptake (mmol/g)	Water fraction	Water uptake (mmol/g)	total uptake (mmol/g)
4.1e-05	0.5	2.93	0.5	4.98	
0.000123	0.5	3.64	0.5	3.99	
0.000246	0.5	4.17	0.5	3.64	
0.000537	0.5	4.52	0.5	3.11	
0.000921	0.5	4.7	0.5	3	
0.00134	0.5	4.8	0.5	2.93	
0.00175	0.5	4.87	0.5	2.9	
