Adsorption isotherm of 1-Butanol, Water on Activated carbon: BPL
DOI: 10.1177/0263617415623423
Article source: Figure 12
Adsorbate 1-Butanol: InChIKey LRHPLDYGYMQRHN-UHFFFAOYSA-N
Adsorbate Water: InChIKey XLYOFNOQVPJJNP-UHFFFAOYSA-N
Kind: experiment
Temperature: 293 K
Tabular data in the source: 0
pressure (bar)	1-Butanol fraction	1-Butanol uptake (mmol/g)	Water fraction	Water uptake (mmol/g)	total uptake (mmol/g)
4.1e-05	0.5	2.4	0.5	4.2	
0.000123	0.5	3.14	0.5	3.46	
0.000246	0.5	3.43	0.5	2.97	
0.000537	0.5	3.64	0.5	2.47	
0.000921	0.5	3.74	0.5	2.26	
0.00134	0.5	3.81	0.5	2.15	
0.00175	0.5	3.89	0.5	2.08	
