Adsorption isotherm of Water, Toluene on Activated carbon: BPL
DOI: 10.1177/0263617415623423
Article source: Figure 10
Adsorbate Water: InChIKey XLYOFNOQVPJJNP-UHFFFAOYSA-N
Adsorbate Toluene: InChIKey YXFVVABEGXRONW-UHFFFAOYSA-N
Kind: experiment
Temperature: 293 K
Tabular data in the source: 0
pressure (bar)	Water fraction	Water uptake (mmol/g)	Toluene fraction	Toluene uptake (mmol/g)	total uptake (mmol/g)
9e-05	0.9	12.3	0.1	1.17	
0.000254	0.9	7.95	0.1	1.92	
0.000546	0.9	6.17	0.1	2.27	
0.000909	0.9	5.18	0.1	2.59	
0.00128	0.9	5.01	0.1	2.62	
0.00171	0.9	4.75	0.1	2.62	
