Adsorption isotherm of Water, Toluene on Activated carbon: Sorbonorit 4
DOI: 10.1177/0263617415623423
Article source: Figure 11
Adsorbate Water: InChIKey XLYOFNOQVPJJNP-UHFFFAOYSA-N
Adsorbate Toluene: InChIKey YXFVVABEGXRONW-UHFFFAOYSA-N
Kind: experiment
Temperature: 313 K
Tabular data in the source: 0
pressure (bar)	Water fraction	Water uptake (mmol/g)	Toluene fraction	Toluene uptake (mmol/g)	total uptake (mmol/g)
0.000104	0.9	13.7	0.1	1.39	
0.000258	0.9	9.32	0.1	1.82	
0.000538	0.9	6.15	0.1	2.55	
0.00091	0.9	4.63	0.1	2.88	
0.00129	0.9	3.31	0.1	3.17	
0.00171	0.9	2.58	0.1	3.27	
0.00212	0.9	2.02	0.1	3.4	
