Adsorption isotherm of Water on Activated carbon: BPL
DOI: 10.1177/0263617415623423
Article source: Figure 1
Adsorbate Water: InChIKey XLYOFNOQVPJJNP-UHFFFAOYSA-N
Kind: experiment
Temperature: 293 K
Tabular data in the source: 0
pressure (bar)	uptake (mmol/g)
0	0
0.00235	0.387
0.00344	0.516
0.00471	0.71
0.00579	1.03
0.00706	1.61
0.00815	2.13
0.00924	2.65
0.0105	3.42
0.0118	5.03
0.0129	7.68
0.0141	11.2
0.0152	14.8
0.0165	17.5
0.0177	19.6
0.0188	20.9
0.0199	21.8
0.021	22.8
0.0223	23.9
