Adsorption isotherm of 1-Butanol on Activated carbon: Sorbonorit 4
DOI: 10.1177/0263617415623423
Article source: Figure 6
Adsorbate 1-Butanol: InChIKey LRHPLDYGYMQRHN-UHFFFAOYSA-N
Kind: experiment
Temperature: 313 K
Tabular data in the source: 0
pressure (bar)	uptake (mmol/g)
0	0
0.000111	2.54
0.000207	2.95
0.000346	3.39
0.000484	3.63
0.000664	3.95
0.000857	4.12
0.00109	4.29
0.0013	4.4
0.00166	4.53
0.00195	4.6
0.00263	4.71
0.00394	4.88
0.00527	5.07
0.00657	5.24
