Adsorption isotherm of Water, Toluene on Activated carbon: Sorbonorit 4
DOI: 10.1177/0263617415623423
Article source: Figure 10
Adsorbate Water: InChIKey XLYOFNOQVPJJNP-UHFFFAOYSA-N
Adsorbate Toluene: InChIKey YXFVVABEGXRONW-UHFFFAOYSA-N
Kind: experiment
Temperature: 293 K
Tabular data in the source: 0
pressure (bar)	Water fraction	Water uptake (mmol/g)	Toluene fraction	Toluene uptake (mmol/g)	total uptake (mmol/g)
9e-05	0.5	4.6	0.5	2.42	
0.000254	0.5	4.16	0.5	2.94	
0.000543	0.5	3.61	0.5	3.38	
0.000909	0.5	3.03	0.5	3.75	
0.00127	0.5	2.68	0.5	3.99	
0.00171	0.5	2.42	0.5	4.16	
