Adsorption isotherm of 1-Butanol on Activated carbon: BPL
DOI: 10.1177/0263617415623423
Article source: Figure 6
Adsorbate 1-Butanol: InChIKey LRHPLDYGYMQRHN-UHFFFAOYSA-N
Kind: experiment
Temperature: 293 K
Tabular data in the source: 0
pressure (bar)	uptake (mmol/g)
0	0
9.7e-05	3.42
0.000207	3.75
0.000359	3.95
0.000484	4.08
0.000664	4.18
0.000871	4.26
0.00111	4.3
0.00131	4.35
0.00165	4.4
0.00198	4.44
0.00263	4.53
0.00395	4.66
0.00527	4.8
0.00657	4.94
