Adsorption isotherm of Water, Toluene on Activated carbon: BPL
DOI: 10.1177/0263617415623423
Article source: Figure 10
Adsorbate Water: InChIKey XLYOFNOQVPJJNP-UHFFFAOYSA-N
Adsorbate Toluene: InChIKey YXFVVABEGXRONW-UHFFFAOYSA-N
Kind: experiment
Temperature: 293 K
Tabular data in the source: 0
pressure (bar)	Water fraction	Water uptake (mmol/g)	Toluene fraction	Toluene uptake (mmol/g)	total uptake (mmol/g)
9.4e-05	0.5	4.54	0.5	2.07	
0.000254	0.5	4.17	0.5	2.24	
0.000546	0.5	3.99	0.5	2.36	
0.000909	0.5	3.76	0.5	2.45	
0.00127	0.5	3.58	0.5	2.56	
0.00171	0.5	3.47	0.5	2.77	
