Adsorption isotherm of Hydrogen on Carbon
DOI: 10.1039/C1nr10944h
Adsorbate Hydrogen: InChIKey UFHFLCQGNIYNRP-UHFFFAOYSA-N
Temperature: 77 K
Tabular data in the source: 0
pressure (bar)	uptake (wt%)
0.00528529	0.0240964
0.0218231	0.125301
0.047113	0.19759
0.100705	0.26988
0.263242	0.361446
0.458229	0.428916
0.605479	0.472289
0.766765	0.510843
0.885485	0.544578
0.985224	0.573494
