Adsorption isotherm of Carbon Dioxide on Carbon
DOI: 10.1039/C1nr10944h
Adsorbate Carbon Dioxide: InChIKey CURLTUGMZLYLDI-UHFFFAOYSA-N
Temperature: 298 K
Tabular data in the source: 0
pressure (bar)	uptake (mmol/g)
0.0385022	0.125602
0.0971945	0.439019
0.150605	0.674228
0.314356	1.22366
0.452753	1.5227
0.623313	1.72849
0.831083	1.88799
0.986853	1.99979
