Adsorption isotherm of Hydrogen on Carbon
DOI: 10.1039/C1nr10944h
Adsorbate Hydrogen: InChIKey UFHFLCQGNIYNRP-UHFFFAOYSA-N
Temperature: 77 K
Tabular data in the source: 0
pressure (bar)	uptake (wt%)
0.00528529	0.0240964
0.0204024	0.26506
0.0850193	0.404819
0.255001	0.612048
0.465163	0.722892
0.673846	0.771084
0.858377	0.795181
0.967436	0.819277
