Adsorption isotherm of Hydrogen on Carbon
DOI: 10.1039/C1nr10944h
Adsorbate Hydrogen: InChIKey UFHFLCQGNIYNRP-UHFFFAOYSA-N
Temperature: 77 K
Tabular data in the source: 0
pressure (bar)	uptake (wt%)
0.00528529	0.0240964
0.0230734	0.178313
0.0785974	0.33253
0.208684	0.448193
0.394919	0.544578
0.661003	0.626506
0.860139	0.66988
0.969198	0.693976
