Adsorption isotherm of Carbon Dioxide on Carbon
DOI: 10.1039/C1nr10944h
Adsorbate Carbon Dioxide: InChIKey CURLTUGMZLYLDI-UHFFFAOYSA-N
Temperature: 298 K
Tabular data in the source: 0
pressure (bar)	uptake (mmol/g)
0.0340416	0.156782
0.101655	0.407838
0.235121	0.675549
0.382087	0.865345
0.533631	1.03959
0.741636	1.23034
0.845287	1.27883
0.963024	1.32755
