Adsorption isotherm of Nitrogen on Carbon
DOI: 10.1039/C1nr10944h
Adsorbate Nitrogen: InChIKey IJGRMHOSHXDMSA-UHFFFAOYSA-N
Temperature: 77 K
Tabular data in the source: 0
pressure (bar)	uptake (cm3(STP)/g)
0.000416516	3.44875
0.00677533	16.0997
0.118874	24.2746
0.27901	30.2058
0.439008	34.9874
0.60853	38.6305
0.74437	43.3843
0.865715	48.1215
0.977258	51.698
