Adsorption isotherm of Hydrogen on Carbon
DOI: 10.1039/C1nr10944h
Adsorbate Hydrogen: InChIKey UFHFLCQGNIYNRP-UHFFFAOYSA-N
Temperature: 77 K
Tabular data in the source: 0
pressure (bar)	uptake (wt%)
0.000505749	0.0250042
0.03402	0.24195
0.108702	0.334239
0.187734	0.401564
0.339256	0.452827
0.466503	0.503888
0.637108	0.538643
0.841701	0.573681
0.982838	0.591524
