Adsorption isotherm of Hydrogen on Carbon
DOI: 10.1039/C1nr10944h
Adsorbate Hydrogen: InChIKey UFHFLCQGNIYNRP-UHFFFAOYSA-N
Temperature: 77 K
Tabular data in the source: 0
pressure (bar)	uptake (wt%)
0.000505749	0.0250042
0.0137564	0.200115
0.0402239	0.308669
0.130315	0.442753
0.400047	0.578334
0.512391	0.612603
0.658721	0.647156
0.800196	0.681668
0.970801	0.716423
