Adsorption isotherm of Nitrogen on Carbon
DOI: 10.1039/C1nr10944h
Adsorbate Nitrogen: InChIKey IJGRMHOSHXDMSA-UHFFFAOYSA-N
Temperature: 77 K
Tabular data in the source: 0
pressure (bar)	uptake (cm3(STP)/g)
0.000416516	3.44875
0.0236859	116.119
0.150557	126.61
0.261961	129.037
0.460473	132.713
0.605559	134.029
0.813734	137.717
0.891872	144.703
0.960348	151.679
