Adsorption isotherm of Carbon Dioxide on Carbon
DOI: 10.1039/C1nr10944h
Adsorbate Carbon Dioxide: InChIKey CURLTUGMZLYLDI-UHFFFAOYSA-N
Temperature: 298 K
Tabular data in the source: 0
pressure (bar)	uptake (mmol/g)
0.0250029	0.203516
0.0694917	0.501086
0.148726	1.0492
0.2316	1.45674
0.356497	1.8337
0.532692	2.16457
0.726846	2.38636
0.990961	2.54673
