Adsorption isotherm of Nitrogen on Carbon
DOI: 10.1039/C1nr10944h
Adsorbate Nitrogen: InChIKey IJGRMHOSHXDMSA-UHFFFAOYSA-N
Temperature: 77 K
Tabular data in the source: 0
pressure (bar)	uptake (cm3(STP)/g)
0.000416516	3.44875
0.0238247	117.269
0.0329603	152.911
0.111238	161.047
0.300225	165.862
0.57121	169.622
0.823008	174.509
0.924749	176.925
1.00317	186.211
