Adsorption isotherm of Nitrogen on Carbon
DOI: 10.1039/C1nr10944h
Adsorbate Nitrogen: InChIKey IJGRMHOSHXDMSA-UHFFFAOYSA-N
Temperature: 77 K
Tabular data in the source: 0
pressure (bar)	uptake (cm3(STP)/g)
0.000416516	3.44875
0.0276289	28.7674
0.11668	46.1111
0.238581	55.4466
0.447033	61.4334
0.611862	66.2205
0.723128	67.4978
0.859106	73.4013
0.985283	78.144
