Adsorption isotherm of Carbon Dioxide on Carbon
DOI: 10.1039/C1nr10944h
Adsorbate Carbon Dioxide: InChIKey CURLTUGMZLYLDI-UHFFFAOYSA-N
Temperature: 298 K
Tabular data in the source: 0
pressure (bar)	uptake (mmol/g)
0.0144383	0.0471006
0.142857	0.267857
0.299683	0.520308
0.399108	0.631236
0.560042	0.805626
0.649842	0.885154
0.800798	0.981262
0.965724	1.06196
