Adsorption isotherm of Hydrogen on Carbon
DOI: 10.1039/C1nr10944h
Adsorbate Hydrogen: InChIKey UFHFLCQGNIYNRP-UHFFFAOYSA-N
Temperature: 77 K
Tabular data in the source: 0
pressure (bar)	uptake (wt%)
0.000505749	0.0250042
0.0169594	0.358475
0.0357396	0.566964
0.102903	0.767524
0.208234	0.935069
0.341684	1.05285
0.538589	1.18782
0.72494	1.28104
0.999022	1.39166
