Adsorption isotherm of Hydrogen on Carbon
DOI: 10.1039/C1nr10944h
Adsorbate Hydrogen: InChIKey UFHFLCQGNIYNRP-UHFFFAOYSA-N
Temperature: 77 K
Tabular data in the source: 0
pressure (bar)	uptake (wt%)
0.000505749	0.0250042
0.0832462	0.275694
0.138845	0.38449
0.258067	0.518817
0.357699	0.644647
0.466536	0.745554
0.629623	0.88858
0.777471	0.998146
0.993965	1.14162
