Adsorption isotherm of Carbon Dioxide, Methane on Activated carbon: BPL
DOI: 10.1021/je00031a005
Article source: Table I
Adsorbate Carbon Dioxide: InChIKey CURLTUGMZLYLDI-UHFFFAOYSA-N
Adsorbate Methane: InChIKey VNWKTOKETHGBQD-UHFFFAOYSA-N
Kind: experiment
Temperature: 298 K
Tabular data in the source: 0
pressure (bar)	Carbon Dioxide fraction	Carbon Dioxide uptake (mmol/g)	Methane fraction	Methane uptake (mmol/g)	total uptake (mmol/g)
3.447	0.034	0.34112	0.966	1.73888	2.08
3.447	0.059	0.56115	0.941	1.58885	2.15
3.447	0.161	0.89997	0.839	1.39003	2.29
3.447	0.226	1.1568	0.774	1.2532	2.41
3.447	0.236	1.26198	0.764	1.19802	2.46
3.447	0.426	1.9043	0.574	0.8757	2.78
3.447	0.438	1.9599	0.562	0.8601	2.82
3.447	0.55	2.36887	0.45	0.64113	3.01
3.447	0.718	2.9337	0.282	0.3663	3.3
3.447	0.94	3.60272	0.06	0.07728	3.68
