Adsorption isotherm of Methane on Activated carbon: BPL
DOI: 10.1021/je00031a005
Article source: Figure 2
Adsorbate Methane: InChIKey VNWKTOKETHGBQD-UHFFFAOYSA-N
Kind: experiment
Temperature: 298 K
Tabular data in the source: 0
pressure (bar)	uptake (mmol/g)
0.0941	0.131
0.157	0.184
0.454	0.523
0.595	0.592
0.829	0.784
1.05	0.922
1.58	1.14
1.69	1.25
2.44	1.55
3.04	1.77
3.53	1.94
4.28	2.14
4.9	2.31
5.57	2.46
5.66	2.51
6.92	2.73
