Adsorption isotherm of Carbon Dioxide, Carbon monoxide on Activated carbon: BPL
DOI: 10.1021/je00031a005
Article source: Table I
Adsorbate Carbon Dioxide: InChIKey CURLTUGMZLYLDI-UHFFFAOYSA-N
Adsorbate Carbon monoxide: InChIKey UGFAIRIUMAVXCW-UHFFFAOYSA-N
Kind: experiment
Temperature: 298 K
Tabular data in the source: 0
pressure (bar)	Carbon Dioxide fraction	Carbon Dioxide uptake (mmol/g)	Carbon monoxide fraction	Carbon monoxide uptake (mmol/g)	total uptake (mmol/g)
6.895	0.205	2.07378	0.795	0.73622	2.81
6.895	0.302	2.5074	0.698	0.6426	3.15
6.895	0.425	3.05019	0.575	0.45981	3.51
