Adsorption isotherm of Carbon Dioxide, Carbon monoxide on Activated carbon: BPL
DOI: 10.1021/je00031a005
Article source: Table I
Adsorbate Carbon Dioxide: InChIKey CURLTUGMZLYLDI-UHFFFAOYSA-N
Adsorbate Carbon monoxide: InChIKey UGFAIRIUMAVXCW-UHFFFAOYSA-N
Kind: experiment
Temperature: 298 K
Tabular data in the source: 0
pressure (bar)	Carbon Dioxide fraction	Carbon Dioxide uptake (mmol/g)	Carbon monoxide fraction	Carbon monoxide uptake (mmol/g)	total uptake (mmol/g)
3.447	0.004	0.1526	0.996	0.9374	1.09
3.447	0.011	0.25056	0.989	0.90944	1.16
3.447	0.026	0.44704	0.974	0.82296	1.27
3.447	0.069	0.7965	0.931	0.7035	1.5
3.447	0.127	1.1655	0.873	0.5845	1.75
3.447	0.17	1.32432	0.83	0.53568	1.86
3.447	0.201	1.48302	0.799	0.49698	1.98
3.447	0.323	1.90757	0.677	0.38243	2.29
3.447	0.366	1.914	0.634	0.406	2.32
3.447	0.419	2.17128	0.581	0.31872	2.49
3.447	0.438	2.27328	0.562	0.28672	2.56
3.447	0.518	2.50884	0.482	0.25116	2.76
3.447	0.747	3.0656	0.253	0.1344	3.2
3.447	0.811	3.20679	0.189	0.12321	3.33
