Adsorption isotherm of Carbon monoxide on Activated carbon: BPL
DOI: 10.1021/je00031a005
Article source: Figure 2
Adsorbate Carbon monoxide: InChIKey UGFAIRIUMAVXCW-UHFFFAOYSA-N
Kind: experiment
Temperature: 298 K
Tabular data in the source: 0
pressure (bar)	uptake (mmol/g)
0.141	0.0845
0.265	0.107
0.53	0.23
0.608	0.261
0.811	0.33
0.92	0.384
1.15	0.468
1.48	0.568
1.78	0.652
2.57	0.851
2.63	0.889
3.09	0.997
3.65	1.12
4.75	1.28
5.24	1.39
5.45	1.43
5.87	1.49
6.31	1.55
6.59	1.59
6.98	1.66
