Adsorption isotherm of Carbon monoxide, Methane on Activated carbon: BPL
DOI: 10.1021/je00031a005
Article source: Table I
Adsorbate Carbon monoxide: InChIKey UGFAIRIUMAVXCW-UHFFFAOYSA-N
Adsorbate Methane: InChIKey VNWKTOKETHGBQD-UHFFFAOYSA-N
Kind: experiment
Temperature: 298 K
Tabular data in the source: 0
pressure (bar)	Carbon monoxide fraction	Carbon monoxide uptake (mmol/g)	Methane fraction	Methane uptake (mmol/g)	total uptake (mmol/g)
3.447	0.945	0.93856	0.055	0.18144	1.12
3.447	0.832	0.78988	0.168	0.45012	1.24
3.447	0.777	0.71264	0.223	0.59736	1.31
3.447	0.748	0.6968	0.252	0.6432	1.34
3.447	0.661	0.59774	0.339	0.83226	1.43
3.447	0.571	0.53454	0.429	0.97546	1.51
3.447	0.395	0.35404	0.605	1.31596	1.67
3.447	0.311	0.28718	0.689	1.44282	1.73
3.447	0.138	0.13135	0.862	1.71865	1.85
