Adsorption isotherm of Carbon Dioxide on Activated carbon: BPL
DOI: 10.1021/je00031a005
Article source: Figure 2
Adsorbate Carbon Dioxide: InChIKey CURLTUGMZLYLDI-UHFFFAOYSA-N
Kind: experiment
Temperature: 298 K
Tabular data in the source: 0
pressure (bar)	uptake (mmol/g)
0.0482	0.246
0.127	0.423
0.348	0.953
0.505	1.24
0.568	1.31
0.756	1.57
1.23	2.14
1.37	2.28
1.96	2.74
2.54	3.2
2.82	3.37
3.37	3.72
3.57	3.87
4.27	4.15
4.77	4.43
5.11	4.53
5.96	4.9
6.53	4.98
