Adsorption isotherm of Methanol on CuBTC
DOI: 10.1016/j.ces.2014.10.010
Article source: Figure 2
Adsorbate Methanol: InChIKey OKKJLVBELUTLKV-UHFFFAOYSA-N
Kind: experiment
Temperature: 298 K
Tabular data in the source: 0
pressure (bar)	uptake ()
0.000456	24.777
0.001333	71.081
0.002879	149.67
0.005207	229.774
0.007452	270.092
0.009978	294.116
0.014972	356.183
0.020013	374.075
0.029948	391.398
0.039979	403.928
0.049957	413.704
0.064906	422.556
0.084804	432.953
0.100811	441.29
0.120732	457.624
