Adsorption isotherm of Hydrogen on Zr-MOF
DOI: 10.1021/Ic5012764
Adsorbate Hydrogen: InChIKey UFHFLCQGNIYNRP-UHFFFAOYSA-N
Temperature: 77 K
Tabular data in the source: 0
pressure (bar)	uptake (cm3(STP)/g)
0.0112408	13.64
0.0458698	29.04
0.0729165	37.84
0.0922868	42.68
0.119427	48.84
0.146631	53.24
0.173848	57.2
0.201083	60.72
0.228349	63.36
0.251706	66
0.282863	69.08
0.306236	71.28
0.329625	73.04
0.36083	74.8
0.388111	77
0.411483	79.2
0.438812	80.08
0.466108	81.84
0.497299	84.04
0.520719	84.92
0.544122	86.24
0.571434	87.56
0.598747	88.88
0.626075	89.76
0.653404	90.64
0.680731	91.52
0.708059	92.4
0.731479	93.28
0.754898	94.16
0.786135	95.04
0.809569	95.48
0.832989	96.36
0.864226	97.24
0.891569	97.68
0.918898	98.56
0.95015	99
0.969662	99.88
1.00481	100.76
1.02826	100.76
1.0712	102.08
