Adsorption isotherm of Nitrogen on Zr-MOF
DOI: 10.1021/Ic5012764
Adsorbate Nitrogen: InChIKey IJGRMHOSHXDMSA-UHFFFAOYSA-N
Temperature: 77 K
Tabular data in the source: 0
pressure (bar)	uptake (cm3(STP)/g)
-0.00426644	20.8006
-0.0035838	41.6011
-0.00290117	61.6016
-0.0021901	81.6022
-0.00147902	100.803
-0.00125149	120.003
-0.000739514	135.201
0.0126855	143.19
0.0267078	148.78
0.0514247	153.561
0.0691731	154.348
0.0939752	156.73
0.118806	158.311
0.143666	159.092
0.16494	160.676
0.19691	161.452
0.239518	163.02
0.260849	163.004
0.29282	163.78
0.335455	164.548
0.363898	164.527
0.395897	164.503
0.424338	164.482
0.491834	166.031
0.530915	166.802
0.552247	166.786
0.5878	166.759
0.612688	166.74
0.655295	168.308
0.694347	169.879
0.72279	169.858
0.768981	170.623
0.800979	170.599
0.843644	170.567
0.879197	170.541
0.921804	172.109
0.960885	172.879
0.989215	176.058
