Adsorption isotherm of Hydrogen on Zr-MOF
DOI: 10.1021/Ic5012764
Adsorbate Hydrogen: InChIKey UFHFLCQGNIYNRP-UHFFFAOYSA-N
Temperature: 87 K
Tabular data in the source: 0
pressure (bar)	uptake (cm3(STP)/g)
0.0153681	7.48
0.0424617	14.96
0.0657093	20.68
0.0968207	25.08
0.124071	28.16
0.147412	31.24
0.170754	34.32
0.201958	36.08
0.225316	38.72
0.256522	40.48
0.279925	41.8
0.303314	43.56
0.334518	45.32
0.361846	46.2
0.389143	47.96
0.416471	48.84
0.447693	50.16
0.467219	50.6
0.494531	51.92
0.52186	52.8
0.553096	53.68
0.572608	54.56
0.599951	55
0.627279	55.88
0.658515	56.76
0.678027	57.64
0.70537	58.08
0.736606	58.96
0.763934	59.84
0.787386	59.84
0.806912	60.28
0.842073	60.72
0.869433	60.72
0.892836	62.04
0.920195	62.04
0.947539	62.48
1.02566	63.8
1.0569	64.68
