Adsorption isotherm of Krypton on CuIMFU-4l
DOI: 10.1039/c4cc07554d
Article source: Figure 3
Adsorbate Krypton: InChIKey DNNSSWSSYDEUBZ-UHFFFAOYSA-N
Kind: experiment
Temperature: 130 K
Tabular data in the source: 0
pressure (bar)	uptake (cm3(STP)/g)
0.001827	47.138
0.002749	53.8721
0.005302	67.3401
0.00856	87.5421
0.010407	87.5421
0.021159	127.946
0.038665	178.451
0.04077	191.919
0.051308	245.791
0.062309	306.397
0.065664	353.535
0.070438	400.673
0.078269	464.646
0.085444	525.253
0.091641	582.492
0.101817	653.199
0.101847	636.364
0.10926	680.135
0.135021	757.576
0.202964	804.714
0.294537	835.017
0.398236	848.485
0.501522	861.953
0.598908	868.687
0.702619	875.421
0.80973	885.522
0.9007	888.889
0.984283	892.256
