Adsorption isotherm of Xenon on CuIMFU-4l
DOI: 10.1039/c4cc07554d
Article source: Figure 3
Adsorbate Xenon: InChIKey FHNFHKCVQCLJFQ-UHFFFAOYSA-N
Kind: experiment
Temperature: 170 K
Tabular data in the source: 0
pressure (bar)	uptake (cm3(STP)/g)
0.001259	45.6376
0.003048	72.4832
0.004913	88.5906
0.00778	99.3289
0.011081	115.436
0.021318	144.966
0.032045	201.342
0.036954	255.034
0.037005	316.779
0.037092	424.161
0.037711	373.154
0.037798	477.852
0.03852	534.228
0.039953	587.919
0.040699	625.503
0.053092	663.087
0.062257	673.826
0.073003	684.564
0.085615	700.671
0.093561	719.463
0.105916	735.57
0.20731	746.309
0.311272	751.678
0.412981	754.362
0.519637	757.047
0.653793	757.047
0.753095	759.732
0.867421	759.732
0.964473	762.416
