Adsorption isotherm of Krypton on CuIMFU-4l
DOI: 10.1039/c4cc07554d
Article source: Figure 3
Adsorbate Krypton: InChIKey DNNSSWSSYDEUBZ-UHFFFAOYSA-N
Kind: experiment
Temperature: 120 K
Tabular data in the source: 0
pressure (bar)	uptake (cm3(STP)/g)
0.001589	70.9459
0.002524	81.0811
0.005144	101.351
0.007611	118.243
0.010486	141.892
0.016365	189.189
0.020263	250
0.023784	327.703
0.026465	378.378
0.027425	445.946
0.029449	506.757
0.031623	564.189
0.034567	628.378
0.038464	685.811
0.042045	726.351
0.045959	760.135
0.052994	783.784
0.074325	824.324
0.106113	851.351
0.208732	888.514
0.314355	902.027
0.410582	908.784
0.517511	922.297
0.618358	932.432
0.725805	935.811
0.807644	942.568
0.982358	949.324
