Adsorption isotherm of Xenon on CuIMFU-4l
DOI: 10.1039/c4cc07554d
Article source: Figure 3
Adsorbate Xenon: InChIKey FHNFHKCVQCLJFQ-UHFFFAOYSA-N
Kind: experiment
Temperature: 165 K
Tabular data in the source: 0
pressure (bar)	uptake (cm3(STP)/g)
0.001988	72.7273
0.002636	83.5017
0.005241	99.6633
0.008434	115.825
0.010985	126.599
0.021085	177.778
0.024709	239.731
0.025148	412.121
0.025595	538.721
0.02605	611.448
0.030528	662.626
0.04119	686.869
0.050001	721.886
0.066287	738.047
0.081896	740.741
0.097678	746.128
0.110502	746.128
0.197661	756.902
0.307072	759.596
0.399982	759.596
0.511894	764.983
0.599874	764.983
0.715468	764.983
0.823797	767.677
0.965362	770.37
