Adsorption isotherm of Nitrogen on H6P2W18O62/Cu3(BTC)2-10wt%
DOI: 10.1007/s11144-015-0877-5
Article source: Figure 3a
Adsorbate Nitrogen: InChIKey IJGRMHOSHXDMSA-UHFFFAOYSA-N
Kind: experiment
Temperature: 77 K
Tabular data in the source: 0
pressure (bar)	uptake (cm3(STP)/g)
0.050662	132.862
0.100483	135.21
0.148137	136.548
0.154635	135.873
0.202289	137.043
0.204455	137.716
0.249943	138.549
0.254275	137.875
0.299763	139.55
0.301929	138.539
0.35175	139.372
0.353915	140.045
0.403736	139.867
0.455721	140.7
0.503376	143.384
0.505542	141.532
0.553196	144.385
0.555362	142.028
0.603016	144.881
0.607348	142.523
0.657169	145.376
0.6615	143.187
0.706988	145.872
0.756809	146.873
0.758975	144.516
0.808795	145.517
0.813127	147.704
0.858615	149.043
0.910602	148.36
0.914933	152.399
0.962587	154.747
0.971252	166.53
0.990747	179.153
