Adsorption isotherm of Nitrogen on H6P2W18O62/Cu3(BTC)2-30wt%
DOI: 10.1007/s11144-015-0877-5
Article source: Figure 3c
Adsorbate Nitrogen: InChIKey IJGRMHOSHXDMSA-UHFFFAOYSA-N
Kind: experiment
Temperature: 77 K
Tabular data in the source: 0
pressure (bar)	uptake (cm3(STP)/g)
0	220
0.006862	223.086
0.029734	226.94
0.061756	233.3
0.082341	235.418
0.100639	238.116
0.121224	240.041
0.141809	241.388
0.162395	242.349
0.180693	243.31
0.201278	244.077
0.251597	245.611
0.301916	246.952
0.333938	247.718
0.352236	248.1
0.404843	249.055
0.455162	249.624
0.505481	252.894
0.507769	250.386
0.555801	253.463
0.558088	250.955
0.60612	251.139
0.65644	251.901
0.658727	254.601
0.706759	252.084
0.709046	254.978
0.757078	252.653
0.759366	255.354
0.7891	255.734
0.809685	253.029
0.816547	256.115
0.827983	253.219
0.857717	253.599
0.862292	257.071
0.882877	253.98
0.885164	258.224
0.910324	254.553
0.924048	264.197
0.935484	255.706
0.94692	270.752
0.958356	258.982
0.983516	265.922
0.985803	276.533
0.992665	270.165
1.00181	275.179
1.00639	278.651
