Adsorption isotherm of Nitrogen on H6P2W18O62/Cu3(BTC)2-40wt%
DOI: 10.1007/s11144-015-0877-5
Article source: Figure 3d
Adsorbate Nitrogen: InChIKey IJGRMHOSHXDMSA-UHFFFAOYSA-N
Kind: experiment
Temperature: 77 K
Tabular data in the source: 0
pressure (bar)	uptake (cm3(STP)/g)
0	100
0.016381	103.781
0.046801	106.205
0.053822	106.884
0.100623	109.792
0.147425	111.44
0.201246	112.701
0.250387	113.67
0.299529	114.446
0.35101	115.125
0.400152	115.803
0.451633	116.385
0.496094	118.13
0.505455	116.87
0.549916	119.197
0.554596	117.355
0.603738	119.778
0.606078	117.839
0.655219	120.263
0.65756	118.421
0.704361	120.748
0.709041	118.809
0.755842	121.233
0.758183	119.294
0.807324	119.778
0.856466	120.457
0.865825	122.881
0.907947	121.33
0.910287	124.044
0.957089	123.56
0.966449	128.504
0.989849	131.898
