Adsorption isotherm of Nitrogen on H6P2W18O62/Cu3(BTC)2-20wt%
DOI: 10.1007/s11144-015-0877-5
Article source: Figure 3b
Adsorbate Nitrogen: InChIKey IJGRMHOSHXDMSA-UHFFFAOYSA-N
Kind: experiment
Temperature: 77 K
Tabular data in the source: 0
pressure (bar)	uptake (cm3(STP)/g)
0.107823	199.536
0.148109	202.681
0.152104	202.333
0.20237	204.433
0.202394	204.898
0.248612	206.3
0.252608	205.952
0.300833	207.354
0.353059	208.524
0.405273	209.462
0.449461	210.399
0.497751	213.08
0.501664	211.104
0.553879	212.042
0.554025	214.949
0.60422	215.654
0.608088	212.747
0.656278	213.452
0.660436	216.359
0.708481	214.157
0.708627	217.064
0.758682	214.978
0.758817	217.652
0.81088	215.567
0.811025	218.474
0.859075	216.388
0.865241	219.296
0.907439	220.581
0.911295	217.442
0.963567	219.542
0.965819	224.426
0.990095	228.383
