Adsorption isotherm of Nitrogen on IFMC-15
DOI: 10.1039/C2cc34196d
Adsorbate Nitrogen: InChIKey IJGRMHOSHXDMSA-UHFFFAOYSA-N
Temperature: 77 K
Tabular data in the source: 0
pressure (bar)	uptake (cm3(STP)/g)
0.000249911	4.1806
0.00459837	26.9231
0.0198629	32.2742
0.0797516	34.1137
0.139581	34.9498
0.193412	35.4515
0.241254	35.786
0.292086	36.1204
0.345907	36.4548
0.396729	36.6221
0.447551	36.7893
0.495404	37.291
0.546226	37.4582
0.597057	37.7926
0.650879	38.1271
0.698721	38.4615
0.749554	38.796
0.800385	39.1304
0.851238	39.7993
0.896101	40.301
0.952941	41.1371
0.988889	42.4749
1.0099	43.9799
