Adsorption isotherm of Carbon Dioxide on MOF-1C'
DOI: 10.1016/j.micromeso.2010.10.048
Adsorbate Carbon Dioxide: InChIKey CURLTUGMZLYLDI-UHFFFAOYSA-N
Temperature: 298 K
Tabular data in the source: 0
pressure (bar)	uptake (mmol/g)
0.376215	0.665706
0.901606	1.35159
1.91158	2.05764
3.06965	2.58213
4.45078	3.00576
6.01815	3.40922
7.80901	3.79251
9.78599	4.13545
12.2481	4.59942
14.7843	4.98271
17.3583	5.46686
