Adsorption isotherm of Carbon Dioxide on MOF-2'-Li
DOI: 10.1016/j.micromeso.2010.10.048
Adsorbate Carbon Dioxide: InChIKey CURLTUGMZLYLDI-UHFFFAOYSA-N
Temperature: 298 K
Tabular data in the source: 0
pressure (bar)	uptake (mmol/g)
0.155844	0.396396
0.272727	0.720721
0.584416	1.17117
1.48052	1.87387
2.64935	2.57658
4.4026	3.33333
7.12987	4.05405
10.4416	4.66667
13.5584	5.17117
16.9481	5.6036
