Adsorption isotherm of Methane on MOF-1C'
DOI: 10.1016/j.micromeso.2010.10.048
Adsorbate Methane: InChIKey VNWKTOKETHGBQD-UHFFFAOYSA-N
Temperature: 298 K
Tabular data in the source: 0
pressure (bar)	uptake (mmol/g)
0.447957	0.14121
0.970877	0.363112
1.90459	0.746398
3.17329	1.04899
4.4046	1.33141
6.04586	1.61383
7.68733	1.9366
9.92507	2.25937
12.1629	2.60231
14.7363	2.96542
17.3843	3.3487
