Adsorption isotherm of Methane on MOF-1C'-Li
DOI: 10.1016/j.micromeso.2010.10.048
Adsorbate Methane: InChIKey VNWKTOKETHGBQD-UHFFFAOYSA-N
Temperature: 298 K
Tabular data in the source: 0
pressure (bar)	uptake (mmol/g)
0.187302	0.181556
1.1962	0.685879
2.50302	1.14986
4.21966	1.59366
6.79399	2.13833
10.3742	2.62248
13.6184	2.98559
16.9369	3.30836
