Adsorption isotherm of Methane on MOF-1M'-Li
DOI: 10.1016/j.micromeso.2010.10.048
Adsorbate Methane: InChIKey VNWKTOKETHGBQD-UHFFFAOYSA-N
Temperature: 298 K
Tabular data in the source: 0
pressure (bar)	uptake (mmol/g)
0.188147	0.0431034
0.601724	0.114943
1.46638	0.258621
2.55539	0.359195
4.24397	0.431034
6.87177	0.617816
10.325	0.833333
13.6657	1.04885
17.0815	1.26437
