Adsorption isotherm of Carbon Dioxide on MOF-1M'
DOI: 10.1016/j.micromeso.2010.10.048
Adsorbate Carbon Dioxide: InChIKey CURLTUGMZLYLDI-UHFFFAOYSA-N
Temperature: 298 K
Tabular data in the source: 0
pressure (bar)	uptake (mmol/g)
0.574138	0.775862
1.44181	1.12069
2.53491	1.49425
4.37802	1.86782
7.08621	2.41379
10.431	2.9023
13.5873	3.31897
16.9681	3.7069
