Adsorption isotherm of Methane on MOF-1M'
DOI: 10.1016/j.micromeso.2010.10.048
Adsorbate Methane: InChIKey VNWKTOKETHGBQD-UHFFFAOYSA-N
Temperature: 298 K
Tabular data in the source: 0
pressure (bar)	uptake (mmol/g)
0.226078	0.0718391
0.640733	0.215517
1.4306	0.373563
2.55841	0.560345
4.32371	0.747126
7.14095	1.06322
10.3716	1.43678
13.6009	1.72414
17.0187	2.08333
