Adsorption isotherm of Carbon Dioxide on MOF-1M'-Li
DOI: 10.1016/j.micromeso.2010.10.048
Adsorbate Carbon Dioxide: InChIKey CURLTUGMZLYLDI-UHFFFAOYSA-N
Temperature: 298 K
Tabular data in the source: 0
pressure (bar)	uptake (mmol/g)
0.00431034	0.287356
0.194612	0.474138
0.648491	0.732759
1.44116	1.07759
2.57026	1.35057
4.26293	1.6954
7.08168	2.11207
10.3862	2.41379
13.6912	2.74425
16.9597	3.14655
