Adsorption isotherm of Carbon Dioxide on MOF-1C'-Li
DOI: 10.1016/j.micromeso.2010.10.048
Adsorbate Carbon Dioxide: InChIKey CURLTUGMZLYLDI-UHFFFAOYSA-N
Temperature: 298 K
Tabular data in the source: 0
pressure (bar)	uptake (mmol/g)
0.0764673	0.363112
0.228221	0.867435
0.604113	1.47262
1.2804	2.50144
2.51537	3.46974
4.27132	4.29683
6.65953	4.88184
10.2772	5.40634
13.5586	5.74928
16.8774	6.13256
