Adsorption isotherm of Carbon Dioxide on MOF-2'
DOI: 10.1016/j.micromeso.2010.10.048
Adsorbate Carbon Dioxide: InChIKey CURLTUGMZLYLDI-UHFFFAOYSA-N
Temperature: 298 K
Tabular data in the source: 0
pressure (bar)	uptake (mmol/g)
0.116883	0.414414
0.311688	0.810811
0.662338	1.2973
1.48052	1.89189
2.61039	2.45045
4.36364	3.00901
7.09091	3.56757
10.4416	3.92793
13.6753	4.3964
16.9481	4.59459
