Adsorption isotherm of Methane on MOF-2'
DOI: 10.1016/j.micromeso.2010.10.048
Adsorbate Methane: InChIKey VNWKTOKETHGBQD-UHFFFAOYSA-N
Temperature: 298 K
Tabular data in the source: 0
pressure (bar)	uptake (mmol/g)
0.311688	0.216216
0.74026	0.468468
1.51948	0.810811
2.64935	1.13514
4.48052	1.47748
7.05195	1.85586
10.4026	2.14414
13.7922	2.37838
17.026	2.59459
