Adsorption isotherm of Methane on MOF-2'-Li
DOI: 10.1016/j.micromeso.2010.10.048
Adsorbate Methane: InChIKey VNWKTOKETHGBQD-UHFFFAOYSA-N
Temperature: 298 K
Tabular data in the source: 0
pressure (bar)	uptake (mmol/g)
0.311688	0.198198
0.701299	0.432432
1.4026	0.738739
2.61039	1.04505
4.32468	1.47748
7.05195	1.98198
10.3636	2.5045
13.5584	2.95495
16.9481	3.36937
