Adsorption isotherm of Carbon Dioxide, Nitrogen on ACZC
DOI: 10.1021/acs.jced.6b00374
Article source: Figure 8A
Adsorbate Carbon Dioxide: InChIKey CURLTUGMZLYLDI-UHFFFAOYSA-N
Adsorbate Nitrogen: InChIKey IJGRMHOSHXDMSA-UHFFFAOYSA-N
Kind: experiment
Temperature: 303 K
Tabular data in the source: 0
pressure (bar)	Carbon Dioxide fraction	Carbon Dioxide uptake (mmol/g)	Nitrogen fraction	Nitrogen uptake (mmol/g)	total uptake (mmol/g)
1.3	0.069085	3.1728	0.930915	0.3658	
1.3	0.284065	4.5397	0.715935	0.4023	
1.3	0.562415	5.266	0.437585	0.222	
1.3	0.845895	5.5902	0.154105	0.1	
