Adsorption isotherm of Carbon Dioxide, Nitrogen on SZX
DOI: 10.1021/acs.jced.6b00374
Article source: Figure 7A
Adsorbate Carbon Dioxide: InChIKey CURLTUGMZLYLDI-UHFFFAOYSA-N
Adsorbate Nitrogen: InChIKey IJGRMHOSHXDMSA-UHFFFAOYSA-N
Kind: experiment
Temperature: 303 K
Tabular data in the source: 0
pressure (bar)	Carbon Dioxide fraction	Carbon Dioxide uptake (mmol/g)	Nitrogen fraction	Nitrogen uptake (mmol/g)	total uptake (mmol/g)
1.3	0.07646	3.2619	0.92354	0.3082	
1.3	0.299945	4.0819	0.700055	0.296	
1.3	0.5724	5.0024	0.4276	0.2806	
1.3	0.846115	4.9948	0.153885	0.2305	
