Adsorption isotherm of Nitrogen on SZX
DOI: 10.1021/acs.jced.6b00374
Article source: Figure 5
Adsorbate Nitrogen: InChIKey IJGRMHOSHXDMSA-UHFFFAOYSA-N
Kind: experiment
Temperature: 283 K
Tabular data in the source: 0
pressure (bar)	uptake (mmol/g)
0.00425	0.0225
0.07715	0.064
0.15609	0.1104
0.27535	0.1653
0.3948	0.2263
0.5402	0.2965
0.6982	0.3681
0.86563	0.4479
1.08065	0.5328
1.28022	0.6176
1.50944	0.7033
