Adsorption isotherm of Carbon Dioxide on ACZC
DOI: 10.1021/acs.jced.6b00374
Article source: Figure 6
Adsorbate Carbon Dioxide: InChIKey CURLTUGMZLYLDI-UHFFFAOYSA-N
Kind: experiment
Temperature: 283 K
Tabular data in the source: 0
pressure (bar)	uptake (mmol/g)
0.00731	0.0417
0.02436	1.9729
0.09818	3.9094
0.26491	4.6219
0.37154	4.8607
0.50083	5.0747
0.68057	5.261
0.84915	5.4155
1.01435	5.5691
1.19349	5.6727
1.37527	5.7685
1.57514	5.8496
