Adsorption isotherm of Nitrogen on SZX
DOI: 10.1021/acs.jced.6b00374
Article source: Figure 5
Adsorbate Nitrogen: InChIKey IJGRMHOSHXDMSA-UHFFFAOYSA-N
Kind: experiment
Temperature: 323 K
Tabular data in the source: 0
pressure (bar)	uptake (mmol/g)
0.00515	0.0263
0.07067	0.034
0.14742	0.0584
0.29591	0.0946
0.46111	0.1386
0.67902	0.182
0.84437	0.2169
0.99765	0.2512
1.15696	0.2865
1.36011	0.3161
1.54003	0.3573
