Adsorption isotherm of Nitrogen on ACZC
DOI: 10.1021/acs.jced.6b00374
Article source: Figure 6
Adsorbate Nitrogen: InChIKey IJGRMHOSHXDMSA-UHFFFAOYSA-N
Kind: experiment
Temperature: 303 K
Tabular data in the source: 0
pressure (bar)	uptake (mmol/g)
0.00612	0.0285
0.06889	0.038
0.1198	0.0544
0.22476	0.0794
0.41726	0.1386
0.61289	0.1912
0.79182	0.2474
0.97534	0.3014
1.17315	0.3517
1.3867	0.4004
1.59637	0.4482
