Adsorption isotherm of Carbon Dioxide, Nitrogen on ACZC
DOI: 10.1021/acs.jced.6b00374
Article source: Figure 8B
Adsorbate Carbon Dioxide: InChIKey CURLTUGMZLYLDI-UHFFFAOYSA-N
Adsorbate Nitrogen: InChIKey IJGRMHOSHXDMSA-UHFFFAOYSA-N
Kind: experiment
Temperature: 323 K
Tabular data in the source: 0
pressure (bar)	Carbon Dioxide fraction	Carbon Dioxide uptake (mmol/g)	Nitrogen fraction	Nitrogen uptake (mmol/g)	total uptake (mmol/g)
1.3	0.08274	2.6286	0.91726	0.2864	
1.3	0.306505	4.053	0.693495	0.5015	
1.3	0.57851	4.7813	0.42149	0.4867	
1.3	0.851725	5.0302	0.148275	0.4206	
