Adsorption isotherm of Carbon Dioxide on SZX
DOI: 10.1021/acs.jced.6b00374
Article source: Figure 5
Adsorbate Carbon Dioxide: InChIKey CURLTUGMZLYLDI-UHFFFAOYSA-N
Kind: experiment
Temperature: 303 K
Tabular data in the source: 0
pressure (bar)	uptake (mmol/g)
0.00511	0.0119
0.05507	2.0508
0.17387	3.0456
0.31674	3.6477
0.52512	4.137
0.7767	4.4644
1.08083	4.7358
1.28907	4.8718
1.5262	4.993
