Adsorption isotherm of Carbon Dioxide, Nitrogen on SZX
DOI: 10.1021/acs.jced.6b00374
Article source: Figure 7B
Adsorbate Carbon Dioxide: InChIKey CURLTUGMZLYLDI-UHFFFAOYSA-N
Adsorbate Nitrogen: InChIKey IJGRMHOSHXDMSA-UHFFFAOYSA-N
Kind: experiment
Temperature: 323 K
Tabular data in the source: 0
pressure (bar)	Carbon Dioxide fraction	Carbon Dioxide uptake (mmol/g)	Nitrogen fraction	Nitrogen uptake (mmol/g)	total uptake (mmol/g)
1.3	0.081325	2.7385	0.918675	0.1898	
1.3	0.311695	3.6847	0.688305	0.366	
1.3	0.588795	4.2054	0.411205	0.346	
1.3	0.858455	4.3825	0.141545	0.3194	
