Adsorption isotherm of Nitrogen on ACZC
DOI: 10.1021/acs.jced.6b00374
Article source: Figure 6
Adsorbate Nitrogen: InChIKey IJGRMHOSHXDMSA-UHFFFAOYSA-N
Kind: experiment
Temperature: 283 K
Tabular data in the source: 0
pressure (bar)	uptake (mmol/g)
0.00609	0.0373
0.07835	0.0609
0.1545	0.102
0.27679	0.1541
0.39545	0.1931
0.54264	0.2545
0.69973	0.3167
0.86963	0.3753
1.08471	0.4494
1.28987	0.5093
1.51896	0.5819
