Adsorption isotherm of Nitrogen on SZX
DOI: 10.1021/acs.jced.6b00374
Article source: Figure 5
Adsorbate Nitrogen: InChIKey IJGRMHOSHXDMSA-UHFFFAOYSA-N
Kind: experiment
Temperature: 303 K
Tabular data in the source: 0
pressure (bar)	uptake (mmol/g)
0.00524	-0.0025
0.07369	0.0357
0.14458	0.0597
0.2057	0.08
0.33026	0.1269
0.49835	0.1886
0.64332	0.2359
0.80979	0.2869
0.96966	0.3321
1.17076	0.3904
1.28516	0.4223
1.42459	0.458
1.54093	0.4824
