Adsorption isotherm of Nitrogen on ACZC
DOI: 10.1021/acs.jced.6b00374
Article source: Figure 6
Adsorbate Nitrogen: InChIKey IJGRMHOSHXDMSA-UHFFFAOYSA-N
Kind: experiment
Temperature: 323 K
Tabular data in the source: 0
pressure (bar)	uptake (mmol/g)
0.00657	0.034
0.07325	0.0401
0.10345	0.0448
0.20083	0.0722
0.39772	0.096
0.60529	0.1471
0.84234	0.2128
0.98996	0.2412
1.24463	0.2933
1.40774	0.3377
1.58631	0.3873
