Adsorption isotherm of Carbon Dioxide on ACZC
DOI: 10.1021/acs.jced.6b00374
Article source: Figure 6
Adsorbate Carbon Dioxide: InChIKey CURLTUGMZLYLDI-UHFFFAOYSA-N
Kind: experiment
Temperature: 323 K
Tabular data in the source: 0
pressure (bar)	uptake (mmol/g)
0.00657	0.0307
0.08646	1.9934
0.24115	3.0602
0.40359	3.6427
0.5919	4.0757
0.74906	4.3541
0.94338	4.6017
1.1478	4.8183
1.32842	4.945
1.58124	5.0589
