Adsorption isotherm of Carbon Dioxide on ACZC
DOI: 10.1021/acs.jced.6b00374
Article source: Figure 6
Adsorbate Carbon Dioxide: InChIKey CURLTUGMZLYLDI-UHFFFAOYSA-N
Kind: experiment
Temperature: 303 K
Tabular data in the source: 0
pressure (bar)	uptake (mmol/g)
0.00681	0.0307
0.05673	2.1419
0.14909	3.5354
0.35843	4.3197
0.57382	4.7664
0.72751	4.9809
0.9196	5.19
1.13021	5.3479
1.31857	5.4767
1.56612	5.6249
