Adsorption isotherm of Carbon Dioxide on SZX
DOI: 10.1021/acs.jced.6b00374
Article source: Figure 5
Adsorbate Carbon Dioxide: InChIKey CURLTUGMZLYLDI-UHFFFAOYSA-N
Kind: experiment
Temperature: 323 K
Tabular data in the source: 0
pressure (bar)	uptake (mmol/g)
0.00529	0.015
0.09713	1.8677
0.2632	2.7584
0.45539	3.3521
0.65474	3.7271
0.85255	3.999
1.05123	4.2027
1.26715	4.3528
1.52689	4.4973
