Adsorption isotherm of Carbon Dioxide on SZX
DOI: 10.1021/acs.jced.6b00374
Article source: Figure 5
Adsorbate Carbon Dioxide: InChIKey CURLTUGMZLYLDI-UHFFFAOYSA-N
Kind: experiment
Temperature: 283 K
Tabular data in the source: 0
pressure (bar)	uptake (mmol/g)
0.00688	0.0113
0.0409	2.4275
0.15377	3.7614
0.33793	4.5259
0.52306	4.8918
0.69613	5.0773
0.88741	5.2388
1.10546	5.3308
1.30843	5.4225
1.54423	5.514
