Adsorption isotherm of Carbon Dioxide on UTSA-15a
DOI: 10.1038/Ncomms1956
Adsorbate Carbon Dioxide: InChIKey CURLTUGMZLYLDI-UHFFFAOYSA-N
Temperature: 296 K
Tabular data in the source: 0
pressure (bar)	uptake (mol/l)
0.123067	7.13915
0.159263	8.47222
0.18822	9.80833
0.222003	11.1424
0.25096	12.4785
0.284743	13.3632
0.347483	14.2356
0.37644	15.1223
0.40781	16.9068
0.43918	16.8936
0.468136	17.3308
0.535703	18.6507
0.564659	18.6385
0.596029	19.5241
0.629812	20.4088
0.656356	20.847
0.690139	20.8328
0.723922	21.7174
0.752879	22.1547
0.784249	23.0403
0.815619	23.4765
0.844576	23.0149
0.878359	24.349
0.907316	24.3368
0.941099	26.1203
0.974882	25.6566
1.00625	26.0928
1.03521	26.9795
1.06899	27.4147
