Adsorption isotherm of Carbon Dioxide on Zn-MOF-74
DOI: 10.1038/Ncomms1956
Adsorbate Carbon Dioxide: InChIKey CURLTUGMZLYLDI-UHFFFAOYSA-N
Temperature: 296 K
Tabular data in the source: 0
pressure (bar)	uptake (mol/l)
0.0042478	0.0107606
0.00619484	0.0154578
0.0091717	0.0232339
0.012978	0.0328759
0.0186431	0.047945
0.0267811	0.0678421
0.0390565	0.0989384
0.0561054	0.142127
0.0805964	0.201109
0.117539	0.288897
0.168847	0.390693
0.235339	0.569772
0.34321	0.782255
0.500524	1.09031
0.741046	1.51968
1.0174	2.05515
