Adsorption isotherm of Methane on Zn5(BTA)6(TDA)2
DOI: 10.1038/Ncomms1956
Adsorbate Methane: InChIKey VNWKTOKETHGBQD-UHFFFAOYSA-N
Temperature: 296 K
Tabular data in the source: 0
pressure (bar)	uptake (cm3(STP)/cm3)
0.288512	4.16039
0.316062	4.8226
0.377594	5.60685
0.407294	6.02894
0.44125	6.39121
0.475206	6.75349
0.504913	7.11552
0.53462	7.47755
0.568582	7.77977
0.598289	8.1418
0.630127	8.44389
0.659834	8.80592
0.689547	9.1079
0.723503	9.47017
0.753222	9.71208
0.787178	10.0744
0.819016	10.3764
0.848742	10.5583
0.876331	10.8602
0.910293	11.1624
0.940006	11.4643
0.973969	11.7666
1.00794	12.0087
1.03553	12.3106
1.06736	12.6127
