Adsorption isotherm of Carbon Dioxide on UTSA-33a
DOI: 10.1038/Ncomms1956
Adsorbate Carbon Dioxide: InChIKey CURLTUGMZLYLDI-UHFFFAOYSA-N
Temperature: 296 K
Tabular data in the source: 0
pressure (bar)	uptake (mol/l)
0.03137	2.23397
0.0627399	4.91738
0.0941099	7.15135
0.12548	11.1831
0.15685	13.4171
0.190633	15.2006
0.222003	17.4345
0.253373	19.6685
0.28233	22.3529
0.318526	23.686
0.347483	25.921
0.381266	28.6034
0.410223	29.9395
0.441593	31.2746
0.472963	33.0591
0.50192	34.8447
0.535703	35.7293
0.569486	38.4117
0.598442	39.7478
0.629812	41.0829
0.661182	42.418
0.692552	43.7531
0.721509	45.0892
0.752879	45.5254
0.784249	47.7594
0.818032	48.1946
0.849402	49.0803
0.880772	50.8648
0.912142	52.6493
0.945925	53.534
0.972469	54.8711
1.00867	55.7547
1.03762	56.6414
1.06658	57.5281
