Adsorption isotherm of Carbon Dioxide on JBW
DOI: 10.1038/Ncomms1956
Adsorbate Carbon Dioxide: InChIKey CURLTUGMZLYLDI-UHFFFAOYSA-N
Temperature: 296 K
Tabular data in the source: 0
pressure (bar)	uptake (mol/l)
0.0043124	0.0119596
0.00610204	0.0171802
0.00903432	0.025436
0.012978	0.0370949
0.0192144	0.0532875
0.0263799	0.0742724
0.0384715	0.106694
0.055265	0.155598
0.0805964	0.216873
0.112336	0.288897
0.161372	0.379076
0.242551	0.544549
0.34321	0.71453
0.493026	0.951828
0.719011	1.14081
1.04858	1.43065
