Adsorption isotherm of Carbon Dioxide on Mg-MOF-74
DOI: 10.1038/Ncomms1956
Adsorbate Carbon Dioxide: InChIKey CURLTUGMZLYLDI-UHFFFAOYSA-N
Temperature: 296 K
Tabular data in the source: 0
pressure (bar)	uptake (mol/l)
0.000998	0.0494143
0.00147687	0.0720639
0.00212154	0.103521
0.00295701	0.144288
0.0043124	0.210424
0.00628904	0.306875
0.00903432	0.434228
0.0131753	0.596163
0.0180887	0.818488
0.0271883	1.14081
0.0384715	1.54279
0.055265	2.02437
0.081822	2.61648
0.119326	3.13598
0.166317	3.87381
0.235339	4.43741
0.34321	4.93188
0.508135	5.56479
0.708241	5.82255
1.0174	6.18488
