Adsorption isotherm of Methane on UTSA-33a
DOI: 10.1038/Ncomms1956
Adsorbate Methane: InChIKey VNWKTOKETHGBQD-UHFFFAOYSA-N
Temperature: 296 K
Tabular data in the source: 0
pressure (bar)	uptake (cm3(STP)/cm3)
0.0891267	1.02604
0.123083	1.38831
0.188826	2.53316
0.220651	2.95537
0.258856	3.31788
0.286438	3.67979
0.316145	4.04183
0.350088	4.52422
0.379782	5.00637
0.415869	5.3087
0.44132	5.73056
0.473139	6.21283
0.502852	6.5148
0.536808	6.87708
0.56864	7.23923
0.600465	7.66144
0.632302	7.96353
0.664134	8.32569
0.69809	8.68796
0.72779	9.11005
0.755379	9.41191
0.787204	9.83412
0.819054	10.0161
0.846624	10.4981
0.882698	10.9206
0.91028	11.2825
0.942118	11.5846
0.973949	11.9467
1.00792	12.1889
1.03763	12.5509
1.06945	12.9731
