Adsorption isotherm of Carbon Dioxide on UTSA-34b
DOI: 10.1038/Ncomms1956
Adsorbate Carbon Dioxide: InChIKey CURLTUGMZLYLDI-UHFFFAOYSA-N
Temperature: 296 K
Tabular data in the source: 0
pressure (bar)	uptake (mol/l)
0.03137	2.23397
0.0627399	4.91738
0.096523	7.15034
0.127893	8.93487
0.159263	10.7194
0.190633	12.9534
0.222003	14.7379
0.25096	16.9729
0.279917	18.7585
0.316113	21.4398
0.34507	22.7759
0.37644	24.5605
0.412636	25.8935
0.441593	28.1285
0.475376	29.912
0.504333	32.147
0.535703	34.381
0.567073	34.8172
0.598442	37.0512
0.629812	38.8357
0.658769	40.1718
0.694965	41.9543
0.721509	43.7409
0.755292	45.5244
0.786662	46.4101
0.820445	47.7442
0.851815	49.5287
0.878359	50.8658
0.914555	52.1989
0.943512	53.535
0.977295	55.3185
1.00867	56.6536
1.04004	57.9887
1.07141	59.3238
