Adsorption isotherm of Carbon Dioxide on Bio-MOF-11
DOI: 10.1038/Ncomms1956
Adsorbate Carbon Dioxide: InChIKey CURLTUGMZLYLDI-UHFFFAOYSA-N
Temperature: 296 K
Tabular data in the source: 0
pressure (bar)	uptake (mol/l)
0.00479293	0.00953671
0.00628904	0.0127039
0.00903432	0.0182494
0.0127836	0.0258228
0.0186431	0.0382317
0.0263799	0.0540979
0.0390565	0.0800941
0.0561054	0.113333
0.0793891	0.155598
0.115778	0.226918
0.168847	0.321089
0.246239	0.454341
0.333004	0.652669
0.485641	0.856399
0.697632	1.19365
1.00216	1.56625
