Adsorption isotherm of Carbon Dioxide on CuBTC
DOI: 10.1038/Ncomms1956
Adsorbate Carbon Dioxide: InChIKey CURLTUGMZLYLDI-UHFFFAOYSA-N
Temperature: 296 K
Tabular data in the source: 0
pressure (bar)	uptake (cm3(STP)/cm3)
0.0317134	4.52282
0.0679528	10.0519
0.0996662	14.5747
0.122321	17.5892
0.163106	22.612
0.19255	27.1359
0.22427	31.1545
0.253714	35.6784
0.287703	39.6959
0.317153	43.7156
0.346623	46.2227
0.380605	50.7444
0.410062	54.2599
0.441788	57.7743
0.471252	60.7856
0.502984	63.7958
0.534704	67.8145
0.564173	70.3215
0.598175	73.3307
0.627632	76.8462
0.657095	79.8574
0.688834	82.3634
0.720566	85.3737
0.752312	87.3755
0.784038	90.8899
0.815777	93.3959
0.845246	95.9029
0.879254	98.4079
0.908724	100.915
0.938187	103.926
0.969926	106.432
1.00167	108.434
1.03569	110.435
1.06515	113.446
