Adsorption isotherm of Carbon Dioxide on Cu-TDPAT
DOI: 10.1038/Ncomms1956
Adsorbate Carbon Dioxide: InChIKey CURLTUGMZLYLDI-UHFFFAOYSA-N
Temperature: 296 K
Tabular data in the source: 0
pressure (bar)	uptake (cm3(STP)/cm3)
0.027073	12.5922
0.0338556	14.6058
0.0700886	20.6391
0.0995263	25.6672
0.122188	28.1775
0.16069	34.2098
0.19016	36.7168
0.221892	39.727
0.253625	42.7372
0.285357	45.7475
0.319359	48.7566
0.348822	51.7679
0.378304	53.2665
0.412306	56.2757
0.441782	58.2786
0.471252	60.7856
0.502984	63.7958
0.534748	64.285
0.561942	67.2974
0.595963	68.7939
0.627708	70.7957
0.659453	72.7975
0.688929	74.8004
0.722957	75.7927
0.750163	77.7966
0.784178	79.7974
0.815929	81.295
0.845405	83.2978
0.877163	84.2912
0.908915	85.7888
0.93839	87.7917
0.970136	89.7935
1.00417	90.2816
1.03592	91.7792
1.06767	93.2768
