Adsorption isotherm of Carbon Dioxide on UTSA-16
DOI: 10.1038/Ncomms1956
Adsorbate Carbon Dioxide: InChIKey CURLTUGMZLYLDI-UHFFFAOYSA-N
Temperature: 296 K
Tabular data in the source: 0
pressure (bar)	uptake (cm3(STP)/cm3)
0.00673807	5.54303
0.0112132	10.5829
0.015701	14.6144
0.0201888	18.6459
0.0269141	25.1974
0.0336395	31.7488
0.0516416	43.8411
0.0651177	54.9272
0.0989542	71.0457
0.12152	81.119
0.15994	93.7059
0.191609	101.758
0.221009	109.811
0.252716	114.839
0.284416	120.37
0.318399	124.892
0.345587	128.408
0.379582	131.921
0.409045	134.933
0.443047	137.942
0.470254	139.946
0.504262	142.451
0.533738	144.454
0.563213	146.456
0.594965	147.954
0.626717	149.452
0.656199	150.95
0.690226	151.943
0.719708	153.441
0.75146	154.939
0.783218	155.932
0.814982	156.421
0.846734	157.919
0.878492	158.912
0.910256	159.402
0.939744	160.396
0.969233	161.391
1.00553	162.382
1.03502	162.872
1.06452	163.362
