Adsorption isotherm of Methane on UTSA-25A
DOI: 10.1038/Ncomms1956
Adsorbate Methane: InChIKey VNWKTOKETHGBQD-UHFFFAOYSA-N
Temperature: 296 K
Tabular data in the source: 0
pressure (bar)	uptake (cm3(STP)/cm3)
0.0403428	0.242512
0.0615765	0.363828
0.0976699	0.6061
0.129495	1.02831
0.161333	1.33041
0.188921	1.63226
0.220759	1.93435
0.254722	2.23657
0.286553	2.59872
0.318397	2.84075
0.350241	3.08279
0.379954	3.38476
0.413917	3.68697
0.443636	3.92889
0.47335	4.23086
0.505187	4.53295
0.534913	4.71481
0.566745	5.07696
0.600714	5.31911
0.632551	5.62121
0.66014	5.92306
0.694109	6.16521
0.723828	6.40713
0.753535	6.76916
0.785379	7.01119
0.817217	7.31329
0.846943	7.49514
0.88303	7.79747
0.912743	8.09945
0.942456	8.40142
0.974294	8.70351
1.00398	9.24572
1.03579	9.84812
1.06546	10.5705
