Adsorption isotherm of Carbon Dioxide on Cu-TDPAT
DOI: 10.1038/Ncomms1956
Adsorbate Carbon Dioxide: InChIKey CURLTUGMZLYLDI-UHFFFAOYSA-N
Temperature: 296 K
Tabular data in the source: 0
pressure (bar)	uptake (mol/l)
0.00101269	0.0123261
0.00147687	0.0164197
0.00208976	0.0218727
0.00304763	0.0314206
0.0043124	0.0444601
0.00619484	0.0638677
0.00903432	0.091747
0.012978	0.127877
0.0192144	0.172936
0.0384715	0.259933
0.081822	0.402666
0.112336	0.482614
0.166317	0.578437
0.242551	0.67267
0.34321	0.770537
