Adsorption isotherm of Carbon Dioxide on Cu-SSZ13
DOI: 10.1038/Ncomms1956
Adsorbate Carbon Dioxide: InChIKey CURLTUGMZLYLDI-UHFFFAOYSA-N
Temperature: 296 K
Tabular data in the source: 0
pressure (bar)	uptake (mol/l)
0.00208976	0.0132923
0.00300198	0.0199791
0.0043124	0.0300296
0.00638468	0.0418554
0.0091717	0.0592254
0.0131753	0.0863721
0.0186431	0.120386
0.0271883	0.175566
0.0384715	0.256039
0.081822	0.520443
0.114044	0.682899
0.171414	0.966302
0.238918	1.26793
0.348429	1.68902
0.500524	2.15034
0.719011	2.69667
1.04858	3.33113
