Adsorption isotherm of Carbon Dioxide on CuBTTri-mmen
DOI: 10.1038/Ncomms1956
Adsorbate Carbon Dioxide: InChIKey CURLTUGMZLYLDI-UHFFFAOYSA-N
Temperature: 296 K
Tabular data in the source: 0
pressure (bar)	uptake (mol/l)
0.00101269	0.0232339
0.00145474	0.0323834
0.00212154	0.0444601
0.00295701	0.060126
0.0042478	0.0788943
0.00619484	0.10197
0.00876569	0.129822
0.0127836	0.160366
0.0186431	0.198097
0.0267811	0.241039
0.0390565	0.28457
0.0561054	0.362295
0.0793891	0.434228
0.115778	0.55283
0.166317	0.703827
0.238918	0.896066
0.34321	1.14081
0.471201	1.47449
0.729945	1.79412
1.04858	2.21624
