Adsorption isotherm of Carbon Dioxide on Mg-MOF-74
DOI: 10.1038/Ncomms1956
Adsorbate Carbon Dioxide: InChIKey CURLTUGMZLYLDI-UHFFFAOYSA-N
Temperature: 296 K
Tabular data in the source: 0
pressure (bar)	uptake (mol/l)
0.00745109	1.36917
0.0193352	1.84381
0.0271789	2.33671
0.0349735	2.93915
0.046784	3.57809
0.0747563	4.14402
0.0946804	4.67343
0.114752	4.87424
0.138847	5.09331
0.203175	5.51318
0.255504	5.714
0.299786	5.8783
0.372309	6.00609
0.440792	6.15213
0.517348	6.27992
0.573767	6.35294
0.630153	6.49899
0.670467	6.51724
0.710782	6.5355
0.747047	6.59026
0.787354	6.62677
0.823619	6.68154
0.863926	6.71805
0.936474	6.79108
0.964667	6.8641
1.00095	6.88235
1.04125	6.91886
1.08157	6.93712
1.11784	6.99189
1.15815	7.01014
1.19442	7.06491
1.23473	7.08316
1.271	7.13793
1.31131	7.15619
1.36771	7.26572
1.39593	7.28398
1.43222	7.28398
1.47253	7.30223
1.50881	7.33874
1.54912	7.357
1.5854	7.39351
1.6257	7.43002
1.66601	7.46653
1.70229	7.48479
1.7426	7.5213
1.7829	7.55781
1.81918	7.59432
1.85949	7.61258
1.89577	7.64909
1.93607	7.6856
1.99655	7.70385
