Adsorption isotherm of Carbon Dioxide on CuBTC
DOI: 10.1038/Ncomms1956
Adsorbate Carbon Dioxide: InChIKey CURLTUGMZLYLDI-UHFFFAOYSA-N
Temperature: 296 K
Tabular data in the source: 0
pressure (bar)	uptake (mol/l)
0.0926029	0.310345
0.140933	0.438134
0.209375	0.675456
0.301986	0.967546
0.374485	1.1501
0.438903	1.36917
0.527514	1.58824
0.579885	1.69777
0.632222	1.88032
0.732914	2.1359
0.821526	2.35497
0.890025	2.4645
0.934298	2.64706
1.05514	2.92089
1.12766	3.06694
1.21629	3.23124
1.30091	3.37728
1.36131	3.55984
1.42578	3.65112
1.49025	3.76065
1.59903	3.96146
1.6756	4.05274
1.74006	4.18053
1.82468	4.30832
1.90123	4.45436
1.99389	4.63692
