Adsorption isotherm of Carbon Dioxide on UTSA-25A
DOI: 10.1038/Ncomms1956
Adsorbate Carbon Dioxide: InChIKey CURLTUGMZLYLDI-UHFFFAOYSA-N
Temperature: 296 K
Tabular data in the source: 0
pressure (bar)	uptake (mol/l)
0.25096	20.119
0.284743	22.3519
0.34507	26.3714
0.378853	28.155
0.381266	29.0528
0.40781	30.8394
0.444006	32.6219
0.475376	35.7547
0.504333	37.9897
0.535703	39.7743
0.567073	41.5588
0.596029	43.7938
0.629812	46.4762
0.661182	48.2607
0.697379	50.4927
0.723922	52.7287
0.755292	54.9626
0.784249	56.7482
0.818032	58.9811
0.846989	60.7667
0.883185	62.5492
0.914555	64.7832
0.945925	66.5677
0.974882	68.8027
1.00625	71.0367
1.04004	72.8202
1.06899	74.6057
