Adsorption isotherm of Carbon Dioxide on UTSA-16
DOI: 10.1038/Ncomms1956
Adsorbate Carbon Dioxide: InChIKey CURLTUGMZLYLDI-UHFFFAOYSA-N
Temperature: 296 K
Tabular data in the source: 0
pressure (bar)	uptake (mol/l)
0.0719345	1.44219
0.095899	1.95335
0.123969	2.3002
0.144008	2.57404
0.184159	2.9574
0.204173	3.286
0.256421	3.66937
0.28054	3.83367
0.300612	4.03448
0.368972	4.45436
0.405197	4.60041
0.449478	4.76471
0.485646	5.03854
0.58633	5.31237
0.626554	5.53144
0.739351	5.76876
0.844108	5.95132
0.936768	6.13387
0.985114	6.22515
1.06169	6.31643
1.21081	6.48073
1.27932	6.55375
1.36395	6.66329
1.40023	6.68154
1.44055	6.6998
1.48086	6.71805
1.51714	6.73631
1.55745	6.77282
1.59776	6.79108
1.63405	6.80933
1.67435	6.84584
1.71467	6.8641
1.75095	6.88235
1.79126	6.90061
1.83157	6.93712
1.87188	6.95538
1.90816	6.99189
1.94847	7.01014
1.99281	7.04665
