Adsorption isotherm of Methane on UTSA-34b
DOI: 10.1038/Ncomms1956
Adsorbate Methane: InChIKey VNWKTOKETHGBQD-UHFFFAOYSA-N
Temperature: 296 K
Tabular data in the source: 0
pressure (bar)	uptake (cm3(STP)/cm3)
0.031825	0.422213
0.0636309	1.0246
0.0975742	1.507
0.127262	2.04921
0.159074	2.59154
0.190893	3.07381
0.22483	3.61626
0.256648	4.09854
0.284211	4.64063
0.318155	5.12302
0.34998	5.54523
0.381798	6.02751
0.413617	6.50978
0.439062	6.99169
0.473011	7.41402
0.504824	7.95636
0.536655	8.31851
0.5621	8.80042
0.596037	9.34287
0.634229	9.8255
0.661811	10.1874
0.693643	10.5496
0.725468	10.9718
0.759411	11.4542
0.789112	11.8763
0.816694	12.2382
0.852768	12.6606
0.880344	13.0826
0.912169	13.5048
0.941876	13.8669
0.97795	14.2893
1.00977	14.7115
1.03736	15.0734
1.06919	15.3755
