Adsorption isotherm of Carbon Dioxide on Zn4(OH)2(124-BTC)2
DOI: 10.1038/Ncomms1956
Adsorbate Carbon Dioxide: InChIKey CURLTUGMZLYLDI-UHFFFAOYSA-N
Temperature: 296 K
Tabular data in the source: 0
pressure (bar)	uptake (mol/l)
0.248547	17.4234
0.296808	19.6502
0.448832	29.9232
0.791488	48.6552
0.846989	51.7779
0.904903	54.4501
0.957991	57.1244
1.01349	58.8988
1.07141	61.571
