Adsorption isotherm of Carbon Dioxide on MOF-177
DOI: 10.1038/Ncomms1956
Adsorbate Carbon Dioxide: InChIKey CURLTUGMZLYLDI-UHFFFAOYSA-N
Temperature: 296 K
Tabular data in the source: 0
pressure (bar)	uptake (mol/l)
0.0705549	0.00987378
0.0801521	0.011704
0.114227	0.0169178
0.167469	0.0244541
0.242071	0.0374092
0.330624	0.0496664
0.484728	0.0717912
0.710659	0.106755
1.07185	0.15214
