Adsorption isotherm of Carbon Dioxide on Na-X
DOI: 10.1038/Ncomms1956
Adsorbate Carbon Dioxide: InChIKey CURLTUGMZLYLDI-UHFFFAOYSA-N
Temperature: 296 K
Tabular data in the source: 0
pressure (bar)	uptake (mol/l)
0.0278496	0.839757
0.0478227	1.25963
0.0718609	1.60649
0.0998086	2.22718
0.135837	2.81136
0.167981	3.06694
0.208107	3.50507
0.236202	3.79716
0.304538	4.27181
0.344754	4.50913
0.380963	4.69168
0.437316	4.91075
0.505774	5.11156
0.574249	5.27586
0.634643	5.47667
0.723271	5.65923
0.787722	5.80527
0.864277	5.93306
0.92472	6.02434
1.01742	6.11562
1.14639	6.26166
1.24312	6.35294
1.29955	6.40771
1.36404	6.46247
1.46481	6.5355
1.53739	6.55375
1.64622	6.62677
1.72281	6.68154
1.82762	6.75456
1.88407	6.75456
1.99695	6.80933
