Adsorption isotherm of Methane on UTSA-20a
DOI: 10.1038/Ncomms1956
Adsorbate Methane: InChIKey VNWKTOKETHGBQD-UHFFFAOYSA-N
Temperature: 296 K
Tabular data in the source: 0
pressure (bar)	uptake (cm3(STP)/cm3)
0.0976763	0.546041
0.125252	0.968014
0.157071	1.45029
0.19102	1.87262
0.222858	2.17471
0.25469	2.53686
0.288639	2.9592
0.318346	3.32123
0.345928	3.68314
0.384127	4.10571
0.415965	4.40781
0.445659	4.88996
0.471123	5.19169
0.505079	5.55397
0.534779	5.97606
0.566617	6.27815
0.60056	6.76054
0.628155	7.00234
0.657862	7.36437
0.691818	7.72664
0.723662	7.96868
0.753375	8.27065
0.7852	8.69286
0.819163	8.99508
0.84887	9.35711
0.880714	9.59914
0.908302	9.901
0.946508	10.2635
0.971959	10.6854
1.0038	10.9274
1.03776	11.2897
1.06746	11.7118
