Adsorption isotherm of Methane on Yb(BPT)
DOI: 10.1038/Ncomms1956
Adsorbate Methane: InChIKey VNWKTOKETHGBQD-UHFFFAOYSA-N
Temperature: 296 K
Tabular data in the source: 0
pressure (bar)	uptake (cm3(STP)/cm3)
0.0658513	0.123828
0.0977082	0.245742
0.129552	0.487776
0.161403	0.669749
0.189004	0.851484
0.222986	0.973518
0.254836	1.15549
0.286687	1.33746
0.316413	1.51932
0.348263	1.70129
0.377996	1.82309
0.40984	2.06512
0.441697	2.18703
0.473541	2.42907
0.503273	2.55086
0.53513	2.67278
0.566981	2.85475
0.596707	3.0366
0.630682	3.2187
0.660414	3.34049
0.692265	3.52247
0.724115	3.70444
0.755972	3.82635
0.785698	4.00821
0.817555	4.13012
0.849399	4.37215
0.881263	4.43401
0.908864	4.61574
0.942833	4.8579
0.976808	5.03999
1.00655	5.10172
1.03415	5.2234
1.06813	5.40549
