Adsorption isotherm of Carbon Dioxide on UTSA-20a
DOI: 10.1038/Ncomms1956
Adsorbate Carbon Dioxide: InChIKey CURLTUGMZLYLDI-UHFFFAOYSA-N
Temperature: 296 K
Tabular data in the source: 0
pressure (bar)	uptake (mol/l)
0.25096	19.2201
0.301634	20.9965
0.393331	28.1489
0.472963	33.5086
0.535703	37.0776
0.564659	38.8632
0.629812	41.9818
0.685313	45.5539
0.721509	47.7859
0.757705	49.5684
0.789075	51.3529
0.815619	53.1395
0.849402	54.923
0.878359	56.2591
0.912142	58.0426
0.943512	60.2766
0.974882	61.6117
1.00625	63.3962
1.04245	66.0776
1.06899	67.8642
