Adsorption isotherm of Carbon Dioxide on MFI
DOI: 10.1038/Ncomms1956
Adsorbate Carbon Dioxide: InChIKey CURLTUGMZLYLDI-UHFFFAOYSA-N
Temperature: 296 K
Tabular data in the source: 0
pressure (bar)	uptake (mol/l)
0.0384715	0.0107606
0.055265	0.0154578
0.0805964	0.0222053
0.114044	0.0333758
0.168847	0.0472268
0.246239	0.0688738
0.34321	0.0945586
0.500524	0.139998
0.719011	0.186492
1.04858	0.259933
