Adsorption isotherm of Carbon Dioxide on ZIF-78
DOI: 10.1038/Ncomms1956
Adsorbate Carbon Dioxide: InChIKey CURLTUGMZLYLDI-UHFFFAOYSA-N
Temperature: 296 K
Tabular data in the source: 0
pressure (bar)	uptake (cm3(STP)/cm3)
0.158567	22.6141
0.194845	25.118
0.222038	28.1303
0.256047	30.6353
0.287779	33.6455
0.317255	35.6483
0.349	37.6501
0.378482	39.1488
0.412503	40.6453
0.441979	42.6482
0.471461	44.1469
0.505489	45.1392
0.534971	46.6379
0.564459	47.6323
0.593954	48.1226
0.627982	49.1149
0.659733	50.6125
0.691491	51.6059
0.723255	52.0951
0.750468	53.5948
0.786771	54.0819
0.81626	55.0763
0.843492	55.0634
0.877513	56.56
0.909277	57.0492
0.941035	58.0425
0.972799	58.5317
1.00456	59.5251
1.03633	59.5101
1.06809	60.5035
