Adsorption isotherm of Carbon Dioxide on Cu(BDC-OH)
DOI: 10.1038/Ncomms1956
Adsorbate Carbon Dioxide: InChIKey CURLTUGMZLYLDI-UHFFFAOYSA-N
Temperature: 296 K
Tabular data in the source: 0
pressure (bar)	uptake (mol/l)
0.0772184	6.70903
0.147198	12.0728
0.335417	22.3306
0.366787	24.5645
0.444006	27.2286
0.482615	29.0101
0.518811	30.3432
0.550181	31.6783
0.593616	33.0083
0.629812	33.8919
0.663595	34.7766
0.699792	36.1096
0.738401	36.9922
0.772184	38.3263
0.813206	39.2079
0.849402	39.6421
0.885598	40.0763
0.921794	40.9599
0.962817	41.8415
0.994187	43.1766
1.0328	43.6097
1.07141	44.0429
