Adsorption isotherm of Carbon Dioxide on MIL-101
DOI: 10.1038/Ncomms1956
Adsorbate Carbon Dioxide: InChIKey CURLTUGMZLYLDI-UHFFFAOYSA-N
Temperature: 296 K
Tabular data in the source: 0
pressure (bar)	uptake (cm3(STP)/cm3)
0.0634904	4.0036
0.095242	5.50119
0.120198	5.9936
0.161033	6.9827
0.188253	7.97823
0.22228	8.97055
0.254038	9.96394
0.281263	10.4553
0.313028	10.9445
0.351594	11.9346
0.383358	12.4238
0.410577	13.4194
0.442354	12.9001
0.471843	13.8946
0.501344	13.8806
0.533102	14.874
0.564866	15.3632
0.592092	15.8546
0.628395	16.3416
0.657896	16.3276
0.68966	16.8168
0.719149	17.8113
0.750913	18.3005
0.787222	18.2833
0.812172	19.2799
0.843943	19.2649
0.875707	19.7541
0.907472	20.2433
0.941512	20.2272
0.968737	20.7185
1.0005	21.2077
1.03453	21.6958
1.06403	22.1861
