Adsorption isotherm of Carbon Dioxide on UTSA-16
DOI: 10.1038/Ncomms1956
Adsorbate Carbon Dioxide: InChIKey CURLTUGMZLYLDI-UHFFFAOYSA-N
Temperature: 296 K
Tabular data in the source: 0
pressure (bar)	uptake (mol/l)
0.00143295	0.0105994
0.00208976	0.0147735
0.00286909	0.0215451
0.0043124	0.0309499
0.00619484	0.0444601
0.00876569	0.0638677
0.0127836	0.0931422
0.0186431	0.131796
0.0276018	0.204168
0.0569586	0.396634
0.0805964	0.55283
0.114044	0.770537
0.168847	1.02644
0.235339	1.43065
0.34321	1.96418
0.485641	2.50066
0.719011	3.18367
1.03287	3.87381
