Adsorption isotherm of Methane on Zn4(OH)2(124-BTC)2
DOI: 10.1038/Ncomms1956
Adsorbate Methane: InChIKey VNWKTOKETHGBQD-UHFFFAOYSA-N
Temperature: 296 K
Tabular data in the source: 0
pressure (bar)	uptake (cm3(STP)/cm3)
0.0191027	0.181256
0.0785035	1.02544
0.125163	1.80885
0.184557	2.7131
0.235466	3.49674
0.290624	4.28063
0.345781	5.06452
0.409425	5.969
0.460334	6.75265
0.51338	7.4163
0.570662	8.2003
0.62582	8.98419
0.680978	9.76808
0.736136	10.552
0.791294	11.3358
0.846471	11.9396
0.903753	12.7236
0.952543	13.447
1.01196	14.111
1.06924	14.9551
