Adsorption isotherm of Carbon Dioxide on Zn-MOF-74
DOI: 10.1038/Ncomms1956
Adsorbate Carbon Dioxide: InChIKey CURLTUGMZLYLDI-UHFFFAOYSA-N
Temperature: 296 K
Tabular data in the source: 0
pressure (bar)	uptake (cm3(STP)/cm3)
0.0677875	23.1612
0.099431	33.2303
0.122042	39.7742
0.1605	49.3359
0.189912	56.3808
0.2216	62.9205
0.253301	68.4517
0.284995	74.4871
0.316702	79.5142
0.348409	84.5412
0.377859	88.5609
0.411842	93.0826
0.441299	96.5981
0.470749	100.618
0.500206	104.133
0.531939	107.143
0.563665	110.658
0.595404	113.164
0.62713	116.678
0.658869	119.184
0.688338	121.691
0.720077	124.197
0.751816	126.703
0.779022	128.707
0.810761	131.213
0.844769	133.718
0.876515	135.72
0.905997	137.219
0.937742	139.221
0.971757	141.221
1.0035	143.223
1.03525	145.225
1.06473	146.724
