Adsorption isotherm of Methane on Cu(BDC-OH)
DOI: 10.1038/Ncomms1956
Adsorbate Methane: InChIKey VNWKTOKETHGBQD-UHFFFAOYSA-N
Temperature: 296 K
Tabular data in the source: 0
pressure (bar)	uptake (cm3(STP)/cm3)
0.0573017	0.603827
0.112453	1.44777
0.150633	2.05052
0.2249	2.95561
0.263086	3.4983
0.297036	3.92063
0.335228	4.40326
0.371296	4.88577
0.407383	5.18811
0.44132	5.73056
0.479532	6.03301
0.515594	6.57558
0.555943	6.75803
0.589886	7.24042
0.625954	7.72294
0.664172	7.96533
0.70024	8.44784
0.738452	8.75029
0.776651	9.17286
0.814856	9.53537
0.848812	9.89765
0.884893	10.26
0.918849	10.6223
0.954936	10.9246
0.993141	11.2872
1.03135	11.5896
1.06745	11.8319
