Adsorption isotherm of Carbon Dioxide on JBW
DOI: 10.1038/Ncomms1956
Adsorbate Carbon Dioxide: InChIKey CURLTUGMZLYLDI-UHFFFAOYSA-N
Temperature: 296 K
Tabular data in the source: 0
pressure (bar)	uptake (mol/l)
0.0561653	0.638945
0.0802035	0.985801
0.100242	1.25963
0.148441	1.67951
0.204688	2.1359
0.248912	2.42799
0.309282	2.68357
0.357611	2.81136
0.38982	2.92089
0.438109	3.13996
0.514657	3.286
0.587156	3.46856
0.631453	3.59635
0.72817	3.72414
0.804742	3.81542
0.869209	3.92495
0.92966	3.99797
1.04657	4.05274
1.12314	4.14402
1.22394	4.16227
1.30051	4.25355
1.36904	4.30832
1.46176	4.34483
1.53434	4.36308
1.65529	4.39959
1.75607	4.45436
1.8367	4.49087
1.8891	4.52738
1.99393	4.54564
