Adsorption isotherm of Methane on UTSA-15a
DOI: 10.1038/Ncomms1956
Adsorbate Methane: InChIKey VNWKTOKETHGBQD-UHFFFAOYSA-N
Temperature: 296 K
Tabular data in the source: 0
pressure (bar)	uptake (cm3(STP)/cm3)
0.127447	0.307477
0.161428	0.429511
0.193285	0.551425
0.223018	0.673219
0.25275	0.795013
0.284613	0.856868
0.314346	0.978662
0.346209	1.04052
0.407805	1.22417
0.443917	1.28626
0.475774	1.40817
0.505513	1.46991
0.535264	1.41152
0.569239	1.59362
0.630835	1.77726
0.66058	1.77894
0.696686	1.90109
0.722169	2.02265
0.790152	2.08654
0.839006	2.20941
0.851741	2.33024
0.877224	2.4518
0.92396	2.51449
0.964322	2.57682
0.99406	2.63856
1.0068	2.69934
1.03442	2.70089
1.08751	2.94412
