Adsorption isotherm of Carbon Dioxide on Mg-MOF-74
DOI: 10.1038/Ncomms1956
Adsorbate Carbon Dioxide: InChIKey CURLTUGMZLYLDI-UHFFFAOYSA-N
Temperature: 296 K
Tabular data in the source: 0
pressure (bar)	uptake (cm3(STP)/cm3)
0.00636938	34.7869
0.0129485	52.9351
0.0150717	64.5307
0.0217716	73.099
0.0238947	84.6946
0.0351142	94.7733
0.0666369	114.422
0.0982868	123.987
0.123205	127.505
0.159457	132.025
0.191177	136.044
0.22064	139.055
0.252379	141.561
0.286387	144.066
0.315869	145.565
0.347614	147.567
0.381635	149.063
0.411117	150.562
0.442863	152.564
0.472351	153.558
0.504096	155.56
0.535848	157.058
0.563061	158.557
0.594825	159.047
0.62884	161.047
0.656053	162.547
0.687823	162.532
0.721838	164.533
0.751314	166.536
0.783078	167.025
0.81256	168.523
0.846594	169.012
0.876082	170.006
0.907834	171.504
0.939592	172.497
0.971356	172.986
1.00084	174.485
1.03487	175.477
1.06436	175.967
