Adsorption isotherm of Carbon Dioxide on UTSA-20a
DOI: 10.1038/Ncomms1956
Adsorbate Carbon Dioxide: InChIKey CURLTUGMZLYLDI-UHFFFAOYSA-N
Temperature: 296 K
Tabular data in the source: 0
pressure (bar)	uptake (cm3(STP)/cm3)
0.0203922	2.51137
0.0339955	3.51334
0.06801	5.51407
0.0974795	8.02115
0.120141	10.5314
0.160944	14.0416
0.19042	16.0444
0.222159	18.5504
0.256161	21.5596
0.287906	23.5614
0.317382	25.5643
0.349108	29.0787
0.380853	31.0805
0.412599	33.0823
0.444337	35.5883
0.47155	37.088
0.503289	39.594
0.535034	41.5958
0.596249	46.1047
0.627994	48.1065
0.752712	55.6106
0.784445	58.6208
0.813933	59.6152
0.845678	61.617
0.879693	63.6178
0.906906	65.1175
0.938651	67.1193
0.970403	68.6169
1.00442	70.6176
1.03616	72.6194
1.06565	73.6139
