Adsorption isotherm of Carbon Dioxide on Zn5(BTA)6(TDA)2
DOI: 10.1038/Ncomms1956
Adsorbate Carbon Dioxide: InChIKey CURLTUGMZLYLDI-UHFFFAOYSA-N
Temperature: 296 K
Tabular data in the source: 0
pressure (bar)	uptake (cm3(STP)/cm3)
0.0996916	12.5579
0.124635	14.0587
0.160906	17.0668
0.190389	18.5655
0.224403	20.5662
0.256148	22.568
0.290169	24.0645
0.321914	26.0663
0.349134	27.0618
0.380885	28.5594
0.4149	30.5602
0.444388	31.5546
0.476153	32.0438
0.505641	33.0383
0.535123	34.5369
0.569151	35.5293
0.598646	36.0195
0.628134	37.014
0.659892	38.0074
0.693919	38.9997
0.723414	39.49
0.755179	39.9791
0.784667	40.9736
0.816419	42.4712
0.845914	42.9615
0.875409	43.4517
0.911705	44.443
0.943463	45.4364
0.975227	45.9255
1.00699	46.4147
1.03422	46.9061
1.06824	47.8984
