Adsorption isotherm of Carbon Dioxide on Cu-TDPAT
DOI: 10.1038/Ncomms1956
Adsorbate Carbon Dioxide: InChIKey CURLTUGMZLYLDI-UHFFFAOYSA-N
Temperature: 296 K
Tabular data in the source: 0
pressure (bar)	uptake (mol/l)
0.0280377	0.419878
0.0562144	0.529412
0.0803507	0.657201
0.100455	0.78499
0.144744	0.931034
0.205114	1.18661
0.301781	1.42394
0.362208	1.55172
0.438723	1.77079
0.519302	1.91684
0.567649	2.00811
0.644188	2.17241
0.736848	2.35497
0.849678	2.51927
0.930266	2.64706
1.04712	2.82961
1.19221	2.99391
1.27279	3.1217
1.36146	3.23124
1.48235	3.39554
1.57505	3.48682
1.66774	3.59635
1.75236	3.72414
1.84909	3.83367
1.92163	3.92495
1.99823	3.96146
