Adsorption isotherm of Carbon Dioxide on Yb(BPT)
DOI: 10.1038/Ncomms1956
Adsorbate Carbon Dioxide: InChIKey CURLTUGMZLYLDI-UHFFFAOYSA-N
Temperature: 296 K
Tabular data in the source: 0
pressure (bar)	uptake (cm3(STP)/cm3)
0.0703365	0.975153
0.0975558	1.97069
0.122518	1.95889
0.192849	3.43825
0.226889	3.42216
0.256383	3.91241
0.283603	4.90795
0.317636	5.39606
0.351676	5.37997
0.378896	6.37551
0.412929	6.86362
0.44243	6.84967
0.471925	7.33993
0.503683	8.33332
0.535448	8.82251
0.564949	8.80856
0.594437	9.80303
0.628477	9.78693
0.660235	10.7803
0.692006	10.7653
0.719232	11.2566
0.753265	11.7448
0.785029	12.2339
0.816794	12.7231
0.848564	12.7081
0.875784	13.7036
0.912086	14.1907
0.941581	14.6809
0.973352	14.6659
1.00738	15.6582
1.03688	15.6443
1.06864	16.1335
