Adsorption isotherm of Carbon Dioxide on Bio-MOF-11
DOI: 10.1038/Ncomms1956
Adsorbate Carbon Dioxide: InChIKey CURLTUGMZLYLDI-UHFFFAOYSA-N
Temperature: 296 K
Tabular data in the source: 0
pressure (bar)	uptake (cm3(STP)/cm3)
0.0316435	10.0691
0.0701204	18.1181
0.0995327	25.163
0.126695	30.6964
0.160639	38.2434
0.192346	43.2704
0.224041	49.3059
0.255754	53.8287
0.285205	57.8484
0.319187	62.3701
0.346381	65.3825
0.378114	68.3927
0.40757	71.9082
0.439303	74.9184
0.468766	77.9297
0.498229	80.9409
0.532237	83.4459
0.56397	86.4561
0.595715	88.4579
0.62746	90.4597
0.659199	92.9657
0.686406	94.9696
0.72269	96.9693
0.752165	98.9722
0.783911	100.974
0.815662	102.472
0.845138	104.474
0.879153	106.475
0.908635	107.974
0.935848	109.474
0.974407	110.968
1.00163	111.963
1.03564	113.964
1.06513	114.959
