Adsorption isotherm of Carbon Dioxide on MOF-177
DOI: 10.1038/Ncomms1956
Adsorbate Carbon Dioxide: InChIKey CURLTUGMZLYLDI-UHFFFAOYSA-N
Temperature: 296 K
Tabular data in the source: 0
pressure (bar)	uptake (cm3(STP)/cm3)
0.161097	1.94065
0.192868	1.92563
0.224638	1.91061
0.254133	2.40087
0.285897	2.89006
0.317662	3.37924
0.344894	3.36637
0.381197	3.85341
0.406147	4.85002
0.442456	4.83286
0.467419	4.82106
0.501458	4.80496
0.533223	5.29415
0.567256	5.78226
0.596745	6.77673
0.626253	6.25857
0.660286	6.74669
0.689787	6.73274
0.721558	6.71772
0.751047	7.71219
0.782817	7.69717
0.814582	8.18635
0.848615	8.67447
0.875847	8.66159
0.909887	8.6455
0.941651	9.13469
0.971146	9.62495
1.00518	10.1131
1.03695	10.098
1.06645	10.0841
