Adsorption isotherm of Carbon Dioxide on Zn(BDC)(DABCO)0.5
DOI: 10.1038/Ncomms1956
Adsorbate Carbon Dioxide: InChIKey CURLTUGMZLYLDI-UHFFFAOYSA-N
Temperature: 296 K
Tabular data in the source: 0
pressure (bar)	uptake (mol/l)
0.0322417	0.0365112
0.0927092	0.0730223
0.14512	0.0912779
0.217693	0.109533
0.298281	0.237323
0.358756	0.255578
0.435337	0.3286
0.479691	0.3286
0.519998	0.365112
0.556272	0.401623
0.596586	0.419878
0.677207	0.474645
0.713472	0.529412
0.753779	0.565923
0.794085	0.602434
0.830367	0.62069
0.870673	0.657201
0.935165	0.711968
0.975487	0.711968
1.01175	0.766734
1.04803	0.803245
1.08833	0.839757
1.12461	0.876268
1.16491	0.912779
1.20118	0.967546
1.24149	0.985801
1.2818	1.02231
1.31807	1.05882
1.37049	1.05882
1.40675	1.13185
1.44706	1.16836
1.48333	1.20487
1.52364	1.24138
1.55991	1.27789
1.60022	1.3144
1.64052	1.35091
1.6768	1.38742
1.7171	1.42394
1.75338	1.46045
1.79368	1.49696
1.82997	1.51521
1.87027	1.55172
1.90654	1.60649
1.94684	1.643
2.00327	1.69777
