Adsorption isotherm of Methane on UTSA-16
DOI: 10.1038/Ncomms1956
Adsorbate Methane: InChIKey VNWKTOKETHGBQD-UHFFFAOYSA-N
Temperature: 296 K
Tabular data in the source: 0
pressure (bar)	uptake (cm3(STP)/cm3)
0.036036	0.78281
0.0657109	1.44514
0.0953858	2.10747
0.127173	2.89004
0.156847	3.55238
0.190765	4.27501
0.222577	4.81734
0.252252	5.47967
0.28617	6.2023
0.313714	6.92457
0.34552	7.52696
0.375195	8.1893
0.409119	8.85187
0.438807	9.39408
0.472724	10.1167
0.502406	10.719
0.534186	11.5616
0.565992	12.164
0.59566	12.8864
0.629591	13.4889
0.663521	14.0914
0.688947	14.7535
0.720746	15.416
0.754677	16.0185
0.784358	16.6207
0.814033	17.2831
0.847964	17.8856
0.881894	18.4881
0.911575	19.0904
0.943381	19.6928
0.97305	20.4152
1.00697	21.0777
1.03665	21.7401
1.06419	22.4623
