Adsorption isotherm of Carbon Dioxide on Na-X
DOI: 10.1038/Ncomms1956
Adsorbate Carbon Dioxide: InChIKey CURLTUGMZLYLDI-UHFFFAOYSA-N
Temperature: 296 K
Tabular data in the source: 0
pressure (bar)	uptake (mol/l)
0.00185208	0.0101302
0.00199725	0.011604
0.00300198	0.0166694
0.0042478	0.0235872
0.00638468	0.0354528
0.00889899	0.0486741
0.0131753	0.0699212
0.0186431	0.105095
0.0263799	0.146482
0.0384715	0.213624
0.0569586	0.288897
0.163826	0.758995
0.235339	1.05789
0.348429	1.40922
0.500524	1.74078
0.708241	2.18304
1.04858	2.65627
