Adsorption isotherm of Carbon Dioxide on Zn(bdc)(dabco)
DOI: 10.1038/Ncomms1956
Adsorbate Carbon Dioxide: InChIKey CURLTUGMZLYLDI-UHFFFAOYSA-N
Temperature: 296 K
Tabular data in the source: 0
pressure (bar)	uptake (cm3(STP)/cm3)
0.120224	3.97678
0.161053	5.47008
0.19281	6.46347
0.226838	7.45579
0.285821	8.94051
0.319836	10.9412
0.344792	11.4336
0.378807	13.4344
0.408301	13.9246
0.442335	14.4127
0.471811	16.4156
0.5013	17.4101
0.535327	18.4024
0.564803	20.4053
0.594291	21.3997
0.626043	22.8973
0.660064	24.3939
0.689565	24.3799
0.721304	26.8859
0.753062	27.8793
0.78255	28.8738
0.816571	30.3703
0.846053	31.869
0.877811	32.8623
0.909569	33.8557
0.941321	35.3533
0.968527	37.3573
1.00255	38.8538
1.03658	39.3419
1.06833	41.3437
