Adsorption isotherm of Carbon Dioxide on (NiCl2)tppe
DOI: 10.1039/c5ra18499a
Article source: Figure 7d- CO2
Adsorbate Carbon Dioxide: InChIKey CURLTUGMZLYLDI-UHFFFAOYSA-N
Kind: experiment
Isotherm type: excess
Temperature: 258 K
Tabular data in the source: 0
pressure (bar)	uptake (mg/g)
0.2062	17.974
0.3634	26.995
0.5815	33.251
0.7441	38.316
0.908	42.073
1.1232	45.78
1.5148	51.524
1.8994	56.539
2.2312	60.412
2.6102	64.252
2.9947	67.331
3.3792	71.155
4.1467	75.641
4.8573	80.606
5.5194	85.208
6.1815	89.578
6.8366	94.147
7.4889	97.159
8.144	101.563
8.8616	106.032
9.5139	109.177
10.1801	113.547
10.892	115.467
11.5498	117.984
12.5879	123.066
13.5761	128.115
14.617	133.13
15.6038	138.808
16.5865	145.727
17.5802	152.017
18.5588	159.714
0.0393	12.649
0.0854	20.911
0.1647	27.665
0.3885	40.447
0.7301	50.115
1.1437	58.973
1.5393	64.634
1.925	69.601
2.3635	74.7
2.8006	78.475
3.3404	83.656
3.8926	88.159
4.4489	92.529
4.99	95.658
5.5436	99.548
6.0958	102.528
6.6396	105.756
7.1904	108.388
7.7398	111.55
8.2739	114.728
8.833	117.195
9.3671	119.794
10.4186	124.081
11.4633	129.212
12.5037	132.87
13.4873	137.472
14.5235	139.359
15.5695	143.629
16.5531	148.049
17.545	153.065
