Adsorption isotherm of Hydrogen on (NiCl2)tppe
DOI: 10.1039/c5ra18499a
Article source: Figure 7d- H2
Adsorbate Hydrogen: InChIKey UFHFLCQGNIYNRP-UHFFFAOYSA-N
Kind: experiment
Isotherm type: excess
Temperature: 77 K
Tabular data in the source: 0
pressure (bar)	uptake (mg/g)
0.0335	2.184
0.4095	3.888
0.6399	4.715
0.9076	4.747
1.1767	4.714
1.4598	5.325
1.7872	5.391
2.0619	5.39
2.3823	5.455
2.7181	5.967
3.1509	5.95
5.1264	6.557
6.6052	6.554
8.0299	6.6
9.456	6.513
10.9306	6.559
12.3553	6.523
13.8355	6.618
15.3157	6.598
16.7363	6.611
17.946	6.476
19.0918	6.506
0.1087	0.035
0.265	1.462
0.4288	1.92
1.3625	3.592
1.6026	3.542
2.5071	4.436
3.0246	4.916
3.7905	4.949
4.4897	5.693
5.9742	5.677
9.1074	6.457
10.3083	6.256
11.5125	6.422
12.6626	6.471
15.0794	6.438
16.2822	6.521
17.485	6.389
18.6379	6.405
19.8518	6.389
