Adsorption isotherm of Methane on (MnCl2)tppe
DOI: 10.1039/c5ra18499a
Article source: Figure 7c- CH4
Adsorbate Methane: InChIKey VNWKTOKETHGBQD-UHFFFAOYSA-N
Kind: experiment
Isotherm type: excess
Temperature: 258 K
Tabular data in the source: 0
pressure (bar)	uptake (mg/g)
0.0043	0.146
0.1702	0.985
0.4162	1.614
0.5992	1.978
1.4988	3.827
1.8906	4.473
2.1852	5.093
3.0832	5.555
3.9942	6.235
4.8379	6.898
5.6845	7.223
7.0945	7.929
8.5102	7.923
9.9202	8.63
11.333	9.281
12.7459	9.321
14.1601	9.297
15.5115	9.647
16.9272	10.034
18.3329	8.558
0.0501	1.068
0.3177	2.135
0.4837	2.756
0.7026	3.385
1.2763	4.534
3.7655	6.144
4.4394	6.617
5.1174	6.515
6.5394	6.932
8.5664	7.383
9.9741	7.581
11.3917	7.605
12.7478	7.611
14.1598	7.553
15.5717	7.961
16.9965	8.277
