Adsorption isotherm of Methane on (NiCl2)tppe
DOI: 10.1039/c5ra18499a
Article source: Figure 7d- CH4
Adsorbate Methane: InChIKey VNWKTOKETHGBQD-UHFFFAOYSA-N
Kind: experiment
Isotherm type: excess
Temperature: 258 K
Tabular data in the source: 0
pressure (bar)	uptake (mg/g)
1.8478	6.776
2.1782	6.81
2.4877	7.076
2.8819	7.872
3.2664	8.403
3.7106	9.1
4.0964	9.151
4.9126	10.312
5.7343	11.01
6.5519	12.271
7.3208	12.373
8.0926	12.921
9.1918	13.521
10.2231	14.153
11.2613	14.802
12.362	14.938
13.4057	15.372
14.4522	15.442
15.4932	16.107
16.5286	16.094
17.6292	16.065
18.6619	16.515
19.7057	17.33
4.2285	9.43
4.7183	10.16
5.2651	10.757
6.3544	11.885
6.9137	12.549
7.5131	12.617
8.6094	13.215
10.0304	14.427
10.8657	14.479
11.74	15.061
12.5725	15.079
13.4176	15.495
14.3029	15.746
15.13	15.682
16.0028	15.75
16.8937	16.481
17.7679	16.367
19.5233	16.355
