Adsorption isotherm of Carbon Dioxide on (MnCl2)tppe
DOI: 10.1039/c5ra18499a
Article source: Figure 7c- CO2
Adsorbate Carbon Dioxide: InChIKey CURLTUGMZLYLDI-UHFFFAOYSA-N
Kind: experiment
Isotherm type: excess
Temperature: 258 K
Tabular data in the source: 0
pressure (bar)	uptake (mg/g)
0.0018	1.611
0.156	14.861
0.3153	20.514
0.4859	25.436
0.7123	28.906
0.8799	31.663
1.102	34.814
1.4471	38.676
1.8423	41.808
2.176	45.278
2.5153	48.054
2.9133	50.921
3.7078	55.468
4.435	60.015
5.1749	62.407
6.5332	68.003
7.9444	72.212
9.2996	75.324
10.659	77.405
12.0142	80.189
13.3739	84.361
14.7276	86.14
16.0339	86.787
17.3846	87.187
18.6896	87.852
0.0077	7.909
0.0208	10.147
0.0715	13.441
0.0782	13.572
0.3368	28.597
0.5075	34.168
0.738	37.657
1.3037	45.75
1.809	50.4
2.3845	55.607
3.1101	59.407
3.7914	63.29
4.4583	66.788
5.1966	68.844
5.872	71.019
6.556	73.057
7.2343	75.158
7.914	77.242
9.2689	79.646
10.6281	81.072
11.983	82.161
13.3479	83.441
14.6984	83.48
16.0517	82.45
17.4124	84.899
