Adsorption isotherm of Nitrogen on C15H13O13La
DOI: 10.1021/Cg100078b
Adsorbate Nitrogen: InChIKey IJGRMHOSHXDMSA-UHFFFAOYSA-N
Temperature: 77 K
Tabular data in the source: 0
pressure (bar)	uptake (cm3(STP)/g)
0.0116759	0.0810811
0.0350278	0.243243
0.0650748	0.243243
0.0984694	0.162162
0.11851	0.0810811
0.14188	0.0810811
0.170257	0.0810811
0.190289	0.0810811
0.213677	-0.0810811
0.242063	-0.162162
0.265442	-0.243243
0.29216	-0.324324
0.310531	-0.405405
0.337239	-0.405405
0.360618	-0.486486
0.383997	-0.567568
0.410733	-0.810811
0.432433	-0.810811
0.454152	-0.972973
0.480869	-1.05405
0.504248	-1.13514
0.530966	-1.21622
0.556014	-1.2973
0.579411	-1.54054
0.602781	-1.54054
0.62782	-1.54054
0.654547	-1.7027
0.676265	-1.86486
0.702983	-1.94595
0.726353	-1.94595
0.748062	-2.02703
0.77478	-2.10811
0.798141	-2.02703
0.826518	-2.02703
0.849888	-2.02703
0.874918	-1.94595
0.898243	-1.54054
0.92487	-0.810811
0.933145	-0.162162
0.944694	1.05405
0.952896	2.35135
0.957688	4.2973
0.960972	4.78378
0.96182	12.1622
0.962966	16.8649
0.963923	8.27027
