Adsorption isotherm of Carbon Dioxide on C15H13O13La
DOI: 10.1021/Cg100078b
Adsorbate Carbon Dioxide: InChIKey CURLTUGMZLYLDI-UHFFFAOYSA-N
Temperature: 273 K
Tabular data in the source: 0
pressure (bar)	uptake (cm3(STP)/g)
0.00738968	1.60377
0.02017	2.73585
0.0492845	4.24528
0.0583828	4.71698
0.0801674	5.28302
0.100141	5.84906
0.121917	6.32075
0.141873	6.69811
0.165469	7.26415
0.183606	7.54717
0.205373	7.92453
0.228952	8.30189
0.2489	8.58491
0.272479	8.96226
0.292452	9.5283
0.3124	9.81132
0.334176	10.283
0.354124	10.566
0.395856	11.4151
0.413993	11.6981
0.457537	12.5472
0.477493	12.9245
0.50108	13.3962
0.517397	13.5849
0.535551	14.0566
0.577275	14.8113
0.597223	15.0943
0.658903	16.2264
0.696997	16.8868
0.718764	17.2642
0.744162	17.7358
0.760488	18.0189
0.791337	18.6792
0.822168	19.1509
0.845756	19.6226
0.878407	20.1887
0.900174	20.566
0.929204	21.1321
0.940079	21.2264
0.97273	21.7925
0.974541	21.7925
0.989064	22.1698
1.00177	22.4528
1.03623	23.0189
1.0453	23.2075
