Adsorption isotherm of Nitrogen on LiZnC9H3O6
DOI: 10.1021/Ic902077j
Adsorbate Nitrogen: InChIKey IJGRMHOSHXDMSA-UHFFFAOYSA-N
Temperature: 77 K
Tabular data in the source: 0
pressure (bar)	uptake (cm3(STP)/g)
0.000693363	90.0292
0.00150475	49.106
0.00166702	165.921
0.00258167	119.79
0.0039979	173.36
0.0138378	177.073
0.033606	180.034
0.0556166	194.898
0.0753406	200.091
0.090152	203.056
0.114936	203.037
0.129806	203.026
0.147141	203.756
0.169417	205.227
0.191722	205.21
0.241261	206.66
0.288351	206.624
0.340382	207.329
0.387472	207.293
0.439519	207.253
0.48413	207.219
0.53122	207.182
0.580788	207.144
0.647705	207.093
0.694794	207.057
0.727014	207.032
0.776567	207.739
0.801366	206.976
0.823657	207.703
0.848455	206.939
0.890574	207.651
0.900487	207.644
0.9203	208.373
0.937648	208.359
0.952504	209.092
0.96736	209.825
