Adsorption isotherm of Carbon Dioxide on LiZnC9H3O6
DOI: 10.1021/Ic902077j
Adsorbate Carbon Dioxide: InChIKey CURLTUGMZLYLDI-UHFFFAOYSA-N
Temperature: 195 K
Tabular data in the source: 0
pressure (bar)	uptake (cm3(STP)/g)
0.00474502	20.8299
0.00671698	50.5903
0.00690185	41.6616
0.00710213	31.9888
0.00896624	66.9577
0.00910489	60.2612
0.0137112	87.7876
0.0138807	79.6029
0.0187182	95.9684
0.0211216	104.895
0.0235403	113.078
0.0363425	119.765
0.0413957	125.714
0.0490525	130.916
0.0644429	137.602
0.0824525	142.797
0.105654	147.244
0.152133	152.418
0.21157	156.839
0.312416	161.229
0.415882	164.13
0.514173	167.034
0.622846	168.442
0.721166	169.858
0.819487	171.274
0.922984	172.686
1.01616	172.618
