Adsorption isotherm of Argon on LiZnC9H3O6
DOI: 10.1021/Ic902077j
Adsorbate Argon: InChIKey XKRFYHLGVUSROY-UHFFFAOYSA-N
Temperature: 87 K
Tabular data in the source: 0
pressure (bar)	uptake (cm3(STP)/g)
0.00125169	187.499
0.0014603	177.082
0.0083595	207.583
0.00850851	200.142
0.0256447	219.475
0.0604387	232.097
0.0754143	234.318
0.0953967	236.535
0.112876	238.754
0.135361	240.969
0.157877	241.696
0.175371	243.171
0.195338	246.132
0.242873	247.584
0.290392	249.78
0.340445	250.486
0.390468	252.68
0.435484	254.878
0.490543	255.58
0.533071	257.036
0.585612	258.485
0.633176	258.448
0.683199	260.643
0.730748	261.351
0.783305	262.055
0.79831	262.788
0.830824	264.251
0.853355	264.234
0.880862	265.701
0.905881	266.426
0.925893	267.155
0.9534	268.622
0.970864	271.585
