Adsorption isotherm of Nitrogen on LiZnC9H3O6
DOI: 10.1021/Ic902077j
Adsorbate Nitrogen: InChIKey IJGRMHOSHXDMSA-UHFFFAOYSA-N
Temperature: 77 K
Tabular data in the source: 0
pressure (bar)	uptake (wt%)
0.0110871	0.0850242
0.0288265	0.162319
0.0510007	0.289855
0.0776097	0.405797
0.108654	0.490821
0.135263	0.568116
0.159654	0.637681
0.188481	0.695652
0.21509	0.761353
0.241699	0.811594
0.268308	0.854106
0.337048	0.942995
0.401353	1.02415
0.463441	1.08986
0.534398	1.14783
0.598703	1.20193
0.667443	1.25217
0.736183	1.29469
0.800489	1.33333
0.871446	1.37585
0.933534	1.40676
0.960143	1.41836
0.988969	1.43768
1.01558	1.45314
