Adsorption isotherm of Nitrogen on LiZnC9H3O6
DOI: 10.1021/Ic902077j
Adsorbate Nitrogen: InChIKey IJGRMHOSHXDMSA-UHFFFAOYSA-N
Temperature: 87 K
Tabular data in the source: 0
pressure (bar)	uptake (wt%)
0.00886968	0.0309179
0.0243916	0.0657005
0.0532181	0.123671
0.0820445	0.185507
0.106436	0.231884
0.135263	0.282126
0.159654	0.336232
0.188481	0.374879
0.21509	0.417391
0.241699	0.459903
0.270525	0.490821
0.33483	0.571981
0.401353	0.637681
0.465658	0.699517
0.534398	0.757488
0.600921	0.819324
0.667443	0.8657
0.733966	0.904348
0.800489	0.94686
0.871446	0.989372
0.933534	1.02802
0.96236	1.04348
0.986752	1.05894
1.02001	1.07826
