Adsorption isotherm of Hydrogen on Janus IRMOF-2@MOF-5
DOI: 10.1039/C3ce40653a
Adsorbate Hydrogen: InChIKey UFHFLCQGNIYNRP-UHFFFAOYSA-N
Temperature: 77 K
Tabular data in the source: 0
pressure (bar)	uptake (wt%)
0.00482129	0.0158567
0.389989	0.356704
0.647124	0.646839
0.909081	0.95283
1.27496	1.23025
1.62156	1.44424
2.0769	1.64552
2.47064	1.82938
2.72189	1.91495
3.09634	2.03537
3.46597	2.13994
3.88757	2.23022
4.41791	2.30779
4.77308	2.36479
5.25146	2.45664
5.6018	2.49779
6.06572	2.54207
6.65285	2.62121
7.47675	2.73835
8.45654	2.81263
9.26599	2.8822
10.189	2.95492
11.1072	3.01177
12.9532	3.1572
14.7799	3.23919
16.6115	3.33705
18.5614	3.4539
20.3458	3.5819
22.1774	3.67975
24.009	3.77761
25.7789	3.85803
27.6201	3.9876
