Adsorption isotherm of Hydrogen on Janus MOF-5@IRMOF-2
DOI: 10.1039/C3ce40653a
Adsorbate Hydrogen: InChIKey UFHFLCQGNIYNRP-UHFFFAOYSA-N
Temperature: 77 K
Tabular data in the source: 0
pressure (bar)	uptake (wt%)
0.15321	0.318705
0.267849	0.510557
0.676052	0.741979
0.729086	0.916402
1.00926	1.09711
1.223	1.24454
1.71209	1.55681
2.16744	1.75809
2.42832	1.87537
2.92599	2.03066
3.36687	2.18437
3.56615	2.28422
3.879	2.38722
4.06863	2.45536
4.37666	2.5425
4.62308	2.61221
4.99271	2.71678
5.3527	2.78963
5.71269	2.86249
6.08233	2.96706
6.50874	3.0732
6.86873	3.14605
7.2239	3.20305
7.71192	3.32662
7.9487	3.36462
8.84385	3.5309
9.50223	3.65918
10.3213	3.76046
11.1452	3.8776
11.9643	3.97889
13.6544	4.16717
15.2781	4.32216
16.9586	4.47873
18.6959	4.63687
20.4755	4.74901
22.1983	4.85958
23.9259	4.986
25.7055	5.09814
27.5939	5.19757
