Adsorption isotherm of Hydrogen on Core-Shell IRMOF-2@MOF-5
DOI: 10.1039/C3ce40653a
Adsorbate Hydrogen: InChIKey UFHFLCQGNIYNRP-UHFFFAOYSA-N
Temperature: 77 K
Tabular data in the source: 0
pressure (bar)	uptake (wt%)
0.83569	0.526271
1.9253	0.776549
3.10438	0.950687
4.33541	1.11054
5.50484	1.25296
6.71659	1.34939
7.92834	1.44582
9.14492	1.5581
10.2383	1.63552
11.45	1.73195
12.7137	1.81409
13.8119	1.90737
15.014	1.97209
16.2161	2.0368
17.3711	2.13165
18.2797	2.1568
19.5482	2.25479
20.708	2.3655
21.9053	2.41436
22.9938	2.47593
23.6281	2.52493
