Adsorption isotherm of Hydrogen on Janus MOF-5@IRMOF-2
DOI: 10.1039/C3ce40653a
Adsorbate Hydrogen: InChIKey UFHFLCQGNIYNRP-UHFFFAOYSA-N
Temperature: 294 K
Tabular data in the source: 0
pressure (bar)	uptake (wt%)
0.128457	0.0012543
1.08257	0.00694521
2.09315	0.0101663
3.10994	0.015865
4.0625	0.0209365
5.01816	0.0272468
6.03495	0.0329455
7.11131	0.0374132
7.87584	0.0424614
8.76417	0.0469058
9.65561	0.0525889
10.6082	0.0576605
11.31	0.0627009
12.261	0.0671531
13.0882	0.0722091
13.9155	0.0772651
14.7427	0.0823211
15.5072	0.0873693
16.2733	0.0930369
17.1005	0.0980929
17.8604	0.101283
18.6845	0.1051
19.3817	0.108283
20.2073	0.112719
20.8418	0.115894
21.6628	0.118472
22.4258	0.122901
23.1246	0.126703
23.8249	0.131124
24.5252	0.135545
25.2866	0.139354
25.9869	0.143775
26.7468	0.146966
27.3171	0.149513
