Adsorption isotherm of Hydrogen on IRMOF-1
DOI: 10.1039/C3ce40653a
Adsorbate Hydrogen: InChIKey UFHFLCQGNIYNRP-UHFFFAOYSA-N
Temperature: 294 K
Tabular data in the source: 0
pressure (bar)	uptake (wt%)
0.76298	0.00442885
1.40216	0.00946157
1.97556	0.0132477
2.48473	0.0164068
2.997	0.0208046
3.44195	0.0233365
4.14535	0.0289963
4.71875	0.0327825
5.22948	0.0365609
5.6164	0.0409432
6.12557	0.0441022
6.50628	0.046007
6.89321	0.0503893
7.46505	0.053556
8.10268	0.0579694
8.48339	0.0598741
8.86721	0.0630176
9.31215	0.0655495
9.69442	0.0680736
10.2051	0.071852
10.4009	0.0749723
10.8474	0.0781235
11.2281	0.0800283
11.7435	0.0856648
12.0004	0.0881734
12.3216	0.0913092
12.8934	0.094476
13.2741	0.0963807
13.5937	0.0988971
13.976	0.101421
14.294	0.103318
14.8048	0.107097
15.1228	0.108994
15.4424	0.11151
15.9516	0.114669
16.2711	0.117185
16.5938	0.12094
16.9119	0.122837
17.3568	0.125369
17.6764	0.127886
18.0587	0.13041
18.3783	0.132926
18.6963	0.134823
19.1428	0.137974
19.5893	0.141126
19.9058	0.142403
20.2896	0.145547
20.6734	0.14869
20.9899	0.149968
21.2484	0.153096
21.7544	0.155016
22.0725	0.156913
22.4578	0.160676
22.7728	0.161334
23.0955	0.165089
23.6658	0.167637
23.9853	0.170153
24.1765	0.171415
24.4318	0.173304
24.8126	0.175209
25.2606	0.17898
25.6429	0.181504
26.0267	0.184647
26.3416	0.185305
26.6581	0.186583
