Adsorption isotherm of Hydrogen on IRMOF-1
DOI: 10.1039/C3ce40653a
Adsorbate Hydrogen: InChIKey UFHFLCQGNIYNRP-UHFFFAOYSA-N
Temperature: 77 K
Tabular data in the source: 0
pressure (bar)	uptake (wt%)
0.101719	0.143295
0.193479	0.255079
0.36704	0.447135
0.535623	0.623435
0.776048	0.848496
0.98162	0.963268
1.29887	1.25285
1.45251	1.38188
1.61114	1.52667
2.08914	1.78921
2.24279	1.91825
2.51024	2.05027
2.83958	2.19954
3.15399	2.30154
3.41646	2.41781
3.73584	2.53557
4.12209	2.68633
4.38457	2.80259
4.81278	2.90759
4.96145	3.02086
5.32778	3.1086
5.75599	3.21359
6.06541	3.29984
6.49861	3.42059
6.75112	3.50534
7.66446	3.71682
8.44904	3.87804
9.17174	4.02201
10.0083	4.16897
10.8497	4.33168
11.6763	4.44713
12.5548	4.54831
13.3294	4.67802
14.146	4.76196
15.0714	4.83312
15.7842	4.94558
16.6527	5.01526
17.635	5.08792
18.3947	5.17036
19.2013	5.22278
20.2455	5.3127
21.0522	5.36512
21.9776	5.43629
22.8411	5.49021
23.7047	5.54412
24.6251	5.59953
25.4837	5.6377
26.1715	5.67138
26.6936	5.71633
26.9213	5.72231
27.2058	5.72978
27.3196	5.73276
27.661	5.74173
28.1213	5.76943
28.5196	5.77989
