Adsorption isotherm of Hydrogen on IRMOF-2
DOI: 10.1039/C3ce40653a
Adsorbate Hydrogen: InChIKey UFHFLCQGNIYNRP-UHFFFAOYSA-N
Temperature: 294 K
Tabular data in the source: 0
pressure (bar)	uptake (wt%)
2.14806	0.00707716
3.22753	0.0127836
4.30389	0.0172513
5.31447	0.0204724
6.19969	0.023678
7.08492	0.0268836
8.03282	0.0300969
9.04806	0.0351762
9.93484	0.0390012
10.8201	0.0422068
11.7649	0.0441814
12.5874	0.0473792
13.3457	0.0499499
14.1667	0.0525284
15.1162	0.0563611
15.9403	0.0601784
16.7002	0.0633684
17.4569	0.0653197
18.4111	0.0710107
19.044	0.0735658
19.9261	0.0755326
20.6829	0.077484
21.5008	0.0788236
22.3249	0.0826409
22.889	0.0827107
23.71	0.0852892
24.4652	0.0866211
25.2878	0.0898189
25.985	0.0930012
26.6837	0.0968029
