Adsorption isotherm of Hydrogen on Core-Shell IRMOF-2@MOF-5
DOI: 10.1039/C3ce40653a
Adsorbate Hydrogen: InChIKey UFHFLCQGNIYNRP-UHFFFAOYSA-N
Temperature: 294 K
Tabular data in the source: 0
pressure (bar)	uptake (wt%)
2.83905	0.00778193
3.15554	0.00905951
3.40935	0.0103293
3.78851	0.0116147
4.10499	0.0128923
4.4826	0.0135582
4.92444	0.0148513
5.23937	0.0155095
5.61853	0.0167949
5.93502	0.0180724
6.31573	0.0199772
6.69489	0.0212625
7.19941	0.0225634
7.57857	0.0238487
7.95773	0.0251341
8.21154	0.0264039
8.5907	0.0276893
9.09521	0.0289901
9.47437	0.0302755
9.72663	0.0309259
9.98044	0.0321957
10.4223	0.0334888
10.803	0.0353936
10.9926	0.0360362
11.3717	0.0373216
11.8778	0.0392418
12.257	0.0405272
12.763	0.0424474
12.9526	0.0430901
13.3318	0.0443755
13.7109	0.0456608
14.0274	0.0469384
14.3423	0.0475966
14.7231	0.0495013
14.8484	0.0495168
15.1633	0.050175
15.4798	0.0514526
15.859	0.052738
16.2382	0.0540233
16.68	0.0553164
17.1861	0.0572367
17.7517	0.0579259
18.1309	0.0592113
18.8907	0.0624013
19.3952	0.0637022
19.8982	0.0643837
20.3385	0.0650574
20.7177	0.0663427
21.0968	0.0676281
21.6671	0.0701755
22.0447	0.0708415
22.4239	0.0721268
22.8015	0.0727928
23.3702	0.0747208
23.6225	0.0753712
24.127	0.0766721
24.5688	0.0779652
24.8853	0.0792428
25.2629	0.0799087
25.5167	0.0811785
26.0228	0.0830988
26.4662	0.0850113
