Adsorption isotherm of Hydrogen on IRMOF-2
DOI: 10.1039/C3ce40653a
Adsorbate Hydrogen: InChIKey UFHFLCQGNIYNRP-UHFFFAOYSA-N
Temperature: 77 K
Tabular data in the source: 0
pressure (bar)	uptake (wt%)
0.35249	0.418559
0.680873	0.757835
1.08425	0.973401
1.31246	1.1684
1.87173	1.3411
2.83331	1.54067
3.77561	1.67681
4.66112	1.81138
5.65537	1.93323
6.58803	2.03766
7.51586	2.12622
8.43887	2.19894
9.30991	2.28593
10.3465	2.36179
11.2695	2.4345
12.1309	2.48979
12.9971	2.56093
13.9769	2.63521
14.8383	2.69049
15.7662	2.77906
16.6795	2.82006
17.5977	2.87692
18.3455	2.92906
19.2686	3.00177
20.2435	3.0602
21.1098	3.13134
22.0328	3.20405
22.8422	3.27362
23.7036	3.3289
24.565	3.38419
26.3542	3.52804
