Adsorption isotherm of Hydrogen on Janus IRMOF-2@MOF-5
DOI: 10.1039/C3ce40653a
Adsorbate Hydrogen: InChIKey UFHFLCQGNIYNRP-UHFFFAOYSA-N
Temperature: 294 K
Tabular data in the source: 0
pressure (bar)	uptake (wt%)
0.0626761	7.76175e-06
1.08257	0.00694521
2.0947	0.0107857
3.10994	0.015865
4.12673	0.0215637
5.01351	0.0253887
5.96141	0.028602
6.84974	0.0330464
7.73497	0.036252
8.6233	0.0406964
9.50853	0.043902
10.3342	0.0483386
11.221	0.0521636
12.0435	0.0553614
12.9303	0.0591864
13.6259	0.0617493
14.4485	0.0649472
15.3384	0.0700109
16.1625	0.0738282
16.8581	0.0763911
17.6807	0.0795889
18.251	0.0821363
19.0077	0.0840876
19.7018	0.0860312
20.4555	0.0867437
21.2123	0.088695
21.9706	0.0912657
22.7274	0.093217
23.4215	0.0951606
24.1813	0.0983506
24.9412	0.101541
25.6384	0.104723
26.2118	0.108509
27.039	0.113565
