Adsorption isotherm of Nitrogen on Mesoporous Carbon
DOI: 10.1016/j.memsci.2013.09.032
Article source: Figure 5a
Adsorbate Nitrogen: InChIKey IJGRMHOSHXDMSA-UHFFFAOYSA-N
Kind: experiment
Temperature: 77 K
Tabular data in the source: 0
pressure (bar)	uptake (cm3(STP)/g)
0	119.052
0.003744	130.945
0.006759	138.875
0.015696	144.81
0.024633	150.745
0.039505	156.668
0.057345	162.585
0.087053	168.478
0.110815	172.399
0.134578	176.32
0.15834	180.241
0.182102	184.162
0.214754	186.082
0.244463	191.975
0.271192	195.89
0.303845	197.81
0.336509	201.713
0.366205	205.623
0.392935	209.538
0.425611	215.425
0.446406	219.352
0.458298	223.297
0.47317	229.22
0.49101	235.137
0.496885	225.205
0.502914	241.066
0.514819	246.994
0.517669	227.147
0.523768	254.913
0.53254	233.07
0.53864	260.836
0.544622	268.761
0.550356	235.019
0.550592	274.701
0.565216	238.958
0.565523	290.545
0.574519	306.4
0.583056	244.875
0.586459	318.281
0.589485	328.195
0.595478	338.104
0.597916	248.814
0.601425	340.077
0.606865	256.732
0.613365	351.958
0.615802	262.667
0.621772	268.608
0.62826	361.849
0.633689	276.52
0.642638	284.439
0.64909	371.728
0.654566	294.336
0.663951	375.667
0.669473	306.211
0.681437	322.061
0.690421	335.932
0.690668	377.598
0.699382	345.835
0.708284	345.817
0.717374	377.545
0.723168	353.724
0.741019	361.625
0.74408	377.492
0.758858	367.542
0.77373	373.465
0.785634	379.394
0.815296	377.351
0.842002	377.298
0.86574	377.251
0.889479	377.203
0.91025	377.162
0.934001	379.099
0.957727	377.068
0.993335	376.997
