Adsorption isotherm of Nitrogen on magG@PDA@Zr-MOF
DOI: 10.1016/j.talanta.2015.08.014
Article source: Figure 5- N2
Adsorbate Nitrogen: InChIKey IJGRMHOSHXDMSA-UHFFFAOYSA-N
Kind: experiment
Temperature: 77 K
Tabular data in the source: 0
pressure (bar)	uptake (mmol/g)
0.009423	1.05469
0.021207	1.12732
0.041533	1.20667
0.065334	1.24567
0.080908	1.27749
0.100636	1.30394
0.121185	1.33038
0.140244	1.34427
0.140609	1.41376
0.158786	1.37116
0.175465	1.38595
0.18504	1.39043
0.200461	1.46574
0.201353	1.46799
0.251712	1.50518
0.252147	1.4442
0.30362	1.47646
0.303691	1.47665
0.34337	1.57374
0.353827	1.51993
0.404185	1.62706
0.40455	1.55129
0.454017	1.69232
0.455648	1.68129
0.505703	1.62836
0.509432	2.41342
0.555839	1.68035
0.557034	2.50576
0.605751	1.72965
0.608355	1.74698
0.632227	1.75474
0.658329	1.78298
0.659676	2.57969
0.683397	1.82287
0.696528	1.8399
0.709133	2.61986
0.709437	2.62406
0.73338	1.9022
0.758083	1.95465
0.760829	2.66753
0.783739	2.01203
0.809769	2.06806
0.810225	2.73924
0.829872	2.13082
0.836104	2.78048
0.858496	2.23258
0.862215	2.83113
0.884162	2.34421
0.888174	2.90465
0.909301	2.48946
0.914792	3.01717
0.9337	2.6948
0.938604	3.17722
0.963449	3.0705
0.964563	3.08587
0.969599	3.18976
0.973085	3.27898
0.981171	3.48522
0.982437	3.8421
0.985112	3.93267
0.9857	3.62465
0.987706	4.06314
0.989043	3.74257
0.990756	4.17388
0.994677	3.94163
0.996916	4.54152
1.00078	4.85716
1.00195	4.57874
1.00508	5.38128
1.00731	5.38307
