Adsorption isotherm of Nitrogen on Fluka Charcoal
DOI: 10.1016/s0008-6223(96)00082-6
Article source: Figure 2
Adsorbate Nitrogen: InChIKey IJGRMHOSHXDMSA-UHFFFAOYSA-N
Kind: experiment
Temperature: 180 K
Tabular data in the source: 0
pressure (bar)	uptake (g/g)
0	0.031434
0	0.06169
0.133701	0.090766
0.686589	0.119057
1.25054	0.13831
2.64055	0.162672
5.01697	0.181139
