Adsorption isotherm of Nitrogen on Sarabhai Charcoal
DOI: 10.1016/s0008-6223(96)00082-6
Article source: Figure 3
Adsorbate Nitrogen: InChIKey IJGRMHOSHXDMSA-UHFFFAOYSA-N
Kind: experiment
Temperature: 270 K
Tabular data in the source: 0
pressure (bar)	uptake (g/g)
1.2163	0.01257
2.98557	0.021583
7.56716	0.035254
13.7431	0.04377
18.6307	0.057434
24.5002	0.066744
33.9236	0.068884
38.8136	0.078611
