Adsorption isotherm of Nitrogen on Fluka Charcoal
DOI: 10.1016/s0008-6223(96)00082-6
Article source: Figure 2
Adsorbate Nitrogen: InChIKey IJGRMHOSHXDMSA-UHFFFAOYSA-N
Kind: experiment
Temperature: 320 K
Tabular data in the source: 0
pressure (bar)	uptake (g/g)
1.53352	0.027112
6.0656	0.044401
10.8425	0.06169
17.2902	0.07387
22.1751	0.082908
27.4426	0.099411
33.3499	0.113163
38.1272	0.130059
