Adsorption isotherm of Nitrogen on Fluka Charcoal
DOI: 10.1016/s0008-6223(96)00082-6
Article source: Figure 4
Adsorbate Nitrogen: InChIKey IJGRMHOSHXDMSA-UHFFFAOYSA-N
Kind: experiment
Temperature: 79 K
Tabular data in the source: 0
pressure (bar)	uptake (g/g)
0.002578	0.098579
0.002663	0.167611
0.019944	0.234399
0.049493	0.287187
0.081506	0.345854
0.22038	0.389028
0.478469	0.473713
0.695985	0.531424
0.795671	0.675808
0.796785	0.583088
0.847528	0.888007
