Adsorption isotherm of Nitrogen on Sarabhai Charcoal
DOI: 10.1016/s0008-6223(96)00082-6
Article source: Figure 3
Adsorbate Nitrogen: InChIKey IJGRMHOSHXDMSA-UHFFFAOYSA-N
Kind: experiment
Temperature: 210 K
Tabular data in the source: 0
pressure (bar)	uptake (g/g)
0.604153	0.025627
2.434	0.045702
6.04069	0.059029
8.60566	0.076719
11.9673	0.090841
19.0657	0.093434
22.4283	0.1044
