Adsorption isotherm of Nitrogen on Sarabhai Charcoal
DOI: 10.1016/s0008-6223(96)00082-6
Article source: Figure 3
Adsorbate Nitrogen: InChIKey IJGRMHOSHXDMSA-UHFFFAOYSA-N
Kind: experiment
Temperature: 180 K
Tabular data in the source: 0
pressure (bar)	uptake (g/g)
0	0.027953
0.825482	0.051162
2.0972	0.073179
4.22861	0.090451
6.2981	0.108906
12.4167	0.111124
14.5498	0.125641
