Adsorption isotherm of Nitrogen on Fluka Charcoal
DOI: 10.1016/s0008-6223(96)00082-6
Article source: Figure 2
Adsorbate Nitrogen: InChIKey IJGRMHOSHXDMSA-UHFFFAOYSA-N
Kind: experiment
Temperature: 270 K
Tabular data in the source: 0
pressure (bar)	uptake (g/g)
0.501042	0.030648
2.87313	0.052652
5.49002	0.074656
10.2698	0.089587
13.635	0.100196
18.6596	0.115128
22.752	0.131631
29.1057	0.140668
