Adsorption isotherm of Nitrogen on Sarabhai Charcoal
DOI: 10.1016/s0008-6223(96)00082-6
Article source: Figure 3
Adsorbate Nitrogen: InChIKey IJGRMHOSHXDMSA-UHFFFAOYSA-N
Kind: experiment
Temperature: 150 K
Tabular data in the source: 0
pressure (bar)	uptake (g/g)
0.044093	0.027952
0.211792	0.053932
0.563574	0.07912
1.46809	0.101146
2.06563	0.124754
6.0998	0.132927
7.61993	0.149033
