Adsorption isotherm of Nitrogen on Sarabhai Charcoal
DOI: 10.1016/s0008-6223(96)00082-6
Article source: Figure 3
Adsorbate Nitrogen: InChIKey IJGRMHOSHXDMSA-UHFFFAOYSA-N
Kind: experiment
Temperature: 240 K
Tabular data in the source: 0
pressure (bar)	uptake (g/g)
0.665735	0.012189
1.51603	0.022799
4.81074	0.039256
9.94506	0.049765
13.4853	0.065036
18.3746	0.075944
26.1446	0.079697
30.6065	0.089041
