Adsorption isotherm of Nitrogen on Fluka Charcoal
DOI: 10.1016/s0008-6223(96)00082-6
Article source: Figure 2
Adsorbate Nitrogen: InChIKey IJGRMHOSHXDMSA-UHFFFAOYSA-N
Kind: experiment
Temperature: 240 K
Tabular data in the source: 0
pressure (bar)	uptake (g/g)
0.060406	0.030648
1.05633	0.056974
2.83898	0.08055
6.29395	0.097839
8.97134	0.110413
13.7036	0.124165
16.6181	0.143026
22.139	0.152456
