Adsorption isotherm of Nitrogen on Fluka Charcoal
DOI: 10.1016/s0008-6223(96)00082-6
Article source: Figure 2
Adsorbate Nitrogen: InChIKey IJGRMHOSHXDMSA-UHFFFAOYSA-N
Kind: experiment
Temperature: 210 K
Tabular data in the source: 0
pressure (bar)	uptake (g/g)
0.011927	0.030255
0.270576	0.058939
1.06922	0.086444
2.80436	0.108841
4.44926	0.124951
7.0196	0.14499
10.427	0.1611
14.5247	0.173281
