Adsorption isotherm of Nitrogen on Fluka Charcoal
DOI: 10.1016/s0008-6223(96)00082-6
Article source: Figure 2
Adsorbate Nitrogen: InChIKey IJGRMHOSHXDMSA-UHFFFAOYSA-N
Kind: experiment
Temperature: 150 K
Tabular data in the source: 0
pressure (bar)	uptake (g/g)
0	0.143418
0.277502	0.173281
1.42368	0.196857
