Adsorption isotherm of Nitrogen on Sarabhai Charcoal
DOI: 10.1016/s0008-6223(96)00082-6
Article source: Figure 3
Adsorbate Nitrogen: InChIKey IJGRMHOSHXDMSA-UHFFFAOYSA-N
Kind: experiment
Temperature: 300 K
Tabular data in the source: 0
pressure (bar)	uptake (g/g)
1.89071	0.010585
4.51847	0.016822
10.6925	0.028488
17.6028	0.036986
23.7771	0.048257
31.0551	0.055959
41.457	0.059257
47.0819	0.068179
