Adsorption isotherm of Nitrogen on Sarabhai Charcoal
DOI: 10.1016/s0008-6223(96)00082-6
Article source: Figure 3
Adsorbate Nitrogen: InChIKey IJGRMHOSHXDMSA-UHFFFAOYSA-N
Kind: experiment
Temperature: 320 K
Tabular data in the source: 0
pressure (bar)	uptake (g/g)
2.44199	0.009785
5.6208	0.015615
13.3272	0.023307
20.2978	0.033379
27.6361	0.042654
36.0164	0.049149
47.5819	0.051238
