Adsorption isotherm of Nitrogen on Sarabhai Charcoal
DOI: 10.1016/s0008-6223(96)00082-6
Article source: Figure 4
Adsorbate Nitrogen: InChIKey IJGRMHOSHXDMSA-UHFFFAOYSA-N
Kind: experiment
Temperature: 79 K
Tabular data in the source: 0
pressure (bar)	uptake (g/g)
0.008672	0.059035
0.008752	0.124122
0.018655	0.18511
0.13664	0.224668
0.289036	0.275518
0.488084	0.299991
0.727673	0.325796
0.865292	0.347293
