Adsorption isotherm of Nitrogen on Fluka Charcoal
DOI: 10.1016/s0008-6223(96)00082-6
Article source: Figure 2
Adsorbate Nitrogen: InChIKey IJGRMHOSHXDMSA-UHFFFAOYSA-N
Kind: experiment
Temperature: 300 K
Tabular data in the source: 0
pressure (bar)	uptake (g/g)
1.09096	0.028684
4.98561	0.046758
8.58409	0.066798
14.4928	0.079371
18.5934	0.089194
23.8618	0.104912
29.23	0.119057
35.2861	0.131238
