Adsorption isotherm of Hydrogen on [Mn-(DMF)6]3[(Mn4Cl)3(BTT)8(DMF)12]2
DOI: 10.1021/Ja0656853
Adsorbate Hydrogen: InChIKey UFHFLCQGNIYNRP-UHFFFAOYSA-N
Temperature: 77 K
Tabular data in the source: 0
pressure (bar)	uptake (wt%)
0.670377	1.51193
1.71912	1.95546
3.11744	2.20017
5.04012	2.41428
6.61323	2.55193
9.58466	2.79664
14.8284	3.07193
21.2956	3.28605
37.2015	3.63781
50.4855	3.9284
