Adsorption isotherm of Nitrogen on [Mn-(DMF)6]3[(Mn4Cl)3(BTT)8(DMF)12]2
DOI: 10.1021/Ja0656853
Adsorbate Nitrogen: InChIKey IJGRMHOSHXDMSA-UHFFFAOYSA-N
Temperature: 77 K
Tabular data in the source: 0
pressure (bar)	uptake (cm3(STP)/g)
0.0105646	161.056
0.0105646	244.955
0.0564469	264.619
0.100144	267.241
0.205018	277.728
0.309892	282.972
0.399472	286.905
0.502161	288.216
0.6988	301.325
0.899808	309.191
