Adsorption isotherm of Nitrogen on Mn3[(Mn4Cl)3(BTT)8(CH3OH)10]2
DOI: 10.1021/Ja0656853
Adsorbate Nitrogen: InChIKey IJGRMHOSHXDMSA-UHFFFAOYSA-N
Temperature: 77 K
Tabular data in the source: 0
pressure (bar)	uptake (cm3(STP)/g)
0.00182509	298.703
0.00619484	3.74528
0.00619484	449.46
0.0258587	490.098
0.0520772	503.207
0.106699	518.939
0.207203	537.292
0.423506	546.468
0.70317	545.157
0.904178	547.779
