Adsorption isotherm of Hydrogen on [Mn-(DMF)6]3[(Mn4Cl)3(BTT)8(DMF)12]2
DOI: 10.1021/Ja0656853
Adsorbate Hydrogen: InChIKey UFHFLCQGNIYNRP-UHFFFAOYSA-N
Temperature: 77 K
Tabular data in the source: 0
pressure (bar)	uptake (wt%)
1.19475	1.51193
3.11744	2.1084
6.43844	2.35311
10.109	2.58252
14.4788	2.73546
19.7225	2.78134
26.0149	2.81193
32.6569	2.82722
40.5225	2.85781
50.3107	2.85781
