Adsorption isotherm of Hydrogen on Mn3[(Mn4Cl)3(BTT)8(CH3OH)10]2
DOI: 10.1021/Ja0656853
Adsorbate Hydrogen: InChIKey UFHFLCQGNIYNRP-UHFFFAOYSA-N
Temperature: 77 K
Tabular data in the source: 0
pressure (bar)	uptake (wt%)
0.495587	0.946048
1.36954	2.33781
3.29223	3.08722
7.1376	3.88252
13.7796	4.63193
20.946	5.18252
31.6082	5.76369
46.4653	6.2684
66.2166	6.66605
89.8132	6.89546
