Adsorption isotherm of Hydrogen on Mn3[(Mn4Cl)3(BTT)8(CH3OH)10]2
DOI: 10.1021/Ja0656853
Adsorbate Hydrogen: InChIKey UFHFLCQGNIYNRP-UHFFFAOYSA-N
Temperature: 298 K
Tabular data in the source: 0
pressure (bar)	uptake (wt%)
4.69055	0.150754
16.5763	0.273107
27.2384	0.364871
36.1527	0.426048
46.6401	0.517813
57.1275	0.578989
67.0905	0.686048
78.6267	0.793107
85.6183	0.854283
90.3376	0.946048
