Adsorption isotherm of Hydrogen on Mn3[(Mn4Cl)3(BTT)8(CH3OH)10]2
DOI: 10.1021/Ja0656853
Adsorbate Hydrogen: InChIKey UFHFLCQGNIYNRP-UHFFFAOYSA-N
Temperature: 77 K
Tabular data in the source: 0
pressure (bar)	uptake (wt%)
0.00743381	0.255941
0.0179212	0.507202
0.0441397	0.681992
0.104442	0.933252
0.133283	1.03703
0.198829	1.20636
0.274862	1.3593
0.474123	1.6488
0.807098	1.98199
1.1191	2.17863
