Adsorption isotherm of Hydrogen on Mn3[(Mn4Cl)3(BTT)8(CH3OH)10]2
DOI: 10.1021/Ja0656853
Adsorbate Hydrogen: InChIKey UFHFLCQGNIYNRP-UHFFFAOYSA-N
Temperature: 77 K
Tabular data in the source: 0
pressure (bar)	uptake (wt%)
1.19475	2.30722
3.11744	3.04134
7.1376	3.6684
11.3326	4.05075
18.1494	4.4637
25.6653	4.75428
37.0267	5.04487
49.6116	5.06017
75.1309	4.90722
89.8132	4.60134
