Adsorption isotherm of Hydrogen on Mn3[(Mn4Cl)3(BTT)8(CH3OH)10]2
DOI: 10.1021/Ja0656853
Adsorbate Hydrogen: InChIKey UFHFLCQGNIYNRP-UHFFFAOYSA-N
Temperature: 298 K
Tabular data in the source: 0
pressure (bar)	uptake (wt%)
2.0687	0.13546
11.8569	0.334283
22.6939	0.487224
34.0553	0.640166
44.7174	0.808401
52.9326	0.900166
61.3225	0.99193
68.8384	1.09899
78.8015	1.26722
90.6872	1.49664
