Adsorption isotherm of Hydrogen on [Mn-(DMF)6]3[(Mn4Cl)3(BTT)8(DMF)12]2
DOI: 10.1021/Ja0656853
Adsorbate Hydrogen: InChIKey UFHFLCQGNIYNRP-UHFFFAOYSA-N
Temperature: 77 K
Tabular data in the source: 0
pressure (bar)	uptake (wt%)
0.00481196	0.064765
0.0100557	0.217706
0.0284086	0.392496
0.0624926	0.600059
0.104442	0.742076
0.138526	0.834933
0.196207	0.971488
0.335165	1.16266
0.605215	1.40846
1.12172	1.65972
