Adsorption isotherm of Xenon on CuBTC
DOI: 10.1016/j.micromeso.2012.06.004
Adsorbate Xenon: InChIKey FHNFHKCVQCLJFQ-UHFFFAOYSA-N
Temperature: 300 K
Tabular data in the source: 0
pressure (bar)	uptake (cm3(STP)/g)
0.0105646	4.94401
0.0695562	13.5961
0.0979595	16.4801
0.202833	23.5591
0.305523	31.6869
0.395102	38.2415
0.502161	45.3205
0.600481	52.1373
0.6988	58.9541
0.799304	65.7709
0.897623	72.3255
0.952245	76.2583
