Adsorption isotherm of Krypton on CuBTC
DOI: 10.1016/j.micromeso.2012.06.004
Adsorbate Krypton: InChIKey DNNSSWSSYDEUBZ-UHFFFAOYSA-N
Temperature: 240 K
Tabular data in the source: 0
pressure (bar)	uptake (cm3(STP)/g)
0.00561579	2.8754
0.0721971	9.66669
0.105488	12.2634
0.202031	20.8524
0.303567	28.2429
0.398445	34.2352
0.503311	41.0265
0.601518	47.0188
0.699726	53.4106
0.799598	59.4029
0.901134	66.1942
0.952735	69.5899
