Adsorption isotherm of Krypton on CuBTC
DOI: 10.1016/j.micromeso.2012.06.004
Adsorbate Krypton: InChIKey DNNSSWSSYDEUBZ-UHFFFAOYSA-N
Temperature: 250 K
Tabular data in the source: 0
pressure (bar)	uptake (cm3(STP)/g)
0.0139384	1.07771
0.040571	3.27489
0.0738616	5.67182
0.105488	8.06874
0.203695	16.0585
0.305232	21.6513
0.403439	26.6449
0.50664	31.6385
0.601518	36.2326
0.70139	41.0265
0.797933	45.8203
0.901134	50.4145
0.957728	52.8114
