Adsorption isotherm of Xenon on MFU-4l
DOI: 10.1016/j.micromeso.2012.06.004
Adsorbate Xenon: InChIKey FHNFHKCVQCLJFQ-UHFFFAOYSA-N
Temperature: 290 K
Tabular data in the source: 0
pressure (bar)	uptake (cm3(STP)/g)
0.0408298	2.53613
0.105619	6.50796
0.201393	12.5925
0.299985	18.0854
0.402802	23.0713
0.498576	28.2263
0.599985	33.0432
0.692943	37.2685
0.799985	42.0009
0.902802	46.0573
0.949281	48.508
