Adsorption isotherm of Xenon on MFU-4l
DOI: 10.1016/j.micromeso.2012.06.004
Adsorbate Xenon: InChIKey FHNFHKCVQCLJFQ-UHFFFAOYSA-N
Temperature: 280 K
Tabular data in the source: 0
pressure (bar)	uptake (cm3(STP)/g)
0.0239284	2.53613
0.0408298	3.88824
0.0732242	6.00091
0.0999848	8.62063
0.194351	15.3812
0.30421	23.0713
0.405619	29.7474
0.501393	35.2404
0.599985	41.4094
0.694351	46.5643
0.799985	52.3108
0.895759	57.1277
0.953506	59.8319
