Adsorption isotherm of Xenon on MFU-4l
DOI: 10.1016/j.micromeso.2012.06.004
Adsorbate Xenon: InChIKey FHNFHKCVQCLJFQ-UHFFFAOYSA-N
Temperature: 300 K
Tabular data in the source: 0
pressure (bar)	uptake (cm3(STP)/g)
0.0140693	0.42345
0.0436467	2.36711
0.0774495	3.97275
0.10421	5.66289
0.205619	10.0573
0.305619	14.5361
0.401393	18.9305
0.50421	22.9023
0.599985	27.2122
0.698576	30.7615
0.801393	34.3108
0.898576	37.9446
0.952097	39.8037
