Adsorption isotherm of Krypton on MFU-4l
DOI: 10.1016/j.micromeso.2012.06.004
Adsorbate Krypton: InChIKey DNNSSWSSYDEUBZ-UHFFFAOYSA-N
Temperature: 240 K
Tabular data in the source: 0
pressure (bar)	uptake (cm3(STP)/g)
0.063365	2.45162
0.105619	4.31077
0.205619	8.62063
0.30421	12.9305
0.407027	17.4094
0.502802	21.1277
0.605619	25.184
0.701393	28.7333
0.797168	32.2826
0.901393	35.8319
0.949281	38.1981
