Adsorption isotherm of Krypton on CuBTC
DOI: 10.1016/j.micromeso.2012.06.004
Adsorbate Krypton: InChIKey DNNSSWSSYDEUBZ-UHFFFAOYSA-N
Temperature: 230 K
Tabular data in the source: 0
pressure (bar)	uptake (cm3(STP)/g)
0.0222611	5.87156
0.0422355	8.86772
0.0721971	12.8626
0.0988296	16.2582
0.198702	26.4452
0.298574	35.2339
0.405104	44.8216
0.501647	53.8101
0.601518	61.6001
0.698061	70.7883
0.802927	79.9766
0.897805	87.9663
0.95107	92.5604
