Adsorption isotherm of Xenon on CuBTC
DOI: 10.1016/j.micromeso.2012.06.004
Adsorbate Xenon: InChIKey FHNFHKCVQCLJFQ-UHFFFAOYSA-N
Temperature: 290 K
Tabular data in the source: 0
pressure (bar)	uptake (cm3(STP)/g)
0.0236738	7.56586
0.0455226	11.7608
0.0979595	19.102
0.205018	29.8516
0.298968	38.2415
0.399472	47.1558
0.497791	55.5457
0.598296	64.9844
0.6988	74.1608
0.799304	83.5995
0.897623	93.0381
0.952245	97.2331
