Adsorption isotherm of Xenon on CuBTC
DOI: 10.1016/j.micromeso.2012.06.004
Adsorbate Xenon: InChIKey FHNFHKCVQCLJFQ-UHFFFAOYSA-N
Temperature: 280 K
Tabular data in the source: 0
pressure (bar)	uptake (cm3(STP)/g)
0.00837971	6.77931
0.0258587	9.66334
0.0389679	12.5474
0.0673713	18.0533
0.0979595	22.7726
0.205018	35.6196
0.303338	47.418
0.403842	59.7407
0.502161	72.8499
0.598296	85.4348
0.6988	98.544
0.797119	112.178
0.895439	124.763
0.952245	131.317
