Adsorption isotherm of Krypton on MFU-4l
DOI: 10.1016/j.micromeso.2012.06.004
Adsorbate Krypton: InChIKey DNNSSWSSYDEUBZ-UHFFFAOYSA-N
Temperature: 250 K
Tabular data in the source: 0
pressure (bar)	uptake (cm3(STP)/g)
0.0211115	0.169929
0.0746326	2.1981
0.0985763	3.04317
0.20421	6.84598
0.298576	9.80373
0.398576	13.184
0.502802	16.4798
0.60421	19.9446
0.705619	22.8178
0.807027	25.6065
0.90421	28.3953
0.956323	29.6629
