Adsorption isotherm of Krypton on MFU-4l
DOI: 10.1016/j.micromeso.2012.06.004
Adsorbate Krypton: InChIKey DNNSSWSSYDEUBZ-UHFFFAOYSA-N
Temperature: 230 K
Tabular data in the source: 0
pressure (bar)	uptake (cm3(STP)/g)
0.0168862	1.77556
0.0704073	4.81782
0.108435	6.84598
0.20421	12.4234
0.302802	17.9164
0.399985	22.9868
0.498576	27.7192
0.598576	32.9587
0.692943	37.4375
0.799985	41.8319
0.897168	46.2263
0.950689	48.508
