Adsorption isotherm of Xenon on CuBTC
DOI: 10.1016/j.micromeso.2012.06.004
Adsorbate Xenon: InChIKey FHNFHKCVQCLJFQ-UHFFFAOYSA-N
Temperature: 310 K
Tabular data in the source: 0
pressure (bar)	uptake (cm3(STP)/g)
0.0127495	1.53561
0.0389679	6.77931
0.0695562	10.1877
0.102329	12.5474
0.200649	19.6264
0.305523	26.181
0.401657	31.4247
0.502161	37.1928
0.602665	42.1743
0.70317	47.418
0.801489	52.6617
0.901993	58.1675
0.95443	61.5759
