Adsorption isotherm of Xenon on MFU-4l
DOI: 10.1016/j.micromeso.2012.06.004
Adsorbate Xenon: InChIKey FHNFHKCVQCLJFQ-UHFFFAOYSA-N
Temperature: 310 K
Tabular data in the source: 0
pressure (bar)	uptake (cm3(STP)/g)
0.0436467	0.42345
0.0760411	1.94458
0.105619	3.29669
0.20421	7.26852
0.30421	11.0713
0.40421	14.7896
0.502802	18.0009
0.601393	21.1277
0.707027	24.508
0.801393	27.2967
0.899985	30.3389
0.956323	32.1981
