Adsorption isotherm of Krypton on CuBTC
DOI: 10.1016/j.micromeso.2012.06.004
Adsorbate Krypton: InChIKey DNNSSWSSYDEUBZ-UHFFFAOYSA-N
Temperature: 220 K
Tabular data in the source: 0
pressure (bar)	uptake (cm3(STP)/g)
0.00561579	4.27361
0.0239256	6.87028
0.0455646	11.0649
0.0721971	15.8588
0.100494	20.4529
0.18705	32.038
0.305232	47.8178
0.40011	59.0034
0.501647	72.3863
0.599854	85.1699
0.699726	97.3543
0.804591	110.138
0.89947	121.723
0.949406	128.115
