Adsorption isotherm of Krypton on MFU-4l
DOI: 10.1016/j.micromeso.2012.06.004
Adsorbate Krypton: InChIKey DNNSSWSSYDEUBZ-UHFFFAOYSA-N
Temperature: 220 K
Tabular data in the source: 0
pressure (bar)	uptake (cm3(STP)/g)
0.0211115	2.2826
0.0394214	3.80373
0.0689988	6.25444
0.10421	9.12768
0.199985	17.1558
0.301393	24.3389
0.399985	30.846
0.498576	37.6911
0.60421	43.353
0.702802	49.015
0.798576	53.7474
0.897168	59.0713
0.950689	61.8601
