Adsorption isotherm of Methane on CuBTC
DOI: 10.1021/jacs.5b06657
Article source: Figure 1
Adsorbate Methane: InChIKey VNWKTOKETHGBQD-UHFFFAOYSA-N
Kind: experiment
Temperature: 298 K
Tabular data in the source: 0
pressure (bar)	uptake (cm3(STP)/cm3)
0.702	14.506
1.714	31.717
3.518	56.822
5.409	80.664
7.74	102.453
10.246	124.398
12.665	142.712
15.214	159.289
20.225	182.335
25.323	201.117
30.201	215.004
35.166	225.259
40.351	234.566
45.14	241.505
50.148	246.548
55.201	252.855
60.121	257.899
64.91	262.311
69.963	266.565
74.62	269.082
79.584	270.809
84.812	273.641
89.644	276.474
94.74	277.885
99.924	280.876
