Adsorption isotherm of Methane on Cr3(BTC)2
DOI: 10.1021/jacs.5b06657
Article source: Figure 1
Adsorbate Methane: InChIKey VNWKTOKETHGBQD-UHFFFAOYSA-N
Kind: experiment
Temperature: 298 K
Tabular data in the source: 0
pressure (bar)	uptake (cm3(STP)/cm3)
0.693	12.832
1.94	27.752
3.742	50.43
5.653	70.721
7.814	90.315
10.528	108.614
12.744	124.427
15.264	138.847
20.248	161.918
25.563	180.212
30.38	192.041
35.362	203.969
40.04	212.515
45.078	220.364
50.364	226.621
55.18	232.481
60.217	238.141
65.061	242.807
70.126	246.379
74.498	250.648
80.061	254.715
84.628	256.795
89.471	260.467
94.868	262.048
99.877	265.122
