Adsorption isotherm of Nitrogen on DUT-95
DOI: 10.1021/cm5045732
Article source: Figure 4
Adsorbate Nitrogen: InChIKey IJGRMHOSHXDMSA-UHFFFAOYSA-N
Kind: experiment
Temperature: 77 K
Tabular data in the source: 0
pressure (bar)	uptake (cm3(STP)/g)
0	0
0	395.76
0.002002	452.655
0.00801	497.193
0.02403	521.967
0.046057	536.862
0.072089	546.819
0.106131	554.323
0.150185	559.377
0.204252	561.983
0.306378	569.653
0.410506	574.854
0.51063	575.098
0.660815	575.465
0.758936	578.178
0.863065	575.958
0.961186	576.198
1.00724	578.784
