Adsorption isotherm of Nitrogen on DUT-90
DOI: 10.1021/cm5045732
Article source: Figure 4
Adsorbate Nitrogen: InChIKey IJGRMHOSHXDMSA-UHFFFAOYSA-N
Kind: experiment
Temperature: 77 K
Tabular data in the source: 0
pressure (bar)	uptake (cm3(STP)/g)
0	0
0.001999	148.946
0.003997	233.353
0.021984	620.675
0.037972	640.612
0.071947	655.672
0.093931	660.744
0.149889	665.983
0.201851	673.684
0.25581	676.431
0.307773	679.168
0.355737	676.92
0.409696	687.114
0.457662	684.866
0.509623	687.603
0.557587	687.838
0.611547	690.585
0.657513	693.292
0.711474	693.557
0.761436	693.802
0.815397	694.066
0.861363	694.291
0.915322	697.038
0.965286	699.765
1.00126	697.459
