Adsorption isotherm of Nitrogen on DUT-91
DOI: 10.1021/cm5045732
Article source: Figure 4
Adsorbate Nitrogen: InChIKey IJGRMHOSHXDMSA-UHFFFAOYSA-N
Kind: experiment
Temperature: 77 K
Tabular data in the source: 0
pressure (bar)	uptake (cm3(STP)/g)
0	2.4735
0	366.078
0.002002	489.753
0.006007	576.325
0.018022	610.954
0.050062	633.216
0.090111	643.11
0.150185	653.004
0.204252	657.951
0.252311	660.424
0.308381	662.898
0.354437	662.898
0.410506	665.371
0.456563	667.845
0.51063	667.845
0.556687	667.845
0.612756	667.845
0.658813	667.845
0.714882	667.845
0.760939	667.845
0.817008	670.318
0.861062	670.318
0.917131	670.318
0.965191	670.318
1.00324	672.792
