Adsorption isotherm of Nitrogen on ZIF-71
DOI: 10.1002/adfm.201402972
Article source: Figure 2c- micrometer sized
Adsorbate Nitrogen: InChIKey IJGRMHOSHXDMSA-UHFFFAOYSA-N
Kind: experiment
Temperature: 77 K
Tabular data in the source: 0
pressure (bar)	uptake (ml/g)
0.007123	180.26
0.012686	198.025
0.017914	211.063
0.025807	223.719
0.042536	235.228
0.084444	244.177
0.139575	249.462
0.224941	253.519
0.331262	256.77
0.425727	258.842
0.59268	261.848
0.74026	263.775
0.854281	265.706
0.942221	269.076
0.982062	272.574
