Adsorption isotherm of Nitrogen on ZIF-71
DOI: 10.1002/adfm.201402972
Article source: Figure 2c- submicrometer sized
Adsorbate Nitrogen: InChIKey IJGRMHOSHXDMSA-UHFFFAOYSA-N
Kind: experiment
Temperature: 77 K
Tabular data in the source: 0
pressure (bar)	uptake (ml/g)
0.000142	35.27
0.000253	2.361
0.000507	99.184
0.002351	143.785
0.009514	192.119
0.016364	215.008
0.031978	239.952
0.064777	251.942
0.165099	263.342
0.385754	272.806
0.54604	277.411
0.679516	280.88
0.856723	286.928
0.933588	293.802
0.979792	306.245
