Adsorption isotherm of Carbon Dioxide on Sr-MOF-1
DOI: 10.1002/chem.201405684
Article source: Figure 5- CO2
Adsorbate Carbon Dioxide: InChIKey CURLTUGMZLYLDI-UHFFFAOYSA-N
Kind: experiment
Temperature: 298 K
Tabular data in the source: 0
pressure (bar)	uptake (cm3(STP)/g)
1.51005	5.0422
1.54916	5.1753
3.17207	11.4392
3.24003	10.0472
4.71161	15.0364
4.79946	13.7173
6.25051	16.6186
6.46083	18.3221
7.91766	20.596
7.95678	20.7297
9.52069	22.7569
9.54505	21.3974
11.0698	24.5455
11.2507	23.2789
12.8928	26.3459
12.8973	26.3461
14.3298	26.0588
14.4567	27.7057
15.9033	27.2404
16.0354	28.8185
17.555	28.2762
17.6281	29.8827
19.1779	29.2555
19.1824	29.2586
20.7707	31.6625
20.7758	31.6752
22.3789	32.3833
22.3981	30.8659
23.9524	33.0914
23.9723	33.0934
25.5214	33.751
25.6484	32.1648
27.129	34.2851
27.2219	32.7961
28.6929	34.8516
28.8352	33.3626
30.301	35.317
30.4767	33.7955
31.9239	35.7985
32.0945	34.3175
33.4878	36.195
33.6635	34.7707
35.0806	36.628
35.2518	35.1227
36.6836	36.9517
36.86	35.491
38.3161	37.3483
38.5066	35.9401
39.8557	37.7286
40.1442	36.3164
41.4343	37.9957
41.6934	36.7818
43.0957	38.2789
43.3304	37.1014
44.6455	38.5946
44.9578	37.4575
46.2582	38.8414
46.5563	37.7974
47.8856	39.072
48.1638	38.1049
49.513	39.3431
49.7476	38.3437
51.0525	39.5616
51.3802	38.6795
52.6991	39.7518
52.9832	38.9061
54.288	39.8773
54.5471	39.1772
55.8808	40.0877
56.1988	39.509
57.4838	40.205
57.7628	39.6062
59.0728	40.3547
59.4293	39.946
60.661	40.4842
61.0374	40.1767
62.2493	40.6946
62.6546	40.294
63.5151	40.731
63.9107	40.7513
