Adsorption isotherm of Nitrogen on Sr-MOF-1-PI-Pd
DOI: 10.1002/chem.201405684
Article source: Figure 4- Sr MOF 1 PI Pd
Adsorbate Nitrogen: InChIKey IJGRMHOSHXDMSA-UHFFFAOYSA-N
Kind: experiment
Temperature: 77 K
Tabular data in the source: 0
pressure (bar)	uptake (cm3(STP)/g)
0.023811	372.63
0.024247	372.72
0.04968	379.3
0.050956	376.7
0.075021	382.04
0.076825	380.08
0.099602	385.81
0.102338	384.38
0.125542	387.09
0.126575	387.12
0.151147	391.09
0.152008	390.24
0.176498	394.8
0.177521	394.77
0.201414	395.68
0.202184	395.78
0.226593	401.19
0.227789	398.84
0.251853	402.75
0.252451	401.71
0.277377	405.94
0.277549	404.12
0.301523	408.74
0.304097	407.38
0.327645	411.54
0.328759	411.54
0.353249	415
0.354871	413.76
0.378418	419.62
0.380567	416.04
0.403253	420.86
0.405827	419.04
0.428858	422.81
0.430145	420.99
0.454554	425.22
0.455324	423.6
0.479723	428.74
0.481182	425.75
0.505075	433.56
0.505328	433.62
0.529909	434.07
0.530254	434.08
0.55517	440.07
0.556457	436.82
0.580947	444.31
0.582659	440.99
0.606379	448.02
0.608781	444.24
0.630951	451.6
0.633352	446.92
0.65536	454.27
0.658704	451.47
0.681907	459.22
0.683022	455.77
0.707684	463.91
0.708535	464.08
0.733117	465.3
0.733968	465.41
0.757435	473.03
0.759745	470.82
0.783212	474.86
0.784407	474.79
0.808725	478.87
0.80907	478.96
0.83433	485.47
0.8351	485.49
0.859682	485.99
0.860452	486.19
0.885023	497.32
0.88554	490.68
0.910547	503.18
0.910891	503.23
0.935118	502.1
0.935807	502.4
0.961665	519.79
0.961919	519.87
0.986409	538.93
0.988638	535.81
1.00575	566.93
1.00601	567.4
