Adsorption isotherm of Nitrogen on Sr-MOF-1
DOI: 10.1002/chem.201405684
Article source: Figure 4- Sr MOF 1
Adsorbate Nitrogen: InChIKey IJGRMHOSHXDMSA-UHFFFAOYSA-N
Kind: experiment
Temperature: 77 K
Tabular data in the source: 0
pressure (bar)	uptake (cm3(STP)/g)
0.023436	563.24
0.027459	561.98
0.050409	578.97
0.051007	579.36
0.075842	576.08
0.075933	576.11
0.101102	587.37
0.101355	587.41
0.126616	583.31
0.127224	583.27
0.150934	591.8
0.152221	586
0.176539	594.6
0.177572	594.58
0.201799	596.09
0.20343	591.99
0.226289	598.37
0.228093	594.4
0.252147	601.24
0.254295	595.31
0.277408	603.26
0.279211	598.11
0.302931	605.73
0.304816	601.76
0.327675	607.55
0.330238	602.41
0.353786	610.16
0.355418	603.06
0.378874	610.29
0.38085	605.27
0.404135	611
0.406364	605.53
0.429567	612.76
0.431543	608.01
0.454574	616.99
0.45577	611.26
0.479916	618.95
0.481719	612.7
0.504923	620.18
0.50698	615.3
0.530609	618.01
0.53147	617.9
0.556639	618.42
0.557075	618.42
0.580795	623.31
0.583105	619.4
0.60639	625.33
0.608193	620.83
0.631913	628.84
0.632937	628.56
0.65768	627.46
0.657853	627.47
0.68209	635.74
0.684227	630.14
0.708292	638.41
0.708464	638.42
0.733127	636.05
0.734241	635.81
0.758468	643.23
0.760272	637.11
0.783982	647.53
0.785613	640.3
0.808644	652.67
0.810529	643.03
0.834766	655.14
0.835708	655.09
0.86028	651.76
0.860533	651.82
0.883736	667.84
0.884517	660.81
0.910284	676.89
0.911226	676.67
0.937084	692.12
0.938199	686.85
0.960632	709.57
0.963195	708.46
0.986561	779.17
0.987939	767.84
1.00649	942.25
1.00701	945.96
