Adsorption isotherm of Hydrogen on Sr-MOF-1
DOI: 10.1002/chem.201405684
Article source: Figure 6- H2
Adsorbate Hydrogen: InChIKey UFHFLCQGNIYNRP-UHFFFAOYSA-N
Kind: experiment
Temperature: 77 K
Tabular data in the source: 0
pressure (bar)	uptake (cm3(STP)/g)
0.050156	128.532
0.099673	146.804
0.151775	158.944
0.201961	167.274
0.251691	174.008
0.301199	179.442
0.354496	184.377
0.405553	188.13
0.455223	191.808
0.505358	195.306
0.556041	197.431
0.606805	199.747
0.657093	201.988
0.706853	203.996
0.758235	204.801
0.808918	206.265
0.85953	207.698
0.910608	209.077
0.960591	210.127
1.00502	210.57
0.04894	109.096
0.099846	129.124
0.151643	140.679
0.20113	149.169
0.253252	156.424
0.303215	163.146
0.354344	169.614
0.405239	175.197
0.456449	179.93
0.50472	183.789
0.55594	186.744
0.606238	189.699
0.657305	192.143
0.707512	195.215
0.758114	197.957
0.810813	200.283
0.861414	202.291
0.911712	204.756
0.962628	207.04
1.00881	209.186
