Adsorption isotherm of Nitrogen on Sr-MOF-1-PI
DOI: 10.1002/chem.201405684
Article source: Figure 4- Sr MOF 1 PI
Adsorbate Nitrogen: InChIKey IJGRMHOSHXDMSA-UHFFFAOYSA-N
Kind: experiment
Temperature: 77 K
Tabular data in the source: 0
pressure (bar)	uptake (cm3(STP)/g)
0.024146	433.54
0.02526	434.35
0.048808	445.41
0.050865	439.69
0.074332	455.23
0.077068	448.99
0.099684	461.61
0.102592	455.43
0.125197	466.74
0.127426	461.15
0.150812	472.92
0.152433	467.26
0.175383	479.3
0.178302	473.64
0.200907	486.32
0.203825	480.27
0.225489	492.43
0.228832	485.54
0.251175	496.07
0.254863	489.44
0.276354	500.82
0.2791	495.09
0.301878	503.81
0.305475	498.87
0.327482	510.84
0.330137	505.76
0.352145	518.71
0.355489	513.5
0.37776	522.48
0.380587	517.66
0.403446	525.27
0.406445	521.63
0.428716	529.89
0.431452	524.62
0.453551	532.36
0.45732	528.52
0.479075	537.88
0.482327	531.57
0.505358	544.06
0.506645	543.68
0.529423	546.79
0.532858	542.3
0.555464	552.32
0.557774	547.18
0.580987	558.04
0.582953	552.06
0.60642	562.14
0.608305	556.54
0.630738	566.5
0.635024	561.42
0.656779	572.28
0.660376	569.16
0.681441	578.72
0.684521	573.84
0.707816	585.03
0.70962	580.15
0.733086	586.98
0.736592	581.51
0.757577	591.27
0.76092	586.78
0.782928	596.34
0.786525	592.37
0.808786	599.85
0.81213	595.1
0.834057	605.25
0.837998	599.65
0.858121	608.57
0.862914	606.61
0.885439	612.99
0.887151	607.65
0.910699	618.58
0.913019	613.31
0.936314	627.82
0.938371	622.02
0.960368	641.48
0.962598	645.77
0.986318	663.6
0.987351	663.78
1.00558	750.4
1.0066	753.95
