Adsorption isotherm of Hydrogen on C28-COF
DOI: 10.1039/C3cp50492a
Adsorbate Hydrogen: InChIKey UFHFLCQGNIYNRP-UHFFFAOYSA-N
Temperature: 298 K
Tabular data in the source: 0
pressure (bar)	uptake (g/l)
1.26608	0.10153
10.2802	0.890263
20.421	1.72407
30.1393	2.49026
39.9985	3.24519
50.2802	3.97759
60.2802	4.72125
69.9985	5.40857
79.9985	6.11843
90.1393	6.81702
99.9985	7.44801
