Adsorption isotherm of Hydrogen on C30-COF
DOI: 10.1039/C3cp50492a
Adsorbate Hydrogen: InChIKey UFHFLCQGNIYNRP-UHFFFAOYSA-N
Temperature: 77 K
Tabular data in the source: 0
pressure (bar)	uptake (g/l)
1.57175	5.5052
10.398	20.2939
20.2572	27.8996
30.2103	32.6414
40.2572	36.1625
50.2103	39.2141
60.0694	41.8432
69.9286	44.0029
79.9755	46.0216
90.2103	47.524
100.257	48.9794
