Adsorption isotherm of Hydrogen on C28-COF
DOI: 10.1039/C3cp50492a
Adsorbate Hydrogen: InChIKey UFHFLCQGNIYNRP-UHFFFAOYSA-N
Temperature: 298 K
Tabular data in the source: 0
pressure (bar)	uptake (wt%)
1.08756	0.0334334
10.2405	0.228505
19.9654	0.429869
29.6904	0.628087
40.4165	0.842036
50.1415	1.01508
59.8664	1.19128
70.1635	1.36118
80.1745	1.53737
90.1855	1.69783
100.196	1.84571
