Adsorption isotherm of Hydrogen on C36-COF
DOI: 10.1039/C3cp50492a
Adsorbate Hydrogen: InChIKey UFHFLCQGNIYNRP-UHFFFAOYSA-N
Temperature: 298 K
Tabular data in the source: 0
pressure (bar)	uptake (wt%)
9.81143	0.22615
20.1085	0.440671
29.9764	0.640891
40.1305	0.82681
50.2845	1.01273
60.0095	1.17004
70.0205	1.33451
80.1745	1.50613
90.1855	1.70629
99.9104	1.86361
