Adsorption isotherm of Hydrogen on C70-COF
DOI: 10.1039/C3cp50492a
Adsorbate Hydrogen: InChIKey UFHFLCQGNIYNRP-UHFFFAOYSA-N
Temperature: 77 K
Tabular data in the source: 0
pressure (bar)	uptake (g/l)
1.10227	0.575626
10.398	19.4958
20.3511	26.8198
30.398	31.8902
40.5389	35.3644
50.2103	38.416
59.9755	40.9512
70.2103	42.97
79.9755	44.7071
89.9286	46.3972
99.9755	47.7118
