Adsorption isotherm of Hydrogen on Li_C36-COF
DOI: 10.1039/C3cp50492a
Adsorbate Hydrogen: InChIKey UFHFLCQGNIYNRP-UHFFFAOYSA-N
Temperature: 298 K
Tabular data in the source: 0
pressure (bar)	uptake (wt%)
0.801532	0.176095
9.95445	1.2058
19.5364	1.96377
29.8334	2.48578
40.2735	2.92197
49.8554	3.2509
59.5804	3.54408
80.1745	4.06608
90.3285	4.27345
99.9104	4.48798
