Adsorption isotherm of Hydrogen on Li_C60-COF
DOI: 10.1039/C3cp50492a
Adsorbate Hydrogen: InChIKey UFHFLCQGNIYNRP-UHFFFAOYSA-N
Temperature: 298 K
Tabular data in the source: 0
pressure (bar)	uptake (wt%)
1.23058	0.154643
9.95445	1.07709
20.1085	1.77786
30.1195	2.28556
40.1305	2.7003
50.1415	3.05068
59.5804	3.35101
70.3065	3.61559
80.0315	3.85156
90.1855	4.06608
100.053	4.27345
