Adsorption isotherm of Hydrogen on C70-COF
DOI: 10.1039/C3cp50492a
Adsorbate Hydrogen: InChIKey UFHFLCQGNIYNRP-UHFFFAOYSA-N
Temperature: 298 K
Tabular data in the source: 0
pressure (bar)	uptake (wt%)
1.23058	0.0365797
10.0975	0.253675
19.9654	0.470771
29.6904	0.678428
40.1305	0.886085
50.1415	1.07801
59.8664	1.25735
70.1635	1.4304
79.8884	1.60344
90.1855	1.77649
100.053	1.9401
