Adsorption isotherm of Hydrogen on Pc-PBBA COF
DOI: 10.1039/C3cp50492a
Adsorbate Hydrogen: InChIKey UFHFLCQGNIYNRP-UHFFFAOYSA-N
Temperature: 298 K
Tabular data in the source: 0
pressure (bar)	uptake (wt%)
0.658518	0.0114092
10.2405	0.0774818
20.3945	0.152993
29.9764	0.228505
40.2735	0.297724
50.1415	0.366943
60.0095	0.429869
70.0205	0.499088
80.1745	0.558868
90.1855	0.615502
99.9104	0.678428
