Adsorption isotherm of Hydrogen on C60-COF
DOI: 10.1039/C3cp50492a
Adsorbate Hydrogen: InChIKey UFHFLCQGNIYNRP-UHFFFAOYSA-N
Temperature: 77 K
Tabular data in the source: 0
pressure (bar)	uptake (wt%)
0.984391	1.55796
9.99848	5.00866
19.9985	6.42838
29.9985	7.51289
40.2802	8.2819
50.1393	8.91289
59.5759	9.38613
70.1393	9.83965
80.1393	10.2143
89.8576	10.5298
99.8576	10.7861
