Adsorption isotherm of Hydrogen on C36-COF
DOI: 10.1039/C3cp50492a
Adsorbate Hydrogen: InChIKey UFHFLCQGNIYNRP-UHFFFAOYSA-N
Temperature: 77 K
Tabular data in the source: 0
pressure (bar)	uptake (wt%)
1.40693	1.41993
9.71679	5.0481
19.9985	6.62557
30.2802	7.74951
40.421	8.47909
49.9985	9.05092
60.2802	9.58331
70.2802	9.95796
80.1393	10.3129
89.8576	10.6481
99.9985	10.8847
