Adsorption isotherm of Hydrogen on C30-COF
DOI: 10.1039/C3cp50492a
Adsorbate Hydrogen: InChIKey UFHFLCQGNIYNRP-UHFFFAOYSA-N
Temperature: 298 K
Tabular data in the source: 0
pressure (bar)	uptake (wt%)
0.658518	0.0302871
10.5265	0.253675
20.2515	0.473917
30.2625	0.687867
39.9874	0.895524
50.2845	1.11891
60.1525	1.31398
70.0205	1.50276
80.1745	1.69154
90.1855	1.87403
100.053	2.05651
