Adsorption isotherm of Hydrogen on C36-COF
DOI: 10.1039/C3cp50492a
Adsorbate Hydrogen: InChIKey UFHFLCQGNIYNRP-UHFFFAOYSA-N
Temperature: 298 K
Tabular data in the source: 0
pressure (bar)	uptake (wt%)
1.23058	0.0302871
9.95445	0.209627
19.5364	0.404699
29.6904	0.59977
40.2735	0.807427
50.2845	0.986767
60.0095	1.15352
70.0205	1.32657
80.3175	1.49018
90.3285	1.65379
99.9104	1.80481
