Adsorption isotherm of Hydrogen on Pc-PBBA COF
DOI: 10.1039/C3cp50492a
Adsorbate Hydrogen: InChIKey UFHFLCQGNIYNRP-UHFFFAOYSA-N
Temperature: 298 K
Tabular data in the source: 0
pressure (bar)	uptake (g/l)
1.26608	0.0902628
10.2802	0.586037
19.9985	1.14942
30.421	1.70153
40.2802	2.24238
50.1393	2.71562
59.7168	3.20012
70.5619	3.70716
79.7168	4.16914
90.2802	4.61984
100.139	5.08181
