Adsorption isotherm of Hydrogen on C30-COF
DOI: 10.1039/C3cp50492a
Adsorbate Hydrogen: InChIKey UFHFLCQGNIYNRP-UHFFFAOYSA-N
Temperature: 298 K
Tabular data in the source: 0
pressure (bar)	uptake (wt%)
0.944547	0.0473821
9.66842	0.261904
20.1085	0.483576
30.1195	0.698097
39.8444	0.912619
50.1415	1.11284
60.2955	1.29161
70.3065	1.47753
80.1745	1.64199
89.8994	1.82791
100.053	1.98523
