Adsorption isotherm of Hydrogen on Pc-PBBA COF
DOI: 10.1039/C3cp50492a
Adsorbate Hydrogen: InChIKey UFHFLCQGNIYNRP-UHFFFAOYSA-N
Temperature: 77 K
Tabular data in the source: 0
pressure (bar)	uptake (g/l)
0.632786	0.669522
1.57175	3.95591
10.398	18.9794
20.0694	24.9418
30.0225	28.3221
40.2572	30.9982
50.1164	32.8291
60.1633	34.3315
70.1164	35.646
79.8816	36.9606
89.8347	37.8996
99.9755	38.7916
