Adsorption isotherm of Hydrogen on C28-COF
DOI: 10.1039/C3cp50492a
Adsorbate Hydrogen: InChIKey UFHFLCQGNIYNRP-UHFFFAOYSA-N
Temperature: 77 K
Tabular data in the source: 0
pressure (bar)	uptake (g/l)
1.47786	6.39722
10.3041	21.3268
19.9755	29.8245
30.3041	34.6601
40.3511	38.2752
50.2103	41.0921
59.8816	43.5334
70.2103	45.7399
79.9755	47.2892
89.8347	48.7446
99.9755	50.3878
