Adsorption isotherm of Hydrogen on C36-COF
DOI: 10.1039/C3cp50492a
Adsorbate Hydrogen: InChIKey UFHFLCQGNIYNRP-UHFFFAOYSA-N
Temperature: 298 K
Tabular data in the source: 0
pressure (bar)	uptake (g/l)
1.26608	0.169319
9.71679	0.845375
19.8576	1.69045
29.9985	2.47918
39.9985	3.29608
50.1393	4.0003
59.8576	4.67636
70.2802	5.43692
79.7168	6.05664
89.9985	6.70453
99.8576	7.35242
