Adsorption isotherm of Hydrogen on Li_C30-COF
DOI: 10.1039/C3cp50492a
Adsorbate Hydrogen: InChIKey UFHFLCQGNIYNRP-UHFFFAOYSA-N
Temperature: 298 K
Tabular data in the source: 0
pressure (bar)	uptake (wt%)
1.23058	0.161794
9.81143	1.21295
19.8224	1.97808
29.8334	2.50723
39.9874	2.97202
49.7124	3.34386
59.8664	3.64419
80.3175	4.2377
89.8994	4.45937
100.053	4.65244
