Adsorption isotherm of Hydrogen on C26-COF
DOI: 10.1039/C3cp50492a
Adsorbate Hydrogen: InChIKey UFHFLCQGNIYNRP-UHFFFAOYSA-N
Temperature: 77 K
Tabular data in the source: 0
pressure (bar)	uptake (wt%)
1.26608	1.69599
10.2802	5.42275
19.9985	7.15796
30.1393	8.24247
39.9985	8.97204
49.7168	9.56359
59.7168	10.1157
70.1393	10.5101
80.1393	10.8453
90.1393	11.1805
99.9985	11.4763
