Adsorption isotherm of Hydrogen on C36-COF
DOI: 10.1039/C3cp50492a
Adsorbate Hydrogen: InChIKey UFHFLCQGNIYNRP-UHFFFAOYSA-N
Temperature: 298 K
Tabular data in the source: 0
pressure (bar)	uptake (g/l)
1.26608	0.124066
10.1393	0.845192
20.421	1.66773
30.2802	2.45646
40.1393	3.22266
50.1393	3.96632
59.9985	4.66491
70.1393	5.37477
80.1393	6.07336
89.9985	6.72688
99.9985	7.33533
