Adsorption isotherm of Hydrogen on C30-COF
DOI: 10.1039/C3cp50492a
Adsorbate Hydrogen: InChIKey UFHFLCQGNIYNRP-UHFFFAOYSA-N
Temperature: 77 K
Tabular data in the source: 0
pressure (bar)	uptake (wt%)
1.26608	1.73542
10.1393	5.46219
19.9985	7.1974
29.8576	8.32134
40.1393	9.20866
59.9985	10.4312
70.1393	10.8847
80.1393	11.2791
89.9985	11.5946
99.8576	11.9495
