Adsorption isotherm of Hydrogen on Pc-PBBA COF
DOI: 10.1039/C3cp50492a
Adsorbate Hydrogen: InChIKey UFHFLCQGNIYNRP-UHFFFAOYSA-N
Temperature: 77 K
Tabular data in the source: 0
pressure (bar)	uptake (wt%)
0.702701	0.138242
1.54777	0.611481
10.421	2.56359
20.7027	3.29317
30.421	3.70726
39.9985	4.02275
50.421	4.27909
60.2802	4.45655
69.8576	4.63402
80.1393	4.75233
90.1393	4.92979
99.8576	5.00866
