Adsorption isotherm of Hydrogen on Li_C36-COF
DOI: 10.1039/C3cp50492a
Adsorbate Hydrogen: InChIKey UFHFLCQGNIYNRP-UHFFFAOYSA-N
Temperature: 298 K
Tabular data in the source: 0
pressure (bar)	uptake (g/l)
0.984391	0.732699
10.1393	5.23974
19.7168	8.31016
29.9985	10.62
39.9985	12.4792
49.4351	14.0285
80.421	17.6623
90.2802	18.5919
100.421	19.5496
