Adsorption isotherm of Hydrogen on C20-COF
DOI: 10.1039/C3cp50492a
Adsorbate Hydrogen: InChIKey UFHFLCQGNIYNRP-UHFFFAOYSA-N
Temperature: 77 K
Tabular data in the source: 0
pressure (bar)	uptake (wt%)
0.561856	0.295988
1.26608	2.05092
9.99848	4.96923
20.1393	6.36923
29.8576	7.25655
40.1393	7.90726
49.9985	8.41993
59.8576	8.87345
69.7168	9.18895
80.1393	9.48472
90.1393	9.80021
99.5759	9.97768
