Adsorption isotherm of Hydrogen on C26-COF
DOI: 10.1039/C3cp50492a
Adsorbate Hydrogen: InChIKey UFHFLCQGNIYNRP-UHFFFAOYSA-N
Temperature: 298 K
Tabular data in the source: 0
pressure (bar)	uptake (wt%)
1.65962	0.0302871
10.2405	0.231651
20.1085	0.439308
30.1195	0.653257
40.2735	0.854622
50.1415	1.03396
60.0095	1.21645
70.1635	1.40208
79.7454	1.56569
89.8994	1.73874
99.7674	1.90234
