Adsorption isotherm of Hydrogen on C20-COF
DOI: 10.1039/C3cp50492a
Adsorbate Hydrogen: InChIKey UFHFLCQGNIYNRP-UHFFFAOYSA-N
Temperature: 77 K
Tabular data in the source: 0
pressure (bar)	uptake (g/l)
0.632786	0.293935
1.29006	9.07328
10.1164	22.7822
20.2572	29.4489
30.1164	33.7681
40.0694	37.1484
49.9286	39.7775
59.8816	41.9841
70.2103	43.909
80.0694	45.5991
90.1164	47.0075
99.9755	48.2752
