Adsorption isotherm of Hydrogen on C24-COF
DOI: 10.1039/C3cp50492a
Adsorbate Hydrogen: InChIKey UFHFLCQGNIYNRP-UHFFFAOYSA-N
Temperature: 77 K
Tabular data in the source: 0
pressure (bar)	uptake (wt%)
0.702701	0.118523
1.68862	1.79458
9.99848	4.67345
20.2802	5.97486
30.2802	6.86219
40.1393	7.47345
50.2802	7.94669
60.7027	8.36078
70.1393	8.63683
80.2802	8.95233
90.1393	9.20866
100.28	9.40585
