Adsorption isotherm of Hydrogen on C30-COF
DOI: 10.1039/C3cp50492a
Adsorbate Hydrogen: InChIKey UFHFLCQGNIYNRP-UHFFFAOYSA-N
Temperature: 298 K
Tabular data in the source: 0
pressure (bar)	uptake (g/l)
0.421011	0.197488
9.57594	0.958051
20.1393	1.83129
29.8576	2.62002
39.9985	3.43692
49.8576	4.16932
60.421	4.92988
70.1393	5.60594
80.2802	6.28199
90.2802	6.98622
99.8576	7.60594
