Adsorption isotherm of Hydrogen on Li_C70-COF
DOI: 10.1039/C3cp50492a
Adsorbate Hydrogen: InChIKey UFHFLCQGNIYNRP-UHFFFAOYSA-N
Temperature: 298 K
Tabular data in the source: 0
pressure (bar)	uptake (g/l)
0.280166	0.648192
9.99848	4.56369
20.2802	7.57777
29.9985	9.71861
39.5759	11.4369
50.1393	12.9017
60.1393	14.282
80.2802	16.5355
89.9985	17.4933
99.8576	18.3102
