Adsorption isotherm of Hydrogen on C20-COF
DOI: 10.1039/C3cp50492a
Adsorbate Hydrogen: InChIKey UFHFLCQGNIYNRP-UHFFFAOYSA-N
Temperature: 298 K
Tabular data in the source: 0
pressure (bar)	uptake (g/l)
1.12524	0.112798
9.99848	0.957868
20.1393	1.87054
29.9985	2.68181
39.9985	3.49308
50.1393	4.23674
59.8576	4.96914
70.1393	5.7128
80.2802	6.40012
90.2802	7.08745
99.9985	7.6959
