Adsorption isotherm of Hydrogen on C60-COF
DOI: 10.1039/C3cp50492a
Adsorbate Hydrogen: InChIKey UFHFLCQGNIYNRP-UHFFFAOYSA-N
Temperature: 298 K
Tabular data in the source: 0
pressure (bar)	uptake (wt%)
0.944547	0.0302871
9.95445	0.231651
19.8224	0.436162
30.4055	0.643818
40.4165	0.845183
50.2845	1.03082
60.5815	1.21016
70.3065	1.37691
80.1745	1.54996
90.1855	1.71671
100.196	1.87403
