Adsorption isotherm of Hydrogen on C70-COF
DOI: 10.1039/C3cp50492a
Adsorbate Hydrogen: InChIKey UFHFLCQGNIYNRP-UHFFFAOYSA-N
Temperature: 77 K
Tabular data in the source: 0
pressure (bar)	uptake (wt%)
1.40693	1.99176
10.2802	5.0481
19.7168	6.31007
30.421	7.6312
40.1393	8.47909
50.2802	9.07064
60.2802	9.58331
69.9985	9.9974
79.9985	10.372
90.1393	10.7467
99.9985	11.0227
