Adsorption isotherm of Hydrogen on C24-COF
DOI: 10.1039/C3cp50492a
Adsorbate Hydrogen: InChIKey UFHFLCQGNIYNRP-UHFFFAOYSA-N
Temperature: 298 K
Tabular data in the source: 0
pressure (bar)	uptake (wt%)
1.37359	0.0302871
10.3835	0.187603
19.9654	0.370089
29.9764	0.549429
40.2735	0.71933
49.9985	0.879792
60.1525	1.03082
70.1635	1.18498
79.8884	1.33286
90.1855	1.46501
99.7674	1.6003
