Adsorption isotherm of Hydrogen on C36-COF
DOI: 10.1039/C3cp50492a
Adsorbate Hydrogen: InChIKey UFHFLCQGNIYNRP-UHFFFAOYSA-N
Temperature: 77 K
Tabular data in the source: 0
pressure (bar)	uptake (g/l)
1.47786	5.92774
10.5858	21.0451
20.1633	28.3221
30.3041	33.1578
40.0694	36.8198
50.1164	39.8245
60.1633	41.9371
70.2103	43.9559
80.3511	45.693
90.2103	47.3831
100.257	48.5568
