Adsorption isotherm of Hydrogen on C70-COF
DOI: 10.1039/C3cp50492a
Adsorbate Hydrogen: InChIKey UFHFLCQGNIYNRP-UHFFFAOYSA-N
Temperature: 298 K
Tabular data in the source: 0
pressure (bar)	uptake (wt%)
9.81143	0.22615
20.1085	0.440671
29.9764	0.640891
40.1305	0.82681
50.2845	1.01273
60.1525	1.19865
70.3065	1.37026
80.0315	1.55618
89.6134	1.6992
100.053	1.87081
