Adsorption isotherm of Hydrogen on C24-COF
DOI: 10.1039/C3cp50492a
Adsorbate Hydrogen: InChIKey UFHFLCQGNIYNRP-UHFFFAOYSA-N
Temperature: 298 K
Tabular data in the source: 0
pressure (bar)	uptake (g/l)
1.26608	0.135333
9.99848	0.924066
20.2802	1.7804
30.1393	2.55787
40.2802	3.35787
50.2802	4.1128
60.1393	4.85646
70.1393	5.55505
79.9985	6.23111
89.9985	6.90716
100.139	7.53815
