Adsorption isotherm of Hydrogen on C20-COF
DOI: 10.1039/C3cp50492a
Adsorbate Hydrogen: InChIKey UFHFLCQGNIYNRP-UHFFFAOYSA-N
Temperature: 298 K
Tabular data in the source: 0
pressure (bar)	uptake (wt%)
0.944547	0.0334334
10.2405	0.21592
20.1085	0.407845
30.1195	0.59977
40.2735	0.785403
50.1415	0.95845
59.8664	1.1252
70.4495	1.28881
79.7454	1.43669
90.3285	1.59715
99.7674	1.73244
