Adsorption isotherm of Hydrogen on C60-COF
DOI: 10.1039/C3cp50492a
Adsorbate Hydrogen: InChIKey UFHFLCQGNIYNRP-UHFFFAOYSA-N
Temperature: 298 K
Tabular data in the source: 0
pressure (bar)	uptake (g/l)
1.26608	0.10153
10.2802	0.924066
20.2802	1.7804
29.8576	2.5804
39.7168	3.43674
49.9985	4.16914
59.8576	4.9128
70.421	5.64519
80.2802	6.33252
90.1393	7.00857
100.28	7.63956
