Adsorption isotherm of Hydrogen on C28-COF
DOI: 10.1039/C3cp50492a
Adsorbate Hydrogen: InChIKey UFHFLCQGNIYNRP-UHFFFAOYSA-N
Temperature: 77 K
Tabular data in the source: 0
pressure (bar)	uptake (wt%)
1.12524	1.63683
10.2802	5.42275
19.7168	7.00021
30.2802	8.12416
40.2802	8.87345
50.2802	9.42557
59.9985	9.97768
69.9985	10.372
80.1393	10.727
89.7168	10.9833
99.9985	11.2594
