Adsorption isotherm of Methane on [Zn3-(ntb)2]n
DOI: 10.1002/chem.200601534
Adsorbate Methane: InChIKey VNWKTOKETHGBQD-UHFFFAOYSA-N
Temperature: 195 K
Tabular data in the source: 0
pressure (bar)	uptake (cm3(STP)/g)
0.0067264	1.83161
0.00682195	6.40308
0.0102998	12.8046
0.0137968	20.1205
0.0273929	30.6409
0.0342148	37.044
0.0476867	41.6215
0.0510977	44.8231
0.0678755	47.5735
0.091351	50.7841
0.111463	53.0789
0.165064	57.6745
0.208595	60.437
0.265492	62.7484
0.325714	64.147
0.365891	66.4508
0.466271	69.2389
0.569976	71.1143
0.616822	72.5069
0.670347	73.4453
0.723881	74.8409
0.777386	74.865
0.824223	75.8004
0.877747	76.7389
0.924574	77.2171
0.974755	78.1541
