Adsorption isotherm of Nitrogen on [Zn3-(ntb)2]n
DOI: 10.1002/chem.200601534
Adsorbate Nitrogen: InChIKey IJGRMHOSHXDMSA-UHFFFAOYSA-N
Temperature: 77 K
Tabular data in the source: 0
pressure (bar)	uptake (cm3(STP)/g)
0	61.902
0.00340017	73.6588
0.00680034	83.6864
0.020401	86.1025
0.0442022	88.861
0.0646032	90.929
0.105405	93.3358
0.163208	96.0826
0.214211	97.4485
0.261813	99.1614
0.312815	100.527
0.360418	101.894
0.41482	103.259
0.462423	104.626
0.510025	105.647
0.564428	107.358
0.61203	108.033
0.666433	109.052
0.717435	110.418
0.761638	112.132
0.81944	113.15
0.867043	114.863
0.924846	116.226
0.965648	119.67
