Adsorption isotherm of Carbon Dioxide on [Zn3-(ntb)2]n
DOI: 10.1002/chem.200601534
Adsorbate Carbon Dioxide: InChIKey CURLTUGMZLYLDI-UHFFFAOYSA-N
Temperature: 273 K
Tabular data in the source: 0
pressure (bar)	uptake (cm3(STP)/g)
0.0334982	2.75797
0.0569546	5.05427
0.093797	7.81375
0.120588	9.65441
0.170816	12.8771
0.221025	15.1854
0.244463	16.5674
0.294672	18.8758
0.324797	20.2608
0.374987	21.6549
0.425177	23.049
0.472023	24.4415
0.522204	25.3785
0.592496	28.6102
0.639304	28.1741
0.729642	30.5006
0.816617	31.9113
0.853412	32.385
0.893551	32.8603
0.933699	33.7927
0.970484	33.8093
1.01065	35.656
