Adsorption isotherm of Ethanol on [Zn3-(ntb)2]n
DOI: 10.1002/chem.200601534
Adsorbate Ethanol: InChIKey LFQSCWFLJHTTHZ-UHFFFAOYSA-N
Temperature: 298 K
Tabular data in the source: 0
pressure (bar)	uptake (cm3(STP)/g)
0.000420488	28.4158
0.000717435	31.8812
0.00161497	36.0396
0.00311757	36.7327
0.00371667	38.8119
0.00476603	41.5842
0.00611606	44.3564
0.00686661	45.396
0.0082185	46.4356
0.00942042	47.1287
0.0112233	48.1683
0.0136275	49.2079
0.0157322	49.2079
0.0175355	49.901
0.019639	50.9406
0.0218937	51.2871
0.0255009	51.9802
0.0301594	53.7129
0.0351975	121.98
0.0391013	126.485
0.0451106	130.297
0.0494669	133.416
