Adsorption isotherm of Hydrogen on [Zn3-(ntb)2]n
DOI: 10.1002/chem.200601534
Adsorbate Hydrogen: InChIKey UFHFLCQGNIYNRP-UHFFFAOYSA-N
Temperature: 77 K
Tabular data in the source: 0
pressure (bar)	uptake (cm3(STP)/g)
0	3.80403
0.00340017	13.14
0.0102005	16.9418
0.0170008	33.8847
0.0374018	42.8691
0.0442022	48.3999
0.0510025	52.8933
0.061203	56.0022
0.0714035	59.4569
0.0850042	62.2188
0.0918045	65.3289
0.105405	68.0908
0.159808	76.0261
0.20401	81.5442
0.258413	86.0213
0.306015	89.1175
0.350217	92.2148
0.41142	94.9604
0.462423	97.3638
0.516826	99.766
0.561028	100.788
0.61543	102.153
0.666433	103.519
0.717435	105.231
0.768438	105.905
0.81604	107.618
0.870443	108.637
0.924846	109.31
0.972448	111.023
