Adsorption isotherm of Carbon Dioxide on [Zn3-(ntb)2]n
DOI: 10.1002/chem.200601534
Adsorbate Carbon Dioxide: InChIKey CURLTUGMZLYLDI-UHFFFAOYSA-N
Temperature: 195 K
Tabular data in the source: 0
pressure (bar)	uptake (cm3(STP)/g)
0.0005255	25.1431
0.00345875	5.48727
0.00366895	15.5445
0.00416578	39.3162
0.00768185	47.5463
0.00778695	52.5749
0.00791116	58.5179
0.0113986	65.3766
0.0115228	71.3195
0.0218035	83.2098
0.035304	89.1588
0.0454128	92.8205
0.0655728	97.401
0.0723566	101.976
0.0924689	104.27
0.1126	107.479
0.156169	112.07
0.20977	116.666
0.259989	119.432
0.316915	123.114
0.360436	125.42
0.417343	128.188
0.467513	128.668
0.517723	130.976
0.567932	133.285
0.621466	134.68
0.671675	136.989
0.721855	137.926
0.772065	140.234
0.818911	141.627
0.872473	144.394
0.919319	145.786
0.972882	148.553
1.01975	150.86
