Adsorption isotherm of Methane on [Zn3-(ntb)2]n
DOI: 10.1002/chem.200601534
Adsorbate Methane: InChIKey VNWKTOKETHGBQD-UHFFFAOYSA-N
Temperature: 273 K
Tabular data in the source: 0
pressure (bar)	uptake (cm3(STP)/g)
0.0703023	3.68886
0.0870419	4.6107
0.113814	5.53706
0.157344	8.29956
0.207563	11.0651
0.257782	13.8306
0.311335	16.1405
0.368223	17.9947
0.40838	19.3842
0.458599	22.1498
0.515487	24.004
0.572375	25.8582
0.622565	27.2523
0.666066	28.6434
0.712922	30.4931
0.7698	31.8902
0.823334	33.2857
0.866827	34.2197
0.917026	36.0709
0.973895	37.0108
1.01071	38.3989
