Adsorption isotherm of Carbon Dioxide on MOF-705
DOI: 10.1039/c5cc07578e
Article source: Figure 3
Adsorbate Carbon Dioxide: InChIKey CURLTUGMZLYLDI-UHFFFAOYSA-N
Kind: experiment
Temperature: 298 K
Tabular data in the source: 0
pressure (bar)	uptake (cm3(STP)/cm3)
0.005324	0.948757
0.007099	2.30338
0.010648	3.25192
0.014197	3.79413
0.015972	11.7853
0.024845	5.5562
0.033719	7.45349
0.044367	9.35101
0.05324	11.1129
0.062114	21.8138
0.067438	13.0108
0.078086	14.6375
0.088734	16.1286
0.097607	17.2133
0.11003	18.5693
0.115354	27.1027
0.122452	19.9253
0.168594	23.7234
0.218285	33.7523
0.221834	27.3871
0.276849	30.6446
0.322991	38.506
0.330089	33.3602
0.388653	35.6701
0.427697	42.3116
0.443669	37.8441
0.496908	39.7471
0.534177	45.4403
0.548374	41.5143
0.59984	43.0107
0.640657	47.8917
0.658405	44.508
0.70987	46.1398
0.748912	50.208
0.764884	47.5012
0.819899	48.7271
0.855392	51.9822
0.873139	50.2237
0.92638	51.5849
0.963647	53.4858
0.979619	52.5397
1.03286	53.7655
1.079	54.8549
