Adsorption isotherm of Nitrogen on MOF-705
DOI: 10.1039/c5cc07578e
Article source: Figure 3
Adsorbate Nitrogen: InChIKey IJGRMHOSHXDMSA-UHFFFAOYSA-N
Kind: experiment
Temperature: 298 K
Tabular data in the source: 0
pressure (bar)	uptake (cm3(STP)/cm3)
0.019521	0.81512
0.037268	0.817374
0.05324	0.954842
0.070987	0.821655
0.088734	0.959349
0.108255	0.961828
0.127777	0.964307
0.156171	1.10335
0.179243	1.10628
0.211187	1.11034
0.236031	1.11349
0.266201	1.11733
0.287498	1.39091
0.321216	1.12431
0.344286	1.26268
0.374456	1.40195
0.401076	1.26989
0.429471	1.40894
0.452541	1.41187
0.482711	1.4157
0.505782	1.55407
0.537726	1.69357
0.560797	1.56106
0.590966	1.70033
0.617587	1.70371
0.645982	1.84275
0.669052	1.84568
0.700996	1.98518
0.725842	1.98833
0.754237	1.99194
0.777307	2.13031
0.807476	2.13414
0.832322	2.1373
0.864266	2.27679
0.887336	2.27972
0.91928	2.28378
0.942352	2.28671
0.979619	2.42688
0.995591	2.42891
1.04173	2.57021
1.05061	2.57134
1.08965	2.57629
