Adsorption isotherm of Nitrogen on MOF-705
DOI: 10.1039/c5cc07578e
Article source: Figure 3
Adsorbate Nitrogen: InChIKey IJGRMHOSHXDMSA-UHFFFAOYSA-N
Kind: experiment
Temperature: 273 K
Tabular data in the source: 0
pressure (bar)	uptake (cm3(STP)/cm3)
0.028395	0.951687
0.040817	1.0887
0.044367	0.953715
0.049691	1.08983
0.062114	1.09141
0.069212	1.09231
0.081635	1.36477
0.094058	1.23091
0.101156	1.36725
0.115354	1.36905
0.126002	1.3704
0.156171	1.37423
0.179243	1.37716
0.209412	1.51643
0.232482	1.51936
0.262652	1.65864
0.285722	1.52612
0.314117	1.66517
0.340737	1.93943
0.370907	1.80782
0.393977	2.21707
0.422372	2.08524
0.445443	2.22361
0.475613	2.22744
0.502232	2.5017
0.530627	2.50531
0.553698	2.64368
0.582093	2.64728
0.606938	2.78588
0.637108	2.78971
0.661954	3.06374
0.690349	2.93191
0.715193	3.0705
0.743588	3.07411
0.768434	3.34814
0.800378	3.3522
0.821674	3.35491
0.850069	3.35851
0.876689	3.63277
0.906859	3.50116
0.929929	3.63953
0.963647	3.91469
0.98317	3.91717
1.02576	3.92258
1.03818	4.0596
1.07545	4.19977
