Adsorption isotherm of Carbon Dioxide on MOF-705
DOI: 10.1039/c5cc07578e
Article source: Figure 3
Adsorbate Carbon Dioxide: InChIKey CURLTUGMZLYLDI-UHFFFAOYSA-N
Kind: experiment
Temperature: 273 K
Tabular data in the source: 0
pressure (bar)	uptake (cm3(STP)/cm3)
0.012423	5.01286
0.014197	6.36749
0.015972	25.6002
0.019521	8.53521
0.03017	11.6517
0.040817	14.9036
0.051466	18.291
0.060339	35.3575
0.063888	21.0013
0.074536	23.5761
0.086959	25.6092
0.097607	27.6422
0.108255	29.5397
0.111804	40.6463
0.120678	31.0311
0.168594	34.6941
0.214736	46.2124
0.221834	38.2223
0.278624	41.2092
0.319442	50.4243
0.333639	43.925
0.386879	46.3697
0.425922	53.4175
0.441894	48.2728
0.496908	50.176
0.532402	56.1398
0.548374	51.6723
0.605164	53.3048
0.640657	58.4561
0.658405	54.8014
0.711644	56.0272
0.747137	60.3658
0.76666	57.3886
0.819899	58.6143
0.851843	61.8689
0.873139	59.9754
0.928154	61.2014
0.963647	63.2375
0.981394	62.4271
1.03463	63.5174
1.079	64.4711
