Adsorption isotherm of N-propane on Zeolite MFI
DOI: 10.1016/j.memsci.2007.02.037
Adsorbate N-propane: InChIKey ATUOYWHBWRKTHZ-UHFFFAOYSA-N
Temperature: 350 K
Tabular data in the source: 0
pressure (bar)	uptake (mmol/g)
0.00400996	0.0124843
0.00619484	0.0955095
0.0149343	0.226602
0.0258587	0.397022
0.0433377	0.593661
0.0673713	0.803409
0.102329	0.991308
0.156951	1.17484
0.226867	1.32778
0.305523	1.43702
0.469388	1.55501
0.622329	1.62929
0.792749	1.67736
0.897623	1.70358
0.991573	1.71232
