Adsorption isotherm of N-propane on Zeolite MFI
DOI: 10.1016/j.memsci.2007.02.037
Adsorbate N-propane: InChIKey ATUOYWHBWRKTHZ-UHFFFAOYSA-N
Temperature: 350 K
Tabular data in the source: 0
pressure (bar)	uptake (mmol/g)
0.0100557	0.00499472
0.0100557	0.0911397
0.0152994	0.213493
0.0336523	0.397022
0.0467615	0.580552
0.0756019	0.799039
0.112308	0.986938
0.156879	1.17047
0.235535	1.33652
0.371871	1.48072
0.521316	1.58559
0.699602	1.64677
0.79661	1.66425
0.896241	1.69484
0.995871	1.70795
