Adsorption isotherm of N-propane on Zeolite MFI
DOI: 10.1016/j.memsci.2007.02.037
Adsorbate N-propane: InChIKey ATUOYWHBWRKTHZ-UHFFFAOYSA-N
Temperature: 350 K
Tabular data in the source: 0
pressure (bar)	uptake (mmol/g)
0.0161685	0.274669
0.021538	0.348955
0.0291272	0.43635
0.0376467	0.536854
0.0549026	0.702904
0.0788685	0.855846
0.105061	0.991308
0.157912	1.16173
0.233796	1.33215
0.30218	1.42828
0.47523	1.55064
0.633055	1.63366
1.01073	1.70795
