Adsorption isotherm of Nitrogen on S-MIL-53(Al)
DOI: 10.1016/j.jcat.2011.04.015
Adsorbate Nitrogen: InChIKey IJGRMHOSHXDMSA-UHFFFAOYSA-N
Temperature: 77 K
Tabular data in the source: 0
pressure (bar)	uptake (cm3(STP)/g)
0.00916528	8.42413
0.0320785	11.1746
0.0595743	16.7287
0.0939442	13.8121
0.130605	13.7058
0.167266	16.4164
0.199345	19.1403
0.229132	16.237
0.256628	18.9742
0.281832	16.0842
0.307037	21.645
0.32995	21.5785
0.355155	21.5054
0.380359	21.4324
0.403272	21.3659
0.426186	21.2995
0.449099	24.05
0.476595	23.9702
0.499508	23.9038
0.524712	26.6476
0.547626	26.5812
0.570539	29.3317
0.600326	26.4284
0.620948	26.3686
0.646152	31.9293
0.648444	31.9227
0.669066	29.046
0.673648	31.8496
0.69427	31.7898
0.698853	37.4103
0.719475	31.7167
0.726349	34.5137
0.740097	31.6569
0.751553	34.4406
0.76301	34.4074
0.774466	40.008
0.788214	34.3343
0.792797	39.9548
0.806545	34.2812
0.822584	42.6854
0.827167	37.0383
0.845497	51.0696
0.852371	39.7821
0.872993	53.8068
0.875285	48.1664
0.90278	59.3542
0.90278	76.2556
0.923402	81.8297
0.923402	112.816
0.939442	115.586
0.941733	163.467
0.946315	146.552
0.950898	194.426
0.955481	183.145
0.960063	256.371
0.964646	284.527
