Adsorption isotherm of Water on S-MIL-53(Al)
DOI: 10.1016/j.jcat.2011.04.015
Adsorbate Water: InChIKey XLYOFNOQVPJJNP-UHFFFAOYSA-N
Temperature: 323 K
Tabular data in the source: 0
pressure (bar)	uptake (mmol/g)
0.00386901	0.00618258
0.00604533	0.00966029
0.00870385	0.405732
0.0120899	0.215231
0.0152335	0.220255
0.0176509	0.420029
0.0210356	0.62135
0.0239367	0.821897
0.0273213	1.02322
0.0302231	1.02785
0.0331249	1.03249
0.0362649	2.01707
0.039407	2.41391
0.0422967	5.74903
0.0454189	11.6314
0.0487915	15.1632
0.0519301	16.5396
0.0553133	17.1327
0.0589377	17.9222
0.0611126	18.3175
0.0642533	19.1061
0.0669111	19.6981
0.0705355	20.4875
0.0734358	20.884
0.0763362	21.2805
0.0794776	21.8732
0.0828616	22.2704
0.086003	22.8632
0.0891444	23.456
0.0915604	24.0475
0.0951834	25.2288
0.100733	28.5682
0.10699	37.0024
0.10959	53.4631
0.113432	60.718
