Adsorption isotherm of Water on S-MIL-53(Al)
DOI: 10.1016/j.jcat.2011.04.015
Adsorbate Water: InChIKey XLYOFNOQVPJJNP-UHFFFAOYSA-N
Temperature: 358 K
Tabular data in the source: 0
pressure (bar)	uptake (mmol/g)
0.00483626	0.00772823
0.00580209	0.401095
0.00918748	0.406505
0.0123303	0.607439
0.0149896	0.8076
0.0181331	0.812623
0.0207917	1.2087
0.0239345	1.40963
0.0273192	1.61095
0.0304606	2.2037
0.033361	2.60016
0.0364882	7.11113
0.0398608	10.6429
0.0422761	11.4304
0.0463847	12.0247
0.0485596	12.42
0.0524265	13.014
0.0553261	13.6063
0.0584676	14.1991
0.0616083	14.9877
0.0642668	15.3838
0.0674083	15.9766
0.0707908	16.7656
0.0736897	17.5539
0.0765901	17.9504
0.0797308	18.739
0.0831133	19.5281
0.0852868	20.3152
0.0884254	21.6916
0.0913222	23.0676
0.0942197	24.2477
0.0978376	26.8003
0.100973	29.1563
0.104106	32.1
0.107236	35.6314
0.110128	38.3788
0.113016	42.1057
