Adsorption isotherm of Water on S-MIL-53(Al)
DOI: 10.1016/j.jcat.2011.04.015
Adsorbate Water: InChIKey XLYOFNOQVPJJNP-UHFFFAOYSA-N
Temperature: 298 K
Tabular data in the source: 0
pressure (bar)	uptake (mmol/g)
0.00390368	0.220255
0.00774558	0.244212
0.00855096	0.445146
0.0094183	0.646466
0.0101615	1.04292
0.0108432	1.04718
0.0117098	2.03214
0.0123888	4.77914
0.01319	9.48602
0.0139916	13.8011
0.014795	16.157
0.0155989	17.9252
0.0165271	19.3024
0.0178896	20.0946
0.0194993	21.6719
0.0219772	22.471
0.022782	23.2597
0.0250724	25.8208
0.0257531	26.8046
0.0265572	28.3769
0.0273595	31.9083
0.0281587	38.7702
0.0288833	59.1496
