Adsorption isotherm of Nitrogen on MIL-53(Al)
DOI: 10.1016/j.jcat.2011.04.015
Adsorbate Nitrogen: InChIKey IJGRMHOSHXDMSA-UHFFFAOYSA-N
Temperature: 77 K
Tabular data in the source: 0
pressure (bar)	uptake (cm3(STP)/g)
0.00687396	256.318
0.0252045	270.349
0.0458264	275.923
0.0733223	284.294
0.0824875	295.535
0.0870702	284.255
0.103109	284.208
0.116857	298.253
0.12144	289.789
0.135188	301.016
0.151227	289.702
0.160392	303.76
0.171849	298.093
0.185597	303.687
0.197054	298.02
0.213093	306.424
0.226841	300.751
0.233715	306.365
0.258919	300.658
0.261211	311.919
0.27725	303.421
0.281832	311.859
0.300163	303.355
0.307037	314.603
0.327659	306.092
0.332242	317.347
0.350572	308.843
0.355155	317.28
0.375777	308.77
0.378068	317.214
0.396398	308.71
0.403272	319.957
0.423894	311.447
0.43306	322.688
0.449099	317.008
0.458264	325.432
0.472012	316.941
0.476595	325.379
0.497217	319.685
0.504091	328.116
0.522421	319.612
0.527004	328.049
0.545334	319.546
0.5545	333.604
0.570539	322.289
0.577413	333.537
0.595743	325.033
0.600326	336.288
0.616365	324.973
0.630113	336.201
0.64157	333.351
0.650735	338.958
0.662192	330.474
0.67594	341.702
0.687396	333.218
0.705727	347.25
0.712601	338.779
0.72864	341.549
0.730931	349.993
0.753845	352.744
0.760718	344.273
0.774466	349.867
0.776758	355.494
0.804254	352.598
0.806545	363.859
0.829458	360.975
0.829458	372.243
0.852371	386.261
0.854663	374.987
0.877576	391.822
0.879867	417.167
0.90278	422.735
0.90278	481.889
0.921111	501.555
0.930276	614.204
0.93715	583.198
0.944024	642.333
0.946315	670.496
0.950898	729.637
0.957772	698.631
0.960063	791.583
0.962355	794.393
