Adsorption isotherm of Nitrogen on S-MIL-101(Cr)
DOI: 10.1016/j.jcat.2011.04.015
Adsorbate Nitrogen: InChIKey IJGRMHOSHXDMSA-UHFFFAOYSA-N
Temperature: 77 K
Tabular data in the source: 0
pressure (bar)	uptake (cm3(STP)/g)
0.00472759	315.636
0.00709139	328.252
0.00945518	349.286
0.011819	361.902
0.0165466	382.925
0.0283655	420.753
0.0378207	450.173
0.0449121	466.977
0.0543673	487.98
0.0661863	508.973
0.0780053	534.174
0.0827328	542.571
0.0945518	567.772
0.106371	601.391
0.111098	613.997
0.125281	630.77
0.132373	639.157
0.144192	639.106
0.151283	660.119
0.163102	664.277
0.174921	676.852
0.18674	681.009
0.196195	693.595
0.203286	718.816
0.212742	744.028
0.222197	752.404
0.23638	756.552
0.250562	756.49
0.269473	764.826
0.290747	768.942
0.319112	768.82
0.340387	772.936
0.361661	772.844
0.368752	772.813
0.385299	776.95
0.394754	781.118
0.408937	781.057
0.425483	780.985
0.432575	780.954
0.44203	776.705
0.458576	785.05
0.470395	780.79
0.482214	784.948
0.494033	784.897
0.505852	789.054
0.515307	784.805
0.52949	784.743
0.541309	788.901
0.550764	793.069
0.567311	788.788
0.576766	797.165
0.590949	792.894
0.59804	797.073
0.612223	792.802
0.626406	796.95
0.640589	796.888
0.652408	801.046
0.66659	796.776
0.676046	800.943
0.690228	800.882
0.699684	805.05
0.713866	800.779
0.723321	800.739
0.737504	800.677
0.746959	804.845
0.761142	804.783
0.770597	808.951
0.787144	804.671
0.794235	808.849
0.810782	804.568
0.817873	812.955
0.827328	812.914
0.85333	817.01
0.879332	816.898
0.900606	821.014
0.924244	829.329
0.938427	833.477
0.947882	850.271
0.954973	871.284
0.962065	921.758
0.966792	1001.7
