Adsorption isotherm of Nitrogen on Cr-MIL(101)
DOI: 10.1016/j.jcat.2011.04.015
Adsorbate Nitrogen: InChIKey IJGRMHOSHXDMSA-UHFFFAOYSA-N
Temperature: 77 K
Tabular data in the source: 0
pressure (bar)	uptake (cm3(STP)/g)
0	340.909
0.00472759	374.559
0.0165466	420.804
0.0260018	467.059
0.0354569	500.688
0.0449121	525.9
0.0543673	551.111
0.0661863	576.313
0.0756415	597.315
0.0827328	618.328
0.0945518	635.112
0.104007	664.533
0.113462	685.535
0.122917	723.373
0.1371	740.147
0.144192	752.742
0.151283	765.338
0.163102	777.913
0.172557	790.498
0.182012	803.084
0.196195	811.44
0.20565	824.025
0.212742	836.62
0.222197	895.502
0.224561	870.239
0.231652	912.296
0.243471	924.871
0.248199	929.059
0.267109	928.978
0.290747	937.293
0.321476	941.368
0.338023	945.505
0.371116	949.571
0.39239	949.479
0.413664	953.595
0.434938	953.503
0.458576	961.818
0.486942	961.695
0.512944	961.583
0.531854	965.709
0.56022	969.795
0.583858	969.693
0.607495	973.799
0.633497	973.687
0.657135	973.584
0.680773	977.691
0.704411	981.797
0.730413	981.684
0.754051	981.582
0.775325	985.698
0.801327	985.586
0.817873	993.932
0.832056	993.87
0.848603	998.007
0.876968	997.884
0.898242	1006.21
0.924244	1018.72
0.936063	1027.09
0.947882	1035.46
0.95261	1085.94
0.954973	1182.73
