Adsorption isotherm of Carbon Tetrachloride on CuBTC
DOI: 10.1039/C1cp20168a
Adsorbate Carbon Tetrachloride: InChIKey VZGDMQKNWNREIO-UHFFFAOYSA-N
Temperature: 298 K
Tabular data in the source: 0
pressure (bar)	uptake (mmol/g)
0.0106188	0.0767806
0.0225844	0.116108
0.0314782	0.129218
0.0438744	0.168545
0.059334	0.273419
0.073294	0.443839
0.0852343	0.627369
0.0905384	0.797789
0.0961726	1.00754
0.105288	1.3877
0.11184	2.25291
0.13006	4.12754
0.134046	3.24922
0.146751	4.4946
0.165584	4.84855
0.260409	5.59577
0.521398	5.75308
1.01291	5.85796
5.3282	5.98905
10.0433	6.02838
