Adsorption isotherm of Oxygen on CuBTC
DOI: 10.1039/C1cp20168a
Adsorbate Oxygen: InChIKey MYMOFIZGZYHOMD-UHFFFAOYSA-N
Temperature: 298 K
Tabular data in the source: 0
pressure (bar)	uptake (mmol/g)
0.00499282	0.0243436
0.0103031	0.0636713
0.0177392	0.0636713
0.0287529	0.0636713
0.0541971	0.0767806
0.108515	0.155436
0.16066	0.181654
0.260409	0.273419
0.521398	0.43073
1.04395	0.60115
5.3282	1.07308
9.74464	1.36149
