Adsorption isotherm of Oxygen on CuBTC
DOI: 10.1039/C1cp20168a
Adsorbate Oxygen: InChIKey MYMOFIZGZYHOMD-UHFFFAOYSA-N
Temperature: 298 K
Tabular data in the source: 0
pressure (bar)	uptake (mmol/g)
0.396176	0.0182577
0.851117	0.0477535
1.02011	0.0772493
1.98175	0.165737
3.92818	0.264056
8.10612	0.450863
10.1146	0.53935
20.0489	0.8933
29.386	1.1391
59.4324	1.67985
78.7728	1.87649
100.288	2.0338
