Adsorption isotherm of Nitrogen on CuBTC
DOI: 10.1039/C1cp20168a
Adsorbate Nitrogen: InChIKey IJGRMHOSHXDMSA-UHFFFAOYSA-N
Temperature: 298 K
Tabular data in the source: 0
pressure (bar)	uptake (mmol/g)
0.00416572	0.0243436
0.00969949	0.0374528
0.0172117	0.0374528
0.0314782	0.0374528
0.0541971	0.0374528
0.105288	0.0505621
0.276614	0.155436
0.476257	0.286528
0.982795	0.43073
4.72219	0.692915
10.0433	0.745352
