Adsorption isotherm of Argon on CuBTC
DOI: 10.1039/C1cp20168a
Adsorbate Argon: InChIKey XKRFYHLGVUSROY-UHFFFAOYSA-N
Temperature: 298 K
Tabular data in the source: 0
pressure (bar)	uptake (mmol/g)
3.9622	1.11366
7.9332	1.98761
14.9535	3.14122
24.7303	4.43466
34.4692	5.55332
44.3277	6.35735
56.4351	6.88172
66.963	7.44105
74.0513	7.58088
84.3994	7.93046
93.3333	8.17517
