Adsorption isotherm of Nitrogen on CuBTC
DOI: 10.1039/C1cp20168a
Adsorbate Nitrogen: InChIKey IJGRMHOSHXDMSA-UHFFFAOYSA-N
Temperature: 298 K
Tabular data in the source: 0
pressure (bar)	uptake (mmol/g)
0.00996692	0.0187264
0.102883	0.0318357
0.195887	0.0383903
0.396176	0.0514995
0.801255	0.0973819
1.02011	0.130155
2.02203	0.228474
4.17263	0.398894
8.10612	0.661079
10.1146	0.779063
20.4564	1.3231
29.9834	1.71637
63.1308	2.48982
80.374	2.71923
100.288	2.88965
