Adsorption isotherm of Carbon Tetrachloride on CuBTC
DOI: 10.1039/C1cp20168a
Adsorbate Carbon Tetrachloride: InChIKey VZGDMQKNWNREIO-UHFFFAOYSA-N
Temperature: 298 K
Tabular data in the source: 0
pressure (bar)	uptake (mmol/g)
1.05e-06	0.0243436
5.13e-06	0.0243436
1.08e-05	0.0112343
2.03e-05	0.0374528
3.44e-05	0.0898898
4.89e-05	0.220982
0.000106	1.13863
0.000118	2.16115
0.000118	3.23611
0.000127	3.86535
0.000146	4.28485
0.000207	5.22871
0.000327	5.59577
0.00039	5.67443
0.00101051	5.79241
0.0114772	6.02838
0.0307659	6.12014
0.0716355	6.15947
0.105527	6.17258
0.172775	6.22502
