Adsorption isotherm of Nitrogen on CuBTC
DOI: 10.1039/C1cp20168a
Adsorbate Nitrogen: InChIKey IJGRMHOSHXDMSA-UHFFFAOYSA-N
Temperature: 298 K
Tabular data in the source: 0
pressure (bar)	uptake (mmol/g)
0.0988242	0.0379215
0.199869	0.0379215
0.412446	0.0674173
0.801255	0.185401
1.02011	0.214896
1.94227	0.441031
4.00803	0.755653
8.10612	1.30624
9.71557	1.50288
19.6495	2.39759
29.9834	2.99733
60.6405	3.9412
75.6653	4.10834
98.2903	4.14767
