Adsorption isotherm of Argon on CuBTC
DOI: 10.1039/C1cp20168a
Adsorbate Argon: InChIKey XKRFYHLGVUSROY-UHFFFAOYSA-N
Temperature: 298 K
Tabular data in the source: 0
pressure (bar)	uptake (mmol/g)
2.02203	-0.00140618
4.0895	0.0280896
8.27089	0.0280896
10.1146	0.0280896
20.0489	0.0379215
31.2147	0.0575854
60.6405	0.0772493
82.0078	0.0674173
94.4129	0.0870812
