Adsorption isotherm of Nitrogen on CuBTC
DOI: 10.1039/C1cp20168a
Adsorbate Nitrogen: InChIKey IJGRMHOSHXDMSA-UHFFFAOYSA-N
Temperature: 298 K
Tabular data in the source: 0
pressure (bar)	uptake (mmol/g)
0.0630263	0.0243436
0.093313	0.0636713
0.138154	0.0767806
