Adsorption isotherm of Argon on CuBTC
DOI: 10.1039/C1cp20168a
Adsorbate Argon: InChIKey XKRFYHLGVUSROY-UHFFFAOYSA-N
Temperature: 298 K
Tabular data in the source: 0
pressure (bar)	uptake (mmol/g)
0.0182828	0.0898898
0.0239898	0.0636713
0.0344617	0.116108
0.0480329	0.129218
0.0669484	0.207873
