Adsorption isotherm of Argon on CuBTC
DOI: 10.1039/C1cp20168a
Adsorbate Argon: InChIKey XKRFYHLGVUSROY-UHFFFAOYSA-N
Temperature: 298 K
Tabular data in the source: 0
pressure (bar)	uptake (mmol/g)
0.429385	0.0318357
0.851117	0.0842726
1.04084	0.103936
2.14786	0.195701
4.0895	0.339903
8.27089	0.529987
9.71557	0.615197
20.0489	1.00192
28.8006	1.23133
64.4141	1.59839
83.6748	1.61805
100.288	1.56562
