Adsorption isotherm of Oxygen on CuBTC
DOI: 10.1039/C1cp20168a
Adsorbate Oxygen: InChIKey MYMOFIZGZYHOMD-UHFFFAOYSA-N
Temperature: 298 K
Tabular data in the source: 0
pressure (bar)	uptake (mmol/g)
0.0103762	0.025281
0.102883	0.0514995
0.191985	0.0318357
0.396176	0.0580541
0.769648	0.117046
1.04084	0.130155
2.10507	0.267802
3.92818	0.431668
8.10612	0.726626
10.1146	0.844609
20.4564	1.3952
28.8006	1.80814
60.6405	2.57503
80.374	2.81755
