Adsorption isotherm of Oxygen on CuBTC
DOI: 10.1039/C1cp20168a
Adsorbate Oxygen: InChIKey MYMOFIZGZYHOMD-UHFFFAOYSA-N
Temperature: 298 K
Tabular data in the source: 0
pressure (bar)	uptake (mmol/g)
0.0225844	0.0374528
0.0438744	0.0636713
0.059334	0.0636713
0.0690001	0.0898898
0.11184	0.129218
0.175888	0.168545
