Adsorption isotherm of Nitrogen on CuBTC
DOI: 10.1039/C1cp20168a
Adsorbate Nitrogen: InChIKey IJGRMHOSHXDMSA-UHFFFAOYSA-N
Temperature: 298 K
Tabular data in the source: 0
pressure (bar)	uptake (mmol/g)
0.0105872	0.0374528
0.0326732	0.0374528
0.0415973	0.0374528
0.104974	0.0505621
0.166759	0.0636713
0.249391	0.0898898
0.358254	0.102999
0.456105	0.116108
0.655203	0.207873
0.941211	0.299638
1.52558	0.456949
2.10507	0.60115
3.08544	0.797789
4.0895	1.03376
5.00109	1.20418
6.24021	1.41392
7.4792	1.58434
8.43902	1.74165
10.53	2.00384
20.0489	3.17056
31.8492	3.98334
41.3725	4.58636
60.6405	5.30737
80.374	5.62199
