Adsorption isotherm of Carbon Tetrachloride on CuBTC
DOI: 10.1039/C1cp20168a
Adsorbate Carbon Tetrachloride: InChIKey VZGDMQKNWNREIO-UHFFFAOYSA-N
Temperature: 298 K
Tabular data in the source: 0
pressure (bar)	uptake (mmol/g)
1.09e-05	0.0505621
5.08e-05	0.0636713
9.87e-05	0.0505621
0.000504	0.0374528
0.00100822	0.0374528
0.00190042	0.0505621
0.00308033	0.129218
0.00416572	0.155436
0.00546604	0.273419
0.00739206	0.378293
0.0083407	0.522495
0.00885974	0.706024
0.0103031	1.03376
0.0112796	1.78098
0.0123487	2.8035
0.0123487	3.48518
0.0139335	3.7867
0.0148006	3.95712
0.0172117	4.12754
0.0212613	4.54703
0.051022	4.94031
0.0991198	5.03207
0.260409	5.09762
0.476257	5.18939
1.04395	5.18939
5.01606	5.32048
8.63632	5.37291
