Adsorption isotherm of Carbon Tetrachloride on CuBTC
DOI: 10.1039/C1cp20168a
Adsorbate Carbon Tetrachloride: InChIKey VZGDMQKNWNREIO-UHFFFAOYSA-N
Temperature: 298 K
Tabular data in the source: 0
pressure (bar)	uptake (mmol/g)
0.000535	0.0505621
0.000921	0.0505621
0.00201868	0.0636713
0.00281365	0.102999
0.00484436	0.155436
0.00598413	0.312747
0.00761859	0.574932
0.00941108	0.837117
0.0106188	1.21728
0.0112796	2.2267
0.0119816	3.28855
0.0135192	3.95712
0.0152541	4.35039
0.0162034	4.67812
0.0167	4.79611
0.0212613	5.26804
0.0324428	5.66132
0.0425698	5.71376
0.0525856	5.75308
0.102157	5.81863
0.26839	5.93661
0.521398	6.00216
1.04395	6.0546
5.3282	6.1988
10.0433	6.27745
