Adsorption isotherm of Carbon Tetrachloride on CuBTC
DOI: 10.1039/C1cp20168a
Adsorbate Carbon Tetrachloride: InChIKey VZGDMQKNWNREIO-UHFFFAOYSA-N
Temperature: 298 K
Tabular data in the source: 0
pressure (bar)	uptake (mmol/g)
0.00506454	0.0243436
0.01061	0.0243436
0.0499641	0.181654
0.0575221	0.299638
0.0736026	0.43073
0.0762408	0.561823
0.0909197	0.810898
0.0941786	1.30905
0.104673	2.5151
0.112311	2.30535
0.112311	3.34098
0.120507	2.85594
0.138735	4.44216
0.154195	4.83544
0.204373	5.32048
0.243721	5.54333
0.323032	5.6351
0.385227	5.71376
0.807037	5.79241
1.06966	5.81863
2.0885	5.89728
4.22393	5.97594
7.68629	6.00216
10.1875	6.04149
19.8911	6.09392
34.9433	6.14636
84.2785	6.21191
