Adsorption isotherm of Argon on CuBTC
DOI: 10.1039/C1cp20168a
Adsorbate Argon: InChIKey XKRFYHLGVUSROY-UHFFFAOYSA-N
Temperature: 298 K
Tabular data in the source: 0
pressure (bar)	uptake (mmol/g)
0.0991198	0.0505621
0.142387	0.0636713
0.260409	0.168545
0.462096	0.273419
1.01291	0.404512
5.01606	0.745352
10.0433	0.902663
