Adsorption isotherm of Carbon Tetrachloride on CuBTC
DOI: 10.1039/C1cp20168a
Adsorbate Carbon Tetrachloride: InChIKey VZGDMQKNWNREIO-UHFFFAOYSA-N
Temperature: 298 K
Tabular data in the source: 0
pressure (bar)	uptake (mmol/g)
0.0287529	0.0374528
0.041304	0.102999
0.0558579	0.26031
0.0802409	0.443839
0.0826999	0.745352
0.105288	1.13863
0.115267	1.88586
0.115267	2.94771
0.126193	3.41964
0.142387	3.76048
0.245153	4.82233
0.476257	4.95342
0.925219	5.01897
5.16977	5.15006
9.74464	5.20249
