Adsorption isotherm of Argon on CuBTC
DOI: 10.1039/C1cp20168a
Adsorbate Argon: InChIKey XKRFYHLGVUSROY-UHFFFAOYSA-N
Temperature: 298 K
Tabular data in the source: 0
pressure (bar)	uptake (mmol/g)
2.16336	0.0243436
3.54198	0.0243436
8.24717	0.0374528
9.83503	0.0374528
19.2028	0.0374528
37.4932	0.0374528
75.8288	0.0374528
100.505	0.0505621
