Adsorption isotherm of Oxygen on CuBTC
DOI: 10.1039/C1cp20168a
Adsorbate Oxygen: InChIKey MYMOFIZGZYHOMD-UHFFFAOYSA-N
Temperature: 298 K
Tabular data in the source: 0
pressure (bar)	uptake (mmol/g)
0.0105872	0.0324581
0.0301462	0.0499371
0.0399564	0.0499371
0.0498564	0.0848951
0.0988242	0.0848951
0.147793	0.0848951
0.203932	0.0848951
0.317508	0.17229
0.42083	0.189769
0.569114	0.224727
0.754314	0.312122
0.941211	0.451954
1.58823	0.609265
2.10507	0.731618
2.62664	0.853971
3.08544	1.0812
4.17263	1.3259
5.31231	1.50069
6.24021	1.72792
7.4792	1.99011
9.14639	2.26977
10.1146	2.51447
20.4564	4.17498
30.5928	5.41599
43.0716	6.39481
65.7235	7.54842
82.0078	8.09027
96.3321	8.36994
