Adsorption isotherm of Carbon Tetrachloride on CuBTC
DOI: 10.1039/C1cp20168a
Adsorbate Carbon Tetrachloride: InChIKey VZGDMQKNWNREIO-UHFFFAOYSA-N
Temperature: 298 K
Tabular data in the source: 0
pressure (bar)	uptake (mmol/g)
0.0466047	0.207873
0.0669484	0.365184
0.0826999	0.574932
0.093313	0.863335
0.102157	1.3746
0.108515	2.08249
0.108515	2.55443
0.1188	2.81661
0.1188	3.43275
0.138154	4.38972
0.245153	5.58266
0.490852	5.75308
0.953573	5.84485
5.01606	5.97594
10.0433	6.0546
