Adsorption isotherm of Nitrogen on CuBTC
DOI: 10.1039/C1cp20168a
Adsorbate Nitrogen: InChIKey IJGRMHOSHXDMSA-UHFFFAOYSA-N
Temperature: 298 K
Tabular data in the source: 0
pressure (bar)	uptake (mmol/g)
0.116337	0.0374528
0.211698	0.102999
0.428153	0.181654
0.752151	0.312747
0.929116	0.338965
1.94646	0.43073
3.80045	0.496276
7.16355	0.522495
10.931	0.509386
18.5383	0.417621
40.2291	0.142327
