Adsorption isotherm of Carbon Tetrachloride on CuBTC
DOI: 10.1039/C1cp20168a
Adsorbate Carbon Tetrachloride: InChIKey VZGDMQKNWNREIO-UHFFFAOYSA-N
Temperature: 298 K
Tabular data in the source: 0
pressure (bar)	uptake (mmol/g)
4.78e-05	0.0112343
9.57e-05	0.0243436
0.000519	0.0243436
0.00100822	0.0243436
0.00201868	0.0505621
0.00289987	0.0898898
0.00429338	0.116108
0.0058062	0.247201
0.00635652	0.417621
0.00785207	0.561823
0.00941108	0.850226
0.00999673	1.23039
0.0127272	3.24922
0.0139335	4.40283
0.0157216	4.73056
0.0172117	5.03207
0.0200157	5.18939
0.0305422	5.64821
0.0388843	5.73997
0.0525856	5.76619
0.108515	5.80552
0.245153	5.89728
0.462096	6.00216
1.01291	6.06771
5.49149	6.14636
10.0433	6.22502
