Adsorption isotherm of Oxygen on CuBTC
DOI: 10.1039/C1cp20168a
Adsorbate Oxygen: InChIKey MYMOFIZGZYHOMD-UHFFFAOYSA-N
Temperature: 298 K
Tabular data in the source: 0
pressure (bar)	uptake (mmol/g)
0.000462	0.0112343
0.000934	0.0112343
0.00889705	0.0374528
0.068597	0.0243436
0.197301	0.0636713
0.865927	0.102999
2.0885	0.194764
3.66894	0.247201
7.68629	0.352075
9.83503	0.365184
21.3425	0.470058
37.4932	0.548713
75.8288	0.60115
