Adsorption isotherm of Nitrogen on [Me2NH2]2[Cd2(bpdc)3]*4dma
DOI: 10.1039/B906728k
Adsorbate Nitrogen: InChIKey IJGRMHOSHXDMSA-UHFFFAOYSA-N
Temperature: 77 K
Tabular data in the source: 0
pressure (bar)	uptake (cm3(STP)/g)
0.0105646	2.10675
0.0564469	10.8462
0.100144	19.5857
0.141657	27.779
0.202833	40.342
0.281489	57.2748
0.377623	76.9387
0.499976	102.611
0.615775	129.922
0.738128	157.233
0.818968	176.897
0.899808	196.014
0.941321	205.3
0.987203	216.224
