Adsorption isotherm of Carbon Dioxide on FMOF-2
DOI: 10.1002/cphc.201200243
Adsorbate Carbon Dioxide: InChIKey CURLTUGMZLYLDI-UHFFFAOYSA-N
Temperature: 293 K
Tabular data in the source: 0
pressure (bar)	uptake (mmol/g)
3.30097	1.77656
6.99029	2.17519
11.165	2.79586
15.534	4.3498
18.2524	4.70435
22.7184	4.92492
27.4757	4.99723
34.8544	5.35005
39.4175	5.71873
