Adsorption isotherm of Carbon Dioxide on FMOF-2
DOI: 10.1002/cphc.201200243
Adsorbate Carbon Dioxide: InChIKey CURLTUGMZLYLDI-UHFFFAOYSA-N
Temperature: 263 K
Tabular data in the source: 0
pressure (bar)	uptake (mmol/g)
0.592593	1.54251
2.5679	2.45304
5.33333	3.10597
6.02469	3.59648
7.01235	3.71278
8.2963	4.3432
8.98765	5.20773
10.1728	5.72133
13.7284	6.25691
19.6543	6.76773
