Adsorption isotherm of Carbon Dioxide on FMOF-2
DOI: 10.1002/cphc.201200243
Adsorbate Carbon Dioxide: InChIKey CURLTUGMZLYLDI-UHFFFAOYSA-N
Temperature: 293 K
Tabular data in the source: 0
pressure (bar)	uptake (mmol/g)
0.683721	0.656716
4.78605	1.77612
10.6465	1.9403
16.6047	2.46269
21.0977	3.16418
25.2977	4.08955
30.0837	4.91045
34.7721	5.26866
39.7535	5.64179
