Adsorption isotherm of Carbon Dioxide on FMOF-2
DOI: 10.1002/cphc.201200243
Adsorbate Carbon Dioxide: InChIKey CURLTUGMZLYLDI-UHFFFAOYSA-N
Temperature: 293 K
Tabular data in the source: 0
pressure (bar)	uptake (mmol/g)
3.00971	1.74703
7.86408	2.05635
13.3981	2.20245
15.2427	2.45361
18.7379	2.77825
23.8835	3.85782
29.6117	4.87792
35.3398	5.23136
40.3883	5.61467
