Adsorption isotherm of Carbon Dioxide on FMOF-2
DOI: 10.1002/cphc.201200243
Adsorbate Carbon Dioxide: InChIKey CURLTUGMZLYLDI-UHFFFAOYSA-N
Temperature: 293 K
Tabular data in the source: 0
pressure (bar)	uptake (mmol/g)
11.5256	3.31343
16.214	3.31343
20.3163	3.49254
23.6372	3.86567
25.0047	4.68657
34.186	5.19403
38.093	5.37313
40.7302	5.50746
