Adsorption isotherm of Carbon Dioxide on FMOF-2
DOI: 10.1002/cphc.201200243
Adsorbate Carbon Dioxide: InChIKey CURLTUGMZLYLDI-UHFFFAOYSA-N
Temperature: 293 K
Tabular data in the source: 0
pressure (bar)	uptake (mmol/g)
0.691358	0.864531
4.54321	1.79734
7.90123	1.93564
10.8642	2.12092
13.5309	2.21287
15.4074	2.49229
18.6667	2.77091
23.9012	3.86655
29.8272	4.86828
35.358	5.23908
40.3951	5.61016
