Adsorption isotherm of Carbon Dioxide on FMOF-2
DOI: 10.1002/cphc.201200243
Adsorbate Carbon Dioxide: InChIKey CURLTUGMZLYLDI-UHFFFAOYSA-N
Temperature: 243 K
Tabular data in the source: 0
pressure (bar)	uptake (mmol/g)
0.493827	2.08023
2.5679	3.38811
3.75309	4.18222
4.24691	5.5144
5.4321	6.26176
7.50617	6.65795
12.1481	7.1929
