Adsorption isotherm of Carbon Dioxide on FMOF-2
DOI: 10.1002/cphc.201200243
Adsorbate Carbon Dioxide: InChIKey CURLTUGMZLYLDI-UHFFFAOYSA-N
Temperature: 283 K
Tabular data in the source: 0
pressure (bar)	uptake (mmol/g)
0.691358	1.16843
4.93827	2.17114
10.6667	2.91584
16	4.68935
21.037	5.71498
25.7778	6.10961
30.321	6.69137
