Adsorption isotherm of Carbon Dioxide on FMOF-2
DOI: 10.1002/cphc.201200243
Adsorbate Carbon Dioxide: InChIKey CURLTUGMZLYLDI-UHFFFAOYSA-N
Temperature: 293 K
Tabular data in the source: 0
pressure (bar)	uptake (mmol/g)
6.54419	2.35821
8.49767	2.38806
10.2558	2.38806
18.8512	2.59701
26.1767	4.34328
31.8419	5.13433
33.4047	5.23881
35.5535	5.20896
37.9953	5.31343
39.8512	5.43284
