Adsorption isotherm of Carbon Dioxide on Eu3+@{[NH2(CH3)2][Zn(atz)(ox)]$H2O}n
DOI: 10.1039/c5ra02935j
Article source: Figure 4
Adsorbate Carbon Dioxide: InChIKey CURLTUGMZLYLDI-UHFFFAOYSA-N
Kind: experiment
Temperature: 273 K
Tabular data in the source: 0
pressure (bar)	uptake (cm3(STP)/g)
0	0
0.007434	2.63158
0.014869	4.91228
0.017347	5.4386
0.022303	6.49123
0.024781	5.26316
0.027259	5.78947
0.029737	7.7193
0.032215	8.24561
0.037172	6.92982
0.03965	8.77193
0.042128	7.54386
0.044606	9.38596
0.049562	7.98246
0.054518	8.42105
0.056997	10.0877
0.061953	9.03509
0.064431	10.614
0.066909	9.47368
0.071865	11.2281
0.0793	9.91228
0.086734	11.8421
0.089212	10.2632
0.099124	10.7018
0.101603	12.4561
0.109037	10.8772
0.113993	13.0702
0.118949	11.3158
0.133818	13.6842
0.138774	11.8421
0.15612	14.386
0.161077	12.3684
0.180902	15
0.188337	12.9825
0.21064	15.7018
0.218074	13.6842
0.245333	16.4035
0.252767	14.386
0.284983	17.193
0.297373	15.0877
0.334544	18.0702
0.346935	15.7895
0.386586	18.7719
0.406411	16.6667
0.453495	19.6491
0.47332	17.6316
0.527838	20.2632
0.552619	18.5088
0.614572	20.9649
0.644308	19.4737
0.716174	21.6667
0.753346	20.4386
0.815298	22.193
0.879729	21.3158
0.954072	22.807
1.02594	22.3684
1.11515	23.4211
1.1994	23.5965
