Adsorption isotherm of Nitrogen on {[NH2(CH3)2][Zn(atz)(ox)]$H2O}n
DOI: 10.1039/c5ra02935j
Article source: Figure 4
Adsorbate Nitrogen: InChIKey IJGRMHOSHXDMSA-UHFFFAOYSA-N
Kind: experiment
Temperature: 273 K
Tabular data in the source: 0
pressure (bar)	uptake (cm3(STP)/g)
0	0
0.012414	0
0.019862	0.08794
0.034758	0.175879
0.037241	0
0.049654	0
0.057103	0.175879
0.067034	0.175879
0.084413	0
0.086895	0.175879
0.099309	0.263819
0.116688	0.08794
0.119171	0.263819
0.134068	0.351759
0.139033	0.08794
0.151446	0.351759
0.16386	0.175879
0.183722	0.439698
0.19117	0.263819
0.223446	0.615578
0.248273	0.527638
0.25572	0.615578
0.287996	0.527638
0.302892	0.791457
0.332685	0.615578
0.350065	0.879397
0.387305	0.791457
0.40965	0.967337
0.451856	0.967337
0.476683	1.14322
0.526338	1.23116
0.553648	1.3191
0.615716	1.49497
0.645508	1.58291
0.717508	1.67085
0.754749	1.75879
0.821782	1.84673
0.88385	2.11055
0.955849	2.11055
1.02785	2.37437
1.11723	2.37437
1.20164	2.63819
