Adsorption isotherm of Methane on {[NH2(CH3)2][Zn(atz)(ox)]$H2O}n
DOI: 10.1039/c5ra02935j
Article source: Figure 4
Adsorbate Methane: InChIKey VNWKTOKETHGBQD-UHFFFAOYSA-N
Kind: experiment
Temperature: 273 K
Tabular data in the source: 0
pressure (bar)	uptake (cm3(STP)/g)
0	0
0.007434	0.0875
0.012391	0.4375
0.014869	0.2625
0.019825	0.35
0.024781	0.4375
0.029737	0.4375
0.037172	0.525
0.049562	0.6125
0.054518	0.6125
0.056997	0.7
0.061953	0.7
0.064431	0.7
0.071865	0.7
0.074343	0.7
0.081778	0.7875
0.086734	0.7875
0.096646	0.875
0.104081	0.7
0.113993	0.875
0.116471	0.7875
0.133818	1.05
0.136295	1.05
0.153643	0.9625
0.15612	1.1375
0.180902	1.1375
0.21064	1.3125
0.215596	1.3125
0.245333	1.6625
0.255246	1.575
0.28746	1.8375
0.297373	1.75
0.334544	2.0125
0.344457	2.0125
0.389064	2.3625
0.403932	2.3625
0.451016	2.5375
0.47332	2.5375
0.525359	2.8875
0.555097	2.975
0.612094	3.325
0.646787	3.2375
0.713696	3.5875
0.758302	3.675
0.817777	4.025
0.882207	4.1125
0.956551	4.4625
1.02841	4.6375
1.11515	4.9875
1.1994	5.425
