Adsorption isotherm of Carbon Dioxide on {[NH2(CH3)2][Zn(atz)(ox)]$H2O}n
DOI: 10.1039/c5ra02935j
Article source: Figure 4
Adsorbate Carbon Dioxide: InChIKey CURLTUGMZLYLDI-UHFFFAOYSA-N
Kind: experiment
Temperature: 273 K
Tabular data in the source: 0
pressure (bar)	uptake (cm3(STP)/g)
0.007434	4.12232
0.009912	7.71865
0.012391	10.0869
0.014869	10.1745
0.017347	11.9287
0.019825	10.7005
0.022303	13.2441
0.027259	13.9456
0.034694	14.9977
0.037172	15.787
0.03965	16.6641
0.044606	16.7515
0.05204	18.5931
0.059475	19.5575
0.064431	18.5923
0.071865	20.4339
0.074343	19.4688
0.084256	21.3102
0.089212	20.345
0.096646	22.1866
0.101603	21.1337
0.111515	22.8874
0.118949	22.0097
0.133818	23.7631
0.136295	22.798
0.153643	24.5513
0.163556	23.498
0.178424	25.1637
0.188337	24.2859
0.21064	26.0388
0.215596	25.0735
0.245333	26.7382
0.255246	25.7727
0.284983	27.5251
0.297373	26.5594
0.332067	28.136
0.346935	27.2579
0.386586	28.9219
0.406411	28.0434
0.451016	29.5317
0.47332	28.6531
0.525359	30.2286
0.552619	29.3496
0.612094	30.8369
0.649265	30.045
0.718652	31.4439
0.753346	30.8276
0.832645	31.9628
0.882207	31.5209
0.959029	32.393
1.02841	32.213
1.13002	32.9081
1.19693	32.9914
