Adsorption isotherm of Nitrogen on Carbon
DOI: 10.1021/jp9082147
Adsorbate Nitrogen: InChIKey IJGRMHOSHXDMSA-UHFFFAOYSA-N
Temperature: 77 K
Tabular data in the source: 0
pressure (bar)	uptake (cm3(STP)/g)
1.4e-07	217.491
1.04e-06	231.507
4.05e-06	265.544
1.09e-05	299.582
4.89e-05	323.608
9.53e-05	357.645
0.000135	411.705
0.00019	509.813
0.000316	563.872
0.0012318	617.931
0.00408425	671.991
0.0117929	730.055
0.0246587	788.118
0.055253	870.209
0.118228	994.345
0.196318	1128.49
0.325989	1274.65
0.51692	1332.72
0.878367	1362.75
