Adsorption isotherm of Nitrogen on Carbon
DOI: 10.1021/jp9082147
Adsorbate Nitrogen: InChIKey IJGRMHOSHXDMSA-UHFFFAOYSA-N
Temperature: 77 K
Tabular data in the source: 0
pressure (bar)	uptake (cm3(STP)/g)
1.43e-07	9.2626
3.29e-07	15.2692
7.03e-07	29.2846
1.77e-06	49.3066
4.87e-06	73.333
9.73e-06	91.3528
3.46e-05	147.414
0.000107	209.483
0.000372	309.593
0.00174063	429.725
0.00590594	501.804
0.0214736	579.89
0.0492381	651.969
0.0896576	740.066
0.145485	840.176
0.210375	948.294
0.333591	1094.46
0.636095	1144.51
0.941259	1168.54
