Adsorption isotherm of Nitrogen on Carbon
DOI: 10.1021/jp9082147
Adsorbate Nitrogen: InChIKey IJGRMHOSHXDMSA-UHFFFAOYSA-N
Temperature: 77 K
Tabular data in the source: 0
pressure (bar)	uptake (cm3(STP)/g)
1.54e-07	15.2692
1.14e-06	35.2912
7.05e-06	63.322
2.68e-05	115.379
6.15e-05	161.43
0.000148	209.483
0.000257	249.527
0.000447	333.619
0.000742	389.681
0.00282447	479.78
0.0170528	577.887
0.055253	655.973
0.102956	750.077
0.277412	1014.37
0.460647	1122.49
0.800999	1170.54
