Adsorption isotherm of Nitrogen on Carbon
DOI: 10.1021/jp9082147
Adsorbate Nitrogen: InChIKey IJGRMHOSHXDMSA-UHFFFAOYSA-N
Temperature: 77 K
Tabular data in the source: 0
pressure (bar)	uptake (cm3(STP)/g)
1.4e-07	205.478
7.53e-07	229.505
2.39e-06	245.522
8.09e-06	281.562
2.81e-05	329.615
7.23e-05	391.683
0.000363	511.815
0.00219187	649.967
0.0138578	754.081
0.0438779	836.171
0.085618	926.27
0.148877	1046.4
0.210375	1144.51
0.357476	1284.66
1.03217	1370.76
