Adsorption isotherm of Hydrogen on AMC-900
DOI: 10.1088/0957-4484/26/38/385602
Article source: Figure 8- AMC 900
Adsorbate Hydrogen: InChIKey UFHFLCQGNIYNRP-UHFFFAOYSA-N
Kind: experiment
Temperature: 77 K
Tabular data in the source: 0
pressure (bar)	uptake (wt%)
8e-05	0.05861
0.00031	0.12094
0.00083	0.18656
0.00219	0.248
0.00279	0.30645
0.00422	0.38087
0.00662	0.44007
0.01008	0.49554
0.01376	0.55773
0.01834	0.61887
0.02449	0.67106
0.0302	0.72131
0.03815	0.79796
0.04844	0.84404
0.06367	0.90651
0.07816	0.94334
0.09534	0.9578
0.09737	0.99284
0.12063	1.05219
0.12851	1.01401
0.13692	1.10751
0.15117	1.05575
0.15523	1.15895
0.17429	1.07767
0.17895	1.20427
0.198	1.12791
0.20469	1.24975
0.22179	1.16847
0.23193	1.2806
0.24701	1.21036
0.25902	1.31594
0.27282	1.24524
0.28618	1.36469
0.30434	1.28102
0.31598	1.41449
0.35177	1.31739
0.35853	1.46129
0.40099	1.36226
0.4079	1.50094
0.45007	1.37461
0.46013	1.53701
0.49832	1.42425
0.51078	1.57218
0.54545	1.46524
0.56294	1.60378
0.5961	1.50549
0.61479	1.63537
0.64503	1.53649
0.6677	1.66115
0.69418	1.57062
0.71842	1.682
0.74491	1.59923
0.7705	1.70644
0.79459	1.62859
0.82153	1.72834
0.84434	1.65436
0.87256	1.74965
0.89424	1.67567
0.92914	1.76081
0.94302	1.69653
0.96838	1.72127
0.98196	1.74587
1.0092	1.73826
