Adsorption isotherm of Nitrogen on AMC-700
DOI: 10.1088/0957-4484/26/38/385602
Article source: Figure 5a- AMC 700
Adsorbate Nitrogen: InChIKey IJGRMHOSHXDMSA-UHFFFAOYSA-N
Kind: experiment
Temperature: 77 K
Tabular data in the source: 0
pressure (bar)	uptake (cm3(STP)/g)
5e-05	114.73
0.00049	10.096
0.00058	21.888
0.00058	31.614
0.00075	43.332
0.0016	144.372
0.00306	153.7
0.00979	157.819
0.0196	160.808
0.03079	163.635
0.04652	165.775
0.07668	168.359
0.08747	171.469
0.11098	170.661
0.11203	173.609
0.13481	174.336
0.13798	173.004
0.16051	175.75
0.16643	173.69
0.18557	175.952
0.19262	174.902
0.21038	177.365
0.21905	175.588
0.23608	177.971
0.24426	175.427
0.26088	178.092
0.26956	176.517
0.28821	179.021
0.29615	176.477
0.32096	177.728
0.33815	179.828
0.37041	178.819
0.38963	180.273
0.4206	179.505
0.45108	181.969
0.47111	180.717
0.49811	184.553
0.52032	181.403
0.53808	186.169
0.57083	182.574
0.59045	187.259
0.62134	183.786
0.64185	188.43
0.67185	184.876
0.69236	189.076
0.72106	185.724
0.74498	189.844
0.76938	187.219
0.79962	192.267
0.8177	188.349
0.85499	194.084
0.86529	190.369
0.91321	196.103
0.96234	199.576
0.98188	202.362
1.00369	207.572
