Adsorption isotherm of Methane on AMC-900
DOI: 10.1088/0957-4484/26/38/385602
Article source: Figure 7C- cycle 2
Adsorbate Methane: InChIKey VNWKTOKETHGBQD-UHFFFAOYSA-N
Kind: experiment
Temperature: 308 K
Tabular data in the source: 0
pressure (bar)	uptake (mmol/g)
0	0.09838
0.0109	0.11146
0.2721	0.47036
0.3564	0.92566
0.5496	0.71608
0.8516	0.81807
0.9904	1.41581
1.1346	1.16665
1.6053	1.78419
1.6651	1.29876
2.1821	1.55481
2.2419	2.54459
2.7861	1.77171
3.4336	1.96192
5.379	2.4581
7.3298	2.76665
9.2969	3.06057
10.0941	3.56278
13.3236	3.84422
14.5507	3.51027
19.8507	4.16138
24.3427	3.92899
30.9107	4.03787
