Adsorption isotherm of Nitrogen on AMC-800
DOI: 10.1088/0957-4484/26/38/385602
Article source: Figure 5a- AMC 800
Adsorbate Nitrogen: InChIKey IJGRMHOSHXDMSA-UHFFFAOYSA-N
Kind: experiment
Temperature: 77 K
Tabular data in the source: 0
pressure (bar)	uptake (cm3(STP)/g)
2e-05	50.439
0.00034	26.936
0.00035	31.266
0.00037	122.363
0.00038	129.308
0.00063	162.383
0.00129	184.19
0.00178	193.599
0.00203	200.424
0.00609	211.933
0.01809	215.689
0.02725	222.029
0.03803	227.764
0.05028	232.529
0.07655	239.313
0.1046	246.34
0.12787	250.863
0.13549	249.813
0.15349	254.215
0.16387	253.205
0.18284	258.092
0.19233	256.315
0.20611	259.667
0.21843	258.94
0.23173	262.251
0.24592	260.999
0.2563	263.826
0.27203	263.059
0.28159	265.078
0.29878	264.917
0.3081	266.451
0.3257	266.653
0.35732	269.44
0.37078	269.117
0.41148	271.984
0.42672	271.58
0.46442	275.013
0.48006	273.115
0.50577	278.768
0.53049	274.73
0.55603	280.101
0.58205	276.749
0.60808	282.201
0.63475	278.364
0.66062	283.857
0.68672	280.02
0.71218	284.664
0.73723	281.232
0.76561	286.522
0.78742	283.13
0.82139	288.703
0.83736	285.755
0.87773	291.206
0.88487	288.824
0.93019	292.822
0.97843	300.01
1.00195	308.087
1.01857	320.606
1.02133	324.834
