Adsorption isotherm of Methane on AMC-700
DOI: 10.1088/0957-4484/26/38/385602
Article source: Figure 6- AMC 700
Adsorbate Methane: InChIKey VNWKTOKETHGBQD-UHFFFAOYSA-N
Kind: experiment
Temperature: 273 K
Tabular data in the source: 0
pressure (bar)	uptake (mmol/g)
0.00893	0.0691
0.01618	0.0985
0.06822	0.33109
0.07459	0.37498
0.10906	0.49438
0.12766	0.5343
0.1734	0.6601
0.20356	0.72853
0.2488	0.83186
0.28605	0.89269
0.34468	1.00397
0.36811	1.03577
0.44511	1.14463
0.46919	1.17591
0.53653	1.26784
0.56998	1.30724
0.63645	1.37792
0.67341	1.41265
0.73446	1.47676
0.77318	1.51598
0.83364	1.55849
0.88407	1.59755
0.91928	1.63366
0.98537	1.68084
1.0787	1.74546
