Adsorption isotherm of Methane on AMC-900
DOI: 10.1088/0957-4484/26/38/385602
Article source: Figure 7b- cycle 1
Adsorbate Methane: InChIKey VNWKTOKETHGBQD-UHFFFAOYSA-N
Kind: experiment
Temperature: 298 K
Tabular data in the source: 0
pressure (bar)	uptake (mmol/g)
0.0028	0.14006
0.3627	0.57833
0.6626	0.90973
0.8725	1.08341
1.1724	1.31656
1.7093	1.59668
2.2788	1.83501
2.8348	2.11125
3.1917	2.17202
3.5106	2.30993
5.1945	2.71894
7.2435	3.0646
9.3905	3.3521
10.4122	3.47796
11.3576	3.51245
13.7061	3.73445
14.6624	3.73404
16.9264	3.85002
17.8854	3.85133
20.2857	4.02506
21.2119	3.89753
23.6748	3.99972
24.5193	3.95837
27.0285	4.0541
27.8049	3.99594
30.4721	4.07013
31.1858	3.95336
