Adsorption isotherm of Nitrogen on AMC-900
DOI: 10.1088/0957-4484/26/38/385602
Article source: Figure 5a- AMC 900
Adsorbate Nitrogen: InChIKey IJGRMHOSHXDMSA-UHFFFAOYSA-N
Kind: experiment
Temperature: 77 K
Tabular data in the source: 0
pressure (bar)	uptake (cm3(STP)/g)
5e-05	122.08
6e-05	128.432
6e-05	158.226
6e-05	149.5
9e-05	19.909
9e-05	6.84
0.00011	70.429
0.00012	92.963
0.00013	110.005
0.00013	115.982
0.00013	128.621
0.00013	133.024
0.00016	182.655
0.00016	194.366
0.00017	14.902
0.00018	32.065
0.00018	42.645
0.00018	47.774
0.00019	58.96
0.0002	82.867
0.0002	87.431
0.0002	94.704
0.0002	104.876
0.00024	188.794
0.00025	8.359
0.00027	54.356
0.00027	64.3
0.00027	77.052
0.00031	155.76
0.00031	168.383
0.00031	197.903
0.00032	177.446
0.00033	204.258
0.00033	204.745
0.00047	160.767
0.00049	198.688
0.00073	210.681
0.00114	215.689
0.00139	227.062
0.00139	227.077
0.00326	231.237
0.00407	236.123
0.00488	241.171
0.00618	245.492
0.00772	252.277
0.01081	257.648
0.01494	262.776
0.01835	267.299
0.02557	271.62
0.02938	275.941
0.0366	281.151
0.0473	286.36
0.05217	289.51
0.06652	296.012
0.07609	299.202
0.0936	305.058
0.1043	308.935
0.12214	313.7
0.1322	314.629
0.15263	320.202
0.15498	320.808
0.17598	323.917
0.17914	325.452
0.20241	328.602
0.22706	332.479
0.2509	336.759
0.25203	335.063
0.27319	339.344
0.28049	339.142
0.29638	342.09
0.30692	342.09
0.35573	348.39
0.36311	347.865
0.39732	352.024
0.40421	351.863
0.45367	355.013
0.45561	358.243
0.50288	364.471
0.50418	365.028
0.55145	369.43
0.55469	361.837
0.60139	372.297
0.60674	366.199
0.65068	375.406
0.65806	368.783
0.70273	377.991
0.70784	372.741
0.75486	379.202
0.7581	375.406
0.80862	382.554
0.8087	382.567
0.85694	382.473
0.8601	386.512
0.90218	390.348
0.92001	391.6
0.95553	396.931
0.96128	396.406
0.98423	403.998
0.9998	410.54
