Adsorption isotherm of Methane on AMC-900
DOI: 10.1088/0957-4484/26/38/385602
Article source: Figure 7C- cycle 1
Adsorbate Methane: InChIKey VNWKTOKETHGBQD-UHFFFAOYSA-N
Kind: experiment
Temperature: 308 K
Tabular data in the source: 0
pressure (bar)	uptake (mmol/g)
0.0027	0.01377
0.0707	0.12437
0.2612	0.50393
0.6748	1.22431
0.7591	0.94933
1.1672	1.02464
1.2624	1.59871
1.7359	1.13782
2.8214	1.8737
3.1044	2.33631
3.42	2.03249
5.0933	2.86993
7.0169	3.22453
7.3434	2.84927
9.3132	3.10576
10.2247	3.61915
13.5113	3.90188
16.7382	4.08219
17.7313	3.79989
20.1011	4.21216
21.018	3.91307
24.3101	4.01248
27.6294	4.0809
30.1597	4.31501
