Adsorption isotherm of Methane on AMC-900
DOI: 10.1088/0957-4484/26/38/385602
Article source: Figure 7a- cycle 1
Adsorbate Methane: InChIKey VNWKTOKETHGBQD-UHFFFAOYSA-N
Kind: experiment
Temperature: 288 K
Tabular data in the source: 0
pressure (bar)	uptake (mmol/g)
5e-06	0.00388
0.0819	0.19487
0.3954	0.68464
0.6328	1.21837
0.7931	1.0442
0.9268	1.36324
1.148	1.97372
1.4031	1.51155
2.8953	2.43073
3.3169	2.45186
3.4343	2.67864
5.2982	2.90026
5.4318	3.25308
7.3747	3.47756
17.8473	4.31408
20.3011	4.18951
23.6256	4.21241
27.0617	4.24263
27.7992	4.36766
30.457	4.21206
31.1264	4.27961
