Adsorption isotherm of Methane on AMC-900
DOI: 10.1088/0957-4484/26/38/385602
Article source: Figure 7b- cycle 2
Adsorbate Methane: InChIKey VNWKTOKETHGBQD-UHFFFAOYSA-N
Kind: experiment
Temperature: 298 K
Tabular data in the source: 0
pressure (bar)	uptake (mmol/g)
0.0246	0.14307
0.341	0.59341
0.6627	0.9287
0.9325	1.16615
1.1642	1.34715
1.3413	1.39542
1.7338	1.62685
2.268	1.86905
2.8838	2.07635
3.2326	2.17935
3.5078	2.25133
5.3661	2.69136
7.317	3.06116
9.4422	3.26289
10.4694	3.40211
11.393	3.45729
13.7497	3.6823
14.6978	3.68621
16.9863	3.75133
17.9153	3.80178
20.3455	3.89061
21.2364	3.82125
23.7347	3.92517
24.5656	3.85969
27.1074	3.89422
27.8484	3.84382
30.5129	3.84777
31.1803	3.83334
