Adsorption isotherm of Hydrogen on AMC-700
DOI: 10.1088/0957-4484/26/38/385602
Article source: Figure 8- AMC 700
Adsorbate Hydrogen: InChIKey UFHFLCQGNIYNRP-UHFFFAOYSA-N
Kind: experiment
Temperature: 77 K
Tabular data in the source: 0
pressure (bar)	uptake (wt%)
0.00015	0.09212
0.00015	0.09231
0.00098	0.194
0.00113	0.20311
0.00301	0.25799
0.00362	0.30973
0.00624	0.36685
0.01067	0.41949
0.01435	0.47228
0.01856	0.52999
0.02591	0.57129
0.03214	0.60842
0.03897	0.65883
0.04888	0.7052
0.06442	0.76246
0.078	0.80167
0.09549	0.84864
0.12153	0.89605
0.12708	0.91007
0.13751	0.92125
0.1526	0.9448
0.17616	0.97596
0.20077	1.00608
0.22261	1.03127
0.23282	1.03499
0.24595	1.05348
0.25796	1.0581
0.27079	1.0736
0.28437	1.07867
0.30538	1.09864
0.31641	1.10356
0.35078	1.13083
0.35881	1.13068
0.40023	1.15646
0.40639	1.15542
0.44999	1.1812
0.45974	1.18104
0.49779	1.2022
0.51174	1.20623
0.54641	1.22202
0.55962	1.22276
0.59526	1.23855
0.61402	1.24183
0.64562	1.25344
0.66618	1.2588
0.69447	1.26864
0.71826	1.27325
0.74362	1.28293
0.76943	1.28799
0.7951	1.29424
0.82106	1.2996
0.8441	1.30436
0.87239	1.30808
0.89295	1.31568
0.92897	1.32536
0.94082	1.3258
0.96746	1.32982
0.9809	1.33652
1.00956	1.33979
