Adsorption isotherm of Methane on AMC-900
DOI: 10.1088/0957-4484/26/38/385602
Article source: Figure 6- AMC 900
Adsorbate Methane: InChIKey VNWKTOKETHGBQD-UHFFFAOYSA-N
Kind: experiment
Temperature: 273 K
Tabular data in the source: 0
pressure (bar)	uptake (mmol/g)
0.00959	0.0744
0.01361	0.09228
0.05929	0.291
0.07012	0.33921
0.11082	0.47849
0.11433	0.48505
0.15825	0.62744
0.17099	0.6563
0.20868	0.76257
0.22486	0.79385
0.26666	0.89701
0.29564	0.95697
0.3561	1.07811
0.41459	1.18991
0.44643	1.23795
0.50689	1.33904
0.56237	1.42665
0.60051	1.48091
0.66155	1.56765
0.75583	1.68758
0.76176	1.69155
0.85787	1.80543
0.93706	1.89373
0.95895	1.91706
1.03947	1.99965
