Adsorption isotherm of Methane on AMC-900
DOI: 10.1088/0957-4484/26/38/385602
Article source: Figure 7a- cycle 2
Adsorbate Methane: InChIKey VNWKTOKETHGBQD-UHFFFAOYSA-N
Kind: experiment
Temperature: 288 K
Tabular data in the source: 0
pressure (bar)	uptake (mmol/g)
0.0109	0.00129
0.0628	0.16124
0.2507	0.3324
0.3737	0.7174
0.5721	0.60531
0.6272	1.04592
0.9074	1.0511
0.9244	1.10493
1.1719	1.48352
1.5128	2.15997
1.7192	1.83921
2.8761	2.35356
3.5157	2.57301
5.4205	3.07444
5.4562	3.0822
7.3662	3.21113
9.3964	3.67073
10.6341	3.58194
11.3826	3.86089
14.6639	4.07132
17.9124	4.19811
20.5131	4.04725
23.8948	4.05677
24.5669	4.19991
27.339	4.05466
27.8995	4.13615
30.7288	4.05772
