Adsorption isotherm of Methane on AMC-800
DOI: 10.1088/0957-4484/26/38/385602
Article source: Figure 6- AMC 800
Adsorbate Methane: InChIKey VNWKTOKETHGBQD-UHFFFAOYSA-N
Kind: experiment
Temperature: 273 K
Tabular data in the source: 0
pressure (bar)	uptake (mmol/g)
0.01069	0.05735
0.01471	0.07379
0.06522	0.27683
0.07773	0.32383
0.11287	0.44444
0.12568	0.47106
0.17604	0.60584
0.20283	0.66494
0.25443	0.77933
0.28342	0.83325
0.35047	0.96423
0.36298	0.97805
0.44789	1.12044
0.46077	1.13669
0.5429	1.25747
0.56288	1.28115
0.6434	1.38085
0.66799	1.40677
0.74199	1.493
0.77171	1.52359
0.83854	1.59478
0.87616	1.62865
0.9225	1.67427
0.97886	1.72611
1.06106	1.79817
