Adsorption isotherm of Hydrogen on AMC-800
DOI: 10.1088/0957-4484/26/38/385602
Article source: Figure 8- AMC 800
Adsorbate Hydrogen: InChIKey UFHFLCQGNIYNRP-UHFFFAOYSA-N
Kind: experiment
Temperature: 77 K
Tabular data in the source: 0
pressure (bar)	uptake (wt%)
8e-05	0.03967
0.0003	0.12759
0.00038	0.13794
0.00143	0.17895
0.00286	0.22279
0.00481	0.27171
0.00729	0.32748
0.01127	0.38116
0.0136	0.42515
0.0181	0.46691
0.02306	0.51612
0.02944	0.55877
0.03807	0.60395
0.04813	0.65375
0.06336	0.69103
0.07747	0.74694
0.09781	0.78616
0.1207	0.83924
0.13676	0.86831
0.1556	0.91185
0.17916	0.95985
0.20422	1.00607
0.23229	1.04961
0.25856	1.08777
0.28557	1.12221
0.31619	1.15217
0.35784	1.18004
0.40752	1.21939
0.45989	1.25919
0.51092	1.29585
0.56225	1.32849
0.61478	1.35859
0.66686	1.38541
0.71841	1.41
0.74468	1.46516
0.76981	1.43294
0.79405	1.48304
0.82107	1.45305
0.84456	1.49853
0.87217	1.47167
0.89401	1.51253
0.92845	1.48969
0.94233	1.52205
0.96792	1.53352
0.9806	1.50831
1.00934	1.52083
