Adsorption isotherm of Methane on H-SAPO-34
DOI: 10.1016/j.micromeso.2007.02.037
Adsorbate Methane: InChIKey VNWKTOKETHGBQD-UHFFFAOYSA-N
Temperature: 143 K
Tabular data in the source: 0
pressure (bar)	uptake (mmol/g)
0.0557564	5.04513
0.10308	5.40569
0.155475	5.58034
0.206179	5.65922
0.256883	5.73809
0.312658	5.80006
0.412376	5.86767
0.517165	5.91837
0.620263	5.96344
0.721672	5.98034
0.829841	6.00288
0.875475	6.00288
0.916038	6.02541
1.01238	6.04231
