Adsorption isotherm of Carbon Dioxide on H-SAPO-34
DOI: 10.1016/j.micromeso.2007.02.037
Adsorbate Carbon Dioxide: InChIKey CURLTUGMZLYLDI-UHFFFAOYSA-N
Temperature: 273 K
Tabular data in the source: 0
pressure (bar)	uptake (mmol/g)
0.0540662	0.777587
0.10308	1.21702
0.196038	1.84801
0.302517	2.37759
0.407306	2.79449
0.512094	3.08745
0.610123	3.33533
0.70477	3.51561
0.811249	3.71843
0.916038	3.89871
0.971813	3.95505
1.01745	4.02266
