Adsorption isotherm of Nitrogen on Cu-SAPO-34
DOI: 10.1016/j.micromeso.2007.02.037
Adsorbate Nitrogen: InChIKey IJGRMHOSHXDMSA-UHFFFAOYSA-N
Temperature: 77 K
Tabular data in the source: 0
pressure (bar)	uptake (mmol/g)
0.0594673	7.47823
0.0783452	7.50111
0.0997973	7.53544
0.143131	7.5812
0.183461	7.59264
0.226365	7.61553
0.270985	7.62697
