Adsorption isotherm of Carbon Dioxide on H-SAPO-34
DOI: 10.1016/j.micromeso.2007.02.037
Adsorbate Carbon Dioxide: InChIKey CURLTUGMZLYLDI-UHFFFAOYSA-N
Temperature: 291 K
Tabular data in the source: 0
pressure (bar)	uptake (mmol/g)
0.0422352	0.281812
0.148714	0.81139
0.246742	1.21702
0.34308	1.50998
0.451249	1.82547
0.554348	2.03956
0.662517	2.26491
0.755475	2.44519
0.856883	2.62547
0.914348	2.69308
0.956601	2.77195
1.01069	2.85083
