Adsorption isotherm of Methane on Cu-SAPO-34
DOI: 10.1016/j.micromeso.2007.02.037
Adsorbate Methane: InChIKey VNWKTOKETHGBQD-UHFFFAOYSA-N
Temperature: 143 K
Tabular data in the source: 0
pressure (bar)	uptake (mmol/g)
0.0557564	4.94372
0.106461	5.41133
0.155475	5.58598
0.204489	5.72119
0.299137	5.88457
0.410686	5.98598
0.517165	6.06485
0.616883	6.11555
0.721672	6.15499
0.82477	6.18316
0.927869	6.2226
0.975193	6.23386
1.01069	6.2395
