Adsorption isotherm of Nitrogen on H-SAPO-34
DOI: 10.1016/j.micromeso.2007.02.037
Adsorbate Nitrogen: InChIKey IJGRMHOSHXDMSA-UHFFFAOYSA-N
Temperature: 77 K
Tabular data in the source: 0
pressure (bar)	uptake (mmol/g)
0.0676191	7.46679
0.0980812	7.51256
0.137124	7.55832
0.180457	7.59264
0.224649	7.61553
0.266695	7.61553
