Adsorption isotherm of Carbon Dioxide on H-SAPO-34
DOI: 10.1016/j.micromeso.2007.02.037
Adsorbate Carbon Dioxide: InChIKey CURLTUGMZLYLDI-UHFFFAOYSA-N
Temperature: 260 K
Tabular data in the source: 0
pressure (bar)	uptake (mmol/g)
0.0540662	1.07054
0.10477	1.65646
0.147024	2.07336
0.243362	2.74942
0.353221	3.23392
0.45801	3.52688
0.566179	3.7635
0.669277	3.89871
0.774066	4.00012
0.867024	4.12407
0.926179	4.13533
0.966742	4.1804
1.01069	4.19167
