Adsorption isotherm of Methane on H-SAPO-34
DOI: 10.1016/j.micromeso.2007.02.037
Adsorbate Methane: InChIKey VNWKTOKETHGBQD-UHFFFAOYSA-N
Temperature: 260 K
Tabular data in the source: 0
pressure (bar)	uptake (mmol/g)
0.0963197	0.0986983
0.204489	0.226867
0.299137	0.384614
0.402235	0.483205
0.515475	0.611374
0.615193	0.700107
0.719982	0.798698
0.82477	0.887431
0.922799	0.956445
