Adsorption isotherm of Methane on H-SAPO-34
DOI: 10.1016/j.micromeso.2007.02.037
Adsorbate Methane: InChIKey VNWKTOKETHGBQD-UHFFFAOYSA-N
Temperature: 297 K
Tabular data in the source: 0
pressure (bar)	uptake (mmol/g)
0.0625169	0.0395433
0.123362	0.0592616
0.243362	0.108557
0.363362	0.128276
0.483362	0.177572
0.603362	0.207149
0.723362	0.236726
0.843362	0.295881
0.963362	0.345177
1.08167	0.364895
1.14083	0.374755
1.19491	0.414191
