Adsorption isotherm of Methane on H-SAPO-34
DOI: 10.1016/j.micromeso.2007.02.037
Adsorbate Methane: InChIKey VNWKTOKETHGBQD-UHFFFAOYSA-N
Temperature: 195 K
Tabular data in the source: 0
pressure (bar)	uptake (mmol/g)
0.0557564	0.729684
0.10308	1.20292
0.145334	1.65644
0.202799	2.02123
0.255193	2.4156
0.314348	2.59306
0.402235	3.01701
0.507024	3.20433
0.606742	3.42123
0.719982	3.5987
0.829841	3.72687
0.909277	3.77616
0.965052	3.82546
