Adsorption isotherm of Nitrogen on Li-SAPO-34
DOI: 10.1016/j.micromeso.2007.02.037
Adsorbate Nitrogen: InChIKey IJGRMHOSHXDMSA-UHFFFAOYSA-N
Temperature: 77 K
Tabular data in the source: 0
pressure (bar)	uptake (mmol/g)
0.0393023	6.20826
0.0731967	6.26547
0.0985102	6.28835
0.140985	6.28835
0.18389	6.32268
0.227223	6.36844
0.270556	6.36844
