Adsorption isotherm of Methane on H-SAPO-34
DOI: 10.1016/j.micromeso.2007.02.037
Adsorbate Methane: InChIKey VNWKTOKETHGBQD-UHFFFAOYSA-N
Temperature: 143 K
Tabular data in the source: 0
pressure (bar)	uptake (mmol/g)
0.0540662	4.9987
0.10139	5.35363
0.152094	5.56067
0.204489	5.63954
0.265334	5.73813
0.297446	5.77757
0.403925	5.88602
0.508714	5.9156
0.620263	5.93532
0.721672	5.95504
0.82308	5.98461
0.924489	6.02405
0.978573	6.01419
1.01238	6.03391
