Adsorption isotherm of Carbon Dioxide on H-SAPO-34
DOI: 10.1016/j.micromeso.2007.02.037
Adsorbate Carbon Dioxide: InChIKey CURLTUGMZLYLDI-UHFFFAOYSA-N
Temperature: 230 K
Tabular data in the source: 0
pressure (bar)	uptake (mmol/g)
0.0506859	5.3297
0.0997	5.75787
0.152094	5.98322
0.253503	6.19731
0.361672	6.33252
0.471531	6.44519
0.567869	6.5128
0.667587	6.56914
0.772376	6.5804
0.873785	6.61421
0.927869	6.62547
0.976883	6.65928
1.01407	6.65928
