Adsorption isotherm of Methane on Li-SAPO-34
DOI: 10.1016/j.micromeso.2007.02.037
Adsorbate Methane: InChIKey VNWKTOKETHGBQD-UHFFFAOYSA-N
Temperature: 143 K
Tabular data in the source: 0
pressure (bar)	uptake (mmol/g)
0.0540662	4.21133
0.10477	4.54936
0.150404	4.72964
0.263644	4.90992
0.353221	5.00569
0.46308	5.06767
0.566179	5.12964
0.662517	5.17471
0.772376	5.19724
0.826461	5.22541
0.877165	5.23668
0.926179	5.23668
0.973503	5.24795
1.01069	5.25358
