Adsorption isotherm of Carbon Dioxide on H-SAPO-34
DOI: 10.1016/j.micromeso.2007.02.037
Adsorbate Carbon Dioxide: InChIKey CURLTUGMZLYLDI-UHFFFAOYSA-N
Temperature: 195 K
Tabular data in the source: 0
pressure (bar)	uptake (mmol/g)
0.0456155	6.01702
0.0946296	6.33252
0.140263	6.50153
0.189277	6.62547
0.245052	6.70435
0.297446	6.78322
0.442799	6.87336
0.593221	6.97477
0.743644	7.07618
0.897447	7.09871
0.946461	7.14378
0.993785	7.16632
