Adsorption isotherm of Ethene on Carbon
DOI: 10.1016/j.colsurfa.2012.12.015
Adsorbate Ethene: InChIKey VGGSQFUCUMXWEO-UHFFFAOYSA-N
Temperature: 200 K
Tabular data in the source: 0
pressure (bar)	uptake (mol/m3)
2.05e-11	379.95
7.39e-11	3024.17
7.85e-11	4103.45
9.11e-11	5776.33
1.03e-10	9823.61
1.61e-10	29520.4
2.02e-09	37614.9
4.81e-09	38532.3
1.01e-08	39935.4
2.14e-08	40421.1
4.78e-08	40960.7
9.77e-08	41824.1
2.06e-07	42040
5.19e-07	41932
9.43e-07	42957.4
1.93e-06	44468.3
9.65e-06	44522.3
4.83e-05	44900
0.000105	44792.1
0.000541	44954
0.000953	45601.6
0.004629	45601.6
0.0103555	45601.6
0.0373317	45601.6
