Adsorption isotherm of Ethene on Carbon
DOI: 10.1016/j.colsurfa.2012.12.015
Adsorbate Ethene: InChIKey VGGSQFUCUMXWEO-UHFFFAOYSA-N
Temperature: 108 K
Tabular data in the source: 0
pressure (bar)	uptake (micromoles/m2)
0.000951561	17.7474
0.00103694	17.4744
0.00113647	18.0205
0.00122181	18.2935
0.0012574	18.0205
0.0013	18.8396
0.00135678	20.2048
0.00146304	25.1195
0.0016977	25.9386
0.00181138	27.3038
0.00186098	29.4881
0.001939	31.9454
0.00201703	34.4027
0.00208782	38.2253
0.00211612	39.8635
0.00215154	41.5017
0.00217985	43.1399
0.00220816	44.7782
0.00227215	45.0512
0.00235034	45.5973
0.0023929	46.9625
0.00241392	50.5119
0.00244206	54.0614
0.00245602	57.0648
0.00247711	59.7952
0.00249105	63.0717
0.00251207	66.6212
0.00253317	69.3515
0.00255419	72.901
0.0025681	76.4505
0.00259626	79.727
