Adsorption isotherm of Ethene on Carbon
DOI: 10.1016/j.colsurfa.2012.12.015
Adsorbate Ethene: InChIKey VGGSQFUCUMXWEO-UHFFFAOYSA-N
Temperature: 108 K
Tabular data in the source: 0
pressure (bar)	uptake (micromoles/m2)
1.16e-08	0.102126
1.8e-08	0.180398
2.7e-08	0.318678
3.54e-08	0.500064
4.05e-08	0.680685
4.34e-08	0.822943
4.64e-08	1.01883
5.12e-08	1.67696
5.28e-08	4.33384
5.29e-08	2.76055
5.64e-08	4.99664
6.25e-08	5.76047
6.92e-08	6.33314
9.09e-08	6.63795
1.08e-07	6.95865
1.46e-07	7.12207
1.8e-07	7.11956
3.55e-07	7.28204
7.03e-07	7.44825
1.06e-06	7.62179
1.39e-06	7.80123
2.17e-06	7.98256
2.95e-06	7.97835
3.49e-06	7.976
5.26e-06	8.16186
6.91e-06	7.96665
8.77e-06	8.15468
1.04e-05	8.1523
1.23e-05	8.34569
1.62e-05	8.14609
1.8e-05	8.54067
2.13e-05	8.53815
2.44e-05	8.14037
2.7e-05	8.53466
3.55e-05	8.53065
5.53e-05	8.72893
7.03e-05	8.93495
0.000109479	8.71871
0.000143814	8.92395
0.000176458	9.13511
0.000216537	9.1319
0.000315061	9.56974
0.00034893	10.0332
0.000427178	16.1243
0.000542266	16.9013
0.00068852	16.8943
0.00100191	17.289
0.0011881	17.6991
0.00140675	24.6689
0.00155815	25.2575
0.00172525	27.7683
0.00190936	33.5699
0.00226101	45.692
