Adsorption isotherm of Ethene on Carbon
DOI: 10.1016/j.colsurfa.2012.12.015
Adsorbate Ethene: InChIKey VGGSQFUCUMXWEO-UHFFFAOYSA-N
Temperature: 200 K
Tabular data in the source: 0
pressure (bar)	uptake (mol/m3)
1.05e-07	-34.6407
2.02e-07	-72.9067
5.23e-07	118.423
1.04e-06	41.8913
2e-06	118.423
5.26e-06	156.689
7.1e-06	194.955
9.92e-06	462.817
1.29e-05	998.541
1.54e-05	1802.13
1.81e-05	4136.35
2.04e-05	6508.84
2.08e-05	6929.77
2.62e-05	8345.61
3.07e-05	8957.87
4.14e-05	9570.12
5.2e-05	9761.45
7.14e-05	10182.4
0.000102	10412
0.000158	10603.3
0.000202	10756.4
0.000237	10832.9
0.000319	10986
0.000409	11139
0.000505	11215.6
0.000635	11368.6
0.000799	11445.2
0.000987	11521.7
0.0012851	11636.5
0.00153273	25641.8
