Adsorption isotherm of Argon on Carbon
DOI: 10.1016/j.colsurfa.2012.12.015
Adsorbate Argon: InChIKey XKRFYHLGVUSROY-UHFFFAOYSA-N
Temperature: 77 K
Tabular data in the source: 0
pressure (bar)	uptake (micromoles/m2)
1.32e-05	2.994
2.64e-05	7.34853
9.25e-05	8.44096
0.00025104	8.72264
0.000422804	9.00513
0.00060778	9.28841
0.000739906	9.8406
0.000766331	11.2027
0.000792757	12.837
0.000805969	15.0147
0.000924883	16.1103
0.00105701	16.3904
0.00124199	16.4015
0.00137411	16.4095
0.0014666	16.6872
0.00161194	16.9681
0.00175728	17.249
0.00191583	17.2586
0.00203474	17.5379
0.00216687	17.8179
0.00227257	18.0964
0.00236506	18.3741
0.00244433	19.4674
0.00249718	21.1032
0.00252361	21.9211
0.00260288	23.2865
0.00269537	23.8363
0.00277465	24.9295
0.00285392	24.9343
0.0029332	24.6669
0.00302569	25.4889
0.00310496	26.31
0.00317103	26.5861
0.00331637	27.6833
0.00334279	30.406
0.00336922	32.0402
0.00343528	33.6769
0.00350134	34.4972
0.00355419	34.5004
0.00360704	35.592
0.00367311	35.8681
0.00368632	38.8621
0.00369953	42.9445
0.00371274	45.1222
0.00375238	46.7572
0.00379202	48.6644
0.00388451	50.8468
0.00393736	52.2106
0.00396378	53.0285
0.00399021	69.6287
0.00400342	66.9085
0.00401663	56.5691
0.00404306	61.4687
