Adsorption isotherm of Ethene on Carbon
DOI: 10.1016/j.colsurfa.2012.12.015
Adsorbate Ethene: InChIKey VGGSQFUCUMXWEO-UHFFFAOYSA-N
Temperature: 105 K
Tabular data in the source: 0
pressure (bar)	uptake (micromoles/m2)
0.000120539	8.71711
0.000175643	8.88158
0.000223858	13.8158
0.000227302	15.2961
0.000237634	9.86842
0.000275518	16.2829
0.000340953	16.7763
0.000402945	16.7763
0.000461492	17.2697
0.00052004	17.7632
0.000606139	17.9276
0.000709458	18.2566
0.000768006	18.4211
0.000833441	18.0921
0.000847217	22.0395
0.000864437	20.2303
0.000926428	24.6711
0.000978088	25.4934
0.00104008	25.8224
0.00108485	29.6053
0.00109863	26.1513
0.00111929	28.125
0.00112273	27.1382
0.00113307	32.2368
0.00117784	33.8816
0.00120539	36.3487
0.00121917	38.8158
0.00122605	40.1316
0.00124672	42.7632
0.00126049	44.5724
0.00128116	47.6974
0.0012846	49.6711
