Adsorption isotherm of Ethene on Carbon
DOI: 10.1016/j.colsurfa.2012.12.015
Adsorbate Ethene: InChIKey VGGSQFUCUMXWEO-UHFFFAOYSA-N
Temperature: 112 K
Tabular data in the source: 0
pressure (bar)	uptake (micromoles/m2)
0.000756242	0.000756242
0.000862755	16.1184
0.00101187	16.1184
0.00150183	16.7763
0.001619	16.9408
0.00168291	16.9408
0.00176812	16.9408
0.0020131	17.2697
0.002077	17.4342
0.00213026	17.4342
0.00225808	17.5987
0.00253501	20.3947
0.00254566	21.3816
0.00270543	23.8487
0.0028652	24.8355
0.00295041	25
0.00329125	26.4803
0.00333386	27.9605
0.00335516	29.6053
0.00338711	31.4145
0.00349363	33.5526
0.00355753	34.2105
0.0036534	36.1842
0.003696	37.5
0.00370665	40.4605
0.0037173	43.0921
0.00373861	45.0658
0.00377056	47.2039
0.00382382	49.3421
