Adsorption isotherm of Ethene on Carbon
DOI: 10.1016/j.colsurfa.2012.12.015
Adsorbate Ethene: InChIKey VGGSQFUCUMXWEO-UHFFFAOYSA-N
Temperature: 200 K
Tabular data in the source: 0
pressure (bar)	uptake (mol/m3)
1.05e-05	1664.54
1.25e-05	7725.91
1.52e-05	11655.4
1.73e-05	12491.4
2.1e-05	12909.4
2.65e-05	13411.1
5.1e-05	14706.9
6.18e-05	24823.2
7.94e-05	25074
0.000106	25659.2
0.000212	26411.7
0.000524	26495.3
0.0010473	26578.9
0.00209435	27080.5
0.00517599	27414.9
0.0101534	27373.1
0.0211014	27456.7
0.035485	27665.7
