Adsorption isotherm of Ethene on Carbon
DOI: 10.1016/j.colsurfa.2012.12.015
Adsorbate Ethene: InChIKey VGGSQFUCUMXWEO-UHFFFAOYSA-N
Temperature: 112 K
Tabular data in the source: 0
pressure (bar)	uptake (micromoles/m2)
2.77e-08	0.104879
3.91e-08	0.153535
6.1e-08	0.285215
7.75e-08	0.407704
9.86e-08	0.625968
1.17e-07	1.00797
1.3e-07	1.66223
1.39e-07	2.26554
1.49e-07	3.56225
1.59e-07	5.0921
1.83e-07	5.73616
2.32e-07	6.30957
3.5e-07	6.77695
5.86e-07	7.10762
7.71e-07	7.27895
1.16e-06	7.27895
1.58e-06	7.45442
1.95e-06	7.45442
2.23e-06	7.63412
3.14e-06	7.63412
3.86e-06	7.81813
6.24e-06	7.63412
7.67e-06	7.81813
9.74e-06	8.0066
1.2e-05	8.0066
1.69e-05	8.0066
2.07e-05	8.19961
2.46e-05	8.39727
3.02e-05	8.39727
3.71e-05	8.39727
6e-05	8.39727
7.89e-05	8.39727
0.00011901	8.39727
0.000156561	8.59969
0.000199023	8.39727
0.000253001	8.39727
0.000332838	8.59969
0.000381753	9.2367
0.000468935	8.807
0.000596116	9.2367
0.000732253	9.92092
0.00078422	12.0036
0.000930848	15.9753
0.00126729	16.7548
0.0019789	17.1585
0.00260334	18.8738
0.00288533	25.1189
0.00330939	26.3445
0.00342481	29.6763
0.00379578	32.643
0.00392816	39.4957
0.00435366	43.444
0.00451	55.129
