Adsorption isotherm of Ethene on Carbon
DOI: 10.1016/j.colsurfa.2012.12.015
Adsorbate Ethene: InChIKey VGGSQFUCUMXWEO-UHFFFAOYSA-N
Temperature: 105 K
Tabular data in the source: 0
pressure (bar)	uptake (micromoles/m2)
4.08e-06	3.54949
8.21e-06	6.27986
2.09e-05	8.19113
5.51e-05	8.46416
0.000106322	9.01024
0.000144786	8.7372
0.000196037	9.01024
0.00022132	15.5631
0.00022167	9.01024
0.000229937	14.198
0.000238569	12.5597
0.000255804	9.82935
0.000272528	16.6553
0.000323808	16.3823
0.000362228	16.9283
0.000409222	16.9283
0.000460473	17.2014
0.000507452	17.4744
0.000558717	17.4744
0.000592865	18.0205
0.000656947	18.0205
0.000703912	18.5666
0.000755177	18.5666
0.00078081	18.5666
0.000815017	18.0205
0.000836188	21.57
0.000840635	18.2935
0.000849048	20.7509
0.000853189	23.2082
0.000870481	19.3857
0.000895837	24.5734
0.000934272	24.8464
0.000985509	25.3925
0.00103675	25.9386
0.00107498	30.0341
0.001088	26.2116
0.00109202	30.8532
0.00109214	28.6689
0.00111786	27.0307
0.00112187	31.9454
0.00112207	28.1229
0.0011389	33.0375
0.00116449	33.8567
0.00119005	35.2218
0.001207	37.6792
0.0012239	41.2287
0.00124093	42.3208
0.00125363	44.5051
0.00127058	47.2355
0.00128739	52.4232
0.00128752	49.9659
0.00129576	55.6997
0.00130415	58.43
0.00132114	60.3413
0.00133386	62.2526
0.00134224	65.256
0.00135032	73.9932
0.00135042	72.0819
0.00135059	68.8055
0.00135073	66.3481
