Adsorption isotherm of Ethene on Carbon
DOI: 10.1016/j.colsurfa.2012.12.015
Adsorbate Ethene: InChIKey VGGSQFUCUMXWEO-UHFFFAOYSA-N
Temperature: 120 K
Tabular data in the source: 0
pressure (bar)	uptake (micromoles/m2)
3.93e-05	3.93e-05
0.000236066	8.31169
0.000747541	8.57143
0.00137705	9.35065
0.00180984	9.35065
0.00212459	9.61039
0.00236066	10.1299
0.00251803	10.6494
0.00267541	12.7273
0.00279344	14.5455
0.00299016	15.3247
0.00330492	16.1039
0.00381639	16.3636
0.00405246	16.3636
0.00428852	16.3636
0.00452459	16.6234
0.00483934	16.8831
0.00507541	16.6234
0.00527213	16.6234
0.0055082	17.1429
0.00574426	17.1429
0.00594098	17.4026
0.00621639	17.4026
0.00653115	17.6623
0.00664918	17.6623
0.00708197	17.6623
0.00731803	18.1818
0.00751475	18.961
0.00771148	20.2597
0.0079082	20.7792
0.00810492	22.3377
0.00818361	23.3766
0.00830164	23.1169
0.00845902	23.6364
0.00857705	24.4156
0.00873443	24.4156
0.00893115	24.6753
0.00912787	25.1948
0.00928525	25.1948
0.00944262	25.7143
0.00963934	25.974
0.00983607	25.7143
0.00999344	25.974
0.0101508	26.7532
0.0103082	26.7532
0.0105443	27.7922
0.0105836	29.3506
0.010623	31.9481
0.0108197	32.7273
0.0110557	32.4675
0.0112131	33.5065
0.0114098	33.7662
0.0116066	34.2857
0.0116459	38.7013
0.0116852	36.3636
0.0117639	35.0649
0.0119213	42.3377
0.0120393	46.4935
0.0121967	49.3506
0.0122754	50.6494
0.0123148	63.1169
0.0123541	57.1429
