Adsorption isotherm of Ethene on Carbon
DOI: 10.1016/j.colsurfa.2012.12.015
Adsorbate Ethene: InChIKey VGGSQFUCUMXWEO-UHFFFAOYSA-N
Temperature: 200 K
Tabular data in the source: 0
pressure (bar)	uptake (mol/m3)
1.02e-07	-26.5311
2.01e-07	-155.244
4.89e-07	-90.8876
1.03e-06	-26.5311
2.09e-06	-26.5311
3.26e-06	102.182
4.94e-06	359.607
8.42e-06	874.459
1.01e-05	1389.31
1.24e-05	3834.85
1.27e-05	3191.29
1.52e-05	10914.1
1.82e-05	12201.2
2.11e-05	12716
2.6e-05	13552.7
3.29e-05	13874.5
4.05e-05	14389.3
4.3e-05	14646.7
5.13e-05	24815.1
5.61e-05	25458.6
6.13e-05	25909.1
8.49e-05	27518
0.000101	27453.7
0.000213	27582.4
0.000518	27711.1
0.0010239	27711.1
0.0020244	27646.7
0.0052261	27646.7
0.010031	27646.7
0.021044	27711.1
0.0338118	27711.1
