Adsorption isotherm of Ethene on Carbon
DOI: 10.1016/j.colsurfa.2012.12.015
Adsorbate Ethene: InChIKey VGGSQFUCUMXWEO-UHFFFAOYSA-N
Temperature: 200 K
Tabular data in the source: 0
pressure (bar)	uptake (mol/m3)
1.05e-13	164.095
2.14e-13	164.095
5.23e-13	164.095
9.79e-13	218.059
2.13e-12	164.095
5.52e-12	218.059
1.03e-11	272.023
1.99e-11	487.878
5.02e-11	1567.15
7.18e-11	2754.36
8.08e-11	3671.74
8.84e-11	4804.98
1.06e-10	7557.13
1.09e-10	6693.71
1.51e-10	28872.8
2.1e-10	31732.9
2.59e-10	32758.2
3e-10	33351.8
4.99e-10	34862.8
7.8e-10	35780.2
1.02e-09	36211.9
2.15e-09	37614.9
5.1e-09	38748.2
9.84e-09	39503.7
2.14e-08	41284.5
5.38e-08	42417.7
1.07e-07	43497
1.88e-07	43712.8
5.51e-07	43766.8
9.71e-07	44630.2
1e-06	43820.8
4.58e-06	44900
1.09e-05	44954
5.61e-05	45817.4
0.000105	46788.8
