Adsorption isotherm of Ethene on Carbon
DOI: 10.1016/j.colsurfa.2012.12.015
Adsorbate Ethene: InChIKey VGGSQFUCUMXWEO-UHFFFAOYSA-N
Temperature: 173 K
Tabular data in the source: 0
pressure (bar)	uptake (micromoles/m2)
0.00289536	1.29032
0.00868608	3.09677
0.0115814	4.64516
0.0173722	6.19355
0.031849	6.70968
0.0579072	7.22581
0.0926515	7.48387
0.130291	8
0.165035	8.12903
0.205571	8.51613
0.240315	9.16129
0.272164	9.41935
0.298222	9.54839
0.330071	9.93548
0.36192	10.4516
0.387978	10.9677
0.408246	11.3548
0.431409	11.6129
0.451676	12.129
0.477734	12.6452
0.500897	13.0323
0.509583	13.1613
0.535642	13.5484
0.555909	13.9355
0.576177	14.3226
0.602235	14.7097
0.625398	15.0968
0.639874	14.9677
0.660142	15.4839
0.68041	15.3548
0.694886	15.871
0.720945	16
0.738317	16.129
0.764375	16.6452
0.781747	16.7742
0.799119	17.2903
0.80491	17.8065
0.828073	17.8065
0.851236	17.8065
0.862817	18.8387
0.891771	19.2258
0.909143	19.6129
0.943887	20.5161
0.958364	21.1613
0.975736	21.5484
0.990213	21.9355
1.00759	22.8387
1.02785	23.0968
1.04522	23.871
1.0597	23.871
1.08286	24.6452
1.09445	24.9032
1.11471	25.5484
1.12629	26.0645
1.13788	26.7097
1.15235	26.9677
1.16393	27.871
1.17552	28.129
1.1842	29.0323
1.19868	29.8065
1.20736	30.4516
1.21605	32
1.22184	31.6129
1.23053	32.7742
1.23921	33.8065
1.24211	34.4516
1.2479	35.6129
