Adsorption isotherm of Ethene on Carbon
DOI: 10.1016/j.colsurfa.2012.12.015
Adsorbate Ethene: InChIKey VGGSQFUCUMXWEO-UHFFFAOYSA-N
Temperature: 200 K
Tabular data in the source: 0
pressure (bar)	uptake (mol/m3)
7.35e-06	309.753
9.09e-06	615.881
1.27e-05	1228.14
1.54e-05	2490.91
1.81e-05	6011.39
2.12e-05	7733.35
2.57e-05	8651.74
3.07e-05	9110.93
7.4e-05	10220.6
0.000161	10603.3
0.000209	10794.6
0.000233	11139
0.000233	15577.9
0.000254	24187.7
0.000319	24264.3
0.000423	24953.1
0.000532	24991.3
0.000635	25067.8
0.000706	25335.7
0.000872	25450.5
0.00102198	25450.5
0.00113596	25488.8
0.00147966	25450.5
0.0018281	25335.7
0.0020681	25488.8
0.00264677	25909.7
0.00327005	25833.2
0.00425944	25871.4
0.00526248	26139.3
0.00627658	26062.8
0.00832097	26215.8
