Adsorption isotherm of Ethene on Carbon
DOI: 10.1016/j.colsurfa.2012.12.015
Adsorbate Ethene: InChIKey VGGSQFUCUMXWEO-UHFFFAOYSA-N
Temperature: 108 K
Tabular data in the source: 0
pressure (bar)	uptake (micromoles/m2)
6.58e-06	6.00683
6.99e-06	1.36519
2.06e-05	8.46416
9.17e-05	8.46416
0.000177048	8.7372
0.000248129	9.28328
0.000340622	9.01024
0.000397016	14.744
0.000397259	12.0137
0.000411655	10.1024
0.000439597	15.8362
0.000510726	15.8362
0.00061026	16.3823
0.00071693	16.6553
0.000802262	16.9283
0.000880504	16.9283
0.000951634	16.9283
0.00105833	16.9283
0.00111521	17.2014
0.00117918	17.7474
0.00124317	18.0205
0.00129294	18.2935
0.00133557	18.8396
0.00136392	19.9317
0.00138506	22.116
0.0014134	23.4812
0.001456	24.3003
0.00150574	24.8464
0.00156262	25.1195
0.00161236	25.6655
0.00168349	25.6655
0.0017261	26.4846
0.00176875	26.7577
0.00180422	27.8498
0.00182532	30.5802
0.00183224	32.7645
0.00183262	28.3959
0.00186057	34.1297
0.0019032	34.6758
0.00193874	34.9488
0.00196712	35.7679
0.00198838	36.587
0.00201676	37.4061
0.00205223	38.4983
0.00206619	41.5017
0.00206626	40.6826
0.00207308	43.959
0.00210131	46.4164
0.0021154	48.0546
0.00212234	49.9659
0.00213508	66.6212
0.00214234	64.9829
0.00214258	62.2526
0.00214278	60.0683
0.00215009	57.884
0.00215028	55.6997
0.00215045	53.7884
