Adsorption isotherm of Ethene on Carbon
DOI: 10.1016/j.colsurfa.2012.12.015
Adsorbate Ethene: InChIKey VGGSQFUCUMXWEO-UHFFFAOYSA-N
Temperature: 108 K
Tabular data in the source: 0
pressure (bar)	uptake (micromoles/m2)
3.42e-05	8.38816
0.000159613	9.04605
0.000347729	9.21053
0.000399033	13.6513
0.000404734	11.5132
0.000410434	15.2961
0.000461738	15.7895
0.000524443	16.4474
0.000575748	16.4474
0.000655554	16.6118
0.000855071	16.9408
0.00102038	17.1053
0.0012541	17.9276
0.00133961	19.2434
0.00136241	20.0658
0.00138521	21.0526
0.00139662	23.1908
0.00146502	24.1776
0.00152773	25.1645
0.00160183	25.4934
0.00175575	26.6447
0.00178425	26.9737
0.00182415	28.4539
0.00182985	31.25
0.00185265	33.5526
0.00189826	34.5395
0.00191536	34.8684
0.00193816	34.8684
0.00197806	35.5263
0.00199517	36.8421
0.00204647	37.3355
0.00206927	39.6382
0.00207497	42.4342
0.00209777	45.2303
0.00210917	47.3684
0.00212628	48.8487
