Adsorption isotherm of Ethene on Carbon
DOI: 10.1016/j.colsurfa.2012.12.015
Adsorbate Ethene: InChIKey VGGSQFUCUMXWEO-UHFFFAOYSA-N
Temperature: 173 K
Tabular data in the source: 0
pressure (bar)	uptake (micromoles/m2)
0.379292	11.0968
0.414036	11.871
0.457467	12.6452
0.654351	15.7419
0.691991	16.2581
0.72384	16.6452
0.758584	17.6774
0.799119	18.5806
0.839654	19.6129
0.868608	20.5161
0.903352	21.4194
0.935201	22.9677
0.972841	24.5161
1.00759	26.1935
1.03943	27.4839
1.07128	29.0323
1.10024	30.7097
1.11471	32.2581
1.12629	33.6774
1.14077	35.2258
1.15525	36.9032
1.16683	38.1935
1.17262	39.7419
