Adsorption isotherm of Ethene on Carbon
DOI: 10.1016/j.colsurfa.2012.12.015
Adsorbate Ethene: InChIKey VGGSQFUCUMXWEO-UHFFFAOYSA-N
Temperature: 105 K
Tabular data in the source: 0
pressure (bar)	uptake (micromoles/m2)
0.000725243	19.1126
0.000784966	20.7509
0.000840358	23.4812
0.000874447	25.1195
0.000912868	25.6655
0.000998325	25.3925
0.00107945	26.2116
0.00113057	28.942
0.00117319	30.8532
0.00122434	33.0375
0.00127973	35.7679
0.00132234	37.9522
0.00137346	40.6826
0.0014203	43.413
0.0014415	46.4164
0.00145842	49.6928
0.00147962	52.6962
0.00149656	55.4266
0.00151775	58.7031
0.00153892	62.2526
0.00155585	65.256
0.00157277	68.2594
0.00158972	70.9898
0.00161523	73.1741
0.00164925	76.1775
0.00169607	79.4539
