Adsorption isotherm of Ethene on Carbon
DOI: 10.1016/j.colsurfa.2012.12.015
Adsorbate Ethene: InChIKey VGGSQFUCUMXWEO-UHFFFAOYSA-N
Temperature: 120 K
Tabular data in the source: 0
pressure (bar)	uptake (micromoles/m2)
1.24e-07	0.102402
2.28e-07	0.199053
3.43e-07	0.351878
4.5e-07	0.526804
5.34e-07	0.717249
6.33e-07	1.04862
7.25e-07	1.68579
8.31e-07	2.29522
9.2e-07	3.86927
9.85e-07	5.02378
1.09e-06	5.52418
1.21e-06	5.79278
1.38e-06	6.22034
1.88e-06	6.67947
2.23e-06	6.83994
2.73e-06	6.83994
3.71e-06	7.00424
4.4e-06	7.17249
6.85e-06	7.34478
9e-06	7.52123
1.14e-05	7.52123
7.17e-05	8.07637
9.1e-05	8.27039
0.00013686	8.27039
0.000179679	8.27039
0.000213009	8.07637
0.000279652	8.67249
0.000367154	8.46906
0.000450317	8.46906
0.000571437	8.46906
0.00080306	8.88084
0.00109083	8.88084
0.00143212	9.09417
0.00181731	9.31262
0.00215437	9.76542
0.00238592	10
0.0024685	13.2957
0.00273381	12.9837
0.00324086	16.0764
0.00521864	16.8578
0.00708861	18.537
0.00812223	21.8882
0.00899518	24.6462
0.0103068	27.1013
0.0110327	29.8009
0.0118096	33.556
0.0130789	43.5692
0.0135316	45.6867
