Adsorption isotherm of Ethene on Carbon
DOI: 10.1016/j.colsurfa.2012.12.015
Adsorbate Ethene: InChIKey VGGSQFUCUMXWEO-UHFFFAOYSA-N
Temperature: 105 K
Tabular data in the source: 0
pressure (bar)	uptake (micromoles/m2)
5.98e-09	0.102419
7.36e-09	0.127001
1.07e-08	0.225393
1.74e-08	0.496023
1.93e-08	0.615074
2.14e-08	0.727096
2.29e-08	1.06581
2.37e-08	1.80325
2.46e-08	3.69381
2.63e-08	4.16272
2.92e-08	5.81709
3.13e-08	6.40071
3.59e-08	6.40071
5.43e-08	6.87654
6.91e-08	7.21325
1.12e-07	7.21325
1.47e-07	7.56646
1.75e-07	7.38775
2.65e-07	7.56646
3.49e-07	7.56646
5.46e-07	7.93696
7.19e-07	7.93696
1.09e-06	7.74949
1.82e-06	7.93696
2.48e-06	8.32559
3.63e-06	7.93696
5.3e-06	8.32559
6.99e-06	8.52699
1.02e-05	8.32559
1.54e-05	8.52699
2.41e-05	8.52699
3.53e-05	8.73325
5.33e-05	8.94452
7.03e-05	8.73325
0.000109954	8.94452
0.000139939	8.94452
0.000190813	9.38249
0.000219006	12.2042
0.000242854	16.2581
0.000331137	17.4667
0.000451515	17.8896
0.000574659	17.8896
0.000731388	18.3223
0.00089934	25.6035
0.00110586	26.2235
0.00126926	34.1091
0.0014568	44.367
