Adsorption isotherm of Nitrogen on CuBTC
DOI: 10.1007/s10450-013-9583-7
Adsorbate Nitrogen: InChIKey IJGRMHOSHXDMSA-UHFFFAOYSA-N
Temperature: 77 K
Tabular data in the source: 0
pressure (bar)	uptake (mmol/g)
0.000114426	18.9577
0.000381418	18.8592
0.0020978	19.2254
0.010222	20.2254
0.0505761	21.3239
0.103898	21.6338
0.217027	21.8592
0.246778	21.8732
0.267946	22.0563
0.27363	21.9577
0.281639	22
0.298002	21.9577
0.325121	21.9437
0.354643	22.0423
0.365475	22.0423
0.381457	22.1408
0.409033	21.9577
0.438669	22.0141
0.495386	22.0704
0.549052	22.2535
0.581548	22.2535
0.59219	22.3239
0.606074	22.1972
0.611337	22.2535
0.619576	22.2113
0.624801	22.2817
0.635786	22.2254
0.659816	22.3521
0.684188	22.3521
0.705776	22.3803
0.727289	22.4366
0.748991	22.4225
0.770427	22.507
0.79766	22.4507
