Adsorption isotherm of Nitrogen on CuBTC
DOI: 10.1007/s10450-013-9583-7
Adsorbate Nitrogen: InChIKey IJGRMHOSHXDMSA-UHFFFAOYSA-N
Temperature: 77 K
Tabular data in the source: 0
pressure (bar)	uptake (mmol/g)
0.000117221	0.731266
0.00023444	1.70729
0.00104661	3.41459
0.00210997	15.2437
0.00335752	18.9017
0.0137985	20.9727
0.0571282	22.0612
0.112783	22.6593
0.226093	23.0015
0.337352	23.466
0.450671	23.9301
0.561921	24.2727
