Adsorption isotherm of Nitrogen on Hierarchical CuBTC
DOI: 10.1007/s10450-013-9583-7
Adsorbate Nitrogen: InChIKey IJGRMHOSHXDMSA-UHFFFAOYSA-N
Temperature: 77 K
Tabular data in the source: 0
pressure (bar)	uptake (mmol/g)
0.000937764	13.6583
0.00330729	18.17
0.013832	21.4605
0.0572203	23.4027
0.114943	24.1223
0.226244	25.1966
0.255122	25.8003
0.265429	25.9201
0.26959	26.529
0.275794	26.8935
0.279922	27.0146
0.296409	27.1331
0.302596	27.2538
0.310844	27.374
0.337628	27.4903
0.450947	27.9544
0.562214	28.5409
