Adsorption isotherm of Ethane on ZJU-31a
DOI: 10.1021/acs.cgd.5b00675
Article source: Figure 3b- C2H6
Adsorbate Ethane: InChIKey OTMSDBZUPAUEDD-UHFFFAOYSA-N
Kind: experiment
Temperature: 298 K
Tabular data in the source: 0
pressure (bar)	uptake (cm3(STP)/g)
0.011999	8.58
0.020998	10.93
0.032371	12.993
0.038437	14.343
0.064035	17.793
0.069541	18.603
0.095339	21.211
0.099605	22.195
0.126256	24.223
0.130323	25.192
0.15764	27.164
0.161813	27.799
0.187905	29.724
0.193304	30.255
0.219382	32.235
0.224795	33.092
0.251633	34.787
0.255432	35.342
0.283977	37.083
0.287296	37.559
0.315374	39.174
0.318787	39.499
0.347811	41.28
0.349811	41.55
0.378742	43.227
0.380635	43.378
0.40938	45.032
0.440964	46.693
0.471895	48.466
0.504718	50.055
0.534983	51.582
0.566567	52.989
0.597498	54.261
0.628708	55.446
0.659732	56.67
0.690557	57.751
0.722154	58.777
0.754218	59.794
0.784295	60.486
0.816746	61.655
0.847384	62.426
0.878034	63.285
0.909632	63.842
0.940656	64.534
0.971307	65.194
1.00261	65.965
1.03382	66.514
1.06514	67.142
