Adsorption isotherm of Ethane on ZJU-31a
DOI: 10.1021/acs.cgd.5b00675
Article source: Figure 3a- C2H6
Adsorbate Ethane: InChIKey OTMSDBZUPAUEDD-UHFFFAOYSA-N
Kind: experiment
Temperature: 273 K
Tabular data in the source: 0
pressure (bar)	uptake (cm3(STP)/g)
0.00384	3.058
0.011692	12.666
0.014412	13.472
0.033704	17.699
0.037397	18.019
0.066528	23.814
0.096619	28.789
0.126803	33.555
0.158134	37.771
0.188518	41.777
0.190891	41.527
0.219675	45.343
0.222702	45.113
0.252913	48.809
0.256339	48.089
0.284163	51.855
0.289296	51.285
0.314947	54.682
0.319694	54.012
0.345545	56.929
0.350305	56.279
0.377769	59.156
0.381275	58.496
0.408753	61.123
0.412166	60.403
0.440204	62.98
0.444017	62.18
0.471295	64.617
0.475001	63.947
0.502959	65.834
0.506758	65.234
0.533476	67.281
0.536996	66.571
0.56618	68.459
0.567887	68.479
0.595471	69.386
0.627895	70.124
0.656239	70.772
0.690557	71.559
0.704129	71.388
0.722514	72.107
0.735699	72.006
0.752471	72.624
0.767457	72.513
0.783202	72.912
0.797908	72.751
0.81516	73.23
0.829958	73.039
0.84597	73.558
0.861063	73.327
0.876901	73.516
0.910658	73.503
0.920431	73.649
0.92659	73.672
0.954561	73.71
0.958934	73.64
0.983679	73.699
0.990892	73.688
1.01498	73.567
1.02124	73.576
1.05387	73.364
1.08516	73.172
