Adsorption isotherm of Ethene on ZJU-31a
DOI: 10.1021/acs.cgd.5b00675
Article source: Figure 3a- C2H4
Adsorbate Ethene: InChIKey VGGSQFUCUMXWEO-UHFFFAOYSA-N
Kind: experiment
Temperature: 273 K
Tabular data in the source: 0
pressure (bar)	uptake (cm3(STP)/g)
0.006239	1.369
0.012439	5.416
0.012719	6.176
0.016199	8.035
0.017372	12.273
0.017599	9.544
0.021145	13.532
0.031917	16.32
0.039583	17.918
0.063795	22.135
0.070128	23.454
0.095032	26.081
0.101085	27.31
0.126656	29.927
0.132056	30.776
0.157347	32.583
0.163307	33.632
0.188518	35.58
0.194291	36.269
0.220249	38.326
0.224795	38.656
0.251886	40.493
0.257379	40.863
0.282777	43.04
0.286283	43.22
0.314227	45.147
0.318307	45.266
0.346158	47.324
0.349478	47.373
0.377996	49.121
0.380182	49.22
0.4089	50.868
0.410886	51.058
0.441777	52.665
0.473148	54.212
0.504425	55.799
0.535983	56.976
0.567073	58.274
0.598457	59.581
0.629255	60.738
0.660826	61.836
0.691356	62.653
0.722634	63.601
0.754298	64.338
0.785495	65.166
0.816973	65.813
0.847117	66.361
0.878888	66.979
0.909419	67.537
0.941269	68.014
0.953415	68.153
0.971147	68.142
0.983479	68.481
1.00329	68.62
1.01449	68.639
1.03392	68.968
1.06531	69.245
