Adsorption isotherm of Acetylene on ZJU-31a
DOI: 10.1021/acs.cgd.5b00675
Article source: Figure 3b- C2H2
Adsorbate Acetylene: InChIKey HSFWRNGVRCDJHI-UHFFFAOYSA-N
Kind: experiment
Temperature: 298 K
Tabular data in the source: 0
pressure (bar)	uptake (cm3(STP)/g)
0.003506	0.913
0.004733	2.025
0.008333	3.129
0.013452	4.479
0.014185	9.199
0.018852	5.646
0.021372	11.549
0.032304	9.242
0.038623	15.574
0.063581	15.036
0.068674	21.019
0.094779	19.026
0.099485	24.897
0.125976	22.269
0.130976	27.878
0.157654	24.963
0.16228	30.437
0.188771	27.316
0.193104	32.885
0.220262	29.494
0.224302	34.984
0.252126	31.576
0.254939	37.066
0.282483	33.555
0.286443	38.823
0.314547	35.487
0.318587	40.699
0.346132	37.323
0.348945	42.432
0.376769	39.024
0.380915	44.069
0.408553	40.733
0.412313	45.77
0.439377	42.498
0.44239	47.321
0.471068	44.135
0.474454	48.831
0.502839	45.773
0.505572	50.357
0.533863	47.315
0.535729	51.836
0.564687	48.881
0.56714	53.188
0.596098	50.431
0.598724	54.618
0.627495	51.989
0.630215	56.049
0.658706	53.364
0.660386	57.226
0.689157	54.843
0.69217	58.355
0.721314	56.178
0.723474	59.682
0.752525	57.617
0.754311	60.915
0.783736	59.001
0.785335	62.012
0.814666	60.527
0.816919	63.157
0.84645	61.767
0.847944	61.982
0.877941	65.119
0.878594	65.168
0.908965	66.165
0.909898	66.266
0.939789	65.774
0.941203	67.475
0.950322	67.543
0.97176	66.974
0.983426	68.346
1.0026	68.413
1.01284	69.332
1.03277	69.495
1.06531	70.655
