Adsorption isotherm of Methane on ZJU-31a
DOI: 10.1021/acs.cgd.5b00675
Article source: Figure 3a- CH4
Adsorbate Methane: InChIKey VNWKTOKETHGBQD-UHFFFAOYSA-N
Kind: experiment
Temperature: 273 K
Tabular data in the source: 0
pressure (bar)	uptake (cm3(STP)/g)
0.032704	1.427
0.040957	1.477
0.065208	2.534
0.071847	2.844
0.095645	3.792
0.102472	3.881
0.12759	4.709
0.132616	4.909
0.157827	5.777
0.163707	5.936
0.189118	6.654
0.195184	6.654
0.220875	7.622
0.225515	7.571
0.252339	8.469
0.258419	8.489
0.286483	9.197
0.317187	10.134
0.320134	9.944
0.347718	10.812
0.351038	10.802
0.378249	11.569
0.381289	11.389
0.40982	12.367
0.441297	13.025
0.443097	12.815
0.472681	13.702
0.474481	13.512
0.504185	14.251
0.536583	14.777
0.56598	15.475
0.598311	16.063
0.630921	16.68
0.660892	17.178
0.691516	17.916
0.722421	18.423
0.754005	18.851
0.785669	19.449
0.816959	19.986
0.847584	20.424
0.878394	21.022
0.909685	21.49
0.941736	21.977
0.953215	22.196
0.972933	22.545
0.985079	22.694
1.00356	23.083
1.01684	23.122
1.03457	23.46
1.0671	23.788
