Adsorption isotherm of Methane on ZJU-31a
DOI: 10.1021/acs.cgd.5b00675
Article source: Figure 3b- CH4
Adsorbate Methane: InChIKey VNWKTOKETHGBQD-UHFFFAOYSA-N
Kind: experiment
Temperature: 298 K
Tabular data in the source: 0
pressure (bar)	uptake (cm3(STP)/g)
0.030451	0.668
0.038037	1.612
0.064328	1.177
0.068968	2.383
0.095259	1.908
0.100845	3.115
0.126376	2.521
0.132069	3.791
0.157507	3.197
0.161293	4.436
0.189478	3.737
0.192318	4.905
0.220502	4.358
0.224955	5.374
0.250486	5.018
0.255126	5.939
0.282643	5.503
0.286536	6.448
0.314241	6.139
0.318134	7.076
0.346025	6.617
0.350678	7.601
0.376862	7.173
0.381422	8.047
0.40894	7.611
0.40998	8.469
0.439111	8.192
0.442617	8.986
0.470988	8.756
0.473548	9.368
0.501919	9.17
0.505718	9.837
0.53285	9.711
0.537209	10.171
0.563874	10.18
0.566433	10.665
0.595471	10.658
0.597751	10.745
0.627642	11.063
0.629162	11.23
0.656199	11.446
0.659999	11.954
0.69065	11.891
0.69453	12.136
0.721954	12.439
0.72518	12.59
0.753071	12.726
0.756778	12.964
0.785149	13.322
0.81636	13.649
0.846824	14.094
0.878888	14.46
0.909445	14.763
0.940669	15.073
0.954322	15.11
0.97188	15.439
0.985639	15.547
1.00396	15.765
1.01705	15.913
1.03469	16.1
1.06591	16.521
