Adsorption isotherm of Acetylene on ZJU-31a
DOI: 10.1021/acs.cgd.5b00675
Article source: Figure 3a- C2H2
Adsorbate Acetylene: InChIKey HSFWRNGVRCDJHI-UHFFFAOYSA-N
Kind: experiment
Temperature: 273 K
Tabular data in the source: 0
pressure (bar)	uptake (cm3(STP)/g)
0.00368	1.159
0.005546	3.798
0.009586	6.286
0.013732	8.475
0.014625	11.833
0.017025	10.184
0.024545	15.061
0.032597	15.29
0.038037	19.948
0.064181	21.725
0.069528	25.932
0.094566	26.061
0.100672	30.098
0.12591	29.677
0.131922	33.565
0.158294	32.963
0.162227	36.641
0.188691	35.88
0.193104	39.707
0.220049	38.756
0.223982	42.424
0.251019	41.413
0.255526	45.181
0.283323	44.129
0.28659	47.817
0.315441	46.796
0.317001	50.344
0.346038	49.463
0.349398	52.881
0.376822	51.639
0.380289	55.387
0.408753	54.016
0.411739	57.554
0.440017	56.313
0.443004	59.881
0.471468	58.51
0.473414	61.878
0.501225	60.677
0.504785	63.975
0.533063	62.734
0.536623	65.902
0.56442	64.791
0.566567	67.699
0.595978	66.678
0.598497	69.546
0.626962	68.425
0.629202	71.273
0.658812	70.192
0.660092	72.87
0.689983	71.999
0.691276	74.477
0.720794	73.346
0.722941	75.935
0.751405	74.833
0.753831	77.132
0.783149	76.201
0.785122	78.309
0.81444	77.408
0.816013	79.397
0.84609	78.625
0.846917	78.677
0.876435	79.633
0.877728	81.392
0.908285	82.222
0.908632	82.239
0.939096	81.558
0.940776	81.605
0.953388	82.996
0.971227	82.435
0.982213	83.734
1.0027	83.353
1.01313	84.161
1.03351	84.2
1.06509	84.908
