Adsorption isotherm of Nitrogen on ZJU-31a
DOI: 10.1021/acs.cgd.5b00675
Article source: Figure 2- 31a
Adsorbate Nitrogen: InChIKey IJGRMHOSHXDMSA-UHFFFAOYSA-N
Kind: experiment
Temperature: 77 K
Tabular data in the source: 0
pressure (bar)	uptake (cm3(STP)/g)
0.000537	5.203
0.000537	7.002
0.000598	78.782
0.000608	39.479
0.000679	57.844
0.00075	89.569
0.00076	46.05
0.000821	98.616
0.000841	20.116
0.000922	26.472
0.000973	59.402
0.000983	52.298
0.001125	113.402
0.001206	107.262
0.001348	144.398
0.001429	150.565
0.0015	169.066
0.00151	119.191
0.001652	163.06
0.001733	131.579
0.001956	174.99
0.002037	181.428
0.00226	185.924
0.003415	190.824
0.0038	195.106
0.004266	199.226
0.005796	201.973
0.006414	204.127
0.007954	205.903
0.008957	207.788
0.010497	209.538
0.011885	210.669
0.015807	214.626
0.02143	217.451
0.030904	220.625
0.050308	224.899
0.051615	227.861
0.069175	230.251
0.085265	229.679
0.08719	232.317
0.104669	233.63
0.122532	235.427
0.13154	234.158
0.156263	235.898
0.158422	237.782
0.190298	237.797
0.193845	239.519
0.225641	239.533
0.229339	241.605
0.261297	240.973
0.265066	242.533
0.297956	242.305
0.300418	244.135
0.333065	243.691
0.335761	244.121
0.370566	244.888
0.370951	245.4
0.406455	245.083
0.406759	245.089
0.441341	245.898
0.441878	245.91
0.476217	247
0.476298	247.003
0.511874	246.959
0.511955	246.965
0.547378	248.034
0.548067	248.049
0.582953	247.874
0.583186	247.88
0.618447	248.398
0.618528	248.398
0.6538	249.757
0.65387	249.754
0.689375	249.043
0.724332	249.972
0.760606	250.388
0.79533	250.724
0.830683	251.087
0.866258	251.369
0.898368	252.299
0.901296	251.355
0.934713	252.608
0.936719	251.853
0.972061	253.778
0.972294	253.779
1.00687	258.746
