Adsorption isotherm of Ethene on ZJU-31a
DOI: 10.1021/acs.cgd.5b00675
Article source: Figure 3b- C2H4
Adsorbate Ethene: InChIKey VGGSQFUCUMXWEO-UHFFFAOYSA-N
Kind: experiment
Temperature: 298 K
Tabular data in the source: 0
pressure (bar)	uptake (cm3(STP)/g)
0.006733	0.674
0.014292	7.117
0.031344	10.832
0.036837	13.358
0.063955	16.284
0.070208	18.412
0.094872	20.003
0.100165	22.012
0.126256	23.015
0.130896	24.81
0.158414	25.4
0.16172	27.346
0.188571	27.697
0.193211	29.484
0.219875	29.835
0.224235	31.614
0.250899	31.759
0.255152	33.53
0.28391	33.762
0.28655	35.382
0.314547	35.519
0.318334	37.107
0.346318	37.212
0.347451	37.337
0.376956	38.984
0.380462	40.422
0.409313	40.336
0.411673	42.012
0.438431	41.95
0.442697	43.379
0.469548	43.468
0.474281	44.834
0.502279	44.93
0.505305	46.217
0.532636	46.226
0.536809	47.624
0.565274	47.768
0.568207	48.793
0.595818	48.85
0.599231	50.454
0.627028	50.225
0.658146	51.529
0.687077	52.873
0.69049	52.753
0.721047	53.946
0.753111	55.027
0.754818	55.185
0.782336	56.132
0.786789	56.862
0.814013	57.46
0.817719	57.53
0.846837	58.62
0.849597	58.683
0.878154	59.781
0.910032	60.727
0.941056	61.673
0.952722	61.98
0.970374	62.604
0.983359	62.942
1.00301	63.51
1.01544	63.801
1.03403	64.337
1.06562	65.092
