Adsorption isotherm of Nitrogen on ZJU-30a
DOI: 10.1021/acs.cgd.5b00675
Article source: Figure 2- 30a
Adsorbate Nitrogen: InChIKey IJGRMHOSHXDMSA-UHFFFAOYSA-N
Kind: experiment
Temperature: 77 K
Tabular data in the source: 0
pressure (bar)	uptake (cm3(STP)/g)
0.000598	27.881
0.000689	28.572
0.000831	29.463
0.000841	29.482
0.000841	29.502
0.000912	29.865
0.006292	42.857
0.011916	47.546
0.053652	58.567
0.092165	61.664
0.119513	63.656
0.152626	65.648
0.187978	67.802
0.223411	69.74
0.258916	71.893
0.294116	73.966
0.330471	76.011
0.369907	78.192
0.405645	80.129
0.440612	82.04
0.47643	83.816
0.511701	86.132
0.54752	87.989
0.58272	89.792
0.61792	91.73
0.65304	93.56
0.688625	95.525
0.723896	97.247
0.759015	99.535
0.795219	101.392
0.830419	103.465
0.866075	105.456
0.901124	107.448
0.936861	109.979
0.971443	112.537
1.00618	116.416
0.051412	71.991
0.087079	74.602
0.12235	76.378
0.157246	78.397
0.193288	80.065
0.228721	81.815
0.263303	83.348
0.29904	84.774
0.334393	86.469
0.370211	88.03
0.404864	89.563
0.440379	90.854
0.476035	92.469
0.512005	94.11
0.54751	95.401
0.582943	96.881
0.617677	98.307
0.653344	99.571
0.688929	100.996
0.724048	102.26
0.760171	103.956
0.795452	105.381
0.830875	106.807
0.865619	108.341
0.898195	109.847
0.934318	111.543
