Adsorption isotherm of Methane on Coal
DOI: 10.1016/j.coal.2013.02.005
Adsorbate Methane: InChIKey VNWKTOKETHGBQD-UHFFFAOYSA-N
Temperature: 303 K
Tabular data in the source: 0
pressure (bar)	uptake (mmol/g)
1.47402	0.00935673
3.74173	0.0187135
5.21575	0.0654971
7.14331	0.112281
9.75118	0.168421
12.4724	0.219883
15.9874	0.276023
19.389	0.31345
26.4189	0.397661
33.5622	0.453801
40.4787	0.509942
44.4472	0.538012
48.0756	0.552047
51.4772	0.584795
55.8992	0.612865
59.5276	0.622222
62.8157	0.626901
65.8772	0.640936
68.5984	0.650292
