Adsorption isotherm of Methane on Coal
DOI: 10.1016/j.coal.2013.02.005
Adsorbate Methane: InChIKey VNWKTOKETHGBQD-UHFFFAOYSA-N
Temperature: 303 K
Tabular data in the source: 0
pressure (bar)	uptake (mmol/g)
1.70079	0.051462
3.06142	0.102924
5.44252	0.191813
9.18425	0.308772
12.0189	0.369591
15.3071	0.425731
19.2756	0.467836
23.3575	0.519298
32.4283	0.584795
41.3858	0.631579
45.9213	0.636257
48.6425	0.645614
50.6835	0.650292
