Adsorption isotherm of Carbon Dioxide on Coal
DOI: 10.1016/j.coal.2013.02.005
Adsorbate Carbon Dioxide: InChIKey CURLTUGMZLYLDI-UHFFFAOYSA-N
Temperature: 303 K
Tabular data in the source: 0
pressure (bar)	uptake (mmol/g)
0.453543	0.0467836
1.70079	0.159064
2.83465	0.280702
4.7622	0.421053
6.68976	0.584795
9.75118	0.687719
13.1528	0.8
17.1213	0.888889
20.7496	0.954386
25.3984	0.996491
29.1402	1.02924
32.9953	1.04327
37.5307	1.06199
41.8394	1.06667
45.9213	1.07602
50.2299	1.09474
54.4252	1.10409
