Adsorption isotherm of Carbon Dioxide on Coal
DOI: 10.1016/j.coal.2013.02.005
Adsorbate Carbon Dioxide: InChIKey CURLTUGMZLYLDI-UHFFFAOYSA-N
Temperature: 303 K
Tabular data in the source: 0
pressure (bar)	uptake (mmol/g)
0.566929	0.0561404
3.28819	0.369591
5.44252	0.538012
8.05039	0.757895
11.3386	0.926316
14.8535	1.09474
18.9354	1.23041
22.6772	1.34737
26.4189	1.44094
30.9543	1.54854
34.6961	1.61404
39.0047	1.69357
42.9732	1.74971
47.0551	1.80117
52.0441	1.85731
57.4866	1.92281
