Adsorption isotherm of Carbon Dioxide on Coal
DOI: 10.1016/j.coal.2013.02.005
Adsorbate Carbon Dioxide: InChIKey CURLTUGMZLYLDI-UHFFFAOYSA-N
Temperature: 303 K
Tabular data in the source: 0
pressure (bar)	uptake (mmol/g)
0.453543	0.0467836
2.3811	0.28538
3.1748	0.360234
4.98898	0.51462
6.68976	0.650292
11.2252	0.790643
14.2866	0.898246
18.4819	0.959064
23.4709	1.03392
28.4598	1.0807
33.222	1.12749
38.0976	1.15088
43.2	1.17895
48.6425	1.2117
52.9512	1.23041
57.2598	1.24444
