Adsorption isotherm of Methane on Coal
DOI: 10.1016/j.coal.2013.02.005
Adsorbate Methane: InChIKey VNWKTOKETHGBQD-UHFFFAOYSA-N
Temperature: 303 K
Tabular data in the source: 0
pressure (bar)	uptake (mmol/g)
0.793701	0.0233918
3.62835	0.140351
6.23622	0.22924
8.39055	0.308772
11.5654	0.374269
14.8535	0.435088
18.5953	0.491228
22.1102	0.538012
26.1921	0.57076
30.0472	0.603509
34.4693	0.636257
38.0976	0.664327
42.0661	0.683041
46.148	0.706433
50.2299	0.715789
54.1984	0.729825
58.3937	0.74386
62.2488	0.757895
66.6709	0.77193
68.7118	0.776608
70.4126	0.781287
