Adsorption isotherm of Carbon Dioxide on Coal
DOI: 10.1016/j.coal.2013.02.005
Adsorbate Carbon Dioxide: InChIKey CURLTUGMZLYLDI-UHFFFAOYSA-N
Temperature: 303 K
Tabular data in the source: 0
pressure (bar)	uptake (mmol/g)
0.793701	0.0842105
2.72126	0.31345
5.32913	0.523977
7.14331	0.654971
10.885	0.804678
14.0598	0.926316
18.0283	1.00585
22.1102	1.09006
26.6457	1.1462
30.9543	1.19298
35.0362	1.21637
39.7984	1.24912
44.4472	1.26316
48.8693	1.27251
52.7244	1.27251
56.0126	1.27251
