Adsorption isotherm of Methane on Coal
DOI: 10.1016/j.coal.2013.02.005
Adsorbate Methane: InChIKey VNWKTOKETHGBQD-UHFFFAOYSA-N
Temperature: 303 K
Tabular data in the source: 0
pressure (bar)	uptake (mmol/g)
1.02047	0.0327485
3.74173	0.126316
6.57638	0.233918
8.95748	0.31345
12.1323	0.364912
16.3276	0.439766
18.7087	0.463158
21.6567	0.495906
24.9449	0.528655
27.326	0.54269
31.0677	0.575439
34.1291	0.594152
37.9843	0.603509
41.726	0.608187
44.1071	0.612865
46.2614	0.622222
49.5496	0.631579
53.4047	0.645614
56.2394	0.645614
59.1874	0.650292
62.9291	0.650292
