Adsorption isotherm of Carbon Dioxide on Coal
DOI: 10.1016/j.coal.2013.02.005
Adsorbate Carbon Dioxide: InChIKey CURLTUGMZLYLDI-UHFFFAOYSA-N
Temperature: 303 K
Tabular data in the source: 0
pressure (bar)	uptake (mmol/g)
0.566929	0.0935673
2.94803	0.430409
4.98898	0.654971
7.25669	0.912281
10.3181	1.09942
13.6063	1.28187
17.0079	1.42222
20.9764	1.58129
24.378	1.69357
28.4598	1.81053
32.5417	1.91345
36.1701	1.99298
39.7984	2.06784
43.9937	2.14737
51.5906	2.26433
58.5071	2.31579
