Adsorption isotherm of Methane on Coal
DOI: 10.1016/j.coal.2013.02.005
Adsorbate Methane: InChIKey VNWKTOKETHGBQD-UHFFFAOYSA-N
Temperature: 303 K
Tabular data in the source: 0
pressure (bar)	uptake (mmol/g)
0.793701	0.0187135
2.83465	0.0654971
6.12283	0.177778
8.16378	0.224561
10.2047	0.271345
12.5858	0.31345
14.9669	0.350877
17.5748	0.383626
20.4094	0.407018
23.2441	0.435088
25.6252	0.453801
28.3465	0.481871
30.8409	0.505263
33.789	0.51462
36.5102	0.519298
39.4583	0.538012
41.9528	0.556725
