Adsorption isotherm of Carbon Dioxide on Coal
DOI: 10.1016/j.coal.2013.02.005
Adsorbate Carbon Dioxide: InChIKey CURLTUGMZLYLDI-UHFFFAOYSA-N
Temperature: 303 K
Tabular data in the source: 0
pressure (bar)	uptake (mmol/g)
2.15433	0.247953
5.55591	0.617544
11.6787	0.921637
16.3276	1.06199
19.0488	1.13216
23.2441	1.23509
26.8724	1.3193
34.8094	1.43626
39.5717	1.4924
42.6331	1.52515
46.9417	1.56257
50.6835	1.59532
54.085	1.62807
57.7134	1.66082
