Adsorption isotherm of Methane on Coal
DOI: 10.1016/j.coal.2013.02.005
Adsorbate Methane: InChIKey VNWKTOKETHGBQD-UHFFFAOYSA-N
Temperature: 303 K
Tabular data in the source: 0
pressure (bar)	uptake (mmol/g)
0.907087	0.0374269
4.42205	0.187135
6.68976	0.261988
9.41102	0.364912
12.6992	0.435088
15.7606	0.505263
19.0488	0.552047
22.5638	0.608187
25.852	0.650292
29.4803	0.692398
33.4488	0.720468
36.737	0.74386
40.4787	0.776608
43.8803	0.795322
47.1685	0.818713
50.9102	0.842105
