Adsorption isotherm of Arsenic on ZrO2-Fe3O4 nanoparticles
DOI: 10.1016/j.apsusc.2017.04.137
Article source: Figure 6
Adsorbate Arsenic: InChIKey RQNWIZPPADIBDY-UHFFFAOYSA-N
Kind: experiment
Temperature: 298 K
Tabular data in the source: 0
pressure (bar)	uptake (mg/g)
1.01325	4.682
1.01325	23.448
1.01325	45.4
1.01325	76.563
1.01325	101.891
1.01325	130.137
