Adsorption isotherm of Arsenic on ZrO2 nanoparticles
DOI: 10.1016/j.apsusc.2017.04.137
Article source: Figure 6
Adsorbate Arsenic: InChIKey RQNWIZPPADIBDY-UHFFFAOYSA-N
Kind: experiment
Temperature: 298 K
Tabular data in the source: 0
pressure (bar)	uptake (mg/g)
1.01325	4.533
1.01325	20.892
1.01325	36.062
1.01325	54.754
1.01325	66.812
1.01325	85.663
