Adsorption isotherm of Arsenic on Fe3O4 nanoparticles
DOI: 10.1016/j.apsusc.2017.04.137
Article source: Figure 6
Adsorbate Arsenic: InChIKey RQNWIZPPADIBDY-UHFFFAOYSA-N
Kind: experiment
Temperature: 298 K
Tabular data in the source: 0
pressure (bar)	uptake (mg/g)
1.01325	3.824
1.01325	16.081
1.01325	28.01
1.01325	41.031
1.01325	50.127
1.01325	64.47
