Adsorption isotherm of Nitrogen on ZrO2-Fe3O4 nanoparticles
DOI: 10.1016/j.apsusc.2017.04.137
Article source: Figure 1
Adsorbate Nitrogen: InChIKey IJGRMHOSHXDMSA-UHFFFAOYSA-N
Kind: experiment
Temperature: 77 K
Tabular data in the source: 0
pressure (bar)	uptake (cm3(STP)/g)
4e-06	7.49
0.000395	15.55
0.001571	23.52
0.01072	34.08
0.029981	44.16
0.062273	52.22
0.076864	54.62
0.100786	58.75
0.12102	62.3
0.143585	64.79
0.160121	68.83
0.181125	71.32
0.203305	73.82
0.248829	80.73
0.25194	78.81
0.304263	87.45
0.306016	86.3
0.352503	92.44
0.357366	95.51
0.406386	100.6
0.406396	101.66
0.457159	109.05
0.457747	110.68
0.506382	117.11
0.510273	121.33
0.55754	131.22
0.558128	127.09
0.606955	142.16
0.60812	135.93
0.658316	155.99
0.658893	146.87
0.709089	159.54
0.709089	173.46
0.756944	173.94
0.761037	193.33
0.808304	191.22
0.811617	214.45
0.831842	200.14
0.835165	224.53
0.85928	214.25
0.864538	238.64
0.884763	228.46
0.890031	254.09
0.910063	244.88
0.914552	270.22
0.934188	263.79
0.942375	294.79
0.956763	285.19
0.962812	321.09
0.982266	320.9
0.982863	359.3
0.98869	335.97
0.989095	366.5
0.990655	372.16
0.998042	364.39
0.999795	377.73
