Adsorption isotherm of Methane on NU-800
DOI: 10.1021/Cm502304e
Adsorbate Methane: InChIKey VNWKTOKETHGBQD-UHFFFAOYSA-N
Temperature: 125 K
Tabular data in the source: 0
pressure (bar)	uptake (mmol/g)
0.166667	0.000587889
10.3333	34.3574
11.3333	34.361
13.1667	34.6143
13.8333	34.8636
15.1667	34.8683
16.3333	34.8724
18.1667	35.1258
19.6667	35.1311
