Adsorption isotherm of Methane on NU-800
DOI: 10.1021/Cm502304e
Adsorbate Methane: InChIKey VNWKTOKETHGBQD-UHFFFAOYSA-N
Temperature: 298 K
Tabular data in the source: 0
pressure (bar)	uptake (mmol/g)
0.166667	0.000587889
4	1.7425
5.5	2.48854
6.5	2.98589
8.5	3.73369
11.5	4.97884
15.5	6.22751
21.3333	7.97648
29.3333	9.98001
34.3333	11.4791
39.6667	12.4856
45.6667	13.7413
52.3333	14.7525
60.3333	15.5215
64.1667	16.5226
65.8333	16.5285
