Adsorption isotherm of Hydrogen on NU-800
DOI: 10.1021/Cm502304e
Adsorbate Hydrogen: InChIKey UFHFLCQGNIYNRP-UHFFFAOYSA-N
Temperature: 77 K
Tabular data in the source: 0
pressure (bar)	uptake (mmol/g)
0.32235	3.67759
0.331531	0.364611
1.30878	7.7163
2.79098	12.8541
4.44252	16.8858
5.7615	20.921
7.91288	24.5794
11.0619	28.2272
14.214	30.7708
17.3661	33.3143
21.0211	34.3801
25.3361	37.2795
29.4889	38.7083
32.6471	39.0432
35.637	40.116
38.629	40.4526
41.6199	41.1574
45.4412	42.2215
48.2669	42.5599
50.76	42.9017
53.7529	42.8703
57.409	43.568
59.9021	43.9099
63.3918	44.6094
