Adsorption isotherm of Methane on Py-4PT
DOI: 10.1021/Cm502304e
Adsorbate Methane: InChIKey VNWKTOKETHGBQD-UHFFFAOYSA-N
Temperature: 273 K
Tabular data in the source: 0
pressure (bar)	uptake (cm3(STP)/cm3)
1.96915	0.00269333
11.724	5.78527
23.4177	13.4936
33.1422	21.1992
42.8971	26.9818
54.6211	32.767
60.4073	40.4672
101.366	65.5233
202.867	122.393
300.704	161.95
349.72	175.478
398.737	189.007
498.83	210.298
598.999	226.781
650.121	231.658
703.197	237.5
