Adsorption isotherm of Nitrogen on NU-800
DOI: 10.1021/Cm502304e
Adsorbate Nitrogen: InChIKey IJGRMHOSHXDMSA-UHFFFAOYSA-N
Temperature: 77 K
Tabular data in the source: 0
pressure (bar)	uptake (cm3(STP)/g)
0	0
0.0026472	153.596
0.00529439	238.227
0.00794158	420.037
0.0105888	542.286
0.013236	598.703
0.0158832	651.986
0.0185304	680.191
0.026472	695.839
0.0502967	717.706
0.0767686	742.699
0.100593	755.161
0.153537	776.934
0.19854	801.867
0.240894	814.27
0.270014	820.445
0.315016	826.57
0.344135	829.611
0.378549	832.634
0.434139	838.725
0.481789	841.706
0.508261	841.62
0.529439	841.552
0.577088	841.398
0.624738	847.514
0.675034	847.352
0.701506	844.131
0.725331	850.324
0.767686	853.322
0.82063	856.286
0.870927	856.124
0.897399	862.308
0.963579	874.634
