Adsorption isotherm of Nitrogen on NU-800
DOI: 10.1021/Cm502304e
Adsorbate Nitrogen: InChIKey IJGRMHOSHXDMSA-UHFFFAOYSA-N
Temperature: 77 K
Tabular data in the source: 0
pressure (bar)	uptake (cm3(STP)/g)
0.00794158	0.00817439
0.0105888	617.521
0.0158832	742.895
0.0185304	764.83
0.0238248	796.161
0.0317663	824.349
0.0476495	849.376
0.068827	864.982
0.0926517	877.444
0.119124	880.493
0.145596	886.678
0.16942	889.735
0.195892	892.785
0.222364	895.834
0.248836	898.884
0.275308	898.798
0.30178	898.713
0.325605	901.771
0.352077	901.685
0.378549	901.6
0.405021	901.514
0.431493	904.564
0.457965	904.478
0.484437	904.393
0.510909	907.442
0.537381	907.357
0.563852	907.272
0.590324	910.321
0.616796	910.235
0.643268	910.15
0.66974	910.065
0.696212	909.979
0.722684	913.029
0.749156	912.943
0.775628	912.858
0.8021	912.772
0.828571	912.687
0.855043	912.602
0.878868	915.659
0.90534	915.574
0.931812	915.489
0.958284	915.403
