Adsorption isotherm of Hydrogen on NU-800
DOI: 10.1021/Cm502304e
Adsorbate Hydrogen: InChIKey UFHFLCQGNIYNRP-UHFFFAOYSA-N
Temperature: 50 K
Tabular data in the source: 0
pressure (bar)	uptake (mmol/g)
0.32133	4.0457
0.331531	0.364611
0.472304	9.56558
0.623279	15.0855
0.923187	26.8615
0.937468	21.7079
1.23432	34.5882
1.55667	38.2658
2.04121	43.4141
3.36224	46.7131
5.3504	49.2689
7.17433	51.0902
9.33082	52.908
11.4893	53.9896
14.315	54.328
17.1386	55.4026
19.6317	55.7445
22.4574	56.0828
25.1168	56.423
28.7738	56.7526
30.9344	57.098
33.7601	57.4364
36.4205	57.4084
39.4114	58.1131
42.7369	58.0781
45.5626	58.4165
49.5522	58.7427
53.044	58.7059
57.3671	58.6605
61.6903	58.615
64.6833	58.5835
