Adsorption isotherm of Methane on NU-800
DOI: 10.1021/Cm502304e
Adsorbate Methane: InChIKey VNWKTOKETHGBQD-UHFFFAOYSA-N
Temperature: 200 K
Tabular data in the source: 0
pressure (bar)	uptake (mmol/g)
0.166667	0.000587889
0.666667	3.70606
1	5.92945
1.83333	8.15461
2.33333	11.3663
3	14.0847
3.5	16.0617
4.66667	19.2757
6.33333	21.5038
7.83333	23.2375
9.5	24.9718
12.1667	25.7219
14.8333	26.4721
16.8333	27.2199
19.5	27.97
22	28.4727
25.1667	28.7307
27.8333	28.7402
30.5	28.9965
33.3333	29.2534
35.6667	29.5085
37.8333	29.7631
39.8333	29.7701
