Adsorption isotherm of Methane on fcu-PTP
DOI: 10.1021/Cm502304e
Adsorbate Methane: InChIKey VNWKTOKETHGBQD-UHFFFAOYSA-N
Temperature: 273 K
Tabular data in the source: 0
pressure (bar)	uptake (cm3(STP)/cm3)
102.262	53.6398
202.655	93.8697
299.166	125.479
348.436	137.931
397.721	148.467
500.247	168.582
602.811	183.908
652.126	190.613
703.424	196.36
