Adsorption isotherm of Methane on NU-800
DOI: 10.1021/Cm502304e
Adsorbate Methane: InChIKey VNWKTOKETHGBQD-UHFFFAOYSA-N
Temperature: 270 K
Tabular data in the source: 0
pressure (bar)	uptake (mmol/g)
0.166667	0.000587889
3.83333	2.72957
5.16667	3.96884
6.16667	4.71311
8.16667	5.46091
11	6.95238
15	9.18871
20.3333	11.1828
27.5	13.6772
31.1667	14.6778
35.8333	15.435
41.3333	16.4421
47.3333	17.9447
54.5	18.7108
61.8333	19.7243
64.8333	20.2287
