Adsorption isotherm of Hydrogen on NU-800
DOI: 10.1021/Cm502304e
Adsorbate Hydrogen: InChIKey UFHFLCQGNIYNRP-UHFFFAOYSA-N
Temperature: 200 K
Tabular data in the source: 0
pressure (bar)	uptake (mmol/g)
0.331531	0.364611
2.49107	1.0781
4.98317	1.78808
7.64358	1.7601
11.2986	2.82596
14.2915	2.79448
18.6147	2.74901
23.1011	3.80612
27.5895	4.12702
31.0782	5.19462
34.2354	5.89761
37.2274	6.23424
39.7205	6.57612
41.7148	6.92325
45.5381	7.25113
49.1941	7.94888
52.3534	7.91565
57.0081	8.2348
60	8.57143
63.656	9.26917
64.6527	9.62679
