Adsorption isotherm of Hydrogen on NU-800
DOI: 10.1021/Cm502304e
Adsorbate Hydrogen: InChIKey UFHFLCQGNIYNRP-UHFFFAOYSA-N
Temperature: 100 K
Tabular data in the source: 0
pressure (bar)	uptake (mmol/g)
0.331531	0.364611
0.989493	2.93438
1.81679	4.39807
2.47883	5.4954
3.47241	6.95735
4.2997	8.42104
5.45955	9.88123
6.95195	11.3379
9.10742	13.5238
12.2605	15.6993
16.0777	18.2358
21.5587	20.3868
28.5341	23.2582
33.0205	24.3153
37.3396	25.7423
42.8236	26.7889
48.6392	28.2001
55.6197	29.231
61.1027	30.6457
63.4296	30.9893
