Adsorption isotherm of Hydrogen on NU-800
DOI: 10.1021/Cm502304e
Adsorbate Hydrogen: InChIKey UFHFLCQGNIYNRP-UHFFFAOYSA-N
Temperature: 298 K
Tabular data in the source: 0
pressure (bar)	uptake (mmol/g)
0.331531	0.364611
2.65837	0.708238
4.65266	1.05536
7.14679	1.02913
9.97246	1.36751
27.5936	2.65458
35.7391	3.30511
46.3797	3.5613
57.8496	4.54496
62.3391	4.49775
