Adsorption isotherm of Methane on NU-800
DOI: 10.1021/Cm502304e
Adsorbate Methane: InChIKey VNWKTOKETHGBQD-UHFFFAOYSA-N
Temperature: 125 K
Tabular data in the source: 0
pressure (bar)	uptake (mmol/g)
0.166667	0.166667
0.333333	10.1246
0.5	16.2981
0.666667	20.7431
0.833333	26.6696
1.16667	27.9053
1.83333	29.3892
3.16667	29.8877
4.16667	30.3851
4.66667	31.1276
5.66667	31.6249
6.66667	32.1223
8.5	32.6226
11	33.3721
12.1667	33.3762
16	33.6367
21.3333	34.3962
25.3333	34.6573
25.8333	35.8936
