Adsorption isotherm of Methane on NU-800
DOI: 10.1021/Cm502304e
Adsorbate Methane: InChIKey VNWKTOKETHGBQD-UHFFFAOYSA-N
Temperature: 240 K
Tabular data in the source: 0
pressure (bar)	uptake (mmol/g)
0.166667	0.000587889
1.33333	1.48618
2.5	3.21869
4	4.95238
5.66667	7.4274
7.66667	9.90359
10	12.381
12.6667	14.6126
14.8333	16.1017
17	17.5908
19.1667	19.3269
22.1667	20.3251
25.1667	21.3233
27.8333	22.0735
30.3333	22.5761
32.3333	22.8301
35	23.3333
37.3333	23.5885
40.1667	23.8454
42.8333	24.3486
45.5	24.358
48.5	24.8624
50.6667	24.8701
53	25.1252
55.6667	25.1346
58.5	25.6384
60.8333	25.6467
63.3333	25.9024
