Adsorption isotherm of Hydrogen on NU-800
DOI: 10.1021/Cm502304e
Adsorbate Hydrogen: InChIKey UFHFLCQGNIYNRP-UHFFFAOYSA-N
Temperature: 298 K
Tabular data in the source: 0
pressure (bar)	uptake (mmol/g)
0.331531	0.364611
2.32582	0.711735
5.65133	0.676761
9.47465	1.00465
12.7981	1.70589
17.1213	1.66042
22.2758	1.60621
25.9339	1.56774
31.2537	1.87989
37.5701	2.54966
41.3924	3.24565
45.2168	3.20543
48.7086	3.16871
52.5319	3.4966
56.0216	4.19609
60.3448	4.15062
64.0018	4.48026
