Adsorption isotherm of Methane on NU-800
DOI: 10.1021/Cm502304e
Adsorbate Methane: InChIKey VNWKTOKETHGBQD-UHFFFAOYSA-N
Temperature: 240 K
Tabular data in the source: 0
pressure (bar)	uptake (mmol/g)
0.166667	0.000587889
1.5	2.22751
2.66667	3.96002
3.66667	4.70429
4.66667	6.43621
5.83333	7.18107
7.66667	9.16285
10.5	11.642
14	13.8765
19.1667	16.117
26	18.6102
30.6667	19.8613
35.3333	20.8654
40.6667	21.8718
47	22.6349
53.8333	23.8936
61.3333	24.6608
64.5	24.9189
