Adsorption isotherm of Hydrogen on NU-800
DOI: 10.1021/Cm502304e
Adsorbate Hydrogen: InChIKey UFHFLCQGNIYNRP-UHFFFAOYSA-N
Temperature: 100 K
Tabular data in the source: 0
pressure (bar)	uptake (mmol/g)
0.331531	0.364611
1.48832	2.92913
3.47547	5.85302
6.45619	10.2388
8.94726	11.3169
11.93	14.9666
15.2484	17.5083
17.9057	18.5847
22.7216	20.7426
25.0464	21.8225
27.7027	23.2669
31.0252	24.3363
33.8478	25.779
37.1703	26.8483
40.9926	27.5443
43.9835	28.2491
46.9734	29.3219
50.6294	30.0197
54.4517	30.7157
57.2753	31.7903
60.4346	31.757
63.2592	32.4635
65.0862	33.1805
