Adsorption isotherm of Methane on NU-800
DOI: 10.1021/Cm502304e
Adsorbate Methane: InChIKey VNWKTOKETHGBQD-UHFFFAOYSA-N
Temperature: 298 K
Tabular data in the source: 0
pressure (bar)	uptake (cm3(STP)/cm3)
2.63303	2.07774
3.6403	8.23254
4.64827	13.7048
5.65555	19.8596
6.66352	25.3318
7.87349	31.4889
8.88146	36.9611
10.0914	43.1182
11.0994	48.5904
12.3101	54.065
13.318	59.5372
14.5287	65.0117
15.7394	70.4862
17.1527	75.9631
18.3634	81.4376
19.5748	86.2295
20.7861	91.0215
22.2002	95.8157
23.6142	100.61
24.8249	106.084
26.239	110.879
27.6537	114.99
29.2705	119.787
30.6845	124.581
32.0993	128.693
33.7167	132.807
34.9302	135.551
36.1422	139.66
37.557	143.772
38.971	148.566
40.7919	152
42.8147	156.118
44.6349	160.235
46.4544	165.034
48.4779	168.47
50.2981	172.586
51.9155	176.7
53.9411	178.088
56.5721	182.214
59.6077	187.026
61.2238	192.505
63.4521	193.896
65.273	197.33
