Adsorption isotherm of Methane on NU-800
DOI: 10.1021/Cm502304e
Adsorbate Methane: InChIKey VNWKTOKETHGBQD-UHFFFAOYSA-N
Temperature: 270 K
Tabular data in the source: 0
pressure (bar)	uptake (mmol/g)
0.166667	0.000587889
1.33333	1.48618
3.16667	2.23339
5.33333	3.72252
7.16667	4.96355
10	6.94885
12.3333	8.19165
14.6667	9.68136
17.1667	10.9248
19.8333	12.4156
22.6667	13.6602
24.6667	14.408
27.1667	15.4045
29.6667	16.154
32.3333	17.1511
34.8333	17.6537
37.5	17.9101
40	18.6596
42.8333	19.1634
45	19.1711
47.8333	20.1687
50.8333	20.4262
52.6667	20.6796
55.3333	20.689
57.6667	21.1911
60.1667	21.4468
62.8333	21.7031
