Adsorption isotherm of Methane on NU-800
DOI: 10.1021/Cm502304e
Adsorbate Methane: InChIKey VNWKTOKETHGBQD-UHFFFAOYSA-N
Temperature: 200 K
Tabular data in the source: 0
pressure (bar)	uptake (mmol/g)
0.166667	0.000587889
0.666667	2.7184
1.33333	6.42446
1.83333	8.40153
2.16667	9.39036
3	11.6155
3.66667	13.5932
4.66667	15.8189
5.66667	17.5509
7.83333	20.2745
10.5	22.2593
14.1667	24.0006
19	25.4991
25.6667	27.251
30.1667	28.0076
32	28.261
37.1667	28.7731
40	29.5238
41	29.7743
