Adsorption isotherm of Methane on ftw-Py-4TP
DOI: 10.1021/Cm502304e
Adsorbate Methane: InChIKey VNWKTOKETHGBQD-UHFFFAOYSA-N
Temperature: 273 K
Tabular data in the source: 0
pressure (bar)	uptake (cm3(STP)/cm3)
204.493	111.111
299	146.552
348.262	159.962
399.499	173.372
502.033	192.529
600.648	207.854
651.937	214.559
701.267	219.349
