Adsorption isotherm of Hydrogen on NU-800
DOI: 10.1021/Cm502304e
Adsorbate Hydrogen: InChIKey UFHFLCQGNIYNRP-UHFFFAOYSA-N
Temperature: 150 K
Tabular data in the source: 0
pressure (bar)	uptake (mmol/g)
0.331531	0.364611
1.99123	1.45145
3.15414	1.80732
5.1474	2.52255
6.14302	3.24828
10.2958	4.67699
17.2723	7.18031
27.2406	10.0203
35.383	11.7751
45.3535	13.8788
56.6541	15.9686
61.474	16.6541
