Adsorption isotherm of Hydrogen on NU-800
DOI: 10.1021/Cm502304e
Adsorbate Hydrogen: InChIKey UFHFLCQGNIYNRP-UHFFFAOYSA-N
Temperature: 77 K
Tabular data in the source: 0
pressure (bar)	uptake (mmol/g)
0.331531	0.364611
0.652861	4.41031
1.14149	8.08615
1.46792	10.2913
2.1269	12.493
2.95216	14.6929
3.77844	16.5247
4.76997	18.7228
5.76354	20.1848
7.58645	22.3742
9.90921	24.1903
13.0613	26.7338
17.2121	28.8987
22.8573	31.7841
29.1696	33.9263
33.657	34.6154
38.476	35.669
43.7937	36.7173
49.7776	37.3906
56.5908	38.7913
61.2445	39.4786
63.5724	39.4541
