Adsorption isotherm of Methane on NU-800
DOI: 10.1021/Cm502304e
Adsorbate Methane: InChIKey VNWKTOKETHGBQD-UHFFFAOYSA-N
Temperature: 298 K
Tabular data in the source: 0
pressure (bar)	uptake (mmol/g)
0.166667	0.000587889
2.16667	0.748383
3.83333	1.495
6	2.4903
8.5	3.48677
10.5	4.7284
13	5.47795
16	6.47619
18	7.4709
20.8333	8.46855
23.6667	9.21928
25.6667	10.214
28.5	10.9647
30.8333	11.7137
33.6667	12.7113
36.1667	13.214
38.5	13.716
41.1667	14.2193
43.6667	14.475
46.3333	15.2252
48.5	15.7266
51	15.9824
53.8333	16.2393
56.3333	16.9888
58.6667	17.244
61.3333	17.5003
64.1667	17.7572
