Adsorption isotherm of Hydrogen on NU-800
DOI: 10.1021/Cm502304e
Adsorbate Hydrogen: InChIKey UFHFLCQGNIYNRP-UHFFFAOYSA-N
Temperature: 200 K
Tabular data in the source: 0
pressure (bar)	uptake (mmol/g)
0.331531	0.364611
2.32582	0.711735
3.48873	1.0676
4.81893	1.05361
7.14475	1.76535
9.80312	2.47359
16.1175	3.87957
26.7541	5.6082
30.7426	6.30244
39.8857	6.94248
51.521	8.29251
59.8307	9.6775
62.9879	10.3805
