Adsorption isotherm of Methane on fcu-TPT
DOI: 10.1021/Cm502304e
Adsorbate Methane: InChIKey VNWKTOKETHGBQD-UHFFFAOYSA-N
Temperature: 273 K
Tabular data in the source: 0
pressure (bar)	uptake (cm3(STP)/cm3)
-1.97472	0
9.8282	5.74713
19.6564	11.4943
29.4846	17.2414
41.28	23.9464
51.1082	29.6935
60.9439	34.4828
100.249	58.4291
200.513	114.943
300.891	157.088
348.148	174.33
401.36	187.739
499.922	209.77
600.504	226.054
651.801	231.801
701.116	238.506
