Adsorption isotherm of Hydrogen on NU-800
DOI: 10.1021/Cm502304e
Adsorbate Hydrogen: InChIKey UFHFLCQGNIYNRP-UHFFFAOYSA-N
Temperature: 150 K
Tabular data in the source: 0
pressure (bar)	uptake (mmol/g)
0.331531	0.364611
1.99123	1.45145
4.81485	2.52605
7.47322	3.23429
10.6314	3.56917
14.1191	5.00488
17.4396	6.81045
20.9293	7.50995
24.5843	8.5758
28.0741	9.27529
31.3975	9.97654
35.2188	11.0406
38.8738	12.1065
42.1963	13.1758
45.5208	13.509
49.5114	13.467
53.0011	14.1665
55.6605	14.5066
58.8167	15.5777
61.1435	15.9214
63.4704	16.265
64.6343	16.2528
