Adsorption isotherm of Hydrogen on NU-800
DOI: 10.1021/Cm502304e
Adsorbate Hydrogen: InChIKey UFHFLCQGNIYNRP-UHFFFAOYSA-N
Temperature: 50 K
Tabular data in the source: 0
pressure (bar)	uptake (mmol/g)
-0.00306029	1.10433
0.141793	8.83286
0.155055	4.04745
0.296848	12.8803
0.616138	17.6622
0.769152	22.4459
1.25574	26.858
1.58115	29.4312
2.23605	33.1053
3.2286	34.9354
4.22014	37.1335
5.21371	38.5955
6.20932	39.3212
7.868	40.7761
10.5233	42.5887
13.8447	44.0262
17.9976	45.4549
23.6468	46.8679
28.7993	47.5499
32.7869	48.6122
37.2753	48.9331
42.0943	49.9867
47.2478	50.3006
53.3969	51.3403
59.3828	51.2773
62.3748	51.6139
