Adsorption isotherm of N-Heptane, Cyclohexane on Zeolite 13X
DOI: 10.1021/i100017a005
Article source: Figure 5
Adsorbate N-Heptane: InChIKey IMNFDUFMRHMDMM-UHFFFAOYSA-N
Adsorbate Cyclohexane: InChIKey XDTMQSROBMDMFD-UHFFFAOYSA-N
Kind: experiment
Temperature: 458 K
Tabular data in the source: 0
pressure (bar)	N-Heptane fraction	N-Heptane uptake (molecules/cage)	Cyclohexane fraction	Cyclohexane uptake (molecules/cage)	total uptake (molecules/cage)
0.039997	1	2	0	0	
0.039997	0.456	1.42	0.544	0.644	
0.039997	0.189	0.859	0.811	1.17	
0.039997	0.082	0.43	0.918	1.62	
0.039997	0.003	0	0.997	2.12	
