Adsorption isotherm of N-Heptane on Zeolite 13X
DOI: 10.1021/i100017a005
Article source: Figure 2
Adsorbate N-Heptane: InChIKey IMNFDUFMRHMDMM-UHFFFAOYSA-N
Kind: experiment
Temperature: 409 K
Tabular data in the source: 0
pressure (bar)	uptake (molecules/cage)
0.000122	1.01
0.000495	1.1
0.001667	1.75
0.013732	2.19
0.030397	2.29
0.051062	2.35
0.099992	2.54
