Adsorption isotherm of N-Heptane, Cyclohexane on Zeolite 13X
DOI: 10.1021/i100017a005
Article source: Figure 4
Adsorbate N-Heptane: InChIKey IMNFDUFMRHMDMM-UHFFFAOYSA-N
Adsorbate Cyclohexane: InChIKey XDTMQSROBMDMFD-UHFFFAOYSA-N
Kind: experiment
Temperature: 409 K
Tabular data in the source: 0
pressure (bar)	N-Heptane fraction	N-Heptane uptake (molecules/cage)	Cyclohexane fraction	Cyclohexane uptake (molecules/cage)	total uptake (molecules/cage)
0.039997	1	2.36	0	0	
0.039997	0.438	1.58	0.562	0.708	
0.039997	0.213	1.04	0.787	1.37	
0.039997	0.081	0.497	0.919	2.06	
0.039997	0	0	1	2.52	
