Adsorption isotherm of Cyclohexane on Zeolite 13X
DOI: 10.1021/i100017a005
Article source: Figure 2
Adsorbate Cyclohexane: InChIKey XDTMQSROBMDMFD-UHFFFAOYSA-N
Kind: experiment
Temperature: 409 K
Tabular data in the source: 0
pressure (bar)	uptake (molecules/cage)
0.0008	0.629
0.00156	0.933
0.00416	1.39
0.005626	1.6
0.008559	1.86
0.014399	2.07
0.023065	2.3
0.039463	2.48
0.058662	2.59
0.097459	2.67
