Adsorption isotherm of Cyclohexane on Zeolite 13X
DOI: 10.1021/i100017a005
Article source: Figure 3
Adsorbate Cyclohexane: InChIKey XDTMQSROBMDMFD-UHFFFAOYSA-N
Kind: experiment
Temperature: 458 K
Tabular data in the source: 0
pressure (bar)	uptake (molecules/cage)
0.001373	0.177
0.00168	0.327
0.003386	0.585
0.009959	1.13
0.014132	1.37
0.018398	1.57
0.029198	1.85
0.04413	2.02
0.066395	2.19
0.131589	2.38
