Adsorption isotherm of N-Heptane, Cyclohexane on Zeolite 13X
DOI: 10.1021/i100017a005
Article source: Figure 5
Adsorbate N-Heptane: InChIKey IMNFDUFMRHMDMM-UHFFFAOYSA-N
Adsorbate Cyclohexane: InChIKey XDTMQSROBMDMFD-UHFFFAOYSA-N
Kind: experiment
Temperature: 458 K
Tabular data in the source: 0
pressure (bar)	N-Heptane fraction	N-Heptane uptake (molecules/cage)	Cyclohexane fraction	Cyclohexane uptake (molecules/cage)	total uptake (molecules/cage)
0.133322	1	2.09	0	0	
0.133322	0.548	1.49	0.452	0.657	
0.133322	0.266	0.939	0.734	1.28	
0.133322	0.1	0.446	0.9	1.86	
0.133322	0	0	1	2.35	
