Adsorption isotherm of N-Heptane on Zeolite 13X
DOI: 10.1021/i100017a005
Article source: Figure 3
Adsorbate N-Heptane: InChIKey IMNFDUFMRHMDMM-UHFFFAOYSA-N
Kind: experiment
Temperature: 458 K
Tabular data in the source: 0
pressure (bar)	uptake (molecules/cage)
0.000577	0.467
0.00224	0.853
0.00256	0.987
0.004253	1.24
0.008439	1.49
0.012999	1.66
0.020798	1.78
0.046263	1.94
0.065728	2.02
0.12279	2.08
