Adsorption isotherm of N-Heptane, Cyclohexane on Zeolite 13X
DOI: 10.1021/i100017a005
Article source: Figure 5
Adsorbate N-Heptane: InChIKey IMNFDUFMRHMDMM-UHFFFAOYSA-N
Adsorbate Cyclohexane: InChIKey XDTMQSROBMDMFD-UHFFFAOYSA-N
Kind: experiment
Temperature: 458 K
Tabular data in the source: 0
pressure (bar)	N-Heptane fraction	N-Heptane uptake (molecules/cage)	Cyclohexane fraction	Cyclohexane uptake (molecules/cage)	total uptake (molecules/cage)
0.066661	1	2.01	0	0	
0.066661	0.487	1.37	0.513	0.636	
0.066661	0.228	0.897	0.772	1.19	
0.066661	0.082	0.437	0.918	1.7	
0.066661	0	0	1	2.16	
