Adsorption isotherm of N-Heptane, Cyclohexane on Zeolite 13X
DOI: 10.1021/i100017a005
Article source: Figure 5
Adsorbate N-Heptane: InChIKey IMNFDUFMRHMDMM-UHFFFAOYSA-N
Adsorbate Cyclohexane: InChIKey XDTMQSROBMDMFD-UHFFFAOYSA-N
Kind: experiment
Temperature: 458 K
Tabular data in the source: 0
pressure (bar)	N-Heptane fraction	N-Heptane uptake (molecules/cage)	Cyclohexane fraction	Cyclohexane uptake (molecules/cage)	total uptake (molecules/cage)
0.019998	1	1.74	0	0	
0.019998	0.401	1.16	0.599	0.514	
0.019998	0.144	0.546	0.856	0.83	
0.019998	0.073	0.311	0.927	1.27	
0.019998	0	0	1	1.57	
