Adsorption isotherm of Hydrogen on Model MOF
DOI: 10.1063/1.3668138
Adsorbate Hydrogen: InChIKey UFHFLCQGNIYNRP-UHFFFAOYSA-N
Temperature: 77 K
Tabular data in the source: 0
pressure (bar)	uptake (wt%)
0.00751948	0.3
0.0206786	0.365079
0.0526364	0.401587
0.0845942	0.430159
0.124071	0.450794
0.157909	0.465079
0.195506	0.47619
0.212425	0.480952
0.231224	0.485714
0.248143	0.490476
0.265062	0.495238
0.281981	0.498413
0.300779	0.503175
0.317698	0.504762
0.336497	0.506349
0.353416	0.509524
0.372214	0.511111
0.391013	0.512698
0.407932	0.512698
0.424851	0.514286
0.443649	0.514286
0.462448	0.515873
0.481247	0.515873
0.500045	0.515873
0.516964	0.51746
0.535763	0.51746
0.554562	0.51746
0.57336	0.519048
0.592159	0.519048
0.610958	0.519048
0.629756	0.519048
0.646675	0.520635
0.665474	0.520635
0.684273	0.520635
0.703071	0.520635
0.72187	0.522222
0.740669	0.522222
0.759468	0.522222
0.778266	0.52381
0.797065	0.52381
0.815864	0.52381
0.834662	0.525397
0.853461	0.525397
0.87226	0.526984
0.891058	0.526984
0.907977	0.526984
0.926776	0.528571
0.945575	0.528571
0.964373	0.528571
0.983172	0.530159
1.00197	0.530159
1.01325	0.530159
