Adsorption isotherm of Hydrogen on Model MOF
DOI: 10.1063/1.3668138
Adsorbate Hydrogen: InChIKey UFHFLCQGNIYNRP-UHFFFAOYSA-N
Temperature: 87 K
Tabular data in the source: 0
pressure (bar)	uptake (wt%)
0.00751948	0.233964
0.00939935	0.270572
0.015039	0.296045
0.0263182	0.329484
0.0488766	0.345435
0.0695552	0.359791
0.101513	0.377348
0.135351	0.391725
0.165429	0.407687
0.201146	0.422067
0.238744	0.430083
0.2895	0.439712
0.330857	0.447735
0.360935	0.454148
0.398532	0.460573
0.417331	0.462194
0.479367	0.467066
0.524484	0.468728
0.579	0.473588
0.635396	0.475269
0.680513	0.476931
0.765107	0.475472
0.823383	0.475564
0.876019	0.477238
0.960614	0.477371
1.01137	0.477451
