Adsorption isotherm of Hydrogen on Model MOF
DOI: 10.1063/1.3668138
Adsorbate Hydrogen: InChIKey UFHFLCQGNIYNRP-UHFFFAOYSA-N
Temperature: 77 K
Tabular data in the source: 0
pressure (bar)	uptake (wt%)
0.015039	0.355556
0.0281981	0.384127
0.0639156	0.42381
0.133471	0.45873
0.163549	0.466667
0.212425	0.469841
0.246263	0.474603
0.272581	0.47619
0.310179	0.480952
0.328977	0.480952
0.347776	0.480952
0.366575	0.480952
0.379734	0.48254
0.398532	0.48254
0.417331	0.48254
0.43613	0.48254
0.57336	0.487302
0.592159	0.487302
0.610958	0.487302
0.629756	0.487302
0.648555	0.487302
0.667354	0.487302
0.686153	0.488889
0.704951	0.488889
0.72375	0.488889
0.742549	0.488889
0.761347	0.488889
0.770747	0.490476
0.789545	0.490476
0.808344	0.490476
0.827143	0.490476
0.845942	0.490476
0.86474	0.490476
0.883539	0.492063
0.915497	0.493651
0.939935	0.493651
0.958734	0.493651
0.975653	0.495238
0.994451	0.495238
