Adsorption isotherm of Hydrogen on Model MOF
DOI: 10.1063/1.3668138
Adsorbate Hydrogen: InChIKey UFHFLCQGNIYNRP-UHFFFAOYSA-N
Temperature: 77 K
Tabular data in the source: 0
pressure (bar)	uptake (wt%)
0.00563961	0.339683
0.00751948	0.304762
0.015039	0.374603
0.0263182	0.395238
0.0751948	0.431746
0.0902338	0.442857
0.125951	0.457143
0.161669	0.468254
0.206786	0.473016
0.238744	0.477778
0.272581	0.480952
0.28762	0.48254
0.306419	0.48254
0.325218	0.485714
0.344016	0.485714
0.360935	0.487302
0.379734	0.488889
0.398532	0.490476
0.417331	0.492063
0.43425	0.493651
0.453049	0.493651
0.471847	0.493651
0.490646	0.495238
0.509445	0.495238
0.526364	0.496825
0.545162	0.496825
0.563961	0.496825
0.58276	0.498413
0.601558	0.498413
0.620357	0.5
0.639156	0.5
0.657955	0.5
0.676753	0.5
0.695552	0.5
0.714351	0.5
0.733149	0.5
0.751948	0.5
0.770747	0.5
0.789545	0.5
0.808344	0.5
0.827143	0.5
0.845942	0.5
0.86474	0.5
0.883539	0.5
0.902338	0.5
0.921136	0.5
0.939935	0.5
0.958734	0.5
0.977532	0.5
0.996331	0.5
1.00949	0.5
