Adsorption isotherm of Hydrogen on Model MOF
DOI: 10.1063/1.3668138
Adsorbate Hydrogen: InChIKey UFHFLCQGNIYNRP-UHFFFAOYSA-N
Temperature: 87 K
Tabular data in the source: 0
pressure (bar)	uptake (wt%)
0.00563961	0.210088
0.0112792	0.241928
0.0244383	0.278553
0.0357175	0.305626
0.0526364	0.331117
0.0714351	0.348653
0.0921136	0.363009
0.124071	0.377383
0.165429	0.391772
0.225584	0.409373
0.280101	0.417416
0.325218	0.42067
0.387253	0.428725
0.43237	0.430387
0.481247	0.433647
0.522604	0.436895
0.569601	0.440152
0.622237	0.443418
0.674873	0.448275
0.72187	0.451532
0.770747	0.454792
0.827143	0.458063
0.883539	0.462926
0.928656	0.464589
0.975653	0.467845
1.01325	0.469496
