Adsorption isotherm of Hydrogen on Model MOF
DOI: 10.1063/1.3668138
Adsorbate Hydrogen: InChIKey UFHFLCQGNIYNRP-UHFFFAOYSA-N
Temperature: 87 K
Tabular data in the source: 0
pressure (bar)	uptake (wt%)
0.00563961	0.187807
0.00939935	0.230784
0.0225584	0.265818
0.0338377	0.296074
0.0545162	0.312022
0.0733149	0.335924
0.0958734	0.351875
0.127831	0.369432
0.167308	0.387
0.206786	0.402977
0.253782	0.417375
0.308299	0.428601
0.353416	0.438221
0.402292	0.447847
0.43801	0.452677
0.479367	0.454334
0.533883	0.459194
0.597799	0.462477
0.650435	0.467335
0.703071	0.4706
0.768867	0.475478
0.860981	0.475623
0.907977	0.477288
0.977532	0.475806
1.00761	0.477445
