Adsorption isotherm of Hydrogen on Model MOF
DOI: 10.1063/1.3668138
Adsorbate Hydrogen: InChIKey UFHFLCQGNIYNRP-UHFFFAOYSA-N
Temperature: 87 K
Tabular data in the source: 0
pressure (bar)	uptake (wt%)
0.00751948	0.227598
0.00939935	0.284895
0.0244383	0.316749
0.0488766	0.348618
0.0883539	0.390059
0.125951	0.409216
0.163549	0.426782
0.197386	0.439567
0.253782	0.452388
0.302659	0.458831
0.357175	0.463691
0.419211	0.470154
0.468088	0.470231
0.528244	0.470326
0.567721	0.471979
0.627877	0.475257
0.674873	0.473739
0.736909	0.472245
0.804584	0.477126
0.851581	0.4772
0.894818	0.475676
0.932416	0.475735
0.975653	0.477395
1.00573	0.477442
