Adsorption isotherm of Hydrogen on Model MOF
DOI: 10.1063/1.3668138
Adsorbate Hydrogen: InChIKey UFHFLCQGNIYNRP-UHFFFAOYSA-N
Temperature: 77 K
Tabular data in the source: 0
pressure (bar)	uptake (wt%)
0.00375974	0.284127
0.0112792	0.322222
0.015039	0.338095
0.0187987	0.353968
0.0394773	0.4
0.058276	0.407937
0.0827143	0.428571
0.0996331	0.450794
0.201146	0.484127
0.304539	0.504762
0.406052	0.512698
0.607198	0.519048
0.810224	0.536508
1.00949	0.539683
