Adsorption isotherm of Hydrogen on Model MOF
DOI: 10.1063/1.3668138
Adsorbate Hydrogen: InChIKey UFHFLCQGNIYNRP-UHFFFAOYSA-N
Temperature: 77 K
Tabular data in the source: 0
pressure (bar)	uptake (wt%)
0.00563961	0.295238
0.0244383	0.371429
0.0469968	0.401587
0.0789545	0.425397
0.110912	0.449206
0.135351	0.460317
0.163549	0.473016
0.191747	0.484127
0.221825	0.492063
0.248143	0.501587
0.278221	0.507937
0.327097	0.514286
0.364695	0.520635
0.402292	0.525397
0.453049	0.528571
0.505685	0.528571
0.567721	0.533333
0.616597	0.534921
0.686153	0.536508
0.746308	0.538095
0.789545	0.538095
0.840302	0.539683
0.881659	0.538095
0.919256	0.538095
0.962494	0.538095
1.00949	0.539683
