Adsorption isotherm of Oxygen on PCN-200
DOI: 10.1039/C3cc45866k
Adsorbate Oxygen: InChIKey MYMOFIZGZYHOMD-UHFFFAOYSA-N
Temperature: 195 K
Tabular data in the source: 0
pressure (bar)	uptake (cm3(STP)/g)
0.00709538	0.36205
0.0529378	1.90923
0.1026	3.57102
0.154173	5.34741
0.200971	6.75133
0.260184	8.18391
0.321307	9.44457
0.401531	10.7339
0.455969	11.708
0.548609	12.8541
0.626923	13.685
0.689956	14.2294
0.744394	14.7451
0.801697	14.917
0.85136	15.1462
0.906752	15.2895
