Adsorption isotherm of Hydrogen on PCN-200
DOI: 10.1039/C3cc45866k
Adsorbate Hydrogen: InChIKey UFHFLCQGNIYNRP-UHFFFAOYSA-N
Temperature: 77 K
Tabular data in the source: 0
pressure (bar)	uptake (cm3(STP)/g)
0.0117765	0.266323
0.014212	3.39181
0.0215185	5.74963
0.0653575	8.49128
0.126245	9.58794
0.223665	10.7394
0.340569	11.7264
0.462344	12.6038
0.567071	13.3714
0.778959	14.5229
0.944573	15.3454
1.05417	15.6744
