Adsorption isotherm of Nitrogen on PCN-200
DOI: 10.1039/C3cc45866k
Adsorbate Nitrogen: InChIKey IJGRMHOSHXDMSA-UHFFFAOYSA-N
Temperature: 296 K
Tabular data in the source: 0
pressure (bar)	uptake (cm3(STP)/g)
0.00833677	0.0119913
0.10028	0.154261
0.219712	0.0475587
0.308812	-0.0947108
0.415921	-0.254764
0.517343	-0.57487
0.614026	-0.930544
0.695543	-1.39292
0.773268	-1.80194
0.884169	-2.42437
0.971373	-3.02902
1.06995	-3.88264
