Adsorption isotherm of Carbon Dioxide on PCN-200
DOI: 10.1039/C3cc45866k
Adsorbate Carbon Dioxide: InChIKey CURLTUGMZLYLDI-UHFFFAOYSA-N
Temperature: 195 K
Tabular data in the source: 0
pressure (bar)	uptake (cm3(STP)/g)
0.00446995	-0.0130706
0.00446995	12.0502
0.00446995	27.2207
0.00690545	20.1838
0.00934095	31.8815
0.0166475	33.8006
0.028825	35.2629
0.0556155	36.5423
0.092148	37.639
0.17252	38.4614
0.274811	38.827
0.372231	38.9184
0.486699	39.2839
0.579248	39.4667
0.696152	39.4667
0.825234	39.6495
0.949444	39.9237
1.0152	39.9237
