Adsorption isotherm of Nitrogen on PCN-200
DOI: 10.1039/C3cc45866k
Adsorbate Nitrogen: InChIKey IJGRMHOSHXDMSA-UHFFFAOYSA-N
Temperature: 195 K
Tabular data in the source: 0
pressure (bar)	uptake (cm3(STP)/g)
0.0130761	0.154261
0.0443559	0.918959
0.0756356	1.61252
0.102176	2.23495
0.130612	2.76846
0.179901	3.74657
0.232034	4.65353
0.285115	5.47158
0.361893	6.64531
0.418765	7.41001
0.523978	8.63708
0.599808	9.40178
0.681325	10.0598
0.759998	10.6289
0.842463	11.1801
0.91071	11.5003
0.972321	11.7848
1.0491	11.9804
