Adsorption isotherm of Hydrogen on PCN-200
DOI: 10.1039/C3cc45866k
Adsorbate Hydrogen: InChIKey UFHFLCQGNIYNRP-UHFFFAOYSA-N
Temperature: 296 K
Tabular data in the source: 0
pressure (bar)	uptake (cm3(STP)/g)
0.00446995	0.156657
0.184697	0.266323
0.372231	0.321156
0.620652	0.375989
0.796008	0.485655
0.922654	0.485655
1.03469	0.540488
1.08827	0.540488
