Adsorption isotherm of Oxygen on PCN-200
DOI: 10.1039/C3cc45866k
Adsorbate Oxygen: InChIKey MYMOFIZGZYHOMD-UHFFFAOYSA-N
Temperature: 77 K
Tabular data in the source: 0
pressure (bar)	uptake (cm3(STP)/g)
0.00423023	0.648565
0.00423023	3.2845
0.00614033	4.83168
0.00996053	6.03505
0.0233312	6.69403
0.056758	7.43897
0.0987802	8.15526
0.160858	8.84289
0.205746	9.27267
0.244903	9.81704
0.301251	10.2755
0.339453	10.6766
0.415857	11.1923
0.519002	12.1665
0.595406	12.9114
0.650799	13.3698
0.733888	14.0861
0.807427	14.8884
0.865685	15.7193
0.915348	16.808
0.94973	17.8395
