Adsorption isotherm of Carbon Dioxide on PCN-200
DOI: 10.1039/C3cc45866k
Adsorbate Carbon Dioxide: InChIKey CURLTUGMZLYLDI-UHFFFAOYSA-N
Temperature: 296 K
Tabular data in the source: 0
pressure (bar)	uptake (cm3(STP)/g)
0.0117765	1.44914
0.067793	8.66883
0.131116	13.421
0.216359	17.4421
0.369795	21.2804
0.472086	23.1996
0.584119	24.7532
0.696152	26.124
0.810621	27.3121
0.912912	28.0432
1.02251	28.8657
1.07122	29.1398
