Adsorption isotherm of Hydrogen on PCN-200
DOI: 10.1039/C3cc45866k
Adsorbate Hydrogen: InChIKey UFHFLCQGNIYNRP-UHFFFAOYSA-N
Temperature: 195 K
Tabular data in the source: 0
pressure (bar)	uptake (cm3(STP)/g)
0.0117765	0.156657
0.209052	0.430822
0.418505	0.595321
0.662055	0.75982
0.925089	0.924319
1.01277	0.979152
1.07365	0.979152
