Adsorption isotherm of Carbon Dioxide on PCN-200
DOI: 10.1039/C3cc45866k
Adsorbate Carbon Dioxide: InChIKey CURLTUGMZLYLDI-UHFFFAOYSA-N
Temperature: 273 K
Tabular data in the source: 0
pressure (bar)	uptake (cm3(STP)/g)
0.0117765	3.45969
0.0117765	7.11522
0.0361315	14.7005
0.082406	20.5493
0.1506	25.2101
0.267504	28.5001
0.386844	30.6934
0.496441	31.8815
0.65962	32.9781
0.822798	34.0748
0.954315	34.8059
1.05417	35.2629
