Adsorption isotherm of Carbon Dioxide on PCN-200
DOI: 10.1039/C3cc45866k
Adsorbate Carbon Dioxide: InChIKey CURLTUGMZLYLDI-UHFFFAOYSA-N
Temperature: 283 K
Tabular data in the source: 0
pressure (bar)	uptake (cm3(STP)/g)
0.00934095	2.45442
0.0410025	10.588
0.092148	16.6196
0.135987	20.3665
0.226101	23.8393
0.328392	26.0326
0.435554	27.769
0.579248	29.5054
0.725378	30.7848
0.839847	31.5159
0.95188	32.247
1.03712	32.704
1.05904	32.7954
