Adsorption isotherm of Hydrogen on PCN-200
DOI: 10.1039/C3cc45866k
Adsorbate Hydrogen: InChIKey UFHFLCQGNIYNRP-UHFFFAOYSA-N
Temperature: 87 K
Tabular data in the source: 0
pressure (bar)	uptake (cm3(STP)/g)
0.00934095	4.10464
0.0117765	0.321156
0.014212	6.68179
0.0750995	9.36861
0.170084	11.7264
0.289424	13.7553
0.440425	15.7841
0.608474	17.6484
0.752169	18.9096
0.871508	19.8966
1.02251	21.1029
