Adsorption isotherm of Argon on PCN-200
DOI: 10.1039/C3cc45866k
Adsorbate Argon: InChIKey XKRFYHLGVUSROY-UHFFFAOYSA-N
Temperature: 195 K
Tabular data in the source: 0
pressure (bar)	uptake (cm3(STP)/g)
0.0110473	0.496101
0.107005	2.68942
0.202963	4.69997
0.292067	6.29926
0.374316	7.80717
0.451996	8.90383
0.5411	10.0462
0.62335	11.0058
0.726162	12.0567
0.835828	12.8335
0.93407	13.4733
