Adsorption isotherm of Oxygen on PCN-200
DOI: 10.1039/C3cc45866k
Adsorbate Oxygen: InChIKey MYMOFIZGZYHOMD-UHFFFAOYSA-N
Temperature: 296 K
Tabular data in the source: 0
pressure (bar)	uptake (cm3(STP)/g)
0.00996053	0.0468831
0.175184	0.104186
0.272599	0.0755346
0.334678	0.0182316
0.409171	-0.153677
0.457879	-0.382889
0.67181	-1.47165
0.76636	-2.10198
0.848494	-2.67501
0.923943	-3.36265
0.96501	-3.79242
