Adsorption isotherm of Nitrogen on PCN-200
DOI: 10.1039/C3cc45866k
Adsorbate Nitrogen: InChIKey IJGRMHOSHXDMSA-UHFFFAOYSA-N
Temperature: 87 K
Tabular data in the source: 0
pressure (bar)	uptake (cm3(STP)/g)
0.00359742	2.00376
0.00359742	3.94219
0.0149719	5.11591
0.0320335	5.57829
0.0557303	5.79169
0.0974366	6.05845
0.143882	6.30742
0.191276	6.48525
0.240565	6.62752
0.293646	6.69866
0.343883	6.75201
0.40739	6.76979
0.460471	6.71644
0.511656	6.59196
0.563789	6.50304
0.620661	6.37855
0.67469	6.18293
0.726823	6.02288
0.778956	5.77391
0.832984	5.63164
0.913553	5.18704
0.966634	4.88472
1.01971	4.67132
1.06806	4.38678
