Adsorption isotherm of Argon on PCN-200
DOI: 10.1039/C3cc45866k
Adsorbate Argon: InChIKey XKRFYHLGVUSROY-UHFFFAOYSA-N
Temperature: 87 K
Tabular data in the source: 0
pressure (bar)	uptake (cm3(STP)/g)
0.0041932	3.23775
0.0041932	4.79136
0.00647791	0.861655
0.0270403	5.93371
0.0544568	6.89329
0.0864428	7.76148
0.150415	8.62967
0.205248	9.26939
0.271504	10.0462
0.378886	10.9144
0.438288	11.5541
0.515968	12.3309
0.570801	12.8335
0.62335	13.3362
0.687321	14.0216
0.73987	14.7527
0.815265	16.1692
0.85639	17.2659
0.8998	18.5453
0.945494	20.8757
