Adsorption isotherm of Oxygen on PCN-200
DOI: 10.1039/C3cc45866k
Adsorbate Oxygen: InChIKey MYMOFIZGZYHOMD-UHFFFAOYSA-N
Temperature: 87 K
Tabular data in the source: 0
pressure (bar)	uptake (cm3(STP)/g)
0.00518528	0.963731
0.00614033	4.40191
0.0128257	7.32436
0.0290615	8.35582
0.056758	8.92885
0.122656	9.67379
0.214341	10.6766
0.319397	11.708
0.396756	12.4816
0.500856	13.7136
0.586811	14.9457
0.658439	16.2063
0.728158	17.7535
0.802652	19.7305
0.85327	21.1917
0.903887	23.4552
0.928719	25.0883
0.950685	27.0652
