Adsorption isotherm of Carbon Dioxide on PCN-200
DOI: 10.1039/C3cc45866k
Adsorbate Carbon Dioxide: InChIKey CURLTUGMZLYLDI-UHFFFAOYSA-N
Temperature: 313 K
Tabular data in the source: 0
pressure (bar)	uptake (mmol/g)
0.0105151	0.0270244
0.0406733	0.142174
0.0680898	0.221682
0.11744	0.328606
0.177756	0.438272
0.235331	0.536972
0.303872	0.619221
0.421763	0.720662
0.556104	0.827587
0.690445	0.901611
0.808336	0.961928
0.909777	1.00579
1.01944	1.04692
1.08524	1.06611
