Adsorption isotherm of Nitrogen on PCN-200
DOI: 10.1039/C3cc45866k
Adsorbate Nitrogen: InChIKey IJGRMHOSHXDMSA-UHFFFAOYSA-N
Temperature: 77 K
Tabular data in the source: 0
pressure (bar)	uptake (cm3(STP)/g)
0.00170168	0.189828
0.00170168	3.07079
0.00264955	2.05712
0.00833677	4.04889
0.0149719	4.86694
0.021607	5.31153
0.0339293	6.14736
0.0538346	6.68087
0.0794271	7.05433
0.126821	7.41001
0.173266	7.60563
0.234878	7.83681
0.303125	8.10357
0.369475	8.33476
0.437722	8.63708
0.519239	8.97497
0.611183	9.27729
0.669003	9.52627
0.731562	9.8108
0.772321	10.0953
0.817818	10.4332
0.858577	11.0557
0.894596	11.7137
0.91924	12.4961
0.958103	13.741
