Adsorption isotherm of Water on MIL-47(V)
DOI: 10.1021/Jp202147m
Adsorbate Water: InChIKey XLYOFNOQVPJJNP-UHFFFAOYSA-N
Temperature: 300 K
Tabular data in the source: 0
pressure (bar)	uptake (molecules/unitcell)
0.000474733	0.122587
0.00189581	0.242832
0.00402742	6.6732
0.00524236	15.4573
0.00722094	22.2594
0.00943063	22.3776
0.0102208	22.4995
0.0125882	22.6174
0.0144825	22.7364
0.0165344	22.8551
0.0185864	22.9738
0.0200028	22.7228
0.0226872	22.9636
0.0242645	22.9597
0.0266319	23.0776
0.0286792	22.8251
0.0305734	22.9441
0.0323115	23.1873
0.0343604	23.0585
0.0367247	22.9289
0.0386205	23.1717
0.0401977	23.1678
0.042562	23.0382
0.045401	23.0312
0.0507652	23.1417
