Adsorption isotherm of Water on MIL-53(Cr)
DOI: 10.1021/Jp202147m
Adsorbate Water: InChIKey XLYOFNOQVPJJNP-UHFFFAOYSA-N
Temperature: 300 K
Tabular data in the source: 0
pressure (bar)	uptake (molecules/unitcell)
0.00302013	0.207469
0.00486577	0.207469
0.00721477	1.76349
0.0102349	6.53527
0.0112416	8.19502
0.0120805	9.43983
0.0127517	11.5145
0.0134228	13.0705
0.0142617	14.9378
0.0147651	16.2863
0.015604	18.0498
0.0162752	19.0871
0.017953	20.4357
0.0199664	20.9544
0.0219799	21.0581
0.0241611	21.1618
0.0261745	21.2656
0.0281879	21.473
0.0302013	21.2656
0.0318792	21.473
0.0340604	21.0581
0.0362416	21.2656
0.038255	21.5768
0.0404362	21.5768
0.0422819	21.6805
0.0451342	21.6805
0.05	21.5768
