Adsorption isotherm of Water on MIL-53(Cr)
DOI: 10.1021/Jp202147m
Adsorbate Water: InChIKey XLYOFNOQVPJJNP-UHFFFAOYSA-N
Temperature: 300 K
Tabular data in the source: 0
pressure (bar)	uptake (molecules/unitcell)
0.000239521	0.168271
0.000958084	0.251143
0.00502994	1.67715
0.00586826	2.85682
0.00706587	4.12011
0.00754491	4.28788
0.0100599	4.70452
0.0120958	4.53144
0.02	5.18987
0.0249102	5.85462
0.0299401	6.6035
