Adsorption isotherm of Water on MIL-47(V)
DOI: 10.1021/Jp202147m
Adsorbate Water: InChIKey XLYOFNOQVPJJNP-UHFFFAOYSA-N
Temperature: 300 K
Tabular data in the source: 0
pressure (bar)	uptake (molecules/unitcell)
0.00742083	0.600444
0.00919014	3.31884
0.0101583	5.04911
0.0122462	8.01424
0.0143357	11.1031
0.0164735	18.0285
0.0182304	19.7569
0.020298	21.1131
0.0223546	21.6031
0.0244081	21.8455
0.0264679	22.583
0.0285183	22.5779
0.0305687	22.5728
0.0326192	22.5678
0.0343557	22.6872
0.0365607	22.4343
0.0384581	22.8008
0.0405053	22.5483
0.0428712	22.5424
0.0453963	22.6599
0.0504419	22.5237
