Adsorption isotherm of Water on MIL-53(Cr)
DOI: 10.1021/Jp202147m
Adsorbate Water: InChIKey XLYOFNOQVPJJNP-UHFFFAOYSA-N
Temperature: 300 K
Tabular data in the source: 0
pressure (bar)	uptake (molecules/unitcell)
0.000671141	0.414938
0.0011745	1.86722
0.00218121	3.0083
0.00402685	4.46058
0.00520134	4.87552
0.00704698	5.08299
0.00922819	5.18672
0.0100671	5.18672
0.0122483	5.29046
0.014094	5.29046
0.0161074	5.29046
0.0182886	5.29046
0.0201342	5.39419
0.0218121	5.39419
0.0239933	5.39419
0.0261745	5.39419
0.0281879	5.39419
0.0302013	5.39419
0.032047	5.39419
0.0342282	5.49793
0.0360738	5.60166
0.038255	5.60166
0.0402685	5.60166
0.0422819	5.60166
0.0449664	5.60166
0.0503356	5.60166
