Adsorption isotherm of Water on MIL-47(V)
DOI: 10.1021/Jp202147m
Adsorbate Water: InChIKey XLYOFNOQVPJJNP-UHFFFAOYSA-N
Temperature: 300 K
Tabular data in the source: 0
pressure (bar)	uptake (molecules/unitcell)
0.00914286	0.0985222
0.0141429	0.0985222
0.0161429	1.28079
0.0181429	2.56158
0.0201429	3.74384
0.0221429	4.72906
0.0241429	6.89655
0.0261429	10.936
0.0281429	13.202
0.0301429	16.2562
0.0321429	18.4236
0.0344286	18.8177
0.0361429	20.4926
0.0385714	21.4778
0.0401429	20.8867
0.0421429	21.6749
0.0451429	21.1823
0.05	21.8719
