Adsorption isotherm of Water on MIL-47(V)
DOI: 10.1021/Jp202147m
Adsorbate Water: InChIKey XLYOFNOQVPJJNP-UHFFFAOYSA-N
Temperature: 300 K
Tabular data in the source: 0
pressure (bar)	uptake (molecules/unitcell)
0.004891	0.111656
0.0141983	0.212381
0.0220845	0.19286
0.0283965	0.424761
0.0288728	0.671107
0.0295178	1.78337
0.0295303	2.77344
0.0297083	4.38191
0.0297317	6.23829
0.029752	7.84715
0.0298738	5.00031
0.03008	8.83644
0.0302455	9.45484
