Adsorption isotherm of Water on MIL-47(V)
DOI: 10.1021/Jp202147m
Adsorbate Water: InChIKey XLYOFNOQVPJJNP-UHFFFAOYSA-N
Temperature: 300 K
Tabular data in the source: 0
pressure (bar)	uptake (molecules/unitcell)
0.0119886	0.0940877
0.0140421	0.336529
0.0161159	2.18783
0.0180133	2.55442
0.0200653	2.67311
0.0223	4.77153
0.0240599	6.74738
0.0260041	10.8267
0.0282404	13.0489
0.0301752	16.3857
0.0322522	18.4845
0.0343073	18.8507
0.036378	20.4545
0.0384362	21.0682
0.0404835	20.8156
0.0423871	21.6773
0.045376	21.051
0.0505887	21.657
