Adsorption isotherm of Water on MIL-53(Cr)
DOI: 10.1021/Jp202147m
Adsorbate Water: InChIKey XLYOFNOQVPJJNP-UHFFFAOYSA-N
Temperature: 300 K
Tabular data in the source: 0
pressure (bar)	uptake (molecules/unitcell)
0.00033557	0.207469
0.00201342	0.414938
0.0033557	0.829876
0.00385906	1.76349
0.0045302	2.80083
0.00553691	3.63071
0.00704698	3.94191
0.00872483	4.04564
0.0104027	4.14938
0.0119128	4.35685
0.0134228	4.46058
0.0149329	4.46058
0.016443	4.77178
0.0181208	4.87552
0.0196309	5.08299
0.0211409	5.49793
0.0216443	5.18672
0.0233221	5.29046
0.0248322	5.60166
0.0265101	5.80913
0.0280201	6.12033
0.029698	6.53527
0.0307047	7.26141
0.0312081	14.4191
0.0315436	11.2033
0.0317114	24.6888
0.0318792	18.5685
