Adsorption isotherm of Water on MIL-47(V)
DOI: 10.1021/Jp202147m
Adsorbate Water: InChIKey XLYOFNOQVPJJNP-UHFFFAOYSA-N
Temperature: 300 K
Tabular data in the source: 0
pressure (bar)	uptake (molecules/unitcell)
0.0091511	0.224874
0.0123181	1.20713
0.014053	1.20284
0.0161628	5.90059
0.0180836	8.12356
0.0202292	15.6677
0.0223234	19.1279
0.0242176	19.247
0.0262696	19.3657
0.0286401	19.7311
0.0305453	20.7165
0.0324364	20.588
0.0346555	21.4489
0.036709	21.6913
0.0405022	22.3007
0.0455431	21.7932
0.0504419	22.5237
