Adsorption isotherm of Nitrogen on HFCP-9
DOI: 10.1016/j.ces.2016.05.021
Article source: Figure  4e
Adsorbate Nitrogen: InChIKey IJGRMHOSHXDMSA-UHFFFAOYSA-N
Kind: experiment
Temperature: 77 K
Tabular data in the source: 0
pressure (bar)	uptake (cm3(STP)/g)
0.005127	9.799
0.00538	10.637
0.010001	14.218
0.015624	15.263
0.022231	16.032
0.029992	16.717
0.039578	17.622
0.047754	18.556
0.056266	19.241
0.066763	19.953
0.076835	20.499
0.086258	20.936
0.096249	21.4
0.106077	21.34
0.122846	22.021
0.140447	22.647
0.157874	23.494
0.174978	24.478
0.188941	24.72
0.193733	24.773
0.209915	25.537
0.219176	27.269
0.227019	26.273
0.244041	26.734
0.250151	29.791
0.262624	27.607
0.278735	28.537
0.281542	32.56
0.296082	29.108
0.310125	35.248
0.330279	30.636
0.339459	37.853
0.364152	32.66
0.367455	40.541
0.396292	43.422
0.399008	33.801
0.425119	46.165
0.43206	35.605
0.453703	49.266
0.466257	37.353
0.481962	52.12
0.499461	39.157
0.510465	55.387
0.533	41.429
0.538299	58.378
0.565556	43.895
0.56664	61.976
0.594484	65.96
0.597858	47.133
0.621994	70.523
0.630485	50.232
0.64925	74.975
0.66303	53.911
0.674946	81.193
0.693276	58.307
0.699983	88.32
0.723511	95.845
0.723744	97.196
0.74486	108.649
0.753625	70.317
0.763099	123.386
0.77924	140.268
0.781033	77.961
0.794986	159.031
0.80753	87.793
0.809688	177.838
0.825566	196.077
0.830743	100.646
0.850613	203.022
0.852528	115.994
0.872601	133.136
0.878944	205.765
0.888874	154.918
0.903444	177.62
0.908581	208.114
0.918146	200.278
0.937824	210.639
0.945686	210.897
0.967198	213.294
0.977817	213.858
0.994474	215.557
0.997099	215.84
