Adsorption isotherm of Nitrogen on Soild zirconia nanoparticle
DOI: 10.1016/j.ces.2016.05.021
Article source: Figure  4b
Adsorbate Nitrogen: InChIKey IJGRMHOSHXDMSA-UHFFFAOYSA-N
Kind: experiment
Temperature: 77 K
Tabular data in the source: 0
pressure (bar)	uptake (cm3(STP)/g)
0.005239	1.049
0.005796	1.029
0.01373	11.814
0.021136	12.304
0.029719	12.581
0.039385	13.038
0.048312	13.053
0.055881	13.265
0.065638	13.591
0.074808	13.803
0.084231	14.113
0.093148	14.079
0.098863	14.16
0.106442	14.421
0.122674	14.681
0.140761	14.843
0.159192	15.087
0.174249	15.886
0.182405	15.968
0.192588	16.179
0.209996	16.782
0.228083	17.271
0.241711	17.532
0.246422	17.858
0.261641	18.821
0.271571	18.755
0.280822	19.342
0.296305	20.06
0.330715	21.126
0.331799	21.185
0.359734	21.428
0.366371	22.31
0.389088	22.733
0.400609	23.402
0.418786	23.956
0.434846	24.821
0.448809	25.473
0.46875	26.321
0.477828	27.007
0.504072	27.92
0.536719	28.522
0.537296	28.572
0.565647	30.464
0.571706	31.543
0.604596	33.278
0.605427	33.386
0.638905	35.574
0.644032	36.652
0.672879	37.875
0.68365	39.034
0.707704	40.274
0.723349	41.646
0.739824	42.919
0.763372	45.156
0.772786	46.479
0.803396	66.25
0.80676	50.48
0.838626	54.841
0.844169	87.785
0.870402	59.561
0.884354	107.801
0.902846	65.49
0.921551	122.783
0.933507	74.541
0.959183	133.974
0.960591	91.731
0.974797	109.885
0.98569	134.07
0.985771	134.253
