Adsorption isotherm of Nitrogen on HFCP-13
DOI: 10.1016/j.ces.2016.05.021
Article source: Figure  4f
Adsorbate Nitrogen: InChIKey IJGRMHOSHXDMSA-UHFFFAOYSA-N
Kind: experiment
Temperature: 77 K
Tabular data in the source: 0
pressure (bar)	uptake (cm3(STP)/g)
0.00461	1.468
0.004712	1.597
0.009322	13.067
0.015432	14.47
0.02295	15.929
0.030975	16.532
0.041057	17.355
0.047998	18.014
0.057998	18.119
0.067087	19.025
0.073856	19.298
0.082539	19.543
0.092864	20.531
0.102622	20.527
0.121134	21.263
0.137579	21.808
0.155514	22.682
0.173853	23.391
0.182122	23.47
0.190633	23.935
0.207412	24.976
0.211871	26.242
0.224192	25.465
0.240637	25.899
0.24245	28.545
0.257578	27.105
0.274013	31.262
0.27757	27.703
0.292039	28.882
0.302526	33.51
0.310055	29.233
0.330867	36.311
0.344596	30.817
0.360038	38.863
0.377821	32.237
0.38847	41.029
0.412028	33.821
0.416648	43.967
0.445485	35.927
0.445749	36.013
0.474738	49.291
0.479054	37.735
0.502754	52.395
0.511782	39.927
0.530517	55.472
0.545412	42.008
0.558037	58.989
0.577471	45.11
0.585304	62.645
0.609541	48.461
0.612986	66.769
0.639178	71.556
0.64086	51.921
0.665118	77.308
0.672008	55.575
0.689993	84.026
0.701757	60.967
0.712376	92.84
0.731009	66.552
0.733938	103.254
0.752348	116.4
0.759431	73.848
0.769401	131.264
0.784205	148.329
0.785613	81.971
0.800184	164.475
0.810651	92.638
0.819983	175.628
0.833327	105.016
0.846479	180.957
0.853906	120.284
0.872641	135.946
0.874414	183.703
0.889542	155.112
0.902887	186.842
0.906048	172.614
0.928958	189.835
0.930356	190.114
0.958859	193.907
0.959193	193.874
0.987696	196.101
0.989104	196.441
