Adsorption isotherm of Nitrogen on HFSZ-13
DOI: 10.1016/j.ces.2016.05.021
Article source: Figure  4c
Adsorbate Nitrogen: InChIKey IJGRMHOSHXDMSA-UHFFFAOYSA-N
Kind: experiment
Temperature: 77 K
Tabular data in the source: 0
pressure (bar)	uptake (cm3(STP)/g)
0.004458	0.521
0.008005	2.68
0.016111	3.201
0.02445	3.514
0.032302	3.828
0.041888	4.158
0.050065	4.314
0.056509	4.479
0.066591	4.685
0.076835	4.792
0.08568	5.072
0.097079	5.178
0.106249	5.227
0.124103	5.383
0.141288	5.538
0.158563	5.76
0.17666	5.94
0.188971	6.013
0.194919	6.046
0.212681	6.309
0.21946	7.119
0.229045	6.522
0.247142	6.769
0.251104	8.217
0.264661	7.024
0.281846	7.121
0.283821	9.239
0.300682	7.525
0.313155	10.329
0.334312	7.629
0.34257	11.426
0.36935	8.039
0.37166	12.532
0.40148	13.63
0.404307	8.441
0.430976	14.711
0.43893	8.877
0.460806	15.759
0.474211	9.245
0.489896	16.898
0.508337	9.846
0.519139	17.937
0.543203	10.405
0.548726	19.018
0.57659	11.089
0.578637	20.099
0.607636	21.28
0.611709	11.739
0.637466	22.518
0.645086	12.572
0.666546	23.69
0.679212	13.594
0.695718	25.069
0.712426	14.791
0.724464	26.539
0.745732	16.037
0.754213	28.034
0.778612	17.49
0.782381	29.702
0.811299	19.009
0.811502	19.084
0.839802	34.339
0.844301	20.992
0.865741	38.299
0.875772	23.603
0.890971	43.888
0.907001	27.208
0.913222	51.509
0.934774	59.988
0.934997	59.311
0.958393	66.555
0.96049	42.082
0.979316	56.417
0.986733	68.348
0.987716	68.389
