Adsorption isotherm of Nitrogen on HFCP-17
DOI: 10.1016/j.ces.2016.05.021
Article source: Figure  4g
Adsorbate Nitrogen: InChIKey IJGRMHOSHXDMSA-UHFFFAOYSA-N
Kind: experiment
Temperature: 77 K
Tabular data in the source: 0
pressure (bar)	uptake (cm3(STP)/g)
0.004367	1.714
0.005735	11.641
0.005755	11.735
0.005786	11.809
0.011024	13.086
0.018694	13.205
0.025595	14.306
0.033599	15.16
0.042019	15.696
0.047744	16.062
0.057178	16.132
0.064929	17.06
0.073684	17.719
0.081769	18.059
0.091122	18.374
0.100646	18.566
0.108144	19.103
0.12086	19.662
0.135938	20.097
0.152109	20.851
0.169213	21.457
0.185303	21.647
0.186732	22.43
0.200634	22.523
0.205771	23.6
0.219419	23.227
0.228245	26.214
0.236351	23.686
0.248621	28.755
0.251266	24.268
0.267012	25.856
0.268825	31.174
0.282433	25.874
0.288442	33.52
0.30054	26.627
0.307633	35.768
0.32733	38.726
0.332549	28.012
0.347281	41.292
0.365743	29.2
0.366817	43.613
0.387193	46.155
0.398339	30.462
0.405371	48.967
0.426082	51.533
0.429588	31.823
0.445354	54.173
0.46269	33.551
0.46497	56.69
0.48712	59.304
0.493524	35.328
0.51085	62.334
0.526029	37.325
0.532747	64.434
0.554126	67.171
0.556528	39.128
0.575344	69.516
0.586337	41.42
0.59876	71.86
0.616147	43.958
0.619471	73.862
0.641195	75.962
0.644944	47.036
0.661065	78.455
0.673396	50.113
0.680934	80.849
0.699781	83.98
0.700673	54.025
0.716439	87.895
0.725244	58.526
0.732924	92.399
0.74789	97.345
0.750484	63.418
0.759137	103.518
0.770202	110.377
0.773535	69.538
0.780436	117.482
0.78999	124.832
0.793871	76.295
0.799373	132.722
0.806557	140.857
0.812525	84.181
0.814754	149.09
0.822952	157.568
0.82897	93.294
0.831828	165.017
0.843399	102.848
0.847979	168.737
0.85495	113.629
0.86718	124.459
0.873067	172.845
0.878214	136.123
0.887232	147.738
0.895561	160.727
0.897638	176.758
0.906605	172.097
0.920021	181.651
0.923202	183.905
0.946274	186.299
0.970795	187.025
0.977685	188.444
0.994201	189.638
0.995123	189.704
