Adsorption isotherm of Nitrogen on TZ
DOI: 10.1016/j.ces.2016.05.021
Article source: Figure  4a
Adsorbate Nitrogen: InChIKey IJGRMHOSHXDMSA-UHFFFAOYSA-N
Kind: experiment
Temperature: 77 K
Tabular data in the source: 0
pressure (bar)	uptake (cm3(STP)/g)
0.005046	29.207
0.005046	29.826
0.005218	36.17
0.007549	42.236
0.014267	45.57
0.021917	48.137
0.029901	50.29
0.038483	52.071
0.045961	54.142
0.055465	55.591
0.063034	56.937
0.07187	58.366
0.079439	59.546
0.088518	61.368
0.096684	62.611
0.106523	64.019
0.122421	66.711
0.1384	69.423
0.154885	72.053
0.169861	74.6
0.177005	75.801
0.187775	77.437
0.202245	80.025
0.205436	81.246
0.219399	82.696
0.232774	85.243
0.23555	85.616
0.250941	88.432
0.261287	89.736
0.267853	91.206
0.281896	93.774
0.288786	95.058
0.299729	96.528
0.31739	98.557
0.332701	100.938
0.345235	102.74
0.365348	104.852
0.380293	113.175
0.398663	108.414
0.415422	125.495
0.431817	111.686
0.451889	139.554
0.46421	115.061
0.479987	144.006
0.498114	118.126
0.507912	147.422
0.531602	121.295
0.5361	150.756
0.564421	152.686
0.564704	153.324
0.595001	154.588
0.597736	127.797
0.623787	155.665
0.630556	131.297
0.653921	156.825
0.664044	134.734
0.68287	157.902
0.69593	138.316
0.712244	159.062
0.729581	142.023
0.742378	160.119
0.762055	145.564
0.771326	161.299
0.794368	149.043
0.800863	162.315
0.828018	152.253
0.831331	163.35
0.860705	155.922
0.861506	156.022
0.889907	165.795
0.893646	158.9
0.919707	167.327
0.926546	162.669
0.94823	169.274
0.958514	167.225
0.977259	171.055
0.977685	171.18
