Adsorption isotherm of Nitrogen on HFCP-5
DOI: 10.1016/j.ces.2016.05.021
Article source: Figure  4d
Adsorbate Nitrogen: InChIKey IJGRMHOSHXDMSA-UHFFFAOYSA-N
Kind: experiment
Temperature: 77 K
Tabular data in the source: 0
pressure (bar)	uptake (cm3(STP)/g)
0.004479	14.11
0.004681	1.572
0.005046	1.501
0.009271	16.902
0.018684	18.762
0.026172	19.662
0.034927	20.321
0.04359	20.891
0.050916	21.61
0.05966	22.24
0.067827	22.779
0.077088	23.199
0.085326	24.008
0.095681	24.968
0.103503	24.937
0.110991	25.656
0.124204	25.655
0.13994	26.644
0.157874	27.272
0.17436	28.411
0.189599	28.529
0.190775	28.799
0.205588	29.218
0.212904	31.409
0.223341	30.327
0.233088	35.069
0.241853	31.435
0.25386	38.249
0.257588	31.884
0.273496	33.083
0.274388	41.249
0.291583	33.951
0.2944	44.669
0.307238	35.12
0.314756	47.849
0.333683	50.819
0.341242	36.497
0.353452	54.329
0.373889	38.205
0.37397	38.174
0.393911	60.719
0.406627	39.822
0.412747	64.26
0.43361	67.62
0.43969	41.8
0.4527	70.95
0.471921	44.168
0.472884	74.34
0.491811	77.671
0.503393	46.746
0.516028	81.631
0.535867	48.814
0.53605	48.643
0.559608	88.051
0.566751	52.173
0.580714	90.87
0.597199	55.411
0.602843	94.11
0.623453	96.72
0.627242	58.62
0.644903	99.659
0.656515	62.58
0.665766	101.939
0.684177	106.29
0.685281	67.11
0.703692	110.19
0.712943	72.991
0.719326	116.073
0.735285	122.406
0.739602	78.782
0.749146	130
0.762319	138.255
0.763899	86.195
0.773221	148.131
0.783364	158.157
0.787508	94.178
0.792736	168.814
0.802798	178.991
0.809526	104.083
0.812343	190.909
0.820378	201.776
0.827562	115.94
0.832202	210.632
0.843328	129.569
0.851292	214.562
0.859013	143.377
0.871395	159.288
0.876188	219.123
0.882014	176.55
0.893555	193.421
0.900992	225.004
0.903404	211.584
0.913344	228.936
0.927934	242.054
0.933315	244.245
0.957126	247.004
0.968059	248.324
0.987919	249.553
0.988506	249.595
