Adsorption isotherm of Nitrogen on IRMOF-1
DOI: 10.1016/j.ijhydene.2008.11.048
Adsorbate Nitrogen: InChIKey IJGRMHOSHXDMSA-UHFFFAOYSA-N
Temperature: 77 K
Tabular data in the source: 0
pressure (bar)	uptake (cm3(STP)/g)
0.00596025	117.096
0.0178807	123.529
0.0357615	129.963
0.0715229	132.537
0.0923838	136.397
0.116225	136.397
0.151986	140.257
0.211589	141.544
0.262251	142.831
0.306953	144.118
0.435098	146.691
0.4798	146.691
0.524502	149.265
0.569203	150.551
0.619866	151.838
0.664567	153.125
0.703309	154.412
0.73311	156.985
0.765892	156.985
0.786752	158.272
0.807613	159.559
0.846355	162.132
0.876156	168.566
0.891057	169.853
0.908937	177.574
0.923838	181.434
0.941719	193.015
0.947679	212.316
0.956619	229.044
0.9596	265.074
0.96258	302.39
0.96556	283.088
