Adsorption isotherm of Hydrogen on IRMOF-1
DOI: 10.1016/j.ijhydene.2008.11.048
Adsorbate Hydrogen: InChIKey UFHFLCQGNIYNRP-UHFFFAOYSA-N
Temperature: 77 K
Tabular data in the source: 0
pressure (bar)	uptake (wt%)
0.107047	0.0142857
0.353887	1.6
0.45902	1.75714
0.617196	1.95714
0.93604	2.17143
2.91325	2.67143
4.89487	2.84286
6.8761	3.04286
8.85887	3.12857
10.8943	3.28571
12.8767	3.4
14.9131	3.48571
16.8962	3.54286
18.7714	3.65714
