Adsorption isotherm of Hydrogen on IRMOF-1
DOI: 10.1016/j.ijhydene.2008.11.048
Adsorbate Hydrogen: InChIKey UFHFLCQGNIYNRP-UHFFFAOYSA-N
Temperature: 77 K
Tabular data in the source: 0
pressure (bar)	uptake (wt%)
0.0540541	0.0126695
0.27027	1.30161
0.432432	1.41544
0.594595	1.55453
0.864865	1.79477
2.97297	2.20043
5.13514	2.3787
7.24324	2.58219
9.56757	2.68474
11.7297	2.87564
13.8378	2.99069
15.8919	3.08044
