Adsorption isotherm of Hydrogen on IRMOF-1
DOI: 10.1016/j.ijhydene.2008.11.048
Adsorbate Hydrogen: InChIKey UFHFLCQGNIYNRP-UHFFFAOYSA-N
Temperature: 77 K
Tabular data in the source: 0
pressure (bar)	uptake (wt%)
0.107047	0.0142857
0.304481	1.28571
0.623133	1.51429
0.887974	1.75714
3.13424	2.18571
4.90042	2.42857
6.93604	2.57143
8.86461	2.7
10.9006	2.81429
12.9904	2.91429
14.9188	3.05714
16.9014	3.15714
18.9912	3.25714
