Adsorption isotherm of Nitrogen on IRMOF-1
DOI: 10.1016/j.ijhydene.2008.11.048
Adsorbate Nitrogen: InChIKey IJGRMHOSHXDMSA-UHFFFAOYSA-N
Temperature: 77 K
Tabular data in the source: 0
pressure (bar)	uptake (cm3(STP)/g)
0.00596025	115.809
0.0149006	122.243
0.0357615	128.676
0.0655627	131.25
0.0953639	132.537
0.119205	133.824
0.160927	135.11
0.223509	137.684
0.274171	138.971
0.318873	138.971
0.360595	138.971
0.402317	140.257
0.444038	141.544
0.4798	142.831
0.521521	142.831
0.563243	142.831
0.604965	144.118
0.646687	145.404
0.691388	145.404
0.72417	146.691
0.753971	147.978
0.777812	147.978
0.798673	149.265
0.843375	151.838
0.864236	153.125
0.888077	158.272
0.920858	167.279
0.932778	176.287
0.941719	184.007
0.947679	198.162
0.950659	211.029
0.956619	222.61
0.9596	234.191
