Adsorption isotherm of Hydrogen on IRMOF-1
DOI: 10.1016/j.ijhydene.2008.11.048
Adsorbate Hydrogen: InChIKey UFHFLCQGNIYNRP-UHFFFAOYSA-N
Temperature: 77 K
Tabular data in the source: 0
pressure (bar)	uptake (wt%)
0.107047	0.0142857
0.30429	1.3
0.410188	1.4
0.623324	1.5
0.942934	1.65714
2.76273	1.9
4.90578	2.02857
7.15607	2.15714
9.88836	2.32857
12.1928	2.41429
14.7656	2.48571
17.391	2.62857
