Adsorption isotherm of Hydrogen on IRMOF-1
DOI: 10.1016/j.ijhydene.2008.11.048
Adsorbate Hydrogen: InChIKey UFHFLCQGNIYNRP-UHFFFAOYSA-N
Temperature: 77 K
Tabular data in the source: 0
pressure (bar)	uptake (wt%)
0.107621	0.0127034
0.358088	1.25113
0.463763	1.39018
0.623151	1.54191
0.997198	1.75695
3.03927	2.17521
4.92215	2.4291
6.91441	2.58199
8.90725	2.69696
10.9001	2.81194
13.0009	2.91435
14.8856	3.05453
16.8786	3.15687
18.9793	3.27192
