Adsorption isotherm of Nitrogen on IRMOF-1
DOI: 10.1016/j.ijhydene.2008.11.048
Adsorbate Nitrogen: InChIKey IJGRMHOSHXDMSA-UHFFFAOYSA-N
Temperature: 77 K
Tabular data in the source: 0
pressure (bar)	uptake (cm3(STP)/g)
0.00298012	0.00298012
0.00596025	165.993
0.00894037	211.029
0.0149006	217.463
0.0327813	223.897
0.0625826	230.331
0.0894037	232.904
0.104304	232.904
0.149006	235.478
0.226489	238.051
0.292052	239.338
0.354635	240.625
0.405297	240.625
0.452979	240.625
0.500661	241.912
0.536422	243.199
0.569203	241.912
0.599005	243.199
0.628806	243.199
0.685428	244.485
0.706289	244.485
0.73609	244.485
0.774832	244.485
0.810593	245.772
0.843375	245.772
0.879136	247.059
0.908937	248.346
0.935759	247.059
0.96854	248.346
