Adsorption isotherm of Argon on COF-202
DOI: 10.1021/ja805064f
Article source: Figure 3
Adsorbate Argon: InChIKey XKRFYHLGVUSROY-UHFFFAOYSA-N
Kind: experiment
Temperature: 87 K
Tabular data in the source: 0
pressure (bar)	uptake (cm3(STP)/g)
0.016476	17.3565
0.01699	36.7156
0.01699	57.4099
0.01699	80.7744
0.018535	112.15
0.019565	157.543
0.020595	205.607
0.021624	260.347
0.022139	345.127
0.023169	422.563
0.024199	471.963
0.025228	502.003
0.026773	534.713
0.029862	575.434
0.032951	604.139
0.03707	622.83
0.044278	656.208
0.054061	687.583
0.063843	709.613
0.0762	728.304
0.084952	738.318
0.094735	748.999
0.105547	757.677
0.118933	768.358
0.170934	796.395
0.219846	813.752
0.266184	827.103
0.319215	837.784
0.371731	847.797
0.423217	858.478
0.475218	867.824
0.529794	875.167
0.571498	880.507
0.632252	887.183
0.672926	893.858
0.723382	899.867
0.772809	905.207
0.82481	908.545
0.874752	915.888
0.925208	915.888
0.975665	925.234
1.02149	931.242
0.026773	528.705
0.069506	724.967
0.119963	774.366
0.214698	817.757
0.321789	845.127
0.371216	855.808
0.420128	863.818
0.493753	875.167
0.625558	892.523
0.725957	904.539
0.82481	913.885
0.925723	923.231
