Adsorption isotherm of Argon on COF-202
DOI: 10.1021/ja805064f
Article source: Figure S19
Adsorbate Argon: InChIKey XKRFYHLGVUSROY-UHFFFAOYSA-N
Kind: experiment
Temperature: 87 K
Tabular data in the source: 0
pressure (bar)	uptake (cm3(STP)/g)
0.000616	3.46921
0.000616	24.2845
0.000616	41.6305
0.001231	70.2515
0.003693	94.536
0	100.607
0.006156	137.901
0.000616	145.707
0.007387	188.205
0.001847	195.143
0.004925	245.447
0.008003	327.84
0.003078	333.044
0.010465	402.428
0.004925	409.367
0.009849	452.732
0.00554	459.67
0.011696	483.088
0.006771	489.159
0.012927	508.239
0.008003	517.78
0.016621	553.339
0.01108	560.278
0.02093	583.695
0.014774	589.766
0.022777	606.245
0.018467	613.183
0.030164	635.733
0.025239	643.539
0.041244	666.088
0.035088	674.761
0.050478	687.771
0.045553	694.709
0.060943	704.25
0.056018	712.923
0.070792	717.259
0.066483	726.8
0.081873	726.8
0.076948	735.473
0.089875	732.871
0.086182	743.278
0.104034	746.748
0.100956	755.421
0.156974	776.236
0.152665	784.042
0.204989	793.582
0.200065	800.52
0.253005	806.591
0.24808	814.397
0.305329	819.601
0.30102	827.407
0.358885	830.876
0.352729	839.549
0.409978	838.682
0.404438	846.487
0.461687	846.487
0.456763	855.16
0.516474	856.028
0.512165	863.833
0.558334	861.232
0.554025	867.303
0.618046	869.037
0.612505	874.241
0.660521	872.507
0.655596	881.18
0.709767	882.914
0.760245	884.649
0.755936	892.454
0.811954	889.853
0.807645	901.995
0.863048	895.924
0.858739	904.597
0.913526	900.26
0.909832	908.933
0.964003	908.066
0.959694	915.004
1.01017	912.402
1.00525	918.474
0.052325	710.321
0.102187	760.624
0.196987	803.99
0.304714	833.478
0.35396	842.151
0.402591	850.824
0.430908	847.355
0.427215	853.426
0.452454	859.497
0.477077	862.099
0.480155	853.426
0.499854	866.435
0.502932	857.762
0.607581	880.312
