Adsorption isotherm of Nitrogen on COF-202
DOI: 10.1021/ja805064f
Article source: Figure S23
Adsorbate Nitrogen: InChIKey IJGRMHOSHXDMSA-UHFFFAOYSA-N
Kind: experiment
Temperature: 77 K
Tabular data in the source: 0
pressure (bar)	uptake (cm3(STP)/g)
0.108011	687.118
0.19995	710.699
0.300889	726.419
0.405043	738.865
0.531056	751.965
0.660927	763.1
0.785012	774.236
0.908453	792.576
0.998463	853.493
0.099653	685.808
0.200593	715.939
0.396042	741.485
0.599206	763.1
0.810729	783.406
0.90331	798.472
