Adsorption isotherm of Nitrogen on MIL-53
DOI: 10.1016/j.micromeso.2013.09.015
Adsorbate Nitrogen: InChIKey IJGRMHOSHXDMSA-UHFFFAOYSA-N
Temperature: 77 K
Tabular data in the source: 0
pressure (bar)	uptake (cm3(STP)/g)
0.00637452	305.027
0.0262667	312.191
0.0632635	317.892
0.0888846	320.732
0.0974318	320.719
0.114526	320.694
0.13161	322.107
0.162939	323.5
0.199967	324.884
0.239844	326.263
0.288267	327.631
0.33954	328.994
0.387975	328.922
0.439248	330.285
0.487671	331.652
0.536126	328.702
0.581691	331.513
0.630145	328.563
0.681408	331.365
0.724154	329.863
0.778276	331.221
0.801078	329.749
0.829559	331.146
0.849502	331.116
0.875154	329.639
0.903634	331.036
0.920718	332.449
0.949199	333.846
0.954897	333.838
0.960564	338.146
