Adsorption isotherm of Nitrogen on MIL-53
DOI: 10.1016/j.micromeso.2013.09.015
Adsorbate Nitrogen: InChIKey IJGRMHOSHXDMSA-UHFFFAOYSA-N
Temperature: 77 K
Tabular data in the source: 0
pressure (bar)	uptake (cm3(STP)/g)
0.00597477	361.151
0.0230279	366.906
0.062894	369.784
0.0771289	371.223
0.0942128	372.662
0.114156	372.662
0.136938	374.101
0.171116	375.54
0.193898	376.978
0.242312	379.856
0.290734	381.295
0.342028	379.856
0.384763	379.856
0.436035	381.295
0.487317	381.295
0.535731	384.173
0.587023	382.734
0.62691	382.734
0.681041	382.734
0.726626	382.734
0.777899	384.173
0.795003	382.734
0.823483	384.173
0.851973	384.173
0.874765	384.173
0.900407	384.173
0.9232	384.173
0.945982	385.612
0.951659	388.489
0.960196	389.928
