Adsorption isotherm of Carbon Dioxide on CuBTC
DOI: 10.1016/j.micromeso.2012.02.034
Adsorbate Carbon Dioxide: InChIKey CURLTUGMZLYLDI-UHFFFAOYSA-N
Temperature: 300 K
Tabular data in the source: 0
pressure (bar)	uptake (mmol/g)
1.10236	1.42085
1.37795	2.03861
1.65354	2.8417
2.48031	3.58301
3.0315	4.32432
3.58268	4.94208
4.40945	5.62162
5.7874	6.48649
6.88976	7.35135
9.09449	8.21622
11.2992	9.14286
14.0551	9.88417
17.9134	10.6255
22.3228	11.3668
28.3858	11.9228
31.6929	12.2317
35.2756	12.6023
39.4094	12.7259
44.3701	12.973
56.2205	13.4054
62.8346	13.529
70.8268	13.7143
