Adsorption isotherm of Carbon Dioxide on CuBTC
DOI: 10.1016/j.micromeso.2012.02.034
Adsorbate Carbon Dioxide: InChIKey CURLTUGMZLYLDI-UHFFFAOYSA-N
Temperature: 318 K
Tabular data in the source: 0
pressure (bar)	uptake (mmol/g)
0.102682	0.417255
0.161026	0.560778
0.204336	0.70217
0.266248	0.913327
0.337859	1.19372
0.42873	1.5436
0.589	2.03328
0.727895	2.4524
0.899545	2.94102
1.88739	5.31141
2.59294	6.70457
3.37859	7.6107
3.85662	8.23752
4.40228	8.79483
5.89	10.1182
6.72335	10.745
7.67462	11.3024
8.7605	11.9292
10.2681	12.4868
12.0354	13.0443
14.1068	13.6019
30.392	15.9726
39.6004	16.3922
54.4039	16.8124
69.0367	17.0928
87.6052	17.3732
100	17.5135
