Adsorption isotherm of Carbon Dioxide on MIL-101
DOI: 10.1016/j.micromeso.2012.02.034
Adsorbate Carbon Dioxide: InChIKey CURLTUGMZLYLDI-UHFFFAOYSA-N
Temperature: 300 K
Tabular data in the source: 0
pressure (bar)	uptake (mol/l)
1.98582	0.3391
4.71631	0.871972
6.70213	1.21107
8.19149	1.45329
9.92908	1.6955
11.1702	1.88927
12.6596	2.13149
14.1489	2.3737
15.8865	2.51903
17.8723	2.85813
19.8582	3.10035
22.5887	3.34256
28.2979	3.92388
31.5248	4.26298
35.2482	4.60208
39.7163	4.94118
44.4326	5.32872
49.8936	5.71626
56.0993	6.10381
62.8014	6.53979
70.7447	6.92734
