Adsorption isotherm of Carbon Dioxide on CuBTC
DOI: 10.1016/j.micromeso.2012.02.034
Adsorbate Carbon Dioxide: InChIKey CURLTUGMZLYLDI-UHFFFAOYSA-N
Temperature: 353 K
Tabular data in the source: 0
pressure (bar)	uptake (mmol/g)
0.165345	0.144055
0.209816	0.285448
0.27339	0.357609
0.30392	0.428172
0.396005	0.500333
0.502515	0.711224
0.853168	1.13354
1.26896	1.69352
1.98999	2.46252
2.59294	3.22966
3.37859	3.92731
3.96005	4.48489
4.64159	5.04247
5.89	5.87884
6.72335	6.50566
7.67462	7.06297
8.99545	7.69005
11.1168	8.73466
12.6897	9.29197
14.4851	9.91879
22.7154	11.8693
27.3388	12.5661
35.6221	13.6112
42.8726	14.2386
54.4039	14.936
65.4772	15.4243
80.9189	15.9129
100	16.2625
