Adsorption isotherm of Carbon monoxide on MIL-101
DOI: 10.1016/j.micromeso.2012.02.034
Adsorbate Carbon monoxide: InChIKey UGFAIRIUMAVXCW-UHFFFAOYSA-N
Temperature: 295 K
Tabular data in the source: 0
pressure (bar)	uptake (mmol/g)
4.02299	1.56923
6.97318	2.12308
8.58238	2.49231
12.069	3.13846
13.9464	3.46154
15.8238	3.78462
17.1648	3.96923
18.5057	4.29231
20.3831	4.61538
22.2605	4.93846
24.1379	5.21538
27.6245	5.76923
29.7701	6.09231
31.6475	6.36923
35.9387	6.87692
37.8161	7.15385
39.9617	7.43077
42.3755	7.70769
44.5211	7.93846
46.6667	8.21538
50.9579	8.67692
53.3716	8.90769
55.5172	9.13846
57.931	9.36923
60.3448	9.6
62.7586	9.83077
67.318	10.2462
69.7318	10.4308
