Adsorption isotherm of Carbon Dioxide on MIL-101
DOI: 10.1016/j.micromeso.2012.02.034
Adsorbate Carbon Dioxide: InChIKey CURLTUGMZLYLDI-UHFFFAOYSA-N
Temperature: 353 K
Tabular data in the source: 0
pressure (bar)	uptake (mmol/g)
4.61538	2.40964
6.34615	3.01205
7.69231	3.71486
10	4.41767
11.1538	4.91968
14.0385	5.72289
15.5769	6.3253
18.6538	7.22892
20.1923	7.83133
21.7308	8.33333
23.4615	8.83534
25.5769	9.23695
27.1154	9.73896
28.8462	10.241
30.5769	10.6426
33.6538	11.4458
35.3846	11.8474
37.1154	12.249
38.8462	12.6506
40.5769	13.0522
42.5	13.4538
44.8077	14.1566
46.5385	14.3574
48.4615	14.6586
50.1923	15.0602
