Adsorption isotherm of Carbon Dioxide on MIL-101
DOI: 10.1016/j.micromeso.2012.02.034
Adsorbate Carbon Dioxide: InChIKey CURLTUGMZLYLDI-UHFFFAOYSA-N
Temperature: 295 K
Tabular data in the source: 0
pressure (bar)	uptake (mmol/g)
1.53846	2.61044
1.92308	3.51406
3.46154	4.91968
4.42308	6.4257
5.38462	7.32932
6.34615	8.03213
7.5	9.33735
9.03846	10.6426
9.61538	10.9438
10.7692	11.747
13.0769	13.3534
14.2308	14.1566
15.5769	14.9598
17.6923	16.3655
18.8462	17.1687
20	17.9719
21.5385	18.6747
23.0769	19.1767
24.2308	19.8795
25.7692	20.5823
27.1154	21.1847
30	22.49
31.5385	22.992
33.2692	23.494
35	24.0964
35.5769	24.2972
37.1154	24.7992
38.8462	25.3012
40.5769	25.8032
41.1538	26.004
