Adsorption isotherm of Methane on CuBTC
DOI: 10.1016/j.micromeso.2012.02.034
Adsorbate Methane: InChIKey VNWKTOKETHGBQD-UHFFFAOYSA-N
Temperature: 318 K
Tabular data in the source: 0
pressure (bar)	uptake (mmol/g)
0.356225	0.330997
0.637673	0.440021
0.830884	0.551662
1.23582	0.832944
1.88739	1.22783
3.29034	2.02
4.06626	2.41663
5.89	3.26723
7.08884	3.72099
8.09182	4.17519
11.4148	5.31056
13.0299	5.82167
18.8738	7.18447
21.5442	7.69557
28.825	8.83139
32.9033	9.34249
45.2033	10.535
52.9834	10.989
69.0367	12.0112
97.389	12.8051
