Adsorption isotherm of Carbon Dioxide on CuBTC
DOI: 10.1016/j.micromeso.2012.02.034
Adsorbate Carbon Dioxide: InChIKey CURLTUGMZLYLDI-UHFFFAOYSA-N
Temperature: 300 K
Tabular data in the source: 0
pressure (bar)	uptake (mmol/g)
3.70656	4.704
4.40154	5.136
5.32819	5.616
6.94981	6.336
8.10811	6.72
9.49807	7.152
10.6564	7.536
11.8147	7.968
12.973	8.352
14.3629	8.784
14.8263	9.024
16.6795	9.264
18.7645	9.504
20.6178	9.744
22.7027	9.984
24.556	10.224
26.6409	10.464
28.7259	10.704
29.6525	10.896
31.7375	10.992
33.8224	11.088
36.139	11.184
38.2239	11.28
40.5405	11.376
42.6255	11.52
44.9421	11.616
47.027	11.712
49.3436	11.808
51.4286	11.952
53.7452	12.048
55.8301	12.144
58.1467	12.24
