Adsorption isotherm of Carbon monoxide on CuBTC
DOI: 10.1016/j.micromeso.2012.02.034
Adsorbate Carbon monoxide: InChIKey UGFAIRIUMAVXCW-UHFFFAOYSA-N
Temperature: 295 K
Tabular data in the source: 0
pressure (bar)	uptake (mmol/g)
1.58242	1.71429
1.59549	2.22394
2.85239	3.24324
4.71755	3.98456
6.27383	4.67954
7.5153	5.09653
8.75794	5.55985
12.1651	6.44015
14.0208	6.81081
15.8764	7.18147
17.7333	7.59846
19.589	7.96911
21.4434	8.29344
26.0743	8.89575
28.2364	9.22008
30.7051	9.49807
33.4802	9.72973
35.9477	9.96139
38.7229	10.1931
41.1904	10.4247
44.2721	10.61
47.046	10.7954
49.82	10.9807
52.9005	11.1197
55.6733	11.2587
58.7538	11.3977
61.5266	11.5367
64.6071	11.6757
67.3799	11.8147
72.9231	12
