Adsorption isotherm of Carbon monoxide on Zn(bdc)(dabco)
DOI: 10.1016/j.micromeso.2012.02.034
Adsorbate Carbon monoxide: InChIKey UGFAIRIUMAVXCW-UHFFFAOYSA-N
Temperature: 294 K
Tabular data in the source: 0
pressure (bar)	uptake (mmol/g)
0.413793	0.103163
2.37931	0.53629
3.72414	0.887087
6.2069	1.444
7.03448	1.58825
9.72414	2.12433
10.5517	2.26859
11.4828	2.43346
12.2069	2.5571
15	3.01034
15.8276	3.13391
16.8621	3.27803
17.6897	3.40159
19.3448	3.60735
20.1724	3.71023
21.1034	3.83372
22.0345	3.93653
22.4483	3.99831
23.3793	4.10112
24.2069	4.204
25.1379	4.28611
25.9655	4.32692
26.4828	4.40932
27.3103	4.5122
28.7586	4.65603
