Adsorption isotherm of Carbon monoxide on Zn(bdc)(dabco)
DOI: 10.1016/j.micromeso.2012.02.034
Adsorbate Carbon monoxide: InChIKey UGFAIRIUMAVXCW-UHFFFAOYSA-N
Temperature: 294 K
Tabular data in the source: 0
pressure (bar)	uptake (mmol/g)
0.517241	0.144471
1.75862	0.578098
2.27586	0.743258
3.31034	0.970131
3.93103	1.13522
5.27586	1.48602
5.7931	1.65118
6.41379	1.81627
7.13793	1.98128
8.48276	2.33208
9.10345	2.49717
9.82759	2.6415
10.4483	2.80659
11.1724	2.95092
11.8966	3.09524
12.6207	3.23957
14.069	3.52823
14.7931	3.67256
15.5172	3.81688
16.2414	3.9819
16.9655	4.12623
17.6897	4.27056
18.4138	4.41489
19.3448	4.60045
20.069	4.74478
20.8966	4.88904
21.6207	5.01268
22.4483	5.13624
23.2759	5.25981
24	5.38345
24.8276	5.50702
25.6552	5.63058
26.4828	5.75415
27.2069	5.87779
27.8276	5.96012
