Adsorption isotherm of Carbon monoxide on MIL-101
DOI: 10.1016/j.micromeso.2012.02.034
Adsorbate Carbon monoxide: InChIKey UGFAIRIUMAVXCW-UHFFFAOYSA-N
Temperature: 295 K
Tabular data in the source: 0
pressure (bar)	uptake (mmol/g)
2.4055	1.2471
4.811	1.66375
6.7354	2.08012
8.17869	2.41316
12.0275	3.12132
13.7113	3.41298
15.3952	3.74616
18.5223	4.2878
20.2062	4.62098
21.89	4.91264
23.5739	5.16277
27.4227	5.74637
29.1065	5.9965
31.0309	6.2883
32.9553	6.53858
35.8419	6.91399
37.7663	7.16427
39.4502	7.4144
41.6151	7.66482
43.5395	7.87358
45.4639	8.12385
47.6289	8.33275
50.756	8.70831
52.921	8.9172
54.8454	9.12596
57.0103	9.33486
58.9347	9.54361
61.0997	9.75251
63.2646	9.91988
67.1134	10.2959
69.2784	10.4632
