Adsorption isotherm of Carbon monoxide on Zn(bdc)(dabco)
DOI: 10.1016/j.micromeso.2012.02.034
Adsorbate Carbon monoxide: InChIKey UGFAIRIUMAVXCW-UHFFFAOYSA-N
Temperature: 294 K
Tabular data in the source: 0
pressure (bar)	uptake (mmol/g)
0.827586	0.289084
1.65517	0.49541
2.68966	0.805042
4.75862	1.40361
7.86207	2.24975
13.3448	3.44597
18.7241	4.53881
26.069	5.87857
