Adsorption isotherm of Carbon Dioxide on CuBTC
DOI: 10.1016/j.micromeso.2012.02.034
Adsorbate Carbon Dioxide: InChIKey CURLTUGMZLYLDI-UHFFFAOYSA-N
Temperature: 295 K
Tabular data in the source: 0
pressure (bar)	uptake (mmol/g)
0.108264	0.834776
0.144851	1.1157
0.18381	1.39609
0.233247	1.74597
0.28825	2.09559
0.356225	2.51471
0.544041	3.56144
0.654775	4.04979
1.02682	5.72227
1.1721	6.34909
1.33794	6.9064
1.5682	7.53348
1.93801	8.50859
2.66248	9.90174
3.29034	10.8768
3.75589	11.4342
4.40228	12.0612
5.89	13.2456
6.90367	13.8032
8.09182	14.3608
12.6897	15.5468
18.8738	16.5238
24.5923	16.8739
32.0442	17.0851
40.6631	17.296
52.9834	17.5071
69.0367	17.7183
87.6052	17.7902
