Adsorption isotherm of Carbon monoxide on CuBTC
DOI: 10.1016/j.micromeso.2012.02.034
Adsorbate Carbon monoxide: InChIKey UGFAIRIUMAVXCW-UHFFFAOYSA-N
Temperature: 318 K
Tabular data in the source: 0
pressure (bar)	uptake (mmol/g)
3.74814	2.17761
4.68429	2.68726
6.54945	3.42857
7.79091	3.84556
12.7425	4.95753
14.5982	5.32819
19.2361	6.20849
21.3983	6.53282
23.5604	6.85714
28.1901	7.41313
30.6587	7.69112
33.1274	7.96911
35.5949	8.20077
38.3701	8.43243
43.6115	8.84942
46.3855	9.03475
49.1607	9.26641
51.9347	9.45174
54.7075	9.59073
57.7891	9.77606
60.5619	9.91506
63.6424	10.0541
66.4152	10.1931
71.9608	10.471
75.0401	10.5637
77.8129	10.7027
80.2768	10.7954
