Adsorption isotherm of Carbon monoxide on CuBTC
DOI: 10.1016/j.micromeso.2012.02.034
Adsorbate Carbon monoxide: InChIKey UGFAIRIUMAVXCW-UHFFFAOYSA-N
Temperature: 353 K
Tabular data in the source: 0
pressure (bar)	uptake (mmol/g)
3.10544	1.11197
3.72676	1.34363
6.51262	1.99228
8.36828	2.36293
11.7672	2.91892
13.0062	3.24324
15.1684	3.56757
18.8738	4.07722
20.7282	4.40154
23.1969	4.67954
27.8242	5.14286
29.9863	5.46718
32.7615	5.69884
35.5367	5.9305
38.0042	6.16216
40.7781	6.34749
44.7865	6.67181
47.5604	6.85714
50.3344	7.04247
53.1084	7.2278
56.1889	7.3668
58.9629	7.55212
61.7357	7.69112
64.8162	7.83012
67.5901	8.01544
70.6706	8.15444
73.7511	8.29344
76.8316	8.43243
79.6044	8.57143
