Adsorption isotherm of Carbon Dioxide on Zn(bdc)(dabco)
DOI: 10.1016/j.micromeso.2012.02.034
Adsorbate Carbon Dioxide: InChIKey CURLTUGMZLYLDI-UHFFFAOYSA-N
Temperature: 300 K
Tabular data in the source: 0
pressure (bar)	uptake (mmol/g)
3.01158	1.008
3.93822	1.344
5.09653	1.776
6.02317	2.112
7.18147	2.496
8.33977	2.88
9.72973	3.312
10.888	3.696
12.0463	4.128
13.4363	4.512
15.0579	5.136
16.4479	5.328
18.0695	5.616
19.9228	5.904
21.7761	6.24
23.6293	6.528
25.4826	6.816
27.1042	7.104
31.5058	7.68
33.8224	7.728
36.139	7.776
38.2239	7.824
40.5405	7.92
42.8571	7.968
44.9421	8.064
47.2587	8.112
49.5753	8.16
51.6602	8.256
53.9768	8.304
56.2934	8.352
58.3784	8.448
60.695	8.496
