Adsorption isotherm of Carbon monoxide on MIL-101
DOI: 10.1016/j.micromeso.2012.02.034
Adsorbate Carbon monoxide: InChIKey UGFAIRIUMAVXCW-UHFFFAOYSA-N
Temperature: 318 K
Tabular data in the source: 0
pressure (bar)	uptake (mmol/g)
6.97318	1.8
8.85057	2.12308
12.3372	2.63077
14.2146	2.95385
18.7739	3.6
20.6513	3.87692
22.7969	4.15385
24.9425	4.43077
27.6245	4.8
29.7701	5.07692
31.9157	5.30769
37.0115	5.90769
39.1571	6.13846
41.5709	6.41538
43.7165	6.64615
46.1303	6.87692
50.9579	7.33846
53.3716	7.56923
55.7854	7.8
57.931	7.98462
60.3448	8.21538
65.1724	8.63077
67.5862	8.81538
70	9
