Adsorption isotherm of Carbon monoxide on CuBTC
DOI: 10.1016/j.micromeso.2012.02.034
Adsorbate Carbon monoxide: InChIKey UGFAIRIUMAVXCW-UHFFFAOYSA-N
Temperature: 295 K
Tabular data in the source: 0
pressure (bar)	uptake (mmol/g)
1.64948	1.91089
2.74914	2.99105
5.22337	4.23801
10.7216	6.10937
17.3196	7.31695
24.1924	8.69076
26.1168	8.52567
42.6117	10.3612
69.0034	11.8697
