Adsorption isotherm of Carbon Dioxide on Zn(bdc)(dabco)
DOI: 10.1016/j.micromeso.2012.02.034
Adsorbate Carbon Dioxide: InChIKey CURLTUGMZLYLDI-UHFFFAOYSA-N
Temperature: 300 K
Tabular data in the source: 0
pressure (bar)	uptake (mol/l)
2.23404	0.387543
3.7234	0.775087
5.21277	1.21107
6.95035	1.6955
8.93617	2.0346
9.68085	2.27682
11.4184	2.47059
14.1489	2.90657
15.8865	3.0519
17.3759	3.19723
19.8582	3.34256
22.3404	3.53633
24.8227	3.63322
28.0496	3.77855
31.5248	3.87543
35	3.97232
39.4681	4.02076
44.1844	4.11765
50.3901	4.16609
55.8511	4.21453
62.8014	4.26298
67.2695	4.26298
70.7447	4.26298
