Adsorption isotherm of Methane on MIL-101
DOI: 10.1016/j.micromeso.2012.02.034
Adsorbate Methane: InChIKey VNWKTOKETHGBQD-UHFFFAOYSA-N
Temperature: 318 K
Tabular data in the source: 0
pressure (bar)	uptake (mmol/g)
10.3846	2.4756
12.3077	2.88806
14.2308	3.23156
16.5385	3.71273
20.3846	4.53767
23.0769	5.01857
27.3077	5.77427
30	6.25517
36.5385	7.28515
39.2308	7.76605
42.3077	8.17772
45.3846	8.58939
51.5385	9.4817
54.6154	9.89337
57.6923	10.2361
60.7692	10.6477
66.5385	11.2645
69.6154	11.6761
73.0769	12.0186
76.1538	12.3613
79.6154	12.7037
83.0769	12.9772
86.5385	13.3196
91.9231	13.7987
95.3846	14.0721
98.8462	14.4146
100.385	14.5515
