Adsorption isotherm of Carbon Dioxide on MIL-101
DOI: 10.1016/j.micromeso.2012.02.034
Adsorbate Carbon Dioxide: InChIKey CURLTUGMZLYLDI-UHFFFAOYSA-N
Temperature: 318 K
Tabular data in the source: 0
pressure (bar)	uptake (mmol/g)
3.46154	3.31325
6.34615	5.32129
7.5	6.1245
10.1923	7.73092
11.5385	8.43373
13.6538	9.53815
15	10.241
16.3462	10.9438
18.4615	11.9478
19.8077	12.6506
21.3462	13.3534
22.6923	13.8554
24.8077	14.6586
26.3462	15.261
27.8846	15.8635
29.4231	16.4659
32.1154	17.3695
33.8462	17.8715
35.3846	18.3735
37.1154	18.8755
42.1154	20.2811
43.8462	20.6827
45.5769	21.1847
47.3077	21.5863
49.0385	21.988
50.1923	22.2892
