Adsorption isotherm of Methane on CuBTC
DOI: 10.1016/j.micromeso.2012.02.034
Adsorbate Methane: InChIKey VNWKTOKETHGBQD-UHFFFAOYSA-N
Temperature: 295 K
Tabular data in the source: 0
pressure (bar)	uptake (mmol/g)
0.161026	0.223717
0.295981	0.332523
0.464159	0.499548
0.621016	0.667882
0.788047	0.836651
3.2044	2.93079
3.75589	3.38476
4.52035	3.83852
5.58632	4.5197
6.54775	4.97368
7.47417	5.48478
8.53167	5.93898
11.7211	7.18839
13.3795	7.6995
18.381	9.00583
20.9817	9.51693
28.0724	10.5389
32.0442	10.9931
36.578	11.4473
44.023	12.0149
51.5988	12.4689
72.7897	13.3197
97.389	13.8295
