Adsorption isotherm of Carbon monoxide on MIL-101
DOI: 10.1016/j.micromeso.2012.02.034
Adsorbate Carbon monoxide: InChIKey UGFAIRIUMAVXCW-UHFFFAOYSA-N
Temperature: 353 K
Tabular data in the source: 0
pressure (bar)	uptake (mmol/g)
7.24138	1.47692
9.38697	1.75385
12.3372	2.07692
14.4828	2.35385
19.0421	2.86154
21.1877	3.09231
23.6015	3.32308
27.8927	3.69231
29.7701	3.96923
32.1839	4.2
34.5977	4.43077
37.5479	4.70769
39.9617	4.89231
42.3755	5.12308
44.7893	5.30769
47.2031	5.53846
50.9579	5.86154
53.1034	6.04615
55.5172	6.23077
57.931	6.41538
60.3448	6.6
64.0996	6.87692
66.5134	7.06154
68.9272	7.2
70	7.29231
