Adsorption isotherm of Carbon Dioxide on Na-X
DOI: 10.1016/j.micromeso.2012.02.034
Adsorbate Carbon Dioxide: InChIKey CURLTUGMZLYLDI-UHFFFAOYSA-N
Temperature: 300 K
Tabular data in the source: 0
pressure (bar)	uptake (mol/l)
3.7234	5.03806
4.21986	5.13495
4.71631	5.32872
6.4539	5.47405
8.43972	5.71626
10.1773	5.86159
11.1702	6.00692
12.4113	6.10381
14.3972	6.15225
15.8865	6.24913
17.8723	6.39446
19.8582	6.49135
22.3404	6.53979
25.0709	6.73356
28.0496	6.83045
31.2766	6.97578
35.2482	7.07266
39.7163	7.21799
44.4326	7.36332
49.8936	7.46021
56.0993	7.60554
62.5532	7.75087
67.0213	7.79931
70.9929	7.84775
