Adsorption isotherm of Carbon monoxide on MIL-101
DOI: 10.1016/j.micromeso.2012.02.034
Adsorbate Carbon monoxide: InChIKey UGFAIRIUMAVXCW-UHFFFAOYSA-N
Temperature: 295 K
Tabular data in the source: 0
pressure (bar)	uptake (mmol/g)
3.8488	1.37253
6.7354	1.87251
8.17869	2.1225
12.268	2.70624
14.1924	2.95652
20.6873	3.70777
22.8522	3.91667
28.866	4.46003
31.0309	4.6274
37.0447	5.08772
39.2096	5.21357
41.134	5.33928
43.5395	5.42375
45.4639	5.54946
47.8694	5.67545
53.6426	5.96954
56.0481	6.05401
57.732	6.13805
60.1375	6.22252
61.8213	6.30657
64.2268	6.39104
66.1512	6.47523
68.3162	6.55955
