Adsorption isotherm of Methane on MIL-101
DOI: 10.1016/j.micromeso.2012.02.034
Adsorbate Methane: InChIKey VNWKTOKETHGBQD-UHFFFAOYSA-N
Temperature: 295 K
Tabular data in the source: 0
pressure (bar)	uptake (mmol/g)
5.38462	1.99629
7.69231	2.47745
10.3846	3.16525
13.8462	4.12838
16.9231	4.81592
20	5.64138
22.3077	6.19151
26.9231	7.15385
29.2308	7.70398
31.9231	8.18488
35	8.80345
37.6923	9.28435
40.3846	9.83422
43.0769	10.2462
46.1538	10.7268
49.2308	11.2074
51.9231	11.6194
55	12.1
58.0769	12.5117
61.1538	12.9233
63.8462	13.2663
66.9231	13.678
70.3846	14.0204
73.4615	14.3631
76.5385	14.7748
80	15.1172
83.4615	15.4597
86.5385	15.7334
90	16.0759
93.4615	16.4183
96.9231	16.6918
100.385	16.9653
