Adsorption isotherm of Carbon Dioxide on MIL-101
DOI: 10.1016/j.micromeso.2012.02.034
Adsorbate Carbon Dioxide: InChIKey CURLTUGMZLYLDI-UHFFFAOYSA-N
Temperature: 300 K
Tabular data in the source: 0
pressure (bar)	uptake (mmol/g)
3.85827	1.60618
6.06299	2.65637
7.44094	3.21236
9.09449	3.70656
11.5748	4.44788
12.6772	4.94208
14.0551	5.37452
15.7087	5.86873
17.6378	6.42471
19.5669	6.98069
22.0472	7.66023
24.5276	8.27799
28.1102	8.95753
31.4173	9.76062
35.2756	10.5019
39.685	11.305
44.6457	12.1699
49.8819	13.0965
55.9449	13.9614
62.8346	14.888
70.5512	15.8764
