Adsorption isotherm of Carbon monoxide on MIL-101
DOI: 10.1016/j.micromeso.2012.02.034
Adsorbate Carbon monoxide: InChIKey UGFAIRIUMAVXCW-UHFFFAOYSA-N
Temperature: 295 K
Tabular data in the source: 0
pressure (bar)	uptake (mmol/g)
1.68385	1.03906
2.4055	1.20558
2.8866	1.41348
5.2921	1.9547
10.5842	2.9959
17.079	4.12086
25.9794	5.5379
34.8797	6.78886
49.5533	8.58303
65.9107	10.1706
