Adsorption isotherm of Carbon Dioxide on Zn(bdc)(dabco)
DOI: 10.1016/j.micromeso.2012.02.034
Adsorbate Carbon Dioxide: InChIKey CURLTUGMZLYLDI-UHFFFAOYSA-N
Temperature: 300 K
Tabular data in the source: 0
pressure (bar)	uptake (mmol/g)
1.37795	0.30888
1.92913	0.864865
3.30709	1.60618
4.13386	2.22394
5.23622	2.8417
6.33858	3.52124
7.44094	4.26255
9.09449	4.94208
11.2992	5.74517
14.0551	6.61004
17.6378	7.35135
22.3228	8.09266
24.8031	8.33977
28.1102	8.58687
31.4173	8.89575
35.2756	9.08108
39.685	9.20463
43.8189	9.38996
49.6063	9.51351
55.9449	9.63707
62.5591	9.69884
70.8268	9.82239
