Adsorption isotherm of Carbon Dioxide on MIL-101
DOI: 10.1016/j.micromeso.2012.02.034
Adsorbate Carbon Dioxide: InChIKey CURLTUGMZLYLDI-UHFFFAOYSA-N
Temperature: 300 K
Tabular data in the source: 0
pressure (bar)	uptake (mmol/g)
3.01158	0.72
3.93822	1.056
5.09653	1.44
7.18147	2.112
8.57143	2.496
9.96139	2.88
11.3514	3.264
12.7413	3.648
14.1313	4.032
19.2278	5.184
20.8494	5.52
22.471	5.904
24.0927	6.24
25.4826	6.576
27.1042	6.912
31.5058	7.776
33.3591	8.064
35.2124	8.352
37.0656	8.64
38.9189	8.928
40.7722	9.216
42.6255	9.504
44.2471	9.744
46.332	10.032
47.9537	10.32
49.8069	10.608
51.8919	10.896
53.5135	11.184
55.3668	11.472
57.2201	11.712
59.0734	12
