Adsorption isotherm of Methane on CuBTC
DOI: 10.1016/j.micromeso.2012.02.034
Adsorbate Methane: InChIKey VNWKTOKETHGBQD-UHFFFAOYSA-N
Temperature: 353 K
Tabular data in the source: 0
pressure (bar)	uptake (mmol/g)
0.356225	0.160265
0.637673	0.212379
1.303	0.491044
1.88739	0.658723
3.0392	1.28081
3.65778	1.27929
4.64159	1.61879
6.04796	2.01498
6.90367	2.24154
8.53167	2.63816
11.7211	3.48921
13.7382	3.94318
18.381	4.79444
20.9817	5.24864
27.3388	6.21394
31.2069	6.72504
35.6221	7.17924
44.023	8.08806
50.2516	8.59917
57.3614	9.05336
67.2342	9.73498
76.7467	10.3599
97.389	11.0409
