Adsorption isotherm of Carbon Dioxide on CuBTC
DOI: 10.1016/j.micromeso.2012.02.034
Adsorbate Carbon Dioxide: InChIKey CURLTUGMZLYLDI-UHFFFAOYSA-N
Temperature: 300 K
Tabular data in the source: 0
pressure (bar)	uptake (mol/l)
0.992908	1.21107
1.48936	1.88927
1.73759	2.32526
2.23404	2.85813
2.48227	3.43945
3.22695	3.92388
4.21986	4.60208
4.96454	5.23183
6.4539	6.05536
7.94326	6.78201
9.92908	7.55709
12.4113	8.38062
15.6383	9.01038
19.8582	9.64014
25.0709	10.173
31.5248	10.7059
39.7163	11.1419
49.6454	11.5294
56.0993	11.7232
63.0496	11.917
70.4965	12.0138
