Adsorption isotherm of Carbon monoxide on CuBTC
DOI: 10.1016/j.micromeso.2012.02.034
Adsorbate Carbon monoxide: InChIKey UGFAIRIUMAVXCW-UHFFFAOYSA-N
Temperature: 295 K
Tabular data in the source: 0
pressure (bar)	uptake (mmol/g)
7.11e-15	0.455172
0.824742	1.07544
1.64948	1.6957
2.19931	2.60576
4.12371	3.63925
5.49828	3.96957
6.59794	4.63107
7.97251	5.12691
12.0962	6.0765
14.0206	6.44792
15.945	6.73658
18.4192	7.10771
20.6186	7.35485
27.7663	8.09598
30.2405	8.21884
32.4399	8.38322
34.9141	8.54746
37.3883	8.67032
40.1375	8.79303
46.7354	9.07927
49.4845	9.20199
51.4089	9.24237
54.1581	9.32371
56.0825	9.40547
58.8316	9.48681
60.756	9.5272
63.5052	9.56715
70.9278	9.72883
73.677	9.81017
