Adsorption isotherm of Carbon monoxide on CuBTC
DOI: 10.1016/j.micromeso.2012.02.034
Adsorbate Carbon monoxide: InChIKey UGFAIRIUMAVXCW-UHFFFAOYSA-N
Temperature: 295 K
Tabular data in the source: 0
pressure (bar)	uptake (mmol/g)
0.824742	0.909918
1.64948	1.86122
2.19931	2.35748
3.02405	3.30878
4.12371	3.80476
4.67354	3.97
5.49828	4.54888
7.69759	5.29257
9.34708	5.78827
12.3711	6.44877
14.0206	6.77895
15.3952	7.10928
17.8694	7.64593
19.5189	7.97611
21.4433	8.30615
23.3677	8.55343
26.1168	8.92442
28.0412	9.1717
30.2405	9.46022
32.7148	9.66584
34.9141	9.8716
37.3883	10.0772
39.5876	10.283
43.9863	10.5704
46.4605	10.7346
48.9347	10.8988
51.6838	11.0215
54.1581	11.1858
56.6323	11.3086
59.3814	11.4314
61.8557	11.5542
64.6048	11.6355
67.079	11.7584
72.0275	11.9214
