Adsorption isotherm of Carbon Dioxide on Na-X
DOI: 10.1016/j.micromeso.2012.02.034
Adsorbate Carbon Dioxide: InChIKey CURLTUGMZLYLDI-UHFFFAOYSA-N
Temperature: 300 K
Tabular data in the source: 0
pressure (bar)	uptake (mmol/g)
3.58268	3.64479
5.23622	3.76834
6.88976	3.95367
9.92126	4.26255
13.2283	4.3861
15.4331	4.44788
17.6378	4.50965
20.1181	4.6332
22.5984	4.69498
25.0787	4.75676
28.3858	4.81853
31.4173	5.00386
35	5.00386
39.4094	5.06564
44.0945	5.18919
49.8819	5.25097
55.6693	5.37452
62.5591	5.49807
70.2756	5.49807
