Adsorption isotherm of Methane on MIL-101
DOI: 10.1016/j.micromeso.2012.02.034
Adsorbate Methane: InChIKey VNWKTOKETHGBQD-UHFFFAOYSA-N
Temperature: 353 K
Tabular data in the source: 0
pressure (bar)	uptake (mmol/g)
7.69231	1.30504
11.1538	1.92334
15.3846	2.54111
20.7692	3.29602
23.8462	3.70769
28.0769	4.32546
31.1538	4.73714
37.3077	5.49151
40.3846	5.90318
43.4615	6.24589
46.9231	6.65729
50	7
53.8462	7.41114
57.3077	7.75358
60.3846	8.09629
69.6154	8.98647
73.0769	9.25995
76.5385	9.60239
80	9.87586
83.0769	10.2186
87.6923	10.5602
90.3846	10.8342
96.5385	11.2438
100	11.5172
