Adsorption isotherm of Carbon Dioxide on Na-X
DOI: 10.1016/j.micromeso.2012.02.034
Adsorbate Carbon Dioxide: InChIKey CURLTUGMZLYLDI-UHFFFAOYSA-N
Temperature: 300 K
Tabular data in the source: 0
pressure (bar)	uptake (mmol/g)
4.16988	4.224
5.55985	4.464
7.41313	4.512
9.72973	4.656
11.8147	4.752
19.2278	5.04
21.5444	5.136
23.6293	5.184
25.9459	5.232
28.2625	5.28
30.3475	5.376
32.6641	5.376
34.9807	5.424
37.0656	5.472
39.3822	5.52
41.6988	5.52
44.0154	5.568
46.332	5.616
48.417	5.664
50.7336	5.712
53.0502	5.712
55.3668	5.76
57.6834	5.808
59.7683	5.808
