Adsorption isotherm of Nitrogen on Rh15Ni85@ZIF-8
DOI: 10.1016/j.ijhydene.2015.10.038
Article source: Figure 2
Adsorbate Nitrogen: InChIKey IJGRMHOSHXDMSA-UHFFFAOYSA-N
Kind: experiment
Temperature: 77 K
Tabular data in the source: 0
pressure (bar)	uptake ()
0.002913	158.436
0.004085	160.054
0.005258	161.313
0.006323	162.811
0.007281	164.37
0.009093	167.246
0.016022	172.281
0.023911	176.777
0.036707	181.212
0.053131	183.731
0.055157	183.91
0.061023	184.87
0.074354	186.728
0.100374	196.019
0.102297	191.884
0.136956	198.898
0.137487	199.079
0.165428	204.015
0.165644	203.994
0.19218	208.788
0.193993	211.544
0.22369	213.471
0.224899	214.944
0.255402	218.608
0.256075	218.602
0.289361	220.362
0.290106	222.1
0.32061	224.499
0.322424	222.401
0.351009	224.141
0.358793	227.438
0.379377	228.937
0.384285	226.9
0.41404	231.396
0.415003	231.429
0.446726	229.776
0.447653	234.438
0.481093	233.08
0.483354	253.965
0.512271	233.119
0.51497	264.994
0.538008	266.284
0.544455	235.084
0.576247	236.918
0.578423	242.138
0.599841	269.266
0.609868	238.898
0.640721	271.174
0.642149	240.488
0.662052	272.194
0.673595	241.886
0.701037	273.484
0.703406	244.836
0.722688	274.504
0.734444	246.875
0.75714	275.884
0.763667	249.154
0.793211	252.212
0.798524	277.564
0.82208	256.433
0.827855	279.304
0.848866	280.743
0.85096	263.273
0.881737	271.007
0.891201	283.618
0.913441	285.469
0.916201	279.655
0.947038	285.357
0.950527	291.398
0.979419	293.476
0.985998	301.179
0.998922	304.545
