Adsorption isotherm of Nitrogen on ZIF-8
DOI: 10.1016/j.ijhydene.2015.10.038
Article source: Figure 2
Adsorbate Nitrogen: InChIKey IJGRMHOSHXDMSA-UHFFFAOYSA-N
Kind: experiment
Temperature: 77 K
Tabular data in the source: 0
pressure (bar)	uptake (cm3(STP)/cm3)
0.000532	2.668
0.000835	34.895
0.000845	15.199
0.001127	188.054
0.00132	222.249
0.001639	226.846
0.004976	269.206
0.005507	275.411
0.009666	376.468
0.009851	331.021
0.012446	364.208
0.016388	372.392
0.020441	374.282
0.023796	382.946
0.025346	376.021
0.028756	383.516
0.029027	376.621
0.031426	376.861
0.03372	377.162
0.035	377.342
0.036276	383.817
0.03836	377.492
0.044973	377.613
0.049666	378.393
0.05361	384.269
0.060119	378.365
0.068867	379.115
0.071694	384.913
0.081517	380.013
0.090999	380.3
0.104714	384.874
0.106235	385.109
0.158929	386.696
0.173648	382.77
0.243196	383.913
0.266041	388.714
0.350643	386.724
0.371271	390.353
0.452849	388.855
0.477912	392.409
0.661877	392.519
0.691338	395.76
0.766012	394.914
0.795304	397.393
0.870475	396.921
0.902314	398.844
0.95548	399.278
0.975101	398.45
1.01011	402.006
