Adsorption isotherm of Nitrogen on Rh36Ni64@ZIF-8
DOI: 10.1016/j.ijhydene.2015.10.038
Article source: Figure 2
Adsorbate Nitrogen: InChIKey IJGRMHOSHXDMSA-UHFFFAOYSA-N
Kind: experiment
Temperature: 77 K
Tabular data in the source: 0
pressure (bar)	uptake ()
0.005367	100.004
0.008886	103.122
0.009738	107.137
0.011017	109.118
0.019016	113.555
0.030107	119.252
0.038212	122.491
0.050003	127.962
0.053026	131.521
0.056115	134.609
0.068143	137.336
0.068882	137.482
0.100233	141.954
0.100926	141.684
0.130792	144.866
0.136713	145.496
0.158633	147.058
0.164126	147.299
0.194874	149.472
0.199578	150.001
0.220678	151.024
0.224911	151.289
0.256494	153.219
0.262542	153.749
0.289622	154.811
0.293675	155.351
0.315223	156.493
0.319543	156.434
0.35261	158.507
0.35741	159.437
0.383564	160.603
0.384572	160.791
0.412608	163.808
0.415402	161.477
0.447575	162.528
0.448926	169.38
0.478419	181.906
0.479388	180.756
0.511271	188.985
0.511814	188.863
0.542523	192.167
0.542748	192.165
0.568551	193.609
0.576242	170.349
0.609362	172.392
0.610685	196.972
0.636925	199.494
0.640457	174.735
0.662738	201.836
0.670217	177.377
0.70179	180.259
0.703485	184.145
0.730152	208.71
0.734217	183.321
0.760258	212.132
0.76363	186.678
0.791705	216.216
0.794808	190.535
0.82518	195.147
0.826243	221.281
0.85429	200.32
0.854617	200.457
0.883411	208.032
0.887803	233.062
0.917443	216.507
0.921326	241.537
0.946563	228.217
0.953832	253.723
0.979404	247.065
0.98312	266.765
0.999203	274.475
