Adsorption isotherm of Nitrogen on Rh77Ni23@ZIF-8
DOI: 10.1016/j.ijhydene.2015.10.038
Article source: Figure 2
Adsorbate Nitrogen: InChIKey IJGRMHOSHXDMSA-UHFFFAOYSA-N
Kind: experiment
Temperature: 77 K
Tabular data in the source: 0
pressure (bar)	uptake ()
0.00405	128.538
0.004687	130.698
0.005324	134.536
0.005428	134.958
0.00713	138.738
0.008727	141.677
0.010749	145.037
0.013196	150.077
0.02005	159.809
0.022142	160.937
0.026948	165.16
0.031935	176.837
0.036309	175.518
0.052931	187.699
0.057196	188.96
0.069244	191.302
0.071163	192.382
0.099527	195.267
0.1087	194.548
0.130561	196.526
0.132587	196.952
0.162888	199.877
0.170765	198.039
0.190921	198.942
0.199904	201.546
0.231532	202.224
0.232936	202.185
0.253626	202.492
0.263457	204.014
0.292816	204.775
0.29725	204.36
0.324257	205.574
0.346829	206.787
0.355763	208.074
0.385794	208.533
0.390899	209.743
0.412662	213.224
0.417369	209.559
0.447053	219.579
0.448781	211.405
0.480095	229.713
0.481627	212.371
0.512065	237.958
0.5133	213.636
0.535578	239.851
0.543479	215.321
0.574726	216.827
0.576288	219.885
0.598859	244.7
0.605138	218.51
0.637221	220.389
0.639644	247.054
0.662666	249.249
0.670485	222.632
0.701733	225.008
0.702446	226.175
0.726652	254.402
0.733298	227.653
0.764329	230.838
0.767108	258.885
0.788267	261.27
0.79536	234.383
0.824658	267.085
0.824739	267.131
0.854696	273.454
0.855631	273.566
0.884649	253.517
0.886362	282.543
0.918895	268.565
0.924227	305.83
0.947759	290.339
0.950203	333.397
0.979421	332.143
0.984742	377.118
0.999098	395.639
