Adsorption isotherm of Nitrogen on Rh55Ni45@ZIF-8
DOI: 10.1016/j.ijhydene.2015.10.038
Article source: Figure 2
Adsorbate Nitrogen: InChIKey IJGRMHOSHXDMSA-UHFFFAOYSA-N
Kind: experiment
Temperature: 77 K
Tabular data in the source: 0
pressure (bar)	uptake ()
0.00526	140.73
0.007924	148.222
0.011228	153.976
0.017519	159.192
0.028184	164.288
0.033727	172.86
0.037567	169.025
0.048656	181.374
0.050255	184.011
0.054733	188.987
0.059318	192.824
0.07009	194.804
0.101658	199.066
0.108164	199.727
0.128696	201.319
0.133602	201.68
0.165705	203.096
0.196369	205.65
0.202448	205.621
0.221187	206.572
0.229788	206.536
0.262374	208.884
0.29125	210.096
0.328409	210.983
0.349313	212.246
0.355713	212.787
0.389765	214.085
0.412346	215.856
0.418106	215.078
0.449549	220.216
0.451109	215.156
0.480806	215.993
0.484081	241.011
0.505387	249.903
0.511579	217.736
0.539799	218.951
0.547313	251.724
0.575274	220.771
0.576876	253.317
0.601601	254.153
0.606034	222.072
0.635578	222.618
0.637749	255.973
0.661802	257.186
0.668321	224.123
0.700105	225.868
0.705	258.713
0.729435	228.212
0.734864	259.618
0.760395	230.084
0.763661	262.142
0.786272	262.986
0.793749	232.565
0.825238	235.426
0.8298	264.349
0.851332	266.117
0.856794	239.862
0.884475	244.323
0.88821	268.595
0.915514	252.032
0.917457	273.204
0.945934	276.986
0.947492	263.592
0.97853	276.285
0.986779	290.719
0.99915	294.498
