Adsorption isotherm of Nitrogen on MIL-100
DOI: 10.1039/C2nj20587d
Adsorbate Nitrogen: InChIKey IJGRMHOSHXDMSA-UHFFFAOYSA-N
Temperature: 77 K
Tabular data in the source: 0
pressure (bar)	uptake (cm3(STP)/g)
0.00710587	269.144
0.0270216	313.261
0.071777	382.559
0.124762	432.915
0.260357	464.172
0.490143	482.614
0.690169	496.913
0.853832	511.289
0.931571	540.564
0.96802	586.749
0.991492	767.541
