Adsorption isotherm of Nitrogen on MIL-100
DOI: 10.1039/C2nj20587d
Adsorbate Nitrogen: InChIKey IJGRMHOSHXDMSA-UHFFFAOYSA-N
Temperature: 77 K
Tabular data in the source: 0
pressure (bar)	uptake (cm3(STP)/g)
0.000869683	139.91
0.0712855	218.053
0.192784	264.204
0.311853	294.293
0.578033	366.005
0.720454	403.029
0.860373	412.524
0.99799	426.601
