Adsorption isotherm of Nitrogen on MIL-100
DOI: 10.1039/C2nj20587d
Adsorbate Nitrogen: InChIKey IJGRMHOSHXDMSA-UHFFFAOYSA-N
Temperature: 77 K
Tabular data in the source: 0
pressure (bar)	uptake (cm3(STP)/g)
0.000869683	139.91
0.0712997	220.347
0.454331	340.492
0.482646	395.602
0.578261	402.702
0.71818	412.198
0.860373	412.524
0.99799	426.601
