Adsorption isotherm of Nitrogen on MIL-100
DOI: 10.1039/C2nj20587d
Adsorbate Nitrogen: InChIKey IJGRMHOSHXDMSA-UHFFFAOYSA-N
Temperature: 77 K
Tabular data in the source: 0
pressure (bar)	uptake (cm3(STP)/g)
0.0052181	89.4615
0.0451023	130.837
0.497851	216.738
0.724446	295.24
0.808777	361.947
0.877603	559.352
0.906088	641.986
0.964635	685.699
0.995338	749.989
