Adsorption isotherm of Nitrogen on MIL-100
DOI: 10.1039/C2nj20587d
Adsorbate Nitrogen: InChIKey IJGRMHOSHXDMSA-UHFFFAOYSA-N
Temperature: 77 K
Tabular data in the source: 0
pressure (bar)	uptake (cm3(STP)/g)
0.00678733	198.75
0.0497738	266.25
0.158371	318.75
0.4819	442.5
0.572398	510
0.622172	566.25
0.696833	667.5
0.803167	712.5
0.988688	712.5
