Adsorption isotherm of Nitrogen on MIL-100
DOI: 10.1039/C2nj20587d
Adsorbate Nitrogen: InChIKey IJGRMHOSHXDMSA-UHFFFAOYSA-N
Temperature: 77 K
Tabular data in the source: 0
pressure (bar)	uptake (cm3(STP)/g)
0.00678733	198.75
0.0497738	266.25
0.158371	318.75
0.50905	435
0.624434	491.25
0.721719	555
0.800905	637.5
0.861991	705
0.988688	712.5
