Adsorption isotherm of Nitrogen on MIL-100
DOI: 10.1039/C2nj20587d
Adsorbate Nitrogen: InChIKey IJGRMHOSHXDMSA-UHFFFAOYSA-N
Temperature: 77 K
Tabular data in the source: 0
pressure (bar)	uptake (cm3(STP)/g)
0.012254	220.352
0.0467329	281.403
0.135954	328.792
0.302772	368.464
0.691135	430.212
0.85111	471.838
0.933542	534.951
0.95198	580.233
