Adsorption isotherm of Nitrogen on MIL-100
DOI: 10.1039/C2nj20587d
Adsorbate Nitrogen: InChIKey IJGRMHOSHXDMSA-UHFFFAOYSA-N
Temperature: 77 K
Tabular data in the source: 0
pressure (bar)	uptake (cm3(STP)/g)
0.0052181	89.4615
0.0684555	137.772
0.355472	186.595
0.593509	230.719
0.74308	292.989
0.848476	373.506
0.874431	424.024
0.950392	644.382
0.995338	749.989
