Adsorption isotherm of Nitrogen on MIL-100
DOI: 10.1039/C2nj20587d
Adsorbate Nitrogen: InChIKey IJGRMHOSHXDMSA-UHFFFAOYSA-N
Temperature: 77 K
Tabular data in the source: 0
pressure (bar)	uptake (cm3(STP)/g)
0.0135747	105
0.117647	142.5
0.223982	157.5
0.742081	228.75
0.877828	303.75
0.927602	397.5
0.952489	528.75
0.977376	900
0.99095	1192.5
