Adsorption isotherm of Nitrogen on MIL-100
DOI: 10.1039/C2nj20587d
Adsorbate Nitrogen: InChIKey IJGRMHOSHXDMSA-UHFFFAOYSA-N
Temperature: 77 K
Tabular data in the source: 0
pressure (bar)	uptake (cm3(STP)/g)
0.00984362	186.905
0.0465757	240.092
0.158651	293.427
0.499008	339.342
0.825652	381.296
0.926251	418.871
0.967565	476.002
0.970013	519.285
