Adsorption isotherm of Nitrogen on MIL-100
DOI: 10.1039/C2nj20587d
Adsorbate Nitrogen: InChIKey IJGRMHOSHXDMSA-UHFFFAOYSA-N
Temperature: 77 K
Tabular data in the source: 0
pressure (bar)	uptake (cm3(STP)/g)
0.0135747	105
0.117647	135
0.638009	195
0.848416	262.5
0.920814	341.25
0.950226	405
0.972851	603.75
0.986425	813.75
0.99095	1192.5
