Adsorption isotherm of Nitrogen on MIL-100
DOI: 10.1039/C2nj20587d
Adsorbate Nitrogen: InChIKey IJGRMHOSHXDMSA-UHFFFAOYSA-N
Temperature: 77 K
Tabular data in the source: 0
pressure (bar)	uptake (cm3(STP)/g)
0.00540278	241.811
0.0485207	319.524
0.0932259	361.486
0.151143	397.112
0.247052	420.041
0.47853	459.508
0.705025	486.368
0.845583	519.717
0.924998	561.606
0.9698	656.138
0.991685	872.681
