Adsorption isotherm of Nitrogen on MIL-100
DOI: 10.1039/C2nj20587d
Adsorbate Nitrogen: InChIKey IJGRMHOSHXDMSA-UHFFFAOYSA-N
Temperature: 77 K
Tabular data in the source: 0
pressure (bar)	uptake (cm3(STP)/g)
0.00687801	145.079
0.0499573	201.764
0.12606	239.455
0.198837	266.638
0.283176	289.591
0.374128	312.531
0.455158	333.389
0.485029	398.513
0.554451	398.367
0.640397	396.083
0.989191	414.275
