Adsorption isotherm of Nitrogen on MIL-100
DOI: 10.1039/C2nj20587d
Adsorbate Nitrogen: InChIKey IJGRMHOSHXDMSA-UHFFFAOYSA-N
Temperature: 77 K
Tabular data in the source: 0
pressure (bar)	uptake (cm3(STP)/g)
0.00507527	133.78
0.0417474	171.23
0.171938	185.256
0.290683	191.392
0.443674	197.594
0.630898	199.93
0.95975	222.216
1.00101	265.576
