Adsorption isotherm of Ethanol on [Al4(OH)2(OCH3)4(H2N-bdc)3]*xH2O
DOI: 10.1039/B924657f
Adsorbate Ethanol: InChIKey LFQSCWFLJHTTHZ-UHFFFAOYSA-N
Temperature: 77 K
Tabular data in the source: 0
pressure (bar)	uptake (mmol/g)
0.00182509	0.00936194
0.0520772	1.36398
0.156951	1.77911
0.211573	1.9102
0.366699	2.21608
0.513086	2.50012
0.668212	2.8497
0.805859	3.24298
0.904178	3.66903
0.947875	4.00768
