Adsorption isotherm of Nitrogen on N2-WG-12/KOH/ZnCl2
DOI: 10.1007/s10450-017-9867-4
Article source: Figure 1
Adsorbate Nitrogen: InChIKey IJGRMHOSHXDMSA-UHFFFAOYSA-N
Kind: experiment
Isotherm type: excess
Temperature: 77 K
Tabular data in the source: 0
pressure (bar)	uptake (mmol/g)
0.001866	14.3096
0.011196	15.0628
0.016794	15.8787
0.024258	16.5063
0.033588	17.0084
0.046651	17.636
0.052249	17.887
0.057847	18.2636
0.080239	19.1423
0.089569	19.3933
0.111961	20.0209
0.143684	20.8368
0.175406	21.1506
0.21086	21.59
0.242583	21.9038
0.272439	22.2176
0.307894	22.3431
0.339616	22.4686
0.369472	22.5941
0.403061	22.7824
0.436649	22.7824
0.466506	22.9079
0.500094	23.0335
0.53928	23.2218
0.569137	23.3473
0.606457	23.6611
0.632581	23.6611
0.664304	23.7866
0.699758	23.7238
0.731481	23.9749
0.766935	24.0377
0.804256	24.2259
0.847174	24.4142
0.880762	24.6653
0.905021	24.6025
0.938609	24.8536
0.966599	25.1046
0.996456	26.2343
