Adsorption isotherm of Nitrogen on N2-WG-12/K2CO3
DOI: 10.1007/s10450-017-9867-4
Article source: Figure 1
Adsorbate Nitrogen: InChIKey IJGRMHOSHXDMSA-UHFFFAOYSA-N
Kind: experiment
Isotherm type: excess
Temperature: 77 K
Tabular data in the source: 0
pressure (bar)	uptake (mmol/g)
0.003746	9.60499
0.011238	10.3534
0.016856	11.1642
0.03184	11.7256
0.052442	12.2869
0.082409	13.1601
0.110502	13.7838
0.146088	14.4075
0.177927	14.7193
0.204148	15.0312
0.237861	15.4054
0.275319	15.7173
0.303413	15.9044
0.331507	16.0915
0.370838	16.2162
0.406424	16.4657
0.43639	16.5904
0.471976	16.5904
0.505689	16.7152
0.541274	16.8399
0.567495	16.8399
0.601207	16.9023
0.627428	16.8399
0.649903	17.1518
0.668633	17.1518
0.698599	17.2141
0.736058	17.3389
0.766024	17.526
0.799737	17.526
0.842814	17.7131
0.880273	17.9002
0.906494	18.0249
0.940206	18.3992
0.966427	18.6486
1.00201	19.6466
