Adsorption isotherm of Nitrogen on N2-WG-12/ZnCl2
DOI: 10.1007/s10450-017-9867-4
Article source: Figure 1
Adsorbate Nitrogen: InChIKey IJGRMHOSHXDMSA-UHFFFAOYSA-N
Kind: experiment
Isotherm type: excess
Temperature: 77 K
Tabular data in the source: 0
pressure (bar)	uptake (mmol/g)
0	11.125
0.003753	11.375
0.007506	11.9375
0.011258	12.5625
0.016888	12.8125
0.022517	13.1875
0.030022	13.375
0.037528	13.8125
0.052539	14.4375
0.076932	14.875
0.110707	15.375
0.140729	15.8125
0.168875	16.125
0.20265	16.25
0.240178	16.4375
0.268324	16.4375
0.302099	16.6875
0.33775	16.6875
0.369649	16.9375
0.4053	17
0.440951	17
0.47285	17.25
0.495367	17.3125
0.532894	17.375
0.570422	17.4375
0.602321	17.625
0.626714	17.75
0.667994	17.625
0.699893	17.875
0.735544	17.9375
0.759937	18.0625
0.799342	18.125
0.840622	18.3125
0.87815	18.4375
0.911925	18.6875
0.934442	18.6875
0.970093	19
1.00387	19.625
