Adsorption isotherm of Nitrogen on N2-WG-12
DOI: 10.1007/s10450-017-9867-4
Article source: Figure 1
Adsorbate Nitrogen: InChIKey IJGRMHOSHXDMSA-UHFFFAOYSA-N
Kind: experiment
Isotherm type: excess
Temperature: 77 K
Tabular data in the source: 0
pressure (bar)	uptake (mmol/g)
0.003718	9.83403
0.007437	10.1452
0.014873	10.4564
0.020451	11.2656
0.026028	11.5768
0.037183	11.8257
0.046479	12.1369
0.068789	12.6349
0.08924	12.8838
0.109691	13.2573
0.143156	13.5685
0.18034	13.8797
0.208228	14.0041
0.245411	14.1286
0.271439	14.1286
0.290031	14.1286
0.308623	14.2531
0.33837	14.3154
0.371835	14.3776
0.401582	14.3776
0.431328	14.5021
0.474089	14.6888
0.500118	14.6888
0.539161	14.8755
0.568907	14.8133
0.600513	15.0622
0.633978	15
0.673021	15.1245
0.704627	15.1867
0.734374	15.1245
0.76598	15.249
0.795727	15.3734
0.836628	15.4979
0.87753	15.7469
0.910995	15.7469
0.933306	15.7469
0.964911	16.0581
1.00024	16.556
