Adsorption isotherm of Nitrogen on N2-WG-12/KOH
DOI: 10.1007/s10450-017-9867-4
Article source: Figure 1
Adsorbate Nitrogen: InChIKey IJGRMHOSHXDMSA-UHFFFAOYSA-N
Kind: experiment
Isotherm type: excess
Temperature: 77 K
Tabular data in the source: 0
pressure (bar)	uptake (mmol/g)
0.003712	14.3451
0.009279	15.2807
0.01299	15.9667
0.024125	16.5281
0.029692	17.0894
0.040827	17.5884
0.051962	17.9626
0.059385	18.5239
0.077942	19.21
0.115058	20.0832
0.139183	20.6445
0.174442	21.2682
0.207846	21.7672
0.239394	21.8919
0.274654	22.2037
0.30249	22.3285
0.345173	22.578
0.365587	22.7027
0.400846	22.8274
0.43425	22.9522
0.471365	23.2017
0.508481	23.2017
0.538173	23.4511
0.567865	23.3264
0.604981	23.5759
0.630962	23.7006
0.66251	23.8254
0.701481	23.8254
0.731173	23.9501
0.760865	24.0748
0.797981	24.1996
0.836952	24.3867
0.8685	24.6985
0.90376	24.6362
0.933452	24.948
0.965	25.1975
0.996548	25.7588
