Adsorption isotherm of Nitrogen on MWCNT
DOI: 10.1016/j.ijhydene.2010.04.066
Adsorbate Nitrogen: InChIKey IJGRMHOSHXDMSA-UHFFFAOYSA-N
Temperature: 77 K
Tabular data in the source: 0
pressure (bar)	uptake (cm3(STP)/g)
0.0147506	28.9655
0.069249	35.1724
0.0989894	35.1724
0.128713	39.3103
0.155975	39.3103
0.198098	41.3793
0.242692	45.5172
0.292251	47.5862
0.341792	53.7931
0.391351	55.8621
0.440902	60
0.483017	64.1379
0.532567	68.2759
0.584596	72.4138
0.634146	76.5517
0.681209	82.7586
0.720855	84.8276
0.748091	91.0345
0.777823	93.1034
0.800102	99.3103
0.822382	105.517
0.837244	107.586
0.861976	120
0.88176	130.345
0.899075	138.621
0.913902	148.966
0.918808	161.379
0.928678	171.724
0.933584	184.138
0.93602	194.483
0.93843	211.034
0.94084	227.586
0.945745	240
0.953112	256.552
0.955351	314.483
0.957744	335.172
0.957932	289.655
0.960128	357.931
0.964931	395.172
