Adsorption isotherm of Hydrogen on Pt-MWCNT
DOI: 10.1016/j.ijhydene.2010.04.066
Adsorbate Hydrogen: InChIKey UFHFLCQGNIYNRP-UHFFFAOYSA-N
Temperature: 77 K
Tabular data in the source: 0
pressure (bar)	uptake (wt%)
0.027027	0.0145307
0.0432432	0.0289838
0.0648649	0.0434757
0.0864865	0.0436307
0.108108	0.0509542
0.135135	0.0583164
0.17027	0.0729052
0.210811	0.0731958
0.267568	0.0879396
0.335135	0.102761
0.424324	0.117737
0.52973	0.13283
0.672973	0.148193
0.845946	0.16377
1.07027	0.194052
