Adsorption isotherm of Hydrogen on Pt-MOFMC
DOI: 10.1016/j.ijhydene.2010.04.066
Adsorbate Hydrogen: InChIKey UFHFLCQGNIYNRP-UHFFFAOYSA-N
Temperature: 77 K
Tabular data in the source: 0
pressure (bar)	uptake (wt%)
0.0189189	0.2582
0.0216216	0.30123
0.027027	0.329943
0.0324324	0.387329
0.0432432	0.444754
0.0540541	0.50218
0.0648649	0.58111
0.0837838	0.65293
0.108108	0.746295
0.135135	0.839678
0.167568	0.933101
0.210811	1.04094
0.267568	1.14887
0.337838	1.2569
0.427027	1.37941
0.532432	1.49486
0.67027	1.61771
0.843243	1.74798
1.06757	1.90013
