Adsorption isotherm of Hydrogen on MWCNT
DOI: 10.1016/j.ijhydene.2010.04.066
Adsorbate Hydrogen: InChIKey UFHFLCQGNIYNRP-UHFFFAOYSA-N
Temperature: 77 K
Tabular data in the source: 0
pressure (bar)	uptake (wt%)
0.0540541	0.0362298
0.0810811	0.043592
0.135135	0.0583164
0.167568	0.0657173
0.210811	0.0731958
0.335135	0.102761
0.424324	0.117737
0.535135	0.132868
0.67027	0.148174
0.843243	0.178088
1.06757	0.20837
