Adsorption isotherm of Hydrogen on IRMOF-1
DOI: 10.1016/j.ijhydene.2010.04.066
Adsorbate Hydrogen: InChIKey UFHFLCQGNIYNRP-UHFFFAOYSA-N
Temperature: 298 K
Tabular data in the source: 0
pressure (bar)	uptake (wt%)
1.01511	0.0277675
9.86095	0.0690793
19.9669	0.0964254
28.8136	0.142373
49.2738	0.173875
67.7188	0.233285
94.4988	0.30158
