Adsorption isotherm of Hydrogen on Pt-MOFMC
DOI: 10.1016/j.ijhydene.2010.04.066
Adsorbate Hydrogen: InChIKey UFHFLCQGNIYNRP-UHFFFAOYSA-N
Temperature: 298 K
Tabular data in the source: 0
pressure (bar)	uptake (wt%)
1.04019	0.166839
10.182	0.449197
20.3114	0.606343
30.1916	0.782044
49.6643	0.938757
70.1454	1.08615
101.235	1.24696
