Adsorption isotherm of Hydrogen on Pt-MWCNT
DOI: 10.1016/j.ijhydene.2010.04.066
Adsorbate Hydrogen: InChIKey UFHFLCQGNIYNRP-UHFFFAOYSA-N
Temperature: 77 K
Tabular data in the source: 0
pressure (bar)	uptake (wt%)
0.766767	0.0509578
10.1335	0.180325
20.2478	0.254028
30.3655	0.346274
49.5681	0.405649
69.2783	0.478908
97.0692	0.551791
