Adsorption isotherm of Nitrogen on IRMOF-1
DOI: 10.1016/j.ijhydene.2010.04.066
Adsorbate Nitrogen: InChIKey IJGRMHOSHXDMSA-UHFFFAOYSA-N
Temperature: 77 K
Tabular data in the source: 0
pressure (bar)	uptake (cm3(STP)/g)
0.0116825	171.724
0.0240402	180
0.0438415	186.207
0.0586946	190.345
0.0809999	190.345
0.0983314	194.483
0.118158	194.483
0.133029	194.483
0.152855	194.483
0.165247	194.483
0.172682	194.483
0.194988	194.483
0.244538	198.621
0.294114	196.552
0.346151	198.621
0.390745	202.759
0.44032	200.69
0.487409	200.69
0.536968	202.759
0.584049	204.828
0.633616	204.828
0.683175	206.897
0.722829	206.897
0.752569	206.897
0.779823	208.966
0.799649	208.966
0.81699	211.034
0.83433	213.103
0.854148	215.172
0.871479	219.31
0.891306	219.31
0.906159	223.448
0.925952	231.724
0.935832	240
0.950625	258.621
0.955539	268.966
0.960427	285.517
