Adsorption isotherm of Hydrogen on IRMOF-1
DOI: 10.1016/j.ijhydene.2010.04.066
Adsorbate Hydrogen: InChIKey UFHFLCQGNIYNRP-UHFFFAOYSA-N
Temperature: 77 K
Tabular data in the source: 0
pressure (bar)	uptake (wt%)
0.0162162	0.143485
0.0216216	0.186535
0.0297297	0.222435
0.0378378	0.258336
0.0540541	0.301463
0.0648649	0.351719
0.0810811	0.402015
0.105405	0.459537
0.132432	0.517078
0.167568	0.574678
0.210811	0.639504
0.264865	0.704408
0.337838	0.776615
0.421622	0.856069
0.532432	0.921379
0.67027	1.01556
0.845946	1.10284
1.06757	1.21195
