Adsorption isotherm of Nitrogen on Pt-MOFMC
DOI: 10.1016/j.ijhydene.2010.04.066
Adsorbate Nitrogen: InChIKey IJGRMHOSHXDMSA-UHFFFAOYSA-N
Temperature: 77 K
Tabular data in the source: 0
pressure (bar)	uptake (cm3(STP)/g)
0.0108279	378.621
0.300481	455.172
0.340126	457.241
0.389668	463.448
0.41693	463.448
0.439235	463.448
0.483837	465.517
0.508612	467.586
0.535866	469.655
0.582946	471.724
0.602773	471.724
0.632514	471.724
0.677107	475.862
0.701891	475.862
0.719239	475.862
0.746493	477.931
0.776233	477.931
0.796052	480
0.830749	480
0.853054	480
0.870394	482.069
0.890204	486.207
0.905066	488.276
0.924841	500.69
0.937216	504.828
0.949591	508.966
0.956975	521.379
0.959436	525.517
0.961846	542.069
0.969178	566.897
