Adsorption isotherm of Hydrogen on MWCNT
DOI: 10.1016/j.ijhydene.2010.04.066
Adsorbate Hydrogen: InChIKey UFHFLCQGNIYNRP-UHFFFAOYSA-N
Temperature: 298 K
Tabular data in the source: 0
pressure (bar)	uptake (wt%)
0.760914	0.0185078
16.6749	0.0455846
30.5729	0.0959337
50.2747	0.122835
69.7248	0.154384
99.0267	0.204019
