Adsorption isotherm of Nitrogen on Pt-MWCNT
DOI: 10.1016/j.ijhydene.2010.04.066
Adsorbate Nitrogen: InChIKey IJGRMHOSHXDMSA-UHFFFAOYSA-N
Temperature: 77 K
Tabular data in the source: 0
pressure (bar)	uptake (cm3(STP)/g)
0.0147847	20.6897
0.034586	26.8966
0.0692746	28.9655
0.0816665	28.9655
0.121312	31.0345
0.153522	33.1034
0.178297	35.1724
0.200594	37.2414
0.245196	39.3103
0.292276	41.3793
0.344305	45.5172
0.391385	47.5862
0.440936	51.7241
0.490495	53.7931
0.535097	55.8621
0.584638	62.069
0.634197	64.1379
0.683747	68.2759
0.723384	72.4138
0.748142	78.6207
0.777857	84.8276
0.800145	88.9655
0.819938	97.2414
0.842209	105.517
0.857045	113.793
0.871873	124.138
0.8867	134.483
0.891623	142.759
0.901468	159.31
0.91133	171.724
0.916218	188.276
0.923542	215.172
0.925935	235.862
0.933225	271.034
0.935532	312.414
0.942779	357.931
