Adsorption isotherm of Nitrogen on MWCNT
DOI: 10.1016/j.ijhydene.2010.04.066
Adsorbate Nitrogen: InChIKey IJGRMHOSHXDMSA-UHFFFAOYSA-N
Temperature: 77 K
Tabular data in the source: 0
pressure (bar)	uptake (cm3(STP)/g)
0.00822134	409.655
0.295344	498.621
0.339947	500.69
0.387044	498.621
0.434116	502.759
0.486153	504.828
0.53572	504.828
0.602636	504.828
0.652204	504.828
0.696814	504.828
0.736468	504.828
0.74886	504.828
0.776122	504.828
0.798427	504.828
0.815785	502.759
0.835603	504.828
0.850473	504.828
0.865343	504.828
0.877735	504.828
0.885162	506.897
0.900023	508.966
0.934678	519.31
