Adsorption isotherm of Argon on C72H90Cu12N12Na4O65
DOI: 10.1039/C2cc32120c
Adsorbate Argon: InChIKey XKRFYHLGVUSROY-UHFFFAOYSA-N
Temperature: 77 K
Tabular data in the source: 0
pressure (bar)	uptake (cm3(STP)/g)
1.78e-06	13.4247
3.59e-06	30.6849
5.84e-06	51.7808
7.86e-06	72.8767
1.03e-05	90.137
1.31e-05	101.644
1.59e-05	110.274
1.87e-05	115.068
1.97e-05	119.863
2.32e-05	125.616
3.29e-05	137.123
3.98e-05	142.877
4.94e-05	149.589
5.81e-05	153.425
7.21e-05	159.178
8.26e-05	162.055
0.000102509	167.808
0.000130747	171.644
0.000166768	173.562
0.000196138	176.438
0.000224529	180.274
0.000278742	182.192
0.00038557	186.027
0.000547952	190.822
0.000844525	194.658
0.00110671	199.452
0.00149002	202.329
0.00175244	204.247
0.00206107	207.123
0.00242406	208.082
0.00285097	210
0.0039436	213.836
0.00575801	219.589
0.00863759	221.507
0.0104374	226.301
0.0133126	227.26
0.0165269	229.178
0.0222512	231.096
0.025472	233.014
0.0276242	233.973
0.0382111	236.849
0.054304	242.603
0.0656181	245.479
0.0958091	248.356
0.132528	252.192
0.155868	253.151
0.198807	257.945
0.260525	261.781
