Adsorption isotherm of Argon on C72H90Cu12N12Na4O65
DOI: 10.1039/C2cc32120c
Adsorbate Argon: InChIKey XKRFYHLGVUSROY-UHFFFAOYSA-N
Temperature: 77 K
Tabular data in the source: 0
pressure (bar)	uptake (cm3(STP)/g)
2.09e-06	21.0959
2.33e-06	23.9726
2.81e-06	29.726
4.11e-06	45.0685
4.83e-06	52.7397
5.68e-06	63.2877
8.29e-06	89.1781
1.03e-05	108.356
1.28e-05	118.904
1.54e-05	128.493
1.77e-05	134.247
1.97e-05	140.959
2.26e-05	144.795
2.73e-05	148.63
3.29e-05	155.342
4.09e-05	161.096
5.81e-05	169.726
7.21e-05	175.479
0.000310579	200.411
0.000396135	203.288
0.000562967	208.082
0.000822002	211.918
0.00110671	214.795
0.00137392	217.671
0.00170566	219.589
0.00211755	221.507
0.00277487	225.342
0.00405166	227.26
0.00560445	232.055
0.008183	235.89
0.0107234	236.849
0.0140521	238.767
0.0160862	243.562
0.0199707	245.479
0.0283813	248.356
0.0382111	251.233
0.0500734	256.986
0.0656181	262.74
0.0907661	272.329
0.122203	278.082
0.147664	287.671
0.178429	294.384
0.198807	301.096
0.227584	305.89
0.253576	312.603
0.275	316.438
