Adsorption isotherm of Nitrogen on NUS-5
DOI: 10.1039/c5ra04295j
Article source: Figure 4
Adsorbate Nitrogen: InChIKey IJGRMHOSHXDMSA-UHFFFAOYSA-N
Kind: experiment
Temperature: 298 K
Tabular data in the source: 0
pressure (bar)	uptake (mmol/g)
0.01445	0.00567
0.02694	0.00761
0.04072	0.01117
0.05231	0.01214
0.06828	0.01407
0.08052	0.01309
0.09198	0.02055
0.10653	0.01502
0.11156	0.02573
0.1207	0.01534
0.1283	0.02832
0.13448	0.01565
0.14556	0.02636
0.14633	0.01759
0.15972	0.01888
0.16024	0.02765
0.17338	0.01822
0.17544	0.02958
0.1878	0.01854
0.18986	0.03412
0.19913	0.03476
0.19952	0.02015
0.21269	0.02117
0.21691	0.03799
0.22876	0.02321
0.23133	0.03409
0.24028	0.02279
0.24627	0.04057
0.254	0.02234
0.25407	0.02237
0.26765	0.03991
0.26835	0.03962
0.28003	0.02317
0.28336	0.04249
0.28954	0.04379
0.29382	0.02276
0.30664	0.02275
0.3086	0.04378
0.32076	0.02642
0.32251	0.04766
0.33449	0.02688
0.33462	0.02692
0.34827	0.02849
0.35007	0.05219
0.36063	0.02976
0.36089	0.02978
0.37429	0.05412
0.37532	0.03172
0.38768	0.03171
0.38897	0.05346
0.4021	0.0541
0.40211	0.0541
0.41344	0.0317
0.41524	0.05539
0.42709	0.03212
0.42786	0.03136
0.44074	0.05602
0.44151	0.03428
0.45542	0.05991
0.45544	0.05993
0.46842	0.03573
0.46919	0.04017
0.48145	0.06357
0.48205	0.03858
0.49454	0.06305
0.49568	0.03939
0.50931	0.03938
0.50946	0.03999
0.51986	0.03937
0.52254	0.06663
0.53358	0.06714
0.53397	0.03977
0.54687	0.06868
0.54858	0.04017
0.56059	0.03935
0.56241	0.06918
0.5786	0.04261
0.57979	0.0702
0.5894	0.07123
0.58963	0.06928
0.60084	0.07328
0.60085	0.07328
0.61188	0.07482
0.61332	0.04442
0.62763	0.07739
0.62926	0.0475
0.63969	0.07789
0.64194	0.04955
0.65318	0.07788
0.65543	0.04645
0.66767	0.076
0.66954	0.0485
0.6826	0.04952
0.68262	0.04953
0.69523	0.08117
0.69836	0.04745
0.70501	0.08052
0.7092	0.04745
0.72098	0.07986
0.72126	0.05208
0.73619	0.05258
0.73644	0.05362
0.74763	0.0536
0.74957	0.08243
0.76271	0.08242
0.76378	0.05359
0.7743	0.08436
0.77626	0.05204
0.78627	0.05719
0.78821	0.085
0.79929	0.085
0.80171	0.05759
0.8142	0.05717
0.81551	0.08628
0.82654	0.0856
0.82711	0.08628
0.84276	0.05797
0.84488	0.08562
0.85441	0.08691
0.85509	0.06123
0.86883	0.08885
0.86954	0.05754
0.87785	0.05967
0.87798	0.05963
0.88931	0.10194
0.89189	0.06286
0.90606	0.06318
0.91261	0.10244
0.92048	0.06285
0.93181	0.10582
0.93224	0.10552
0.94521	0.06478
0.94798	0.10706
0.95912	0.06704
0.97231	0.11065
0.97393	0.06606
0.98075	0.06605
0.99623	0.10806
1.00561	0.07123
1.01156	0.11062
1.03214	0.07154
1.03303	0.11215
1.05081	0.11369
1.06635	0.11574
