Adsorption isotherm of Nitrogen on NUS-5
DOI: 10.1039/c5ra04295j
Article source: Figure 4
Adsorbate Nitrogen: InChIKey IJGRMHOSHXDMSA-UHFFFAOYSA-N
Kind: experiment
Temperature: 273 K
Tabular data in the source: 0
pressure (bar)	uptake (mmol/g)
0.01362	0.01503
0.02831	0.01595
0.04159	0.01882
0.05629	0.02364
0.07111	0.02309
0.0813	0.025
0.0938	0.02544
0.11082	0.02392
0.12333	0.02874
0.13648	0.0248
0.15053	0.02718
0.162	0.02909
0.17477	0.02904
0.18817	0.02802
0.20339	0.03039
0.21563	0.03084
0.22711	0.02982
0.24155	0.03025
0.25276	0.02973
0.26772	0.03016
0.28216	0.03059
0.29492	0.03103
0.30704	0.03439
0.32186	0.03622
0.33599	0.04169
0.34866	0.04225
0.36133	0.04098
0.37481	0.04093
0.38797	0.04579
0.4021	0.04451
0.41363	0.04815
0.42593	0.04968
0.43882	0.04963
0.4513	0.05267
0.46593	0.05262
0.47944	0.05489
0.49295	0.05677
0.50703	0.05823
0.52035	0.05971
0.53347	0.06048
0.54677	0.06121
0.56079	0.06386
0.57471	0.06188
0.58743	0.06284
0.60059	0.06309
0.61472	0.06641
0.62771	0.06698
0.64038	0.06755
0.65338	0.06995
0.66621	0.07236
0.68164	0.07721
0.69329	0.07872
0.70721	0.07867
0.71998	0.07716
0.73519	0.07711
0.74744	0.07901
0.76007	0.08383
0.77283	0.0867
0.78624	0.08811
0.80029	0.08806
0.8128	0.0885
0.82595	0.09089
0.83949	0.0923
0.85405	0.0937
0.86798	0.09317
0.88151	0.0936
0.89402	0.09356
0.90614	0.09692
0.91985	0.09994
0.9339	0.09989
0.94657	0.10137
0.96005	0.10347
0.97203	0.10522
0.9838	0.10518
0.99342	0.10669
1.00498	0.10781
1.02642	0.10962
1.03313	0.10813
1.04176	0.11053
1.05375	0.11098
1.06626	0.11142
