Adsorption isotherm of Oxygen on NUS-5
DOI: 10.1039/c5ra04295j
Article source: Figure 3
Adsorbate Oxygen: InChIKey MYMOFIZGZYHOMD-UHFFFAOYSA-N
Kind: experiment
Temperature: 298 K
Tabular data in the source: 0
pressure (bar)	uptake (cm3(STP)/g)
0.369	0.135
1.045	1.169
2.956	4.525
3.357	5.613
7.77	12.755
8.116	13.397
12.486	19.554
13.122	21.075
17.46	25.741
18.101	27.361
22.44	31.494
23.024	32.901
27.459	36.712
28.059	37.524
32.493	41.108
33.038	41.7
37.377	44.923
37.997	45.144
42.473	48.398
42.931	48.579
47.442	51.198
47.934	51.155
52.274	53.692
52.982	53.243
56.889	56.447
57.916	54.813
62.113	58.792
63.022	57.4
64.089	59.194
67.922	58.122
67.979	58.133
69.41	61.671
72.993	59.269
73.154	59.303
74.589	61.724
77.993	61.399
78.065	61.444
79.522	61.612
83.042	61.999
83.244	62.107
84.426	63.328
88.093	63.554
88.196	63.589
92.467	64.126
93.726	65.159
97.401	63.941
99.026	65.475
99.747	66.775
