Adsorption isotherm of Carbon Dioxide on NUS-5
DOI: 10.1039/c5ra04295j
Article source: Figure 4
Adsorbate Carbon Dioxide: InChIKey CURLTUGMZLYLDI-UHFFFAOYSA-N
Kind: experiment
Temperature: 273 K
Tabular data in the source: 0
pressure (bar)	uptake (mmol/g)
0.01379	0.08578
0.02676	0.16482
0.03066	0.17033
0.04039	0.23712
0.04169	0.23405
0.05337	0.31125
0.05515	0.28796
0.06651	0.37497
0.06846	0.34983
0.08014	0.44331
0.0803	0.44481
0.09295	0.5073
0.09441	0.4742
0.10674	0.56918
0.10739	0.56962
0.12037	0.63657
0.12118	0.61082
0.13399	0.69845
0.13513	0.66473
0.14649	0.75603
0.1473	0.71802
0.15946	0.77957
0.15963	0.77929
0.1731	0.83749
0.17358	0.8712
0.18591	0.88649
0.18672	0.93001
0.19873	0.93733
0.20019	0.98392
0.21285	0.98879
0.21349	1.03353
0.22631	1.08989
0.22647	1.08944
0.23962	1.13561
0.23977	1.13706
0.25308	1.18667
0.25325	1.13518
0.26654	1.23506
0.26752	1.17192
0.27969	1.28284
0.28067	1.21357
0.29284	1.26441
0.29331	1.33184
0.30565	1.37656
0.30792	1.3128
0.31944	1.34978
0.31977	1.35016
0.33291	1.45678
0.33372	1.38506
0.34622	1.43162
0.3467	1.44146
0.35904	1.46713
0.36049	1.53762
0.37023	1.5045
0.37298	1.57927
0.38337	1.54247
0.38645	1.61908
0.39814	1.58595
0.39959	1.65828
0.41096	1.61901
0.41322	1.69379
0.42556	1.7287
0.42702	1.65943
0.43902	1.70723
0.43952	1.70046
0.45234	1.73292
0.45379	1.7985
0.46516	1.76537
0.46693	1.8377
0.47668	1.79415
0.47975	1.86709
0.4929	1.82103
0.4929	1.82108
0.50685	1.93199
0.50718	1.93293
0.51676	1.89396
0.52081	1.96628
0.53265	1.99506
0.53396	1.91965
0.5458	2.02444
0.54597	1.95272
0.56008	2.05567
0.56073	1.98517
0.57225	2.01334
0.57338	2.08996
0.58361	2.03599
0.58701	2.11505
0.59627	2.07028
0.60016	2.14138
0.61185	2.1015
0.61395	2.17321
0.62661	2.1977
0.62726	2.1364
0.63927	2.16518
0.64089	2.22034
0.6516	2.19457
0.65241	2.24789
0.66378	2.21415
0.66653	2.27299
0.67725	2.23618
0.68081	2.29808
0.69217	2.26556
0.69379	2.32502
0.70596	2.34828
0.70613	2.29249
0.71927	2.37031
0.72204	2.31329
0.7321	2.34024
0.73241	2.39663
0.74653	2.4113
0.748	2.36839
0.75935	2.43395
0.76049	2.39042
0.77315	2.45598
0.77478	2.41613
0.78694	2.47924
0.78938	2.44
0.80009	2.49575
0.80334	2.46203
0.81421	2.51594
0.81648	2.48161
0.82638	2.54043
0.82882	2.49874
0.84017	2.55816
0.84115	2.52506
0.85332	2.57774
0.85462	2.54035
0.86419	2.55871
0.8663	2.60162
0.87994	2.57767
0.88042	2.61261
0.89291	2.63158
0.89389	2.58928
0.9072	2.65116
0.91077	2.61682
0.92034	2.6689
0.92521	2.63517
0.93381	2.68725
0.93657	2.66088
0.94744	2.70499
0.95232	2.67249
0.95734	2.71599
0.96222	2.68656
0.97325	2.73495
0.97958	2.70551
0.98185	2.75209
0.98802	2.71959
1.00441	2.73916
1.00668	2.77593
1.01658	2.75568
1.03021	2.76851
1.03313	2.80283
1.04044	2.78442
1.05586	2.80951
1.06722	2.82113
