Adsorption isotherm of Nitrogen on NUS-5
DOI: 10.1039/c5ra04295j
Article source: Figure 3
Adsorbate Nitrogen: InChIKey IJGRMHOSHXDMSA-UHFFFAOYSA-N
Kind: experiment
Temperature: 298 K
Tabular data in the source: 0
pressure (bar)	uptake (cm3(STP)/g)
1.122	0.279
2.944	2.728
3.392	3.318
7.541	7.414
8.01	7.275
12.399	11.786
12.915	12.181
17.384	16.127
18.083	16.948
22.277	20.363
23.043	21.445
27.373	24.636
27.987	25.422
32.223	28.472
32.736	28.828
37.448	31.797
37.737	31.971
42.313	35.633
42.846	35.417
47.082	38.071
47.637	38.01
52.017	40.199
52.695	40.199
57.176	43.061
57.702	42.523
62.14	44.719
62.716	43.98
66.7	46.828
68.169	45.638
72.127	48.658
73.235	47.575
73.764	48.625
77.794	49.275
78.009	47.674
82.187	51.346
82.862	48.798
87.322	50.995
87.848	50.267
92.154	51.631
92.37	51.369
97.052	52.766
