Adsorption isotherm of Nitrogen on NUS-5
DOI: 10.1039/c5ra04295j
Article source: Figure 3
Adsorbate Nitrogen: InChIKey IJGRMHOSHXDMSA-UHFFFAOYSA-N
Kind: experiment
Temperature: 77 K
Tabular data in the source: 0
pressure (bar)	uptake (cm3(STP)/g)
0.000507	21.499
0.000648	10.475
0.00077	32.03
0.000882	53.121
0.001003	73.894
0.001013	63.479
0.001125	94.407
0.001256	84.426
0.001277	42.532
0.001641	102.103
0.004114	108.729
0.010619	110.609
0.015938	111.525
0.021035	112.259
0.024956	112.802
0.03132	113.619
0.034795	113.495
0.041604	114.574
0.049396	114.625
0.051503	115.645
0.061525	116.889
0.062852	115.792
0.072336	118.25
0.073187	116.777
0.082225	119.523
0.083188	117.943
0.091476	120.681
0.092702	118.746
0.101639	121.553
0.105996	119.694
0.111072	122.683
0.118135	120.715
0.122309	123.777
0.130274	121.663
0.132898	124.744
0.142321	122.695
0.142412	122.648
0.150772	123.487
0.151754	126.84
0.162302	124.965
0.162434	124.988
0.171938	125.486
0.173499	128.727
0.184563	126.47
0.185344	127
0.194331	127.107
0.195496	130.434
0.202792	131.013
0.206044	128.149
0.213472	132.258
0.217504	128.902
0.223888	133.126
0.23248	130.002
0.233392	133.85
0.243413	134.66
0.24394	131.044
0.252664	131.449
0.253566	135.586
0.261641	131.999
0.262736	136.723
0.272493	137.434
0.274013	132.781
0.283649	138.546
0.285341	133.562
0.293488	139.294
0.296771	134.245
0.304482	139.859
0.304978	135.157
0.313753	140.57
0.3181	136.069
0.323673	141.063
0.329742	136.47
0.334332	141.938
0.340077	137.163
0.345164	142.522
0.347464	137.601
0.353938	143.36
0.355833	138.111
0.364517	143.98
0.364851	138.768
0.372724	144.582
0.374203	139.315
0.383221	145.111
0.385521	140.008
0.392908	140.591
0.393475	145.913
0.401267	141.065
0.404297	146.479
0.41292	141.503
0.41447	147.026
0.424562	147.846
0.426041	142.561
0.436944	148.692
0.438839	143.145
0.445931	149.129
0.448181	144.056
0.456895	149.772
0.460492	144.676
0.465153	150.393
0.470989	145.296
0.475488	151.151
0.480341	145.734
0.486958	151.725
0.495925	146.318
0.496675	152.392
0.506392	153.104
0.511833	147.412
0.517761	153.724
0.527468	154.368
0.527913	153.613
0.534641	148.506
0.537185	154.735
0.547925	155.294
0.548138	155.379
0.557602	149.637
0.557652	149.623
0.566538	156.574
0.568099	150.148
0.577694	157.125
0.580896	150.695
0.58886	157.539
0.593197	151.097
0.597949	157.952
0.599266	151.425
0.60796	158.497
0.619278	159.044
0.619613	158.327
0.627648	159.373
0.631427	152.702
0.637324	159.774
0.641266	153.395
0.648642	160.212
0.652259	153.76
0.659636	160.577
0.663902	154.562
0.669647	161.197
0.674399	155.036
0.679323	161.598
0.688351	155.292
0.689	161.963
0.697531	161.705
0.69819	162.473
0.708363	156.459
0.708849	156.462
0.720005	163.167
0.723947	156.897
0.72952	163.459
0.735427	157.627
0.739855	163.97
0.746745	158.028
0.749866	164.407
0.75708	158.648
0.759532	164.971
0.768236	159.086
0.769685	165.202
0.776605	159.633
0.779068	165.492
0.785005	159.567
0.790264	165.897
0.799475	160.302
0.800417	166.1
0.809273	166.39
0.812282	161.083
0.820206	166.767
0.826133	161.543
0.831017	167.056
0.836884	162.003
0.839478	167.519
0.846185	162.462
0.849509	167.722
0.857757	162.876
0.860047	168.215
0.86871	163.657
0.87098	168.571
0.877393	164.163
0.880899	169.031
0.8871	164.622
0.891447	169.031
0.898682	164.898
0.9024	169.445
0.907153	165.725
0.910669	169.721
0.919352	166.093
0.921824	170.089
0.928644	166.736
0.932575	170.273
0.940225	167.747
0.941259	170.778
0.947044	168.115
0.95055	171.238
0.9582	168.666
0.961716	171.422
0.969366	169.31
0.976601	171.928
0.981768	170.366
0.986936	172.296
0.993542	171.194
0.995204	172.755
1.00346	172.158
