Adsorption isotherm of Carbon Dioxide on NUS-5
DOI: 10.1039/c5ra04295j
Article source: Figure 4
Adsorbate Carbon Dioxide: InChIKey CURLTUGMZLYLDI-UHFFFAOYSA-N
Kind: experiment
Temperature: 298 K
Tabular data in the source: 0
pressure (bar)	uptake (mmol/g)
0.01314	0.0501
0.02645	0.08365
0.04009	0.11923
0.04265	0.109
0.0534	0.15523
0.05841	0.15126
0.06688	0.18877
0.06904	0.17033
0.08019	0.22067
0.08214	0.20589
0.09367	0.25053
0.09748	0.23681
0.10699	0.2853
0.10955	0.26773
0.1216	0.31966
0.12346	0.29247
0.13394	0.35157
0.13676	0.32906
0.14612	0.37897
0.14883	0.36101
0.15927	0.40965
0.16356	0.39038
0.17258	0.44319
0.17767	0.42131
0.18752	0.47428
0.18913	0.44347
0.20035	0.50291
0.20324	0.478
0.21301	0.53236
0.21675	0.5084
0.22617	0.56345
0.22902	0.53417
0.24045	0.59249
0.24395	0.56612
0.25275	0.61388
0.25328	0.61663
0.26676	0.64894
0.26768	0.6192
0.2804	0.68207
0.28098	0.68305
0.29305	0.67177
0.29371	0.70539
0.30248	0.69884
0.30579	0.73168
0.31709	0.72011
0.32023	0.75668
0.33234	0.78492
0.3343	0.75038
0.346	0.8109
0.34778	0.77656
0.36018	0.83849
0.36174	0.80397
0.37307	0.8254
0.37311	0.82524
0.38691	0.85142
0.38763	0.88459
0.39811	0.87514
0.39974	0.91381
0.41143	0.89846
0.41366	0.93849
0.42458	0.92586
0.42693	0.96186
0.43789	0.94631
0.43969	0.98621
0.45251	1.01178
0.45258	1.01186
0.46598	0.99131
0.4665	1.03166
0.47946	1.01953
0.47951	1.01963
0.49164	1.04326
0.49292	1.07939
0.50512	1.06943
0.50709	1.10374
0.51746	1.08784
0.51998	1.12484
0.53353	1.11075
0.53403	1.11215
0.54311	1.12997
0.54717	1.16802
0.55529	1.15411
0.55954	1.19074
0.57179	1.17386
0.5732	1.20957
0.58377	1.19139
0.5862	1.2281
0.59795	1.21509
0.5994	1.25413
0.61148	1.23879
0.61321	1.27629
0.62424	1.26477
0.62691	1.2951
0.63468	1.2784
0.64041	1.31597
0.6534	1.29587
0.65412	1.33452
0.6666	1.31417
0.66824	1.35565
0.67775	1.33427
0.67969	1.37086
0.6935	1.39379
0.69473	1.35462
0.70762	1.4108
0.70915	1.37215
0.71989	1.42812
0.7202	1.43012
0.73288	1.45228
0.73349	1.44793
0.74618	1.46852
0.74904	1.43811
0.7608	1.48707
0.76152	1.4546
0.77298	1.46697
0.77308	1.46765
0.78668	1.5198
0.78971	1.4904
0.79967	1.53861
0.80582	1.51183
0.81328	1.55639
0.816	1.52741
0.82698	1.54466
0.8276	1.54397
0.84059	1.58757
0.84074	1.5615
0.85419	1.60715
0.85891	1.57741
0.86647	1.62081
0.86935	1.59169
0.8797	1.63841
0.88159	1.60728
0.89326	1.65641
0.89616	1.63065
0.90568	1.67032
0.90904	1.64754
0.91794	1.66539
0.91948	1.6877
0.93271	1.69977
0.93379	1.68
0.94651	1.71797
0.94899	1.69558
0.95902	1.7327
0.96214	1.70955
0.97245	1.72383
0.97249	1.72406
0.98142	1.75581
0.98907	1.74039
1.00179	1.75325
1.00724	1.78519
1.01498	1.76382
1.02818	1.78057
1.03483	1.80634
1.04168	1.79809
1.0561	1.81458
1.06684	1.82309
