Adsorption isotherm of Nitrogen on ppz-Mg2(dondc)
DOI: 10.1039/c5ta02357b
Article source: Figure 6
Adsorbate Nitrogen: InChIKey IJGRMHOSHXDMSA-UHFFFAOYSA-N
Kind: experiment
Temperature: 298 K
Tabular data in the source: 0
pressure (bar)	uptake (mmol/g)
0.00117	0.00248
0.03572	0.00292
0.071	0.0021
0.09212	0.00295
0.14156	0.00172
0.15401	0.00466
0.20434	0.00378
0.21587	0.00412
0.26694	0.00514
0.27711	0.00548
0.32856	0.00751
0.33941	0.00485
0.38902	0.00488
0.39871	0.00488
0.45045	0.00691
0.45897	0.00692
0.51013	0.00761
0.52273	0.00695
0.57292	0.00698
0.58551	0.00832
0.63609	0.00901
0.70663	0.01038
0.76825	0.01042
0.81612	0.01444
0.82968	0.01179
0.85972	0.01513
0.89092	0.01648
0.92231	0.02116
0.95273	0.02384
1.00157	0.02187
1.01377	0.02787
1.044	0.03189
1.09555	0.03725
1.10621	0.03858
1.13838	0.04327
1.16783	0.04728
1.19864	0.05262
