Adsorption isotherm of Carbon Dioxide on mmen-Mg2(dondc)
DOI: 10.1039/c5ta02357b
Article source: Figure 4
Adsorbate Carbon Dioxide: InChIKey CURLTUGMZLYLDI-UHFFFAOYSA-N
Kind: experiment
Temperature: 313 K
Tabular data in the source: 0
pressure (bar)	uptake (mmol/g)
0.00062	0.8041
0.00079	0.33473
0.00107	0.92428
0.0011	0.05658
0.00196	1.17522
0.0045	1.42993
0.00958	1.90233
0.0217	2.50473
0.04614	2.75944
0.07793	2.88718
0.12666	2.99375
0.161	3.04666
0.20689	3.09655
0.24678	3.1366
0.28892	3.1744
0.32896	3.20614
0.372	3.2394
0.41264	3.26888
0.45448	3.29609
0.49602	3.32783
0.53726	3.35882
0.5782	3.38376
0.61989	3.41626
0.66158	3.44272
0.70327	3.46312
0.74376	3.48882
0.78575	3.51603
0.82654	3.53568
0.86793	3.55912
0.90947	3.57952
0.95116	3.6022
0.9921	3.62185
1.03274	3.64528
1.07428	3.66342
1.11612	3.68685
1.15736	3.70801
1.19965	3.7254
