Adsorption isotherm of Carbon Dioxide on mmen-Mg2(dondc)
DOI: 10.1039/c5ta02357b
Article source: Figure 4
Adsorbate Carbon Dioxide: InChIKey CURLTUGMZLYLDI-UHFFFAOYSA-N
Kind: experiment
Temperature: 298 K
Tabular data in the source: 0
pressure (bar)	uptake (mmol/g)
0.00104	0.47337
0.00126	0.05727
0.0018	1.56937
0.00298	1.80118
0.00396	2.14375
0.01279	2.69413
0.0197	2.80083
0.03946	2.94229
0.08278	3.0837
0.09897	3.11964
0.14015	3.19511
0.17538	3.2454
0.21013	3.2885
0.24703	3.33879
0.2813	3.38189
0.31689	3.42079
0.35164	3.4603
0.38699	3.50399
0.42269	3.5405
0.45804	3.5788
0.49291	3.6207
0.52873	3.662
0.56301	3.6949
0.60014	3.7344
0.63434	3.77622
0.6691	3.80233
0.70395	3.8389
0.73998	3.87554
0.77597	3.91022
0.81121	3.94414
0.84584	3.97731
0.88093	4.00897
0.91632	4.03836
0.95246	4.07228
0.98725	4.1047
1.02203	4.13409
1.05667	4.16801
1.09251	4.19891
1.12805	4.23132
1.16374	4.25996
1.19972	4.28557
