Adsorption isotherm of Carbon Dioxide on Mg2(dondc)
DOI: 10.1039/c5ta02357b
Article source: Figure 4
Adsorbate Carbon Dioxide: InChIKey CURLTUGMZLYLDI-UHFFFAOYSA-N
Kind: experiment
Temperature: 313 K
Tabular data in the source: 0
pressure (bar)	uptake (mmol/g)
0.001	0.36
0.00144	0.0684
0.00145	0.0688
0.00262	0.6537
0.0038	0.8998
0.00571	1.1256
0.01013	1.4846
0.01292	1.764
0.01867	2.186
0.02485	2.5248
0.03605	2.9551
0.04813	3.2677
0.0605	3.4947
0.07347	3.6848
0.08585	3.8345
0.0969	3.9498
0.11046	4.0603
0.12151	4.1518
0.13418	4.2397
0.14744	4.3145
0.15923	4.3679
0.17117	4.4273
0.19622	4.5258
0.21997	4.6106
0.24466	4.6869
0.26898	4.7542
0.29405	4.8184
0.31819	4.8692
0.34232	4.926
0.36683	4.9813
0.3919	5.0291
0.41548	5.0724
0.44073	5.1157
0.46542	5.1582
0.48946	5.197
0.51342	5.2373
0.53839	5.2754
0.56345	5.3134
0.58657	5.3478
0.61238	5.3836
0.63559	5.4179
0.66065	5.4485
0.68507	5.4895
0.70967	5.5178
0.73362	5.5521
0.75794	5.5827
0.78199	5.6148
0.80696	5.6453
0.83277	5.6819
0.85718	5.7095
0.88058	5.7393
0.90574	5.7721
0.93052	5.8012
0.9542	5.8325
0.97907	5.8646
1.00265	5.8906
1.02707	5.9212
1.05093	5.9443
1.07637	5.9696
1.09985	6.0047
1.12492	6.0293
1.14915	6.0681
1.17394	6.0874
1.19993	6.1157
