Adsorption isotherm of Carbon Dioxide on mmen-Mg2(dondc)
DOI: 10.1039/c5ta02357b
Article source: Figure 4
Adsorbate Carbon Dioxide: InChIKey CURLTUGMZLYLDI-UHFFFAOYSA-N
Kind: experiment
Temperature: 333 K
Tabular data in the source: 0
pressure (bar)	uptake (mmol/g)
0.00072	0.33537
0.00072	0.33467
0.00095	0.02639
0.00119	0.10556
0.00143	0.46781
0.0025	0.63035
0.00512	0.80129
0.01107	1.01361
0.02274	1.24694
0.05404	1.7316
0.07095	1.88577
0.09606	2.03815
0.12022	2.12696
0.14676	2.20198
0.17093	2.2494
0.19473	2.28303
0.21996	2.31726
0.24341	2.34489
0.26852	2.37192
0.29233	2.39296
0.31792	2.40979
0.34158	2.42481
0.36643	2.44961
0.39071	2.46821
0.41555	2.48349
0.43907	2.4921
0.46458	2.51119
0.48829	2.5198
0.51314	2.5346
0.53789	2.5494
0.56198	2.56229
0.58644	2.57281
0.61082	2.58523
0.63547	2.59955
0.66126	2.60912
0.6845	2.61582
0.7084	2.62777
0.73364	2.64122
0.75868	2.65033
0.78222	2.65415
0.80652	2.66704
0.83111	2.67691
0.85615	2.6898
0.8818	2.69513
0.90564	2.705
0.92963	2.71335
0.95393	2.72775
0.97882	2.73157
1.00266	2.74144
1.02771	2.74602
1.0523	2.75664
1.07584	2.76424
1.10104	2.77184
1.12608	2.78397
1.15022	2.79006
1.17481	2.80144
1.19881	2.80677
