Adsorption isotherm of Nitrogen on ppz-Mg2(dondc)
DOI: 10.1039/c5ta02357b
Article source: Figure 3
Adsorbate Nitrogen: InChIKey IJGRMHOSHXDMSA-UHFFFAOYSA-N
Kind: experiment
Temperature: 77 K
Tabular data in the source: 0
pressure (bar)	uptake (cm3(STP)/g)
0.004428	6.89
0.012716	8.17
0.022393	8.46
0.045323	10.19
0.067837	10.35
0.091051	11.79
0.113433	12.09
0.13692	11.55
0.159161	12.7
0.182091	12.44
0.205619	12.68
0.229461	13.78
0.251225	14.87
0.274196	15.07
0.296649	15.63
0.319285	15.65
0.342256	16.2
0.365581	17.12
0.389078	17.5
0.411714	17.7
0.433114	17.54
0.456266	18.45
0.478376	18.11
0.502217	19.21
0.524681	19.23
0.547651	19.61
0.570277	19.81
0.592559	20.36
0.615185	20.74
0.638165	21.3
0.661662	21.85
0.683771	23.3
0.706053	24.58
0.728679	25.85
0.752004	27.3
0.77464	29.64
0.798664	33.06
0.820418	36.3
0.843754	39.9
0.866339	45.31
0.890464	50.4
0.913283	54.82
0.93445	59.34
0.957481	64.09
0.980066	69.86
0.999814	83.84
