Adsorption isotherm of Nitrogen on Mg2(dondc)
DOI: 10.1039/c5ta02357b
Article source: Figure 3
Adsorbate Nitrogen: InChIKey IJGRMHOSHXDMSA-UHFFFAOYSA-N
Kind: experiment
Temperature: 77 K
Tabular data in the source: 0
pressure (bar)	uptake (cm3(STP)/g)
0.000628	129.65
0.0008	154.24
0.000882	24.41
0.000973	177.31
0.001064	51.41
0.001145	199.93
0.001489	259.92
0.001672	209.23
0.001753	232.56
0.001925	284.96
0.003232	302.31
0.005928	314.74
0.008542	329.67
0.011581	336.47
0.020113	351.68
0.044208	368.33
0.065527	377.12
0.084991	381.84
0.104942	385.92
0.12621	389.54
0.146597	392.16
0.167095	394.09
0.186823	397.04
0.207858	398.55
0.228042	400.36
0.248743	402.35
0.269454	403.8
0.289111	405.25
0.310338	407.24
0.330867	408.87
0.351051	409.97
0.371235	411.24
0.391945	412.69
0.413001	413.96
0.43283	415.59
0.453176	416.34
0.473482	417.92
0.493919	419.64
0.514224	421.08
0.535624	422.53
0.556061	423.54
0.576367	425.69
0.596804	427.7
0.617444	429.56
0.638327	431.19
0.659372	433.72
0.679384	435.52
0.700439	438.23
0.720796	441.47
0.74098	444.89
0.761164	447.77
0.782047	451.55
0.802575	455.86
0.823104	460.71
0.844159	465.38
0.865042	470.95
0.884881	476.33
0.906281	481.36
0.926637	486.93
0.946467	492.85
0.966651	498.77
0.987017	509.7
1.0058	531.9
