Adsorption isotherm of Nitrogen on en-Mg2(dondc)
DOI: 10.1039/c5ta02357b
Article source: Figure 6
Adsorbate Nitrogen: InChIKey IJGRMHOSHXDMSA-UHFFFAOYSA-N
Kind: experiment
Temperature: 298 K
Tabular data in the source: 0
pressure (bar)	uptake (mmol/g)
0.00106	0.00377
0.03506	0.00449
0.06156	0.00705
0.09106	0.00888
0.12269	0.01327
0.15289	0.018
0.18414	0.02148
0.214	0.02555
0.24516	0.02699
0.27569	0.03046
0.30769	0.03338
0.33769	0.03484
0.36869	0.0407
0.40019	0.04582
0.43119	0.04728
0.46119	0.05387
0.49194	0.05899
0.52344	0.06045
0.55294	0.06557
0.58469	0.06777
0.61594	0.07216
0.64569	0.07215
0.67644	0.07801
0.70769	0.0824
0.73769	0.08386
0.76869	0.08898
0.79969	0.0919
0.83094	0.09556
0.86094	0.09849
0.89069	0.10434
0.92269	0.10507
0.95444	0.10946
1.00807	0.11274
1.01369	0.11421
1.0472	0.1153
1.09657	0.12042
1.10682	0.12115
1.13832	0.12187
1.19432	0.12369
