Adsorption isotherm of Nitrogen on en-Mg2(dondc)
DOI: 10.1039/c5ta02357b
Article source: Figure 3
Adsorbate Nitrogen: InChIKey IJGRMHOSHXDMSA-UHFFFAOYSA-N
Kind: experiment
Temperature: 77 K
Tabular data in the source: 0
pressure (bar)	uptake (cm3(STP)/g)
0.002695	4.61
0.028807	6.48
0.057401	8.35
0.070938	8.5
0.095935	10.37
0.11928	11.1
0.142493	10.69
0.165616	11.21
0.189285	10.87
0.212438	11.78
0.235935	11.8
0.259777	13.08
0.283102	12.56
0.306417	14.01
0.330269	13.49
0.354111	14.05
0.376736	14.96
0.400406	15.16
0.423549	15.72
0.446945	14.61
0.47106	15.31
0.493645	16.23
0.516889	16.7
0.540133	16.27
0.564471	16.29
0.587503	16.76
0.610747	17.68
0.635966	17.7
0.658764	18.17
0.68289	18.19
0.70504	18.21
0.728932	18.23
0.752622	19.6
0.775815	21.91
0.800528	23.01
0.823337	25.17
0.845091	27.34
0.870595	30.74
0.892957	34.81
0.917082	40.92
0.978698	60.12
