Adsorption isotherm of Carbon Dioxide on ppz-Mg2(dondc)
DOI: 10.1039/c5ta02357b
Article source: Figure 4
Adsorbate Carbon Dioxide: InChIKey CURLTUGMZLYLDI-UHFFFAOYSA-N
Kind: experiment
Temperature: 313 K
Tabular data in the source: 0
pressure (bar)	uptake (mmol/g)
0.00091	0.57637
0.00104	0.19961
0.00105	0.25745
0.00185	0.07935
0.00525	0.90755
0.0085	1.08888
0.02009	1.37122
0.0383	1.55098
0.09628	1.78458
0.1166	1.83421
0.16239	1.92485
0.205	1.99049
0.24675	2.04493
0.28836	2.09961
0.32954	2.14047
0.37104	2.18513
0.41207	2.2249
0.4531	2.26575
0.49552	2.30444
0.5367	2.34313
0.57835	2.37639
0.62	2.41399
0.66273	2.4537
0.70432	2.48668
0.74436	2.52101
0.78614	2.55467
0.8289	2.58833
0.86796	2.61925
0.91013	2.6488
0.95172	2.67904
0.99331	2.71407
1.0347	2.73952
1.07571	2.76496
1.1173	2.79452
1.15928	2.82407
1.1997	2.8502
