Adsorption isotherm of Nitrogen on mmen-Mg2(dondc)
DOI: 10.1039/c5ta02357b
Article source: Figure 6
Adsorbate Nitrogen: InChIKey IJGRMHOSHXDMSA-UHFFFAOYSA-N
Kind: experiment
Temperature: 298 K
Tabular data in the source: 0
pressure (bar)	uptake (mmol/g)
0.00117	0.00714
0.01326	0.01019
0.023	0.02087
0.04907	0.02469
0.09917	0.04759
0.14911	0.06515
0.19928	0.0839
0.2484	0.10026
0.29879	0.11445
0.35004	0.13177
0.39911	0.14668
0.45056	0.16064
0.50003	0.17412
0.5497	0.18759
0.59986	0.20251
0.64883	0.21646
0.70018	0.22706
0.74965	0.23622
0.79961	0.25064
0.84885	0.26217
0.90033	0.2743
0.94945	0.28704
0.99968	0.30098
1.05004	0.31311
1.09953	0.32524
1.15026	0.34403
1.19938	0.3483
