Adsorption isotherm of Carbon Dioxide on en-Mg2(dondc)
DOI: 10.1039/c5ta02357b
Article source: Figure 4
Adsorbate Carbon Dioxide: InChIKey CURLTUGMZLYLDI-UHFFFAOYSA-N
Kind: experiment
Temperature: 298 K
Tabular data in the source: 0
pressure (bar)	uptake (mmol/g)
0.00086	0.73578
0.00133	0.29554
0.00156	0.08159
0.00253	0.44277
0.00472	1.22242
0.00736	1.42839
0.00929	1.5205
0.01938	1.59664
0.02634	1.68366
0.03883	1.754
0.05733	1.81418
0.07294	1.8468
0.08447	1.87362
0.0972	1.90335
0.10896	1.92509
0.12193	1.94901
0.1349	1.97003
0.14667	1.99178
0.15748	2.00265
0.16973	2.02729
0.19686	2.04902
0.21944	2.07148
0.24442	2.09467
0.26969	2.11929
0.29399	2.1397
0.31791	2.15838
0.34098	2.17822
0.36776	2.1969
0.39121	2.21386
0.41684	2.23024
0.43943	2.24489
0.46402	2.26329
0.48918	2.28111
0.51301	2.29663
0.53846	2.31272
0.56362	2.33083
0.58773	2.34865
0.61146	2.36561
0.63719	2.38342
0.65988	2.39981
0.6859	2.41734
0.70972	2.4343
0.73526	2.45298
0.75814	2.46936
0.78301	2.48315
0.80779	2.50183
0.83276	2.51821
0.85678	2.53604
0.8808	2.54781
0.90558	2.56534
0.92912	2.58345
0.95409	2.59983
0.9783	2.61478
1.00174	2.63058
1.02614	2.64552
1.05226	2.66478
1.07551	2.67857
1.10096	2.69639
1.12497	2.7099
1.14995	2.72743
1.17301	2.74295
1.19874	2.75731
