Adsorption isotherm of Carbon Dioxide on Mg2(dondc)
DOI: 10.1039/c5ta02357b
Article source: Figure 4
Adsorbate Carbon Dioxide: InChIKey CURLTUGMZLYLDI-UHFFFAOYSA-N
Kind: experiment
Temperature: 298 K
Tabular data in the source: 0
pressure (bar)	uptake (mmol/g)
0.00028	0.2194
0.00176	0.7526
0.00214	1.2978
0.00548	1.9148
0.01253	2.6397
0.02553	3.4394
0.03853	3.7808
0.05449	4.0624
0.07046	4.254
0.08792	4.4067
0.09609	4.4696
0.10945	4.5504
0.12134	4.6133
0.13508	4.6792
0.14696	4.736
0.15921	4.7869
0.16998	4.8318
0.17778	4.8558
0.18372	4.8977
0.19486	4.9306
0.22123	4.9934
0.24351	5.0592
0.2695	5.134
0.2929	5.1909
0.31741	5.2417
0.34359	5.2956
0.36689	5.3524
0.39121	5.404
0.41591	5.4556
0.44051	5.5087
0.46446	5.5528
0.48823	5.6021
0.51385	5.6515
0.53817	5.6904
0.56324	5.733
0.58737	5.7778
0.6116	5.8257
0.6363	5.8645
0.66082	5.9042
0.68491	5.9428
0.70959	5.9814
0.73451	6.02
0.75732	6.0596
0.78298	6.1045
0.80777	6.1403
0.83181	6.1732
0.85502	6.2143
0.88064	6.2517
0.90478	6.2943
0.92929	6.3264
0.95315	6.3563
0.97886	6.3959
1.0264	6.4579
1.05091	6.4983
1.07625	6.5349
1.10026	6.5755
1.12494	6.6028
1.14927	6.6414
1.17438	6.6858
1.19842	6.7217
