Adsorption isotherm of Nitrogen on mmen-Mg2(dondc)
DOI: 10.1039/c5ta02357b
Article source: Figure 3
Adsorbate Nitrogen: InChIKey IJGRMHOSHXDMSA-UHFFFAOYSA-N
Kind: experiment
Temperature: 77 K
Tabular data in the source: 0
pressure (bar)	uptake (cm3(STP)/g)
0.001246	8.73
0.028736	16.91
0.062507	19.71
0.07798	21.57
0.104182	23.46
0.130294	24.55
0.156223	26.72
0.182152	26.38
0.207737	28.02
0.233676	29.29
0.259605	29.49
0.285716	30.76
0.310946	31.86
0.336703	33.13
0.363514	33.87
0.3877	34.78
0.413984	35.88
0.440956	36.97
0.465325	37.17
0.489694	37.55
0.514751	38.47
0.540863	40.99
0.567491	41.73
0.592903	43.18
0.617789	44.45
0.644589	46.62
0.669829	49.32
0.695414	51.67
0.722042	55.09
0.746755	58.15
0.772167	61.57
0.798623	65.7
0.82438	70.91
0.850137	76.65
0.875377	82.58
0.902005	87.25
0.928117	94.42
0.953002	99.81
0.976672	107.52
1.00087	125.6
