Adsorption isotherm of Carbon Dioxide on en-Mg2(dondc)
DOI: 10.1039/c5ta02357b
Article source: Figure 4
Adsorbate Carbon Dioxide: InChIKey CURLTUGMZLYLDI-UHFFFAOYSA-N
Kind: experiment
Temperature: 333 K
Tabular data in the source: 0
pressure (bar)	uptake (mmol/g)
0.0002	0.26289
0.00048	0.17017
0.00057	0.06313
0.00067	0.08379
0.00144	0.38986
0.00211	0.52548
0.00584	0.72415
0.01176	0.90555
0.02578	1.12409
0.05725	1.36364
0.0851	1.46987
0.11705	1.5476
0.14727	1.60431
0.17102	1.64057
0.19543	1.67742
0.2207	1.69641
0.24463	1.72548
0.27	1.7462
0.29422	1.76375
0.31844	1.7862
0.34285	1.80548
0.36659	1.82332
0.39234	1.84145
0.41551	1.85411
0.44077	1.8731
0.46461	1.88547
0.48944	1.89838
0.51411	1.91345
0.53848	1.92806
0.56345	1.94039
0.58724	1.95019
0.61222	1.96573
0.63549	1.97781
0.66085	1.98989
0.68507	2.00255
0.70948	2.01521
0.73389	2.02844
0.75773	2.03995
0.78271	2.05203
0.80788	2.06641
0.83134	2.07677
0.85651	2.08655
0.88112	2.09805
0.90476	2.10956
0.93032	2.12106
0.95435	2.13084
0.97857	2.14062
1.0026	2.14982
1.02796	2.16305
1.05256	2.17168
1.07659	2.18491
1.101	2.19239
1.12541	2.20332
1.15001	2.21598
1.1748	2.22691
1.19921	2.23668
