Adsorption isotherm of Carbon Dioxide on en-Mg2(dondc)
DOI: 10.1039/c5ta02357b
Article source: Figure 4
Adsorbate Carbon Dioxide: InChIKey CURLTUGMZLYLDI-UHFFFAOYSA-N
Kind: experiment
Temperature: 313 K
Tabular data in the source: 0
pressure (bar)	uptake (mmol/g)
0.00016	0.04416
0.00017	0.06871
0.00038	0.32957
0.00059	0.17429
0.00065	0.17881
0.00324	0.9486
0.00481	1.16697
0.01121	1.35473
0.02411	1.49772
0.05277	1.65668
0.08656	1.74026
0.11625	1.80466
0.14731	1.85534
0.17094	1.88959
0.19533	1.92841
0.22047	1.95169
0.24418	1.97613
0.26889	1.99568
0.29322	2.01351
0.31755	2.03738
0.34362	2.0521
0.3667	2.0655
0.39111	2.0789
0.41599	2.09374
0.43979	2.11258
0.46506	2.12994
0.49053	2.14316
0.51381	2.15581
0.53824	2.17162
0.56285	2.18542
0.58775	2.19864
0.61122	2.21301
0.63689	2.22565
0.66026	2.23916
0.68603	2.25497
0.7095	2.26964
0.73478	2.28142
0.75844	2.29521
0.78334	2.30815
0.80767	2.3205
0.83238	2.33401
0.85662	2.34723
0.88133	2.36103
0.90508	2.37368
0.92979	2.38517
0.95508	2.39753
0.97874	2.41075
1.00326	2.42253
1.02759	2.43431
1.05211	2.44725
1.07691	2.45759
1.10162	2.46851
1.12567	2.48115
1.15085	2.49409
1.17518	2.50587
1.20047	2.51995
