Adsorption isotherm of Nitrogen on Mg2(dondc)
DOI: 10.1039/c5ta02357b
Article source: Figure 6
Adsorbate Nitrogen: InChIKey IJGRMHOSHXDMSA-UHFFFAOYSA-N
Kind: experiment
Temperature: 298 K
Tabular data in the source: 0
pressure (bar)	uptake (mmol/g)
0.00136	0.0128
0.0371	0.0617
0.06281	0.1082
0.0926	0.1534
0.12301	0.1986
0.15437	0.2499
0.18478	0.3098
0.21488	0.3514
0.24498	0.399
0.27795	0.4443
0.30731	0.4919
0.33904	0.5355
0.3684	0.5792
0.39876	0.6219
0.43062	0.6588
0.4616	0.6966
0.49246	0.7393
0.52319	0.7801
0.5538	0.814
0.58479	0.8548
0.6149	0.8946
0.64576	0.9276
0.67661	0.9693
0.70648	1.0062
0.73783	1.0392
0.76832	1.0693
0.79955	1.1004
0.83091	1.1295
0.86176	1.1664
0.89063	1.1975
0.92273	1.2324
0.95372	1.2529
0.98383	1.283
1.01419	1.3121
1.0453	1.3422
1.07653	1.3772
1.10726	1.4005
1.13725	1.4257
1.16848	1.4578
1.19922	1.4918
