Adsorption isotherm of Carbon Dioxide on ppz-Mg2(dondc)
DOI: 10.1039/c5ta02357b
Article source: Figure 4
Adsorbate Carbon Dioxide: InChIKey CURLTUGMZLYLDI-UHFFFAOYSA-N
Kind: experiment
Temperature: 298 K
Tabular data in the source: 0
pressure (bar)	uptake (mmol/g)
0.00152	0.39329
0.00168	0.71875
0.00173	0.15143
0.00244	0.91882
0.00513	1.16002
0.009	1.34641
0.02161	1.5534
0.04762	1.74403
0.08744	1.89364
0.11424	1.96917
0.1628	2.07292
0.20576	2.15279
0.24737	2.21908
0.28849	2.2858
0.33009	2.35036
0.37133	2.40629
0.41208	2.4648
0.45357	2.51943
0.49518	2.57919
0.53694	2.63905
0.57812	2.68863
0.61911	2.73752
0.66124	2.78397
0.70285	2.83861
0.74397	2.88331
0.78497	2.9306
0.82682	2.97963
0.86765	3.02276
0.91005	3.06271
0.95107	3.10266
0.99239	3.15402
1.03448	3.18745
1.07439	3.23189
1.11674	3.28048
1.15798	3.31397
1.20008	3.36301
