Adsorption isotherm of Carbon Dioxide on Mg2(dondc)
DOI: 10.1039/c5ta02357b
Article source: Figure 4
Adsorbate Carbon Dioxide: InChIKey CURLTUGMZLYLDI-UHFFFAOYSA-N
Kind: experiment
Temperature: 333 K
Tabular data in the source: 0
pressure (bar)	uptake (mmol/g)
0.00104	0.0298
0.00197	0.1091
0.00268	0.2216
0.00291	0.2394
0.00525	0.439
0.00549	0.4735
0.00923	0.6945
0.01228	0.9173
0.01883	1.2232
0.02421	1.4668
0.03709	1.8746
0.04809	2.1881
0.06025	2.4298
0.07266	2.645
0.08599	2.8338
0.09793	2.9755
0.1232	3.2228
0.13443	3.3153
0.1473	3.4154
0.17069	3.5665
0.19502	3.6986
0.21959	3.8195
0.24459	3.9101
0.26873	3.9895
0.29232	4.0734
0.31794	4.1424
0.34208	4.2068
0.36678	4.2653
0.39129	4.3102
0.41506	4.3612
0.44124	4.4218
0.46483	4.4622
0.48959	4.5075
0.5139	4.5384
0.53808	4.571
0.56333	4.6137
0.58664	4.6377
0.61161	4.6729
0.63608	4.699
0.66099	4.7275
0.68516	4.7608
0.70992	4.781
0.73483	4.8108
0.75885	4.8346
0.78346	4.8691
0.80778	4.8833
0.83195	4.9143
0.85583	4.9345
0.88147	4.9535
0.90564	4.9785
0.93085	5.0023
0.95561	5.0177
0.97889	5.032
1.00277	5.0558
1.02723	5.0725
1.05096	5.0939
1.07631	5.1153
1.10137	5.1367
1.12583	5.1569
1.14956	5.1736
1.17417	5.1878
1.19834	5.2164
