Adsorption isotherm of Carbon Dioxide on ppz-Mg2(dondc)
DOI: 10.1039/c5ta02357b
Article source: Figure 4
Adsorbate Carbon Dioxide: InChIKey CURLTUGMZLYLDI-UHFFFAOYSA-N
Kind: experiment
Temperature: 333 K
Tabular data in the source: 0
pressure (bar)	uptake (mmol/g)
0.00063	0.02366
0.00077	0.01629
0.00142	0.2313
0.00155	0.05647
0.00236	0.37736
0.00472	0.70313
0.0148	1.09299
0.02453	1.24504
0.05323	1.43079
0.08593	1.54162
0.11755	1.61009
0.14762	1.65685
0.17076	1.69273
0.19512	1.72047
0.22041	1.74224
0.24431	1.76346
0.26821	1.78197
0.29211	1.79668
0.31724	1.81682
0.34238	1.8261
0.36705	1.84298
0.3911	1.85552
0.41546	1.86479
0.43967	1.88005
0.46419	1.89204
0.48916	1.90274
0.51303	1.91184
0.53787	1.92439
0.56198	1.93779
0.58621	1.94603
0.61142	1.96073
0.63504	1.96724
0.66001	1.97634
0.68607	1.9951
0.70958	2.00541
0.73484	2.01367
0.75873	2.02261
0.78243	2.03292
0.80691	2.03913
0.83236	2.05149
0.85742	2.06112
0.88131	2.06938
0.9056	2.08037
0.92871	2.08726
0.95494	2.09552
0.97883	2.10309
1.00389	2.11341
1.02779	2.12098
1.05207	2.12855
1.07674	2.14228
1.10278	2.15191
1.12473	2.16222
1.15018	2.17253
1.17563	2.18284
1.19913	2.18836
