Adsorption isotherm of Oxygen on NOTT-202a
DOI: 10.1038/Nmat3343
Adsorbate Oxygen: InChIKey MYMOFIZGZYHOMD-UHFFFAOYSA-N
Temperature: 195 K
Tabular data in the source: 0
pressure (bar)	uptake (mmol/g)
0.117381	0.136986
0.14447	0.205479
0.198646	0.205479
0.24605	0.273973
0.297968	0.479452
0.349887	0.479452
0.399549	0.547945
0.444695	0.547945
0.501129	0.684932
0.546275	0.753425
0.600451	0.753425
0.650113	0.821918
0.699774	0.890411
0.751693	0.958904
0.799097	1.0274
0.848758	1.16438
0.89842	1.0274
0.945824	1.16438
1	1.09589
