Adsorption isotherm of Carbon Dioxide on NOTT-202a
DOI: 10.1038/Nmat3343
Adsorbate Carbon Dioxide: InChIKey CURLTUGMZLYLDI-UHFFFAOYSA-N
Temperature: 221 K
Tabular data in the source: 0
pressure (bar)	uptake (mmol/g)
0.144174	1.5387
0.237204	3.87977
0.239087	3.07723
0.283327	5.21751
0.414166	12.4409
0.420285	9.83262
0.426089	7.35811
0.465937	11.371
0.802918	14.7161
0.997921	15.5861
1.14445	16.1217
1.43829	16.8583
1.9789	17.3952
2.27289	18.0649
2.6662	18.4006
3.40354	19.0719
3.74711	19.6081
4.14088	19.7431
4.78048	20.0797
5.07605	20.0807
5.42056	20.2156
