Adsorption isotherm of Methane on NOTT-202a
DOI: 10.1038/Nmat3343
Adsorbate Methane: InChIKey VNWKTOKETHGBQD-UHFFFAOYSA-N
Temperature: 293 K
Tabular data in the source: 0
pressure (bar)	uptake (mmol/g)
0.117371	0.0590441
0.129108	0.0689237
0.152582	0.0787449
0.173709	0.0885778
0.199531	0.0983874
0.213615	0.103286
0.241784	0.123022
0.246479	0.122999
0.284038	0.137719
0.302817	0.147564
0.333333	0.167288
0.356808	0.17214
0.394366	0.18686
0.455399	0.22134
0.5	0.236025
0.605634	0.28022
0.699531	0.329443
0.807512	0.373627
0.915493	0.427749
