Adsorption isotherm of Nitrogen on NOTT-202a
DOI: 10.1038/Nmat3343
Adsorbate Nitrogen: InChIKey IJGRMHOSHXDMSA-UHFFFAOYSA-N
Temperature: 195 K
Tabular data in the source: 0
pressure (bar)	uptake (mmol/g)
0.0699774	0.136986
0.117381	0.136986
0.151242	0.273973
0.198646	0.273973
0.248307	0.273973
0.297968	0.342466
0.352144	0.410959
0.401806	0.616438
0.446953	0.616438
0.496614	0.616438
0.548533	0.753425
0.598194	0.890411
0.65237	0.890411
0.697517	1.0274
0.749436	1.09589
0.799097	0.958904
0.851016	1.16438
0.896163	1.16438
0.948081	1.23288
0.997743	1.23288
