Adsorption isotherm of Methane on NOTT-202a
DOI: 10.1038/Nmat3343
Adsorbate Methane: InChIKey VNWKTOKETHGBQD-UHFFFAOYSA-N
Temperature: 195 K
Tabular data in the source: 0
pressure (bar)	uptake (mmol/g)
0.0586907	0.479452
0.0880361	0.684932
0.106095	0.821918
0.121896	1.09589
0.148984	1.16438
0.1693	1.43836
0.194131	1.50685
0.227991	1.78082
0.23702	1.9863
0.261851	2.12329
0.27991	2.19178
0.30474	2.39726
0.334086	2.53425
0.365688	2.80822
0.462754	3.49315
0.521445	3.83562
0.604966	4.45205
0.704289	5.13699
0.803612	5.68493
0.907449	6.23288
1.00226	6.78082
