Adsorption isotherm of Methane on NOTT-202a
DOI: 10.1038/Nmat3343
Adsorbate Methane: InChIKey VNWKTOKETHGBQD-UHFFFAOYSA-N
Temperature: 273 K
Tabular data in the source: 0
pressure (bar)	uptake (mmol/g)
0.0787589	0.0581395
0.0930788	0.0747508
0.126492	0.0913621
0.143198	0.107973
0.164678	0.124585
0.181384	0.13289
0.221957	0.157807
0.264916	0.199336
0.28401	0.207641
0.310263	0.232558
0.336516	0.249169
0.367542	0.265781
0.396181	0.282392
0.453461	0.32392
0.498807	0.365449
0.606205	0.440199
0.706444	0.498339
0.806683	0.57309
0.904535	0.631229
1.00239	0.697674
