Adsorption isotherm of Hydrogen on NOTT-202a
DOI: 10.1038/Nmat3343
Adsorbate Hydrogen: InChIKey UFHFLCQGNIYNRP-UHFFFAOYSA-N
Temperature: 195 K
Tabular data in the source: 0
pressure (bar)	uptake (mmol/g)
0.124153	0.205479
0.158014	0
0.198646	0.273973
0.248307	0.273973
0.300226	0.342466
0.352144	0.410959
0.404063	0.479452
0.451467	0.616438
0.501129	0.547945
0.546275	0.684932
0.602709	0.821918
0.650113	0.821918
0.702032	0.958904
0.751693	0.958904
0.801354	1.0274
0.851016	1.16438
0.89842	1.16438
0.945824	1.23288
1	1.23288
