Adsorption isotherm of Nitrogen on NOTT-202a
DOI: 10.1038/Nmat3343
Adsorbate Nitrogen: InChIKey IJGRMHOSHXDMSA-UHFFFAOYSA-N
Temperature: 293 K
Tabular data in the source: 0
pressure (bar)	uptake (mmol/g)
0.0539906	0.00470067
0.0680751	0.00959963
0.0821596	0.00952964
0.0985915	0.0144169
0.124413	0.0242265
0.152582	0.0290555
0.201878	0.0337795
0.251174	0.0434724
0.349765	0.0628583
0.399061	0.0675823
0.450704	0.0722946
0.5	0.0869565
0.551643	0.0966378
0.600939	0.0963928
0.652582	0.106074
0.699531	0.115779
0.798122	0.130196
0.899061	0.14957
0.948357	0.159263
1	0.159006
