Adsorption isotherm of Argon on NOTT-202a
DOI: 10.1038/Nmat3343
Adsorbate Argon: InChIKey XKRFYHLGVUSROY-UHFFFAOYSA-N
Temperature: 273 K
Tabular data in the source: 0
pressure (bar)	uptake (mmol/g)
0.0357995	0.00860299
0.0620525	0.0171267
0.119332	0.0259081
0.152745	0.0427969
0.198091	0.0514792
0.250597	0.0602209
0.300716	0.0689428
0.350835	0.0776647
0.400955	0.0946923
0.451074	0.11172
0.501193	0.120442
0.553699	0.145795
0.599045	0.154477
0.651551	0.163219
0.701671	0.171941
0.749403	0.188949
0.801909	0.19769
0.852029	0.206412
0.899761	0.22342
0.945107	0.232102
1.00239	0.232578
