Adsorption isotherm of Argon on NOTT-202a
DOI: 10.1038/Nmat3343
Adsorbate Argon: InChIKey XKRFYHLGVUSROY-UHFFFAOYSA-N
Temperature: 293 K
Tabular data in the source: 0
pressure (bar)	uptake (mmol/g)
0.0375587	0.00478232
0.0516432	0.00471233
0.0610329	0.00963462
0.07277	0.0145452
0.0798122	0.0145102
0.100939	0.0144053
0.122066	0.0192692
0.152582	0.0240865
0.201878	0.0288105
0.251174	0.0385035
0.298122	0.0482081
0.352113	0.0578777
0.401408	0.0626017
0.450704	0.0722946
0.5	0.0770186
0.549296	0.0916805
0.600939	0.101362
0.650235	0.106086
0.699531	0.11081
0.751174	0.12546
0.800469	0.135153
0.849765	0.139877
0.899061	0.14957
0.948357	0.159263
1.00235	0.168932
