Adsorption isotherm of Oxygen on NOTT-202a
DOI: 10.1038/Nmat3343
Adsorbate Oxygen: InChIKey MYMOFIZGZYHOMD-UHFFFAOYSA-N
Temperature: 293 K
Tabular data in the source: 0
pressure (bar)	uptake (mmol/g)
0.0610329	0.00963462
0.0938967	0.0144403
0.124413	0.0192576
0.152582	0.0240865
0.199531	0.0337912
0.248826	0.0335462
0.300469	0.0481964
0.349765	0.0578894
0.399061	0.0675823
0.448357	0.0723063
0.502347	0.0819759
0.549296	0.0867116
0.596244	0.0964162
0.699531	0.105841
0.751174	0.120491
0.798122	0.125227
0.849765	0.134908
0.896714	0.139644
0.943662	0.144379
1	0.154037
