Adsorption isotherm of Hydrogen on NOTT-202a
DOI: 10.1038/Nmat3343
Adsorbate Hydrogen: InChIKey UFHFLCQGNIYNRP-UHFFFAOYSA-N
Temperature: 273 K
Tabular data in the source: 0
pressure (bar)	uptake (mmol/g)
0.0190931	0.00846423
0.0357995	0.0252143
0.0811456	0.0422022
0.107399	0.0341146
0.136038	0.0343525
0.150358	0.0344714
0.200477	0.051499
0.252983	0.0602407
0.303103	0.0523514
0.350835	0.0693591
0.400955	0.0614697
0.453461	0.0785171
0.50358	0.0789334
0.551313	0.0793298
0.601432	0.0880518
0.651551	0.088468
0.701671	0.0805787
0.75179	0.0976062
0.799523	0.0980027
0.854415	0.106764
0.902148	0.115466
0.952267	0.124188
