Adsorption isotherm of Argon on NOTT-202a
DOI: 10.1038/Nmat3343
Adsorbate Argon: InChIKey XKRFYHLGVUSROY-UHFFFAOYSA-N
Temperature: 87 K
Tabular data in the source: 0
pressure (bar)	uptake (mmol/g)
0.00234742	0.00234742
0.00469484	18.0435
0.00704225	10.8696
0.0187793	24.2391
0.0610329	26.413
0.0868545	27.1739
0.100939	27.0652
0.150235	27.6087
0.211268	28.1522
0.251174	28.6957
0.2723	28.6957
0.300469	28.913
0.401408	29.3478
0.462441	29.4565
0.502347	29.6739
0.542254	29.6739
0.586854	29.7826
0.603286	29.8913
0.704225	30
0.755869	30
0.805164	30.1087
0.861502	30.1087
0.906103	30.2174
0.941315	30.2174
0.960094	30.2174
1	30.3261
