Adsorption isotherm of Carbon Dioxide on NOTT-202a
DOI: 10.1038/Nmat3343
Adsorbate Carbon Dioxide: InChIKey CURLTUGMZLYLDI-UHFFFAOYSA-N
Temperature: 273 K
Tabular data in the source: 0
pressure (bar)	uptake (mmol/g)
0.587991	1.33955
1.27388	2.94693
1.61697	3.68375
2.05687	5.15656
2.59482	6.83033
3.18218	8.43739
3.57391	9.44189
4.21179	10.5141
4.99729	11.6537
6.07852	12.7273
7.06232	13.3325
8.04628	13.8709
9.22728	14.4098
10.1135	14.6134
11.541	15.0864
12.427	15.3568
13.5596	15.5613
14.495	15.765
15.3814	15.9018
16.3665	15.9719
17.4006	16.1091
18.5332	16.3136
19.8136	16.4516
