Adsorption isotherm of Carbon Dioxide on NOTT-202a
DOI: 10.1038/Nmat3343
Adsorbate Carbon Dioxide: InChIKey CURLTUGMZLYLDI-UHFFFAOYSA-N
Temperature: 195 K
Tabular data in the source: 0
pressure (bar)	uptake (mmol/g)
0.00217865	0.123699
0.0043573	0.329269
0.00827887	0.65836
0.0119826	0.823619
0.0137255	0.988075
0.0159041	1.0299
0.0191721	1.27685
0.0220044	1.40082
0.0261438	1.68906
0.0287582	1.85388
0.0313725	2.05963
0.0335512	2.18333
0.0359477	2.42992
0.0379085	2.6354
0.0400871	2.80004
0.0420479	3.00552
0.0429194	3.25149
0.0457516	3.41639
0.0474946	3.58085
0.0492375	3.82717
0.0522876	4.23778
0.0551198	4.60736
0.0579521	5.01788
0.0625272	5.55191
0.0633987	6.0435
0.0647059	6.53526
0.0655773	7.06778
0.0679739	8.05122
0.0688453	9.07497
0.0705882	10.0991
0.0729847	11.0416
0.0732026	12.0651
