Adsorption isotherm of Nitrogen on NOTT-202a
DOI: 10.1038/Nmat3343
Adsorbate Nitrogen: InChIKey IJGRMHOSHXDMSA-UHFFFAOYSA-N
Temperature: 273 K
Tabular data in the source: 0
pressure (bar)	uptake (mmol/g)
0.0357995	0.00860299
0.0620525	0.0171267
0.119332	0.0259081
0.150358	0.0344714
0.200477	0.0431933
0.250597	0.0436096
0.298329	0.068923
0.353222	0.0693789
0.400955	0.0863867
0.448687	0.1117
0.50358	0.10385
0.553699	0.112572
0.599045	0.121255
0.651551	0.154913
0.701671	0.163635
0.75179	0.164051
0.801909	0.181079
0.856802	0.198146
0.899761	0.198503
0.947494	0.215511
1.00477	0.224292
