Adsorption isotherm of Nitrogen on NOTT-202a
DOI: 10.1038/Nmat3343
Adsorbate Nitrogen: InChIKey IJGRMHOSHXDMSA-UHFFFAOYSA-N
Temperature: 77 K
Tabular data in the source: 0
pressure (bar)	uptake (mmol/g)
0.00234742	3.90093
0.00469484	9.96904
0.00938967	21.3467
0.0187793	22.4303
0.0352113	23.2972
0.056338	24.0557
0.084507	24.5975
0.100939	24.8142
0.138498	25.031
0.178404	25.356
0.223005	25.6811
0.251174	25.8978
0.269953	26.1146
0.302817	26.2229
0.338028	26.1146
0.368545	26.3313
0.401408	26.4396
0.460094	26.548
0.5	26.7647
0.553991	26.8731
0.598592	26.7647
0.652582	26.8731
0.701878	26.9814
0.755869	27.0898
0.807512	27.0898
0.901408	27.3065
0.953052	27.4149
0.997653	27.5232
