Adsorption isotherm of Carbon Dioxide on NOTT-202a
DOI: 10.1038/Nmat3343
Adsorbate Carbon Dioxide: InChIKey CURLTUGMZLYLDI-UHFFFAOYSA-N
Temperature: 293 K
Tabular data in the source: 0
pressure (bar)	uptake (mmol/g)
0.29813	0.466667
0.64545	0.8
1.29137	1.8
1.63854	2.06667
2.08597	2.86667
2.5829	3.66667
3.52695	5.13333
4.52035	6.53333
5.21578	7.53333
6.05972	8.53333
7.10152	9.46667
7.79617	10.1333
9.03567	10.9333
9.8782	11.3333
11.5631	12.0667
12.9503	12.5333
14.5853	13.0667
16.2196	13.3333
17.557	13.6667
18.5969	13.8
19.8845	14
