Adsorption isotherm of Carbon Dioxide on NOTT-202a
DOI: 10.1038/Nmat3343
Adsorbate Carbon Dioxide: InChIKey CURLTUGMZLYLDI-UHFFFAOYSA-N
Temperature: 213 K
Tabular data in the source: 0
pressure (bar)	uptake (mmol/g)
0.00310559	0.833592
0.0124224	1.25104
0.0186335	2.25155
0.0217391	3.25181
0.0341615	5.25285
0.0434783	7.92029
0.0465839	10.6705
0.052795	11.1711
0.0745342	11.9229
0.0962733	12.5914
0.124224	13.0104
0.149068	13.4291
0.170807	13.7642
0.195652	14.183
0.223602	14.5186
0.251553	14.771
0.291925	15.3577
0.341615	16.2785
0.388199	17.1157
0.434783	17.2862
0.468944	17.7891
0.487578	18.0406
0.521739	18.2101
0.546584	18.4622
0.574534	18.7145
0.652174	18.8877
0.726708	19.2272
0.791925	19.2327
0.885093	19.3238
0.900621	19.4084
0.981366	19.3318
