Adsorption isotherm of Carbon Dioxide on NOTT-202a
DOI: 10.1038/Nmat3343
Adsorbate Carbon Dioxide: InChIKey CURLTUGMZLYLDI-UHFFFAOYSA-N
Temperature: 195 K
Tabular data in the source: 0
pressure (bar)	uptake (mmol/g)
0.00733985	0.728707
0.0147031	1.25868
0.0245416	1.78864
0.0293984	2.5836
0.0367851	2.91483
0.0416419	3.70978
0.0489974	4.30599
0.0514024	4.90221
0.0562592	5.69716
0.063599	6.42587
0.0684714	7.08833
0.0882422	7.35331
0.107997	7.75079
0.137661	8.08202
0.172276	8.41325
0.199496	8.4795
0.221749	8.67823
0.258847	8.94322
0.30337	9.2082
0.320681	9.34069
0.34046	9.53943
0.370124	9.87066
0.394861	10.0032
0.417099	10.3344
0.424517	10.4006
0.45411	11.3281
0.466408	11.9905
0.478691	12.7855
0.488545	13.183
0.5083	13.5804
0.53545	14.2429
0.550286	14.3754
0.582425	14.7066
0.614564	15.0379
0.649186	15.3028
0.69125	15.4353
0.711036	15.5678
0.730815	15.7666
0.77533	16.0978
0.805018	16.2303
0.839632	16.5615
0.86187	16.8927
0.87915	17.2902
0.89148	17.6877
0.921089	18.4826
0.940836	18.9464
0.97791	19.4101
0.992738	19.6088
