Adsorption isotherm of Argon on NOTT-202a
DOI: 10.1038/Nmat3343
Adsorbate Argon: InChIKey XKRFYHLGVUSROY-UHFFFAOYSA-N
Temperature: 195 K
Tabular data in the source: 0
pressure (bar)	uptake (mmol/g)
0.0654628	0.136986
0.0902935	0
0.124153	0.136986
0.352144	0.0684932
0.401806	0.0684932
0.446953	0
0.498871	0.0684932
0.55079	0.136986
0.600451	0.0684932
0.650113	0.136986
0.702032	0.0684932
0.751693	0.205479
0.801354	0.136986
0.851016	0.136986
0.896163	0.205479
0.945824	0.136986
1	0.136986
