Adsorption isotherm of Carbon Dioxide on NOTT-202a
DOI: 10.1038/Nmat3343
Adsorbate Carbon Dioxide: InChIKey CURLTUGMZLYLDI-UHFFFAOYSA-N
Temperature: 258 K
Tabular data in the source: 0
pressure (bar)	uptake (mmol/g)
0.537946	1.67377
0.684159	2.34305
0.977213	3.4141
1.02538	3.88241
1.31827	5.02033
1.75644	7.2288
2.19492	9.30352
2.63482	10.7763
3.0755	11.9147
3.56591	12.8527
4.05726	13.3894
5.08985	14.1954
6.0735	14.8674
7.05761	15.3389
8.04204	15.6766
9.02647	16.0143
9.56803	16.1498
10.0111	16.2851
