Adsorption isotherm of Hydrogen on NOTT-202a
DOI: 10.1038/Nmat3343
Adsorbate Hydrogen: InChIKey UFHFLCQGNIYNRP-UHFFFAOYSA-N
Temperature: 77 K
Tabular data in the source: 0
pressure (bar)	uptake (mmol/g)
0.0435678	0.891641
0.176933	2.1548
0.26645	2.67492
0.310298	3.41796
0.489332	4.4582
0.623258	5.42415
0.802152	6.5387
1.07196	7.43034
1.52123	9.13932
2.01617	10.6254
2.51194	11.6656
3.05311	12.6316
3.50406	13.4489
4.00053	14.1176
5.0393	15.1579
6.03295	16.1238
7.02702	16.8669
8.0211	17.6099
8.97048	18.0557
10.0101	18.6502
11.5022	19.2446
12.9944	19.7647
14.4866	20.2848
16.0698	20.582
17.4715	21.1022
19.0548	21.3251
20.05	21.4737
