Adsorption isotherm of Carbon Dioxide on NOTT-202a
DOI: 10.1038/Nmat3343
Adsorbate Carbon Dioxide: InChIKey CURLTUGMZLYLDI-UHFFFAOYSA-N
Temperature: 205 K
Tabular data in the source: 0
pressure (bar)	uptake (mmol/g)
0.00619195	1.08282
0.0123839	1.66563
0.0216718	2.58153
0.0309598	3.49742
0.0371517	4.7469
0.0402477	5.66331
0.0464396	8.82946
0.0495356	7.41254
0.0526316	9.57895
0.0681115	10.3277
0.0897833	10.9925
0.114551	11.4071
0.139319	12.2384
0.154799	12.2371
0.188854	12.7343
0.216718	13.0653
0.244582	13.563
0.281734	13.8932
0.309598	14.2242
0.343653	14.5547
0.374613	14.8021
0.408669	15.0493
0.436533	15.2136
0.455108	15.6287
0.467492	15.711
0.495356	15.7921
0.529412	16.2892
0.560372	16.4533
0.578947	16.7851
0.603715	16.783
0.631579	17.0307
0.647059	17.3627
0.671827	17.5273
0.69969	17.775
0.743034	17.7714
0.780186	17.8517
0.845201	18.0129
0.93808	18.0885
