Adsorption isotherm of Hydrogen on NOTT-202a
DOI: 10.1038/Nmat3343
Adsorbate Hydrogen: InChIKey UFHFLCQGNIYNRP-UHFFFAOYSA-N
Temperature: 293 K
Tabular data in the source: 0
pressure (bar)	uptake (mmol/g)
0.00704225	0.00493395
0.0211268	0.0148019
0.0399061	0.0296154
0.0586854	0.0394599
0.0774648	0.0493045
0.0985915	0.0541685
0.150235	0.0638498
0.199531	0.0735427
0.248826	0.0732978
0.302817	0.0829674
0.349765	0.087703
0.401408	0.0874464
0.450704	0.0971394
0.502347	0.101852
0.549296	0.101618
0.598592	0.106342
0.650235	0.116024
0.699531	0.120748
0.748826	0.120503
0.800469	0.120246
0.849765	0.12497
0.899061	0.134663
0.943662	0.134441
0.995305	0.139154
