Adsorption isotherm of Deuterium on NOTT-202a
DOI: 10.1038/Nmat3343
Adsorbate Deuterium: InChIKey UFHFLCQGNIYNRP-VVKOMZTBSA-N
Temperature: 77 K
Tabular data in the source: 0
pressure (bar)	uptake (wt%)
0.0185615	0.0883281
0.0348028	0.242902
0.0812065	0.563091
0.104408	0.629338
0.12065	0.728707
0.148492	0.850158
0.164733	0.938486
0.185615	1.02681
0.204176	1.1041
0.222738	1.19243
0.241299	1.26972
0.262181	1.35804
0.280742	1.41325
0.301624	1.50158
0.341067	1.63407
0.350348	1.65615
0.36891	1.71136
0.382831	1.76656
0.424594	1.89905
0.433875	1.92114
0.452436	1.97634
0.512761	2.14196
0.533643	2.19716
0.612529	2.40694
0.63109	2.4511
0.665893	2.52839
0.686775	2.57256
0.707657	2.6388
0.714617	2.64984
0.735499	2.69401
0.763341	2.74921
0.784223	2.79338
0.812065	2.84858
0.832947	2.89274
0.860789	2.94795
0.881671	2.99211
0.902552	3.04732
0.923434	3.0694
0.941995	3.10252
0.965197	3.14669
0.986079	3.17981
1.00696	3.22397
1.02552	3.26814
