Adsorption isotherm of Oxygen on NOTT-202a
DOI: 10.1038/Nmat3343
Adsorbate Oxygen: InChIKey MYMOFIZGZYHOMD-UHFFFAOYSA-N
Temperature: 273 K
Tabular data in the source: 0
pressure (bar)	uptake (mmol/g)
0.0357995	0.00860299
0.0620525	0.0171267
0.119332	0.0259081
0.152745	0.0427969
0.198091	0.0514792
0.250597	0.0602209
0.300716	0.0689428
0.350835	0.0776647
0.400955	0.0946923
0.451074	0.11172
0.501193	0.120442
0.551313	0.129164
0.596659	0.137846
0.651551	0.146608
0.701671	0.163635
0.75179	0.164051
0.801909	0.181079
0.856802	0.198146
0.899761	0.198503
0.947494	0.215511
1.00239	0.232578
