Adsorption isotherm of Carbon Dioxide on NOTT-202a
DOI: 10.1038/Nmat3343
Adsorbate Carbon Dioxide: InChIKey CURLTUGMZLYLDI-UHFFFAOYSA-N
Temperature: 303 K
Tabular data in the source: 0
pressure (bar)	uptake (mmol/g)
0.396983	0.4
0.84347	0.8
1.1911	1.26667
1.58793	1.6
2.1339	2.2
2.5807	2.73333
3.0275	3.26667
3.57347	3.86667
3.97077	4.4
4.81455	5.33333
5.60868	6.2
6.7003	7.26667
7.64278	8.06667
8.43627	8.66667
8.98193	9.13333
9.97328	9.66667
11.5098	10.4667
12.9964	11.0667
14.5321	11.5333
15.2753	11.8
16.2659	12
17.5537	12.2667
18.7426	12.6
19.9312	12.8
