Adsorption isotherm of Nitrogen on MAXSORB
DOI: 10.1016/j.carbon.2006.04.040
Adsorbate Nitrogen: InChIKey IJGRMHOSHXDMSA-UHFFFAOYSA-N
Temperature: 77 K
Tabular data in the source: 0
pressure (bar)	uptake (cm3(STP)/g)
0.0149006	509.589
0.023841	564.384
0.0357615	602.74
0.0506621	646.575
0.0685428	684.932
0.107284	756.164
0.122185	794.521
0.143046	827.397
0.163907	860.274
0.208609	920.548
0.226489	947.945
0.25033	964.384
0.274171	980.822
0.324833	1002.74
0.363575	1019.18
0.384436	1030.14
0.441058	1041.1
0.4798	1041.1
0.539402	1041.1
0.587084	1052.05
0.631786	1063.01
0.685428	1068.49
0.73311	1068.49
0.774832	1068.49
0.825494	1073.97
0.888077	1079.45
0.935759	1090.41
0.96556	1101.37
