Adsorption isotherm of Nitrogen on Acticarbone 3S
DOI: 10.1016/j.carbon.2006.04.040
Adsorbate Nitrogen: InChIKey IJGRMHOSHXDMSA-UHFFFAOYSA-N
Temperature: 77 K
Tabular data in the source: 0
pressure (bar)	uptake (cm3(STP)/g)
0	247.534
0.00290006	69.9552
0.00580012	344.395
0.0174004	419.731
0.0319007	457.399
0.0551011	484.305
0.46401	634.978
0.48721	645.74
0.50751	656.502
0.553911	678.027
0.606112	699.552
0.652513	726.457
0.678614	731.839
0.704715	758.744
0.730815	764.126
0.754016	769.507
0.777216	780.269
0.800416	801.794
0.826517	817.937
0.846817	844.843
0.870018	860.987
0.896118	882.511
0.922219	904.036
0.96862	963.229
