Adsorption isotherm of Nitrogen on Norit SX 1G
DOI: 10.1016/j.carbon.2006.04.040
Adsorbate Nitrogen: InChIKey IJGRMHOSHXDMSA-UHFFFAOYSA-N
Temperature: 77 K
Tabular data in the source: 0
pressure (bar)	uptake (cm3(STP)/g)
0.00244291	198.214
0.00497726	358.929
0.0164864	439.286
0.039792	482.143
0.0748418	508.929
0.109879	541.071
0.150794	562.5
0.18297	567.857
0.218059	578.571
0.29115	605.357
0.346723	616.071
0.45493	642.857
0.498784	658.929
0.533913	653.571
0.551418	675
0.577741	680.357
0.604091	675
0.630414	680.357
0.677182	701.786
0.703492	712.5
0.741508	723.214
0.797028	755.357
0.820386	776.786
0.846683	792.857
0.867141	803.571
0.890434	851.786
0.916718	873.214
0.945902	905.357
0.966229	969.643
