Adsorption isotherm of Nitrogen on 0.69%Pd@IRMOF-1
DOI: 10.1007/s10562-012-0767-7
Adsorbate Nitrogen: InChIKey IJGRMHOSHXDMSA-UHFFFAOYSA-N
Temperature: 77 K
Tabular data in the source: 0
pressure (bar)	uptake (cm3(STP)/g)
0.018058	32.763
0.0216696	40.7063
0.0306986	51.1276
0.0397276	62.0455
0.0505624	74.9483
0.0577856	80.9012
0.0794552	87.8327
0.102931	90.2921
0.135435	91.7489
0.164328	92.7128
0.187803	92.6888
0.216696	94.1493
0.258229	94.6035
0.290734	95.5637
0.321432	96.5256
0.341296	96.5053
0.36116	96.485
0.386441	97.4525
0.415334	97.9197
0.42978	98.8983
0.460479	98.3702
0.482148	98.8448
0.502012	99.8178
0.529099	100.784
0.550769	100.761
0.574244	101.234
0.594108	101.71
0.613972	102.187
0.633836	103.16
0.660923	104.126
0.698844	104.583
0.731349	106.537
0.760241	107.501
0.789134	108.961
0.821639	112.902
0.84692	115.359
0.879424	118.803
0.901094	125.238
0.931792	131.166
0.939016	142.583
0.951656	155.484
0.957074	167.399
