Adsorption isotherm of Nitrogen on IRMOF-1
DOI: 10.1007/s10562-012-0767-7
Adsorbate Nitrogen: InChIKey IJGRMHOSHXDMSA-UHFFFAOYSA-N
Temperature: 77 K
Tabular data in the source: 0
pressure (bar)	uptake (cm3(STP)/g)
0.0497183	79.8837
0.0606599	88.7542
0.077001	96.1389
0.0987	98.584
0.120381	99.5488
0.14568	101.003
0.190836	101.944
0.219746	103.395
0.243222	103.371
0.288384	104.806
0.338963	106.235
0.38412	107.176
0.432893	108.606
0.483461	109.048
0.530423	109.988
0.566557	111.431
0.606296	112.378
0.662304	114.788
0.698438	116.231
0.752635	118.15
0.794203	121.068
0.810467	122.039
0.826725	122.515
0.841201	124.968
0.857483	127.418
0.871959	129.871
0.886423	131.336
0.899105	134.778
0.913587	137.723
0.926269	141.164
0.942616	149.043
0.953563	158.406
0.959082	166.789
0.960988	175.175
