Adsorption isotherm of Nitrogen on 1.30%Pd@IRMOF-1
DOI: 10.1007/s10562-012-0767-7
Adsorbate Nitrogen: InChIKey IJGRMHOSHXDMSA-UHFFFAOYSA-N
Temperature: 77 K
Tabular data in the source: 0
pressure (bar)	uptake (cm3(STP)/g)
0.0036116	5.42396
0.0054174	10.3563
0.0108348	17.2587
0.018058	24.6527
0.0252812	34.0204
0.036116	43.3844
0.0433392	52.2586
0.0505624	57.6789
0.0595914	63.5908
0.072232	68.0187
0.09029	69.9741
0.11196	71.4323
0.142658	72.8814
0.167939	73.8426
0.195026	74.3085
0.218502	74.7781
0.238366	75.2513
0.265452	76.2106
0.287122	76.682
0.317821	77.6377
0.335879	77.6194
0.362966	78.0853
0.388247	79.0464
0.431586	79.9892
0.460479	80.4533
0.483954	80.9229
0.530905	82.3555
0.568827	82.3169
0.603137	82.7755
0.630224	85.2151
0.664534	85.1802
0.697039	86.1341
0.733154	87.0842
0.762047	89.0286
0.789134	90.9747
0.819833	93.9041
0.850531	96.8334
0.879424	100.258
0.929987	109.582
0.944433	121.409
0.953462	130.775
0.962491	138.167
