Adsorption isotherm of Nitrogen on 0.17%Pd@IRMOF-1
DOI: 10.1007/s10562-012-0767-7
Adsorbate Nitrogen: InChIKey IJGRMHOSHXDMSA-UHFFFAOYSA-N
Temperature: 77 K
Tabular data in the source: 0
pressure (bar)	uptake (cm3(STP)/g)
0.011096	21.6993
0.0221148	36.9841
0.0294389	45.3648
0.0367392	51.7719
0.0440455	58.6724
0.0549633	65.5692
0.0658752	71.9726
0.0785751	76.8939
0.0984505	77.8605
0.145424	79.7865
0.190587	81.2209
0.237549	82.16
0.288122	83.0955
0.336896	84.5262
0.38567	85.9569
0.430826	86.8979
0.452496	86.8759
0.485006	87.3363
0.528368	89.2659
0.562678	89.2311
0.606016	89.1871
0.631315	90.6416
0.663837	92.0889
0.694553	93.5379
0.736104	94.976
0.790289	95.9078
0.824652	100.314
0.848145	101.77
0.878861	103.219
0.900584	107.638
0.933147	112.539
0.944035	116.969
0.956729	121.397
0.964041	128.79
