Adsorption isotherm of Nitrogen on MABC
DOI: 10.1016/j.seppur.2021.119474
Article source: Figure S3B
Adsorbate Nitrogen: InChIKey IJGRMHOSHXDMSA-UHFFFAOYSA-N
Kind: experiment
Temperature: 77 K
Tabular data in the source: 0
pressure (bar)	uptake (cm3(STP)/g)
0.009188	25.0417
0.021	26.3773
0.030187	27.7129
0.039375	28.3806
0.048563	29.7162
0.09975	33.0551
0.150938	36.0601
0.200813	38.7312
0.252	41.4023
0.303187	43.7396
0.353063	46.4107
0.40425	49.0818
0.454125	51.7529
0.506625	55.0918
0.5565	58.0968
0.607687	61.1018
0.658875	64.7746
0.70875	68.7813
0.759937	73.7896
0.8085	80.1336
0.861	88.6477
0.910875	103.506
0.962063	132.22
0.972563	141.903
0.983063	151.252
0.993563	163.272
1.00275	176.628
0.964688	152.922
0.911531	121.536
0.859688	102.17
0.8085	92.4875
0.758625	86.1436
0.70875	81.1352
0.658875	77.7963
0.609	74.7913
0.5565	71.4524
0.507938	69.4491
0.455438	66.1102
0.40425	63.4391
0.353063	61.1018
0.303187	58.4307
0.252	55.9265
0.200813	53.0885
0.15225	50.7513
0.101062	48.0801
0.050531	44.2404
