Adsorption isotherm of Chromium on MABC-P50
DOI: 10.1016/j.seppur.2021.119474
Article source: Figure 6D
Adsorbate Chromium: InChIKey VYZAMTAEIAYCRO-UHFFFAOYSA-N
Kind: experiment
Temperature: 298 K
Tabular data in the source: 0
pressure (bar)	uptake (mg/g)
1.01325	289.042
1.01325	322.85
1.01325	340.541
1.01325	353.12
1.01325	359.803
1.01325	377.887
1.01325	384.177
