Adsorption isotherm of Chromium on MABC-P50
DOI: 10.1016/j.seppur.2021.119474
Article source: Figure 6D
Adsorbate Chromium: InChIKey VYZAMTAEIAYCRO-UHFFFAOYSA-N
Kind: experiment
Temperature: 308 K
Tabular data in the source: 0
pressure (bar)	uptake (mg/g)
1.01325	295.135
1.01325	331.892
1.01325	355.479
1.01325	377.494
1.01325	381.425
1.01325	404.226
1.01325	423.882
