Adsorption isotherm of Nitrogen on BC
DOI: 10.1016/j.seppur.2021.119474
Article source: Figure S3A
Adsorbate Nitrogen: InChIKey IJGRMHOSHXDMSA-UHFFFAOYSA-N
Kind: experiment
Temperature: 77 K
Tabular data in the source: 0
pressure (bar)	uptake (cm3(STP)/g)
0.007865	0.067797
0.018351	0.20339
0.028838	0.474576
0.039324	0.542373
0.0485	0.338983
0.100932	1.01695
0.150742	1.42373
0.201864	2.37288
0.251674	2.50848
0.30214	2.91525
0.352606	3.45763
0.403727	3.72881
0.454193	4.33898
0.50597	4.54237
0.555125	4.88136
0.605591	5.22034
0.656712	5.55932
0.707178	5.9661
0.757644	6.30509
0.808765	6.57627
0.858575	6.84746
0.909697	8.33898
0.960818	8.88136
0.973926	9.01695
0.983102	9.22034
0.990966	9.69491
1.00014	10.2373
1.00014	10.3729
0.992277	9.69491
0.981791	9.42373
0.971304	9.01695
0.962129	8.88136
0.909697	8.47458
0.859886	8.0678
0.810076	7.38983
0.761576	7.25424
0.709144	6.98305
0.658023	6.71186
0.605591	6.30509
0.556435	5.62712
0.50597	5.28814
0.453538	4.94915
0.403727	4.54237
0.353917	4.13559
0.302795	3.59322
0.252329	2.91525
0.203174	2.1017
0.149431	1.69492
0.099621	1.01695
0.051121	0.474576
0.039324	0.474576
0.028182	0.338983
0.018351	0.338983
0.009176	0.135593
