Adsorption isotherm of Nitrogen on ABC
DOI: 10.1016/j.seppur.2021.119474
Article source: Figure S3A
Adsorbate Nitrogen: InChIKey IJGRMHOSHXDMSA-UHFFFAOYSA-N
Kind: experiment
Temperature: 77 K
Tabular data in the source: 0
pressure (bar)	uptake (cm3(STP)/g)
0.009176	36.8136
0.018351	38.9831
0.028838	40.1356
0.039324	41.2881
0.04981	42.1017
0.099621	44.9492
0.149431	46.5763
0.201864	48.0678
0.254296	49.4237
0.302795	50.3729
0.353917	51.7288
0.402416	52.5424
0.453538	53.3559
0.504659	54.0339
0.557091	54.5763
0.606901	54.9831
0.658023	55.661
0.706522	56.0678
0.757644	56.7458
0.810076	57.4237
0.861197	58.3729
0.911007	59.322
0.962129	61.2203
0.972615	61.7627
0.981791	62.3051
0.992277	62.9831
1.00145	64.4746
0.962129	62.3051
0.909697	61.8983
0.862508	61.6271
0.810076	61.2203
0.757644	60.9492
0.707833	61.2203
0.658023	61.2203
0.606901	61.0847
0.557091	60.5424
0.504659	60.4068
0.453538	58.7797
0.403727	57.8305
0.352606	57.1525
0.302795	56.339
0.252985	55.5254
0.201864	54.5763
0.150087	53.7627
0.100932	52.1356
0.051121	49.6949
