Adsorption isotherm of Chromium on MABC-P50
DOI: 10.1016/j.seppur.2021.119474
Article source: Figure 6D
Adsorbate Chromium: InChIKey VYZAMTAEIAYCRO-UHFFFAOYSA-N
Kind: experiment
Temperature: 318 K
Tabular data in the source: 0
pressure (bar)	uptake (mg/g)
1.01325	299.656
1.01325	360.983
1.01325	392.826
1.01325	409.73
1.01325	412.875
1.01325	421.13
1.01325	435.676
