Adsorption isotherm of Nitrogen on MABC-P50
DOI: 10.1016/j.seppur.2021.119474
Article source: Figure S3B
Adsorbate Nitrogen: InChIKey IJGRMHOSHXDMSA-UHFFFAOYSA-N
Kind: experiment
Temperature: 77 K
Tabular data in the source: 0
pressure (bar)	uptake (cm3(STP)/g)
0.0105	3.00501
0.018375	4.00668
0.030187	5.00835
0.039375	5.67613
0.051188	6.01002
0.100406	8.1803
0.15225	9.68281
0.200813	10.3506
0.254625	12.02
0.3045	12.3539
0.357	14.0234
0.40425	14.6912
0.455438	16.3606
0.506625	17.6962
0.557812	18.6978
0.609	20.7012
0.65625	23.0384
0.710063	25.3756
0.758625	28.7145
0.809812	32.3873
0.861	39.0651
0.912188	51.419
0.962719	73.1219
0.972563	77.2955
0.984375	82.1369
0.994219	85.9766
1.00275	91.4858
0.96075	80.8013
0.9135	69.1152
0.859688	48.0801
0.8085	37.3957
0.759281	31.8865
0.707438	28.0467
0.658875	25.0417
0.606375	23.0384
0.559125	21.0351
0.505312	19.0317
0.45675	17.3623
0.40425	16.6945
0.353063	15.6928
0.303187	14.0234
0.252	12.6878
0.20475	11.0184
0.153562	9.34892
0.103687	8.01336
0.0525	6.01002
0.040687	5.67613
0.029531	5.00835
0.018375	4.34057
0.007219	3.17195
