Adsorption isotherm of Nitrogen on SiFe
DOI: 10.1007/s10450-017-9871-8
Article source: Figure 6
Adsorbate Nitrogen: InChIKey IJGRMHOSHXDMSA-UHFFFAOYSA-N
Kind: experiment
Isotherm type: excess
Temperature: 77 K
Tabular data in the source: 0
pressure (bar)	uptake (cm3(STP)/g)
-0.001827	27.0677
0.001827	34.5865
0.008223	38.3459
0.029237	47.3684
0.045683	51.8797
0.061215	53.3835
0.075834	54.8872
0.098675	57.8947
0.116949	60.1504
0.140704	60.9023
0.159891	63.9098
0.178164	64.6617
0.201919	66.1654
0.248516	70.6767
0.30699	72.9323
0.359982	78.1955
0.404752	82.7068
0.455917	87.9699
0.506168	92.4812
0.557333	101.504
0.606671	108.271
0.656922	115.038
0.709001	125.564
0.758339	135.338
0.80859	148.12
0.840568	159.398
0.868892	175.188
0.915488	207.519
0.942898	240.602
0.968481	310.526
0.991322	469.173
0.304249	73.6842
0.355414	78.9474
0.402011	83.4586
0.459571	91.7293
0.506168	98.4962
0.557333	104.511
0.608498	113.534
0.662404	121.805
0.714483	133.083
0.764734	144.361
0.812245	160.902
0.84605	178.947
0.87346	199.248
0.911834	248.12
0.944725	342.105
0.977617	510.526
0.994063	561.654
1.00229	570.677
