Adsorption isotherm of Carbon Dioxide on SiFe
DOI: 10.1007/s10450-017-9871-8
Article source: Figure 5
Adsorbate Carbon Dioxide: InChIKey CURLTUGMZLYLDI-UHFFFAOYSA-N
Kind: experiment
Isotherm type: excess
Temperature: 298 K
Tabular data in the source: 0
pressure (bar)	uptake (mmol/g)
-0.000841	0.001178
0.012617	0.025324
0.019346	0.034158
0.031964	0.046525
0.063086	0.074205
0.09505	0.100707
0.128696	0.127797
0.193465	0.171378
0.256551	0.210247
0.32132	0.245583
0.386088	0.278563
0.481138	0.319788
0.515625	0.335689
0.579553	0.361602
0.642639	0.386337
0.770494	0.431684
0.005888	0.010601
0.010094	0.017079
0.026076	0.037102
0.050469	0.065371
0.090003	0.099529
0.114396	0.120141
0.16066	0.154888
0.289356	0.23086
0.402911	0.287986
0.533289	0.342756
0.697314	0.404005
1.02873	0.5053
