Adsorption isotherm of Carbon Dioxide on SiFe-20A(E)
DOI: 10.1007/s10450-017-9871-8
Article source: Figure 6
Adsorbate Carbon Dioxide: InChIKey CURLTUGMZLYLDI-UHFFFAOYSA-N
Kind: experiment
Isotherm type: excess
Temperature: 298 K
Tabular data in the source: 0
pressure (bar)	uptake (mmol/g)
0.003799	0.205018
0.015196	0.273835
0.018995	0.293907
0.034191	0.331183
0.060785	0.374194
0.094976	0.405735
0.127268	0.443011
0.191851	0.488889
0.258334	0.526165
0.321018	0.554839
0.383702	0.583513
0.484377	0.623656
0.51287	0.635125
0.581252	0.658065
0.642987	0.676703
0.773104	0.709677
0.007598	0.248029
0.011397	0.27957
0.026593	0.33405
0.049387	0.382796
0.089277	0.428674
0.11682	0.455914
0.163358	0.494624
0.290626	0.566308
0.400798	0.617921
0.529965	0.658065
0.697123	0.701075
1.02954	0.768459
