Adsorption isotherm of Carbon Dioxide on F873
DOI: 10.1007/s10450-017-9871-8
Article source: Figure 5
Adsorbate Carbon Dioxide: InChIKey CURLTUGMZLYLDI-UHFFFAOYSA-N
Kind: experiment
Isotherm type: excess
Temperature: 298 K
Tabular data in the source: 0
pressure (bar)	uptake (mmol/g)
0	0.000589
0.062245	0.007656
0.09505	0.010012
0.127014	0.01119
0.192623	0.012956
0.25571	0.015312
0.323843	0.018846
0.386088	0.018257
0.480297	0.022968
0.517308	0.022379
0.578712	0.024735
0.641798	0.026502
0.771335	0.030035
0.024393	0.0053
0.050469	0.007067
0.090003	0.010601
0.117761	0.012367
0.16066	0.013545
0.290197	0.018257
0.400388	0.021201
0.529084	0.024735
0.688902	0.027091
1.03041	0.031802
