Adsorption isotherm of Nitrogen on SiFe-40A(T)
DOI: 10.1007/s10450-017-9871-8
Article source: Figure 6
Adsorbate Nitrogen: InChIKey IJGRMHOSHXDMSA-UHFFFAOYSA-N
Kind: experiment
Isotherm type: excess
Temperature: 77 K
Tabular data in the source: 0
pressure (bar)	uptake (cm3(STP)/g)
-0.001827	0
0.01736	7.5188
0.050251	15.7895
0.057561	15.7895
0.080402	18.0451
0.101416	20.3008
0.122431	21.0526
0.140704	23.3083
0.159891	22.5564
0.179078	26.3158
0.201919	24.812
0.25217	27.8195
0.306076	26.3158
0.355414	27.0677
0.404752	29.3233
0.455003	32.3308
0.657836	43.609
0.709915	48.8722
0.759252	54.8872
0.807676	63.9098
0.840568	69.1729
0.870719	78.9474
0.909093	93.985
0.935589	121.805
0.974876	184.962
0.994063	272.18
1.00137	339.85
0.303335	29.3233
0.356328	32.3308
0.404752	33.0827
0.45683	36.8421
0.506168	39.8496
0.557333	39.8496
0.608498	44.3609
0.659663	47.3684
0.713569	51.8797
0.765648	60.1504
0.802194	63.1579
0.845136	76.6917
0.87346	88.7218
0.903611	112.03
0.945639	181.203
0.977617	289.474
0.996804	339.098
1.00503	347.368
