Adsorption isotherm of Nitrogen on SiFe-20A(E)
DOI: 10.1007/s10450-017-9871-8
Article source: Figure 6
Adsorbate Nitrogen: InChIKey IJGRMHOSHXDMSA-UHFFFAOYSA-N
Kind: experiment
Isotherm type: excess
Temperature: 77 K
Tabular data in the source: 0
pressure (bar)	uptake (cm3(STP)/g)
-0.001827	15.0376
0.016446	21.0526
0.036546	24.0602
0.053906	27.8195
0.071266	30.0752
0.089539	31.5789
0.106898	33.0827
0.127913	34.5865
0.145272	35.3383
0.164459	36.8421
0.18456	37.594
0.20466	38.3459
0.250343	40.6015
0.303335	45.8647
0.355414	49.6241
0.402011	53.3835
0.454089	54.8872
0.506168	60.1504
0.553679	63.9098
0.607585	66.1654
0.65875	73.6842
0.709001	78.9474
0.757425	87.9699
0.80859	98.4962
0.838741	109.023
0.867064	118.797
0.914575	150.376
0.970308	246.617
0.989495	403.759
0.302422	40.6015
0.355414	45.8647
0.402924	51.1278
0.457744	54.8872
0.505255	60.1504
0.558247	64.6617
0.607585	68.4211
0.661491	75.9398
0.712656	83.4586
0.762907	92.4812
0.812245	104.511
0.837827	115.038
0.867978	130.075
0.913661	179.699
0.944725	257.895
0.977617	415.789
0.99589	490.226
1.0032	496.241
