Adsorption isotherm of Carbon Dioxide on SiFe-20A(T)
DOI: 10.1007/s10450-017-9871-8
Article source: Figure 6
Adsorbate Carbon Dioxide: InChIKey CURLTUGMZLYLDI-UHFFFAOYSA-N
Kind: experiment
Isotherm type: excess
Temperature: 298 K
Tabular data in the source: 0
pressure (bar)	uptake (mmol/g)
0.003799	0.43871
0.013297	0.523297
0.021844	0.553405
0.031342	0.582079
0.060785	0.623656
0.095926	0.6681
0.130117	0.701075
0.191851	0.736918
0.256435	0.775627
0.319119	0.807168
0.387502	0.835842
0.482477	0.873118
0.51287	0.884588
0.581252	0.906093
0.642987	0.921864
0.773104	0.960573
0.004749	0.523297
0.025643	0.596416
0.047488	0.650896
0.089277	0.701075
0.160509	0.758423
0.288727	0.82724
0.402698	0.873118
0.530915	0.911828
0.699022	0.951971
1.03049	1.01505
