Adsorption isotherm of Carbon Dioxide on SiFe-40A(T)
DOI: 10.1007/s10450-017-9871-8
Article source: Figure 6
Adsorbate Carbon Dioxide: InChIKey CURLTUGMZLYLDI-UHFFFAOYSA-N
Kind: experiment
Isotherm type: excess
Temperature: 298 K
Tabular data in the source: 0
pressure (bar)	uptake (mmol/g)
0.0019	0.475986
0.027543	0.609319
0.063634	0.653763
0.096875	0.681004
0.131067	0.71828
0.192801	0.774194
0.256435	0.81147
0.321968	0.844444
0.386552	0.875986
0.483427	0.917563
0.51287	0.9319
0.582202	0.963441
0.643936	0.983513
0.769304	1.03082
0.007598	0.540502
0.010447	0.566308
0.025643	0.632258
0.049387	0.683871
0.090227	0.732616
0.11682	0.754122
0.161459	0.792832
0.288727	0.870251
0.402698	0.924731
0.531865	0.973477
0.695223	1.02222
1.02859	1.10108
