Adsorption isotherm of Nitrogen on SiFe-20A(T)
DOI: 10.1007/s10450-017-9871-8
Article source: Figure 6
Adsorbate Nitrogen: InChIKey IJGRMHOSHXDMSA-UHFFFAOYSA-N
Kind: experiment
Isotherm type: excess
Temperature: 77 K
Tabular data in the source: 0
pressure (bar)	uptake (cm3(STP)/g)
0.001827	3.7594
0.024669	10.5263
0.045683	14.2857
0.070352	18.797
0.094107	21.0526
0.118776	24.0602
0.141617	25.5639
0.161718	25.5639
0.182732	28.5714
0.206487	28.5714
0.25217	33.0827
0.305163	33.0827
0.358155	35.3383
0.403838	36.0902
0.454089	39.0977
0.506168	41.3534
0.559161	44.3609
0.607585	47.3684
0.659663	51.8797
0.710828	56.391
0.76108	63.9098
0.805849	75.188
0.845136	90.9774
0.868892	100.752
0.935589	177.444
0.966653	200
0.992236	329.323
0.991322	406.015
0.302422	33.8346
0.355414	35.3383
0.402924	37.594
0.45683	39.8496
0.505255	42.1053
0.557333	45.8647
0.607585	48.8722
0.660577	53.3835
0.714483	57.8947
0.763821	66.1654
0.807676	75.188
0.84605	91.7293
0.869805	98.4962
0.899956	112.03
0.911834	142.105
0.913661	167.669
0.944725	218.797
0.977617	345.865
0.993149	403.759
1.00411	413.534
