Adsorption isotherm of Nitrogen on F673
DOI: 10.1007/s10450-017-9871-8
Article source: Figure 4
Adsorbate Nitrogen: InChIKey IJGRMHOSHXDMSA-UHFFFAOYSA-N
Kind: experiment
Isotherm type: excess
Temperature: 77 K
Tabular data in the source: 0
pressure (bar)	uptake (cm3(STP)/g)
0.205789	19.2154
0.322054	22.0977
0.406346	24.4996
0.421461	23.5388
0.481337	27.3819
0.507497	26.4211
0.540633	27.8623
0.698172	35.5484
0.761536	41.313
0.862687	53.803
0.919075	63.4107
0.999298	89.3515
0.019184	15.8527
0.03488	16.8135
0.049994	17.7742
0.052901	17.7742
0.056389	16.3331
0.081386	16.8135
0.090105	17.2938
0.117428	17.2938
0.141262	16.3331
0.180211	18.735
0.229623	19.6958
0.291825	22.0977
0.331937	23.5388
0.369142	23.0584
0.849898	45.1561
