Adsorption isotherm of Carbon Dioxide on F393
DOI: 10.1007/s10450-017-9871-8
Article source: Figure 5
Adsorbate Carbon Dioxide: InChIKey CURLTUGMZLYLDI-UHFFFAOYSA-N
Kind: experiment
Isotherm type: excess
Temperature: 298 K
Tabular data in the source: 0
pressure (bar)	uptake (mmol/g)
-0.003365	0.008245
0.00757	0.023557
0.088321	0.056537
0.115238	0.065371
0.161501	0.075972
0.290197	0.097762
0.408799	0.114841
0.539178	0.130742
0.704884	0.146054
1.02705	0.172556
-0.000841	0.000589
0.060563	0.037102
0.096732	0.045347
0.127014	0.053004
0.193465	0.063604
0.25571	0.072438
0.323843	0.081272
0.38777	0.088928
0.48282	0.09894
0.517308	0.101885
0.580394	0.108952
0.642639	0.114841
0.772176	0.124853
