Adsorption isotherm of Carbon Dioxide on SiFe
DOI: 10.1007/s10450-017-9871-8
Article source: Figure 6
Adsorbate Carbon Dioxide: InChIKey CURLTUGMZLYLDI-UHFFFAOYSA-N
Kind: experiment
Isotherm type: excess
Temperature: 298 K
Tabular data in the source: 0
pressure (bar)	uptake (mmol/g)
0	0.001434
0.033242	0.045878
0.063634	0.075986
0.096875	0.101792
0.129167	0.126165
0.193751	0.172043
0.258334	0.21362
0.321968	0.245161
0.387502	0.276703
0.483427	0.319713
0.514769	0.339785
0.579353	0.362724
0.640137	0.385663
0.771204	0.431541
0.008548	0.014337
0.013297	0.021505
0.024694	0.03871
0.050337	0.06595
0.092127	0.097491
0.115871	0.121864
0.159559	0.156272
0.288727	0.233692
0.402698	0.288172
0.530915	0.34552
0.699022	0.408602
1.02954	0.508961
