Adsorption isotherm of Carbon Dioxide on F673
DOI: 10.1007/s10450-017-9871-8
Article source: Figure 5
Adsorbate Carbon Dioxide: InChIKey CURLTUGMZLYLDI-UHFFFAOYSA-N
Kind: experiment
Isotherm type: excess
Temperature: 298 K
Tabular data in the source: 0
pressure (bar)	uptake (mmol/g)
-0.000841	0.000589
0.060563	0.037102
0.096732	0.045347
0.127014	0.053004
0.193465	0.063604
0.25571	0.072438
0.323843	0.081272
0.38777	0.088928
0.48282	0.09894
0.517308	0.101885
0.580394	0.108952
0.642639	0.114841
0.772176	0.124853
0.053834	0.040047
0.092527	0.04947
0.118602	0.05477
0.163183	0.064193
0.291038	0.08245
0.405435	0.094817
0.534131	0.107185
0.699837	0.12073
1.02789	0.14311
