Adsorption isotherm of Nitrogen on F873
DOI: 10.1007/s10450-017-9871-8
Article source: Figure 4
Adsorbate Nitrogen: InChIKey IJGRMHOSHXDMSA-UHFFFAOYSA-N
Kind: experiment
Isotherm type: excess
Temperature: 77 K
Tabular data in the source: 0
pressure (bar)	uptake (cm3(STP)/g)
0.208696	12.0096
0.325542	12.9704
0.406346	14.4115
0.41681	14.8919
0.442389	15.3723
0.451108	15.3723
0.476687	16.8135
0.506916	19.2154
0.53947	18.735
0.595858	21.1369
0.613298	20.6565
0.633645	22.0977
0.701078	27.8623
0.749328	28.3427
0.867337	42.2738
0.927795	53.803
0.980696	70.1361
0.008139	9.60769
0.013952	9.1273
0.022672	10.0881
0.031392	10.0881
0.03488	9.60769
0.040693	10.5685
0.048831	11.0488
0.065108	11.5292
0.070922	11.5292
0.078479	11.5292
0.086617	11.0488
0.106964	11.0488
0.115102	11.0488
0.140681	11.0488
0.17963	11.0488
0.229623	15.3723
0.290081	13.9311
0.369723	14.4115
0.747584	22.5781
0.760955	23.0584
0.849898	31.7054
0.962093	54.7638
0.992322	70.6165
