Adsorption isotherm of Nitrogen on SiFe
DOI: 10.1007/s10450-017-9871-8
Article source: Figure 4
Adsorbate Nitrogen: InChIKey IJGRMHOSHXDMSA-UHFFFAOYSA-N
Kind: experiment
Isotherm type: excess
Temperature: 77 K
Tabular data in the source: 0
pressure (bar)	uptake (cm3(STP)/g)
-0.002325	24.98
0	29.7838
0.006976	34.5877
0.031392	43.2346
0.048831	47.0777
0.063364	48.9992
0.078479	51.8815
0.101151	54.2834
0.120916	55.7246
0.141843	58.6069
0.161608	60.5284
0.181955	61.4892
0.202301	62.45
0.24997	68.2146
0.307521	71.0969
0.359259	76.8615
0.406346	78.3026
0.454596	84.5476
0.506916	93.1946
0.558072	99.4396
0.606904	106.645
0.657479	115.292
0.709217	123.939
0.75863	134.988
0.808042	148.439
0.841178	159.007
0.869081	171.497
0.914425	203.683
0.940584	239.231
0.966744	310.328
0.990578	467.894
1.00046	568.295
0.304614	73.0184
0.35519	77.3419
0.402858	81.6653
0.458084	88.3907
0.506334	96.5572
0.558072	103.763
0.608066	110.488
0.661548	121.057
0.713286	131.145
0.763861	142.674
0.810949	160.929
0.845247	177.742
0.871988	197.918
0.911518	246.918
0.944072	340.592
0.977208	510.168
0.992904	562.05
