Adsorption isotherm of Nitrogen on F393
DOI: 10.1007/s10450-017-9871-8
Article source: Figure 4
Adsorbate Nitrogen: InChIKey IJGRMHOSHXDMSA-UHFFFAOYSA-N
Kind: experiment
Isotherm type: excess
Temperature: 77 K
Tabular data in the source: 0
pressure (bar)	uptake (cm3(STP)/g)
0.448783	27.8623
0.507497	29.7838
0.540051	29.3034
0.593533	31.7054
0.630157	32.1857
0.653991	35.5484
0.697009	36.0288
0.753398	41.313
0.74584	32.1857
0.977208	70.6165
