Adsorption isotherm of Hydrogen on binderless 5A zeolite
DOI: 10.1016/j.jcou.2017.05.003
Article source: Figure 2
Adsorbate Hydrogen: InChIKey UFHFLCQGNIYNRP-UHFFFAOYSA-N
Kind: experiment
Temperature: 305 K
Tabular data in the source: 0
pressure (bar)	uptake (mmol/g)
1.1384	0.079
2.1718	0.2113
3.3035	0.3438
4.1875	0.389
5.2125	0.4344
