Adsorption isotherm of Nitrogen on binderless 5A zeolite
DOI: 10.1016/j.jcou.2017.05.003
Article source: Figure 2
Adsorbate Nitrogen: InChIKey IJGRMHOSHXDMSA-UHFFFAOYSA-N
Kind: experiment
Temperature: 305 K
Tabular data in the source: 0
pressure (bar)	uptake (mmol/g)
0.1968	0.0193
0.2352	0.0592
0.4102	0.0885
0.677	0.194
0.858	0.2489
1.0634	0.3287
1.1216	0.3588
1.4263	0.4307
1.681	0.5515
2.1136	0.7217
3.0998	1.053
3.5098	1.1845
4.0531	1.3589
4.4565	1.4965
4.9675	1.7073
