Adsorption isotherm of Carbon monoxide on binderless 5A zeolite
DOI: 10.1016/j.jcou.2017.05.003
Article source: Figure 2
Adsorbate Carbon monoxide: InChIKey UGFAIRIUMAVXCW-UHFFFAOYSA-N
Kind: experiment
Temperature: 305 K
Tabular data in the source: 0
pressure (bar)	uptake (mmol/g)
0.028	0.0805
0.0557	0.1457
0.0962	0.2146
0.1324	0.2581
0.1836	0.3125
0.2305	0.3669
0.2945	0.4249
0.3692	0.5011
0.446	0.5809
0.5782	0.697
0.6998	0.8095
0.8662	0.9691
1.0349	1.0274
1.5748	1.3434
2.0827	1.5869
