Adsorption isotherm of Carbon Dioxide on binderless 5A zeolite
DOI: 10.1016/j.jcou.2017.05.003
Article source: Figure 3
Adsorbate Carbon Dioxide: InChIKey CURLTUGMZLYLDI-UHFFFAOYSA-N
Kind: experiment
Temperature: 305 K
Tabular data in the source: 0
pressure (bar)	uptake (mmol/g)
0.0382	2.535
0.0501	2.8066
0.1032	3.387
0.1942	3.7256
0.3146	3.9557
0.4473	4.1092
0.6969	4.283
1.3949	4.5475
2.1284	4.6969
3.0923	4.8438
3.6357	4.9081
4.0778	4.9472
