Adsorption isotherm of Carbon Dioxide on binderless 5A zeolite
DOI: 10.1016/j.jcou.2017.05.003
Article source: Figure 2
Adsorbate Carbon Dioxide: InChIKey CURLTUGMZLYLDI-UHFFFAOYSA-N
Kind: experiment
Temperature: 305 K
Tabular data in the source: 0
pressure (bar)	uptake (mmol/g)
0.0131	0.9548
0.0191	1.2915
0.0309	2.2093
0.0381	2.5135
0.0548	2.8158
0.115	3.3861
0.1745	3.6795
0.1937	3.7049
0.314	3.9676
0.4505	4.1109
0.5465	4.2251
0.6927	4.2851
0.8303	4.3723
1.1153	4.4724
1.3971	4.5453
1.6737	4.6272
2.1283	4.6987
3.0913	4.8511
3.4948	4.9096
3.6379	4.8954
4.0756	4.9433
4.4685	4.9947
5.0087	5.0392
5.0386	5.0284
