Adsorption isotherm of Methane on binderless 5A zeolite
DOI: 10.1016/j.jcou.2017.05.003
Article source: Figure 2
Adsorbate Methane: InChIKey VNWKTOKETHGBQD-UHFFFAOYSA-N
Kind: experiment
Temperature: 305 K
Tabular data in the source: 0
pressure (bar)	uptake (mmol/g)
0.0302	0.0371
0.1006	0.0843
0.1753	0.1387
0.2649	0.1751
0.2926	0.2041
0.4506	0.284
0.5828	0.4074
0.713	0.5018
0.8432	0.5962
1.0395	0.6689
1.1484	0.7488
1.3874	0.8579
1.7331	1.0468
2.0619	1.1597
3.0821	1.5852
3.52	1.7045
4.1332	1.8973
4.5071	1.9892
5.0047	2.1179
