Adsorption isotherm of Carbon Dioxide on Co3.bpda2- )3( tpt) /3 (DMF 2 )2
DOI: 10.1039/c5ce01047k
Article source: Figure  2b
Adsorbate Carbon Dioxide: InChIKey CURLTUGMZLYLDI-UHFFFAOYSA-N
Kind: experiment
Isotherm type: absolute
Temperature: 298 K
Tabular data in the source: 0
pressure (bar)	uptake (cm3(STP)/g)
0.004	0.936
0.014679	1.369
0.030797	1.945
0.047263	2.666
0.061608	3.559
0.072274	4.021
0.084166	4.367
0.100845	4.987
0.117524	5.765
0.136549	6.716
0.161667	7.725
0.186131	9.152
0.217049	10.55
0.253632	12.092
0.297549	14.053
0.348358	15.97
0.404727	18.464
0.473441	21.202
0.552608	23.87
0.646227	27.574
0.754085	31.136
0.878941	35.677
1.0276	40.018
