Adsorption isotherm of Methane on Co3.bpda2- )3( tpt) /3 (DMF 2 )2
DOI: 10.1039/c5ce01047k
Article source: Figure  2b
Adsorbate Methane: InChIKey VNWKTOKETHGBQD-UHFFFAOYSA-N
Kind: experiment
Isotherm type: absolute
Temperature: 298 K
Tabular data in the source: 0
pressure (bar)	uptake (cm3(STP)/g)
0.006453	0.605
0.018785	0.778
0.033691	0.966
0.049476	0.996
0.069154	1.14
0.097285	1.142
0.115844	1.114
0.132522	1.258
0.154641	1.331
0.179772	1.692
0.211783	1.996
0.272711	2.718
0.296389	2.791
0.404127	3.732
0.491066	4.657
0.555314	4.832
0.666385	5.557
0.752991	6.914
0.882061	7.308
1.04494	9.331
