Adsorption isotherm of Carbon Dioxide on Co3.bpda2- )3( tpt) /3 (DMF 2 )2
DOI: 10.1039/c5ce01047k
Article source: Figure  2b
Adsorbate Carbon Dioxide: InChIKey CURLTUGMZLYLDI-UHFFFAOYSA-N
Kind: experiment
Isotherm type: absolute
Temperature: 273 K
Tabular data in the source: 0
pressure (bar)	uptake (cm3(STP)/g)
0.002893	1.815
0.011346	2.722
0.018905	3.371
0.026478	4.393
0.03581	5.171
0.047049	6.309
0.052729	7.303
0.061728	8.268
0.069301	9.349
0.076194	9.839
0.083526	10.53
0.089313	11.106
0.101992	12.072
0.118564	14.189
0.137242	15.861
0.15948	18.079
0.186625	20.557
0.219542	23.539
0.253792	26.407
0.298602	29.792
0.346865	33.683
0.405913	38.077
0.474308	43.207
0.553474	48.653
0.645667	54.892
0.752751	61.607
0.880288	69.202
1.02762	77.013
