Adsorption isotherm of Nitrogen on Co3.bpda2-) 3 (tpt) 3 (DMF) )2/ 2
DOI: 10.1039/c5ce01047k
Article source: Figure  2a
Adsorbate Nitrogen: InChIKey IJGRMHOSHXDMSA-UHFFFAOYSA-N
Kind: experiment
Temperature: 77 K
Tabular data in the source: 0
pressure (bar)	uptake (cm3(STP)/g)
0.004286	19.937
0.004286	25.732
0.004296	35.978
0.004327	127.884
0.004327	122.807
0.004377	4.141
0.004377	6.861
0.004387	11.554
0.004387	16.011
0.004418	107.012
0.004428	110.126
0.004428	112.924
0.004499	39.965
0.004499	38.303
0.004499	36.677
0.004499	51.835
0.004499	55.76
0.004499	59.717
0.004509	79.316
0.004509	83.272
0.004509	87.229
0.004519	91.186
0.004519	95.142
0.004519	103.74
0.004519	103.055
0.0046	63.582
0.0046	76.755
0.00461	76.067
0.00461	75.359
0.004691	27.911
0.004691	26.306
0.004732	126.703
0.004732	131.324
0.004732	134.616
0.004732	141.698
0.004732	142.529
0.004732	143.053
0.004742	143.508
0.004935	154.368
0.004945	154.422
0.004945	154.48
0.004945	154.541
0.005745	172.664
0.005745	172.679
0.006444	177.678
0.006546	179.886
0.007832	182.248
0.00993	184.856
0.011723	187.321
0.013608	188.69
0.037602	200.807
0.06427	204.858
0.083684	206.056
0.105277	206.518
0.124387	206.734
0.143993	207.043
0.1843	207.415
0.204109	207.263
0.225002	206.866
0.27606	206.932
0.307015	206.076
0.358164	205.743
0.407934	205.073
0.45958	204.587
0.510242	203.365
0.561097	202.296
0.611152	201.166
0.66301	199.821
0.71346	198.231
0.763322	197.223
0.814977	195.694
0.832192	195.144
0.863937	194.349
0.889218	193.493
0.913404	192.421
0.937195	191.657
0.963165	190.954
0.996106	191.018
0.999298	191.144
1.00308	194.576
