Adsorption isotherm of Methane on Co3.bpda2- )3( tpt) /3 (DMF 2 )2
DOI: 10.1039/c5ce01047k
Article source: Figure  2b
Adsorbate Methane: InChIKey VNWKTOKETHGBQD-UHFFFAOYSA-N
Kind: experiment
Isotherm type: absolute
Temperature: 273 K
Tabular data in the source: 0
pressure (bar)	uptake (cm3(STP)/g)
0.00512	0.403
0.021905	1.323
0.04057	2.1
0.052356	2.229
0.061475	2.229
0.081473	2.458
0.098485	2.616
0.113377	2.903
0.132162	3.205
0.155054	3.722
0.179959	4.038
0.209183	4.541
0.243647	5.605
0.284883	6.223
0.332999	7.041
0.386248	8.249
0.472494	9.512
0.551968	10.877
0.645	12.587
0.753591	14.354
0.879181	16.509
1.02778	18.577
