Adsorption isotherm of Nitrogen on H1/3[(Co^II13/2(BTB)4(OH)4/3(DMA)3]-2DMA-4H2O
DOI: 10.1039/C2ra22118g
Adsorbate Nitrogen: InChIKey IJGRMHOSHXDMSA-UHFFFAOYSA-N
Temperature: 195 K
Tabular data in the source: 0
pressure (bar)	uptake (cm3(STP)/g)
0.0564342	2.24299
0.101599	3.73832
0.135479	4.7352
0.18292	5.98131
0.230375	6.97819
0.282354	7.97508
0.334334	8.97196
0.388647	8.72274
0.438392	9.22118
0.488166	9.22118
0.528792	10.9657
0.589863	11.215
0.639623	11.4642
0.689383	11.7134
0.741405	11.9626
0.791164	12.2118
0.843172	12.7103
0.892932	12.9595
0.944968	12.9595
0.994728	13.2087
1.03542	13.7072
