Adsorption isotherm of Methane on H1/3[(Co^II13/2(BTB)4(OH)4/3(DMA)3]-2DMA-4H2O
DOI: 10.1039/C2ra22118g
Adsorbate Methane: InChIKey VNWKTOKETHGBQD-UHFFFAOYSA-N
Temperature: 195 K
Tabular data in the source: 0
pressure (bar)	uptake (cm3(STP)/g)
0.0644258	1.34146
0.106443	2.19512
0.162465	3.29268
0.210084	4.14634
0.260504	5
0.310924	5.60976
0.386555	6.58537
0.439776	7.07317
0.490196	7.80488
0.540616	8.29268
0.593838	8.53659
0.641457	9.02439
0.694678	9.26829
0.745098	9.5122
0.795518	9.7561
0.845938	10.2439
0.896359	10.4878
0.943978	10.7317
0.997199	10.8537
