Adsorption isotherm of Carbon Dioxide on H1/3[(Co^II13/2(BTB)4(OH)4/3(DMA)3]-2DMA-4H2O
DOI: 10.1039/C2ra22118g
Adsorbate Carbon Dioxide: InChIKey CURLTUGMZLYLDI-UHFFFAOYSA-N
Temperature: 292 K
Tabular data in the source: 0
pressure (bar)	uptake (cm3(STP)/g)
0.0231884	1.43885
0.0521739	3.16547
0.0956522	5.46763
0.127536	6.61871
0.173913	8.34532
0.228986	10.3597
0.281159	12.0863
0.336232	13.2374
0.385507	14.964
0.437681	15.8273
0.489855	16.6906
0.542029	18.1295
0.594203	18.9928
0.643478	19.8561
0.692754	20.7194
0.744928	21.295
0.8	21.8705
0.901449	23.0216
0.956522	23.5971
1.0058	24.1727
