Adsorption isotherm of Methane on H1/3[(Co^II13/2(BTB)4(OH)4/3(DMA)3]-2DMA-4H2O
DOI: 10.1039/C2ra22118g
Adsorbate Methane: InChIKey VNWKTOKETHGBQD-UHFFFAOYSA-N
Temperature: 273 K
Tabular data in the source: 0
pressure (bar)	uptake (cm3(STP)/g)
0.0728291	0.853659
0.131653	1.70732
0.184874	2.19512
0.235294	2.80488
0.294118	3.29268
0.341737	3.78049
0.394958	4.14634
0.445378	4.5122
0.490196	5
0.543417	5.36585
0.593838	5.60976
0.644258	5.97561
0.697479	6.34146
0.745098	6.58537
0.795518	6.82927
0.848739	7.19512
0.896359	7.31707
0.946779	7.56098
1	7.80488
