Adsorption isotherm of Carbon monoxide on H1/3[(Co^II13/2(BTB)4(OH)4/3(DMA)3]-2DMA-4H2O
DOI: 10.1039/C2ra22118g
Adsorbate Carbon monoxide: InChIKey UGFAIRIUMAVXCW-UHFFFAOYSA-N
Temperature: 195 K
Tabular data in the source: 0
pressure (bar)	uptake (cm3(STP)/g)
0.0148368	2.39437
0.0356083	4.78873
0.0593472	6.90141
0.0949555	9.01408
0.124629	10.8451
0.151335	12.1127
0.178042	13.5211
0.204748	14.6479
0.252226	16.0563
0.281899	16.9014
0.329377	18.3099
0.379822	19.4366
0.433234	20.7042
0.48368	21.5493
0.537092	22.5352
0.593472	22.6761
0.635015	23.8028
0.691395	24.2254
0.744807	24.7887
0.792285	25.2113
0.84273	25.7746
0.893175	26.338
0.946588	27.0423
0.997033	27.6056
1.03858	28.3099
