Adsorption isotherm of Carbon Dioxide on H1/3[(Co^II13/2(BTB)4(OH)4/3(DMA)3]-2DMA-4H2O
DOI: 10.1039/C2ra22118g
Adsorbate Carbon Dioxide: InChIKey CURLTUGMZLYLDI-UHFFFAOYSA-N
Temperature: 195 K
Tabular data in the source: 0
pressure (bar)	uptake (cm3(STP)/g)
5.55e-17	4.60432
0.00289855	14.1007
0.0057971	28.4892
0.00869565	33.0935
0.0144928	42.8777
0.0202899	47.7698
0.026087	51.223
0.0376812	55.5396
0.0521739	58.705
0.0666667	61.5827
0.0898551	64.7482
0.118841	66.7626
0.147826	68.2014
0.176812	69.6403
0.228986	71.6547
0.257971	72.518
0.304348	73.6691
0.382609	75.3957
0.434783	75.9712
0.489855	76.5468
0.542029	77.6978
0.591304	77.9856
0.643478	78.5612
0.695652	79.1367
0.742029	79.4245
0.797101	80
0.846377	79.7122
0.901449	80.5755
0.953623	80.5755
1	81.1511
