Adsorption isotherm of Methane on H1/3[(Co^II13/2(BTB)4(OH)4/3(DMA)3]-2DMA-4H2O
DOI: 10.1039/C2ra22118g
Adsorbate Methane: InChIKey VNWKTOKETHGBQD-UHFFFAOYSA-N
Temperature: 195 K
Tabular data in the source: 0
pressure (bar)	uptake (cm3(STP)/g)
0.0364146	6.82927
0.0644258	8.29268
0.0980392	10.9756
0.140056	10.8537
0.173669	13.4146
0.210084	14.7561
0.257703	15.9756
0.313725	16.0976
0.389356	16.2195
0.439776	16.2195
0.492997	16.3415
0.540616	16.4634
0.593838	16.7073
0.647059	16.8293
0.694678	17.0732
0.745098	17.3171
0.795518	17.439
0.845938	17.561
0.896359	17.9268
0.946779	18.1707
1	18.5366
