Adsorption isotherm of Methane on H1/3[(Co^II13/2(BTB)4(OH)4/3(DMA)3]-2DMA-4H2O
DOI: 10.1039/C2ra22118g
Adsorbate Methane: InChIKey VNWKTOKETHGBQD-UHFFFAOYSA-N
Temperature: 195 K
Tabular data in the source: 0
pressure (bar)	uptake (cm3(STP)/g)
0.0628832	8.2243
0.0989273	10.9657
0.139665	10.7165
0.173447	13.4579
0.207313	14.704
0.31584	15.9502
0.390486	16.1994
0.44026	16.1994
0.49002	16.4486
0.53978	16.6978
0.591816	16.6978
0.641575	16.947
0.691349	16.947
0.741109	17.1963
0.793131	17.4455
0.845167	17.4455
0.89265	17.9439
0.94241	18.1931
0.994432	18.4424
