Adsorption isotherm of Carbon monoxide on H1/3[(Co^II13/2(BTB)4(OH)4/3(DMA)3]-2DMA-4H2O
DOI: 10.1039/C2ra22118g
Adsorbate Carbon monoxide: InChIKey UGFAIRIUMAVXCW-UHFFFAOYSA-N
Temperature: 293 K
Tabular data in the source: 0
pressure (bar)	uptake (cm3(STP)/g)
0.106825	0.422535
0.15727	0.56338
0.207715	0.84507
0.264095	0.84507
0.391691	1.12676
0.436202	1.40845
0.492582	1.5493
0.545994	1.5493
0.596439	1.83099
0.646884	1.83099
0.694362	1.97183
0.747774	2.11268
0.801187	2.11268
0.848665	2.25352
0.89911	2.39437
0.952522	2.53521
1.00297	2.53521
