Adsorption isotherm of Carbon monoxide on H1/3[(Co^II13/2(BTB)4(OH)4/3(DMA)3]-2DMA-4H2O
DOI: 10.1039/C2ra22118g
Adsorbate Carbon monoxide: InChIKey UGFAIRIUMAVXCW-UHFFFAOYSA-N
Temperature: 273 K
Tabular data in the source: 0
pressure (bar)	uptake (cm3(STP)/g)
0.115727	0.84507
0.166172	1.40845
0.219585	1.69014
0.267062	1.83099
0.31454	2.11268
0.391691	2.11268
0.439169	2.39437
0.492582	2.39437
0.545994	2.8169
0.590504	2.95775
0.646884	3.09859
0.697329	3.52113
0.744807	3.66197
0.79822	3.94366
0.848665	3.94366
0.89911	4.22535
0.949555	4.50704
1	4.50704
