Adsorption isotherm of Carbon Dioxide on H1/3[(Co^II13/2(BTB)4(OH)4/3(DMA)3]-2DMA-4H2O
DOI: 10.1039/C2ra22118g
Adsorbate Carbon Dioxide: InChIKey CURLTUGMZLYLDI-UHFFFAOYSA-N
Temperature: 195 K
Tabular data in the source: 0
pressure (bar)	uptake (cm3(STP)/g)
0.00172679	9.4704
0.00200871	4.48598
0.0037355	13.9564
0.00546229	23.4268
0.00573011	18.6916
0.0074569	28.162
0.00919778	37.3832
0.00945152	32.8972
0.0156891	42.6168
0.0199462	47.352
0.0265361	50.8411
0.0353463	55.0779
0.0487377	58.3178
0.0666822	61.0592
0.0891656	63.5514
0.118436	66.0436
0.150012	67.7882
0.177091	69.0343
0.224503	70.7788
0.256107	72.0249
0.303562	73.0218
0.380401	74.5171
0.434657	75.2648
0.486637	76.2617
0.538631	77.0093
0.590639	77.5078
0.642661	77.757
0.692392	78.5047
0.744428	78.5047
0.796422	79.2523
0.848444	79.5016
0.89819	80
0.947964	80
0.999972	80.4984
