Adsorption isotherm of Carbon monoxide on H1/3[(Co^II13/2(BTB)4(OH)4/3(DMA)3]-2DMA-4H2O
DOI: 10.1039/C2ra22118g
Adsorbate Carbon monoxide: InChIKey UGFAIRIUMAVXCW-UHFFFAOYSA-N
Temperature: 195 K
Tabular data in the source: 0
pressure (bar)	uptake (cm3(STP)/g)
0.0179868	1.99377
0.0381796	4.98442
0.0606631	7.47664
0.0967353	9.71963
0.1238	11.215
0.153155	12.2118
0.177958	13.7072
0.205051	14.704
0.252492	15.9502
0.281847	16.947
0.331536	18.4424
0.381239	19.6885
0.433219	20.6854
0.485199	21.6822
0.53493	22.4299
0.589215	22.6791
0.634393	23.9252
0.688678	24.1745
0.738423	24.6729
0.79268	25.4206
0.840163	25.919
0.889909	26.4174
0.941902	27.1651
0.993925	27.4143
1.03234	28.162
