Adsorption isotherm of Hydrogen on H1/3[(Co^II13/2(BTB)4(OH)4/3(DMA)3]-2DMA-4H2O
DOI: 10.1039/C2ra22118g
Adsorbate Hydrogen: InChIKey UFHFLCQGNIYNRP-UHFFFAOYSA-N
Temperature: 195 K
Tabular data in the source: 0
pressure (bar)	uptake (cm3(STP)/g)
0.0407099	0.249221
0.0837104	1.42e-14
0.14252	0.249221
0.192294	0.249221
0.248841	0.498442
0.294089	0.498442
0.346126	0.498442
0.398162	0.498442
0.447936	0.498442
0.493184	0.498442
0.542944	0.747664
0.59498	0.747664
0.649279	0.747664
0.694528	0.747664
0.744302	0.747664
0.796324	0.996885
0.84836	0.996885
0.893609	0.996885
0.945645	0.996885
0.997667	1.24611
