Adsorption isotherm of Carbon Dioxide on H1/3[(Co^II13/2(BTB)4(OH)4/3(DMA)3]-2DMA-4H2O
DOI: 10.1039/C2ra22118g
Adsorbate Carbon Dioxide: InChIKey CURLTUGMZLYLDI-UHFFFAOYSA-N
Temperature: 273 K
Tabular data in the source: 0
pressure (bar)	uptake (cm3(STP)/g)
0.0376812	4.60432
0.0637681	6.61871
0.0927536	9.20863
0.118841	11.5108
0.176812	14.3885
0.202899	15.8273
0.249275	17.8417
0.278261	18.9928
0.327536	20.4317
0.376812	22.446
0.428986	23.8849
0.481159	25.036
0.536232	26.1871
0.585507	27.3381
0.637681	28.4892
0.689855	29.3525
0.73913	29.9281
0.791304	30.7914
0.84058	31.3669
0.892754	31.9424
0.944928	32.2302
0.994203	33.0935
