Adsorption isotherm of Methane on MIL-53(Al)lp
DOI: 10.1021/Jp207326d
Adsorbate Methane: InChIKey VNWKTOKETHGBQD-UHFFFAOYSA-N
Temperature: 323 K
Tabular data in the source: 0
pressure (bar)	uptake (mmol/g)
0.0167316	0.0507463
1.17007	0.480597
2.83373	0.958209
6.28501	1.69851
9.98878	2.29552
13.6895	2.70149
18.6645	3.13134
25.6773	3.53731
30.1394	3.75224
35.2383	3.96716
41.3549	4.08657
48.3639	4.25373
52.3145	4.34925
56.6464	4.39701
