Adsorption isotherm of Methane on MIL-53(Al)lp
DOI: 10.1021/Jp207326d
Adsorbate Methane: InChIKey VNWKTOKETHGBQD-UHFFFAOYSA-N
Temperature: 303 K
Tabular data in the source: 0
pressure (bar)	uptake (mmol/g)
0.335733	0.342953
1.4855	0.91471
2.63251	1.4179
4.91273	2.0814
5.40023	2.19583
6.37524	2.42468
8.00239	2.85943
9.29841	3.06551
10.9182	3.31741
11.8914	3.50054
13.6721	3.75248
16.0986	4.05031
17.3919	4.18783
18.5242	4.32529
19.6574	4.48562
21.107	4.50889
22.2402	4.66921
23.5325	4.78387
24.9877	4.94428
26.4382	4.99041
27.5687	5.08216
28.8592	5.1511
29.9915	5.28857
31.442	5.3347
32.8944	5.42654
34.3468	5.51838
35.6382	5.61018
37.0897	5.67917
38.5421	5.77101
39.9936	5.84
41.606	5.90903
43.0575	5.97802
44.6699	6.04705
45.6403	6.16161
47.25	6.16207
48.7015	6.23106
50.3139	6.30009
51.6035	6.34617
52.894	6.41511
54.5055	6.46129
55.7969	6.55308
57.4075	6.5764
58.858	6.62253
59.9867	6.66857
61.2772	6.73751
62.8868	6.73797
64.3383	6.80695
65.9498	6.85313
67.5604	6.87645
68.8509	6.94539
70.4624	6.99156
71.9121	7.01483
