Adsorption isotherm of Methane on MIL-53(Al)lp
DOI: 10.1021/Jp207326d
Adsorbate Methane: InChIKey VNWKTOKETHGBQD-UHFFFAOYSA-N
Temperature: 303 K
Tabular data in the source: 0
pressure (bar)	uptake (mmol/g)
1.318	0.77015
1.83021	0.93731
2.98355	1.36716
5.03166	1.98806
7.46079	2.53731
10.0154	2.96716
12.5685	3.30149
15.1201	3.5403
20.351	4.04179
25.4511	4.32836
28.0004	4.42388
30.6774	4.54328
35.5216	4.75821
46.2268	5.04478
51.1961	5.11642
56.4198	5.16418
57.3119	5.18806
