Adsorption isotherm of Methane on MIL-53(Al)lp
DOI: 10.1021/Jp207326d
Adsorbate Methane: InChIKey VNWKTOKETHGBQD-UHFFFAOYSA-N
Temperature: 303 K
Tabular data in the source: 0
pressure (bar)	uptake (mmol/g)
0.49762	0.365856
1.64279	0.823327
3.27822	1.46379
5.55384	2.01302
8.6343	2.56247
11.7092	2.97477
13.3226	3.06666
14.2948	3.22694
15.7454	3.27307
16.5558	3.41044
18.0081	3.50229
19.4614	3.61699
20.9111	3.64026
22.3635	3.7321
23.8149	3.80109
25.4264	3.84726
26.877	3.89339
28.3257	3.89381
29.6162	3.96275
31.2268	3.98606
32.6774	4.03219
34.2879	4.05551
34.9327	4.07855
36.5424	4.07901
38.153	4.10233
39.7627	4.10279
41.3733	4.12611
42.983	4.12657
44.5926	4.12703
45.8822	4.17311
47.3291	4.12781
48.9388	4.12827
50.5475	4.10587
52.1572	4.10633
53.6059	4.10674
55.2147	4.08435
56.8243	4.08481
58.4331	4.06241
59.8809	4.03997
61.4915	4.06328
62.9383	4.01798
64.5471	3.99558
65.994	3.95028
67.6046	3.9736
69.2124	3.92835
70.8221	3.92881
72.269	3.88351
