Adsorption isotherm of Methane on MIL-53(Al)lp
DOI: 10.1021/Jp207326d
Adsorbate Methane: InChIKey VNWKTOKETHGBQD-UHFFFAOYSA-N
Temperature: 323 K
Tabular data in the source: 0
pressure (bar)	uptake (mmol/g)
0.145261	0.122388
0.529708	0.265672
1.04192	0.432836
1.68267	0.671642
3.21818	1.10149
4.87993	1.4597
7.94486	1.93731
10.115	2.22388
13.688	2.60597
19.4269	3.01194
24.1449	3.29851
29.8793	3.41791
34.7235	3.63284
41.0955	3.8
50.015	3.94328
