Adsorption isotherm of Methane on MIL-53(Al)lp
DOI: 10.1021/Jp207326d
Adsorbate Methane: InChIKey VNWKTOKETHGBQD-UHFFFAOYSA-N
Temperature: 353 K
Tabular data in the source: 0
pressure (bar)	uptake (mmol/g)
0.512216	0.167164
0.895903	0.262687
1.66328	0.453731
2.68543	0.644776
4.60158	0.979104
7.15505	1.33731
9.45223	1.6
12.0038	1.83881
14.3002	2.05373
19.4015	2.41194
24.373	2.62687
29.2168	2.81791
34.188	3.00896
39.2859	3.15224
44.2555	3.24776
49.3526	3.34328
54.3215	3.39104
59.2919	3.53433
