Adsorption isotherm of Methane on MIL-53(Al)lp
DOI: 10.1021/Jp207326d
Adsorbate Methane: InChIKey VNWKTOKETHGBQD-UHFFFAOYSA-N
Temperature: 303 K
Tabular data in the source: 0
pressure (bar)	uptake (mmol/g)
0.419432	0.340299
0.67573	0.435821
0.932408	0.555224
1.83097	0.985075
4.00913	1.77313
6.05951	2.53731
8.09773	2.53731
10.3998	3.11045
14.99	3.37313
17.1621	3.7791
20.8564	3.7791
24.4301	4.20896
30.1633	4.25672
40.2308	4.49552
46.9847	4.63881
