Adsorption isotherm of Methane on MIL-53(Al)lp
DOI: 10.1021/Jp207326d
Adsorbate Methane: InChIKey VNWKTOKETHGBQD-UHFFFAOYSA-N
Temperature: 353 K
Tabular data in the source: 0
pressure (bar)	uptake (mmol/g)
0.384827	0.167164
0.769275	0.310448
1.27959	0.358209
3.19726	0.78806
4.85788	1.07463
8.55937	1.52836
13.6618	1.95821
19.3999	2.31642
24.7544	2.5791
30.7459	2.84179
