Adsorption isotherm of Methane on MIL-53(Al)lp
DOI: 10.1021/Jp207326d
Adsorbate Methane: InChIKey VNWKTOKETHGBQD-UHFFFAOYSA-N
Temperature: 303 K
Tabular data in the source: 0
pressure (bar)	uptake (mmol/g)
0.335733	0.342953
0.992481	0.663141
1.80652	0.891945
2.46143	1.16642
3.11817	1.48661
4.25506	1.73836
5.23743	2.15007
6.53345	2.35615
8.15692	2.69947
9.28921	2.83694
10.5852	3.04302
11.7194	3.22621
16.083	3.66174
17.3762	3.79925
18.6686	3.91391
21.4124	4.09755
22.8648	4.18939
24.3172	4.28123
31.5745	4.62616
33.186	4.67234
36.41	4.78755
38.0215	4.83372
39.472	4.87985
41.0835	4.92602
42.6951	4.9722
44.3057	4.99552
47.0449	5.06487
48.4945	5.08814
49.9441	5.11141
52.1986	5.13491
53.8092	5.15823
55.4198	5.18155
58.1572	5.20519
59.7677	5.22851
62.506	5.275
64.1157	5.27546
65.7263	5.29878
67.657	5.27647
69.2685	5.32265
70.8782	5.32311
71.8431	5.30053
