Adsorption isotherm of Nitrogen, Isoflurane on HCZB150E Zeolite
DOI: 10.1021/acs.jced.5b00844
Article source: Figure 8/Table S2
Adsorbate Nitrogen: InChIKey IJGRMHOSHXDMSA-UHFFFAOYSA-N
Adsorbate Isoflurane: InChIKey PIWKPBJCKXDKJR-UHFFFAOYSA-N
Kind: experiment
Temperature: 298 K
Tabular data in the source: 1
pressure (bar)	Nitrogen fraction	Nitrogen uptake (micromoles/m2)	Isoflurane fraction	Isoflurane uptake (micromoles/m2)	total uptake (micromoles/m2)
1			5.2e-05	1.31	
1			0.000108	1.42	
1			0.000187	1.49	
1			0.000281	1.54	
1			0.000337	1.56	
1			0.000421	1.59	
1			0.000561	1.62	
1			0.000674	1.65	
1			0.000842	1.67	
1			0.000991	1.69	
