Adsorption isotherm of Nitrogen, Isoflurane on HCZP200E Zeolite
DOI: 10.1021/acs.jced.5b00844
Article source: Figure 8/Table S2
Adsorbate Nitrogen: InChIKey IJGRMHOSHXDMSA-UHFFFAOYSA-N
Adsorbate Isoflurane: InChIKey PIWKPBJCKXDKJR-UHFFFAOYSA-N
Kind: experiment
Temperature: 298 K
Tabular data in the source: 1
pressure (bar)	Nitrogen fraction	Nitrogen uptake (micromoles/m2)	Isoflurane fraction	Isoflurane uptake (micromoles/m2)	total uptake (micromoles/m2)
1			8.6e-05	1.42	
1			0.000193	1.47	
1			0.00029	1.5	
1			0.000348	1.53	
1			0.00058	1.57	
1			0.000695	1.58	
1			0.000869	1.62	
1			0.001159	1.65	
