Adsorption isotherm of Nitrogen, Isoflurane on FeCZB25E Zeolite
DOI: 10.1021/acs.jced.5b00844
Article source: Figure 8/Table S2
Adsorbate Nitrogen: InChIKey IJGRMHOSHXDMSA-UHFFFAOYSA-N
Adsorbate Isoflurane: InChIKey PIWKPBJCKXDKJR-UHFFFAOYSA-N
Kind: experiment
Temperature: 298 K
Tabular data in the source: 1
pressure (bar)	Nitrogen fraction	Nitrogen uptake (micromoles/m2)	Isoflurane fraction	Isoflurane uptake (micromoles/m2)	total uptake (micromoles/m2)
1			9.5e-05	1.64	
1			0.000189	1.76	
1			0.000284	1.82	
1			0.000341	1.84	
1			0.000568	1.9	
1			0.000681	1.91	
1			0.000852	1.93	
1			0.001007	1.95	
