Adsorption isotherm of Nitrogen, Isoflurane on D47/3 Extra
DOI: 10.1021/acs.jced.5b00844
Article source: Figure 5/Table S1
Adsorbate Nitrogen: InChIKey IJGRMHOSHXDMSA-UHFFFAOYSA-N
Adsorbate Isoflurane: InChIKey PIWKPBJCKXDKJR-UHFFFAOYSA-N
Kind: experiment
Temperature: 298 K
Tabular data in the source: 1
pressure (bar)	Nitrogen fraction	Nitrogen uptake (micromoles/m2)	Isoflurane fraction	Isoflurane uptake (micromoles/m2)	total uptake (micromoles/m2)
1			0.000175	1.41	
1			0.000263	1.52	
1			0.000316	1.59	
1			0.000394	1.66	
1			0.000533	1.76	
1			0.00063	1.8	
1			0.000799	1.88	
1			0.001065	1.98	
