Adsorption isotherm of Nitrogen, Isoflurane on HCZP27E Zeolite
DOI: 10.1021/acs.jced.5b00844
Article source: Figure 8/Table S2
Adsorbate Nitrogen: InChIKey IJGRMHOSHXDMSA-UHFFFAOYSA-N
Adsorbate Isoflurane: InChIKey PIWKPBJCKXDKJR-UHFFFAOYSA-N
Kind: experiment
Temperature: 298 K
Tabular data in the source: 1
pressure (bar)	Nitrogen fraction	Nitrogen uptake (micromoles/m2)	Isoflurane fraction	Isoflurane uptake (micromoles/m2)	total uptake (micromoles/m2)
1			5.2e-05	1.59	
1			9.8e-05	1.63	
1			0.000101	1.59	
1			0.000195	1.69	
1			0.000293	1.75	
1			0.000351	1.77	
1			0.000585	1.81	
1			0.000702	1.84	
1			0.000878	1.89	
1			0.001009	1.84	
1			0.00117	1.91	
