Adsorption isotherm of Nitrogen, Isoflurane on C40/4 Extra
DOI: 10.1021/acs.jced.5b00844
Article source: Figure 5/Table S1
Adsorbate Nitrogen: InChIKey IJGRMHOSHXDMSA-UHFFFAOYSA-N
Adsorbate Isoflurane: InChIKey PIWKPBJCKXDKJR-UHFFFAOYSA-N
Kind: experiment
Temperature: 298 K
Tabular data in the source: 1
pressure (bar)	Nitrogen fraction	Nitrogen uptake (micromoles/m2)	Isoflurane fraction	Isoflurane uptake (micromoles/m2)	total uptake (micromoles/m2)
1			0.000196	0.93	
1			0.000293	1.05	
1			0.000352	1.1	
1			0.00044	1.19	
1			0.000587	1.29	
1			0.000704	1.36	
1			0.00088	1.45	
1			0.001034	1.52	
