Adsorption isotherm of Nitrogen, Isoflurane on CMK-3
DOI: 10.1021/acs.jced.5b00844
Article source: Figure 5/Table S1
Adsorbate Nitrogen: InChIKey IJGRMHOSHXDMSA-UHFFFAOYSA-N
Adsorbate Isoflurane: InChIKey PIWKPBJCKXDKJR-UHFFFAOYSA-N
Kind: experiment
Temperature: 298 K
Tabular data in the source: 1
pressure (bar)	Nitrogen fraction	Nitrogen uptake (micromoles/m2)	Isoflurane fraction	Isoflurane uptake (micromoles/m2)	total uptake (micromoles/m2)
1			0.000175	0.8	
1			0.000263	0.88	
1			0.000315	0.92	
1			0.000394	0.97	
1			0.000525	1.05	
1			0.00063	1.11	
1			0.000763	1.15	
1			0.001046	1.25	
