Adsorption isotherm of Nitrogen, Isoflurane on MHSC
DOI: 10.1021/acs.jced.5b00844
Article source: Figure 5/Table S1
Adsorbate Nitrogen: InChIKey IJGRMHOSHXDMSA-UHFFFAOYSA-N
Adsorbate Isoflurane: InChIKey PIWKPBJCKXDKJR-UHFFFAOYSA-N
Kind: experiment
Temperature: 298 K
Tabular data in the source: 1
pressure (bar)	Nitrogen fraction	Nitrogen uptake (micromoles/m2)	Isoflurane fraction	Isoflurane uptake (micromoles/m2)	total uptake (micromoles/m2)
1			0.000175	1.7	
1			0.000263	1.77	
1			0.000315	1.81	
1			0.000394	1.84	
1			0.000525	1.87	
1			0.00063	1.9	
1			0.000763	1.92	
1			0.001046	1.95	
