Adsorption isotherm of Nitrogen, Isoflurane on Z10-03 Zeolite
DOI: 10.1021/acs.jced.5b00844
Article source: Figure 8/Table S2
Adsorbate Nitrogen: InChIKey IJGRMHOSHXDMSA-UHFFFAOYSA-N
Adsorbate Isoflurane: InChIKey PIWKPBJCKXDKJR-UHFFFAOYSA-N
Kind: experiment
Temperature: 298 K
Tabular data in the source: 1
pressure (bar)	Nitrogen fraction	Nitrogen uptake (micromoles/m2)	Isoflurane fraction	Isoflurane uptake (micromoles/m2)	total uptake (micromoles/m2)
1			2.65	0.000263	
1			2.69	0.000315	
1			2.7	0.000394	
1			2.71	0.000525	
1			2.7	0.00063	
1			2.7	0.000763	
1			2.7	0.001046	
