Adsorption isotherm of Nitrogen, Isoflurane on HCZB25E Zeolite
DOI: 10.1021/acs.jced.5b00844
Article source: Figure 8/Table S2
Adsorbate Nitrogen: InChIKey IJGRMHOSHXDMSA-UHFFFAOYSA-N
Adsorbate Isoflurane: InChIKey PIWKPBJCKXDKJR-UHFFFAOYSA-N
Kind: experiment
Temperature: 298 K
Tabular data in the source: 1
pressure (bar)	Nitrogen fraction	Nitrogen uptake (micromoles/m2)	Isoflurane fraction	Isoflurane uptake (micromoles/m2)	total uptake (micromoles/m2)
1			0.0001	1.73	
1			0.000191	1.81	
1			0.000286	1.86	
1			0.000343	1.89	
1			0.000429	1.93	
1			0.000572	1.96	
1			0.000686	1.99	
1			0.000858	2.03	
1			0.001009	2.05	
