Adsorption isotherm of Propene on MIL-100(Fe)
DOI: 10.1016/j.micromeso.2011.12.043
Adsorbate Propene: InChIKey QQONPFPTGQHPMA-UHFFFAOYSA-N
Temperature: 373 K
Tabular data in the source: 0
pressure (bar)	uptake (mmol/g)
0.0565562	0.314961
0.140772	0.511811
0.504626	1.08268
0.97746	1.73228
1.47339	2.34252
2.98709	3.74016
4.93252	4.82283
