Adsorption isotherm of N-propane on MIL-100(Fe)
DOI: 10.1016/j.micromeso.2011.12.043
Adsorbate N-propane: InChIKey ATUOYWHBWRKTHZ-UHFFFAOYSA-N
Temperature: 373 K
Tabular data in the source: 0
pressure (bar)	uptake (mmol/g)
0.0129155	0.0209436
0.0151992	0.0414863
0.0205651	0.042789
0.0259502	0.0437911
0.0327454	0.0447932
0.04132	0.0656365
0.0497703	0.0862795
0.0628029	0.126964
0.0774266	0.147707
0.0977012	0.188392
0.112332	0.228676
0.141747	0.289202
0.174753	0.349627
0.220513	0.370471
0.231013	0.430195
0.284803	0.530303
0.343047	0.630311
0.422925	0.730419
0.509414	0.87011
0.599485	1.0097
0.70548	1.14929
0.811131	1.30862
0.932603	1.46795
1.07227	1.64713
1.2045	1.8262
1.35305	1.98543
1.51991	2.26371
1.74753	2.38336
1.91791	2.56233
2.25702	2.84081
2.47707	3.01978
2.71859	3.19875
3.05385	3.37783
3.35161	3.5568
3.67838	3.73577
3.94421	3.93448
4.43062	4.15324
4.86261	4.33221
