Adsorption isotherm of Isobutane on MIL-100(Fe)
DOI: 10.1016/j.micromeso.2011.12.043
Adsorbate Isobutane: InChIKey NNPPMTNAJDCUHE-UHFFFAOYSA-N
Temperature: 373 K
Tabular data in the source: 0
pressure (bar)	uptake (mmol/g)
0.0104665	0.0708212
0.014077	0.0723355
0.0176815	0.0735003
0.0222091	0.0981945
0.0278959	0.122889
0.0342492	0.170996
0.043019	0.21922
0.0528165	0.267327
0.0663407	0.33908
0.0814498	0.434246
0.102306	0.505999
0.120007	0.600932
0.144018	0.74304
0.172832	0.861619
0.212194	1.00384
0.266528	1.21677
0.319853	1.38241
0.342494	1.45335
0.401754	1.6424
0.460645	1.8078
0.528168	2.02027
0.605589	2.18567
0.694359	2.37461
0.778196	2.56342
0.892267	2.77589
1.02306	2.96482
1.12074	3.08294
1.28502	3.27187
1.44018	3.46069
1.72832	3.74397
2.02736	3.90949
2.32454	4.12196
2.72674	4.31101
3.83847	4.68923
4.30193	4.80745
5.04626	4.99651
