Adsorption isotherm of Isobutane on MIL-100(Fe)
DOI: 10.1016/j.micromeso.2011.12.043
Adsorbate Isobutane: InChIKey NNPPMTNAJDCUHE-UHFFFAOYSA-N
Temperature: 373 K
Tabular data in the source: 0
pressure (bar)	uptake (mmol/g)
0.0251021	0.108499
0.127451	0.496044
0.432065	1.66905
0.983759	2.66671
1.55429	3.17522
2.951	3.76163
3.43648	3.95728
