Adsorption isotherm of Isobutane on MIL-100(Fe)
DOI: 10.1016/j.micromeso.2011.12.043
Adsorbate Isobutane: InChIKey NNPPMTNAJDCUHE-UHFFFAOYSA-N
Temperature: 373 K
Tabular data in the source: 0
pressure (bar)	uptake (mmol/g)
0.114007	0.435798
0.309446	1.24514
0.456026	1.77432
0.716612	2.42802
1.05863	3.01946
1.40065	3.45525
1.9544	3.85992
2.67101	4.23346
3.32248	4.42023
