Adsorption isotherm of Isobutane on MIL-100(Fe)
DOI: 10.1016/j.micromeso.2011.12.043
Adsorbate Isobutane: InChIKey NNPPMTNAJDCUHE-UHFFFAOYSA-N
Temperature: 323 K
Tabular data in the source: 0
pressure (bar)	uptake (mmol/g)
0.0162866	0.18677
0.0325733	0.747082
0.0977199	1.83658
0.179153	2.70817
0.276873	3.45525
0.439739	4.01556
0.586319	4.29572
0.732899	4.57588
1.00977	4.88716
1.40065	5.16732
1.97068	5.35409
2.88274	5.4786
3.35505	5.50973
