Adsorption isotherm of Isobutane on MIL-100(Fe)
DOI: 10.1016/j.micromeso.2011.12.043
Adsorbate Isobutane: InChIKey NNPPMTNAJDCUHE-UHFFFAOYSA-N
Temperature: 373 K
Tabular data in the source: 0
pressure (bar)	uptake (mmol/g)
0.00436425	0.0350333
0.00593253	0.0341618
0.00940134	0.0524628
0.0373973	0.185798
0.0477914	0.243926
0.0610815	0.282445
0.0780603	0.340572
0.0967164	0.438003
0.148454	0.652473
0.172961	0.769687
0.220928	0.906247
0.249585	1.04316
0.29075	1.17998
0.338705	1.3168
0.39457	1.45362
0.519145	1.76657
0.586345	1.94269
0.683054	2.07951
0.748233	2.23612
0.845187	2.39263
0.954819	2.52954
1.11204	2.70558
1.21815	2.86218
1.37583	3.03831
1.70281	3.31221
1.98343	3.46864
2.17296	3.60564
2.53075	3.78168
2.94816	3.9185
3.33057	4.05541
3.88037	4.17262
4.38318	4.32914
5.26658	4.42666
