Adsorption isotherm of N-propane on MIL-100(Fe)
DOI: 10.1016/j.micromeso.2011.12.043
Adsorbate N-propane: InChIKey ATUOYWHBWRKTHZ-UHFFFAOYSA-N
Temperature: 373 K
Tabular data in the source: 0
pressure (bar)	uptake (mmol/g)
0.00329382	0.0393701
0.00625835	0.0393701
0.0105225	0.0393701
0.0166433	0.0393701
0.0279834	0.0590551
0.048511	0.11811
0.0791098	0.15748
0.10416	0.19685
0.175131	0.314961
0.216912	0.374016
0.276999	0.492126
0.332755	0.570866
0.424932	0.688976
0.526307	0.826772
0.613213	0.944882
0.736643	1.12205
0.858279	1.22047
1	1.39764
1.09603	1.53543
1.23857	1.69291
1.35751	1.81102
1.63076	2.02756
1.78736	2.16535
1.959	2.32283
2.21377	2.5
2.42636	2.65748
2.57931	2.81496
2.91475	2.95276
3.19466	3.14961
3.50145	3.30709
3.8377	3.46457
4.33679	3.62205
4.75325	3.8189
