Adsorption isotherm of Propene on MIL-100(Fe)
DOI: 10.1016/j.micromeso.2011.12.043
Adsorbate Propene: InChIKey QQONPFPTGQHPMA-UHFFFAOYSA-N
Temperature: 423 K
Tabular data in the source: 0
pressure (bar)	uptake (mmol/g)
0.130719	0.0625
0.343137	0.28125
0.588235	0.40625
0.686275	0.5
0.898693	0.59375
1.12745	0.78125
1.29085	0.875
1.48693	1.03125
1.63399	1.09375
1.79739	1.1875
1.96078	1.28125
2.10784	1.3125
2.20588	1.40625
2.35294	1.5
2.51634	1.5625
2.6634	1.65625
2.8268	1.71875
2.97386	1.8125
3.16993	1.90625
3.33333	1.96875
3.48039	2.03125
3.64379	2.09375
3.79085	2.1875
3.95425	2.25
4.00327	2.28125
4.16667	2.34375
4.31373	2.40625
4.47712	2.46875
4.62418	2.53125
4.98366	2.65625
