Adsorption isotherm of Propene on MIL-100(Fe)
DOI: 10.1016/j.micromeso.2011.12.043
Adsorbate Propene: InChIKey QQONPFPTGQHPMA-UHFFFAOYSA-N
Temperature: 373 K
Tabular data in the source: 0
pressure (bar)	uptake (mmol/g)
0.114379	0.3125
0.245098	0.53125
0.506536	0.875
0.637255	1.09375
1.04575	1.59375
1.42157	2.03125
2.0915	2.78125
2.79412	3.34375
3.69281	3.90625
4.88562	4.5
