Adsorption isotherm of Propene on MIL-100(Fe)
DOI: 10.1016/j.micromeso.2011.12.043
Adsorbate Propene: InChIKey QQONPFPTGQHPMA-UHFFFAOYSA-N
Temperature: 373 K
Tabular data in the source: 0
pressure (bar)	uptake (mmol/g)
0.196078	0.34375
0.392157	0.71875
0.571895	1
0.800654	1.28125
0.964052	1.5625
1.12745	1.71875
1.25817	2
1.48693	2.15625
1.63399	2.3125
1.76471	2.46875
1.94444	2.625
2.07516	2.78125
2.20588	2.84375
2.35294	2.96875
2.64706	3.21875
2.87582	3.375
3.10458	3.53125
3.26797	3.625
3.48039	3.78125
3.61111	3.90625
3.75817	3.9375
3.92157	4.03125
4.06863	4.09375
4.29739	4.21875
4.46078	4.28125
4.60784	4.34375
4.77124	4.40625
4.90196	4.5
4.98366	4.53125
