Adsorption isotherm of N-propane on MIL-100(Fe)
DOI: 10.1016/j.micromeso.2011.12.043
Adsorbate N-propane: InChIKey ATUOYWHBWRKTHZ-UHFFFAOYSA-N
Temperature: 423 K
Tabular data in the source: 0
pressure (bar)	uptake (mmol/g)
0.353535	0.251724
0.555556	0.409171
0.740741	0.534979
0.993266	0.66036
1.14478	0.786382
1.44781	0.943188
1.59933	1.03746
1.76768	1.09989
2.00337	1.22538
2.15488	1.31965
2.32323	1.41382
2.54209	1.50767
2.71044	1.53835
2.86195	1.66437
3.01347	1.7269
3.18182	1.78932
3.33333	1.85185
3.50168	1.91428
3.67003	1.9767
3.82155	2.03923
3.9899	2.10165
4.20875	2.1955
4.3771	2.25792
4.52862	2.32045
4.69697	2.35113
4.84848	2.41366
4.94949	2.47651
