Adsorption isotherm of N-propane on MIL-100(Fe)
DOI: 10.1016/j.micromeso.2011.12.043
Adsorbate N-propane: InChIKey ATUOYWHBWRKTHZ-UHFFFAOYSA-N
Temperature: 323 K
Tabular data in the source: 0
pressure (bar)	uptake (mmol/g)
0.10101	0.539041
0.252525	1.36348
0.40404	2.09267
0.538721	2.56801
0.791246	3.32831
1.12795	3.99284
1.39731	4.43557
1.93603	4.94009
2.99663	5.69526
4.02357	6.06969
4.94949	6.25429
