Adsorption isotherm of Propene on MIL-100(Fe)
DOI: 10.1016/j.micromeso.2011.12.043
Adsorbate Propene: InChIKey QQONPFPTGQHPMA-UHFFFAOYSA-N
Temperature: 423 K
Tabular data in the source: 0
pressure (bar)	uptake (mmol/g)
0.310458	0.25
0.506536	0.40625
0.669935	0.5
0.784314	0.59375
1.02941	0.71875
1.43791	0.9375
2.15686	1.34375
3.12092	1.8125
3.97059	2.125
4.82026	2.53125
