Adsorption isotherm of Propene on MIL-100(Fe)
DOI: 10.1016/j.micromeso.2011.12.043
Adsorbate Propene: InChIKey QQONPFPTGQHPMA-UHFFFAOYSA-N
Temperature: 323 K
Tabular data in the source: 0
pressure (bar)	uptake (mmol/g)
0.0980392	0.84375
0.294118	1.6875
0.522876	2.5625
0.767974	3.15625
0.915033	3.5
1.30719	4.25
2.10784	5.15625
2.77778	5.75
3.54575	6.1875
4.88562	6.78125
