Adsorption isotherm of Propene on MIL-100(Fe)
DOI: 10.1016/j.micromeso.2011.12.043
Adsorbate Propene: InChIKey QQONPFPTGQHPMA-UHFFFAOYSA-N
Temperature: 373 K
Tabular data in the source: 0
pressure (bar)	uptake (mmol/g)
0.00537143	0.0150126
0.0111859	0.0327469
0.0219134	0.0308154
0.0346593	0.0493398
0.0600842	0.107283
0.0791098	0.126334
0.101024	0.185156
0.125125	0.224224
0.164746	0.282958
0.210382	0.36162
0.276999	0.460037
0.343082	0.558628
0.412139	0.657308
0.510464	0.775741
0.576849	0.914279
0.714467	1.07239
0.832442	1.21084
0.9407	1.34938
1.06304	1.5276
1.23857	1.68589
1.53406	1.96306
1.68137	2.12152
1.84284	2.26015
2.0825	2.47805
2.28248	2.61668
2.42636	2.79507
2.74191	2.93361
3.29381	3.27039
3.61012	3.42885
3.95681	3.60716
4.33679	3.78547
4.61017	3.90434
5.20972	4.12224
