Adsorption isotherm of Isobutane on MIL-100(Fe)
DOI: 10.1016/j.micromeso.2011.12.043
Adsorbate Isobutane: InChIKey NNPPMTNAJDCUHE-UHFFFAOYSA-N
Temperature: 373 K
Tabular data in the source: 0
pressure (bar)	uptake (mmol/g)
0.0325733	0.0933852
0.0651466	0.342412
0.130293	0.59144
0.228013	1.05837
0.34202	1.36965
0.407166	1.68093
0.537459	1.96109
0.635179	2.21012
0.798046	2.58366
0.879479	2.70817
0.993485	2.83268
1.09121	3.01946
1.2215	3.1751
1.31922	3.33074
1.48208	3.51751
1.74267	3.70428
1.88925	3.82879
2.01954	3.89105
2.16612	4.01556
2.32899	4.07782
2.47557	4.17121
2.73616	4.29572
2.96417	4.35798
3.20847	4.48249
3.37134	4.54475
3.46906	4.607
