Adsorption isotherm of Isobutane on MIL-100(Fe)
DOI: 10.1016/j.micromeso.2011.12.043
Adsorbate Isobutane: InChIKey NNPPMTNAJDCUHE-UHFFFAOYSA-N
Temperature: 423 K
Tabular data in the source: 0
pressure (bar)	uptake (mmol/g)
0.130293	0.217899
0.34202	0.498054
0.553746	0.77821
0.684039	0.964981
0.814332	1.05837
0.928339	1.24514
1.17264	1.43191
1.31922	1.55642
1.48208	1.74319
1.72638	1.92996
1.87296	2.02335
2.01954	2.17899
2.14984	2.21012
2.29642	2.3035
2.443	2.39689
2.58958	2.49027
2.75244	2.58366
2.94788	2.67704
3.11075	2.77043
3.25733	2.83268
3.43648	2.92607
