Adsorption isotherm of Isobutane on MIL-100(Fe)
DOI: 10.1016/j.micromeso.2011.12.043
Adsorbate Isobutane: InChIKey NNPPMTNAJDCUHE-UHFFFAOYSA-N
Temperature: 423 K
Tabular data in the source: 0
pressure (bar)	uptake (mmol/g)
0.0977199	0.0933852
0.228013	0.280156
0.358306	0.466926
0.553746	0.684825
0.765472	0.933852
1.12378	1.33852
1.44951	1.68093
2.01954	2.17899
2.88274	2.58366
3.37134	2.77043
