Adsorption isotherm of N-propane on MIL-100(Fe)
DOI: 10.1016/j.micromeso.2011.12.043
Adsorbate N-propane: InChIKey ATUOYWHBWRKTHZ-UHFFFAOYSA-N
Temperature: 373 K
Tabular data in the source: 0
pressure (bar)	uptake (mmol/g)
0.00103077	0.019685
0.0013974	0.019685
0.00189444	0.019685
0.00256827	0.019685
0.00348177	0.019685
0.0047202	0.019685
0.00639823	0.0393701
0.00841414	0.0393701
0.0114067	0.0393701
0.0154622	0.0590551
0.0203311	0.0787402
0.0275658	0.0590551
0.036246	0.0787402
0.0491326	0.0984252
0.082391	0.15748
0.108297	0.23622
0.160793	0.295276
0.211325	0.393701
0.261306	0.511811
0.333132	0.610236
0.411922	0.728346
0.479329	0.826772
0.574795	0.984252
0.731912	1.27953
0.904695	1.45669
1.0207	1.63386
1.18716	1.81102
1.42274	2.06693
1.60517	2.24409
1.98173	2.61811
2.16882	2.79528
2.44662	2.99213
2.75935	3.22835
3.01985	3.40551
3.50981	3.70079
3.84117	3.87795
4.20331	4.0748
4.74227	4.25197
