Adsorption isotherm of Propene on MIL-100(Fe)
DOI: 10.1016/j.micromeso.2011.12.043
Adsorbate Propene: InChIKey QQONPFPTGQHPMA-UHFFFAOYSA-N
Temperature: 373 K
Tabular data in the source: 0
pressure (bar)	uptake (mmol/g)
0.0154213	0.0393701
0.0198166	0.0393701
0.0266526	0.0590551
0.0319853	0.0590551
0.0401754	0.0590551
0.0504626	0.0984252
0.0619555	0.11811
0.0778198	0.15748
0.0977462	0.177165
0.120007	0.23622
0.150736	0.295276
0.185066	0.354331
0.227214	0.433071
0.278962	0.511811
0.342494	0.610236
0.411018	0.728346
0.482134	0.846457
0.578597	0.984252
0.66341	1.12205
0.778196	1.27953
0.892267	1.43701
1.04665	1.69291
1.20007	1.83071
1.37599	2.00787
1.40772	2.12598
1.54212	2.18504
1.61406	2.32283
1.80895	2.48031
1.98166	2.65748
2.32454	2.91339
2.48909	3.09055
2.78962	3.26772
3.05597	3.46457
3.34774	3.66142
3.66738	3.83858
4.01754	4.01575
4.40113	4.27165
4.93252	4.42913
5.28168	4.58661
