Adsorption isotherm of Nitrogen on MIL-100(Fe)
DOI: 10.1016/j.micromeso.2011.12.043
Adsorbate Nitrogen: InChIKey IJGRMHOSHXDMSA-UHFFFAOYSA-N
Temperature: 77 K
Tabular data in the source: 0
pressure (bar)	uptake (cm3(STP)/g)
0	0
0.00658658	181.343
0.00987986	206.53
0.0493993	266.978
0.0823322	295.522
0.105385	308.955
0.118558	325.746
0.141611	339.179
0.171251	345.896
0.194304	349.254
0.21077	349.254
0.237117	354.291
0.273343	354.291
0.293103	355.97
0.309569	359.328
0.362262	359.328
0.546686	366.045
0.744283	371.082
0.839788	376.119
0.889188	376.119
0.928707	381.157
0.948467	384.515
0.964933	397.948
0.97152	421.455
