Adsorption isotherm of N-propane on MIL-100(Fe)
DOI: 10.1016/j.micromeso.2011.12.043
Adsorbate N-propane: InChIKey ATUOYWHBWRKTHZ-UHFFFAOYSA-N
Temperature: 373 K
Tabular data in the source: 0
pressure (bar)	uptake (mmol/g)
0.0216043	0.0984252
0.138132	0.255906
0.479674	0.708661
0.962273	1.3189
1.46794	1.92913
2.93531	3.07087
4.75251	3.89764
