Adsorption isotherm of N-propane on MIL-100(Fe)
DOI: 10.1016/j.micromeso.2011.12.043
Adsorbate N-propane: InChIKey ATUOYWHBWRKTHZ-UHFFFAOYSA-N
Temperature: 373 K
Tabular data in the source: 0
pressure (bar)	uptake (mmol/g)
0.185185	0.316285
0.26936	0.47448
0.538721	0.853722
0.841751	1.201
1.21212	1.67484
1.41414	1.95928
2.08754	2.7169
2.76094	3.34755
3.50168	3.85078
4.20875	4.16375
