Adsorption isotherm of N-propane on MIL-100(Fe)
DOI: 10.1016/j.micromeso.2011.12.043
Adsorbate N-propane: InChIKey ATUOYWHBWRKTHZ-UHFFFAOYSA-N
Temperature: 373 K
Tabular data in the source: 0
pressure (bar)	uptake (mmol/g)
0.252525	0.506333
0.3367	0.696275
0.47138	0.85415
0.606061	1.04377
0.723906	1.2335
0.858586	1.39137
0.993266	1.54925
1.17845	1.7703
1.3468	1.9597
1.49832	2.08572
1.633	2.27535
1.76768	2.40148
1.93603	2.55914
2.08754	2.68516
2.22222	2.77954
2.37374	2.90556
2.82828	3.25188
2.99663	3.31431
3.14815	3.44033
3.29966	3.53461
3.45118	3.62888
3.60269	3.69141
3.77104	3.78558
3.92256	3.84811
4.09091	3.94228
4.24242	4.03656
4.41077	4.09898
4.56229	4.16151
4.73064	4.22393
4.88215	4.28646
4.98316	4.31757
