Adsorption isotherm of Propene on MIL-100(Fe)
DOI: 10.1016/j.micromeso.2011.12.043
Adsorbate Propene: InChIKey QQONPFPTGQHPMA-UHFFFAOYSA-N
Temperature: 373 K
Tabular data in the source: 0
pressure (bar)	uptake (mmol/g)
0.0046102	0.0154516
0.00875951	0.0334492
0.0156563	0.0317811
0.0232949	0.0504811
0.0346593	0.0493398
0.0548201	0.107547
0.0700051	0.146527
0.0893985	0.165666
0.125125	0.244065
0.164746	0.302799
0.285596	0.519473
0.364709	0.637818
0.451718	0.776092
0.526307	0.894701
0.613213	1.05299
0.736643	1.23104
0.858279	1.38933
1	1.56746
1.13005	1.74568
1.27701	1.9239
1.44309	2.10212
1.63076	2.30018
1.90003	2.53784
2.0825	2.71615
2.28248	2.9143
2.50167	3.0926
2.82701	3.29067
3.09849	3.46897
3.50145	3.7464
3.8377	3.92471
4.20624	4.12286
4.61017	4.32101
5.05289	4.49932
