Adsorption isotherm of N-propane on MIL-100(Fe)
DOI: 10.1016/j.micromeso.2011.12.043
Adsorbate N-propane: InChIKey ATUOYWHBWRKTHZ-UHFFFAOYSA-N
Temperature: 373 K
Tabular data in the source: 0
pressure (bar)	uptake (mmol/g)
0.0170734	0.0419873
0.0443057	0.0857784
0.0977012	0.208233
0.200923	0.350228
0.475081	0.770603
0.97701	1.52768
1.48497	2.26361
2.91505	3.67524
4.64159	4.66931
