Adsorption isotherm of Propene on MIL-100(Fe)
DOI: 10.1016/j.micromeso.2011.12.043
Adsorbate Propene: InChIKey QQONPFPTGQHPMA-UHFFFAOYSA-N
Temperature: 323 K
Tabular data in the source: 0
pressure (bar)	uptake (mmol/g)
0.0653595	0.375
0.147059	0.8125
0.196078	1.09375
0.310458	1.65625
0.408497	2.125
0.539216	2.53125
0.653595	2.84375
0.784314	3.1875
0.964052	3.65625
1.07843	3.875
1.35621	4.375
1.48693	4.5625
1.61765	4.75
1.76471	4.90625
2.15686	5.28125
2.30392	5.40625
2.45098	5.53125
2.61438	5.65625
2.76144	5.71875
2.84314	5.8125
3.00654	5.875
3.23529	6
3.38235	6.125
3.54575	6.15625
3.69281	6.25
3.85621	6.3125
4.00327	6.375
4.16667	6.4375
4.33007	6.4375
4.47712	6.5
4.64052	6.5625
4.78758	6.59375
5	6.65625
