Adsorption isotherm of Isobutane on MIL-100(Fe)
DOI: 10.1016/j.micromeso.2011.12.043
Adsorbate Isobutane: InChIKey NNPPMTNAJDCUHE-UHFFFAOYSA-N
Temperature: 373 K
Tabular data in the source: 0
pressure (bar)	uptake (mmol/g)
0.0319853	0.123588
0.319853	1.38241
2.12194	4.16855
3.42494	4.66511
