Adsorption isotherm of N-propane on MIL-100(Fe)
DOI: 10.1016/j.micromeso.2011.12.043
Adsorbate N-propane: InChIKey ATUOYWHBWRKTHZ-UHFFFAOYSA-N
Temperature: 323 K
Tabular data in the source: 0
pressure (bar)	uptake (mmol/g)
0.03367	0.317247
0.151515	0.856181
0.185185	1.20517
0.23569	1.45882
0.30303	1.74411
0.420875	2.1878
0.505051	2.50473
0.589226	2.72642
0.690236	2.97974
0.841751	3.39148
0.959596	3.6447
1.17845	4.08776
1.32997	4.30902
1.46465	4.49864
1.633	4.75154
1.78451	4.84581
1.98653	5.06675
2.13805	5.19277
2.28956	5.3188
2.57576	5.50746
2.72727	5.60173
2.89562	5.66415
3.06397	5.79007
3.23232	5.82075
3.38384	5.91502
3.55219	5.97745
3.7037	6.03998
3.87205	6.1024
4.02357	6.06969
4.09091	6.19625
4.25926	6.22693
4.41077	6.25771
4.57912	6.28839
4.74747	6.35081
4.91582	6.38149
