Adsorption isotherm of Isobutane on MIL-100(Fe)
DOI: 10.1016/j.micromeso.2011.12.043
Adsorbate Isobutane: InChIKey NNPPMTNAJDCUHE-UHFFFAOYSA-N
Temperature: 323 K
Tabular data in the source: 0
pressure (bar)	uptake (mmol/g)
0.0325733	0.871595
0.0651466	1.36965
0.0977199	1.61868
0.114007	2.02335
0.14658	2.33463
0.179153	2.86381
0.2443	3.36187
0.309446	3.54864
0.390879	3.85992
0.488599	4.17121
0.635179	4.48249
0.814332	4.76265
0.912052	4.8249
1.25407	5.07393
1.40065	5.16732
1.56352	5.2607
1.72638	5.32296
1.87296	5.35409
2.03583	5.38521
2.1987	5.44747
2.34528	5.4786
2.58958	5.50973
2.75244	5.50973
2.94788	5.54086
3.11075	5.57198
3.30619	5.57198
3.46906	5.63424
