Adsorption isotherm of N-propane on MIL-100(Fe)
DOI: 10.1016/j.micromeso.2011.12.043
Adsorbate N-propane: InChIKey ATUOYWHBWRKTHZ-UHFFFAOYSA-N
Temperature: 423 K
Tabular data in the source: 0
pressure (bar)	uptake (mmol/g)
0.185185	0.157554
0.319865	0.220191
0.505051	0.346
0.690236	0.440062
0.942761	0.597189
1.39731	0.816525
1.95286	1.13046
2.9798	1.56838
4.17508	2.06873
4.93266	2.31789
