Adsorption isotherm of Isobutane on MIL-100(Fe)
DOI: 10.1016/j.micromeso.2011.12.043
Adsorbate Isobutane: InChIKey NNPPMTNAJDCUHE-UHFFFAOYSA-N
Temperature: 373 K
Tabular data in the source: 0
pressure (bar)	uptake (mmol/g)
0.0025116	0.0169938
0.00410431	0.0352076
0.0078197	0.0529857
0.0106299	0.0521142
0.0144481	0.0708509
0.0196377	0.0895876
0.0283785	0.127758
0.0385629	0.185711
0.0492811	0.243839
0.071182	0.360442
0.0937692	0.477307
0.127344	0.633301
0.157742	0.769948
0.220821	0.984679
0.257211	1.14111
0.308902	1.31706
0.348887	1.49319
0.406284	1.68883
0.502904	1.94313
0.585639	2.13877
0.682149	2.2952
0.770447	2.47133
0.870175	2.64745
0.982694	2.84319
1.10989	3.01931
1.25356	3.19544
1.41582	3.37156
1.59909	3.54769
1.80608	3.72381
2.03986	3.89994
2.37573	4.07598
2.68325	4.2521
3.12506	4.42814
3.75354	4.58448
4.23941	4.76061
5.25076	4.91686
