Adsorption isotherm of Nitrogen on Fe-Cu/rGO (CR)
DOI: 10.1016/j.apcata.2017.07.007
Article source: Figure 3
Adsorbate Nitrogen: InChIKey IJGRMHOSHXDMSA-UHFFFAOYSA-N
Kind: experiment
Temperature: 77 K
Tabular data in the source: 0
pressure (bar)	uptake (cm3(STP)/g)
0.053255	12.144
0.084179	14.114
0.120655	16.084
0.121385	15.537
0.156108	16.371
0.156686	16.539
0.190832	18.172
0.191703	17.962
0.225991	19.174
0.227014	19.595
0.261738	20.176
0.262173	20.386
0.297474	21.557
0.298062	21.22
0.332491	22.643
0.333515	22.643
0.366779	23.729
0.367792	23.519
0.403539	25.194
0.403833	24.353
0.438121	25.691
0.438263	25.775
0.473715	26.988
0.473857	27.913
0.509756	29.924
0.510334	28.242
0.543892	29.791
0.545493	31.095
0.579638	30.877
0.57978	32.434
0.615527	32.678
0.615963	34.319
0.650392	34.101
0.685987	35.818
0.686139	37.795
0.722028	37.703
0.723193	39.428
0.757622	40.178
0.758504	41.86
0.792782	45.638
0.792934	42.778
0.828386	47.734
0.828528	46.346
0.861934	50.545
0.863394	52.521
0.897539	60.631
0.898846	57.014
0.931817	72.99
0.932992	66.344
0.971799	104.778
0.972377	90.057
1.00229	158.061
