Adsorption isotherm of Nitrogen on Fe/rGO (ST)
DOI: 10.1016/j.apcata.2017.07.007
Article source: Figure 2
Adsorbate Nitrogen: InChIKey IJGRMHOSHXDMSA-UHFFFAOYSA-N
Kind: experiment
Temperature: 77 K
Tabular data in the source: 0
pressure (bar)	uptake (cm3(STP)/g)
0.054694	20.551
0.055302	21.75
0.083622	21.713
0.08577	22.694
0.121061	23.623
0.121304	24.158
0.15703	24.86
0.157132	25.244
0.192504	26.33
0.192767	25.909
0.226558	27.071
0.228949	27.534
0.263105	28.596
0.298994	28.87
0.300615	29.446
0.333849	30.555
0.334234	30.294
0.368917	31.712
0.369728	30.819
0.404005	32.28
0.404593	32.538
0.439509	33.483
0.440704	33.516
0.475711	36.288
0.476411	34.404
0.510232	42.018
0.511934	35.513
0.546394	36.481
0.546942	43.255
0.582222	37.591
0.582668	44.491
0.616702	45.653
0.616834	38.559
0.652662	40.022
0.652682	46.964
0.687578	41.273
0.689138	48.65
0.722798	42.736
0.723173	50.523
0.75894	44.577
0.759639	52.471
0.7927	54.718
0.794312	46.489
0.828923	48.919
0.829167	58.089
0.863191	60.786
0.863991	52.081
0.899181	67.003
0.899829	56.045
0.934593	62.344
0.934674	75.99
0.967067	77.748
0.967756	99.282
1.00801	127.026
