Adsorption isotherm of Nitrogen on Fe-Cu/rGO (ST)
DOI: 10.1016/j.apcata.2017.07.007
Article source: Figure 3
Adsorbate Nitrogen: InChIKey IJGRMHOSHXDMSA-UHFFFAOYSA-N
Kind: experiment
Temperature: 77 K
Tabular data in the source: 0
pressure (bar)	uptake (cm3(STP)/g)
0.052668	24.215
0.053103	24.594
0.083885	27.153
0.084473	26.69
0.120362	28.744
0.120797	29.585
0.155673	31.26
0.156402	30.503
0.19068	31.967
0.191561	32.808
0.22672	34.82
0.227156	33.979
0.261586	35.612
0.262315	36.201
0.297332	38.128
0.33235	38.878
0.333221	39.551
0.366921	39.964
0.36838	41.52
0.402232	41.723
0.403539	43.195
0.438698	44.996
0.439144	44.618
0.473857	46.377
0.474587	48.101
0.509168	55.455
0.509898	48.094
0.545057	49.937
0.545493	57.844
0.579638	60.781
0.580368	51.781
0.615821	63.676
0.61728	54.212
0.650828	56.561
0.65098	67.622
0.686575	71.274
0.68701	59.539
0.722757	76.019
0.723051	62.771
0.757187	81.438
0.758058	66.717
0.792782	71.546
0.792934	88.496
0.827363	97.237
0.82867	76.923
0.86238	106.441
0.862816	84.949
0.896658	117.874
0.898563	95.54
0.931817	141.756
0.970776	186.037
0.971211	151.843
1.00069	218.584
