Adsorption isotherm of Nitrogen on Cu(dhbc)2(440-bpy)
DOI: 10.1016/j.jcis.2015.01.011
Article source: Figure 2
Adsorbate Nitrogen: InChIKey IJGRMHOSHXDMSA-UHFFFAOYSA-N
Kind: experiment
Isotherm type: excess
Temperature: 273 K
Tabular data in the source: 0
pressure (bar)	uptake (cm3(STP)/g)
18.4725	-0.204744
26.4771	-0.198228
43.1023	-0.404475
61.2671	-0.609469
72.966	-0.599946
84.6654	-0.810203
99.1341	-0.358865
112.361	4.70685
136.953	21.8697
163.693	42.1113
188.603	54.4392
215.081	54.0212
242.786	55.3625
