Adsorption isotherm of Nitrogen on Cu(dhbc)2(440-bpy)
DOI: 10.1016/j.jcis.2015.01.011
Article source: Figure 2
Adsorbate Nitrogen: InChIKey IJGRMHOSHXDMSA-UHFFFAOYSA-N
Kind: experiment
Isotherm type: excess
Temperature: 298 K
Tabular data in the source: 0
pressure (bar)	uptake (cm3(STP)/g)
47.7199	-0.180936
68.953	4.23195
85.8814	6.22375
112.049	6.90439
136.984	7.80381
152.985	11.5531
165.887	24.3109
179.102	35.0908
192.019	41.2552
216.009	52.044
242.477	55.582
