Adsorption isotherm of Argon on Cu(dhbc)2(440-bpy)
DOI: 10.1016/j.jcis.2015.01.011
Article source: Figure 2
Adsorbate Argon: InChIKey XKRFYHLGVUSROY-UHFFFAOYSA-N
Kind: experiment
Isotherm type: excess
Temperature: 87 K
Tabular data in the source: 0
pressure (bar)	uptake (cm3(STP)/g)
0	3.51648
0.007411	120.66
0.041892	127.915
0.055724	129.235
0.121541	130.778
0.176955	132.54
0.22894	132.764
0.305172	133.648
0.374477	134.313
0.488853	134.541
1.07459	135.682
1.2964	136.357
1.50437	136.373
1.71925	137.047
1.93413	137.502
2.14556	137.738
2.36391	137.973
2.57187	138.208
2.78329	138.883
2.99818	139.338
