Adsorption isotherm of Nitrogen on Cu(dhbc)2(440-bpy)
DOI: 10.1016/j.jcis.2015.01.011
Article source: Figure 2
Adsorbate Nitrogen: InChIKey IJGRMHOSHXDMSA-UHFFFAOYSA-N
Kind: experiment
Isotherm type: excess
Temperature: 195 K
Tabular data in the source: 0
pressure (bar)	uptake (cm3(STP)/g)
2.05256	-0.212262
2.25684	1.76651
2.39302	3.08569
2.59494	9.89962
2.87106	4.84568
3.28038	7.26476
3.39852	45.507
3.73286	61.3324
3.82672	9.24479
4.4155	64.4118
4.78282	12.7648
4.89312	67.0509
4.98548	18.0402
5.52582	32.3279
5.64472	69.0317
6.12298	70.3521
6.1335	48.8137
6.73796	71.8928
6.74354	60.4643
7.21816	69.2572
7.96888	72.9962
8.37906	73.6571
9.13108	74.7587
9.67808	75.4201
10.1564	76.5207
10.8404	76.9628
11.3875	77.4043
12.0029	78.0659
12.6185	78.288
13.1657	78.5098
13.8497	78.9518
