Adsorption isotherm of Nitrogen on Cu(dhbc)2(440-bpy)
DOI: 10.1016/j.jcis.2015.01.011
Article source: Figure 2
Adsorbate Nitrogen: InChIKey IJGRMHOSHXDMSA-UHFFFAOYSA-N
Kind: experiment
Isotherm type: excess
Temperature: 77 K
Tabular data in the source: 0
pressure (bar)	uptake (cm3(STP)/g)
0	2.19755
0	4.61538
0	7.03295
0.004745	88.352
0.038557	122.64
0.194465	125.289
0.270702	125.954
0.357348	126.18
0.450932	126.186
0.534107	126.632
0.773261	126.869
1.54619	127.145
1.85815	126.728
2.17009	126.75
2.57564	125.901
2.88066	125.703
