Adsorption isotherm of Nitrogen on Cu(dhbc)2(440-bpy)
DOI: 10.1016/j.jcis.2015.01.011
Article source: Figure 2
Adsorbate Nitrogen: InChIKey IJGRMHOSHXDMSA-UHFFFAOYSA-N
Kind: experiment
Isotherm type: excess
Temperature: 87 K
Tabular data in the source: 0
pressure (bar)	uptake (cm3(STP)/g)
0	14.5055
0	16.2637
0	18.9008
0	23.2967
0	25.4945
0	27.4725
0	31.4285
0	33.4065
0	35.3846
0	37.8021
0	39.3403
0	41.5384
0	43.2966
0	45.0549
0	51.2087
0	52.7472
0	54.945
0	56.9227
0	58.4612
0	60.4392
0	62.6373
0.006127	49.2309
0.006261	47.2529
0.007462	29.4507
0.008056	20.6596
0.008649	11.8684
0.008797	9.67056
0.012922	88.5718
0.059119	104.177
0.210158	106.599
0.493574	107.925
0.937762	107.497
2.40249	108.196
3.40416	108.881
3.79164	108.672
5.49263	109.376
6.31481	109.178
