Adsorption isotherm of Carbon Dioxide on Bio-MOF-1
DOI: 10.1021/Ja1012992
Adsorbate Carbon Dioxide: InChIKey CURLTUGMZLYLDI-UHFFFAOYSA-N
Temperature: 273 K
Tabular data in the source: 0
pressure (bar)	uptake (mmol/g)
0.00594823	0.0272431
0.0476707	0.404546
0.111159	0.877576
0.224704	1.44516
0.330009	1.94727
0.435889	2.32523
0.58993	2.79699
0.747365	3.23278
0.897928	3.5539
1.04457	3.86102
