Adsorption isotherm of Carbon Dioxide on Bio-MOF-1
DOI: 10.1021/Ja1012992
Adsorbate Carbon Dioxide: InChIKey CURLTUGMZLYLDI-UHFFFAOYSA-N
Temperature: 273 K
Tabular data in the source: 0
pressure (bar)	uptake (mmol/g)
0.00594823	0.0272431
0.0476707	0.404546
0.217916	1.51708
0.277663	1.81449
0.378782	2.27762
0.487217	2.71879
0.591467	3.12098
0.747931	3.64346
0.898578	4.15118
1.05588	4.57448
