Adsorption isotherm of Carbon Dioxide on Bio-MOF-1
DOI: 10.1021/Ja1012992
Adsorbate Carbon Dioxide: InChIKey CURLTUGMZLYLDI-UHFFFAOYSA-N
Temperature: 273 K
Tabular data in the source: 0
pressure (bar)	uptake (mmol/g)
0.00594823	0.0272431
0.111254	0.529355
0.161262	0.798015
0.31486	1.40641
0.430082	1.77565
0.524858	2.17407
0.634396	2.54105
0.745829	2.90879
0.894186	3.37828
1.04201	3.79782
