Adsorption isotherm of Nitrogen on Bio-MOF-1
DOI: 10.1021/Ja1012992
Adsorbate Nitrogen: InChIKey IJGRMHOSHXDMSA-UHFFFAOYSA-N
Temperature: 77 K
Tabular data in the source: 0
pressure (bar)	uptake (mg/g)
0.020474	232.526
0.032534	369.493
0.0450147	425.524
0.10854	461.278
0.147244	472.276
0.242743	485.438
0.296452	495.42
0.39139	502.212
0.495793	509.364
0.594797	519.484
0.745197	534.738
0.948605	552.01
1.04775	563.724
