Adsorption isotherm of Nitrogen on Bio-MOF-1
DOI: 10.1021/Ja1012992
Adsorbate Nitrogen: InChIKey IJGRMHOSHXDMSA-UHFFFAOYSA-N
Temperature: 77 K
Tabular data in the source: 0
pressure (bar)	uptake (mg/g)
0.0248913	261.266
0.0314823	378.977
0.0396859	450.718
0.0568644	495.817
0.11443	528.169
0.151381	540.688
0.197658	551.974
0.302482	563.904
0.453443	585.528
0.600056	600.637
0.759641	613.066
0.85514	626.228
1.06247	645.237
