Adsorption isotherm of Carbon Dioxide on Bio-MOF-1
DOI: 10.1021/Ja1012992
Adsorbate Carbon Dioxide: InChIKey CURLTUGMZLYLDI-UHFFFAOYSA-N
Temperature: 273 K
Tabular data in the source: 0
pressure (bar)	uptake (mmol/g)
0.00594823	0.0272431
0.0544579	0.33262
0.165928	1.06107
0.26405	1.59763
0.429102	2.39716
0.480477	2.61661
0.585387	3.08125
0.746828	3.71764
0.90448	4.35253
1.05931	4.89923
