Adsorption isotherm of Nitrogen on Bio-MOF-1
DOI: 10.1021/Ja1012992
Adsorbate Nitrogen: InChIKey IJGRMHOSHXDMSA-UHFFFAOYSA-N
Temperature: 77 K
Tabular data in the source: 0
pressure (bar)	uptake (mg/g)
0.0159865	181.561
0.0218763	248.452
0.0258729	315.271
0.0414388	363.483
0.0946571	389.32
0.140373	394.236
0.283761	415.572
0.437947	430.969
0.485416	434.365
0.639321	446.577
0.785794	460.094
0.943626	474.043
1.03534	487.061
