Adsorption isotherm of Nitrogen on Bio-MOF-1
DOI: 10.1021/Ja1012992
Adsorbate Nitrogen: InChIKey IJGRMHOSHXDMSA-UHFFFAOYSA-N
Temperature: 77 K
Tabular data in the source: 0
pressure (bar)	uptake (mg/g)
0.0128313	124.298
0.0166176	167.3
0.0185808	232.454
0.0544804	254.456
0.123615	268.201
0.176763	271.813
0.327023	285.474
0.428061	297.259
0.572781	312.296
0.730052	319.875
0.877717	325.5
0.925466	332.081
1.0204	338.873
