Adsorption isotherm of Nitrogen on CuBTC
DOI: 10.1016/j.micromeso.2011.12.053
Adsorbate Nitrogen: InChIKey IJGRMHOSHXDMSA-UHFFFAOYSA-N
Temperature: 77 K
Tabular data in the source: 0
pressure (bar)	uptake (cm3(STP)/g)
0.00515504	367.012
0.0108756	384.174
0.0409086	397.045
0.108125	409.916
0.211096	417.067
0.331228	424.218
0.45851	425.648
0.540029	425.648
0.621547	429.938
0.704495	429.938
0.787443	434.229
0.870392	438.519
0.95191	441.38
0.984803	524.328
