Adsorption isotherm of Nitrogen on MCF(M)-COOH
DOI: 10.1016/j.micromeso.2011.12.053
Adsorbate Nitrogen: InChIKey IJGRMHOSHXDMSA-UHFFFAOYSA-N
Temperature: 77 K
Tabular data in the source: 0
pressure (bar)	uptake (cm3(STP)/g)
0.00515504	28.0683
0.0108756	70.9726
0.0509196	98.1453
0.126717	121.028
0.211096	139.619
0.298334	158.211
0.376992	171.083
0.465661	183.954
0.575782	206.836
0.704495	238.299
0.786013	274.053
0.828917	328.398
0.894704	402.766
0.95763	495.725
0.991954	733.129
