Adsorption isotherm of Nitrogen on Cu-MOF/MCF(M)-COOH
DOI: 10.1016/j.micromeso.2011.12.053
Adsorbate Nitrogen: InChIKey IJGRMHOSHXDMSA-UHFFFAOYSA-N
Temperature: 77 K
Tabular data in the source: 0
pressure (bar)	uptake (cm3(STP)/g)
0.00372489	106.726
0.00515504	205.406
0.0123058	226.858
0.05521	245.45
0.126717	265.472
0.259721	281.204
0.366981	292.645
0.499985	306.946
0.624407	319.817
0.703065	335.549
0.784583	352.711
0.837498	385.604
0.891844	419.927
0.941899	458.541
0.95477	485.714
0.977652	558.651
0.990524	592.975
