Adsorption isotherm of Methane on [Co2(azpy)3(NO3)4]*Me2CO*3H2O
DOI: 10.1021/Cm990612m
Adsorbate Methane: InChIKey VNWKTOKETHGBQD-UHFFFAOYSA-N
Temperature: 298 K
Tabular data in the source: 0
pressure (bar)	uptake (mmol/g)
0.335188	-0.00499472
1.29653	0.0474423
2.17048	0.069291
3.21922	0.08677
4.00578	0.147946
6.19065	0.139207
11.0848	0.226602
21.1352	0.418871
31.0982	0.528114
35.9923	0.593661
