Adsorption isotherm of Methane on [Cd2(azpy)3(NO3)4]*2Me2CO
DOI: 10.1021/Cm990612m
Adsorbate Methane: InChIKey VNWKTOKETHGBQD-UHFFFAOYSA-N
Temperature: 298 K
Tabular data in the source: 0
pressure (bar)	uptake (mmol/g)
0.247794	-0.00499472
1.29653	0.126098
2.17048	0.213493
4.18057	0.43198
6.19065	0.598031
11.0848	0.969459
20.9604	1.51131
30.9234	1.76912
35.9923	1.89148
