Adsorption isotherm of Methane on [Co(azpy)2(NCS)2]*0.5EtOH
DOI: 10.1021/Cm990612m
Adsorbate Methane: InChIKey VNWKTOKETHGBQD-UHFFFAOYSA-N
Temperature: 298 K
Tabular data in the source: 0
pressure (bar)	uptake (mmol/g)
0.0730036	-0.00499472
1.20914	0.26156
2.08309	0.331476
3.21922	0.379543
6.10326	0.418871
10.036	0.510636
15.1923	0.558703
20.1738	0.584921
30.0495	0.60677
35.031	0.659207
