Adsorption isotherm of Nitrogen, Methane on AC Norit R1 Extra
DOI: 10.1023/a:1008914703884
Article source: Table 3
Adsorbate Nitrogen: InChIKey IJGRMHOSHXDMSA-UHFFFAOYSA-N
Adsorbate Methane: InChIKey VNWKTOKETHGBQD-UHFFFAOYSA-N
Kind: experiment
Temperature: 298 K
Tabular data in the source: 0
pressure (bar)	Nitrogen fraction	Nitrogen uptake (mmol/g)	Methane fraction	Methane uptake (mmol/g)	total uptake (mmol/g)
1.08	0.269	0.076296	0.731	1.0457	1.122
5.18	0.332	0.251193	0.668	2.44981	2.701
10.91	0.265	0.264792	0.735	3.62921	3.894
20.22	0.267	0.343275	0.733	4.63172	4.975
29.78	0.269	0.411768	0.731	5.30723	5.719
39.72	0.274	0.4331	0.726	5.6669	6.1
49.86	0.273	0.464328	0.727	5.98467	6.449
59.75	0.267	0.5404	0.733	6.2146	6.755
