Adsorption isotherm of Nitrogen on AC Norit R1 Extra
DOI: 10.1023/a:1008914703884
Article source: Table 2
Adsorbate Nitrogen: InChIKey IJGRMHOSHXDMSA-UHFFFAOYSA-N
Kind: experiment
Temperature: 298 K
Tabular data in the source: 0
pressure (bar)	uptake (mmol/g)
0.31	0.116
0.71	0.26
1.11	0.39
4.99	1.274
9.81	1.979
19.71	2.899
29.18	3.466
39.84	3.91
46.79	4.132
59.8	4.438
