Adsorption isotherm of Carbon Dioxide, Nitrogen on AC Norit R1 Extra
DOI: 10.1023/a:1008914703884
Article source: Table 5
Adsorbate Carbon Dioxide: InChIKey CURLTUGMZLYLDI-UHFFFAOYSA-N
Adsorbate Nitrogen: InChIKey IJGRMHOSHXDMSA-UHFFFAOYSA-N
Kind: experiment
Temperature: 298 K
Tabular data in the source: 0
pressure (bar)	Carbon Dioxide fraction	Carbon Dioxide uptake (mmol/g)	Nitrogen fraction	Nitrogen uptake (mmol/g)	total uptake (mmol/g)
1.09	0.489	1.39965	0.511	0.128352	1.528
5.31	0.504	3.89478	0.496	0.27522	4.17
10.48	0.488	5.25817	0.512	0.317832	5.576
21.22	0.49	6.77524	0.51	0.478764	7.254
30.61	0.487	7.56125	0.513	0.414752	7.976
41.56	0.487	8.30112	0.513	0.34588	8.647
50.15	0.48	8.87203	0.52	0.264973	9.137
60.55	0.475	8.91806	0.525	0.209944	9.128
