Adsorption isotherm of Nitrogen, Methane on AC Norit R1 Extra
DOI: 10.1023/a:1008914703884
Article source: Table 3
Adsorbate Nitrogen: InChIKey IJGRMHOSHXDMSA-UHFFFAOYSA-N
Adsorbate Methane: InChIKey VNWKTOKETHGBQD-UHFFFAOYSA-N
Kind: experiment
Temperature: 298 K
Tabular data in the source: 0
pressure (bar)	Nitrogen fraction	Nitrogen uptake (mmol/g)	Methane fraction	Methane uptake (mmol/g)	total uptake (mmol/g)
1.08	0.269	0.07616	0.731	1.04384	1.12
5.18	0.332	0.243789	0.668	2.43521	2.679
10.91	0.265	0.248885	0.735	3.58012	3.829
20.22	0.267	0.303534	0.733	4.51447	4.818
29.78	0.269	0.337962	0.731	5.11304	5.451
39.72	0.274	0.331412	0.726	5.38259	5.714
49.86	0.273	0.320274	0.727	5.61073	5.931
59.75	0.267	0.298802	0.733	5.7992	6.098
