Adsorption isotherm of Carbon Dioxide, Nitrogen on AC Norit R1 Extra
DOI: 10.1023/a:1008914703884
Article source: Table 5
Adsorbate Carbon Dioxide: InChIKey CURLTUGMZLYLDI-UHFFFAOYSA-N
Adsorbate Nitrogen: InChIKey IJGRMHOSHXDMSA-UHFFFAOYSA-N
Kind: experiment
Temperature: 298 K
Tabular data in the source: 0
pressure (bar)	Carbon Dioxide fraction	Carbon Dioxide uptake (mmol/g)	Nitrogen fraction	Nitrogen uptake (mmol/g)	total uptake (mmol/g)
1.16	0.794	2.15747	0.206	0.048532	2.206
5.22	0.834	5.38487	0.166	0.093126	5.478
10	0.883	7.19794	0.117	0.080058	7.278
19.72	0.861	9.16487	0.139	0.13013	9.295
29.01	0.895	10.299	0.105	0.10403	10.403
39.4	0.856	11.0738	0.144	0.157234	11.231
50.23	0.874	11.4934	0.126	0.139596	11.633
56.34	0.847	11.805	0.153	0.191952	11.997
