Adsorption isotherm of Nitrogen, Methane on AC Norit R1 Extra
DOI: 10.1023/a:1008914703884
Article source: Table 3
Adsorbate Nitrogen: InChIKey IJGRMHOSHXDMSA-UHFFFAOYSA-N
Adsorbate Methane: InChIKey VNWKTOKETHGBQD-UHFFFAOYSA-N
Kind: experiment
Temperature: 298 K
Tabular data in the source: 0
pressure (bar)	Nitrogen fraction	Nitrogen uptake (mmol/g)	Methane fraction	Methane uptake (mmol/g)	total uptake (mmol/g)
1.51	0.911	0.43362	0.089	0.22638	0.66
5.22	0.941	1.1362	0.059	0.3588	1.495
9.74	0.905	1.52222	0.095	0.709776	2.232
19.25	0.905	2.1659	0.095	1.0381	3.204
29.7	0.905	2.59882	0.095	1.30918	3.908
39.3	0.912	2.99808	0.088	1.32192	4.32
50.56	0.909	3.21092	0.091	1.50408	4.715
60.35	0.91	3.35813	0.09	1.59487	4.953
