Adsorption isotherm of Nitrogen, Methane on AC Norit R1 Extra
DOI: 10.1023/a:1008914703884
Article source: Table 3
Adsorbate Nitrogen: InChIKey IJGRMHOSHXDMSA-UHFFFAOYSA-N
Adsorbate Methane: InChIKey VNWKTOKETHGBQD-UHFFFAOYSA-N
Kind: experiment
Temperature: 298 K
Tabular data in the source: 0
pressure (bar)	Nitrogen fraction	Nitrogen uptake (mmol/g)	Methane fraction	Methane uptake (mmol/g)	total uptake (mmol/g)
1.11	0.623	0.210444	0.377	0.641556	0.852
5.33	0.616	0.584177	0.384	1.72482	2.309
10.38	0.561	0.709988	0.439	2.63901	3.349
22.85	0.572	1.05814	0.428	3.68687	4.745
27.64	0.573	1.0831	0.427	4.00189	5.085
39.79	0.597	1.34835	0.403	4.48865	5.837
49.89	0.551	1.31158	0.449	4.90442	6.216
59.8	0.575	1.38073	0.425	5.07127	6.452
