Adsorption isotherm of Methane on AC Norit R1 Extra
DOI: 10.1023/a:1008914703884
Article source: Table 2
Adsorbate Methane: InChIKey VNWKTOKETHGBQD-UHFFFAOYSA-N
Kind: experiment
Temperature: 298 K
Tabular data in the source: 0
pressure (bar)	uptake (mmol/g)
0.1	0.165
0.37	0.501
0.52	0.663
0.77	0.878
1.01	1.078
5.04	2.912
9.66	4.016
19.89	5.337
26.92	5.883
39.3	6.508
49.12	6.838
57.53	7.049
