Adsorption isotherm of Carbon Dioxide, Methane on AC Norit R1 Extra
DOI: 10.1023/a:1008914703884
Article source: Table 4
Adsorbate Carbon Dioxide: InChIKey CURLTUGMZLYLDI-UHFFFAOYSA-N
Adsorbate Methane: InChIKey VNWKTOKETHGBQD-UHFFFAOYSA-N
Kind: experiment
Temperature: 298 K
Tabular data in the source: 0
pressure (bar)	Carbon Dioxide fraction	Carbon Dioxide uptake (mmol/g)	Methane fraction	Methane uptake (mmol/g)	total uptake (mmol/g)
1.02	0.426	1.09696	0.574	0.609042	1.706
5.02	0.458	3.0498	0.542	1.3702	4.42
10.14	0.464	4.30537	0.536	1.82763	6.133
20.42	0.473	5.7782	0.527	2.1698	7.948
30.96	0.476	6.70149	0.524	2.51651	9.218
38.87	0.459	7.06208	0.541	2.65192	9.714
50.26	0.494	7.57712	0.506	2.73188	10.309
58.77	0.466	7.51643	0.534	2.90858	10.425
