Adsorption isotherm of Carbon Dioxide, Nitrogen on AC Norit R1 Extra
DOI: 10.1023/a:1008914703884
Article source: Table 5
Adsorbate Carbon Dioxide: InChIKey CURLTUGMZLYLDI-UHFFFAOYSA-N
Adsorbate Nitrogen: InChIKey IJGRMHOSHXDMSA-UHFFFAOYSA-N
Kind: experiment
Temperature: 298 K
Tabular data in the source: 0
pressure (bar)	Carbon Dioxide fraction	Carbon Dioxide uptake (mmol/g)	Nitrogen fraction	Nitrogen uptake (mmol/g)	total uptake (mmol/g)
1.08	0.189	0.730158	0.811	0.231842	0.962
5.35	0.202	2.20357	0.798	0.632428	2.836
10.58	0.216	3.17663	0.784	0.880369	4.057
18.75	0.216	4.53133	0.784	1.09067	5.622
30.78	0.217	5.08943	0.783	1.07957	6.169
41.02	0.211	5.38017	0.789	1.25383	6.634
50.66	0.18	5.5449	0.82	1.3261	6.871
60.77	0.203	5.93326	0.797	1.12174	7.055
