Adsorption isotherm of Carbon Dioxide, Methane on AC Norit R1 Extra
DOI: 10.1023/a:1008914703884
Article source: Table 4
Adsorbate Carbon Dioxide: InChIKey CURLTUGMZLYLDI-UHFFFAOYSA-N
Adsorbate Methane: InChIKey VNWKTOKETHGBQD-UHFFFAOYSA-N
Kind: experiment
Temperature: 298 K
Tabular data in the source: 0
pressure (bar)	Carbon Dioxide fraction	Carbon Dioxide uptake (mmol/g)	Methane fraction	Methane uptake (mmol/g)	total uptake (mmol/g)
0.98	0.747	1.70245	0.253	0.27255	1.975
5.57	0.761	5.005	0.239	0.495	5.5
11.4	0.786	7.086	0.214	0.517004	7.603
20.88	0.789	8.72166	0.211	0.636344	9.358
30.82	0.802	9.77736	0.198	0.724638	10.502
38.61	0.78	10.2583	0.22	0.689724	10.948
52.3	0.804	10.775	0.196	0.699975	11.475
60.23	0.799	10.8671	0.201	0.76791	11.635
