Adsorption isotherm of Carbon Dioxide, Nitrogen on AC Norit R1 Extra
DOI: 10.1023/a:1008914703884
Article source: Table 5
Adsorbate Carbon Dioxide: InChIKey CURLTUGMZLYLDI-UHFFFAOYSA-N
Adsorbate Nitrogen: InChIKey IJGRMHOSHXDMSA-UHFFFAOYSA-N
Kind: experiment
Temperature: 298 K
Tabular data in the source: 0
pressure (bar)	Carbon Dioxide fraction	Carbon Dioxide uptake (mmol/g)	Nitrogen fraction	Nitrogen uptake (mmol/g)	total uptake (mmol/g)
1.09	0.489	1.39995	0.511	0.13005	1.53
5.31	0.504	3.91113	0.496	0.289869	4.201
10.48	0.488	5.2987	0.512	0.362304	5.661
21.22	0.49	6.8854	0.51	0.590604	7.476
30.61	0.487	7.73489	0.513	0.609112	8.344
41.56	0.487	8.58103	0.513	0.635973	9.217
50.15	0.48	9.24043	0.52	0.663568	9.904
60.55	0.475	9.37454	0.525	0.716461	10.091
