Adsorption isotherm of Carbon Dioxide, Nitrogen on AC Norit R1 Extra
DOI: 10.1023/a:1008914703884
Article source: Table 5
Adsorbate Carbon Dioxide: InChIKey CURLTUGMZLYLDI-UHFFFAOYSA-N
Adsorbate Nitrogen: InChIKey IJGRMHOSHXDMSA-UHFFFAOYSA-N
Kind: experiment
Temperature: 298 K
Tabular data in the source: 0
pressure (bar)	Carbon Dioxide fraction	Carbon Dioxide uptake (mmol/g)	Nitrogen fraction	Nitrogen uptake (mmol/g)	total uptake (mmol/g)
1.08	0.189	0.730712	0.811	0.233288	0.964
5.35	0.202	2.2056	0.798	0.651396	2.857
10.58	0.216	3.18811	0.784	0.930894	4.119
18.75	0.216	4.56515	0.784	1.22085	5.786
30.78	0.217	5.15515	0.783	1.29685	6.452
41.02	0.211	5.4708	0.789	1.5792	7.05
50.66	0.18	5.63977	0.82	1.77123	7.411
60.77	0.203	6.07512	0.797	1.66388	7.739
