Adsorption isotherm of Carbon Dioxide, Nitrogen on AC Norit R1 Extra
DOI: 10.1023/a:1008914703884
Article source: Table 5
Adsorbate Carbon Dioxide: InChIKey CURLTUGMZLYLDI-UHFFFAOYSA-N
Adsorbate Nitrogen: InChIKey IJGRMHOSHXDMSA-UHFFFAOYSA-N
Kind: experiment
Temperature: 298 K
Tabular data in the source: 0
pressure (bar)	Carbon Dioxide fraction	Carbon Dioxide uptake (mmol/g)	Nitrogen fraction	Nitrogen uptake (mmol/g)	total uptake (mmol/g)
1.16	0.794	2.15453	0.206	0.048466	2.203
5.22	0.834	5.35643	0.166	0.08157	5.438
10	0.883	7.10745	0.117	0.064548	7.172
19.72	0.861	8.92584	0.139	0.09016	9.016
29.01	0.895	9.86742	0.105	0.049585	9.917
39.4	0.856	10.4296	0.144	0.05241	10.482
50.23	0.874	10.5434	0.126	0.010554	10.554
56.34	0.847	10.7023	0.153	0.010713	10.713
