Adsorption isotherm of Nitrogen, Methane on AC Norit R1 Extra
DOI: 10.1023/a:1008914703884
Article source: Table 3
Adsorbate Nitrogen: InChIKey IJGRMHOSHXDMSA-UHFFFAOYSA-N
Adsorbate Methane: InChIKey VNWKTOKETHGBQD-UHFFFAOYSA-N
Kind: experiment
Temperature: 298 K
Tabular data in the source: 0
pressure (bar)	Nitrogen fraction	Nitrogen uptake (mmol/g)	Methane fraction	Methane uptake (mmol/g)	total uptake (mmol/g)
1.11	0.623	0.209346	0.377	0.641654	0.851
5.33	0.616	0.5725	0.384	1.7175	2.29
10.38	0.561	0.682272	0.439	2.61373	3.296
22.85	0.572	0.975327	0.428	3.60367	4.579
27.64	0.573	0.96913	0.427	3.90087	4.87
39.79	0.597	1.13436	0.403	4.34564	5.48
49.89	0.551	1.04359	0.449	4.69041	5.734
59.8	0.575	1.03563	0.425	4.81537	5.851
