Adsorption isotherm of Carbon Dioxide, Methane on AC Norit R1 Extra
DOI: 10.1023/a:1008914703884
Article source: Table 4
Adsorbate Carbon Dioxide: InChIKey CURLTUGMZLYLDI-UHFFFAOYSA-N
Adsorbate Methane: InChIKey VNWKTOKETHGBQD-UHFFFAOYSA-N
Kind: experiment
Temperature: 298 K
Tabular data in the source: 0
pressure (bar)	Carbon Dioxide fraction	Carbon Dioxide uptake (mmol/g)	Methane fraction	Methane uptake (mmol/g)	total uptake (mmol/g)
1.02	0.426	1.09567	0.574	0.608328	1.704
5.02	0.458	3.0358	0.542	1.3512	4.387
10.14	0.464	4.26495	0.536	1.77605	6.041
20.42	0.473	5.66867	0.527	2.03333	7.702
30.96	0.476	6.48906	0.524	2.27994	8.769
38.87	0.459	6.78472	0.541	2.32228	9.107
50.26	0.494	7.14002	0.506	2.29198	9.432
58.77	0.466	7.02525	0.534	2.34175	9.367
