Adsorption isotherm of Carbon Dioxide, Methane on AC Norit R1 Extra
DOI: 10.1023/a:1008914703884
Article source: Table 4
Adsorbate Carbon Dioxide: InChIKey CURLTUGMZLYLDI-UHFFFAOYSA-N
Adsorbate Methane: InChIKey VNWKTOKETHGBQD-UHFFFAOYSA-N
Kind: experiment
Temperature: 298 K
Tabular data in the source: 0
pressure (bar)	Carbon Dioxide fraction	Carbon Dioxide uptake (mmol/g)	Methane fraction	Methane uptake (mmol/g)	total uptake (mmol/g)
1	0.046	0.111228	0.954	1.09777	1.209
5	0.043	0.270816	0.957	2.95318	3.224
10.25	0.052	0.490968	0.948	4.05503	4.546
21.49	0.059	0.676256	0.941	5.36174	6.038
30.97	0.052	0.67728	0.948	5.96272	6.64
38.87	0.061	0.726206	0.939	6.12479	6.851
51	0.06	0.722339	0.94	6.29066	7.013
59.16	0.053	0.674215	0.947	6.42278	7.097
