Adsorption isotherm of Carbon Dioxide, Methane on AC Norit R1 Extra
DOI: 10.1023/a:1008914703884
Article source: Table 4
Adsorbate Carbon Dioxide: InChIKey CURLTUGMZLYLDI-UHFFFAOYSA-N
Adsorbate Methane: InChIKey VNWKTOKETHGBQD-UHFFFAOYSA-N
Kind: experiment
Temperature: 298 K
Tabular data in the source: 0
pressure (bar)	Carbon Dioxide fraction	Carbon Dioxide uptake (mmol/g)	Methane fraction	Methane uptake (mmol/g)	total uptake (mmol/g)
0.98	0.747	1.69986	0.253	0.272136	1.972
5.57	0.761	4.97042	0.239	0.485584	5.456
11.4	0.786	6.98165	0.214	0.49335	7.475
20.88	0.789	8.47829	0.211	0.579712	9.058
30.82	0.802	9.35749	0.198	0.618512	9.976
38.61	0.78	9.70088	0.22	0.532116	10.233
52.3	0.804	9.87581	0.196	0.476192	10.352
60.23	0.799	9.74467	0.201	0.491328	10.236
