Adsorption isotherm of Nitrogen, Methane on AC Norit R1 Extra
DOI: 10.1023/a:1008914703884
Article source: Table 3
Adsorbate Nitrogen: InChIKey IJGRMHOSHXDMSA-UHFFFAOYSA-N
Adsorbate Methane: InChIKey VNWKTOKETHGBQD-UHFFFAOYSA-N
Kind: experiment
Temperature: 298 K
Tabular data in the source: 0
pressure (bar)	Nitrogen fraction	Nitrogen uptake (mmol/g)	Methane fraction	Methane uptake (mmol/g)	total uptake (mmol/g)
1.51	0.911	0.431648	0.089	0.226352	0.658
5.22	0.941	1.1256	0.059	0.357403	1.483
9.74	0.905	1.4916	0.095	0.7084	2.2
19.25	0.905	2.08705	0.095	1.02795	3.115
29.7	0.905	2.44531	0.095	1.29369	3.739
39.3	0.912	2.77439	0.088	1.29961	4.074
50.56	0.909	2.89598	0.091	1.47202	4.368
60.35	0.91	2.95929	0.09	1.55871	4.518
