Adsorption isotherm of Carbon Dioxide, Methane on AC Norit R1 Extra
DOI: 10.1023/a:1008914703884
Article source: Table 4
Adsorbate Carbon Dioxide: InChIKey CURLTUGMZLYLDI-UHFFFAOYSA-N
Adsorbate Methane: InChIKey VNWKTOKETHGBQD-UHFFFAOYSA-N
Kind: experiment
Temperature: 298 K
Tabular data in the source: 0
pressure (bar)	Carbon Dioxide fraction	Carbon Dioxide uptake (mmol/g)	Methane fraction	Methane uptake (mmol/g)	total uptake (mmol/g)
1	0.046	0.111044	0.954	1.09596	1.207
5	0.043	0.268716	0.957	2.93028	3.199
10.25	0.052	0.483192	0.948	3.99081	4.474
21.49	0.059	0.664962	0.941	5.16804	5.833
30.97	0.052	0.6741	0.948	5.6259	6.3
38.87	0.061	0.699453	0.939	5.71755	6.417
51	0.06	0.686619	0.94	5.73038	6.417
59.16	0.053	0.6386	0.947	5.7474	6.386
