Adsorption isotherm of Nitrogen on Cu(C3H3N2)2
DOI: 10.1016/j.jssc.2013.04.016
Adsorbate Nitrogen: InChIKey IJGRMHOSHXDMSA-UHFFFAOYSA-N
Temperature: 77 K
Tabular data in the source: 0
pressure (bar)	uptake (cm3(STP)/g)
0.0520949	2.37589
0.0777672	2.62934
0.101801	2.83909
0.126381	2.97892
0.151507	3.12749
0.177179	3.2411
0.201759	3.34598
0.226339	3.46833
0.252557	3.5732
0.278229	3.68682
0.301171	3.77421
