Adsorption isotherm of Nitrogen on Cu(C3H3N2)2
DOI: 10.1016/j.jssc.2013.04.016
Adsorbate Nitrogen: InChIKey IJGRMHOSHXDMSA-UHFFFAOYSA-N
Temperature: 77 K
Tabular data in the source: 0
pressure (bar)	uptake (cm3(STP)/g)
0.0515487	0.706649
0.0755823	0.776565
0.0990697	0.846481
0.125834	0.907658
0.15096	0.986313
0.176087	1.03875
0.20012	1.06497
0.225792	1.11741
0.251465	1.14362
0.277137	1.19606
0.301171	1.2485
