Adsorption isotherm of Nitrogen on Cu(C3H3N2)2
DOI: 10.1016/j.jssc.2013.04.016
Adsorbate Nitrogen: InChIKey IJGRMHOSHXDMSA-UHFFFAOYSA-N
Temperature: 77 K
Tabular data in the source: 0
pressure (bar)	uptake (cm3(STP)/g)
0.0515487	0.199758
0.0766748	0.199758
0.101255	0.199758
0.125834	0.208498
0.15096	0.225977
0.177179	0.217237
0.201213	0.225977
0.226339	0.225977
0.252011	0.217237
0.275498	0.225977
0.302263	0.234716
