Adsorption isotherm of Oxygen on Carbon
DOI: 10.1039/c3cc46492j
Adsorbate Oxygen: InChIKey MYMOFIZGZYHOMD-UHFFFAOYSA-N
Temperature: 298 K
Tabular data in the source: 0
pressure (bar)	uptake (mmol/g)
0.123857	0.0272664
0.15675	0.0272664
0.216816	0.0415679
0.278312	0.0522939
0.376992	0.0701707
0.471382	0.0808968
0.530017	0.0916229
0.594374	0.0987736
0.65158	0.1095
0.711646	0.120226
0.773142	0.130952
0.833208	0.134527
0.898994	0.138103
0.9562	0.145253
