Adsorption isotherm of Nitrogen on Carbon
DOI: 10.1039/c3cc46492j
Adsorbate Nitrogen: InChIKey IJGRMHOSHXDMSA-UHFFFAOYSA-N
Temperature: 298 K
Tabular data in the source: 0
pressure (bar)	uptake (mmol/g)
0.00944547	0.00581428
0.0866732	0.0272664
0.135298	0.0451432
0.176772	0.0558693
0.25686	0.0808968
0.334088	0.105924
0.415606	0.148829
0.501415	0.184582
0.574352	0.213185
0.678752	0.259665
0.738818	0.295418
0.823197	0.327596
0.900425	0.374076
0.95334	0.402679
0.991954	0.434857
