Adsorption isotherm of Carbon Dioxide on Carbon
DOI: 10.1039/c3cc46492j
Adsorbate Carbon Dioxide: InChIKey CURLTUGMZLYLDI-UHFFFAOYSA-N
Temperature: 298 K
Tabular data in the source: 0
pressure (bar)	uptake (mmol/g)
0.00515504	0.0451432
0.00801532	0.184582
0.0123058	0.21676
0.0208866	0.427706
0.0394785	0.667255
0.0738019	0.992613
0.109555	1.15708
0.182493	1.40735
0.254	1.62903
0.326937	1.78634
0.398444	1.92221
0.469952	2.04377
0.548609	2.16891
0.622977	2.26544
0.731668	2.39415
0.837498	2.51214
0.909005	2.58365
0.980513	2.64085
