Adsorption isotherm of Carbon Dioxide on Zn4O-CH4
DOI: 10.1007/s10909-013-0864-z
Adsorbate Carbon Dioxide: InChIKey CURLTUGMZLYLDI-UHFFFAOYSA-N
Temperature: 240 K
Tabular data in the source: 0
pressure (bar)	uptake (mmol/g)
0.00939132	-0.0328565
0.0121357	0.0655064
0.0175751	-0.0374027
0.0220728	-0.0390559
0.0269437	-0.0405024
0.0358234	-0.0425688
0.0462921	-0.0444286
0.0615498	0.0537276
0.0818345	0.0516612
0.108804	0.149817
0.1406	0.24818
0.186937	0.246114
0.248546	0.444493
0.321179	0.643079
0.42703	0.741235
0.521263	1.2409
0.654675	1.43969
0.754886	2.24044
1.00367	3.14038
1.12481	4.04156
1.26056	4.84251
1.37302	6.6459
1.41269	7.64792
1.45351	8.64994
1.49551	9.65196
1.53872	10.654
1.58318	11.656
1.62893	13.6603
1.676	14.6623
1.72443	15.6643
1.77425	16.6663
1.82552	17.969
1.87827	19.3719
2.10495	21.7764
2.22836	22.7782
2.35899	23.7801
2.49729	24.6817
2.56945	25.6837
2.72009	26.7857
2.87955	27.6873
3.32033	28.488
3.61654	29.3894
4.17013	30.6913
5.09035	31.0907
5.86953	31.9917
7.16476	32.2909
8.26146	32.9915
10.3759	33.2905
12.6656	33.7901
15.9073	34.0892
19.4172	34.689
25.0915	34.7874
28.9325	35.4879
37.3875	35.5863
46.9566	36.0858
62.4319	36.1839
80.6764	36.2823
98.4797	36.9824
123.685	37.081
150.979	37.6808
200.737	37.779
266.893	37.9774
335.202	38.2764
433.158	38.3748
575.913	38.5731
