Adsorption isotherm of Methane on Zn4O-CH4
DOI: 10.1007/s10909-013-0864-z
Adsorbate Methane: InChIKey VNWKTOKETHGBQD-UHFFFAOYSA-N
Temperature: 120 K
Tabular data in the source: 0
pressure (bar)	uptake (mmol/g)
0.00103618	-7.11e-15
0.00129618	0.0673077
0.0016215	0.0673077
0.00202841	0.0673077
0.00248117	0.134615
0.00310375	0.201923
0.00388246	0.269231
0.00485665	0.336538
0.00594041	0.471154
0.00743065	0.605769
0.00868974	0.942308
0.0103936	1.07692
0.011886	1.34615
0.0135915	1.75
0.0145317	2.22115
0.015533	3.02885
0.0155384	2.49038
0.0162378	3.70192
0.0169741	4.375
0.0173515	4.98077
0.018112	7.94231
0.0181387	5.65385
0.0185062	9.28846
0.0185143	8.61538
0.0185411	6.32692
0.0189172	9.96154
0.0193373	10.6346
0.0197582	11.9808
0.0197664	11.3077
0.019821	7
0.0201965	12.6538
0.0206361	14
0.0206451	13.3269
0.0210851	15.3462
0.0210944	14.6731
0.0215445	16.6923
0.0215534	16.0192
0.0220134	18.0385
0.0220225	17.3654
0.0224604	21.6058
0.022466	21.2019
0.0224728	20.7308
0.0225018	18.7115
0.0229915	20.0577
0.0230015	19.3846
0.0245554	22.2115
0.0268353	23.4231
0.0268458	22.8173
0.0300066	23.8269
0.03281	24.2308
0.0358779	24.5
0.0401196	24.8365
0.0479774	25.2404
0.0524622	25.5769
0.0573702	25.7788
0.070166	26.0481
0.0820515	26.4519
0.100345	26.8558
0.125507	27.125
0.146785	27.3269
0.175528	27.7981
0.214699	27.9327
