Adsorption isotherm of Hydrogen on LJ-MOF
DOI: 10.1007/s10909-013-0864-z
Adsorbate Hydrogen: InChIKey UFHFLCQGNIYNRP-UHFFFAOYSA-N
Temperature: 120 K
Tabular data in the source: 0
pressure (bar)	uptake (mmol/g)
0.113523	0.624702
0.166237	0.621975
0.223645	0.619854
0.300911	0.716498
0.404872	0.813142
0.544749	0.909786
0.702539	1.00673
1.02919	1.39907
1.32758	1.69354
1.86434	2.18494
2.30532	2.57849
2.97431	3.07049
3.67861	3.66156
4.36089	4.25294
4.95573	4.94338
5.87673	5.83105
6.96817	6.61996
7.91948	7.40917
9.80295	8.79036
10.6757	9.28358
11.631	10.1719
12.6662	10.6651
14.3955	11.4543
15.6804	12.145
18.5946	13.0327
18.6062	13.6253
21.1508	14.612
22.085	15.4018
24.0634	16.3889
27.3487	17.1781
32.4345	18.1645
32.4651	19.0534
35.3775	20.1392
