Adsorption isotherm of Carbon Dioxide on LJ-MOF
DOI: 10.1007/s10909-013-0864-z
Adsorbate Carbon Dioxide: InChIKey CURLTUGMZLYLDI-UHFFFAOYSA-N
Temperature: 120 K
Tabular data in the source: 0
pressure (bar)	uptake (mmol/g)
1.33928	0.606936
1.96195	0.780347
2.61125	1.12717
3.7006	1.90751
4.61884	2.51445
5.94706	3.46821
6.53366	4.16185
7.40905	4.9422
7.63475	5.80925
8.64651	7.19653
8.66402	6.24277
9.49412	8.15029
10.4209	9.27746
11.086	10.1445
11.776	11.7052
11.7933	11.0116
12.119	13.1792
12.1346	12.5723
12.4789	14.3931
12.8637	15.0867
14.1249	16.0405
14.5123	18.2948
15.0206	17.0809
15.9469	18.9017
16.4205	20.1156
18.0267	21.1561
19.7941	22.1098
21.7424	22.8902
23.8647	24.0173
25.3972	24.711
27.0176	25.578
31.6349	26.2717
37.0405	26.9653
39.4118	27.7457
47.6405	28.4393
55.7605	29.3064
67.4274	29.8266
74.0776	30.5202
86.7694	31.0405
111.824	31.5607
135.172	32.2543
163.424	32.8613
185.386	33.4682
238.961	33.9017
338.779	34.5087
384.518	34.8555
495.64	35.289
618.852	35.7225
725.415	35.896
905.58	36.4162
1205.28	36.763
1765.29	37.0231
2137.01	37.0231
2754.59	37.4566
3439.35	37.8902
4296.72	38.0636
5538.43	38.4971
7141.62	38.7572
9212.27	38.8439
11500.2	39.3642
15306.2	39.711
23888.4	40.0578
31800	40.3179
52903.8	40.578
72730.5	40.6647
88029.2	40.7514
120998	40.9249
166317	41.0983
214500	41.2717
267921	41.5318
356851	41.5318
445889	41.6185
