Adsorption isotherm of Carbon Dioxide on Zn4O-CH4
DOI: 10.1007/s10909-013-0864-z
Adsorbate Carbon Dioxide: InChIKey CURLTUGMZLYLDI-UHFFFAOYSA-N
Temperature: 200 K
Tabular data in the source: 0
pressure (bar)	uptake (mmol/g)
0.0348174	0.258306
0.0518796	0.355636
0.0751306	0.553395
0.118511	0.950979
0.166806	1.8505
0.171626	2.55186
0.192339	3.85393
0.197897	5.5575
0.215552	7.16045
0.234782	10.1665
0.263117	11.5688
0.27072	14.8759
0.286591	16.3789
0.294873	19.5858
0.321179	21.1887
0.33046	22.6919
0.340008	24.6961
0.349833	26.3997
0.370343	29.3057
0.381044	30.408
0.392054	31.9111
0.452066	32.4112
0.584173	33.3113
0.870437	34.3107
1.29698	35.2098
1.93254	35.708
2.96275	36.3062
4.4146	36.8045
6.57791	37.3027
10.0845	37.6003
14.1941	37.7982
21.7609	38.0958
32.424	38.4938
49.7092	38.6911
76.2091	38.8885
110.364	39.0862
164.447	39.2838
252.114	39.3809
386.506	39.6785
575.913	39.876
858.137	39.8731
