Adsorption isotherm of Methane on Zn4O-CH4
DOI: 10.1007/s10909-013-0864-z
Adsorbate Methane: InChIKey VNWKTOKETHGBQD-UHFFFAOYSA-N
Temperature: 180 K
Tabular data in the source: 0
pressure (bar)	uptake (mmol/g)
0.124827	0.605769
0.142776	0.605769
0.163299	0.673077
0.195319	0.807692
0.233605	1.00962
0.261223	1.34615
0.305498	1.61538
0.34166	1.75
0.373592	2.08654
0.46727	2.35577
0.52249	2.75962
0.57125	3.29808
0.624614	3.70192
0.682964	4.10577
0.746699	4.64423
0.780663	5.11538
0.816137	5.65385
0.83433	6.19231
0.912192	6.73077
0.953643	7.26923
0.975027	7.60577
1.01911	8.48077
1.04179	9.08654
1.11369	9.75962
1.13862	10.1635
1.19025	10.8365
1.21663	11.5769
1.27191	12.1154
1.32965	12.7212
1.39007	13.2596
1.45324	13.7981
1.48551	14.4712
1.55261	15.4135
1.55321	14.8077
1.65991	15.9519
1.69684	16.5577
1.85504	17.2308
1.89647	17.7019
2.02763	18.1731
2.26685	18.8462
2.31749	19.3173
2.64969	19.9231
2.8327	20.5288
3.02887	20.8654
3.31139	21.4712
3.54056	21.875
3.78591	22.1442
4.23332	22.5481
5.17667	23.0865
5.91951	23.4904
7.23863	24.0288
8.27663	24.5673
9.89734	25.0385
11.0684	25.2404
12.9439	25.5769
14.8012	25.9808
16.9257	26.3173
19.7946	26.5865
24.7569	26.9231
27.6864	27.125
32.3748	27.5962
38.7272	27.5288
40.4964	27.7308
43.3019	28
51.7901	28.2019
60.5685	28.4712
72.4414	28.6731
81.0227	28.6731
90.6018	29.0096
