Adsorption isotherm of Hydrogen on LJ-MOF
DOI: 10.1007/s10909-013-0864-z
Adsorbate Hydrogen: InChIKey UFHFLCQGNIYNRP-UHFFFAOYSA-N
Temperature: 300 K
Tabular data in the source: 0
pressure (bar)	uptake (mmol/g)
1.083	0.586071
1.38417	0.491109
1.8914	0.494416
2.52736	0.595048
3.30249	0.793003
4.12756	0.795365
5.63979	0.896233
7.36949	1.09419
9.21061	1.09655
10.7656	1.29332
12.5831	1.4901
16.0797	1.68782
20.0935	1.98286
22.9655	2.37452
28.067	2.57177
32.7995	3.06122
41.9099	3.45406
51.2079	4.04155
55.965	4.72542
66.877	5.21511
79.9036	5.99748
99.8014	7.17057
119.236	8.0505
139.305	9.02776
162.718	10.3953
194.36	11.6654
242.771	12.741
289.939	14.3038
331.136	15.9638
395.445	17.6242
493.761	19.3826
