Adsorption isotherm of Carbon Dioxide on LJ-MOF
DOI: 10.1007/s10909-013-0864-z
Adsorbate Carbon Dioxide: InChIKey CURLTUGMZLYLDI-UHFFFAOYSA-N
Temperature: 140 K
Tabular data in the source: 0
pressure (bar)	uptake (mmol/g)
0.000107986	0.0862992
0.000153361	0.0849807
0.000232181	-0.00311636
0.000351429	0.0818644
0.000483434	0.0806658
0.000755521	0.0789877
0.00114366	0.0774296
0.00173144	-0.0106675
0.00253809	0.160972
0.00384164	0.245953
0.0056314	0.417592
0.00579891	2.23479
0.00614832	5.95572
0.0061642	4.13841
0.00633588	7.25369
0.00651308	10.2824
0.0065284	8.63819
0.00691412	13.138
0.00693101	11.4072
0.00714507	12.4455
0.00735862	14.1762
0.00736761	13.3108
0.00755799	17.8107
0.00757664	16.0799
0.00758956	14.8684
0.00778478	19.4548
0.00798209	24.3009
0.00799773	22.9163
0.00801746	21.1855
0.00821347	26.6373
0.00822956	25.2527
0.00929216	29.5792
0.00930822	28.3676
0.0102013	31.2231
0.0108547	32.4344
0.0115509	33.5591
0.0126904	34.6838
0.0191821	35.7207
0.0290086	36.4114
0.041163	37.0159
0.0622582	37.6201
0.0912634	37.7917
0.142556	38.1362
0.222761	38.2211
0.306327	38.4795
0.463705	38.4779
0.679486	38.9092
0.996047	39.0808
1.50722	39.3389
2.43154	39.4236
3.23992	39.4226
5.39754	39.3341
8.16757	39.5922
11.5984	39.6774
18.711	39.7621
26.5703	39.8473
40.2019	40.1919
57.0948	40.1906
86.4185	40.2756
