Adsorption isotherm of Methane on Zn4O-CH4
DOI: 10.1007/s10909-013-0864-z
Adsorbate Methane: InChIKey VNWKTOKETHGBQD-UHFFFAOYSA-N
Temperature: 100 K
Tabular data in the source: 0
pressure (bar)	uptake (mmol/g)
0.0010831	0.807692
0.00115826	0.942308
0.00129541	1.00962
0.00148142	1.27885
0.00169269	2.89423
0.00169343	2.22115
0.00169421	1.48077
0.00172952	4.24038
0.00173028	3.56731
0.00176716	5.58654
0.00176794	4.91346
0.00180483	7.60577
0.00180562	6.93269
0.00180641	6.25962
0.00184411	8.95192
0.00184492	8.27885
0.00188346	10.9712
0.00188424	10.2981
0.00188507	9.625
0.00192277	13.6635
0.00192361	12.9904
0.00192445	12.3173
0.00192525	11.6442
0.00196294	16.3558
0.0019638	15.6827
0.00196461	15.0096
0.00196547	14.3365
0.00200478	18.375
0.00200566	17.7019
0.00200653	17.0288
0.00204756	20.3942
0.00204841	19.7212
0.00204931	19.0481
0.00209212	21.7404
0.00209299	21.0673
0.00213426	25.5769
0.00213504	24.9712
0.00213672	23.7596
0.00213765	23.0865
0.00213854	22.4135
0.00218417	24.4327
0.00228185	26.0481
0.00249498	26.4519
0.00285277	26.9904
0.003263	26.9904
0.00381634	27.125
0.00446341	27.3269
0.00521923	27.7981
0.00638259	28.2692
0.00763373	28.4712
0.00933763	28.5385
0.0124898	28.875
0.0163364	29.2115
0.0204346	29.3462
0.0267335	29.3462
0.0341945	29.6154
0.0408918	30.0192
0.0511548	30.0192
0.0625701	30.1538
0.0800344	30.3558
0.100103	30.625
0.114512	30.4231
