Adsorption isotherm of Carbon Dioxide on Zn4O-CH4
DOI: 10.1007/s10909-013-0864-z
Adsorbate Carbon Dioxide: InChIKey CURLTUGMZLYLDI-UHFFFAOYSA-N
Temperature: 180 K
Tabular data in the source: 0
pressure (bar)	uptake (mmol/g)
0.00165229	0.180194
0.00232561	0.177715
0.00318146	0.175441
0.00487738	0.272564
0.0068651	0.270085
0.0102291	0.367414
0.0180828	0.463504
0.0269437	0.560834
0.0379242	0.859022
0.0462921	1.15824
0.0565076	1.75813
0.05982	3.56173
0.0615498	5.36553
0.0670404	7.36937
0.0709703	9.87452
0.0773013	11.8784
0.0891347	16.8885
0.09171	19.6945
0.0943597	20.9972
0.102779	22.6001
0.105748	24.3037
0.108804	25.9071
0.111948	27.31
0.115183	28.5124
0.118511	29.6147
0.121935	31.3183
0.136651	33.1214
0.181687	34.322
0.27072	35.3214
0.31216	35.7212
0.478568	36.119
0.601053	36.3178
0.870437	36.5156
1.26056	36.8136
2.04584	37.3112
3.04837	37.6089
4.17013	37.8071
6.39318	38.3051
10.0845	38.402
18.342	38.6984
22.3896	38.7971
31.5135	38.8949
55.7092	39.1914
93.0265	39.3881
130.935	39.5861
195.1	39.5832
