Adsorption isotherm of Methane on Zn4O-CH4
DOI: 10.1007/s10909-013-0864-z
Adsorbate Methane: InChIKey VNWKTOKETHGBQD-UHFFFAOYSA-N
Temperature: 260 K
Tabular data in the source: 0
pressure (bar)	uptake (mmol/g)
1.11994	1.00962
1.43261	1.14423
1.71343	1.34615
2.19141	1.75
2.67999	2.15385
3.20533	2.35577
3.66528	2.75962
4.28595	3.23077
5.0113	3.83654
5.73041	4.24038
6.4076	4.64423
6.69876	5.18269
7.16359	5.31731
7.83144	5.99038
8.37341	6.39423
9.15484	6.93269
10.2354	7.53846
10.6996	8.21154
11.6987	8.68269
12.2303	9.22115
12.5028	9.75962
13.0721	10.1635
14.2928	10.6346
15.2812	11.1058
15.9767	11.5096
16.7027	12.0481
17.8573	12.5865
19.5239	13.125
20.4111	13.6635
21.3377	14.2692
23.3285	14.8077
24.94	15.4135
27.8886	15.75
29.1593	16.0865
31.8777	16.7596
34.8511	17.3654
38.9652	17.9712
42.6066	18.3077
44.5376	19.0481
50.921	19.6538
56.9346	20.1923
63.66	20.6635
72.7891	21.2019
85.1112	21.7404
93.0543	22.2788
111.275	22.75
127.232	23.2885
155.563	24.0288
198.96	24.4327
232.673	24.7692
290.949	25.375
355.801	25.8462
425.517	26.1827
486.571	26.5865
532.043	26.9231
650.724	27.1923
778.317	27.3269
890.075	27.5962
1064.45	27.9327
