Adsorption isotherm of Carbon Dioxide on Zn4O-CH4
DOI: 10.1007/s10909-013-0864-z
Adsorbate Carbon Dioxide: InChIKey CURLTUGMZLYLDI-UHFFFAOYSA-N
Temperature: 160 K
Tabular data in the source: 0
pressure (bar)	uptake (mmol/g)
0.000325789	-0.108695
0.000544022	-0.112415
0.000858137	0.0847244
0.00127864	0.0818313
0.00170003	0.0797649
0.00219683	0.0779051
0.00268162	0.276904
0.00346527	0.275044
0.00435218	0.273391
0.00516341	0.372374
0.00706345	0.570546
0.00838005	0.469084
0.00994184	0.868735
0.011795	1.36861
0.0132183	1.8689
0.0136006	2.97114
0.0139935	3.97316
0.0143978	4.97518
0.0148138	5.9772
0.0152418	7.98145
0.0156822	8.98347
0.0161353	9.98549
0.0166015	10.9875
0.0170811	11.9895
0.0175751	12.9916
0.0180828	13.9936
0.0186053	15.9978
0.0191429	16.9998
0.0196959	17.9016
0.020265	18.9037
0.0208505	19.9057
0.0214529	20.9077
0.0220728	22.9119
0.022711	23.914
0.0233672	24.916
0.0240423	25.918
0.024737	26.92
0.0254517	27.922
0.0261871	28.9241
0.0269437	30.9283
0.0277221	31.9303
0.0285231	33.233
0.0310682	34.4351
0.0379242	35.1352
0.0476296	35.8351
0.108804	36.6309
0.144662	36.8293
0.186937	37.0279
0.241566	37.2264
0.27072	37.4261
0.349833	37.8251
0.452066	37.8232
0.536324	38.0224
0.713082	38.1206
0.921466	38.3192
1.19075	38.4175
1.58318	38.6159
2.04584	38.6141
2.72009	38.8124
3.9392	39.0102
5.09035	39.0083
7.16476	39.3065
9.25852	39.2044
12.31	39.3026
