Adsorption isotherm of Methane on Zn4O-CH4
DOI: 10.1007/s10909-013-0864-z
Adsorbate Methane: InChIKey VNWKTOKETHGBQD-UHFFFAOYSA-N
Temperature: 300 K
Tabular data in the source: 0
pressure (bar)	uptake (mmol/g)
0.139663	0.0673077
0.17867	0.0673077
0.233746	0.0673077
0.267357	0.0673077
0.357677	0.134615
0.467915	0.201923
0.585343	0.201923
0.765781	0.201923
0.957882	0.336538
1.17164	0.471154
1.49887	0.471154
2.05037	0.740385
2.68172	1.14423
3.35416	1.41346
4.01148	1.68269
4.69098	2.08654
5.48605	2.35577
6.86078	2.82692
8.57963	3.36538
9.59353	3.76923
11.2173	4.375
12.2633	4.98077
13.4072	5.58654
15.3298	6.125
16.3895	6.66346
18.3255	7.13462
20.4813	8.27885
20.4883	7.74038
23.4211	8.61538
24.4837	9.28846
27.3745	9.82692
31.2944	10.6346
32.7135	11.3077
36.5752	11.9135
39.1009	12.5192
40.8758	13.125
44.6906	13.6635
49.9639	14.3365
53.4093	15.0769
57.0988	15.6827
63.8435	16.1538
69.8018	16.6923
78.0399	17.2981
89.2312	17.8365
93.2774	18.5096
106.669	18.8462
111.511	19.4519
127.505	19.9231
139.404	20.4615
166.689	21.0673
203.834	21.6058
233.043	22.2788
260.559	22.8173
291.324	23.3558
340.704	23.625
380.931	24.1635
435.639	24.4327
476.285	24.9712
595.712	25.2404
728.461	25.7788
851.857	26.1827
974.017	26.7212
1139.01	27.125
1456.86	27.3942
1666.01	27.7308
2179.1	28.0673
2605.89	28.4712
3186.89	28.875
3811.24	29.2115
4661.62	29.4135
