Adsorption isotherm of Methane on LJ-MOF
DOI: 10.1007/s10909-013-0864-z
Adsorbate Methane: InChIKey VNWKTOKETHGBQD-UHFFFAOYSA-N
Temperature: 300 K
Tabular data in the source: 0
pressure (bar)	uptake (mmol/g)
1.29453	0.587961
1.61759	0.980565
2.11393	0.983399
2.70135	1.18112
3.60906	1.57443
4.61143	1.96727
5.76163	2.555
7.2003	2.75248
8.22803	3.43682
9.83132	4.12163
11.4899	4.51353
13.4251	5.29566
16.3993	6.37095
18.736	7.44554
22.3819	8.52059
27.951	9.98636
32.6488	11.3539
38.993	12.8192
45.5488	14.0891
56.8848	15.4573
67.9558	16.5324
83.015	17.5101
94.8477	18.4871
118.467	19.6602
141.542	20.4426
161.736	21.2245
197.609	21.9095
236.106	22.6919
288.441	23.5721
352.498	23.8669
430.652	24.6495
460.38	24.9429
588.148	25.6284
734.846	26.2161
960.056	26.7067
1340.87	27.4908
1791.33	27.9816
2502	28.6681
3268.86	29.1587
4270.97	29.5518
5218.51	30.1393
7291.66	30.1429
