Adsorption isotherm of Carbon Dioxide on LJ+P-MOF
DOI: 10.1007/s10909-013-0864-z
Adsorbate Carbon Dioxide: InChIKey CURLTUGMZLYLDI-UHFFFAOYSA-N
Temperature: 140 K
Tabular data in the source: 0
pressure (bar)	uptake (mmol/g)
0.00114311	0.423585
0.00138365	0.682483
0.00172761	1.54703
0.00172913	0.941261
0.00189783	2.75822
0.00195239	5.26773
0.00195572	4.05618
0.0020107	6.99839
0.00201315	6.133
0.00207332	7.86366
0.00213524	9.59431
0.0021379	8.72892
0.00220174	10.4596
0.00226755	12.1902
0.00227032	11.3249
0.00233812	13.0555
0.002408	14.7862
0.00241094	13.9208
0.00248208	15.9111
0.00264069	17.2089
0.00272155	18.4203
0.00280632	19.2856
0.00289372	20.1509
0.00308054	21.016
0.00317648	21.8813
0.00327534	22.7466
0.00337526	24.0445
0.00359184	25.1693
0.00394572	26.3805
0.00406506	27.8515
0.00419167	28.7168
0.00446228	29.5819
0.00460126	30.4472
0.00474457	31.3125
0.00489223	32.1777
0.00520807	33.0429
0.00536175	35.0332
0.00536892	34.0812
0.00691316	35.7245
0.00950203	36.3291
0.0122576	36.6743
0.0139218	36.8469
0.0179592	37.1921
0.0210643	37.1915
0.0280567	37.45
0.0385964	37.4488
