Adsorption isotherm of Methane on LJ-MOF
DOI: 10.1007/s10909-013-0864-z
Adsorbate Methane: InChIKey VNWKTOKETHGBQD-UHFFFAOYSA-N
Temperature: 120 K
Tabular data in the source: 0
pressure (bar)	uptake (mmol/g)
0.00116745	0.361127
0.00186074	0.357795
0.00296672	0.650756
0.00473006	0.943718
0.00786786	1.23638
0.0130914	1.82533
0.0168907	2.31733
0.0169012	2.90992
0.0176602	4.39109
0.0184462	5.4772
0.0184615	6.26732
0.0192849	7.45219
0.0201431	8.5383
0.0201621	9.42718
0.0201872	10.6124
0.0202147	11.8963
0.0202421	13.1802
0.0202655	14.2666
0.0211693	15.4515
0.0221435	17.9203
0.022167	18.908
0.0221992	20.2907
0.0230731	16.7349
0.0241856	21.179
0.0263498	22.0672
0.0287254	23.5481
0.0326442	24.2386
0.0439538	25.0265
0.0567266	25.8148
0.0831298	26.5035
0.138348	27.29
0.194244	27.5838
0.240265	28.2737
