Adsorption isotherm of Carbon Dioxide on LJ-MOF
DOI: 10.1007/s10909-013-0864-z
Adsorbate Carbon Dioxide: InChIKey CURLTUGMZLYLDI-UHFFFAOYSA-N
Temperature: 300 K
Tabular data in the source: 0
pressure (bar)	uptake (mmol/g)
1.05901	0.780956
1.6168	1.85861
2.36059	3.03335
3.52141	5.67173
5.36422	10.7494
8.16473	17.2904
11.9019	21.2944
17.754	24.0303
26.4988	25.6931
39.5491	27.4534
59.055	28.3357
86.2078	29.8032
131.652	30.393
192.215	31.5678
300.142	32.2554
448.267	32.7475
654.812	33.0442
977.995	33.5362
