Adsorption isotherm of Carbon Dioxide on Zn4O-CH4
DOI: 10.1007/s10909-013-0864-z
Adsorbate Carbon Dioxide: InChIKey CURLTUGMZLYLDI-UHFFFAOYSA-N
Temperature: 140 K
Tabular data in the source: 0
pressure (bar)	uptake (mmol/g)
0.000107265	-0.100825
0.000150979	-0.0057732
0.000231461	-0.211959
0.000335202	-0.0173196
0.000528745	0.0760825
0.000765714	0.170722
0.000989479	0.46701
0.00124273	0.763711
0.00174915	1.05876
0.00179968	3.55835
0.00185173	5.15794
0.00201691	6.9567
0.00219683	9.85546
0.0022603	11.2551
0.00239286	13.9542
0.00246199	15.8538
0.00260631	17.253
0.00268162	18.6526
0.00283881	19.9518
0.00300522	21.5509
0.00327338	22.8497
0.00346527	24.0489
0.00356539	25.2485
0.00388353	26.7472
0.00399573	28.0468
0.00435218	29.5456
0.00474042	31.0443
0.00501842	32.3435
0.00546609	33.6423
0.00578651	34.8414
0.0059537	35.341
0.00667232	35.7394
0.00769355	36.2373
0.0091276	36.3348
0.0102291	36.6332
0.0121357	36.9307
0.0148138	37.0278
0.0180828	37.3249
0.0220728	37.3221
0.0269437	37.5192
0.0338397	37.6159
0.0437287	37.6122
