Adsorption isotherm of Carbon Dioxide on LJ+P-MOF
DOI: 10.1007/s10909-013-0864-z
Adsorbate Carbon Dioxide: InChIKey CURLTUGMZLYLDI-UHFFFAOYSA-N
Temperature: 300 K
Tabular data in the source: 0
pressure (bar)	uptake (mmol/g)
1.03806	0.606936
1.21725	0.606936
1.5204	0.867052
1.83918	1.21387
2.22563	1.38728
2.69179	1.82081
3.46905	2.34104
4.1941	2.94798
4.75691	3.64162
5.56776	4.50867
5.92739	5.0289
6.51085	5.80925
6.93012	6.41618
7.60809	7.45665
8.09205	8.4104
8.59254	10.1445
8.60838	9.27746
9.43662	11.0116
9.71155	12.4855
10.6362	14.6532
10.648	14.1329
10.6676	13.2659
12.0566	15.6069
12.4216	16.5607
13.2168	17.341
14.0368	18.9884
15.4126	19.9422
15.8795	20.896
16.8802	22.1098
17.967	22.7168
19.7359	23.4971
21.6345	25.2312
21.6744	24.3642
24.5333	26.0116
28.7307	26.6185
32.5804	27.3988
33.5665	28.3526
41.9031	28.8728
49.1006	29.2197
53.9333	30
61.1937	30.5202
76.3777	31.1272
83.9724	31.474
95.3096	31.8208
111.701	32.0809
122.811	32.4277
143.875	32.8613
191.349	33.5549
246.557	34.1618
328.1	34.5954
409.804	34.8555
480.017	35.3757
599.565	35.6358
772.692	36.1561
877.358	36.3295
1167.93	36.5896
1368.76	36.8497
