Adsorption isotherm of Methane on Zn4O-CH4
DOI: 10.1007/s10909-013-0864-z
Adsorbate Methane: InChIKey VNWKTOKETHGBQD-UHFFFAOYSA-N
Temperature: 140 K
Tabular data in the source: 0
pressure (bar)	uptake (mmol/g)
0.0111213	0.269231
0.0133044	0.134615
0.0159124	0.336538
0.0190317	0.538462
0.0217679	0.538462
0.024897	0.605769
0.0291183	0.807692
0.0340547	1.00962
0.041653	1.21154
0.0476339	1.48077
0.0569661	1.81731
0.0637011	2.15385
0.071229	2.55769
0.0778765	3.09615
0.083262	3.56731
0.0909843	4.91346
0.0910241	4.24038
0.0950751	6.19231
0.0951189	5.45192
0.0971822	6.93269
0.0993428	7.53846
0.101549	8.21154
0.106118	9.42308
0.108465	10.2308
0.110854	11.1731
0.115871	11.9808
0.120923	15.2788
0.121022	14
0.121095	13.0577
0.135172	16.1538
0.138073	17.9712
0.138132	17.2981
0.138192	16.625
0.147634	18.3077
0.154323	19.0481
0.157722	19.9904
0.157763	19.5865
0.172449	20.4615
0.176278	21.1346
0.180231	21.4712
0.188445	21.8077
0.201486	22.2115
0.215421	22.6827
0.246322	23.1538
0.263347	23.6923
0.314928	24.0962
0.329295	24.3654
0.368194	24.8365
0.440293	25.3077
0.503516	25.5769
0.563069	25.8462
0.673385	26.1827
0.770213	26.1827
0.823586	26.4519
0.920994	26.7212
1.07714	26.9231
1.23181	27.1923
1.50663	27.3942
1.76192	27.7308
2.0151	27.8654
2.4101	28.0673
2.75629	28.2692
