Adsorption isotherm of Nitrogen on MSNCs
DOI: 10.1039/c5ta09353h
Article source: Figure 6
Adsorbate Nitrogen: InChIKey IJGRMHOSHXDMSA-UHFFFAOYSA-N
Kind: experiment
Temperature: 77 K
Tabular data in the source: 0
pressure (bar)	uptake (cm3(STP)/g)
0.00988	132.05
0.030502	163.69
0.063704	187.56
0.086109	199.38
0.100558	204.95
0.120932	213.52
0.142101	221.34
0.1613	228.61
0.18211	236.43
0.204145	242.5
0.255041	258.79
0.258649	260.81
0.30188	274.53
0.30581	276.55
0.346399	289.71
0.359156	294.68
0.401162	308.57
0.405736	310.04
0.451143	326.56
0.46036	354.37
0.500123	348.96
0.513245	430.58
0.550255	379.21
0.561624	473.36
0.599861	418.34
0.613585	526.36
0.652647	574.77
0.661641	483.89
0.706668	650.45
0.714629	565.79
0.753812	648.57
0.764852	739.89
0.816001	811.03
0.818673	811.41
0.828334	791.92
0.840274	836.18
0.858697	826.57
0.864709	851.94
0.880616	840.59
0.888899	865.39
0.915605	876.75
0.920229	861.11
0.929645	865.16
0.940201	886.25
0.954569	891.59
0.957489	883.36
0.977865	902.02
0.984765	900.17
0.991015	904.92
0.991747	910.48
1.00157	912.68
1.00644	919.75
