Adsorption isotherm of Nitrogen on MSNCs/Ag
DOI: 10.1039/c5ta09353h
Article source: Figure 6
Adsorbate Nitrogen: InChIKey IJGRMHOSHXDMSA-UHFFFAOYSA-N
Kind: experiment
Temperature: 77 K
Tabular data in the source: 0
pressure (bar)	uptake (cm3(STP)/g)
0.00971	44.49
0.029305	57.18
0.057928	66.38
0.076751	71.34
0.100732	76.31
0.121104	79.99
0.141604	82.93
0.142764	84.22
0.161459	86.42
0.182088	89.73
0.202461	92.49
0.209164	94.15
0.24876	98.98
0.255617	100.58
0.292968	105.4
0.303714	106.57
0.348536	114.16
0.354625	114.59
0.404425	123.83
0.452302	133.86
0.46345	160.29
0.502444	145.76
0.510776	181.31
0.552896	162.64
0.560359	200.65
0.602114	181.3
0.609779	220.58
0.652663	205.83
0.660738	242.92
0.703227	235.64
0.713454	265.54
0.756991	267.16
0.761372	285.7
0.811569	291.72
0.812704	291.93
0.837394	307.02
0.84097	300.07
0.85624	302.15
0.862248	311.65
0.882394	307.71
0.889864	317.68
0.907734	313.97
0.915233	324.23
0.932734	321.89
0.937644	331.09
0.958723	332.61
0.958827	332.69
0.98236	352.55
0.983488	352.79
0.992899	363.5
0.992901	363.5
1.00098	362.18
1.00559	372.11
