Adsorption isotherm of Nitrogen on CL-polymer
DOI: 10.6023/A15010079
Article source: Figure 5
Adsorbate Nitrogen: InChIKey IJGRMHOSHXDMSA-UHFFFAOYSA-N
Kind: experiment
Temperature: 77 K
Tabular data in the source: 0
pressure (bar)	uptake (cm3(STP)/g)
0	0
0.003584	74.9634
0.003996	100.821
0.007044	142.169
0.014501	160.197
0.024429	183.371
0.060558	201.106
0.094132	208.522
0.110899	210.937
0.144433	215.767
0.165977	218.133
0.19708	220.402
0.213806	220.231
0.24495	225.085
0.266495	227.452
0.297557	227.134
0.316713	229.525
0.345426	231.818
0.36693	231.599
0.395644	233.892
0.414759	233.697
0.448251	235.941
0.462628	238.38
0.498468	238.014
0.517624	240.405
0.548686	240.088
0.567842	242.478
0.596555	244.772
0.618059	244.552
0.646773	246.845
0.66358	251.846
0.699421	251.48
0.718536	251.285
0.749639	253.553
0.766364	253.383
0.802163	250.431
0.818971	255.432
0.852422	255.09
0.869148	254.919
0.900291	259.774
0.914586	257.042
0.948119	261.872
0.957677	261.774
0.972054	264.214
1.00328	274.24
