Adsorption isotherm of Nitrogen on Z-cage
DOI: 10.6023/A15010079
Article source: Figure 5
Adsorbate Nitrogen: InChIKey IJGRMHOSHXDMSA-UHFFFAOYSA-N
Kind: experiment
Temperature: 77 K
Tabular data in the source: 0
pressure (bar)	uptake (cm3(STP)/g)
0	0
0.0007	43.9584
0.006262	93.0395
0.014213	142.096
0.055326	172.711
0.105873	195.471
0.15399	215.669
0.209315	238.38
0.257432	258.579
0.307938	278.753
0.358485	301.512
0.40656	319.125
0.411422	324.248
0.461886	341.836
0.512434	364.596
0.562939	384.77
0.56537	387.331
0.615917	410.091
0.618224	404.895
0.663951	425.118
0.712233	455.659
0.716929	450.439
0.767476	473.199
0.818106	501.13
0.866346	529.086
0.871001	521.28
0.911991	544.137
0.91714	567.361
0.921878	564.726
0.9681	615.978
0.968594	647.008
