Adsorption isotherm of Methane on PCN-14
DOI: 10.1021/Ar100112y
Adsorbate Methane: InChIKey VNWKTOKETHGBQD-UHFFFAOYSA-N
Temperature: 290 K
Tabular data in the source: 0
pressure (bar)	uptake (volume/volume)
0.742115	3.44037
1.02041	13.7615
1.48423	24.0826
1.76252	29.8165
2.04082	35.5505
2.5974	45.8716
3.24675	60.7798
3.8961	69.9541
5.38033	87.156
7.60668	115.826
10.6679	146.789
15.2134	174.312
20.6865	199.541
26.1596	214.45
31.2616	223.624
37.5696	238.532
40.3525	241.972
41.5584	243.119
