Adsorption isotherm of Methane on PCN-14
DOI: 10.1021/Ar100112y
Adsorbate Methane: InChIKey VNWKTOKETHGBQD-UHFFFAOYSA-N
Temperature: 240 K
Tabular data in the source: 0
pressure (bar)	uptake (volume/volume)
0.371058	17.2018
0.463822	41.2844
0.742115	63.0734
1.02041	74.5413
1.11317	84.8624
1.39147	106.651
1.94805	127.294
2.31911	151.376
3.06122	175.459
3.8961	193.807
5.00928	220.183
7.14286	250
10.2968	270.642
14.7495	292.431
20.3154	305.046
26.2523	316.514
29.4991	318.807
30.9833	319.954
32.0037	321.101
