Adsorption isotherm of Hydrogen on PCN-6
DOI: 10.1021/Ar100112y
Adsorbate Hydrogen: InChIKey UFHFLCQGNIYNRP-UHFFFAOYSA-N
Temperature: 77 K
Tabular data in the source: 0
pressure (bar)	uptake (wt%)
0.212467	0.770642
1.00722	1.57798
3.17189	2.93578
6.29578	3.88991
9.79838	4.47706
13.2965	4.88073
16.2106	5.17431
18.3486	5.43119
19.9026	5.57798
22.0388	5.76147
24.7564	5.94495
27.0864	6.12844
30.1908	6.27523
32.9084	6.45872
34.4597	6.49541
37.5631	6.6055
40.0852	6.7156
41.6382	6.82569
45.3231	6.93578
47.6495	6.97248
49.3973	7.11927
51.1441	7.22936
