Adsorption isotherm of Hydrogen on PCN-6
DOI: 10.1021/Ar100112y
Adsorbate Hydrogen: InChIKey UFHFLCQGNIYNRP-UHFFFAOYSA-N
Temperature: 298 K
Tabular data in the source: 0
pressure (bar)	uptake (wt%)
4.84585	0.0366972
7.94929	0.146789
10.6634	0.183486
15.3172	0.293578
19.3878	0.330275
23.2665	0.440367
27.5327	0.550459
30.6344	0.587156
33.1546	0.623853
35.2882	0.697248
37.0333	0.733945
39.5536	0.770642
44.5941	0.844037
47.1144	0.880734
50.4098	0.917431
