Adsorption isotherm of Methane on PCN-14
DOI: 10.1021/Ar100112y
Adsorbate Methane: InChIKey VNWKTOKETHGBQD-UHFFFAOYSA-N
Temperature: 200 K
Tabular data in the source: 0
pressure (bar)	uptake (volume/volume)
0.278293	49.3119
0.371058	72.2477
0.463822	121.56
0.649351	138.761
0.742115	181.193
0.927644	205.275
1.11317	228.211
1.57699	253.44
1.85529	272.936
2.31911	291.284
2.96846	308.486
3.61781	316.514
4.82375	332.569
6.95733	346.33
9.92579	357.798
14.1002	366.972
19.4805	373.853
