Adsorption isotherm of Methane on PCN-14
DOI: 10.1021/Ar100112y
Adsorbate Methane: InChIKey VNWKTOKETHGBQD-UHFFFAOYSA-N
Temperature: 280 K
Tabular data in the source: 0
pressure (bar)	uptake (volume/volume)
1.20594	28.6697
1.85529	50.4587
2.22635	66.5138
2.8757	81.422
3.71058	98.6239
4.82375	118.119
6.95733	146.789
9.6475	175.459
13.5436	202.982
19.1095	227.064
24.5826	244.266
29.8701	258.028
36.3636	272.936
39.7032	278.67
41.3729	282.11
42.115	284.404
