Adsorption isotherm of Methane on PCN-14
DOI: 10.1021/Ar100112y
Adsorbate Methane: InChIKey VNWKTOKETHGBQD-UHFFFAOYSA-N
Temperature: 150 K
Tabular data in the source: 0
pressure (bar)	uptake (volume/volume)
0.185529	103.211
0.371058	191.514
0.463822	213.303
0.556586	255.734
0.649351	303.899
0.834879	355.505
0.927644	371.56
1.20594	381.881
1.57699	391.055
2.04082	400.229
2.69017	407.11
3.24675	410.55
4.26716	413.991
5.56586	418.578
