Adsorption isotherm of Hydrogen on (Cu6(H2O)6(tatb)4*DMA*12H2O)
DOI: 10.1021/Ar100112y
Adsorbate Hydrogen: InChIKey UFHFLCQGNIYNRP-UHFFFAOYSA-N
Temperature: 77 K
Tabular data in the source: 0
pressure (bar)	uptake (wt%)
0.202688	0.366972
0.995662	1.10092
2.75852	1.87156
5.87263	2.42202
9.75749	2.78899
12.6698	3.00917
14.9989	3.15596
18.1033	3.30275
22.1775	3.48624
22.9527	3.48624
26.057	3.63303
28.3844	3.70642
30.9046	3.74312
32.0683	3.77982
34.5904	3.88991
36.9168	3.92661
40.0194	4
42.1521	4.0367
45.2537	4.07339
47.3873	4.14679
50.6819	4.14679
