Adsorption isotherm of Hydrogen on [Cu2(C2v-mdip)(H2O)2]*3DMSO
DOI: 10.1021/Ar100112y
Adsorbate Hydrogen: InChIKey UFHFLCQGNIYNRP-UHFFFAOYSA-N
Temperature: 77 K
Tabular data in the source: 0
pressure (bar)	uptake (wt%)
0.00932565	0.0676692
0.0155427	0.327068
0.0248684	0.406015
0.034194	0.496241
0.0466282	0.597744
0.0559539	0.699248
0.0683881	0.766917
0.0839308	0.845865
0.0932565	0.902256
0.115016	1.01504
0.133668	1.10526
0.152319	1.18421
0.177187	1.26316
0.205164	1.35338
0.223816	1.3985
0.264227	1.51128
0.310855	1.6015
0.360592	1.71429
0.404111	1.79323
0.45074	1.84962
0.497368	1.92857
0.543996	1.98496
0.587516	2.03008
0.631035	2.08647
0.680772	2.13158
0.724292	2.18797
0.746052	2.2218
0.77092	2.2218
0.789572	2.24436
0.808223	2.26692
0.8362	2.28947
0.861068	2.30075
0.882828	2.32331
0.917022	2.34586
0.960542	2.36842
0.988519	2.41353
1.02582	2.41353
1.07245	2.43609
1.09732	2.46992
1.1284	2.46992
