Adsorption isotherm of Methane on PCN-14
DOI: 10.1021/Ar100112y
Adsorbate Methane: InChIKey VNWKTOKETHGBQD-UHFFFAOYSA-N
Temperature: 125 K
Tabular data in the source: 0
pressure (bar)	uptake (volume/volume)
0.278293	141.055
0.371058	282.11
0.463822	348.624
0.556586	376.147
0.834879	402.523
0.927644	418.578
1.20594	427.752
1.57699	436.927
