Adsorption isotherm of Methane on PCN-14
DOI: 10.1021/Ar100112y
Adsorbate Methane: InChIKey VNWKTOKETHGBQD-UHFFFAOYSA-N
Temperature: 270 K
Tabular data in the source: 0
pressure (bar)	uptake (volume/volume)
0.556586	11.4679
0.834879	28.6697
1.02041	47.0183
1.57699	58.4862
2.04082	72.2477
2.5974	90.5963
3.24675	108.945
4.45269	133.028
5.84416	158.257
8.25603	189.22
12.3377	220.183
17.1614	244.266
22.6345	259.174
27.9221	268.349
34.4156	276.376
37.2913	278.67
38.4972	280.963
