Adsorption isotherm of Hydrogen on (Cu6(H2O)6(tatb)4*DMA*12H2O)
DOI: 10.1021/Ar100112y
Adsorbate Hydrogen: InChIKey UFHFLCQGNIYNRP-UHFFFAOYSA-N
Temperature: 298 K
Tabular data in the source: 0
pressure (bar)	uptake (wt%)
1.93887	0.0366972
4.84585	0.0366972
8.14042	0.0366972
10.4669	0.0733945
12.4049	0.0733945
14.7313	0.110092
17.0578	0.146789
19.771	0.146789
22.6798	0.220183
25.1982	0.183486
27.1371	0.220183
30.045	0.256881
32.759	0.293578
34.697	0.293578
37.0226	0.293578
39.7367	0.330275
42.257	0.366972
44.7763	0.366972
47.4895	0.366972
50.0098	0.40367
