Adsorption isotherm of Nitrogen on PCN-12
DOI: 10.1021/Ar100112y
Adsorbate Nitrogen: InChIKey IJGRMHOSHXDMSA-UHFFFAOYSA-N
Temperature: 77 K
Tabular data in the source: 0
pressure (bar)	uptake (cm3(STP)/g)
0.000832461	421.687
0.00103495	378.313
0.00121494	339.759
0.00131619	318.072
0.00158618	260.241
0.0020924	151.807
0.00268863	24.0964
0.00517476	91.5663
0.00631096	448.193
0.0117557	481.928
0.0172117	513.253
0.0227352	530.12
0.0338722	544.578
0.0506227	556.627
0.0785889	566.265
0.100975	571.084
0.134555	578.313
0.154163	578.313
0.17935	583.133
0.198958	583.133
0.23535	587.952
0.274544	592.771
0.319361	592.771
0.355754	597.59
0.394958	600
0.439765	602.41
0.47898	602.41
0.498566	607.229
0.523787	604.819
0.548986	607.229
0.602207	607.229
0.677815	612.048
0.739417	616.867
0.789837	616.867
0.831854	616.867
0.887854	621.687
0.924257	624.096
0.966252	628.916
0.988649	631.325
