Adsorption isotherm of Nitrogen on [Cu2(C2v-mdip)(H2O)2]*3DMSO
DOI: 10.1021/Ar100112y
Adsorbate Nitrogen: InChIKey IJGRMHOSHXDMSA-UHFFFAOYSA-N
Temperature: 77 K
Tabular data in the source: 0
pressure (bar)	uptake (cm3(STP)/g)
0.00146243	286.747
0.00395982	351.807
0.00655845	395.181
0.0120707	414.458
0.0231852	433.735
0.0427593	440.964
0.0623334	448.193
0.0875097	455.422
0.11272	455.422
0.132316	457.831
0.154714	460.241
0.177123	460.241
0.196731	460.241
0.238736	462.651
0.277952	462.651
0.317168	462.651
0.359173	465.06
0.395588	465.06
0.437605	465.06
0.47961	467.47
0.521616	469.88
0.560854	465.06
0.597269	465.06
0.642087	465.06
0.661672	469.88
0.698098	467.47
0.720507	467.47
0.737313	467.47
0.77933	467.47
0.790523	469.88
0.835341	469.88
0.868944	472.289
0.902557	472.289
0.933381	469.88
0.964182	472.289
0.992182	474.699
