Adsorption isotherm of Hydrogen on PCN-12
DOI: 10.1021/Ar100112y
Adsorbate Hydrogen: InChIKey UFHFLCQGNIYNRP-UHFFFAOYSA-N
Temperature: 77 K
Tabular data in the source: 0
pressure (bar)	uptake (wt%)
0.00310855	0.225564
0.0062171	0.327068
0.0124342	0.496241
0.0186513	0.642857
0.0217598	0.778195
0.0310855	0.890977
0.0373026	0.969925
0.0466282	1.07143
0.0559539	1.17293
0.0683881	1.26316
0.0746052	1.37594
0.0932565	1.45489
0.118125	1.64662
0.146102	1.7594
0.167862	1.83835
0.183404	1.93985
0.211381	2.00752
0.239358	2.09774
0.273552	2.2218
0.329506	2.33459
0.376134	2.42481
0.425871	2.51504
0.466282	2.58271
0.522236	2.65038
0.565756	2.70677
0.612384	2.75188
0.66523	2.81955
0.711858	2.85338
0.74916	2.8985
0.823766	2.96617
0.854851	2.98872
0.904588	3.01128
0.94189	3.03383
0.982302	3.05639
1.02271	3.07895
1.06934	3.09023
1.10353	3.12406
1.15949	3.13534
