Adsorption isotherm of Isoflurane on FX983
DOI: 10.1007/s10450-020-00230-7
Article source: Figure 1
Adsorbate Isoflurane: InChIKey PIWKPBJCKXDKJR-UHFFFAOYSA-N
Kind: experiment
Temperature: 293 K
Tabular data in the source: 0
pressure (bar)	uptake (mmol/g)
0.001247	2.89565
0.00274	3.50435
0.007226	4.0087
0.010965	4.26087
0.020185	4.58261
0.028659	4.77391
0.048097	4.93043
0.07875	5.06087
0.106911	5.11304
0.137813	5.16522
0.168714	5.2
0.196875	5.21739
0.224538	5.24348
0.256435	5.26957
0.300545	5.32174
0.005232	3.83478
0.017196	4.49565
0.038628	4.87826
0.134823	5.15652
0.212575	5.24348
