Adsorption isotherm of Isoflurane on FX871
DOI: 10.1007/s10450-020-00230-7
Article source: Figure 1
Adsorbate Isoflurane: InChIKey PIWKPBJCKXDKJR-UHFFFAOYSA-N
Kind: experiment
Temperature: 293 K
Tabular data in the source: 0
pressure (bar)	uptake (mmol/g)
0.000249	2.42609
0.004237	2.53043
0.013208	2.91304
0.028659	3.12174
0.059311	3.22609
0.114386	3.33043
0.169461	3.38261
0.279613	3.45217
0.308769	3.47826
0.008971	2.72174
0.080744	3.26957
0.142049	3.34783
0.197622	3.38261
0.23625	3.42609
0.292821	3.47826
