Adsorption isotherm of Isoflurane on FX1078
DOI: 10.1007/s10450-020-00230-7
Article source: Figure 1
Adsorbate Isoflurane: InChIKey PIWKPBJCKXDKJR-UHFFFAOYSA-N
Kind: experiment
Temperature: 293 K
Tabular data in the source: 0
pressure (bar)	uptake (mmol/g)
0.001247	2.23478
0.004237	2.93043
0.007226	3.35652
0.013208	3.84348
0.027912	4.61739
0.058814	5.66957
0.089715	6.25217
0.118872	6.49565
0.157251	6.63478
0.208089	6.72174
0.263913	6.82609
0.301046	6.87826
0.001745	2.32174
0.022179	4.35652
0.072022	5.96522
0.145539	6.58261
