Adsorption isotherm of Isoflurane on FX756
DOI: 10.1007/s10450-020-00230-7
Article source: Figure 1
Adsorbate Isoflurane: InChIKey PIWKPBJCKXDKJR-UHFFFAOYSA-N
Kind: experiment
Temperature: 293 K
Tabular data in the source: 0
pressure (bar)	uptake (mmol/g)
0.000747	1.34783
0.001994	1.51304
0.00648	1.67826
0.016197	1.74783
0.038628	1.82609
0.078501	1.86957
0.131333	1.90435
0.186656	1.95652
0.239488	1.97391
0.29581	2.0087
0.029156	1.8
0.127594	1.89565
