Adsorption isotherm of Nitrogen, Oxygen on Zeolite 5A
DOI: 10.1007/s10450-019-00159-6
Article source: Figure 5
Adsorbate Nitrogen: InChIKey IJGRMHOSHXDMSA-UHFFFAOYSA-N
Adsorbate Oxygen: InChIKey MYMOFIZGZYHOMD-UHFFFAOYSA-N
Kind: experiment
Temperature: 296 K
Tabular data in the source: 0
pressure (bar)	Nitrogen fraction	Nitrogen uptake (mmol/g)	Oxygen fraction	Oxygen uptake (mmol/g)	total uptake (mmol/g)
0.190174	0.8	0.154567	0.2	0.009368	
0.372425	0.8	0.266979	0.2	0.016862	
0.982567	0.8	0.477752	0.2	0.037471	
1.61648	0.8	0.637002	0.2	0.054333	
5.45959	0.8	1.31616	0.2	0.133958	
9.04913	0.8	1.8548	0.2	0.192037	
