Adsorption isotherm of Nitrogen, Oxygen on Zeolite 5A
DOI: 10.1007/s10450-019-00159-6
Article source: Figure 5
Adsorbate Nitrogen: InChIKey IJGRMHOSHXDMSA-UHFFFAOYSA-N
Adsorbate Oxygen: InChIKey MYMOFIZGZYHOMD-UHFFFAOYSA-N
Kind: experiment
Temperature: 296 K
Tabular data in the source: 0
pressure (bar)	Nitrogen fraction	Nitrogen uptake (mmol/g)	Oxygen fraction	Oxygen uptake (mmol/g)	total uptake (mmol/g)
0.150794	0.8	0.173302	0.2	0.009368	0.169811
0.373016	0.8	0.290398	0.2	0.020609	0.301887
0.936508	0.8	0.505855	0.2	0.040281	0.537736
2	0.8	0.833724	0.2	0.078689	0.910377
5.03175	0.8	1.31616	0.2	0.140515	1.45283
9.07936	0.8	1.70023	0.2	0.216393	1.91038
9.09524	0.8	1.66276	0.2	0.187354	1.84434
