Adsorption isotherm of Nitrogen on Zeolite 5A
DOI: 10.1007/s10450-019-00159-6
Article source: Figure 1
Adsorbate Nitrogen: InChIKey IJGRMHOSHXDMSA-UHFFFAOYSA-N
Kind: experiment
Temperature: 318 K
Tabular data in the source: 0
pressure (bar)	uptake (mmol/g)
0.15625	0.066176
0.3125	0.176471
0.664062	0.330882
1.48438	0.558824
2.69531	0.838235
4.33594	1.10294
6.91406	1.41176
10.1562	1.69485
13.8672	1.93382
17.8516	2.11029
