Adsorption isotherm of Oxygen on Zeolite 5A
DOI: 10.1007/s10450-019-00159-6
Article source: Figure 2
Adsorbate Oxygen: InChIKey MYMOFIZGZYHOMD-UHFFFAOYSA-N
Kind: experiment
Temperature: 318 K
Tabular data in the source: 0
pressure (bar)	uptake (mmol/g)
0.139167	0.034913
0.535703	0.0798
1.01162	0.137157
2.00295	0.249377
3.33138	0.401496
4.91704	0.55611
7.45362	0.780549
10.5839	1.01746
14.1296	1.24938
17.9516	1.45387
