Adsorption isotherm of Oxygen on Zeolite 5A
DOI: 10.1007/s10450-019-00159-6
Article source: Figure 2
Adsorbate Oxygen: InChIKey MYMOFIZGZYHOMD-UHFFFAOYSA-N
Kind: experiment
Temperature: 296 K
Tabular data in the source: 0
pressure (bar)	uptake (mmol/g)
0.179028	0.049875
0.417354	0.097257
0.893957	0.189526
1.88643	0.359102
3.23558	0.558603
5.33784	0.82793
7.83625	1.1222
10.7693	1.38653
13.8798	1.62593
17.6429	1.84788
