Adsorption isotherm of Nitrogen on Zeolite 5A
DOI: 10.1007/s10450-019-00159-6
Article source: Figure 1
Adsorbate Nitrogen: InChIKey IJGRMHOSHXDMSA-UHFFFAOYSA-N
Kind: experiment
Temperature: 296 K
Tabular data in the source: 0
pressure (bar)	uptake (mmol/g)
0.039062	0.088235
0.234375	0.227941
0.507812	0.397059
1.13281	0.691176
2.30469	1.02941
3.82812	1.36029
6.36719	1.70956
9.60938	2.01471
13.3984	2.25368
17.3828	2.44118
