Adsorption isotherm of Nitrogen, Oxygen on Zeolite 5A
DOI: 10.1007/s10450-019-00159-6
Article source: Figure 4
Adsorbate Nitrogen: InChIKey IJGRMHOSHXDMSA-UHFFFAOYSA-N
Adsorbate Oxygen: InChIKey MYMOFIZGZYHOMD-UHFFFAOYSA-N
Kind: experiment
Temperature: 296 K
Tabular data in the source: 0
pressure (bar)	Nitrogen fraction	Nitrogen uptake (mmol/g)	Oxygen fraction	Oxygen uptake (mmol/g)	total uptake (mmol/g)
9.15	0.999	1.943	0.001	0	1.99
9.15	0.93	1.856	0.07	0.087	1.953
9.15	0.804	1.651	0.196	0.187	1.848
9.15	0.796	1.689	0.204	0.222	1.918
9.15	0.778	1.636	0.222	0.229	1.87
9.15	0.622	1.46	0.378	0.351	1.818
9.15	0.424	1.136	0.576	0.575	1.719
9.15	0.415	1.088	0.585	0.605	1.699
9.15	0.239	0.745	0.761	0.78	1.529
9.15	0.183	0.633	0.817	0.884	1.522
9.15	0.002	0	0.998	1.25	1.255
