Adsorption isotherm of Nitrogen, Oxygen on Zeolite 5A
DOI: 10.1007/s10450-019-00159-6
Article source: Figure 5
Adsorbate Nitrogen: InChIKey IJGRMHOSHXDMSA-UHFFFAOYSA-N
Adsorbate Oxygen: InChIKey MYMOFIZGZYHOMD-UHFFFAOYSA-N
Kind: experiment
Temperature: 296 K
Tabular data in the source: 0
pressure (bar)	Nitrogen fraction	Nitrogen uptake (mmol/g)	Oxygen fraction	Oxygen uptake (mmol/g)	total uptake (mmol/g)
0.210342	0.8	0.172589	0.2	0.009137	
0.399649	0.8	0.276142	0.2	0.016244	
0.436459	0.8	0.286294	0.2	0.018782	
0.999124	0.8	0.501523	0.2	0.039594	
2.06135	0.8	0.834518	0.2	0.078173	
5.08764	0.8	1.31167	0.2	0.139594	
