Adsorption isotherm of Nitrogen on BP-COF-3
DOI: 10.1126/science.abd6406
Article source: Figure S71
Adsorbate Nitrogen: InChIKey IJGRMHOSHXDMSA-UHFFFAOYSA-N
Kind: experiment
Temperature: 77 K
Tabular data in the source: 0
pressure (bar)	uptake (cm3(STP)/g)
0.000436	12.2449
0	22.6531
0	33.6735
0.000436	46.5306
0.001745	57.551
0.001745	69.7959
0.003927	77.1429
0.005673	83.8775
0.006109	84.4898
0.007855	91.8367
0.017455	105.918
0.0288	114.49
0.038837	122.449
0.051055	131.02
0.059783	135.918
0.069383	138.367
0.079419	144.49
0.090765	147.551
0.100801	153.061
0.122183	157.959
0.145747	165.918
0.166693	172.041
0.190257	180
0.213385	185.51
0.234767	191.633
0.257894	195.918
0.281458	201.429
0.29324	207.551
0.30284	210.612
0.410187	235.102
0.522771	264.49
0.629245	294.49
0.736155	333.061
0.849175	401.02
0.96394	507.551
1.0067	553.469
0.051928	131.02
0.105165	153.061
0.153602	168.98
0.178475	176.939
0.20553	183.061
0.233021	190.408
0.262258	199.592
0.289313	203.878
0.316804	212.449
0.345605	220.408
0.373096	226.531
0.400151	234.49
0.427206	243.673
0.454261	254.082
0.472152	259.592
0.509243	273.061
0.606117	302.449
0.711282	346.531
0.808593	434.082
0.913321	491.02
1.0067	554.082
