Adsorption isotherm of Nitrogen on BP-COF-5
DOI: 10.1126/science.abd6406
Article source: Figure S75
Adsorbate Nitrogen: InChIKey IJGRMHOSHXDMSA-UHFFFAOYSA-N
Kind: experiment
Temperature: 77 K
Tabular data in the source: 0
pressure (bar)	uptake (cm3(STP)/g)
0.000458	4.49679
0.000458	10.5996
0.000916	16.06
0.000916	21.1991
0.000916	27.6231
0.000916	33.7259
0.000916	39.8287
0.000916	45.6103
0.000916	52.0343
0.000916	57.8158
0.000916	64.2398
0.000916	70.3426
0.001374	76.1242
0.000916	82.227
0.000916	88.0086
0.001374	93.4689
0.001374	99.5717
0.000916	104.39
0.000916	109.529
0.002747	117.88
0.003663	123.34
0.005036	128.48
0.008242	131.692
0.009157	135.546
0.012362	141.006
0.020146	141.328
0.029761	144.218
0.039376	146.467
0.05357	149.036
0.05998	150.642
0.070511	151.927
0.080584	154.818
0.090199	156.103
0.100272	157.388
0.146516	161.563
0.201002	167.024
0.251824	171.199
0.304021	175.054
0.354844	179.55
0.405666	183.405
0.456031	187.58
0.506854	191.756
0.557219	195.61
0.607584	198.501
0.658406	202.355
0.708771	205.246
0.759594	209.422
0.809959	212.313
0.860782	215.846
0.911147	221.949
0.961969	228.373
1.00272	253.426
0.001374	122.377
0.003205	129.443
0.005952	133.619
0.008242	136.831
0.009615	139.4
0.010989	141.006
0.022435	147.752
0.033882	150.964
0.041665	153.533
0.051281	154.818
0.060896	157.388
0.070511	158.672
0.080126	160.278
0.089741	161.242
0.101646	163.169
0.152468	168.308
0.202833	174.09
0.253656	177.944
0.304479	182.12
0.354844	186.296
0.405208	190.15
0.456031	195.931
0.506854	199.786
0.557219	202.677
0.607584	205.567
0.658406	207.816
0.708771	211.028
0.759594	213.597
0.809959	215.846
0.866276	220.664
0.902905	223.555
0.957849	229.979
1.00272	253.426
