Adsorption isotherm of Hydrogen on BP-COF-2
DOI: 10.1126/science.abd6406
Article source: Figure S69
Adsorbate Hydrogen: InChIKey UFHFLCQGNIYNRP-UHFFFAOYSA-N
Kind: experiment
Temperature: 87 K
Tabular data in the source: 0
pressure (bar)	uptake (cm3(STP)/g)
0.001428	0
0.005711	0.916808
0.009043	1.75722
0.018561	3.74363
0.029508	5.34805
0.039026	6.57046
0.049021	7.86927
0.060443	9.09168
0.070437	10.0085
0.080432	11.3073
0.08995	12.2241
0.099945	13.2173
0.146586	16.961
0.198938	20.399
0.250338	22.8438
0.300786	25.365
0.349807	27.5042
0.400255	29.3379
0.4488	31.3243
0.499724	32.8523
0.550172	34.3803
0.598717	35.6791
0.649641	37.2835
0.700566	38.5059
0.74911	39.4227
0.800034	40.7216
0.850959	41.944
0.901407	42.8608
0.950428	43.854
0.998972	44.8472
0.001428	0.229202
0.006187	0.764007
0.01047	1.52801
0.021417	3.74363
0.032363	5.42445
0.040454	6.57046
0.050448	7.71647
0.059967	8.70968
0.070437	10.0085
0.07948	10.8489
0.08995	11.6893
0.099945	12.7589
0.150393	16.8081
0.199414	19.9406
0.250338	22.9202
0.30031	25.365
0.350283	27.5806
0.400255	29.4907
0.450228	31.4007
0.500676	33.0815
0.550648	34.6095
0.600621	36.2139
0.650593	37.4363
0.700566	38.7351
0.750062	39.9576
0.800034	41.18
0.850007	42.0968
0.89522	42.9372
0.945192	43.7776
0.999924	44.7708
