Adsorption isotherm of Argon on BP-COF-1
DOI: 10.1126/science.abd6406
Article source: Figure S63
Adsorbate Argon: InChIKey XKRFYHLGVUSROY-UHFFFAOYSA-N
Kind: experiment
Temperature: 87 K
Tabular data in the source: 0
pressure (bar)	uptake (cm3(STP)/g)
0.000848	3.96825
0.001271	8.99471
0.000848	14.5503
0.001271	19.8413
0.000848	24.8677
0.001271	29.6296
0.001271	33.8624
0.001271	38.6243
0.001271	43.6508
0.001271	48.6772
0.001271	53.7037
0.001271	58.7302
0.001271	63.4921
0.000848	68.5185
0.001271	73.545
0.001271	78.5714
0.001271	83.5979
0.001271	88.3598
0.001271	92.5926
0.002966	97.09
0.004662	101.323
0.006357	106.349
0.008476	108.995
0.010594	111.111
0.020341	118.783
0.030088	123.81
0.039411	126.984
0.05382	131.217
0.061448	133.333
0.070771	135.714
0.080518	138.095
0.089841	139.153
0.101283	141.534
0.148746	149.471
0.201294	156.614
0.253418	162.434
0.304695	167.725
0.356396	173.545
0.40513	178.307
0.45556	183.333
0.505989	189.418
0.556843	195.503
0.607272	201.587
0.657701	207.672
0.708131	213.757
0.758984	222.222
0.811532	229.365
0.862386	236.243
0.910696	245.238
0.961549	258.466
1.00393	355.556
0.000848	94.709
0.002543	99.2064
0.002966	103.175
0.005509	107.937
0.007628	109.259
0.008899	112.698
0.010594	113.757
0.02246	122.751
0.033902	127.778
0.041954	130.159
0.051277	132.275
0.061024	135.979
0.070771	137.302
0.080941	139.683
0.092383	142.063
0.101706	143.386
0.15256	151.852
0.202989	157.937
0.253842	164.021
0.305967	168.783
0.348768	173.545
0.409368	182.54
0.455984	199.471
0.506413	206.614
0.556843	212.698
0.608967	217.725
0.658125	222.222
0.708555	225.926
0.761103	229.63
0.811532	234.392
0.852215	238.36
0.903068	245.238
0.955616	258.73
1.00393	355.556
