Adsorption isotherm of Nitrogen on BP-COF-6
DOI: 10.1126/science.abd6406
Article source: Figure S77
Adsorbate Nitrogen: InChIKey IJGRMHOSHXDMSA-UHFFFAOYSA-N
Kind: experiment
Temperature: 77 K
Tabular data in the source: 0
pressure (bar)	uptake (cm3(STP)/g)
0.081677	-0.623819
0.132498	0.415879
0.157909	0.415879
0.185135	0.20794
0.213268	1.66352
0.240947	1.24764
0.268173	1.24764
0.296306	2.0794
0.323532	2.0794
0.351212	2.28733
0.378437	3.32703
0.406117	3.32703
0.43425	3.11909
0.461476	4.15879
0.506852	3.74291
0.609402	4.99055
0.690172	5.82231
0.790453	7.69376
0.894818	9.56522
1.00327	17.4669
0.01089	0.415879
0.040385	0.20794
0.071694	1.66352
0.101189	1.45558
0.125238	1.45558
0.146565	1.45558
0.168346	1.45558
0.191941	2.49527
0.213722	2.49527
0.237317	2.49527
0.259098	2.0794
0.282694	2.28733
0.292223	2.28733
0.304474	3.32703
0.43425	4.15879
0.524549	4.99055
0.632998	5.82231
0.743262	6.65406
0.853526	7.69376
0.961521	11.2287
1.00327	17.4669
