Adsorption isotherm of Hydrogen on BP-COF-1
DOI: 10.1126/science.abd6406
Article source: Figure S65
Adsorbate Hydrogen: InChIKey UFHFLCQGNIYNRP-UHFFFAOYSA-N
Kind: experiment
Temperature: 77 K
Tabular data in the source: 0
pressure (bar)	uptake (cm3(STP)/g)
0.000434	0.102362
0.001736	2.35433
0.00217	4.09449
0.003472	6.03937
0.003472	7.88189
0.005641	9.11024
0.006943	11.1575
0.008245	13.2047
0.009113	14.6378
0.018225	25.6929
0.029942	34.4961
0.038187	38.6929
0.049903	43.1968
0.05945	46.8819
0.068996	50.0551
0.078977	52.8189
0.088958	55.5827
0.10024	57.8346
0.1432	66.2283
0.200046	74.0079
0.248648	80.0472
0.299419	85.063
0.35019	89.6693
0.398791	93.7638
0.449562	97.9606
0.500333	101.646
0.548934	105.228
0.599705	108.402
0.650476	111.575
0.698643	114.85
0.750282	118.126
0.79845	121.504
0.848787	124.063
0.899992	126.929
0.949027	130.102
0.999364	132.764
0.000434	1.12598
0.003472	5.32283
0.004339	7.47244
0.005207	8.70079
0.006509	11.1575
0.008245	13.9213
0.011282	16.1732
0.021697	27.5354
0.030376	33.3701
0.041658	39.3071
0.050337	43.2992
0.060318	46.7795
0.069864	49.9528
0.080279	52.9213
0.091127	55.378
0.10024	57.4252
0.149709	66.8425
0.20048	73.9055
0.250817	79.8425
0.300287	84.8583
0.350624	89.5669
0.399659	93.8661
0.449996	97.8583
0.500333	101.646
0.550236	105.228
0.600139	108.709
0.650042	112.087
0.699511	115.465
0.749848	118.228
0.800185	121.402
0.850089	124.37
0.889143	126.622
0.939914	129.488
0.99893	132.764
