Adsorption isotherm of Nitrogen on BP-COF-2
DOI: 10.1126/science.abd6406
Article source: Figure S67
Adsorbate Nitrogen: InChIKey IJGRMHOSHXDMSA-UHFFFAOYSA-N
Kind: experiment
Temperature: 77 K
Tabular data in the source: 0
pressure (bar)	uptake (cm3(STP)/g)
0.000927	2.34528
0.000927	7.32899
0.00139	12.1661
0.000927	16.4169
0.000927	21.4007
0.000463	26.2378
0.000463	31.2215
0.000463	36.2052
0.000463	41.0423
0.000463	45.4397
0.000463	50.2769
0.000463	55.2606
0.000463	59.658
0.000463	63.7622
0.000463	68.013
0.00278	72.557
0.00278	75.0489
0.00278	77.8339
0.004633	82.0847
0.00695	87.3616
0.007413	91.0261
0.009266	93.3713
0.019922	102.313
0.031968	107.296
0.039844	110.375
0.05328	114.039
0.060693	115.212
0.069959	117.557
0.081079	119.463
0.091735	120.928
0.101001	122.101
0.146405	127.378
0.200611	131.922
0.252965	134.853
0.303465	138.371
0.353966	140.57
0.404466	143.062
0.454966	144.821
0.505467	146.726
0.555967	147.899
0.606467	149.951
0.658821	151.27
0.709785	152.296
0.759822	152.883
0.810785	153.909
0.861286	154.642
0.911786	155.961
0.962286	157.866
1.00676	160.798
0.00278	74.7557
0.002317	81.645
0.00417	85.3094
0.004633	87.8013
0.006486	90.1466
0.006486	92.1987
0.008803	94.8371
0.010193	96.7427
0.021775	105.537
0.031505	109.788
0.043551	113.453
0.050964	115.945
0.060693	117.85
0.072276	119.756
0.082005	121.661
0.091271	122.834
0.101464	124.739
0.151964	129.577
0.204781	133.974
0.252965	136.906
0.305319	139.691
0.353966	141.889
0.404466	144.381
0.45682	149.218
0.507783	152.883
0.558284	153.469
0.608784	154.202
0.659284	154.788
0.709785	154.642
0.760285	155.375
0.810322	155.961
0.860822	157.134
0.900203	157.866
0.952557	159.039
1.00676	160.798
