Adsorption isotherm of Nitrogen on BP-COF-1
DOI: 10.1126/science.abd6406
Article source: Figure S61
Adsorbate Nitrogen: InChIKey IJGRMHOSHXDMSA-UHFFFAOYSA-N
Kind: experiment
Temperature: 77 K
Tabular data in the source: 0
pressure (bar)	uptake (cm3(STP)/g)
0.000872	3.67816
0.000872	9.88506
0.001309	16.092
0.000872	22.069
0.000872	29.4253
0.000872	35.6322
0.000872	41.6092
0.000872	48.9655
0.000872	54.9425
0.000872	61.1494
0.000872	67.1264
0.000872	73.3333
0.001309	77.931
0.001309	82.069
0.000872	85.977
0.000872	90.3448
0.000436	93.7931
0.002617	98.3908
0.002617	102.069
0.004798	104.828
0.010468	109.425
0.020501	115.402
0.030097	119.54
0.039693	121.609
0.051469	123.908
0.060629	125.517
0.071098	126.897
0.080694	127.816
0.09029	128.736
0.102067	129.885
0.123439	131.954
0.146557	134.023
0.170111	136.092
0.191484	137.931
0.214601	139.08
0.235974	140.46
0.259528	142.069
0.281337	143.218
0.292678	143.448
0.304019	144.138
0.413064	150.575
0.52429	155.632
0.6329	160.46
0.741945	166.667
0.852735	177.011
0.960036	203.448
0.998856	255.862
0.051469	119.54
0.082875	124.368
0.133472	129.885
0.158334	131.724
0.185377	133.793
0.212857	135.862
0.2399	137.701
0.267379	140
0.296604	140.92
0.343275	143.908
0.370318	146.207
0.397361	147.126
0.427022	149.195
0.454065	151.264
0.481545	152.184
0.506407	153.333
0.588409	158.391
0.689167	164.598
0.792106	171.954
0.901587	187.126
0.998856	256.092
