Adsorption isotherm of Nitrogen on BP-COF-4
DOI: 10.1126/science.abd6406
Article source: Figure S73
Adsorbate Nitrogen: InChIKey IJGRMHOSHXDMSA-UHFFFAOYSA-N
Kind: experiment
Temperature: 77 K
Tabular data in the source: 0
pressure (bar)	uptake (cm3(STP)/g)
0.000453	8.6087
0.000453	18.1739
0.000453	26.7826
0.000453	35.3913
0.000453	43.5217
0.000905	52.1304
0.000905	60.7391
0.000905	68.8696
0.000905	76.0435
0.000905	84.1739
0	91.8261
0.002715	97.5652
0.003168	103.304
0.004525	107.609
0.004525	114.304
0.006336	115.739
0.010409	122.435
0.019912	132.478
0.029868	138.696
0.039371	142.522
0.051138	146.826
0.061094	148.739
0.070597	153.043
0.082363	154.957
0.091867	156.87
0.10137	159.261
0.123092	163.087
0.148435	167.391
0.169705	169.783
0.192785	174.087
0.216317	176
0.237134	177.435
0.258404	179.826
0.282389	184.13
0.29325	184.13
0.305016	186.043
0.408196	196.087
0.52088	206.13
0.629944	218.565
0.739007	234.826
0.853501	259.696
0.960302	348.174
1.00103	528.478
0.055211	146.348
0.10318	158.783
0.152055	167.87
0.179208	169.304
0.206361	173.609
0.233514	177.435
0.261119	179.348
0.287819	183.652
0.316782	186.043
0.344387	187.957
0.37154	192.261
0.399145	194.174
0.426298	198.478
0.455261	202.783
0.482414	207.087
0.509567	208.522
0.596908	219.043
0.701899	231
0.802816	252.043
0.91731	305.13
1.00103	529.435
