Adsorption isotherm of Hydrogen on BP-COF-2
DOI: 10.1126/science.abd6406
Article source: Figure S69
Adsorbate Hydrogen: InChIKey UFHFLCQGNIYNRP-UHFFFAOYSA-N
Kind: experiment
Temperature: 77 K
Tabular data in the source: 0
pressure (bar)	uptake (cm3(STP)/g)
0.000476	0.076401
0.001428	1.06961
0.002856	2.06282
0.004759	3.43803
0.006187	4.43124
0.007615	5.57725
0.019513	10.6197
0.029983	14.1341
0.039502	16.5789
0.049021	19.1002
0.060919	21.3158
0.070437	23.1494
0.080432	25.0594
0.090426	26.6638
0.099945	28.1919
0.144682	33.8455
0.200841	39.8048
0.249862	44.1596
0.300786	47.9032
0.349331	51.4941
0.399779	54.4737
0.451179	57.6825
0.499724	60.5093
0.550172	62.9542
0.601097	65.4754
0.650117	67.6146
0.700566	70.2122
0.75149	72.4278
0.80051	74.1851
0.850959	76.4007
0.899503	78.6163
0.949952	80.5263
0.998972	82.3599
0.001428	1.29881
0.003807	2.67402
0.005711	3.89644
0.008091	4.88964
0.009994	5.57725
0.019989	10.3905
0.030459	13.7521
0.041882	16.6553
0.049972	18.7182
0.059967	20.9338
0.069961	22.8438
0.079956	24.601
0.090426	26.2054
0.099945	27.9626
0.149917	34.3039
0.200366	39.4227
0.250338	43.854
0.300786	47.7504
0.350283	51.3413
0.400255	54.4737
0.450228	57.5297
0.5002	60.2801
0.550172	62.8778
0.600621	65.399
0.650117	68.073
0.699614	70.2886
0.750062	72.3514
0.80051	74.7199
0.850959	76.7827
0.892364	78.3871
0.941861	80.2971
1.0004	82.3599
