Adsorption isotherm of Hydrogen on BP-COF-1
DOI: 10.1126/science.abd6406
Article source: Figure S65
Adsorbate Hydrogen: InChIKey UFHFLCQGNIYNRP-UHFFFAOYSA-N
Kind: experiment
Temperature: 87 K
Tabular data in the source: 0
pressure (bar)	uptake (cm3(STP)/g)
0.000434	0.102362
0.003472	1.94488
0.009113	4.09449
0.020395	9.51968
0.029942	13.7165
0.039922	16.378
0.049469	19.1417
0.05945	22.0079
0.06943	24.2598
0.078977	26.2047
0.09026	27.9449
0.10024	29.7874
0.144936	36.2362
0.199612	41.7638
0.248214	45.9606
0.299419	49.2362
0.349756	52
0.400961	53.7402
0.449996	55.9921
0.500333	57.4252
0.551104	59.2677
0.599705	60.7008
0.650042	61.5197
0.700379	63.0551
0.749848	63.874
0.800619	64.7953
0.851824	65.7165
0.900426	66.6378
0.950763	67.5591
0.999364	67.9685
0.002604	0.818898
0.009981	4.6063
0.020829	9.62205
0.029942	13.2047
0.04079	16.5827
0.050337	19.3465
0.059884	21.4961
0.070298	23.9528
0.080279	26.1024
0.089826	28.0472
0.099806	29.7874
0.149709	36.748
0.200046	41.7638
0.250383	45.7559
0.300287	48.9291
0.35019	51.5905
0.400093	53.8425
0.449996	55.9921
0.499899	57.8346
0.549802	59.2677
0.599705	60.7008
0.649608	62.1339
0.699511	63.0551
0.749848	64.1811
0.799751	65.2047
0.849655	66.0236
0.892615	66.6378
0.94382	67.4567
0.999798	68.2756
