Adsorption isotherm of Nitrogen on OBDCA
DOI: 10.1016/j.seppur.2021.119660
Article source: Figure 6A
Adsorbate Nitrogen: InChIKey IJGRMHOSHXDMSA-UHFFFAOYSA-N
Kind: experiment
Temperature: 77 K
Tabular data in the source: 0
pressure (bar)	uptake (cm3(STP)/g)
-0.001967	0.031825
-0.001291	0.140086
0.004116	0.199137
0.009523	0.218821
0.010874	0.218821
0.020336	0.218821
0.03926	0.218821
0.050074	0.218821
0.058184	0.238505
0.079811	0.258188
0.091977	0.258188
0.105494	0.238505
0.11428	0.277872
0.128473	0.297556
0.146045	0.297556
0.158211	0.297556
0.175107	0.31724
0.192003	0.31724
0.206872	0.31724
0.221741	0.336924
0.23661	0.336924
0.25283	0.336924
0.269051	0.356607
0.28392	0.366449
0.300816	0.376291
0.33934	0.395975
0.375836	0.395975
0.41098	0.395975
0.451531	0.415659
0.490731	0.435343
0.527227	0.455026
0.562372	0.455026
0.60022	0.514078
0.638067	0.514078
0.675915	0.533762
0.71106	0.573129
0.750259	0.592813
0.788107	0.632181
0.823252	0.691232
0.861099	0.7306
0.896244	0.809335
0.934768	0.927438
0.973291	1.16364
1.00573	2.38404
1.00708	2.38404
0.98005	1.41953
0.94085	1.00617
0.905706	0.868386
0.87732	0.789651
0.847582	0.750283
0.835417	0.710916
0.807031	0.671548
0.777293	0.651864
0.746204	0.612497
0.717818	0.592813
0.686729	0.573129
0.658343	0.533762
0.628605	0.533762
0.60022	0.494394
0.56913	0.484552
0.540068	0.47471
0.508979	0.455026
0.479917	0.415659
0.451531	0.415659
0.421794	0.395975
0.390705	0.395975
0.359615	0.376291
0.329878	0.356607
0.302168	0.356607
0.271754	0.31724
0.242017	0.31724
0.212279	0.297556
0.182541	0.277872
0.152804	0.277872
0.123066	0.258188
0.093329	0.238505
0.064943	0.218821
0.033853	0.179453
0.004116	0.140086
