Adsorption isotherm of Nitrogen on SDS-OBDCA
DOI: 10.1016/j.seppur.2021.119660
Article source: Figure 6A
Adsorbate Nitrogen: InChIKey IJGRMHOSHXDMSA-UHFFFAOYSA-N
Kind: experiment
Temperature: 77 K
Tabular data in the source: 0
pressure (bar)	uptake (cm3(STP)/g)
0.010874	0.651864
0.051426	0.829019
0.079811	0.868386
0.114956	0.947121
0.151452	0.986489
0.186596	1.04554
0.221741	1.08491
0.258237	1.12428
0.293381	1.18333
0.328526	1.22269
0.365022	1.26206
0.400167	1.32111
0.435311	1.36048
0.470455	1.39985
0.506952	1.4589
0.540744	1.51795
0.578592	1.59669
0.613737	1.67542
0.648881	1.75416
0.684026	1.87226
0.71917	1.97068
0.752963	2.08878
0.789459	2.24625
0.823252	2.44309
0.858396	2.6793
0.89354	2.99424
0.927333	3.50602
0.965181	4.45084
0.998974	7.97424
1.00573	11.1236
1.00573	11.104
0.967884	5.15945
0.925981	3.80127
0.886782	3.19108
0.850286	2.85645
0.81379	2.60056
0.794866	2.48246
0.759721	2.32499
0.723225	2.1872
0.689432	2.0691
0.652936	1.97068
0.617792	1.85258
0.582647	1.75416
0.546827	1.67542
0.512358	1.59669
0.477214	1.47858
0.440718	1.38016
0.405573	1.32111
0.370429	1.26206
0.333933	1.22269
0.298788	1.16364
0.262968	1.12428
0.228499	1.06522
0.192003	1.02586
0.156859	0.966805
0.121714	0.907754
0.085218	0.848702
0.051426	0.789651
