Adsorption isotherm of Carbon Dioxide on C88H78Mn6N4O22
DOI: 10.1021/Ic2027362
Adsorbate Carbon Dioxide: InChIKey CURLTUGMZLYLDI-UHFFFAOYSA-N
Temperature: 195 K
Tabular data in the source: 0
pressure (bar)	uptake (cm3(STP)/g)
0.00446941	0.00446941
0.0134082	9.86595
0.0245818	11.5818
0.03799	12.4397
0.0513982	13.2976
0.0670412	14.0483
0.0826841	14.6917
0.0871535	15.2279
0.107266	15.6568
0.11397	16.622
0.134082	17.1582
0.214532	19.5174
0.234644	19.9464
0.254756	20.3753
0.268165	20.8043
0.326267	22.0912
0.34191	22.6273
0.362022	22.7346
0.377665	23.2708
0.400012	23.6997
0.406717	24.1287
0.426829	24.1287
0.444707	24.6649
0.462584	25.0938
0.520687	26.3807
0.576554	27.9893
0.596667	28.4182
0.60784	28.9544
0.630187	28.9544
0.643595	29.7051
0.690524	30.8847
0.708402	31.4209
0.724045	31.6354
0.737453	32.0643
0.757565	32.4933
0.777678	33.1367
0.824607	34.6381
0.83578	34.7453
0.849188	35.1743
0.862597	35.9249
0.882709	35.9249
0.893882	36.6756
0.913995	36.6756
0.929638	37.2118
0.94975	37.6408
0.976567	38.2842
