Adsorption isotherm of Nitrogen on C88H78Mn6N4O22
DOI: 10.1021/Ic2027362
Adsorbate Nitrogen: InChIKey IJGRMHOSHXDMSA-UHFFFAOYSA-N
Temperature: 77 K
Tabular data in the source: 0
pressure (bar)	uptake (cm3(STP)/g)
0.0128395	0.107239
0.0556377	0.107239
0.121975	0.214477
0.151934	0.428954
0.162633	0.643432
0.199012	0.857909
0.24181	1.17962
0.308147	1.71582
0.346666	2.25201
0.406583	2.68097
0.436542	3.00268
0.505019	3.64611
0.539258	4.07507
0.599175	4.7185
0.624854	4.93298
0.689052	5.57641
0.71687	5.79088
0.742549	6.00536
0.776788	6.21984
0.832426	6.75603
0.892343	7.07775
0.926582	7.39946
