Adsorption isotherm of Carbon Dioxide on Al-MIL-53-20%NH2
DOI: 10.1039/C1dt11700a
Adsorbate Carbon Dioxide: InChIKey CURLTUGMZLYLDI-UHFFFAOYSA-N
Temperature: 303 K
Tabular data in the source: 0
pressure (bar)	uptake (mmol/g)
0.128205	1.06849
0.448718	1.50685
1.21795	2
3.26923	2.38356
4.67949	2.65753
5.89744	2.82192
7.05128	2.9863
8.39744	3.15068
9.42308	3.94521
10.1923	4.54795
11.0897	5.17808
11.7308	5.61644
12.2436	6.0274
12.9487	6.57534
13.7821	7.12329
14.4872	7.39726
15.1282	7.61644
15.8333	7.91781
18.0128	8.41096
20.1282	8.76712
22.3077	8.84932
24.4872	8.87671
26.6667	9.09589
28.7179	9.47945
30.8333	9.61644
