Adsorption isotherm of Carbon Dioxide on Al-MIL-53-66.6%NH2
DOI: 10.1039/C1dt11700a
Adsorbate Carbon Dioxide: InChIKey CURLTUGMZLYLDI-UHFFFAOYSA-N
Temperature: 303 K
Tabular data in the source: 0
pressure (bar)	uptake (mmol/g)
0.0648107	0.0842701
0.0969251	0.412001
0.124646	0.674186
0.191159	0.936371
0.252094	1.13301
0.416917	1.3515
0.707069	1.50444
1.50381	1.74477
2.48702	1.81032
4.54847	2.13805
6.63331	2.46578
8.97063	3.03385
11.2497	3.68931
13.0824	4.38847
15.9987	5.5683
16.8241	6.02713
19.0789	6.61704
19.5649	7.07587
21.0985	7.4473
21.6359	7.84057
23.9262	8.56158
27.1328	9.12965
32.3568	9.50108
