Adsorption isotherm of Nitrogen on Al-MIL-53-20%NH2
DOI: 10.1039/C1dt11700a
Adsorbate Nitrogen: InChIKey IJGRMHOSHXDMSA-UHFFFAOYSA-N
Temperature: 77 K
Tabular data in the source: 0
pressure (bar)	uptake (cm3(STP)/g)
6.47232e-05	23.5857
7.91152e-05	26.744
0.000106905	34.6956
0.000130674	37.8539
0.000156545	42.6249
0.000191324	48.9974
0.00022459	58.5955
0.000279943	74.6055
0.000322055	85.8163
0.00040143	101.826
0.000490343	121.056
0.000552841	133.88
0.000623318	146.703
0.000688747	161.14
0.000808109	181.988
0.000892935	196.424
0.000986734	209.254
0.00109046	220.476
0.00122956	231.692
0.00147221	247.713
0.00183493	265.331
0.00228781	274.912
0.00257941	287.735
0.00355672	292.467
0.0043473	297.233
0.00542101	303.6
0.00676083	306.752
0.008603	309.899
0.0113962	313.035
0.0139312	314.586
0.0166913	316.143
0.0221101	319.278
0.0270284	320.83
0.0317417	320.785
0.0380286	323.949
0.0455659	323.898
0.0615886	325.421
0.0815831	328.557
0.11028	328.473
0.152073	331.597
0.209719	333.115
0.289197	336.239
0.423573	339.347
0.561088	342.483
0.685949	342.427
0.805392	347.203
0.92649	360.021
0.944955	368.052
