Adsorption isotherm of Carbon Dioxide on Al-MIL-53-100%NH2
DOI: 10.1039/C1dt11700a
Adsorbate Carbon Dioxide: InChIKey CURLTUGMZLYLDI-UHFFFAOYSA-N
Temperature: 303 K
Tabular data in the source: 0
pressure (bar)	uptake (mmol/g)
0.0120147	0.193514
0.0242994	0.412001
0.0479241	0.564942
0.115586	0.805278
0.196028	1.04561
0.30063	1.19856
0.52284	1.28595
0.74355	1.43889
1.29314	1.67923
2.24896	1.85402
4.54847	1.96326
7.15325	2.07251
10.9703	2.22545
17.6922	2.37839
22.1871	2.59688
25.8016	3.14309
28.5328	3.71116
30.7693	4.32293
31.5531	4.78175
34.893	5.13133
37.6281	5.48091
40.5775	5.91788
46.0158	6.39856
