Adsorption isotherm of Carbon Dioxide on Al-MIL-53-66.6%NH2
DOI: 10.1039/C1dt11700a
Adsorbate Carbon Dioxide: InChIKey CURLTUGMZLYLDI-UHFFFAOYSA-N
Temperature: 303 K
Tabular data in the source: 0
pressure (bar)	uptake (mmol/g)
0.192308	0.328767
0.25641	0.876712
0.769231	1.80822
1.41026	2
2.30769	2.10959
2.88462	2.19178
3.52564	2.24658
4.10256	2.35616
5.25641	2.46575
5.83333	2.54795
6.47436	2.57534
7.11538	2.63014
7.69231	2.68493
8.26923	2.76712
8.65385	2.76712
9.23077	2.87671
9.80769	2.9863
10.4487	3.06849
11.0256	3.17808
12.1154	3.36986
12.8205	3.78082
13.2051	4
13.5256	4.24658
13.9103	4.46575
14.1667	4.73973
14.6154	5.15068
15.1282	5.61644
15.5128	5.9726
15.8974	6.38356
16.3462	6.82192
16.859	7.15068
17.5	7.61644
18.0128	7.9726
18.3333	8.30137
19.1026	8.52055
19.9359	8.79452
20.641	8.9863
21.4103	9.15068
22.1154	9.28767
22.6923	9.39726
23.5897	9.56164
24.2949	9.67123
24.8718	9.78082
25.7692	9.91781
26.4744	10.0274
26.9872	10.137
27.9487	10.2192
29.1026	10.3562
30.1923	10.411
30.9615	10.5479
