Adsorption isotherm of Nitrogen on Al-MIL-53-0%NH2
DOI: 10.1039/C1dt11700a
Adsorbate Nitrogen: InChIKey IJGRMHOSHXDMSA-UHFFFAOYSA-N
Temperature: 77 K
Tabular data in the source: 0
pressure (bar)	uptake (cm3(STP)/g)
9.86484e-05	34.7181
0.000106873	41.1243
0.000122962	50.728
0.000144331	61.9333
0.000183497	84.3662
0.000194774	98.8139
0.000210955	111.649
0.000219417	130.923
0.000232863	148.585
0.000247098	169.462
0.000262265	185.517
0.000272904	195.148
0.000289648	211.203
0.000295359	224.055
0.000326483	230.455
0.000399071	233.614
0.000478112	236.777
0.000584427	239.936
0.000700164	243.1
0.000855855	246.258
0.00102534	249.422
0.00202913	262.088
0.00248033	265.246
0.00297153	268.41
0.00363229	271.568
0.00435161	274.732
0.00531925	277.891
0.00637265	281.054
0.00779076	280.998
0.0131332	285.674
0.0160557	285.618
0.0217	288.748
0.0265271	290.299
0.11043	297.937
0.134995	299.488
0.158524	301.05
0.197721	302.595
0.25672	304.13
0.326695	305.669
0.424181	307.204
0.596762	311.93
0.729353	318.302
0.806144	326.31
0.891211	329.496
