Adsorption isotherm of Carbon Dioxide on Al-MIL-53-11.1%NH2
DOI: 10.1039/C1dt11700a
Adsorbate Carbon Dioxide: InChIKey CURLTUGMZLYLDI-UHFFFAOYSA-N
Temperature: 303 K
Tabular data in the source: 0
pressure (bar)	uptake (mmol/g)
0.128205	1.15068
0.576923	1.69863
0.769231	1.83562
1.21795	2.0274
2.30769	2.16438
3.26923	2.30137
4.23077	2.41096
4.87179	2.49315
5.70513	2.71233
6.47436	2.90411
7.30769	3.12329
8.39744	3.39726
8.91026	3.89041
9.42308	4.41096
9.87179	4.84932
10.2564	5.15068
10.5769	5.45205
10.8333	5.80822
11.2179	6.16438
11.4744	6.38356
11.7949	6.73973
12.5641	7.0137
13.2692	7.28767
13.9103	7.58904
14.6154	7.69863
15.1923	7.80822
16.0897	7.9726
16.9231	8.10959
18.4615	8.30137
19.4872	8.38356
20.4487	8.52055
21.2179	8.63014
22.5641	8.82192
23.4615	8.87671
24.8077	8.93151
25.5769	9.0137
26.7949	9.12329
28.0769	9.12329
28.9744	9.17808
30	9.17808
30.9615	9.15068
