Adsorption isotherm of Nitrogen on Al-MIL-53-100%NH2
DOI: 10.1039/C1dt11700a
Adsorbate Nitrogen: InChIKey IJGRMHOSHXDMSA-UHFFFAOYSA-N
Temperature: 77 K
Tabular data in the source: 0
pressure (bar)	uptake (cm3(STP)/g)
0.00981816	51.1123
0.0104275	52.7026
0.0127471	54.2537
0.0152714	57.4175
0.0186685	58.9686
0.0228213	60.5196
0.0273407	63.6835
0.0334226	65.2345
0.0408573	66.7856
0.0499425	69.9438
0.0574765	73.1189
0.0688446	81.1042
0.0808202	89.0952
0.0968055	97.0805
0.10917	105.083
0.123086	117.906
0.141603	129.117
0.162883	143.542
0.183647	156.366
0.263174	198.051
0.296723	210.875
0.341215	231.729
0.400371	250.97
0.46975	271.818
0.562337	292.661
0.597019	302.287
0.673173	313.503
0.855801	337.543
0.926756	353.593
1.00352	371.249
