Adsorption isotherm of Nitrogen on Al-MIL-53-66.6%NH2
DOI: 10.1039/C1dt11700a
Adsorbate Nitrogen: InChIKey IJGRMHOSHXDMSA-UHFFFAOYSA-N
Temperature: 77 K
Tabular data in the source: 0
pressure (bar)	uptake (cm3(STP)/g)
0.00119212	24.3795
0.00142791	32.3648
0.00181644	41.9405
0.00208973	53.1514
0.00240409	64.3622
0.00271075	75.5787
0.00305499	98.0454
0.00358336	125.322
0.00372838	136.561
0.00411917	154.212
0.0045503	175.077
0.00544164	218.42
0.00577604	232.868
0.00651133	248.905
0.0074898	263.331
0.00861668	274.542
0.00933577	279.341
0.011183	285.719
0.0131305	290.495
0.0157286	296.874
0.0204188	301.622
0.0249592	304.78
0.0299047	306.337
0.036557	307.888
0.0446889	309.439
0.0504104	311.013
0.061624	312.564
0.0753321	314.115
0.105989	317.234
0.149123	320.353
0.193621	321.887
0.251433	320.207
0.346695	324.939
0.459284	326.467
0.572887	326.406
0.700222	331.171
0.873233	335.931
0.965172	343.938
