Adsorption isotherm of Carbon Dioxide on Al-MIL-53-11.1%NH2
DOI: 10.1039/C1dt11700a
Adsorbate Carbon Dioxide: InChIKey CURLTUGMZLYLDI-UHFFFAOYSA-N
Temperature: 303 K
Tabular data in the source: 0
pressure (bar)	uptake (mmol/g)
0.0320453	0.0848951
0.0516805	0.189769
0.0876474	0.416996
0.118531	0.69666
0.177264	0.993803
0.324195	1.23851
0.672377	1.39582
1.32608	1.57061
2.55038	1.78036
4.54847	1.99011
6.97556	2.26977
9.43347	2.72422
12.1315	3.35347
13.0824	4.05263
14.4672	4.52456
15.2137	5.06641
16.8241	5.5733
18.605	6.2375
20.0633	6.58708
21.0985	7.05901
22.7523	7.49599
32.3568	7.9854
