Adsorption isotherm of Nitrogen on Al-MIL-53-50%NH2
DOI: 10.1039/C1dt11700a
Adsorbate Nitrogen: InChIKey IJGRMHOSHXDMSA-UHFFFAOYSA-N
Temperature: 77 K
Tabular data in the source: 0
pressure (bar)	uptake (cm3(STP)/g)
0.000329208	44.0245
0.000427415	47.1659
0.000626008	50.2736
0.000898649	53.387
0.00128994	58.1075
0.00177787	72.4822
0.00230723	85.2666
0.00281825	104.496
0.00337443	120.518
0.00420523	141.349
0.00483604	160.596
0.00590718	179.826
0.00736207	199.05
0.00899311	216.672
0.0114372	232.677
0.0157612	250.266
0.0221677	261.421
0.0344802	267.726
0.051511	277.257
0.0785344	281.96
0.110494	285.079
0.149337	288.209
0.20182	292.947
0.256831	294.487
0.407619	299.179
0.529253	300.713
0.715153	308.665
0.822977	313.447
0.966142	321.438
