Adsorption isotherm of Carbon Dioxide on Al-MIL-53-50%NH2
DOI: 10.1039/C1dt11700a
Adsorbate Carbon Dioxide: InChIKey CURLTUGMZLYLDI-UHFFFAOYSA-N
Temperature: 303 K
Tabular data in the source: 0
pressure (bar)	uptake (mmol/g)
0.0268716	0.0405726
0.054347	0.0405726
0.107185	0.193514
0.168567	0.499396
0.293163	1.06746
0.438428	1.3515
0.672377	1.67923
1.16936	1.85402
2.13862	2.05066
4.01091	2.37839
6.15117	2.85906
8.97063	3.77671
9.9202	4.41032
11.2497	5.17503
13.7574	6.02713
14.8358	6.72629
16.4062	7.20696
22.1871	7.94982
30.7693	8.56158
