Adsorption isotherm of Carbon Dioxide on Al-MIL-53-50%NH2
DOI: 10.1039/C1dt11700a
Adsorbate Carbon Dioxide: InChIKey CURLTUGMZLYLDI-UHFFFAOYSA-N
Temperature: 303 K
Tabular data in the source: 0
pressure (bar)	uptake (mmol/g)
0.448718	1.45205
1.34615	1.89041
3.01282	2.05479
4.03846	2.19178
4.9359	2.30137
5.89744	2.32877
7.05128	2.43836
7.88462	2.49315
8.52564	2.49315
9.35897	2.65753
10.5769	2.82192
11.4103	2.93151
12.0513	3.0411
12.6282	3.39726
13.2051	3.80822
13.7821	4.13699
14.1026	4.43836
14.7436	4.9863
15.1923	5.42466
15.7051	5.83562
16.0897	6.21918
16.6667	6.52055
17.1154	6.76712
17.6923	7.15068
18.2051	7.36986
18.7179	7.50685
19.4872	7.72603
20.3205	7.94521
21.2179	8.08219
21.7308	8.16438
22.4359	8.24658
23.141	8.32877
24.0385	8.46575
24.5513	8.49315
25.3846	8.60274
26.1538	8.68493
26.7308	8.76712
27.4359	8.82192
28.2692	8.90411
28.8462	8.9863
29.5513	8.9863
30.5769	9.06849
31.0256	9.09589
