Adsorption isotherm of Carbon Dioxide on Al-MIL-53-100%NH2
DOI: 10.1039/C1dt11700a
Adsorbate Carbon Dioxide: InChIKey CURLTUGMZLYLDI-UHFFFAOYSA-N
Temperature: 303 K
Tabular data in the source: 0
pressure (bar)	uptake (mmol/g)
0.192308	0.958904
0.641026	1.72603
1.34615	1.83562
2.5	2
3.58974	2.08219
5	2.21918
6.21795	2.24658
7.69231	2.30137
8.58974	2.38356
9.55128	2.38356
10.8333	2.46575
12.1795	2.52055
13.2692	2.54795
14.359	2.60274
15.641	2.60274
16.4103	2.63014
17.6282	2.60274
18.6538	2.63014
19.7436	2.73973
20.8333	2.84932
21.7308	2.93151
22.9487	3.06849
23.7179	3.28767
24.359	3.45205
25	3.64384
25.8333	3.83562
26.5385	4
27.1795	4.16438
28.2051	4.41096
29.359	4.65753
29.9359	4.84932
30.5128	5.0411
31.1538	5.26027
