Adsorption isotherm of Carbon Dioxide on Al-MIL-53-0%NH2
DOI: 10.1039/C1dt11700a
Adsorbate Carbon Dioxide: InChIKey CURLTUGMZLYLDI-UHFFFAOYSA-N
Temperature: 303 K
Tabular data in the source: 0
pressure (bar)	uptake (mmol/g)
0.0363401	0.043695
0.0648107	0.043695
0.104522	0.0742832
0.156315	0.166048
0.245832	0.273107
0.316142	0.487224
0.386613	0.823695
0.472794	1.12958
0.655675	1.31311
0.932459	1.54252
1.54212	1.74134
2.48702	1.90958
4.01091	2.09311
5.56237	2.35311
6.63331	2.64369
7.52233	3.04134
7.91045	3.51546
8.53049	3.86722
8.74779	4.29546
9.43347	4.7084
10.432	5.15193
11.5363	5.53428
14.4672	5.85546
19.5649	6.19193
23.9262	6.42134
30.7693	6.60487
