Adsorption isotherm of Carbon Dioxide on Al-MIL-53-20%NH2
DOI: 10.1039/C1dt11700a
Adsorbate Carbon Dioxide: InChIKey CURLTUGMZLYLDI-UHFFFAOYSA-N
Temperature: 303 K
Tabular data in the source: 0
pressure (bar)	uptake (mmol/g)
0.0146929	0.0187239
0.0282581	0.0187239
0.0571511	0.0624214
0.109915	0.171665
0.177264	0.564942
0.252094	0.936371
0.396462	1.2204
0.689505	1.61368
1.26102	2.02881
1.54212	2.2473
2.82034	2.53133
4.66433	2.79351
6.46854	3.23049
8.53049	3.79856
9.67378	4.54141
11.2497	5.17503
12.1315	5.63385
13.7574	6.22377
15.2137	6.98847
17.6922	7.62209
19.0789	8.14645
23.3318	8.67083
31.5531	9.12965
