Adsorption isotherm of Carbon Dioxide on Al-MIL-53-0%NH2
DOI: 10.1039/C1dt11700a
Adsorbate Carbon Dioxide: InChIKey CURLTUGMZLYLDI-UHFFFAOYSA-N
Temperature: 303 K
Tabular data in the source: 0
pressure (bar)	uptake (mmol/g)
0.25641	0.25641
0.512821	1.26027
0.705128	1.53425
1.15385	1.69863
1.98718	2.19178
2.24359	2.35616
2.4359	2.52055
3.01282	2.79452
3.46154	3.0137
4.16667	3.31507
4.67949	3.58904
4.9359	3.72603
5.51282	3.94521
5.96154	4.41096
6.28205	4.71233
6.53846	4.9863
6.85897	5.23288
7.17949	5.56164
7.5	5.91781
7.88462	6.35616
8.46154	6.71233
8.91026	6.9863
9.23077	7.23288
9.67949	7.53425
10.3846	7.67123
11.0897	7.86301
11.6667	7.9726
12.3718	8.13699
13.3333	8.30137
14.2949	8.49315
15.1282	8.65753
15.7692	8.79452
16.5385	8.90411
17.1795	9.0411
17.8205	9.17808
18.9103	9.26027
19.8718	9.31507
20.8333	9.39726
21.7949	9.45205
22.8205	9.53425
23.9103	9.58904
25.1282	9.69863
26.5385	9.78082
27.7564	9.86301
29.2308	9.91781
30.4487	10
