Adsorption isotherm of Nitrogen on Al-MIL-53-11.1%NH2
DOI: 10.1039/C1dt11700a
Adsorbate Nitrogen: InChIKey IJGRMHOSHXDMSA-UHFFFAOYSA-N
Temperature: 77 K
Tabular data in the source: 0
pressure (bar)	uptake (cm3(STP)/g)
2.78311e-05	25.4285
3.3338e-05	31.8067
3.99347e-05	38.1848
4.88079e-05	44.5574
5.84575e-05	54.1499
6.86215e-05	63.748
8.05527e-05	73.3461
9.45584e-05	82.9442
0.000111002	92.5423
0.000130311	100.533
0.000152947	113.346
0.000175954	124.557
0.000198372	138.987
0.000223707	146.989
0.000252261	156.599
0.000290235	166.203
0.00032725	177.419
0.000376513	187.023
0.000441916	199.835
0.00050844	209.439
0.000596884	217.43
0.00071499	223.808
0.000856407	231.793
0.00111132	246.185
0.00135803	255.772
0.00156257	263.768
0.0019099	268.534
0.00228744	278.126
0.0027955	286.106
0.00348594	292.473
0.00452522	298.829
0.00575745	305.19
0.00778126	308.32
0.00990171	311.467
0.0113962	313.035
0.0139312	314.586
0.0166913	316.143
0.0221101	319.278
0.0270284	320.83
0.0317417	320.785
0.0380286	323.949
0.0455659	323.898
0.0723136	330.198
0.0849415	325.331
0.146083	331.608
0.178604	329.945
0.222766	331.491
0.266882	334.655
0.584136	340.864
0.685949	342.427
0.838296	350.406
0.889933	361.64
