Adsorption isotherm of Carbon Dioxide on Cd (II)-MOF [Cd(L)(DMF)]
DOI: 10.1039/C4dt00230j
Adsorbate Carbon Dioxide: InChIKey CURLTUGMZLYLDI-UHFFFAOYSA-N
Temperature: 298 K
Tabular data in the source: 0
pressure (bar)	uptake (cm3(STP)/g)
0.0156409	1.40957
0.018396	2.16449
0.0304894	4.15069
0.0374931	5.07415
0.0490256	6.46422
0.0620516	7.2679
0.0730234	8.06183
0.0863298	9.16358
0.0931932	9.93801
0.108554	11.0495
0.117051	11.3866
0.16682	14.2935
0.220277	16.7728
0.27154	19.0934
0.32649	20.9863
0.372944	22.5422
0.427754	24.2861
0.478315	25.8614
0.528597	27.1387
0.583267	28.7336
0.631214	29.7031
0.681074	30.5333
0.73355	31.9694
0.783551	32.9486
0.833552	33.9278
0.885607	34.9168
0.937662	35.9058
0.985328	36.5772
1.02889	37.2291
