Adsorption isotherm of Methane on Cd (II)-MOF [Cd(L)(DMF)]
DOI: 10.1039/C4dt00230j
Adsorbate Methane: InChIKey VNWKTOKETHGBQD-UHFFFAOYSA-N
Temperature: 298 K
Tabular data in the source: 0
pressure (bar)	uptake (cm3(STP)/g)
0.0274051	0.871953
0.0417843	0.940222
0.0626063	1.33582
0.0772658	1.70215
0.0938393	1.92921
0.108359	2.14651
0.156165	2.96696
0.20808	3.80691
0.259995	4.64686
0.307942	5.61634
0.361771	6.31701
0.411631	7.14721
0.459298	7.81862
0.511072	8.50954
0.562987	9.34949
0.610654	10.0209
0.662428	10.7118
0.716257	11.4125
0.765978	12.0937
0.813644	12.7651
0.865419	13.456
0.915139	14.1372
0.966774	14.679
1.01005	15.0329
