Adsorption isotherm of Ethanol on Cd (II)-MOF [Cd(L)(DMF)]
DOI: 10.1039/C4dt00230j
Adsorbate Ethanol: InChIKey LFQSCWFLJHTTHZ-UHFFFAOYSA-N
Temperature: 298 K
Tabular data in the source: 0
pressure (bar)	uptake (cm3(STP)/g)
-0.00163309	14.7706
0.00153471	17.4445
0.00375807	9.38336
0.0047025	20.1184
0.00493861	22.8022
0.00804738	24.8052
0.0257555	26.0881
0.0434047	26.7
0.0640445	27.973
0.0699079	27.9533
0.0845663	27.9041
0.0904887	28.5554
0.0992248	27.855
0.152231	30.3616
0.205002	30.1846
0.257831	30.6784
0.304738	30.521
0.360499	31.005
0.410397	31.5087
0.460294	32.0124
0.50427	31.8649
0.557099	32.3587
0.604065	32.8723
0.659767	32.6853
0.712537	32.5083
0.756513	32.3607
0.809342	32.8546
0.86223	34.0194
0.909137	33.862
0.959035	34.3657
