Adsorption isotherm of Methanol on Cd (II)-MOF [Cd(L)(DMF)]
DOI: 10.1039/C4dt00230j
Adsorbate Methanol: InChIKey OKKJLVBELUTLKV-UHFFFAOYSA-N
Temperature: 298 K
Tabular data in the source: 0
pressure (bar)	uptake (cm3(STP)/g)
0.00564694	30.8535
0.00594207	34.2082
0.00910987	36.8822
0.0152684	40.2172
0.03034	44.8646
0.0421848	46.1672
0.0569613	47.4599
0.0806509	50.0649
0.0924366	50.6965
0.107213	51.9892
0.157229	53.8348
0.204254	55.0193
0.254211	56.1939
0.313021	58.01
0.357056	58.5334
0.409885	59.0272
0.462833	60.863
0.509917	62.7184
0.562746	63.2123
0.609771	64.3967
0.662659	65.5615
0.712557	66.0652
0.756591	66.5886
0.80948	67.7534
0.862427	69.5892
0.912384	70.7638
