Adsorption isotherm of 2-Propanol on Cd (II)-MOF [Cd(L)(DMF)]
DOI: 10.1039/C4dt00230j
Adsorbate 2-Propanol: InChIKey KFZMGEQAYNKOFK-UHFFFAOYSA-N
Temperature: 298 K
Tabular data in the source: 0
pressure (bar)	uptake (cm3(STP)/g)
0.0500748	2.51653
0.0970408	3.03006
0.158724	4.16535
0.202818	5.35967
0.249725	5.20227
0.296632	5.04486
0.355324	5.51905
0.40229	6.03258
0.45207	5.1944
0.501968	5.6981
0.554797	6.19196
0.607685	7.35676
0.654474	5.85747
0.698509	6.38084
0.75427	6.86487
0.806981	6.01684
0.851015	6.54022
0.906717	6.3533
0.939084	7.58697
