Adsorption isotherm of Nitrogen on Cd (II)-MOF [Cd(L)(DMF)]
DOI: 10.1039/C4dt00230j
Adsorbate Nitrogen: InChIKey IJGRMHOSHXDMSA-UHFFFAOYSA-N
Temperature: 273 K
Tabular data in the source: 0
pressure (bar)	uptake (cm3(STP)/g)
0.130534	1.80669
0.157238	1.93347
0.184082	2.20929
0.208873	2.47536
0.231328	2.43361
0.258313	2.85846
0.280908	2.96574
0.307613	3.09252
0.332263	3.20956
0.357053	3.47562
0.379789	3.73193
0.408687	4.01751
0.433337	4.13454
0.458127	4.4006
0.482777	4.51764
0.509622	4.79346
0.532077	4.7517
0.557008	5.1668
0.583852	5.44262
0.610696	5.71844
0.633572	6.12379
0.656028	6.08203
0.682732	6.20882
0.709717	6.63367
0.734367	6.7507
0.761071	6.87749
0.783947	7.28283
0.810791	7.55865
0.835582	7.82472
0.860232	7.94175
0.885022	8.20782
0.909672	8.32485
0.934322	8.44188
0.961166	8.7177
0.985956	8.98377
1.0065	9.08129
