Adsorption isotherm of Hydrogen on Cd (II)-MOF [Cd(L)(DMF)]
DOI: 10.1039/C4dt00230j
Adsorbate Hydrogen: InChIKey UFHFLCQGNIYNRP-UHFFFAOYSA-N
Temperature: 87 K
Tabular data in the source: 0
pressure (bar)	uptake (cm3(STP)/g)
0.0038015	1.99475
0.00713856	3.13494
0.0109401	5.1297
0.0117141	6.55397
0.0129526	8.8328
0.0140363	10.8268
0.01512	12.8208
0.0162037	14.8147
0.0265245	18.805
0.0341275	22.7945
0.0450675	27.9242
0.0612884	32.7706
0.0711447	35.9063
0.0802271	37.6178
0.0923368	39.8997
0.103982	41.3271
0.115937	43.3242
0.122147	44.75
0.176881	50.4618
0.22766	53.894
0.280691	56.4723
0.335977	58.197
0.386136	60.4897
0.438548	61.9287
0.490806	63.0828
0.540655	64.8059
0.589886	65.3895
0.642298	66.8285
0.694556	67.9826
0.743941	68.8511
0.796044	69.7204
0.848147	70.5897
0.894814	71.4574
0.949634	72.3274
0.999174	73.4808
1.04553	73.7788
