Adsorption isotherm of Nitrogen on Cd (II)-MOF [Cd(L)(DMF)]
DOI: 10.1039/C4dt00230j
Adsorbate Nitrogen: InChIKey IJGRMHOSHXDMSA-UHFFFAOYSA-N
Temperature: 298 K
Tabular data in the source: 0
pressure (bar)	uptake (cm3(STP)/g)
0.0287583	0.136538
0.0513541	0.243818
0.080533	0.827456
0.105043	0.795455
0.129973	1.21055
0.154623	1.32759
0.183381	1.46413
0.208312	1.87922
0.228853	1.97675
0.257331	1.81522
0.284316	2.24008
0.306631	2.04929
0.331562	2.46439
0.354157	2.57167
0.378807	2.6887
0.40976	2.98402
0.430302	3.08155
0.452897	3.18883
0.479602	3.31562
0.50878	3.89925
0.53315	3.71822
0.5578	3.83525
0.586558	3.97179
0.611348	4.23786
0.633804	4.1961
0.6564	4.30338
0.68119	4.56945
0.712143	4.86477
0.732684	4.9623
0.75514	4.92055
0.782125	5.3454
0.804861	5.60171
0.831565	5.7285
0.856355	5.99456
0.87881	5.95281
0.909623	6.0991
0.934413	6.36517
0.954955	6.46269
0.97755	6.56997
1.00822	6.56723
