Adsorption isotherm of Methane on Cd (II)-MOF [Cd(L)(DMF)]
DOI: 10.1039/C4dt00230j
Adsorbate Methane: InChIKey VNWKTOKETHGBQD-UHFFFAOYSA-N
Temperature: 273 K
Tabular data in the source: 0
pressure (bar)	uptake (cm3(STP)/g)
0.0212426	0.842695
0.0323546	1.78566
0.0533168	2.33029
0.0720847	2.71613
0.0870246	3.38053
0.110181	4.08395
0.158829	5.79859
0.209391	7.37396
0.261866	8.81005
0.312148	10.0873
0.367098	11.9803
0.412991	12.94
0.463272	14.2173
0.515327	15.2063
0.569576	16.3541
0.621632	17.3431
0.669718	18.4616
0.721914	19.5996
0.775883	20.4493
0.821775	21.409
0.87369	22.249
0.921637	23.2185
0.973552	24.0584
1.0215	25.0279
