Adsorption isotherm of Carbon Dioxide on Cd (II)-MOF [Cd(L)(DMF)]
DOI: 10.1039/C4dt00230j
Adsorbate Carbon Dioxide: InChIKey CURLTUGMZLYLDI-UHFFFAOYSA-N
Temperature: 273 K
Tabular data in the source: 0
pressure (bar)	uptake (cm3(STP)/g)
0.00508969	1.06274
0.0104598	2.42355
0.0132149	3.17847
0.0187252	4.68831
0.0221813	6.1884
0.0336225	9.65518
0.0459962	11.9394
0.0582298	14.0747
0.0700427	15.7628
0.0771866	16.8353
0.0909135	18.3842
0.100112	19.4664
0.113698	20.8662
0.123177	22.2465
0.178456	26.6633
0.23056	29.878
0.286492	32.8142
0.333366	34.8172
0.388456	36.8591
0.439299	38.7326
0.491914	40.3177
0.542336	41.744
0.592617	43.0213
0.647147	44.4672
0.695094	45.4366
0.745235	46.5649
0.79729	47.5539
0.843323	48.6627
0.901681	49.8299
0.953315	50.3718
0.996873	51.0237
1.04468	51.8442
