Adsorption isotherm of Hydrogen on Cd (II)-MOF [Cd(L)(DMF)]
DOI: 10.1039/C4dt00230j
Adsorbate Hydrogen: InChIKey UFHFLCQGNIYNRP-UHFFFAOYSA-N
Temperature: 77 K
Tabular data in the source: 0
pressure (bar)	uptake (cm3(STP)/g)
0.0038703	7.12136
0.00952954	12.5344
0.0167369	20.7959
0.017597	17.3784
0.0211577	23.9301
0.0227058	26.7786
0.0236346	28.4877
0.027591	30.7674
0.0315473	33.047
0.0318569	33.6167
0.0449643	42.7343
0.0580029	46.7254
0.0649867	49.5755
0.0769416	51.5725
0.0888965	53.5696
0.095261	55.2803
0.112187	56.4244
0.118242	57.5653
0.129887	58.9927
0.186256	62.7113
0.239133	65.0048
0.288828	66.443
0.34155	68.4517
0.39109	69.6051
0.446065	70.76
0.492887	71.9125
0.542427	73.0659
0.594685	74.22
0.646942	75.3741
0.69361	76.2419
0.745867	77.396
0.798125	78.5501
0.850228	79.4194
0.902021	79.7189
0.953969	80.3033
1.00623	81.4575
1.04443	81.7532
