Adsorption isotherm of Water on Cd (II)-MOF [Cd(L)(DMF)]
DOI: 10.1039/C4dt00230j
Adsorbate Water: InChIKey XLYOFNOQVPJJNP-UHFFFAOYSA-N
Temperature: 298 K
Tabular data in the source: 0
pressure (bar)	uptake (cm3(STP)/g)
0.00287263	-0.681138
0.0098617	12.0946
0.0131489	16.1262
0.0194273	20.8231
0.0232475	30.9138
0.0331092	43.0085
0.0425563	50.3904
0.051885	56.4259
0.0640862	61.7802
0.0763467	67.8078
0.0856161	73.1701
0.0978174	78.5244
0.106791	80.5204
0.163977	97.2014
0.20597	107.863
0.259632	117.819
0.315989	125.075
0.366423	131.673
0.413806	136.933
0.461249	142.865
0.517369	147.428
0.564753	152.688
0.615009	157.266
0.668138	161.163
0.715462	165.75
0.7656	168.982
0.818847	174.225
0.865993	176.792
0.916309	182.044
0.969497	186.614
