Adsorption isotherm of Nitrogen on Cd (II)-MOF [Cd(L)(DMF)]
DOI: 10.1039/C4dt00230j
Adsorbate Nitrogen: InChIKey IJGRMHOSHXDMSA-UHFFFAOYSA-N
Temperature: 77 K
Tabular data in the source: 0
pressure (bar)	uptake (cm3(STP)/g)
0.000148976	0.242569
0.0581359	0.541223
0.0841629	0.566461
0.113082	0.594504
0.130433	0.611329
0.159352	0.639372
0.182487	0.661806
0.208514	0.687044
0.237433	0.715087
0.257677	0.734717
0.280961	0.99972
0.306839	0.782389
0.361934	1.07824
0.411245	1.36848
0.457366	1.17078
0.509421	1.22126
0.558881	1.75407
0.607894	1.55917
0.657056	1.60684
0.706367	1.89708
0.75553	1.94476
0.80499	2.47757
0.848517	2.7622
0.892045	3.04683
0.951074	5.04347
0.975103	6.52131
0.994838	10.4192
