Adsorption isotherm of Carbon Dioxide on Cd (II)-MOF [Cd(L)(DMF)]
DOI: 10.1039/C4dt00230j
Adsorbate Carbon Dioxide: InChIKey CURLTUGMZLYLDI-UHFFFAOYSA-N
Temperature: 195 K
Tabular data in the source: 0
pressure (bar)	uptake (cm3(STP)/g)
0.00376493	10.2173
0.00793546	12.1677
0.00879954	22.3815
0.00952255	14.6012
0.0103161	15.818
0.0172993	26.5256
0.0180928	27.7424
0.0211083	32.3661
0.0222634	29.6927
0.0254376	34.5598
0.0265485	36.2633
0.0280915	43.0737
0.0328969	45.9974
0.0343253	48.1876
0.0378169	53.5414
0.0384958	50.138
0.039448	51.5981
0.0413526	54.5184
0.0521183	57.6925
0.055654	58.6695
0.059031	59.4031
0.0688445	61.1171
0.0778645	61.6144
0.0841423	62.3515
0.096698	63.8258
0.111678	64.5735
0.13552	65.5751
0.171759	67.8076
0.192223	68.0757
0.212688	68.3437
0.242173	69.109
0.271498	69.631
0.294864	69.9026
0.321289	70.421
0.344813	70.9359
0.36802	70.9642
0.391544	71.4791
0.421029	72.2444
0.447137	72.2762
0.470343	72.3044
0.493709	72.5759
0.520134	73.0944
0.5464	73.3695
0.572508	73.4012
0.599092	74.163
0.622299	74.1912
0.648565	74.4663
0.671931	74.7379
0.695296	75.0095
0.724463	75.2881
0.750571	75.3198
0.776837	75.5949
0.800044	75.6232
0.823568	76.1381
0.849676	76.1698
0.878843	76.4484
0.899308	76.7165
0.925574	76.9916
0.951682	77.0233
0.975206	77.5382
1.00131	77.57
1.02452	77.5982
1.04499	77.8662
