Adsorption isotherm of Hydrogen on C9H25N37O11Cu5
DOI: 10.1021/Cg901128k
Adsorbate Hydrogen: InChIKey UFHFLCQGNIYNRP-UHFFFAOYSA-N
Temperature: 77 K
Tabular data in the source: 0
pressure (bar)	uptake (cm3(STP)/g)
0.00278405	0.0983607
0.00551607	0.209836
0.00568519	0.167213
0.00833915	0.298361
0.00844323	0.272131
0.0113574	0.337705
0.0239116	0.37377
0.0269949	0.396721
0.0490462	0.439344
0.0553428	0.452459
0.0742978	0.47541
0.0837688	0.488525
0.0996015	0.498361
0.200985	0.547541
0.308757	0.586885
0.410219	0.616393
0.502184	0.639344
0.60051	0.659016
0.705211	0.672131
0.806712	0.691803
0.905052	0.708197
0.997056	0.721311
