Adsorption isotherm of Hydrogen on C9H25N37O11Cu5
DOI: 10.1021/Cg901128k
Adsorbate Hydrogen: InChIKey UFHFLCQGNIYNRP-UHFFFAOYSA-N
Temperature: 87 K
Tabular data in the source: 0
pressure (bar)	uptake (cm3(STP)/g)
0.00301823	0.0393443
0.0059584	0.0983607
0.0152993	0.144262
0.0214658	0.190164
0.0276844	0.222951
0.0339551	0.242623
0.0496967	0.27541
0.0559933	0.288525
0.0749613	0.308197
0.0907289	0.334426
0.103387	0.344262
0.188899	0.393443
0.204732	0.403279
0.29351	0.429508
0.309368	0.432787
0.404507	0.455738
0.506034	0.468852
0.607574	0.478689
0.709088	0.495082
0.80748	0.498361
0.908994	0.514754
0.997849	0.521311
