Adsorption isotherm of Carbon Dioxide on C9H25N37O11Cu5
DOI: 10.1021/Cg901128k
Adsorbate Carbon Dioxide: InChIKey CURLTUGMZLYLDI-UHFFFAOYSA-N
Temperature: 195 K
Tabular data in the source: 0
pressure (bar)	uptake (cm3(STP)/g)
0.00321062	0.00321062
0.00963187	35.4524
0.0417381	38.8543
0.0545806	41.3514
0.0963187	43.6148
0.218322	46.542
0.317852	47.6561
0.423802	47.6323
0.529753	47.8359
0.626071	48.9507
0.732022	49.1542
0.837972	48.6759
0.940712	48.8802
1.0274	49.5426
