Adsorption isotherm of Nitrogen on C9H25N37O11Cu5
DOI: 10.1021/Cg901128k
Adsorbate Nitrogen: InChIKey IJGRMHOSHXDMSA-UHFFFAOYSA-N
Temperature: 77 K
Tabular data in the source: 0
pressure (bar)	uptake (cm3(STP)/g)
0	3.40909
0.00307443	1.13564
0.0153722	3.17822
0.0461165	3.17103
0.0707119	3.16528
0.101456	3.38536
0.150647	3.37385
0.199838	3.13507
0.249029	3.35083
0.292071	3.56804
0.344336	3.32854
0.399676	3.31559
0.445792	3.3048
0.491909	3.52129
0.5411	3.28251
0.584142	3.27244
0.636407	3.03294
0.688672	3.24799
0.734789	3.2372
0.78398	3.22569
0.836245	3.21346
0.879287	3.20339
0.946925	4.55121
0.97152	6.36364
