Adsorption isotherm of Nitrogen on PTA-MIL-101
DOI: 10.1016/j.micromeso.2012.11.021
Adsorbate Nitrogen: InChIKey IJGRMHOSHXDMSA-UHFFFAOYSA-N
Temperature: 77 K
Tabular data in the source: 0
pressure (bar)	uptake (cm3(STP)/g)
0.0137359	318.78
0.0337579	398.868
0.0537799	449.209
0.0823828	507.559
0.0995445	547.603
0.143879	583.071
0.183923	611.674
0.206805	649.429
0.25686	659.726
0.311206	666.591
0.405595	671.167
0.505705	678.032
0.605815	680.32
0.704495	684.897
0.804605	688.329
0.880403	688.329
0.95334	691.762
0.979082	697.482
1.00053	712.356
