Adsorption isotherm of Nitrogen on PTA-MIL-101
DOI: 10.1016/j.micromeso.2012.11.021
Adsorbate Nitrogen: InChIKey IJGRMHOSHXDMSA-UHFFFAOYSA-N
Temperature: 77 K
Tabular data in the source: 0
pressure (bar)	uptake (cm3(STP)/g)
0.0108756	204.369
0.0323278	274.16
0.0609306	321.068
0.103835	354.248
0.162471	392.004
0.203945	408.021
0.261151	413.742
0.318356	416.03
0.401305	417.174
0.502845	421.751
0.601525	424.039
0.703065	422.895
0.760271	425.183
0.810326	426.327
0.880403	426.327
0.934748	427.471
0.976222	428.615
1.00053	432.048
