Adsorption isotherm of Nitrogen on PTA-MIL-101
DOI: 10.1016/j.micromeso.2012.11.021
Adsorbate Nitrogen: InChIKey IJGRMHOSHXDMSA-UHFFFAOYSA-N
Temperature: 77 K
Tabular data in the source: 0
pressure (bar)	uptake (cm3(STP)/g)
0.00658518	5.29291
0.0123058	227.251
0.035188	291.322
0.0823828	370.265
0.15818	416.03
0.192504	446.921
0.231118	454.93
0.306915	458.362
0.407025	461.795
0.505705	464.083
0.607245	465.227
0.707355	467.515
0.806035	469.803
0.85752	467.515
0.904715	469.803
0.95191	467.515
0.981943	470.947
0.997674	470.947
