Adsorption isotherm of Nitrogen on MIL-101
DOI: 10.1016/j.micromeso.2012.11.021
Adsorbate Nitrogen: InChIKey IJGRMHOSHXDMSA-UHFFFAOYSA-N
Temperature: 77 K
Tabular data in the source: 0
pressure (bar)	uptake (cm3(STP)/g)
0.015166	332.51
0.0337579	412.598
0.0537799	460.65
0.085243	530.441
0.100975	569.341
0.146739	612.818
0.188213	641.421
0.206805	682.609
0.25829	694.05
0.35554	703.203
0.45708	710.067
0.55433	715.788
0.65587	720.364
0.75598	723.797
0.85323	728.373
0.930458	729.517
0.977652	735.238
1.00053	744.391
