Adsorption isotherm of Nitrogen on PTA-MIL-101
DOI: 10.1016/j.micromeso.2012.11.021
Adsorbate Nitrogen: InChIKey IJGRMHOSHXDMSA-UHFFFAOYSA-N
Temperature: 77 K
Tabular data in the source: 0
pressure (bar)	uptake (cm3(STP)/g)
0.00658518	3.00468
0.0137359	239.836
0.0337579	292.466
0.0666512	351.96
0.105265	392.004
0.163901	421.751
0.182493	445.777
0.203945	454.93
0.254	460.65
0.308345	464.083
0.407025	467.515
0.507135	470.947
0.602955	474.38
0.703065	474.38
0.803175	475.524
0.85466	477.812
0.924737	478.956
0.989093	491.542
