Adsorption isotherm of Nitrogen on PTA-MIL-101
DOI: 10.1016/j.micromeso.2012.11.021
Adsorbate Nitrogen: InChIKey IJGRMHOSHXDMSA-UHFFFAOYSA-N
Temperature: 77 K
Tabular data in the source: 0
pressure (bar)	uptake (cm3(STP)/g)
0.015166	174.622
0.0337579	223.819
0.0637909	261.575
0.108125	285.601
0.142449	303.907
0.162471	318.78
0.203945	329.077
0.309776	332.51
0.404165	335.942
0.504275	337.086
0.605815	340.518
0.704495	341.663
0.807465	342.807
0.85466	342.807
0.906145	345.095
0.95334	346.239
0.996244	349.671
