Adsorption isotherm of Hydrogen on CuBTC
DOI: 10.1260/0263-6174.28.8-9.823
Adsorbate Hydrogen: InChIKey UFHFLCQGNIYNRP-UHFFFAOYSA-N
Temperature: 298 K
Tabular data in the source: 0
pressure (bar)	uptake (mmol/g)
33.1606	0.0623053
48.621	0.0747664
55.7555	0.124611
60.7489	0.186916
65.742	0.261682
75.4892	0.461059
81.4316	0.623053
85.4723	0.735202
91.1772	0.884735
95.4552	1.02181
