Adsorption isotherm of Hydrogen on MIL-53
DOI: 10.1260/0263-6174.28.8-9.823
Adsorbate Hydrogen: InChIKey UFHFLCQGNIYNRP-UHFFFAOYSA-N
Temperature: 298 K
Tabular data in the source: 0
pressure (bar)	uptake (mmol/g)
0.9876	0.0416667
24.5488	0.197917
35.5539	0.322917
42.7482	0.458333
50.1236	0.625
64.8031	1.19792
73.4182	1.67708
79.5707	2.11458
88.2739	2.9375
93.9619	3.65625
