Adsorption isotherm of Hydrogen on CuBTC
DOI: 10.1260/0263-6174.28.8-9.823
Adsorbate Hydrogen: InChIKey UFHFLCQGNIYNRP-UHFFFAOYSA-N
Temperature: 298 K
Tabular data in the source: 0
pressure (bar)	uptake (mmol/g)
32.9224	0.0747664
48.6179	0.199377
55.7505	0.323988
60.5048	0.436137
65.7333	0.610592
75.7096	1.15888
81.4051	1.68224
85.4374	2.13084
91.3621	3.00312
95.3851	3.82555
