Adsorption isotherm of Hydrogen on MIL-53
DOI: 10.1260/0263-6174.28.8-9.823
Adsorbate Hydrogen: InChIKey UFHFLCQGNIYNRP-UHFFFAOYSA-N
Temperature: 298 K
Tabular data in the source: 0
pressure (bar)	uptake (mmol/g)
0.9876	0.0416667
24.3801	0.125
35.4038	0.1875
42.6105	0.28125
50.3791	0.40625
64.9178	0.8125
73.7512	1.19792
79.5632	1.5
88.1287	2.14583
94.4344	2.70833
