Adsorption isotherm of Hydrogen on IRMOF-1
DOI: 10.1260/0263-6174.28.8-9.823
Adsorbate Hydrogen: InChIKey UFHFLCQGNIYNRP-UHFFFAOYSA-N
Temperature: 298 K
Tabular data in the source: 0
pressure (bar)	uptake (mmol/g)
1.34825	0.0863309
24.3421	0.28777
35.3786	0.431655
42.6026	0.604317
50.1772	0.848921
65.1019	1.59712
73.6877	2.30216
79.7423	2.96403
88.2417	4.18705
94.2099	5.36691
