Adsorption isotherm of Hydrogen on CuBTC
DOI: 10.1260/0263-6174.28.8-9.823
Adsorbate Hydrogen: InChIKey UFHFLCQGNIYNRP-UHFFFAOYSA-N
Temperature: 298 K
Tabular data in the source: 0
pressure (bar)	uptake (mmol/g)
33.1606	0.0623053
48.381	0.161994
55.7514	0.286604
60.7436	0.398754
65.7346	0.560748
75.7112	1.09657
81.4079	1.57009
85.4402	2.01869
91.3664	2.82866
95.3907	3.60125
