Adsorption isotherm of Hydrogen on MIL-47
DOI: 10.1260/0263-6174.28.8-9.823
Adsorbate Hydrogen: InChIKey UFHFLCQGNIYNRP-UHFFFAOYSA-N
Temperature: 298 K
Tabular data in the source: 0
pressure (bar)	uptake (mmol/g)
0.9876	0.0416667
24.5643	0.145833
35.5756	0.25
42.7792	0.354167
50.3512	0.5
65.0679	0.947917
73.7078	1.34375
79.6916	1.70833
88.2416	2.40625
94.1479	3.03125
