Adsorption isotherm of Hydrogen on MIL-53
DOI: 10.1260/0263-6174.28.8-9.823
Adsorbate Hydrogen: InChIKey UFHFLCQGNIYNRP-UHFFFAOYSA-N
Temperature: 298 K
Tabular data in the source: 0
pressure (bar)	uptake (mmol/g)
0.9876	0.0416667
24.5984	0.03125
35.2599	0.03125
42.6849	0.03125
50.1099	0.03125
65.1503	0.03125
74.0984	0.03125
80.378	0.0416667
88.9329	0.0833333
95.2063	0.114583
