Adsorption isotherm of Hydrogen on IRMOF-1
DOI: 10.1260/0263-6174.28.8-9.823
Adsorbate Hydrogen: InChIKey UFHFLCQGNIYNRP-UHFFFAOYSA-N
Temperature: 298 K
Tabular data in the source: 0
pressure (bar)	uptake (mmol/g)
1.34825	0.0863309
24.3493	0.244604
35.3858	0.388489
42.6146	0.532374
64.9374	1.4964
73.7069	2.18705
79.9452	2.83453
88.4518	4.01439
94.4248	5.16547
