Adsorption isotherm of Hydrogen on IRMOF-1
DOI: 10.1260/0263-6174.28.8-9.823
Adsorbate Hydrogen: InChIKey UFHFLCQGNIYNRP-UHFFFAOYSA-N
Temperature: 298 K
Tabular data in the source: 0
pressure (bar)	uptake (mmol/g)
1.34825	0.0863309
24.3517	0.230216
35.3834	0.402878
42.6098	0.561151
50.1868	0.791367
64.7513	1.52518
73.6997	2.23022
79.7495	2.92086
88.2513	4.1295
94.2147	5.33813
