Adsorption isotherm of Hydrogen on CuBTC
DOI: 10.1260/0263-6174.28.8-9.823
Adsorbate Hydrogen: InChIKey UFHFLCQGNIYNRP-UHFFFAOYSA-N
Temperature: 298 K
Tabular data in the source: 0
pressure (bar)	uptake (mmol/g)
33.1606	0.0623053
48.6188	0.161994
55.7517	0.274143
60.7436	0.398754
65.7346	0.560748
75.4733	1.09657
81.4066	1.61994
85.4393	2.05607
91.1264	2.91589
95.3882	3.70093
