Adsorption isotherm of Hydrogen on CuBTC
DOI: 10.1260/0263-6174.28.8-9.823
Adsorbate Hydrogen: InChIKey UFHFLCQGNIYNRP-UHFFFAOYSA-N
Temperature: 298 K
Tabular data in the source: 0
pressure (bar)	uptake (mmol/g)
33.1606	0.0623053
48.6207	0.0872274
55.7555	0.124611
60.5114	0.174455
65.7427	0.23676
75.7277	0.436137
81.4328	0.573209
85.7117	0.672897
91.4166	0.82243
95.4577	0.922118
