Adsorption isotherm of Hydrogen on IRMOF-1
DOI: 10.1260/0263-6174.28.8-9.823
Adsorbate Hydrogen: InChIKey UFHFLCQGNIYNRP-UHFFFAOYSA-N
Temperature: 298 K
Tabular data in the source: 0
pressure (bar)	uptake (mmol/g)
1.34825	0.0863309
24.3781	0.0719424
35.25	0.115108
42.6793	0.143885
50.2803	0.230216
65.1197	0.402878
73.7942	0.57554
80.1212	0.690647
88.8029	0.820144
94.9437	0.964029
