Adsorption isotherm of Hydrogen on CuBTC
DOI: 10.1260/0263-6174.28.8-9.823
Adsorbate Hydrogen: InChIKey UFHFLCQGNIYNRP-UHFFFAOYSA-N
Temperature: 298 K
Tabular data in the source: 0
pressure (bar)	uptake (mmol/g)
32.9224	0.0747664
48.3825	0.0996885
55.5176	0.124611
60.5101	0.224299
65.7417	0.274143
75.7267	0.47352
81.4306	0.660436
85.2332	0.785047
91.175	0.971963
95.4524	1.13396
