Adsorption isotherm of Hydrogen on IRMOF-1
DOI: 10.1260/0263-6174.28.8-9.823
Adsorbate Hydrogen: InChIKey UFHFLCQGNIYNRP-UHFFFAOYSA-N
Temperature: 298 K
Tabular data in the source: 0
pressure (bar)	uptake (mmol/g)
1.34825	0.0863309
24.557	0.0863309
35.4338	0.100719
42.6745	0.172662
50.1014	0.215827
65.1197	0.402878
73.799	0.546763
80.3145	0.618705
95.149	0.820144
