Adsorption isotherm of Hydrogen on IRMOF-1
DOI: 10.1260/0263-6174.28.8-9.823
Adsorbate Hydrogen: InChIKey UFHFLCQGNIYNRP-UHFFFAOYSA-N
Temperature: 298 K
Tabular data in the source: 0
pressure (bar)	uptake (mmol/g)
1.34825	0.0863309
24.3733	0.100719
35.4218	0.172662
42.6673	0.215827
50.2731	0.273381
65.1125	0.446043
73.7822	0.647482
80.1092	0.76259
88.7957	0.863309
94.9413	0.978417
