Adsorption isotherm of Paladium(II) Ion, Pt(IV), Water on P. vermicola
DOI: 10.1039/c7ra02786a
Article source: Figure 3
Adsorbate Paladium(II) Ion: InChIKey MUJIDPITZJWBSW-UHFFFAOYSA-N
Adsorbate Pt(IV): InChIKey NDBYXKQCPYUOMI-UHFFFAOYSA-N
Adsorbate Water: InChIKey XLYOFNOQVPJJNP-UHFFFAOYSA-N
Kind: experiment
Temperature: 303 K
Tabular data in the source: 0
pressure (bar)	Paladium(II) Ion fraction	Paladium(II) Ion uptake (mg/g)	Pt(IV) fraction	Pt(IV) uptake (mg/g)	Water fraction	Water uptake (mg/g)	total uptake (mg/g)
1.01325	3.11114	4.19713	34.4576	5.60332			
1.01325	20.0602	18.1324	84.3386	28.7852			
1.01325	28.1698	104.931	125.489	30.338			
1.01325	78.1672	104.313	172.426	28.0142			
