Adsorption isotherm of Nitrogen on TpBpy
DOI: 10.1021/acsami.7b02355
Article source: Figure 2
Adsorbate Nitrogen: InChIKey IJGRMHOSHXDMSA-UHFFFAOYSA-N
Kind: experiment
Temperature: 77 K
Tabular data in the source: 0
pressure (bar)	uptake (cm3(STP)/g)
0	0
0	12.933
0	25.8661
0	42.0323
0	58.1986
0	71.1316
0	77.5982
0	87.2979
0	93.7644
0	129.33
0	142.263
0.002942	155.196
0.002942	169.746
0.005883	206.928
0.008825	219.861
0.008825	236.028
0.008825	248.961
0.026475	284.527
0.050009	323.326
0.073542	362.125
0.100018	394.457
0.126493	420.323
0.150026	430.023
0.176502	442.956
0.202977	449.423
0.229452	449.423
0.252986	452.656
0.279461	455.889
0.305936	455.889
0.326528	459.122
0.355945	459.122
0.376537	462.356
0.403012	462.356
0.429487	462.356
0.455962	465.589
0.479496	465.589
0.508913	465.589
0.532447	468.822
0.558922	468.822
0.582455	468.822
0.608931	472.055
0.632464	472.055
0.655998	475.289
0.685415	475.289
0.71189	478.522
0.733953	481.755
0.760428	484.988
0.779549	488.222
0.808966	494.688
0.838383	504.388
0.861916	510.854
0.88545	523.788
0.908983	543.187
0.935459	575.52
0.958992	630.485
0.970759	743.649
0.908983	636.951
0.88545	604.619
0.861916	591.686
0.835441	578.753
0.808966	569.053
0.785432	565.82
0.761899	556.12
0.732482	549.654
0.71189	546.42
0.688356	539.954
0.655998	539.954
0.632464	533.487
0.608931	533.487
0.582455	530.254
0.553038	527.021
0.532447	527.021
0.50303	527.021
0.482438	497.921
0.455962	478.522
0.429487	475.289
0.403012	475.289
0.38242	472.055
0.355945	475.289
0.32947	468.822
0.300053	468.822
0.279461	465.589
0.250044	465.589
0.22651	462.356
0.200035	459.122
0.179443	449.423
0.150026	439.723
0.126493	426.79
0.102959	407.39
0.079426	368.591
0.050009	333.025
0.025004	292.61
