Adsorption isotherm of Nitrogen on Pd@TpBpy
DOI: 10.1021/acsami.7b02355
Article source: Figure 2
Adsorbate Nitrogen: InChIKey IJGRMHOSHXDMSA-UHFFFAOYSA-N
Kind: experiment
Temperature: 77 K
Tabular data in the source: 0
pressure (bar)	uptake (cm3(STP)/g)
0.002942	6.46651
0.002942	22.6328
0.002942	38.7991
0.002942	58.1986
0.002942	74.3649
0.002942	80.8314
0.002942	103.464
0.008825	116.397
0.011767	129.33
0.026475	145.497
0.047067	164.896
0.079426	177.829
0.102959	184.296
0.126493	193.995
0.150934	198.017
0.17647	198.017
0.200587	202.695
0.230378	204.254
0.251658	208.932
0.278612	212.05
0.304148	216.728
0.328264	218.287
0.352381	221.406
0.352381	221.406
0.377917	222.965
0.40629	227.643
0.428988	227.643
0.455942	229.202
0.480059	235.439
0.508432	235.439
0.532549	235.439
0.556666	241.676
0.582201	244.794
0.607737	246.354
0.633272	254.15
0.65597	255.709
0.681506	260.387
0.707041	263.505
0.731158	268.183
0.756694	274.42
0.782229	282.216
0.810602	293.131
0.836138	302.487
0.860255	316.52
0.884372	336.79
0.911326	364.857
0.939699	411.634
0.962397	502.07
0.976583	648.64
0.936861	505.189
0.911326	435.023
0.88579	397.601
0.858836	372.653
0.837556	355.501
0.810602	343.027
0.782229	330.553
0.756694	321.198
0.733996	311.842
0.70846	308.724
0.684343	304.046
0.658808	299.368
0.631854	294.69
0.609155	288.453
0.585038	288.453
0.555247	283.776
0.53113	282.216
0.505594	275.979
0.482896	261.946
0.457361	257.268
0.430407	254.15
0.40629	251.031
0.377917	249.472
0.355219	247.913
0.326846	244.794
0.304148	241.676
0.275775	238.557
0.253076	236.998
0.226122	235.439
0.202005	233.88
0.17647	229.202
0.152353	224.524
0.125399	221.406
0.099863	215.169
0.075746	207.372
0.053048	193.339
0.026094	174.628
