Adsorption isotherm of Nitrogen on IFP-7
DOI: 10.1039/C3cc42156b
Adsorbate Nitrogen: InChIKey IJGRMHOSHXDMSA-UHFFFAOYSA-N
Temperature: 298 K
Tabular data in the source: 0
pressure (bar)	uptake (cm3(STP)/g)
0.00700672	0.332241
0.0512229	0.376651
0.0861176	0.249097
0.100106	0.58835
0.118723	0.607049
0.165304	1.14164
0.202526	1.01642
0.267699	1.24448
0.398033	1.53799
0.530694	1.83384
0.66338	2.45491
0.803035	2.92038
0.935683	3.05361
1.00321	3.60924
1.06836	3.51207
