Adsorption isotherm of Carbon Dioxide on IFP-7
DOI: 10.1039/C3cc42156b
Adsorbate Carbon Dioxide: InChIKey CURLTUGMZLYLDI-UHFFFAOYSA-N
Temperature: 298 K
Tabular data in the source: 0
pressure (bar)	uptake (cm3(STP)/g)
0.0656113	5.87539
0.133474	10.7791
0.196594	14.545
0.259665	17.6621
0.325049	20.6185
0.390423	23.4127
0.453429	25.719
0.516424	27.8632
0.581759	30.1708
0.647055	31.992
0.712365	33.9753
0.777649	35.6343
0.840606	37.292
0.903538	38.6253
0.968796	39.9599
1.03406	41.2946
1.09931	42.6292
