Adsorption isotherm of Hydrogen on IFP-7
DOI: 10.1039/C3cc42156b
Adsorbate Hydrogen: InChIKey UFHFLCQGNIYNRP-UHFFFAOYSA-N
Temperature: 77 K
Tabular data in the source: 0
pressure (bar)	uptake (cm3(STP)/g)
0.00683242	4.0166
0.0133364	5.67663
0.0134021	6.14794
0.0177161	7.09753
0.0244172	10.1715
0.0354323	14.1951
0.0440932	16.3299
0.0569697	18.7073
0.0656635	21.0778
0.0720689	22.0309
0.0805656	22.9874
0.0890952	24.1796
0.099749	25.6109
0.106122	26.3283
0.131546	28.7266
0.156839	30.1823
0.184224	31.6415
0.211575	32.865
0.236835	34.085
0.264121	34.8372
0.289316	35.5859
0.318692	36.3416
0.343888	37.0903
0.366991	37.8355
0.394277	38.5877
0.421529	39.1042
0.444633	39.8495
0.469795	40.3625
0.499204	41.3538
0.5244	42.1026
0.549561	42.6156
0.574722	43.1287
0.602009	43.8808
0.629295	44.633
0.652365	45.1426
0.679617	45.6591
0.706903	46.4113
0.732065	46.9244
0.759319	47.4409
0.784447	47.7183
0.8117	48.2348
0.836862	48.7479
0.862057	49.4966
0.887186	49.774
0.914438	50.2905
0.9396	50.8036
0.964762	51.3166
0.992014	51.8332
1.01927	52.3497
1.04443	52.8628
1.09057	53.8819
1.11988	54.1663
