Adsorption isotherm of Carbon Dioxide on IFP-7
DOI: 10.1039/C3cc42156b
Adsorbate Carbon Dioxide: InChIKey CURLTUGMZLYLDI-UHFFFAOYSA-N
Temperature: 273 K
Tabular data in the source: 0
pressure (bar)	uptake (cm3(STP)/g)
0.0118493	2.76354
0.040202	8.29328
0.108404	17.5756
0.174091	24.424
0.246696	30.4655
0.316849	34.8841
0.386951	38.6539
0.457014	41.9373
0.52938	44.8976
0.597042	47.2066
0.667018	49.3548
0.736982	51.3408
0.80926	53.1659
0.876871	54.8262
0.946783	56.1635
1.01674	57.9874
1.08664	59.1625
1.15654	60.3377
