Adsorption isotherm of Carbon Dioxide on IFP-7
DOI: 10.1039/C3cc42156b
Adsorbate Carbon Dioxide: InChIKey CURLTUGMZLYLDI-UHFFFAOYSA-N
Temperature: 195 K
Tabular data in the source: 0
pressure (bar)	uptake (cm3(STP)/g)
0.00707331	20.7447
0.00947122	37.9477
0.0128765	47.3774
0.026607	55.8819
0.0380819	63.2047
0.053214	66.7639
0.0682804	69.8518
0.0916465	72.4823
0.116972	74.1736
0.15501	77.0641
0.211805	79.5146
0.281049	81.279
0.348202	83.0399
0.413197	84.326
0.478094	84.9051
0.547207	85.7269
0.612104	86.306
0.679125	87.1243
0.746147	87.9426
0.813102	88.2895
0.882182	88.8756
0.95332	89.2296
1.01609	89.5696
