Adsorption isotherm of Nitrogen on IFP-7
DOI: 10.1039/C3cc42156b
Adsorbate Nitrogen: InChIKey IJGRMHOSHXDMSA-UHFFFAOYSA-N
Temperature: 77 K
Tabular data in the source: 0
pressure (bar)	uptake (cm3(STP)/g)
0.0125808	0.256527
0.106822	1.35568
0.115188	1.36959
0.146591	1.65742
0.17587	1.70612
0.198841	1.50872
0.223938	1.55046
0.251157	1.83134
0.27622	1.63742
0.322164	1.24263
0.37448	1.56525
0.42673	1.41655
0.47689	1.26437
0.527082	1.34785
0.57515	1.1922
0.625309	1.04002
0.677559	0.891322
0.727784	1.21046
0.777943	1.05828
0.828069	0.670448
0.878229	0.518271
0.928421	0.601751
0.964006	0.896539
0.995507	1.89134
