Adsorption isotherm of Nitrogen on IFP-7
DOI: 10.1039/C3cc42156b
Adsorbate Nitrogen: InChIKey IJGRMHOSHXDMSA-UHFFFAOYSA-N
Temperature: 195 K
Tabular data in the source: 0
pressure (bar)	uptake (cm3(STP)/g)
0.0146721	0.260005
0.0336912	1.70525
0.0483963	2.20091
0.0714996	2.94614
0.0861717	3.20615
0.105059	3.70877
0.119797	4.44009
0.134469	4.70009
0.155449	5.20619
0.170121	5.46619
0.186917	5.96533
0.205739	5.99664
0.220411	6.25664
0.235117	6.7523
0.266551	7.27579
0.30217	7.80624
0.337788	8.33668
0.369224	8.86017
0.402719	9.15148
0.467583	9.49497
0.536629	9.84541
0.603618	10.428
0.670574	10.775
0.73547	11.3541
0.802426	11.7011
0.869415	12.2837
0.936403	12.8663
1.00333	12.9776
1.06826	13.7924
1.13309	13.9003
