Adsorption isotherm of Nitrogen on IFP-7
DOI: 10.1039/C3cc42156b
Adsorbate Nitrogen: InChIKey IJGRMHOSHXDMSA-UHFFFAOYSA-N
Temperature: 273 K
Tabular data in the source: 0
pressure (bar)	uptake (cm3(STP)/g)
0.0512229	0.376651
0.0861302	0.411711
0.104748	0.43041
0.12105	0.609386
0.335238	1.96272
0.465584	2.41885
0.600623	3.36748
0.668161	4.08573
0.735636	3.9909
0.803149	4.38391
0.86831	4.44935
0.93581	4.67975
1.001	5.07043
1.06851	5.46344
