Adsorption isotherm of Methane on IFP-7
DOI: 10.1039/C3cc42156b
Adsorbate Methane: InChIKey VNWKTOKETHGBQD-UHFFFAOYSA-N
Temperature: 195 K
Tabular data in the source: 0
pressure (bar)	uptake (cm3(STP)/g)
0.0301327	6.17577
0.0554916	8.10277
0.0681709	9.06626
0.0851643	10.9793
0.102026	11.9498
0.116731	12.4455
0.141959	13.4298
0.156696	14.1611
0.167186	14.4142
0.183982	14.9133
0.207054	15.4229
0.219667	15.9151
0.240614	16.1855
0.253227	16.6777
0.267866	16.7021
0.30355	17.7038
0.337078	18.2308
0.370506	18.0508
0.406091	18.3456
0.470955	18.6891
0.53791	19.036
0.604866	19.383
0.671822	19.7299
0.738778	20.0769
0.803674	20.6561
0.87063	21.003
0.937586	21.35
1.01918	21.7213
