Adsorption isotherm of Methane on IFP-7
DOI: 10.1039/C3cc42156b
Adsorbate Methane: InChIKey VNWKTOKETHGBQD-UHFFFAOYSA-N
Temperature: 273 K
Tabular data in the source: 0
pressure (bar)	uptake (cm3(STP)/g)
0.0513091	1.48883
0.0723031	2.14949
0.0909451	2.48449
0.100266	2.65199
0.118908	2.98698
0.135236	3.48281
0.151562	3.97864
0.16789	4.47448
0.186531	4.80947
0.20052	5.1418
0.221488	5.47813
0.23784	6.2983
0.251815	6.46846
0.263464	6.63729
0.300773	7.63162
0.333402	8.29894
0.368346	8.80543
0.403289	9.31192
0.470864	10.4857
0.536097	11.496
0.601332	12.5064
0.66888	13.3558
0.736453	14.5296
0.803989	15.2169
0.869223	16.2273
0.934444	17.0754
1.01829	18.0964
1.12077	19.2902
