Adsorption isotherm of Arsenate, Water on GNPs/CuFe2O4 composite
DOI: 10.3390/s17061292
Article source: Figure 6
Adsorbate Arsenate: InChIKey HAYXDMNJJFVXCI-UHFFFAOYSA-N
Adsorbate Water: InChIKey XLYOFNOQVPJJNP-UHFFFAOYSA-N
Kind: experiment
Temperature: 298 K
Tabular data in the source: 0
pressure (bar)	Arsenate fraction	Arsenate uptake (mg/g)	Water fraction	Water uptake (mg/g)	total uptake (mg/g)
1.01325	5.266	19.163			
1.01325	11.175	41.623			
1.01325	20.575	63.21			
1.01325	42.802	73.19			
1.01325	66.156	108.824			
1.01325	88.078	121.993			
