Adsorption isotherm of Nitrogen on Tp-PaSO3Li-COF
DOI: 10.1039/d0cc00454e
Article source: Figure 1
Adsorbate Nitrogen: InChIKey IJGRMHOSHXDMSA-UHFFFAOYSA-N
Kind: experiment
Temperature: 77 K
Tabular data in the source: 0
pressure (bar)	uptake (cm3(STP)/g)
0.173783	144.441
0.216561	147.572
0.262866	153.236
0.251664	137.72
0.309537	159.255
0.300035	142.906
0.354033	165.812
0.349961	147.943
0.401384	167.96
0.383648	151.959
0.445632	172.806
0.425108	156.055
0.49115	181.553
0.486263	163.678
0.536793	183.275
0.530142	166.149
0.581389	193.806
0.573877	176.819
0.628053	197.212
0.61285	180.645
0.673746	203.94
0.663294	185.995
0.717953	207.461
0.722952	198.756
0.764857	218.927
0.763014	198.914
0.809864	227.133
0.856093	241.417
0.9017	259.145
0.894997	231.387
0.964397	308.213
0.996966	317.528
0.991538	359.865
1.00782	414.056
0.276834	139.712
0.217125	133.785
0.195413	131.245
0.171891	129.551
0.14475	126.164
0.119419	121.931
0.097706	119.39
0.081422	115.157
0.063328	110.923
0.025331	107.536
0.016284	99.9153
0.010856	93.9881
0.009047	86.3675
0.009047	80.4403
0.012666	109.229
0.02895	119.39
0.056091	124.471
0.075994	128.704
0.104944	134.632
0.135703	136.325
0.15832	140.982
0.235219	150.72
0.285881	156.647
0.329306	146.486
0.334734	163.421
0.381778	165.961
0.465009	177.815
0.4053	155.8
0.457772	161.727
0.508434	167.655
0.553669	171.041
0.513862	182.049
0.560906	190.093
0.605236	194.75
0.640519	182.896
0.656803	200.677
0.683944	189.67
0.705656	193.903
0.743653	213.378
0.788888	202.371
0.939066	275.191
0.960778	273.497
0.935447	254.869
0.895641	247.248
0.915544	242.168
0.843169	232.007
0.861262	222.693
0.790697	222.269
0.8106	210.838
0.834122	216.765
