Adsorption isotherm of Nitrogen on Tp-PaSO3Na-COF
DOI: 10.1039/d0cc00454e
Article source: Figure S15
Adsorbate Nitrogen: InChIKey IJGRMHOSHXDMSA-UHFFFAOYSA-N
Kind: experiment
Temperature: 77 K
Tabular data in the source: 0
pressure (bar)	uptake (cm3(STP)/g)
0.005379	118.891
0.010045	100.717
0.033518	148.991
0.038724	119.861
0.054296	153.601
0.068026	127.299
0.099417	160.565
0.100769	131.082
0.125593	163.637
0.130579	136.289
0.155792	167.316
0.154508	140.021
0.181615	143.836
0.232214	175.488
0.227988	148.347
0.249756	177.084
0.274136	154.896
0.282621	179.583
0.299455	158.625
0.307199	182.299
0.326658	160.536
0.355544	187.048
0.350466	164.589
0.381336	166.34
0.406251	168.433
0.441583	194.989
0.445315	172.934
0.471986	198.632
0.4771	177.141
0.502677	202.186
0.507052	179.444
0.53407	206.203
0.531278	182.89
0.566554	208.001
0.555011	185.378
0.597899	211.31
0.601844	190.532
0.629813	214.522
0.632093	193.533
0.659811	217.16
0.663817	195.665
0.691362	220.626
0.683336	198.335
0.723277	223.798
0.729359	203.101
0.75769	226.129
0.757788	205.326
0.786266	234.433
0.817011	238.872
0.848228	241.193
0.858098	221.762
0.880427	244.227
0.888731	226.967
0.910687	248.77
0.913356	231.577
0.941122	259.931
0.944589	239.289
0.96132	279.599
0.968097	256.765
1.00158	377.325
0.380599	189.226
0.409165	191.919
0.331029	184.175
0.176437	169.697
0.204162	172.391
0.013443	140.741
0.011762	136.027
0.008402	129.293
0.011762	111.785
0.05041	123.906
0.008402	95.6229
0.006721	88.8889
0.022685	118.519
0.989725	317.845
0.991405	285.522
0.832613	217.845
0.804887	213.805
0.781362	210.438
0.705746	200.673
0.57972	187.879
0.428489	171.044
0.205002	146.128
0.252052	152.189
0.078976	156.566
