Adsorption isotherm of Nitrogen on Tp-PaSO3K-COF
DOI: 10.1039/d0cc00454e
Article source: Figure S20
Adsorbate Nitrogen: InChIKey IJGRMHOSHXDMSA-UHFFFAOYSA-N
Kind: experiment
Temperature: 77 K
Tabular data in the source: 0
pressure (bar)	uptake (cm3(STP)/g)
0.003022	61.7393
0.020599	104.368
0.031359	77.8897
0.047837	109.482
0.057972	84.9087
0.076295	114.707
0.087035	90.2006
0.103806	118.941
0.115931	94.6854
0.131511	121.106
0.144024	98.8561
0.160272	123.592
0.174619	102.439
0.189727	127.389
0.201517	106.096
0.218231	129.844
0.230022	109.571
0.246736	132.622
0.258008	112.165
0.27537	136.64
0.287808	116.073
0.30555	138.644
0.31709	119.69
0.333912	140.837
0.345484	123.903
0.362654	144.884
0.373106	126.549
0.389259	147.894
0.40066	128.813
0.416933	151.77
0.430331	131.512
0.446268	155.647
0.456719	134.57
0.474772	157.5
0.486174	139.545
0.506257	161.346
0.525056	143.103
0.535582	163.757
0.554336	146.391
0.565172	165.693
0.573332	150.163
0.591641	169.4
0.601414	154.299
0.620146	172.901
0.62771	155.725
0.64865	175.488
0.656813	158.945
0.677155	179.156
0.682823	161.938
0.706825	181.848
0.705937	165.489
0.737662	184.978
0.737496	169.558
0.763354	171.569
0.79101	175.502
0.815991	180.747
0.841735	184.489
0.922769	202.481
0.957291	226.112
0.996406	338.935
0.503303	140.468
0.885348	195.485
0.93518	210.702
0.93518	228.261
0.906942	217.14
0.958435	246.99
0.986673	248.746
0.98169	289.13
0.864585	189.047
0.759107	190.803
0.789006	193.436
0.812261	196.948
0.837177	200.167
0.858771	204.264
0.883687	209.824
0.016611	98.913
0.011627	94.8161
0.008305	87.2074
0.009966	67.893
0.002492	56.1873
0.013289	72.2826
