Adsorption isotherm of Nitrogen on Zn-Pd-2
DOI: 10.1166/jnn.2012.5348
Adsorbate Nitrogen: InChIKey IJGRMHOSHXDMSA-UHFFFAOYSA-N
Temperature: 77 K
Tabular data in the source: 0
pressure (bar)	uptake (cm3(STP)/g)
0.00668702	1.59875
0.020061	2.79624
0.0434656	4.39185
0.0601831	4.98871
0.0835877	5.98433
0.100305	7.38119
0.127053	7.77618
0.153801	9.17116
0.177206	9.96677
0.203954	10.7618
0.250763	11.953
0.304259	13.1429
0.351068	13.9342
0.404564	15.3241
0.461404	16.3135
0.508213	17.3047
0.561709	17.6947
0.608518	18.2859
0.658671	19.4765
0.70548	20.0677
0.755633	21.2583
0.809129	22.0483
0.859281	24.4389
0.909434	27.4295
0.946213	30.0226
0.959587	32.6201
0.976304	37.4169
0.982991	40.0157
0.993022	41.8138
