Adsorption isotherm of Nitrogen on COF-122
DOI: 10.1021/jacs.0c07015
Article source: Figure S35
Adsorbate Nitrogen: InChIKey IJGRMHOSHXDMSA-UHFFFAOYSA-N
Kind: experiment
Temperature: 77 K
Tabular data in the source: 0
pressure (bar)	uptake (cm3(STP)/g)
0.01601	17.3632
0.016132	23.5477
0.022305	37.9305
0.024572	53.3759
0.024754	62.6528
0.02688	70.8829
0.034956	82.1574
0.04119	99.6324
0.045258	106.816
0.053213	111.906
0.063151	118.01
0.080963	125.082
0.100779	134.199
0.120554	141.255
0.140329	148.31
0.15217	151.306
0.175892	159.361
0.19761	165.37
0.213438	171.426
0.229226	175.421
0.250965	182.461
0.274646	188.454
0.290515	196.572
0.312233	202.581
0.37164	227.871
0.419266	253.256
0.470961	285.825
0.514721	314.335
0.575909	330.332
0.617261	336.181
0.660637	345.106
0.711744	347.783
0.7669	356.612
0.814081	359.321
0.857477	369.277
0.912613	377.076
0.958033	390.108
1.00173	415.525
0.02352	99.7763
0.047647	128.446
0.097155	149.692
0.156481	170.859
0.186073	177.835
0.219591	184.778
0.235379	188.773
0.253171	194.814
0.300696	215.046
0.405988	277.076
0.441915	306.68
0.461893	324.043
0.489684	339.281
0.507455	344.291
0.601959	356.924
0.698365	366.448
0.790825	374.974
0.905023	390.539
1.00175	416.556
