Adsorption isotherm of Nitrogen on COF-119 treated with H2O for 24h
DOI: 10.1021/jacs.0c07015
Article source: Figure S41
Adsorbate Nitrogen: InChIKey IJGRMHOSHXDMSA-UHFFFAOYSA-N
Kind: experiment
Temperature: 77 K
Tabular data in the source: 0
pressure (bar)	uptake (cm3(STP)/g)
0.012536	78.7879
0.01617	106.061
0.021802	133.333
0.025254	157.576
0.030159	172.727
0.035973	203.03
0.042151	239.394
0.047419	260.606
0.059047	287.879
0.066133	306.061
0.075399	327.273
0.087026	354.545
0.097928	369.697
0.113189	390.909
0.12191	403.03
0.141168	424.242
0.152069	439.394
0.171509	463.636
0.186953	487.879
0.201851	503.03
0.212752	518.182
0.228013	539.394
0.253267	660.606
0.274524	681.818
0.28924	693.939
0.321762	703.03
0.356282	712.121
0.364458	715.151
0.404791	721.212
0.465837	739.394
0.510168	745.455
0.552318	748.485
0.597194	763.636
0.649338	766.667
0.706568	787.879
0.757076	796.97
0.813943	812.121
0.854458	821.212
0.917684	842.424
0.965649	875.758
1.02379	945.455
1.07793	1148.48
0.03997	303.03
0.080849	384.848
0.136263	442.424
0.187316	493.939
0.221472	530.303
0.242184	675.758
0.269074	690.909
0.289422	696.97
0.348469	715.151
0.443853	739.394
0.480372	748.485
0.500539	751.515
0.524884	757.576
0.553409	766.667
0.656423	784.849
0.757439	803.03
0.863543	839.394
0.955111	900
1.08175	1145.45
