Adsorption isotherm of Nitrogen on COF-120
DOI: 10.1021/jacs.0c07015
Article source: Figure 5c
Adsorbate Nitrogen: InChIKey IJGRMHOSHXDMSA-UHFFFAOYSA-N
Kind: experiment
Temperature: 77 K
Tabular data in the source: 0
pressure (bar)	uptake (cm3(STP)/g)
0.002332	36.193
0.002176	47.5025
0.004486	54.2873
0.00471	58.8076
0.004877	62.1978
0.005156	67.8481
0.007578	76.8931
0.007968	84.8036
0.010669	99.4988
0.01924	113.077
0.019631	120.988
0.021997	128.903
0.022276	134.553
0.028537	141.347
0.033548	162.827
0.042063	175.275
0.04838	183.199
0.065131	202.445
0.077597	214.902
0.090007	226.229
0.10648	239.826
0.11466	245.493
0.131245	261.35
0.169892	284.035
0.189981	290.859
0.200081	295.402
0.216051	298.827
0.232022	302.252
0.249967	305.682
0.273783	307.995
0.291673	310.295
0.309619	313.725
0.365096	317.238
0.420574	320.752
0.476275	328.786
0.511887	329.995
0.569452	335.773
0.619059	340.404
0.674648	346.177
0.720305	350.799
0.783795	356.59
0.825501	361.203
0.887295	372.64
0.923298	381.76
0.985818	407.888
1.02366	454.301
0.015435	156.007
0.055701	211.464
0.067999	220.531
0.080242	228.468
0.096547	238.673
0.112908	250.009
0.123231	259.072
0.16689	303.237
0.201085	315.743
0.226932	319.19
0.247021	326.015
0.300635	331.784
0.409838	343.327
0.449457	345.675
0.46526	345.71
0.483038	345.75
0.511195	355.982
0.606403	364.104
0.713519	373.383
0.822666	383.796
0.918209	398.698
1.01982	456.552
