Adsorption isotherm of Nitrogen on COF-119
DOI: 10.1021/jacs.0c07015
Article source: Figure 3b
Adsorbate Nitrogen: InChIKey IJGRMHOSHXDMSA-UHFFFAOYSA-N
Kind: experiment
Temperature: 77 K
Tabular data in the source: 0
pressure (bar)	uptake (cm3(STP)/g)
0.006191	83.8457
0.004127	108.787
0.006191	127.459
0.006191	143.036
0.010318	171.035
0.012382	195.938
0.008255	255.166
0.012382	276.935
0.016509	308.05
0.018573	320.492
0.0227	339.145
0.033018	360.857
0.043337	385.684
0.053655	407.395
0.063973	422.877
0.074291	438.358
0.082546	453.858
0.092864	463.109
0.10731	481.667
0.127946	500.168
0.140328	515.63
0.158901	540.381
0.187792	571.267
0.208428	698.803
0.227001	729.784
0.270338	748.076
0.290974	757.231
0.361138	765.93
0.410665	771.704
0.468448	774.286
0.513848	798.789
0.563375	804.563
0.61703	816.529
0.664494	831.668
0.716085	834.307
0.765613	849.427
0.813076	855.219
0.877049	898.243
0.924513	944.534
0.963723	1056.32
1.00912	1177.4
0.002064	230.301
0.018573	357.875
0.055718	426.068
0.10731	503.474
0.160964	549.708
0.183664	583.766
0.200174	723.801
0.229065	745.341
0.249701	757.612
0.299229	757.155
0.404475	790.452
0.429238	796.455
0.462257	805.496
0.48702	805.267
0.50353	808.23
0.598457	829.162
0.689258	850.131
0.811013	883.276
0.912131	1028.76
1.00293	1189.92
