Adsorption isotherm of Nitrogen on COF-121
DOI: 10.1021/jacs.0c07015
Article source: Figure 5d
Adsorbate Nitrogen: InChIKey IJGRMHOSHXDMSA-UHFFFAOYSA-N
Kind: experiment
Temperature: 77 K
Tabular data in the source: 0
pressure (bar)	uptake (cm3(STP)/g)
0.000895	24.9549
0.005263	34.1973
0.005514	40.6781
0.005765	47.1589
0.007841	50.8569
0.007197	59.192
0.008987	80.4834
0.013105	86.9536
0.015432	97.1324
0.01758	102.682
0.019764	109.158
0.025744	113.771
0.036485	141.519
0.040746	151.693
0.052669	159.993
0.062838	172.928
0.068746	175.69
0.078664	182.144
0.086613	187.678
0.096459	192.281
0.116152	201.486
0.14587	219.923
0.161983	236.545
0.185936	255.924
0.190376	270.727
0.214294	289.18
0.251746	307.596
0.25769	311.283
0.273301	314.944
0.290881	319.525
0.318057	322.229
0.362742	327.662
0.424757	331.195
0.469334	333.851
0.51008	337.443
0.575962	340.966
0.630278	345.447
0.676717	346.245
0.727203	351.663
0.773642	352.461
0.835656	355.995
0.870638	360.529
0.924883	363.158
0.977409	371.347
1.02045	384.192
0.020731	134.155
0.065165	183.107
0.118587	214.442
0.158545	247.666
0.184647	272.594
0.205307	306.797
0.227005	317.849
0.248595	326.123
0.308819	333.365
0.411688	343.268
0.436823	343.199
0.477677	349.569
0.508648	350.41
0.539691	353.103
0.603639	356.631
0.712057	360.037
0.803145	365.343
0.909737	371.533
0.971752	375.066
1.02045	384.192
