Adsorption isotherm of Methane on A25
DOI: 10.1016/j.carbon.2014.12.043
Article source: Figure 1
Adsorbate Methane: InChIKey VNWKTOKETHGBQD-UHFFFAOYSA-N
Kind: experiment
Temperature: 111 K
Tabular data in the source: 0
pressure (bar)	uptake (mg/g)
0	0
0.000187	10.8889
0.00037	32.6667
0.000553	57.5556
0.000729	107.333
0.00128	169.556
0.005622	228.667
0.013003	262.889
0.01622	276.889
0.041202	381.111
0.062215	449.556
0.0821	485.333
0.091951	493.111
0.095546	511.778
0.095874	622.222
