Adsorption isotherm of Methane on water-preadsorbed A25
DOI: 10.1016/j.carbon.2014.12.043
Article source: Figure 1
Adsorbate Methane: InChIKey VNWKTOKETHGBQD-UHFFFAOYSA-N
Kind: experiment
Temperature: 111 K
Tabular data in the source: 0
pressure (bar)	uptake (mg/g)
0	0
0.000731	99.5556
0.004509	140
0.008106	152.444
0.013785	171.111
0.028174	211.556
0.032529	222.444
0.054114	278.444
0.077601	308
0.082526	312.667
