Adsorption isotherm of Methane on C32H34N4O15Cl5Zn3
DOI: 10.1039/B927486C
Adsorbate Methane: InChIKey VNWKTOKETHGBQD-UHFFFAOYSA-N
Temperature: 273 K
Tabular data in the source: 0
pressure (bar)	uptake (cm3(STP)/g)
0.0141082	0.17341
0.0761842	0.578035
0.124152	0.924855
0.180585	1.27168
0.239839	1.6185
0.290629	1.90751
0.34424	2.25434
0.400673	2.54335
0.459927	2.89017
0.513538	3.06358
0.569971	3.4104
0.623582	3.64162
0.680015	3.93064
0.736447	4.16185
0.79288	4.39306
0.846491	4.62428
0.902924	4.85549
0.959357	5.0289
1.01579	5.26012
1.0694	5.49133
