Adsorption isotherm of Oxygen on C32H34N4O15Cl5Zn3
DOI: 10.1039/B927486C
Adsorbate Oxygen: InChIKey MYMOFIZGZYHOMD-UHFFFAOYSA-N
Temperature: 77 K
Tabular data in the source: 0
pressure (bar)	uptake (cm3(STP)/g)
0.000982943	16.6667
0.00835501	21.2
0.0152356	21.6
0.0201503	22
0.0275224	22.2667
0.03342	22.5333
0.0403006	22.8
0.0466898	22.8
0.0530789	23.0667
0.0589766	23.2
0.0658572	23.2
0.0722463	23.4667
0.0786354	23.4667
0.0845331	23.4667
0.0914137	23.8667
0.0978028	23.8667
0.104192	24
0.110581	24
0.117462	24.1333
0.123359	24.4
0.13024	24.5333
0.136629	24.5333
0.143018	24.6667
0.149407	24.9333
0.156288	25.2
0.162677	25.7333
0.167592	26.9333
