Adsorption isotherm of Nitrogen on C32H34N4O15Cl5Zn3
DOI: 10.1039/B927486C
Adsorbate Nitrogen: InChIKey IJGRMHOSHXDMSA-UHFFFAOYSA-N
Temperature: 273 K
Tabular data in the source: 0
pressure (bar)	uptake (cm3(STP)/g)
0.0111684	0.117497
0.0753865	0.357056
0.125644	0.478814
0.184278	0.485206
0.242912	0.840436
0.301546	0.963107
0.329467	1.08243
0.36018	1.20206
0.388101	1.32138
0.418814	1.55729
0.469071	1.67905
0.496992	1.68209
0.61426	2.04371
0.737112	2.40594
0.85438	2.65128
0.97444	3.01321
1.09171	3.25855
