Adsorption isotherm of Hydrogen on C32H34N4O15Cl5Zn3
DOI: 10.1039/B927486C
Adsorbate Hydrogen: InChIKey UFHFLCQGNIYNRP-UHFFFAOYSA-N
Temperature: 77 K
Tabular data in the source: 0
pressure (bar)	uptake (cm3(STP)/g)
0.239234	1.48368
0.478469	3.56083
0.717703	5.63798
1.43541	11.5727
3.82775	22.5519
6.45933	29.9703
9.33014	36.7953
11.9618	41.2463
14.5933	45.1039
17.4641	48.6647
20.0957	51.0386
22.7273	53.7092
25.3588	55.7864
28.4689	58.1602
30.8612	59.6439
33.4928	61.4243
38.9952	64.3917
46.6507	67.9525
51.9139	70.0297
57.6555	72.4036
60.2871	72.997
62.6794	73.8872
68.421	75.3709
73.445	77.4481
78.7081	78.635
83.9713	80.1187
86.8421	81.3056
89.7129	81.8991
92.1053	82.1958
94.7368	83.0861
97.6077	83.6795
100.478	84.273
