Adsorption isotherm of Methane on C32H34N4O15Cl5Zn3
DOI: 10.1039/B927486C
Adsorbate Methane: InChIKey VNWKTOKETHGBQD-UHFFFAOYSA-N
Temperature: 273 K
Tabular data in the source: 0
pressure (bar)	uptake (cm3(STP)/g)
0.0446735	0.702545
0.0670102	1.05382
0.0949311	1.4057
0.125644	1.6416
0.153565	2.10977
0.181486	2.57793
0.212199	2.93011
0.24012	3.16571
0.295962	3.86948
0.357388	4.57385
0.41323	5.27761
0.471863	5.74912
0.530497	6.45318
0.583547	7.04036
0.644973	7.62845
0.700815	8.21594
0.756657	8.80342
0.812499	9.04207
0.890677	9.74826
0.929766	10.2176
0.985608	10.8051
1.06658	11.2791
1.11963	11.6337
