Adsorption isotherm of Carbon Dioxide on C32H34N4O15Cl5Zn3
DOI: 10.1039/B927486C
Adsorbate Carbon Dioxide: InChIKey CURLTUGMZLYLDI-UHFFFAOYSA-N
Temperature: 273 K
Tabular data in the source: 0
pressure (bar)	uptake (cm3(STP)/g)
0.0139605	1.28059
0.0251288	2.09576
0.0335051	2.56179
0.0474656	3.7261
0.0809707	6.05534
0.142397	9.89925
0.212199	13.8603
0.279209	16.8909
0.410437	22.1378
0.541666	26.1056
0.675686	29.4923
0.804122	32.0644
0.935351	34.288
1.06937	36.2794
