Adsorption isotherm of Nitrogen on C32H34N4O15Cl5Zn3
DOI: 10.1039/B927486C
Adsorbate Nitrogen: InChIKey IJGRMHOSHXDMSA-UHFFFAOYSA-N
Temperature: 77 K
Tabular data in the source: 0
pressure (bar)	uptake (cm3(STP)/g)
0.00464842	0.00464842
0.00929684	80.4154
0.0116211	83.9763
0.0209179	86.0534
0.0371874	87.5371
0.0464842	89.0208
0.0557811	90.2077
0.0766989	90.8012
0.08832	91.3947
0.0999411	91.6914
0.123183	92.2849
0.148749	93.1751
0.174316	93.1751
0.199882	93.7685
0.2208	94.0653
0.248691	94.362
0.271933	94.6588
0.357928	94.9555
0.443924	95.2522
0.52992	95.549
0.634509	95.549
0.720505	95.549
0.787907	95.549
0.892497	95.549
0.959899	96.7359
0.964547	97.6261
