Adsorption isotherm of Nitrogen on C32H34N4O15Cl5Zn3
DOI: 10.1039/B927486C
Adsorbate Nitrogen: InChIKey IJGRMHOSHXDMSA-UHFFFAOYSA-N
Temperature: 77 K
Tabular data in the source: 0
pressure (bar)	uptake (cm3(STP)/g)
0.00242274	0.00242274
0.00484549	13.3333
0.0242274	13.6
0.0460321	13.8667
0.0678368	14
0.0799505	14
0.0969097	14.1333
0.116292	14.2667
0.138096	14.2667
0.155056	14.2667
0.179283	14.2667
0.196242	14.4
0.215624	14.4
0.237429	14.4
0.254388	14.5333
0.27377	14.5333
0.293152	14.4
0.314957	14.5333
0.334339	14.5333
0.351298	14.6667
0.373102	14.6667
0.407021	14.5333
0.428826	14.6667
0.448207	14.5333
0.486971	14.5333
0.508776	14.5333
0.525735	14.5333
0.564499	14.5333
0.583881	14.5333
0.605686	14.5333
0.64445	14.4
0.663832	14.5333
0.683214	14.6667
0.719555	14.6667
0.741359	14.6667
0.763164	14.6667
0.797082	14.6667
0.818887	14.6667
0.840692	14.8
0.877033	14.8
0.898838	14.9333
0.915797	14.9333
0.949715	15.7333
0.956984	16
