Adsorption isotherm of Hydrogen on C32H34N4O15Cl5Zn3
DOI: 10.1039/B927486C
Adsorbate Hydrogen: InChIKey UFHFLCQGNIYNRP-UHFFFAOYSA-N
Temperature: 77 K
Tabular data in the source: 0
pressure (bar)	uptake (cm3(STP)/g)
0.498753	2
1.74564	6
4.2394	12.1333
6.73317	14.6667
9.22693	16.9333
11.7207	19.0667
14.7132	20.5333
17.4564	21.7333
19.9501	22.8
22.6933	23.7333
25.4364	24.4
31.1721	25.8667
33.1671	26.5333
38.6534	27.6
41.8953	28.1333
46.8828	29.2
50.1247	29.7333
54.6135	30.6667
57.3566	31.2
60.0998	31.6
63.0923	32.1333
68.0798	33.0667
73.3167	33.8667
78.5536	34.6667
81.5461	35.2
84.2893	35.6
86.783	35.8667
89.7756	36.4
92.7681	36.9333
95.0125	37.3333
97.7556	37.7333
100.499	38.1333
