Adsorption isotherm of Carbon Dioxide on C32H34N4O15Cl5Zn3
DOI: 10.1039/B927486C
Adsorbate Carbon Dioxide: InChIKey CURLTUGMZLYLDI-UHFFFAOYSA-N
Temperature: 273 K
Tabular data in the source: 0
pressure (bar)	uptake (cm3(STP)/g)
0.0141082	0.809249
0.0733626	3.58382
0.12133	5.31792
0.177763	6.87861
0.239839	8.20809
0.29345	9.24855
0.349883	10.1734
0.406316	10.9827
0.457105	11.7919
0.51636	12.4277
0.569971	13.0058
0.626404	13.5838
0.680015	14.104
0.736447	14.6243
0.79288	15.0867
0.852135	15.6069
0.902924	16.0116
0.959357	16.4162
1.01579	16.763
1.07222	17.1676
