Adsorption isotherm of Nitrogen on C32H34N4O15Cl5Zn3
DOI: 10.1039/B927486C
Adsorbate Nitrogen: InChIKey IJGRMHOSHXDMSA-UHFFFAOYSA-N
Temperature: 273 K
Tabular data in the source: 0
pressure (bar)	uptake (cm3(STP)/g)
0.0141082	0.0578035
0.0761842	0.17341
0.180585	0.231214
0.237018	0.231214
0.29345	0.346821
0.347061	0.404624
0.403494	0.462428
0.459927	0.520231
0.513538	0.635838
0.567149	0.693642
0.626404	0.751445
0.680015	0.809249
0.733626	0.867052
0.790058	0.924855
0.846491	0.982659
0.902924	1.09827
0.959357	1.09827
1.01015	1.09827
1.06658	1.27168
