Adsorption isotherm of Copper(II) Ion, Water on Posidonia-OH-NZVI
DOI: 10.1007/s11356-017-0247-0
Article source: Figure 9
Adsorbate Copper(II) Ion: InChIKey JPVYNHNXODAKFH-UHFFFAOYSA-N
Adsorbate Water: InChIKey XLYOFNOQVPJJNP-UHFFFAOYSA-N
Kind: experiment
Temperature: 298 K
Tabular data in the source: 0
pressure (bar)	Copper(II) Ion fraction	Copper(II) Ion uptake (mg/g)	Water fraction	Water uptake (mg/g)	total uptake (mg/g)
1.01325	0.265	22.68			
1.01325	0.582	45.64			
1.01325	0.691	91.14			
1.01325	9.31	253.59			
1.01325	17.658	338.48			
1.01325	28.366	419.98			
1.01325	44.155	445.51			
1.01325	69.331	459.21			
1.01325	118.528	465.84			
1.01325	154.873	454.27			
1.01325	220.485	459.26			
