Adsorption isotherm of Copper(II) Ion, Water on Posidonia-OH
DOI: 10.1007/s11356-017-0247-0
Article source: Figure 9
Adsorbate Copper(II) Ion: InChIKey JPVYNHNXODAKFH-UHFFFAOYSA-N
Adsorbate Water: InChIKey XLYOFNOQVPJJNP-UHFFFAOYSA-N
Kind: experiment
Temperature: 298 K
Tabular data in the source: 0
pressure (bar)	Copper(II) Ion fraction	Copper(II) Ion uptake (mg/g)	Water fraction	Water uptake (mg/g)	total uptake (mg/g)
1.01325	0.579	22.68			
1.01325	4.738	166.12			
1.01325	10.094	229.82			
1.01325	24.839	299.63			
1.01325	45.822	336.43			
1.01325	72.1	349.73			
1.01325	110.544	351.06			
1.01325	138.918	351.46			
1.01325	183.446	347.9			
