Adsorption isotherm of Copper(II) Ion, Water on Posidonia Oceanica
DOI: 10.1007/s11356-017-0247-0
Article source: Figure 9
Adsorbate Copper(II) Ion: InChIKey JPVYNHNXODAKFH-UHFFFAOYSA-N
Adsorbate Water: InChIKey XLYOFNOQVPJJNP-UHFFFAOYSA-N
Kind: experiment
Temperature: 298 K
Tabular data in the source: 0
pressure (bar)	Copper(II) Ion fraction	Copper(II) Ion uptake (mg/g)	Water fraction	Water uptake (mg/g)	total uptake (mg/g)
1.01325	0.579	22.68			
1.01325	15.592	148.05			
1.01325	29.395	229.95			
1.01325	49.489	295.54			
1.01325	79.282	321.61			
1.01325	110.961	332.59			
1.01325	142.64	339.09			
1.01325	172.483	340.16			
