Adsorption isotherm of Lead(II) Ion, Water on Posidonia-OH
DOI: 10.1007/s11356-017-0247-0
Article source: Figure 9
Adsorbate Lead(II) Ion: InChIKey RVPVRDXYQKGNMQ-UHFFFAOYSA-N
Adsorbate Water: InChIKey XLYOFNOQVPJJNP-UHFFFAOYSA-N
Kind: experiment
Temperature: 298 K
Tabular data in the source: 0
pressure (bar)	Lead(II) Ion fraction	Lead(II) Ion uptake (mg/g)	Water fraction	Water uptake (mg/g)	total uptake (mg/g)
1.01325	0.216	0.8			
1.01325	15.566	145.01			
1.01325	36.745	241.37			
1.01325	52.646	289.49			
1.01325	78.795	309.6			
1.01325	104.784	309.75			
1.01325	152.665	311.79			
1.01325	209.929	309.41			
