Adsorption isotherm of Cadmium(II) Ion, Water on Posidonia Oceanica
DOI: 10.1007/s11356-017-0247-0
Article source: Figure 9
Adsorbate Cadmium(II) Ion: InChIKey WLZRMCYVCSSEQC-UHFFFAOYSA-N
Adsorbate Water: InChIKey XLYOFNOQVPJJNP-UHFFFAOYSA-N
Kind: experiment
Temperature: 298 K
Tabular data in the source: 0
pressure (bar)	Cadmium(II) Ion fraction	Cadmium(II) Ion uptake (mg/g)	Water fraction	Water uptake (mg/g)	total uptake (mg/g)
1.01325	0.313	0.79			
1.01325	24.233	50.28			
1.01325	62.677	88.24			
1.01325	97.363	110.43			
1.01325	132.102	119.81			
1.01325	157.962	119.82			
1.01325	188.942	119.83			
