Adsorption isotherm of Lead(II) Ion, Water on Posidonia-OH-NZVI
DOI: 10.1007/s11356-017-0247-0
Article source: Figure 9
Adsorbate Lead(II) Ion: InChIKey RVPVRDXYQKGNMQ-UHFFFAOYSA-N
Adsorbate Water: InChIKey XLYOFNOQVPJJNP-UHFFFAOYSA-N
Kind: experiment
Temperature: 298 K
Tabular data in the source: 0
pressure (bar)	Lead(II) Ion fraction	Lead(II) Ion uptake (mg/g)	Water fraction	Water uptake (mg/g)	total uptake (mg/g)
1.01325	0.216	0.8			
1.01325	8.238	102.39			
1.01325	15.505	199.28			
1.01325	33.666	286.66			
1.01325	54.74	363.6			
1.01325	83.635	411.59			
1.01325	122.566	412.14			
1.01325	157.183	412.57			
1.01325	214.124	402.28			
