Adsorption isotherm of Cadmium(II) Ion, Water on Posidonia-OH
DOI: 10.1007/s11356-017-0247-0
Article source: Figure 9
Adsorbate Cadmium(II) Ion: InChIKey WLZRMCYVCSSEQC-UHFFFAOYSA-N
Adsorbate Water: InChIKey XLYOFNOQVPJJNP-UHFFFAOYSA-N
Kind: experiment
Temperature: 298 K
Tabular data in the source: 0
pressure (bar)	Cadmium(II) Ion fraction	Cadmium(II) Ion uptake (mg/g)	Water fraction	Water uptake (mg/g)	total uptake (mg/g)
1.01325	0.313	0.79			
1.01325	15.869	84.67			
1.01325	38.951	145.69			
1.01325	83.771	170.35			
1.01325	117.936	181.01			
1.01325	161.768	169.99			
1.01325	225.712	170.31			
