Adsorption isotherm of Cadmium(II) Ion, Water on Posidonia-OH-NZVI
DOI: 10.1007/s11356-017-0247-0
Article source: Figure 9
Adsorbate Cadmium(II) Ion: InChIKey WLZRMCYVCSSEQC-UHFFFAOYSA-N
Adsorbate Water: InChIKey XLYOFNOQVPJJNP-UHFFFAOYSA-N
Kind: experiment
Temperature: 298 K
Tabular data in the source: 0
pressure (bar)	Cadmium(II) Ion fraction	Cadmium(II) Ion uptake (mg/g)	Water fraction	Water uptake (mg/g)	total uptake (mg/g)
1.01325	0.313	0.79			
1.01325	6.308	89.01			
1.01325	20.872	168.75			
1.01325	39.926	264.96			
1.01325	83.853	319.58			
1.01325	122.199	318.61			
1.01325	162.007	319.81			
1.01325	196.904	322.98			
