Adsorption isotherm of Lead(II) Ion, Water on Posidonia Oceanica
DOI: 10.1007/s11356-017-0247-0
Article source: Figure 9
Adsorbate Lead(II) Ion: InChIKey RVPVRDXYQKGNMQ-UHFFFAOYSA-N
Adsorbate Water: InChIKey XLYOFNOQVPJJNP-UHFFFAOYSA-N
Kind: experiment
Temperature: 298 K
Tabular data in the source: 0
pressure (bar)	Lead(II) Ion fraction	Lead(II) Ion uptake (mg/g)	Water fraction	Water uptake (mg/g)	total uptake (mg/g)
1.01325	0.216	0.8			
1.01325	20.854	107.62			
1.01325	50.182	151.86			
1.01325	88.949	167.29			
1.01325	104.8	180.3			
1.01325	125.991	180.18			
1.01325	178.617	180.07			
1.01325	214.851	180.09			
