Adsorption isotherm of N-propane, Methane on Activated Carbon: Ajax
DOI: 10.1016/s1383-5866(03)00191-6
Article source: Figure 3
Adsorbate N-propane: InChIKey ATUOYWHBWRKTHZ-UHFFFAOYSA-N
Adsorbate Methane: InChIKey VNWKTOKETHGBQD-UHFFFAOYSA-N
Kind: experiment
Temperature: 303 K
Tabular data in the source: 0
pressure (bar)	N-propane fraction	N-propane uptake (mmol/g)	Methane fraction	Methane uptake (mmol/g)	total uptake (mmol/g)
0.667	0.761	4.22	0.239	0.0425	
0.667	0.376	3.51	0.624	0.198	
0.667	0.105	2.56	0.895	0.297	
0.667	0.023	1.36	0.977	0.51	
0.667	0.002	0.411	0.998	0.708	
