Adsorption isotherm of Carbon Dioxide on Activated Carbon: Ajax
DOI: 10.1016/s1383-5866(03)00191-6
Article source: Figure 2
Adsorbate Carbon Dioxide: InChIKey CURLTUGMZLYLDI-UHFFFAOYSA-N
Kind: experiment
Temperature: 303 K
Tabular data in the source: 0
pressure (bar)	uptake (mmol/g)
0.00894	0.0223
0.0134	0.0782
0.0223	0.123
0.0335	0.168
0.0402	0.212
0.0559	0.268
0.0715	0.335
0.0916	0.402
0.123	0.492
0.156	0.592
0.199	0.726
0.299	0.961
0.4	1.22
0.501	1.44
0.666	1.78
0.8	2.01
