Adsorption isotherm of Ethane, Methane on Activated Carbon: Ajax
DOI: 10.1016/s1383-5866(03)00191-6
Article source: Figure 3
Adsorbate Ethane: InChIKey OTMSDBZUPAUEDD-UHFFFAOYSA-N
Adsorbate Methane: InChIKey VNWKTOKETHGBQD-UHFFFAOYSA-N
Kind: experiment
Temperature: 303 K
Tabular data in the source: 0
pressure (bar)	Ethane fraction	Ethane uptake (mmol/g)	Methane fraction	Methane uptake (mmol/g)	total uptake (mmol/g)
0.667	0.806	2.98	0.194	0.0399	
0.667	0.51	2.3	0.49	0.199	
0.667	0.265	1.7	0.735	0.349	
0.667	0.114	0.967	0.886	0.498	
0.667	0.02	0.319	0.98	0.678	
