Adsorption isotherm of Carbon Dioxide, Methane on Activated Carbon: Ajax
DOI: 10.1016/s1383-5866(03)00191-6
Article source: Figure 4
Adsorbate Carbon Dioxide: InChIKey CURLTUGMZLYLDI-UHFFFAOYSA-N
Adsorbate Methane: InChIKey VNWKTOKETHGBQD-UHFFFAOYSA-N
Kind: experiment
Temperature: 273 K
Tabular data in the source: 0
pressure (bar)	Carbon Dioxide fraction	Carbon Dioxide uptake (mmol/g)	Methane fraction	Methane uptake (mmol/g)	total uptake (mmol/g)
0.667	0.87	2.63	0.13	0.186	
0.667	0.8	2.47	0.2	0.254	
0.667	0.617	1.97	0.383	0.483	
0.667	0.389	1.42	0.611	0.703	
0.667	0.192	0.907	0.808	0.975	
0.667	0.039	0.339	0.961	1.27	
