Adsorption isotherm of Ethane on Activated Carbon: Ajax
DOI: 10.1016/s1383-5866(03)00191-6
Article source: Figure 2
Adsorbate Ethane: InChIKey OTMSDBZUPAUEDD-UHFFFAOYSA-N
Kind: experiment
Temperature: 303 K
Tabular data in the source: 0
pressure (bar)	uptake (mmol/g)
0	0
0.00391	0.269
0.0235	0.589
0.0547	1.06
0.106	1.5
0.18	1.93
0.262	2.32
0.415	2.81
0.575	3.23
0.755	3.62
0.978	4.03
1.24	4.42
