Adsorption isotherm of Methane on Activated Carbon: Ajax
DOI: 10.1016/s1383-5866(03)00191-6
Article source: Figure 2
Adsorbate Methane: InChIKey VNWKTOKETHGBQD-UHFFFAOYSA-N
Kind: experiment
Temperature: 303 K
Tabular data in the source: 0
pressure (bar)	uptake (mmol/g)
0.00838	0.0168
0.0223	0.0391
0.0335	0.0615
0.0531	0.0838
0.0698	0.123
0.0922	0.156
0.12	0.201
0.159	0.257
0.198	0.307
0.302	0.43
0.405	0.542
0.559	0.698
0.668	0.799
0.961	1.02
