Adsorption isotherm of Carbon Dioxide, Methane on Activated Carbon: Ajax
DOI: 10.1016/s1383-5866(03)00191-6
Article source: Figure 4
Adsorbate Carbon Dioxide: InChIKey CURLTUGMZLYLDI-UHFFFAOYSA-N
Adsorbate Methane: InChIKey VNWKTOKETHGBQD-UHFFFAOYSA-N
Kind: experiment
Temperature: 303 K
Tabular data in the source: 0
pressure (bar)	Carbon Dioxide fraction	Carbon Dioxide uptake (mmol/g)	Methane fraction	Methane uptake (mmol/g)	total uptake (mmol/g)
0.667	0.876	1.57	0.124	0.0906	
0.667	0.751	1.4	0.249	0.156	
0.667	0.638	1.21	0.362	0.246	
0.667	0.407	0.894	0.593	0.367	
0.667	0.22	0.559	0.78	0.498	
0.667	0.048	0.243	0.952	0.659	
