Adsorption isotherm of Methane on Activated Carbon: Ajax
DOI: 10.1016/s1383-5866(03)00191-6
Article source: Figure 2
Adsorbate Methane: InChIKey VNWKTOKETHGBQD-UHFFFAOYSA-N
Kind: experiment
Temperature: 273 K
Tabular data in the source: 0
pressure (bar)	uptake (mmol/g)
0	0.0168
0.0196	0.101
0.0363	0.156
0.0475	0.201
0.0615	0.257
0.0838	0.313
0.095	0.352
0.151	0.492
0.249	0.732
0.349	0.922
0.494	1.16
0.668	1.4
0.975	1.7
