Adsorption isotherm of Carbon Dioxide on Activated Carbon: Ajax
DOI: 10.1016/s1383-5866(03)00191-6
Article source: Figure 2
Adsorbate Carbon Dioxide: InChIKey CURLTUGMZLYLDI-UHFFFAOYSA-N
Kind: experiment
Temperature: 273 K
Tabular data in the source: 0
pressure (bar)	uptake (mmol/g)
0.00223	0.0335
0.00894	0.134
0.0179	0.268
0.0313	0.38
0.0559	0.57
0.0827	0.771
0.114	0.961
0.156	1.21
0.201	1.42
0.248	1.64
0.299	1.85
0.402	2.21
0.501	2.51
0.668	2.96
0.8	3.25
