Adsorption isotherm of N-propane on Activated Carbon: Ajax
DOI: 10.1016/s1383-5866(03)00191-6
Article source: Figure 2
Adsorbate N-propane: InChIKey ATUOYWHBWRKTHZ-UHFFFAOYSA-N
Kind: experiment
Temperature: 303 K
Tabular data in the source: 0
pressure (bar)	uptake (mmol/g)
0.0101	1.12
0.0235	1.71
0.0369	2.23
0.0737	2.78
0.121	3.23
0.225	3.72
0.463	4.27
0.597	4.49
0.784	4.71
0.985	4.93
