Adsorption isotherm of Hydrogen on MTAF-4
DOI: 10.1039/C3cc45986a
Adsorbate Hydrogen: InChIKey UFHFLCQGNIYNRP-UHFFFAOYSA-N
Temperature: 77 K
Tabular data in the source: 0
pressure (bar)	uptake (wt%)
1.18203	1.46486
1.77358	1.7043
3.64682	2.14796
4.63274	2.3874
6.40738	2.69726
8.08344	2.90148
10.351	3.13388
13.2102	3.36627
16.5623	3.55641
21.4919	3.76768
27.3088	3.95078
36.2806	4.15501
