Adsorption isotherm of Methane on MTAF-4
DOI: 10.1039/C3cc45986a
Adsorbate Methane: InChIKey VNWKTOKETHGBQD-UHFFFAOYSA-N
Temperature: 300 K
Tabular data in the source: 0
pressure (bar)	uptake (cm3(STP)/cm3)
0.590482	2.53826
5.71724	28.4538
9.36513	41.4115
14.0975	57.7495
22.3792	78.3129
28.7877	91.2707
36.5764	104.792
45.2525	116.623
56.3933	128.454
61.4215	132.116
63.0975	133.806
64.5764	135.214
