Adsorption isotherm of Nitrogen on MTAF-4
DOI: 10.1039/C3cc45986a
Adsorbate Nitrogen: InChIKey IJGRMHOSHXDMSA-UHFFFAOYSA-N
Temperature: 77 K
Tabular data in the source: 0
pressure (bar)	uptake (cm3(STP)/g)
0.00229475	19.2361
0.00229475	58.7081
0.00229475	146.233
0.00229475	238.906
0.00372489	302.977
0.00944547	337.3
0.0308976	375.628
0.065221	389.929
0.132438	401.37
0.213956	408.807
0.305485	413.956
0.421327	417.388
0.534308	419.104
0.640139	419.104
0.725947	419.104
0.840359	419.676
0.949049	419.104
