Adsorption isotherm of Carbon Dioxide on MTAF-4
DOI: 10.1039/C3cc45986a
Adsorbate Carbon Dioxide: InChIKey CURLTUGMZLYLDI-UHFFFAOYSA-N
Temperature: 300 K
Tabular data in the source: 0
pressure (bar)	uptake (mmol/g)
0.19665	0.112981
1.67552	1.69045
2.51355	2.59185
3.1544	3.1834
4.04172	3.9158
7.59102	6.92988
10.1051	8.87354
13.1121	10.3947
16.9079	11.7468
21.8868	12.7609
27.4079	13.4369
28.6403	13.6059
31.5981	13.8595
