Adsorption isotherm of Carbon Dioxide on MTAF-4
DOI: 10.1039/C3cc45986a
Adsorbate Carbon Dioxide: InChIKey CURLTUGMZLYLDI-UHFFFAOYSA-N
Temperature: 240 K
Tabular data in the source: 0
pressure (bar)	uptake (mmol/g)
0.098058	0.620023
0.344537	2.76087
0.443128	3.29608
0.591016	4.11298
0.88679	5.77495
1.13327	7.29608
1.33045	9.04256
1.52764	10.8735
1.82341	12.9299
2.51355	14.3102
3.54876	15.3242
5.27411	16.113
7.83749	16.8735
10.6966	17.3524
