Adsorption isotherm of Methane on MTAF-4
DOI: 10.1039/C3cc45986a
Adsorbate Methane: InChIKey VNWKTOKETHGBQD-UHFFFAOYSA-N
Temperature: 240 K
Tabular data in the source: 0
pressure (bar)	uptake (cm3(STP)/cm3)
0.393299	11.5523
1.5764	31.834
3.44964	56.3411
5.32288	72.9608
8.18203	96.3411
12.7172	121.693
19.8158	145.919
28.2947	162.257
35.4919	170.989
43.9708	179.158
54.8158	186.482
60.6327	189.017
62.8018	189.862
63.9848	189.862
