Adsorption isotherm of Methane on MTAF-4
DOI: 10.1039/C3cc45986a
Adsorbate Methane: InChIKey VNWKTOKETHGBQD-UHFFFAOYSA-N
Temperature: 270 K
Tabular data in the source: 0
pressure (bar)	uptake (cm3(STP)/cm3)
0.787665	9.8622
2.56231	24.2284
8.67499	62.2566
13.7032	83.3833
21.3933	107.327
28.9848	123.665
36.182	135.496
44.9567	146.2
55.6046	155.778
61.1257	160.003
63.4919	161.411
64.4778	161.693
