Adsorption isotherm of Carbon Dioxide on MTAF-4
DOI: 10.1039/C3cc45986a
Adsorbate Carbon Dioxide: InChIKey CURLTUGMZLYLDI-UHFFFAOYSA-N
Temperature: 270 K
Tabular data in the source: 0
pressure (bar)	uptake (mmol/g)
0.000534	0.394671
1.18256	2.7327
1.72482	3.88763
2.21778	4.84538
2.71073	5.97214
3.40087	7.43692
4.2389	9.23974
5.422	11.1552
6.45721	12.3383
8.67552	13.4933
11.929	14.4228
16.7107	15.1552
21.7389	15.6059
23.1192	15.7186
24.1051	15.8031
