Adsorption isotherm of Hydrogen on MTAF-4
DOI: 10.1039/C3cc45986a
Adsorbate Hydrogen: InChIKey UFHFLCQGNIYNRP-UHFFFAOYSA-N
Temperature: 300 K
Tabular data in the source: 0
pressure (bar)	uptake (wt%)
4.23837	0.0704988
6.80175	0.0986678
8.87217	0.119795
11.7313	0.140921
15.182	0.176133
20.1116	0.218386
25.2384	0.26064
34.6046	0.345147
47.3229	0.443738
