Adsorption isotherm of Hydrogen on MTAF-4
DOI: 10.1039/C3cc45986a
Adsorbate Hydrogen: InChIKey UFHFLCQGNIYNRP-UHFFFAOYSA-N
Temperature: 100 K
Tabular data in the source: 0
pressure (bar)	uptake (wt%)
1.08344	0.556414
2.16795	0.795851
3.35105	1.01416
6.11161	1.4367
7.78767	1.63388
9.85809	1.81698
12.7172	2.04233
16.3651	2.28881
21.2947	2.5212
27.013	2.73951
35.6891	3.01416
47.4215	3.29585
