Adsorption isotherm of Carbon Dioxide, Benzaldehyde on SP-850
DOI: 10.1007/s10450-016-9819-4
Article source: Figure 3
Adsorbate Carbon Dioxide: InChIKey CURLTUGMZLYLDI-UHFFFAOYSA-N
Adsorbate Benzaldehyde: InChIKey HUMNYLRZRPPJDN-UHFFFAOYSA-N
Kind: experiment
Temperature: 323 K
Tabular data in the source: 0
pressure (bar)	Carbon Dioxide fraction	Carbon Dioxide uptake (mg/g)	Benzaldehyde fraction	Benzaldehyde uptake (mg/g)	total uptake (mg/g)
163.5			0	0	
163.5			0.00301	34.0467	
163.5			0.00623	70.0389	
163.5			0.00932	100.195	
163.5			0.01441	137.16	
163.5			0.01729	162.451	
163.5			0.02013	175.584	
