Adsorption isotherm of Carbon Dioxide, Benzaldehyde on SP-850
DOI: 10.1007/s10450-016-9819-4
Article source: Figure 3
Adsorbate Carbon Dioxide: InChIKey CURLTUGMZLYLDI-UHFFFAOYSA-N
Adsorbate Benzaldehyde: InChIKey HUMNYLRZRPPJDN-UHFFFAOYSA-N
Kind: experiment
Temperature: 323 K
Tabular data in the source: 0
pressure (bar)	Carbon Dioxide fraction	Carbon Dioxide uptake (mg/g)	Benzaldehyde fraction	Benzaldehyde uptake (mg/g)	total uptake (mg/g)
131.6			0	0.97276	
131.6			0.00763	105.545	
131.6			0.0111	139.591	
131.6			0.01513	180.934	
131.6			0.01801	199.416	
131.6			0.02263	236.381	
