Adsorption isotherm of Carbon Dioxide, Phenylmethanol on SP-850
DOI: 10.1007/s10450-016-9819-4
Article source: Figure 6
Adsorbate Carbon Dioxide: InChIKey CURLTUGMZLYLDI-UHFFFAOYSA-N
Adsorbate Phenylmethanol: InChIKey WVDDGKGOMKODPV-UHFFFAOYSA-N
Kind: experiment
Temperature: 333 K
Tabular data in the source: 0
pressure (bar)	Carbon Dioxide fraction	Carbon Dioxide uptake (mg/g)	Phenylmethanol fraction	Phenylmethanol uptake (mg/g)	total uptake (mg/g)
206.8			0	0	
206.8			0.00286	36.9955	
206.8			0.00574	74.3273	
206.8			0.01009	134.193	
206.8			0.01295	175.897	
206.8			0.01619	217.937	
