Adsorption isotherm of Carbon Dioxide, Phenylmethanol on SP-850
DOI: 10.1007/s10450-016-9819-4
Article source: Figure 6
Adsorbate Carbon Dioxide: InChIKey CURLTUGMZLYLDI-UHFFFAOYSA-N
Adsorbate Phenylmethanol: InChIKey WVDDGKGOMKODPV-UHFFFAOYSA-N
Kind: experiment
Temperature: 323 K
Tabular data in the source: 0
pressure (bar)	Carbon Dioxide fraction	Carbon Dioxide uptake (mg/g)	Phenylmethanol fraction	Phenylmethanol uptake (mg/g)	total uptake (mg/g)
206.8			0	0	
206.8			0.00155	17.4888	
206.8			0.0033	36.3229	
206.8			0.00521	52.13	
206.8			0.00682	73.6547	
206.8			0.00762	79.3722	
