Adsorption isotherm of Carbon Dioxide, Benzaldehyde on SP-850
DOI: 10.1007/s10450-016-9819-4
Article source: Figure 3
Adsorbate Carbon Dioxide: InChIKey CURLTUGMZLYLDI-UHFFFAOYSA-N
Adsorbate Benzaldehyde: InChIKey HUMNYLRZRPPJDN-UHFFFAOYSA-N
Kind: experiment
Temperature: 323 K
Tabular data in the source: 0
pressure (bar)	Carbon Dioxide fraction	Carbon Dioxide uptake (mg/g)	Benzaldehyde fraction	Benzaldehyde uptake (mg/g)	total uptake (mg/g)
206.8			0	0	
206.8			0.00466	42.8016	
206.8			0.01017	87.5486	
206.8			0.01314	105.058	
206.8			0.01644	126.946	
206.8			0.02174	156.615	
