Adsorption isotherm of Carbon Dioxide, Benzaldehyde on SP-850
DOI: 10.1007/s10450-016-9819-4
Article source: Figure 3
Adsorbate Carbon Dioxide: InChIKey CURLTUGMZLYLDI-UHFFFAOYSA-N
Adsorbate Benzaldehyde: InChIKey HUMNYLRZRPPJDN-UHFFFAOYSA-N
Kind: experiment
Temperature: 313 K
Tabular data in the source: 0
pressure (bar)	Carbon Dioxide fraction	Carbon Dioxide uptake (mg/g)	Benzaldehyde fraction	Benzaldehyde uptake (mg/g)	total uptake (mg/g)
172.4			0	0	
172.4			0.00194	11.6505	
172.4			0.00549	36.8932	
172.4			0.0128	101.942	
172.4			0.01851	135.922	
172.4			0.02742	153.883	
