Adsorption isotherm of Carbon Dioxide, Benzaldehyde on SP-850
DOI: 10.1007/s10450-016-9819-4
Article source: Figure 3
Adsorbate Carbon Dioxide: InChIKey CURLTUGMZLYLDI-UHFFFAOYSA-N
Adsorbate Benzaldehyde: InChIKey HUMNYLRZRPPJDN-UHFFFAOYSA-N
Kind: experiment
Temperature: 323 K
Tabular data in the source: 0
pressure (bar)	Carbon Dioxide fraction	Carbon Dioxide uptake (mg/g)	Benzaldehyde fraction	Benzaldehyde uptake (mg/g)	total uptake (mg/g)
172.4			0	0	
172.4			0.00458	42.8016	
172.4			0.00835	75.3891	
172.4			0.01021	88.5214	
172.4			0.01419	117.218	
172.4			0.01653	134.241	
172.4			0.01911	140.564	
