Adsorption isotherm of Methane on Cu(I)Y
DOI: 10.1021/acs.iecr.7b00229
Article source: Figure 1b
Adsorbate Methane: InChIKey VNWKTOKETHGBQD-UHFFFAOYSA-N
Kind: experiment
Temperature: 293 K
Tabular data in the source: 0
pressure (bar)	uptake (mmol/g)
0.20259	0.11763
0.40252	0.15058
0.8024	0.23863
0.9795	0.2827
1.50506	0.39827
2.00776	0.49726
2.51045	0.58517
3.00743	0.66756
3.50439	0.7444
4.0128	0.84338
4.5098	0.95346
5.01257	1.11338
