Adsorption isotherm of Nitrogen on Cu(I)Y
DOI: 10.1021/acs.iecr.7b00229
Article source: Figure 1b
Adsorbate Nitrogen: InChIKey IJGRMHOSHXDMSA-UHFFFAOYSA-N
Kind: experiment
Temperature: 293 K
Tabular data in the source: 0
pressure (bar)	uptake (mmol/g)
0.20254	0.06777
0.40818	0.10071
0.80805	0.17216
1.01369	0.2051
1.4992	0.25426
1.98474	0.32004
2.49884	0.39686
3.01864	0.46259
3.50417	0.52836
4.00684	0.59412
4.50379	0.65988
4.98934	0.74228
