Adsorption isotherm of Carbon Dioxide on Cu(I)AC
DOI: 10.1021/acs.iecr.7b00229
Article source: Figure 1
Adsorbate Carbon Dioxide: InChIKey CURLTUGMZLYLDI-UHFFFAOYSA-N
Kind: experiment
Temperature: 323 K
Tabular data in the source: 0
pressure (bar)	uptake (mmol/g)
0.1941	0.05811
0.40132	0.06103
0.81128	0.06291
1.00948	0.06977
1.50166	0.06912
1.99042	0.08297
2.49046	0.09156
3.00627	0.10017
3.4928	0.10347
3.98993	0.11841
4.48517	0.11575
5.00736	0.11646
