Adsorption isotherm of Hydrogen on Cu(I)AC
DOI: 10.1021/acs.iecr.7b00229
Article source: Figure 1
Adsorbate Hydrogen: InChIKey UFHFLCQGNIYNRP-UHFFFAOYSA-N
Kind: experiment
Temperature: 303 K
Tabular data in the source: 0
pressure (bar)	uptake (mmol/g)
0.19427	0.05344
0.39149	0.06202
0.7888	0.06422
0.99312	0.06948
1.50681	0.06851
2.00304	0.04674
2.50853	0.07312
2.98396	0.07716
3.49337	0.08117
3.99283	0.09182
4.48445	0.08569
4.99619	0.09685
