Adsorption isotherm of Carbon Dioxide on Cu(I)Y
DOI: 10.1021/acs.iecr.7b00229
Article source: Figure 1b
Adsorbate Carbon Dioxide: InChIKey CURLTUGMZLYLDI-UHFFFAOYSA-N
Kind: experiment
Temperature: 293 K
Tabular data in the source: 0
pressure (bar)	uptake (mmol/g)
0.19755	0.77681
0.3864	1.14213
0.80369	1.49051
0.99795	1.56225
1.51211	1.69999
1.99189	1.72147
2.51734	1.72626
3.0028	1.72003
3.51111	1.7193
4.00233	1.76292
4.49924	1.7899
5.0133	1.82795
