Adsorption isotherm of Methane on Cu(I)AC
DOI: 10.1021/acs.iecr.7b00229
Article source: Figure 1
Adsorbate Methane: InChIKey VNWKTOKETHGBQD-UHFFFAOYSA-N
Kind: experiment
Temperature: 293 K
Tabular data in the source: 0
pressure (bar)	uptake (mmol/g)
0.79846	0.17224
1.00269	0.21572
1.4978	0.26459
1.99699	0.3189
2.50818	0.36985
2.99077	0.42075
3.50202	0.44656
4.00248	0.49749
4.48148	0.55257
4.98188	0.62862
