Adsorption isotherm of Methane on Cu(I)Y
DOI: 10.1021/acs.iecr.7b00229
Article source: Figure 1b
Adsorbate Methane: InChIKey VNWKTOKETHGBQD-UHFFFAOYSA-N
Kind: experiment
Temperature: 303 K
Tabular data in the source: 0
pressure (bar)	uptake (mmol/g)
0.21969	0.08437
0.40818	0.10071
0.80804	0.16108
0.97943	0.21069
1.48214	0.32075
2.00766	0.39756
2.4989	0.45779
2.99014	0.51802
3.52136	0.57819
4.01262	0.66058
4.49246	0.74853
5.01231	0.85857
