Adsorption isotherm of Carbon Dioxide on Cu(I)Y
DOI: 10.1021/acs.iecr.7b00229
Article source: Figure 1b
Adsorbate Carbon Dioxide: InChIKey CURLTUGMZLYLDI-UHFFFAOYSA-N
Kind: experiment
Temperature: 303 K
Tabular data in the source: 0
pressure (bar)	uptake (mmol/g)
0.19742	0.64387
0.39194	0.97041
0.81496	1.34093
0.9978	1.41268
1.49484	1.56708
2.00324	1.64944
2.50585	1.66534
3.03702	1.6812
3.49394	1.68609
4.00227	1.70752
4.52204	1.74556
5.01327	1.80025
