Adsorption isotherm of Carbon monoxide on Cu(I)AC
DOI: 10.1021/acs.iecr.7b00229
Article source: Figure 1
Adsorbate Carbon monoxide: InChIKey UGFAIRIUMAVXCW-UHFFFAOYSA-N
Kind: experiment
Temperature: 293 K
Tabular data in the source: 0
pressure (bar)	uptake (mmol/g)
0.20702	0.4578
0.40369	0.8098
0.80288	1.32015
0.99798	1.52019
1.49086	1.88976
1.99244	2.18623
2.49133	2.42287
2.98461	2.63292
3.48932	2.81307
3.99231	3.00051
4.49205	3.1278
4.9918	3.24982
