Adsorption isotherm of Hydrogen on Cu(I)AC
DOI: 10.1021/acs.iecr.7b00229
Article source: Figure 1
Adsorbate Hydrogen: InChIKey UFHFLCQGNIYNRP-UHFFFAOYSA-N
Kind: experiment
Temperature: 323 K
Tabular data in the source: 0
pressure (bar)	uptake (mmol/g)
0.21131	0.04848
0.40713	0.04708
0.81242	0.055
0.99032	0.0737
1.48589	0.0691
1.99047	0.06187
2.50402	0.07312
2.99508	0.0685
3.49287	0.07709
3.98579	0.07353
4.48807	0.09083
4.98615	0.08486
