Adsorption isotherm of Methane on Cu(I)AC
DOI: 10.1021/acs.iecr.7b00229
Article source: Figure 1
Adsorbate Methane: InChIKey VNWKTOKETHGBQD-UHFFFAOYSA-N
Kind: experiment
Temperature: 303 K
Tabular data in the source: 0
pressure (bar)	uptake (mmol/g)
0.20418	0.0601
0.3942	0.11353
0.82547	0.154
1.0127	0.18416
1.49507	0.22138
1.99732	0.25197
2.51016	0.29448
3.00746	0.32313
3.49834	0.36035
3.98921	0.40422
4.49143	0.44479
4.99078	0.50196
