Adsorption isotherm of Hydrogen on Cu(I)Y
DOI: 10.1021/acs.iecr.7b00229
Article source: Figure 1b
Adsorbate Hydrogen: InChIKey UFHFLCQGNIYNRP-UHFFFAOYSA-N
Kind: experiment
Temperature: 323 K
Tabular data in the source: 0
pressure (bar)	uptake (mmol/g)
0.20825	0.0733
0.43101	0.08406
0.80797	0.10014
1.01928	0.08876
1.51047	0.10468
2.00165	0.10952
2.48714	0.13099
3.00119	0.15795
3.50951	0.1683
4.00073	0.20638
4.50334	0.22228
5.00597	0.2548
