Adsorption isotherm of Carbon Dioxide on Cu(I)Y
DOI: 10.1021/acs.iecr.7b00229
Article source: Figure 1b
Adsorbate Carbon Dioxide: InChIKey CURLTUGMZLYLDI-UHFFFAOYSA-N
Kind: experiment
Temperature: 323 K
Tabular data in the source: 0
pressure (bar)	uptake (mmol/g)
0.18577	0.42231
0.39166	0.69898
0.82038	1.05288
1.00896	1.15786
1.50603	1.33995
2.003	1.41679
2.50566	1.47701
2.99689	1.5317
3.50522	1.55313
4.01928	1.59117
4.49909	1.64034
5.01885	1.67284
