Adsorption isotherm of Hydrogen on Cu(I)AC
DOI: 10.1021/acs.iecr.7b00229
Article source: Figure 1
Adsorbate Hydrogen: InChIKey UFHFLCQGNIYNRP-UHFFFAOYSA-N
Kind: experiment
Temperature: 313 K
Tabular data in the source: 0
pressure (bar)	uptake (mmol/g)
0.20198	0.05944
0.40002	0.05372
0.79735	0.05093
1.01301	0.0612
1.51529	0.08182
2.00345	0.07251
2.50008	0.07983
2.99955	0.08383
3.49904	0.08451
3.98575	0.08683
4.4895	0.08585
4.99747	0.09983
