Adsorption isotherm of Methane on Cu(I)Y
DOI: 10.1021/acs.iecr.7b00229
Article source: Figure 1b
Adsorbate Methane: InChIKey VNWKTOKETHGBQD-UHFFFAOYSA-N
Kind: experiment
Temperature: 323 K
Tabular data in the source: 0
pressure (bar)	uptake (mmol/g)
0.21968	0.07329
0.41388	0.08963
0.81372	0.13891
0.97366	0.16084
1.51058	0.20993
1.95612	0.25915
2.49875	0.31377
2.99568	0.35183
3.49832	0.38989
3.99527	0.45011
4.4922	0.49372
5.00628	0.55392
