Adsorption isotherm of Nitrogen on Cu(I)AC
DOI: 10.1021/acs.iecr.7b00229
Article source: Figure 1
Adsorbate Nitrogen: InChIKey IJGRMHOSHXDMSA-UHFFFAOYSA-N
Kind: experiment
Temperature: 293 K
Tabular data in the source: 0
pressure (bar)	uptake (mmol/g)
0.2127	0.06011
0.4056	0.09361
0.79715	0.1307
1.00999	0.13431
1.48665	0.18148
1.9917	0.2287
2.47688	0.27588
2.9933	0.31314
3.48878	0.3567
4.00223	0.4062
4.4898	0.44642
4.99425	0.49459
