Adsorption isotherm of Carbon monoxide on Cu(I)Y
DOI: 10.1021/acs.iecr.7b00229
Article source: Figure 1b
Adsorbate Carbon monoxide: InChIKey UGFAIRIUMAVXCW-UHFFFAOYSA-N
Kind: experiment
Temperature: 313 K
Tabular data in the source: 0
pressure (bar)	uptake (mmol/g)
0.21556	1.62429
0.39873	2.01732
0.80452	2.29925
1.00445	2.32666
1.51284	2.40348
1.99834	2.44157
2.50669	2.47962
2.99792	2.53431
3.48342	2.56685
3.99752	2.64367
4.51157	2.67063
5.01418	2.68099
