Adsorption isotherm of Methane on Cu(I)Y
DOI: 10.1021/acs.iecr.7b00229
Article source: Figure 1b
Adsorbate Methane: InChIKey VNWKTOKETHGBQD-UHFFFAOYSA-N
Kind: experiment
Temperature: 313 K
Tabular data in the source: 0
pressure (bar)	uptake (mmol/g)
0.18542	0.08441
0.37963	0.11183
0.79662	0.16663
0.99654	0.1885
1.49922	0.27088
2.00758	0.32001
2.49311	0.38025
2.99575	0.42384
3.4927	0.48407
4.00678	0.53873
4.50375	0.61557
5.00071	0.68687
