Adsorption isotherm of Hydrogen on Cu(I)AC
DOI: 10.1021/acs.iecr.7b00229
Article source: Figure 1
Adsorbate Hydrogen: InChIKey UFHFLCQGNIYNRP-UHFFFAOYSA-N
Kind: experiment
Temperature: 293 K
Tabular data in the source: 0
pressure (bar)	uptake (mmol/g)
0.21325	0.05418
0.38898	0.04123
0.79439	0.06025
1.00614	0.05526
1.49266	0.06647
2.0017	0.07507
2.49051	0.07046
2.97591	0.07771
3.48717	0.10214
3.98027	0.0892
4.48173	0.10034
4.9895	0.09056
