Adsorption isotherm of Carbon Dioxide on Cu(I)AC
DOI: 10.1021/acs.iecr.7b00229
Article source: Figure 1
Adsorbate Carbon Dioxide: InChIKey CURLTUGMZLYLDI-UHFFFAOYSA-N
Kind: experiment
Temperature: 303 K
Tabular data in the source: 0
pressure (bar)	uptake (mmol/g)
0.21269	0.06343
0.40851	0.0637
0.8058	0.07753
1.00729	0.07781
1.50109	0.08512
2.00622	0.09578
2.49434	0.10309
3.00233	0.11042
3.49326	0.1277
3.98936	0.15163
4.49613	0.16946
4.98829	0.17672
