Adsorption isotherm of Methane on Cu(I)AC
DOI: 10.1021/acs.iecr.7b00229
Article source: Figure 1
Adsorbate Methane: InChIKey VNWKTOKETHGBQD-UHFFFAOYSA-N
Kind: experiment
Temperature: 323 K
Tabular data in the source: 0
pressure (bar)	uptake (mmol/g)
0.19565	0.06757
0.40067	0.07864
0.81006	0.0972
1.00599	0.11593
1.49919	0.15353
2.00595	0.17795
2.50597	0.19446
2.99919	0.22678
3.49578	0.25234
3.9952	0.27794
4.48896	0.29855
4.99122	0.32748
