Adsorption isotherm of Nitrogen on Cu(I)Y
DOI: 10.1021/acs.iecr.7b00229
Article source: Figure 1b
Adsorbate Nitrogen: InChIKey IJGRMHOSHXDMSA-UHFFFAOYSA-N
Kind: experiment
Temperature: 303 K
Tabular data in the source: 0
pressure (bar)	uptake (mmol/g)
0.20825	0.0733
0.40819	0.10625
0.80801	0.13338
0.99082	0.17743
1.51633	0.24316
2.00756	0.29785
2.49879	0.347
2.97859	0.39617
3.49268	0.46191
4.00102	0.49442
4.47513	0.55468
5.00064	0.6204
