Adsorption isotherm of Nitrogen on Cu(I)AC
DOI: 10.1021/acs.iecr.7b00229
Article source: Figure 1
Adsorbate Nitrogen: InChIKey IJGRMHOSHXDMSA-UHFFFAOYSA-N
Kind: experiment
Temperature: 303 K
Tabular data in the source: 0
pressure (bar)	uptake (mmol/g)
0.19424	0.06507
0.38497	0.08223
0.81136	0.12075
1.01002	0.12101
1.50371	0.17154
2.00306	0.22539
2.48547	0.24598
2.99624	0.27326
3.49566	0.30053
3.97651	0.33494
4.48437	0.36992
4.98881	0.41808
