Adsorption isotherm of Methane on Cu(I)AC
DOI: 10.1021/acs.iecr.7b00229
Article source: Figure 1
Adsorbate Methane: InChIKey VNWKTOKETHGBQD-UHFFFAOYSA-N
Kind: experiment
Temperature: 313 K
Tabular data in the source: 0
pressure (bar)	uptake (mmol/g)
0.42489	0.09404
0.79648	0.12356
0.99691	0.14229
1.50366	0.16936
2.01036	0.21489
2.50139	0.22347
3.00357	0.27691
3.49229	0.30659
3.99219	0.3258
4.53558	0.36841
5.0039	0.40673
