Adsorption isotherm of Nitrogen on Cu(I)Y
DOI: 10.1021/acs.iecr.7b00229
Article source: Figure 1b
Adsorbate Nitrogen: InChIKey IJGRMHOSHXDMSA-UHFFFAOYSA-N
Kind: experiment
Temperature: 323 K
Tabular data in the source: 0
pressure (bar)	uptake (mmol/g)
0.20825	0.06776
0.41959	0.08408
0.79657	0.12232
0.99077	0.13312
1.51054	0.16561
1.94466	0.22039
2.47015	0.26949
2.98417	0.26876
3.48683	0.32344
3.98946	0.35596
4.50351	0.38292
4.99474	0.43761
