Adsorption isotherm of Carbon Dioxide on Cu(I)AC
DOI: 10.1021/acs.iecr.7b00229
Article source: Figure 1
Adsorbate Carbon Dioxide: InChIKey CURLTUGMZLYLDI-UHFFFAOYSA-N
Kind: experiment
Temperature: 293 K
Tabular data in the source: 0
pressure (bar)	uptake (mmol/g)
0.20411	0.10825
0.41119	0.16788
0.80169	0.29239
1.0088	0.34147
1.49168	0.45423
2.00726	0.54989
2.49811	0.62969
3.0003	0.68049
3.4957	0.7392
3.9933	0.82165
4.48636	0.91728
4.99289	1.03403
