Adsorption isotherm of Carbon monoxide on Cu(I)AC
DOI: 10.1021/acs.iecr.7b00229
Article source: Figure 1
Adsorbate Carbon monoxide: InChIKey UGFAIRIUMAVXCW-UHFFFAOYSA-N
Kind: experiment
Temperature: 313 K
Tabular data in the source: 0
pressure (bar)	uptake (mmol/g)
0.20377	0.22295
0.40486	0.38607
0.80858	0.66081
1.00269	0.77739
1.50151	1.04395
1.99901	1.2673
2.49514	1.47402
2.99699	1.66414
3.49177	1.84262
3.99224	2.01446
4.49135	2.16635
4.9884	2.29728
