Adsorption isotherm of Hydrogen on Cu(I)Y
DOI: 10.1021/acs.iecr.7b00229
Article source: Figure 1b
Adsorbate Hydrogen: InChIKey UFHFLCQGNIYNRP-UHFFFAOYSA-N
Kind: experiment
Temperature: 303 K
Tabular data in the source: 0
pressure (bar)	uptake (mmol/g)
0.19683	0.06778
0.40816	0.07856
0.81368	0.10014
0.99646	0.11095
1.49909	0.13793
2.01314	0.17044
2.4358	0.18645
2.98982	0.21336
3.49816	0.24033
4.00079	0.27285
4.51487	0.32197
5.01749	0.34895
