Adsorption isotherm of Carbon monoxide on Cu(I)Y
DOI: 10.1021/acs.iecr.7b00229
Article source: Figure 1b
Adsorbate Carbon monoxide: InChIKey UGFAIRIUMAVXCW-UHFFFAOYSA-N
Kind: experiment
Temperature: 323 K
Tabular data in the source: 0
pressure (bar)	uptake (mmol/g)
0.18653	1.16457
0.39262	1.62958
0.82136	2.01118
1.0099	2.07738
1.4955	2.20963
2.01534	2.3086
2.48944	2.36885
2.9921	2.42353
3.49475	2.47267
4.01454	2.53286
4.49436	2.59311
4.997	2.6367
