Adsorption isotherm of Carbon monoxide on Cu(I)Y
DOI: 10.1021/acs.iecr.7b00229
Article source: Figure 1b
Adsorbate Carbon monoxide: InChIKey UGFAIRIUMAVXCW-UHFFFAOYSA-N
Kind: experiment
Temperature: 293 K
Tabular data in the source: 0
pressure (bar)	uptake (mmol/g)
0.20492	2.38873
0.40497	2.538
0.79911	2.59284
1.01614	2.58699
1.50732	2.59183
1.99277	2.57452
2.51822	2.58485
3.00942	2.6063
3.50635	2.64991
4.00899	2.68797
4.48878	2.72606
5.01425	2.753
