Adsorption isotherm of Nitrogen on Cu(I)AC
DOI: 10.1021/acs.iecr.7b00229
Article source: Figure 1
Adsorbate Nitrogen: InChIKey IJGRMHOSHXDMSA-UHFFFAOYSA-N
Kind: experiment
Temperature: 323 K
Tabular data in the source: 0
pressure (bar)	uptake (mmol/g)
0.20648	0.06209
0.40467	0.07159
0.80296	0.07753
1.00725	0.09442
1.50382	0.12833
1.99758	0.14562
2.50267	0.17621
2.98792	0.19681
3.5044	0.21208
3.99417	0.25043
4.48042	0.26574
4.99166	0.29575
