Adsorption isotherm of Nitrogen on Cu(I)AC
DOI: 10.1021/acs.iecr.7b00229
Article source: Figure 1
Adsorbate Nitrogen: InChIKey IJGRMHOSHXDMSA-UHFFFAOYSA-N
Kind: experiment
Temperature: 313 K
Tabular data in the source: 0
pressure (bar)	uptake (mmol/g)
0.18736	0.05151
0.3968	0.06894
0.79767	0.0985
1.00039	0.10273
2.47893	0.19706
2.98116	0.22939
3.49241	0.26042
4.00478	0.29145
4.48745	0.31181
4.98171	0.34179
