Adsorption isotherm of Carbon Dioxide on Cu(I)Y
DOI: 10.1021/acs.iecr.7b00229
Article source: Figure 1b
Adsorbate Carbon Dioxide: InChIKey CURLTUGMZLYLDI-UHFFFAOYSA-N
Kind: experiment
Temperature: 313 K
Tabular data in the source: 0
pressure (bar)	uptake (mmol/g)
0.20872	0.52752
0.40894	0.83744
0.80338	1.19139
1.0034	1.30743
1.49474	1.46737
1.986	1.54422
2.50577	1.58225
3.00838	1.59261
3.48816	1.61963
4.0022	1.63551
4.51057	1.70126
5.00747	1.71163
