Adsorption isotherm of Carbon monoxide on Cu(I)Y
DOI: 10.1021/acs.iecr.7b00229
Article source: Figure 1b
Adsorbate Carbon monoxide: InChIKey UGFAIRIUMAVXCW-UHFFFAOYSA-N
Kind: experiment
Temperature: 303 K
Tabular data in the source: 0
pressure (bar)	uptake (mmol/g)
0.20458	2.05083
0.41047	2.33304
0.80472	2.48758
0.9989	2.4873
1.50725	2.52535
2.00986	2.53572
2.49535	2.55718
2.99227	2.58971
3.51205	2.63328
4.00897	2.67135
4.50019	2.71496
5.00852	2.73086
