Adsorption isotherm of Carbon monoxide on Cu(I)AC
DOI: 10.1021/acs.iecr.7b00229
Article source: Figure 1
Adsorbate Carbon monoxide: InChIKey UGFAIRIUMAVXCW-UHFFFAOYSA-N
Kind: experiment
Temperature: 303 K
Tabular data in the source: 0
pressure (bar)	uptake (mmol/g)
0.19785	0.32265
0.40732	0.53563
0.80931	0.935
1.00755	1.10144
1.48353	1.42114
1.99369	1.68771
2.52094	1.93436
2.99727	2.11448
3.49622	2.32785
3.98393	2.49469
4.50571	2.66157
4.98785	2.78852
