Adsorption isotherm of Carbon Dioxide on Cu(I)AC
DOI: 10.1021/acs.iecr.7b00229
Article source: Figure 1
Adsorbate Carbon Dioxide: InChIKey CURLTUGMZLYLDI-UHFFFAOYSA-N
Kind: experiment
Temperature: 313 K
Tabular data in the source: 0
pressure (bar)	uptake (mmol/g)
0.20632	0.05678
0.40583	0.05972
0.798	0.06395
0.99822	0.0705
1.49521	0.08164
1.99578	0.0886
2.49814	0.09975
2.99045	0.11994
3.48823	0.12852
3.99276	0.14372
4.49059	0.13384
4.98836	0.1477
