Adsorption isotherm of Hydrogen on Cu(I)Y
DOI: 10.1021/acs.iecr.7b00229
Article source: Figure 1b
Adsorbate Hydrogen: InChIKey UFHFLCQGNIYNRP-UHFFFAOYSA-N
Kind: experiment
Temperature: 313 K
Tabular data in the source: 0
pressure (bar)	uptake (mmol/g)
0.20827	0.08438
0.41959	0.08408
0.79084	0.10017
1.00217	0.11095
1.49336	0.12686
2.00169	0.1483
2.50432	0.17528
2.9841	0.19675
3.49242	0.2071
4.00075	0.23407
4.5034	0.27767
5.00601	0.28803
