Adsorption isotherm of Nitrogen on Cu(I)Y
DOI: 10.1021/acs.iecr.7b00229
Article source: Figure 1b
Adsorbate Nitrogen: InChIKey IJGRMHOSHXDMSA-UHFFFAOYSA-N
Kind: experiment
Temperature: 313 K
Tabular data in the source: 0
pressure (bar)	uptake (mmol/g)
0.17969	0.0678
0.40816	0.0841
0.81942	0.12782
0.99649	0.14419
1.51057	0.19885
1.99607	0.23693
2.51014	0.28051
3.00708	0.32966
3.52114	0.3677
4.00094	0.41687
4.49217	0.46602
4.98911	0.51517
