Adsorption isotherm of Hydrogen on Cu(I)Y
DOI: 10.1021/acs.iecr.7b00229
Article source: Figure 1b
Adsorbate Hydrogen: InChIKey UFHFLCQGNIYNRP-UHFFFAOYSA-N
Kind: experiment
Temperature: 293 K
Tabular data in the source: 0
pressure (bar)	uptake (mmol/g)
0.19111	0.06225
0.39674	0.08411
0.79656	0.1057
1.02504	0.13307
1.4991	0.15455
2.00746	0.19814
2.48724	0.23069
2.98988	0.26875
3.50965	0.30125
3.99515	0.33379
4.49207	0.37186
4.99473	0.43207
