Adsorption isotherm of Carbon monoxide on Cu(I)AC
DOI: 10.1021/acs.iecr.7b00229
Article source: Figure 1
Adsorbate Carbon monoxide: InChIKey UGFAIRIUMAVXCW-UHFFFAOYSA-N
Kind: experiment
Temperature: 323 K
Tabular data in the source: 0
pressure (bar)	uptake (mmol/g)
0.1972	0.16759
0.40642	0.27339
0.82488	0.47575
1.00936	0.56569
1.48414	0.76153
2.00177	0.94029
2.51486	1.13355
3.01907	1.27404
3.48718	1.43822
3.98238	1.57869
4.49106	1.73238
4.99538	1.8333
