Adsorption isotherm of Nitrogen on NiO-HAP@Î³-Fe2O3
DOI: 10.1007/s10450-017-9931-0
Article source: Figure 4
Adsorbate Nitrogen: InChIKey IJGRMHOSHXDMSA-UHFFFAOYSA-N
Kind: experiment
Temperature: 77 K
Tabular data in the source: 0
pressure (bar)	uptake (cm3(STP)/g)
0.015946	21.2121
0.055147	24.7475
0.073087	26.1616
0.091026	27.2222
0.110295	28.9899
0.134879	29.697
0.15016	30.0505
0.165442	30.7576
0.186704	32.1717
0.226569	33.9394
0.257133	35
0.298327	37.1212
0.349488	39.596
0.399985	41.7172
0.45181	44.899
0.5043	48.0808
0.556789	51.2626
0.60795	56.2121
0.655124	60.101
0.706285	66.8182
0.762097	75.6566
0.79864	85.202
0.811264	89.0909
0.841828	100.404
0.853788	105
0.862425	110.303
0.884351	127.273
0.896311	137.879
0.910928	152.727
0.925546	175
0.953452	241.818
0.961425	263.737
0.308294	36.7677
0.358126	39.9495
0.409287	42.7778
0.459119	44.899
0.509615	48.7879
0.663762	62.2222
0.719574	70
0.758775	79.1919
0.778708	84.1414
0.811929	95.4545
0.826546	103.232
0.845815	114.192
0.908935	178.535
0.928203	220.253
0.953452	299.091
0.965411	323.838
0.97272	329.495
0.984015	337.626
