Adsorption isotherm of Nitrogen on HAP@Î³-Fe2O3
DOI: 10.1007/s10450-017-9931-0
Article source: Figure 4
Adsorbate Nitrogen: InChIKey IJGRMHOSHXDMSA-UHFFFAOYSA-N
Kind: experiment
Temperature: 77 K
Tabular data in the source: 0
pressure (bar)	uptake (cm3(STP)/g)
0.02259	12.0202
0.057805	13.0808
0.073751	14.1414
0.091026	15.5556
0.10963	16.2626
0.135543	15.9091
0.150825	16.6162
0.166107	17.3232
0.186039	17.6768
0.225905	18.7374
0.256469	19.0909
0.308958	19.798
0.359455	21.9192
0.408622	24.0404
0.462441	24.7475
0.50895	25.8081
0.558118	27.2222
0.610608	29.697
0.659111	32.5253
0.708278	35.3535
0.757446	39.596
0.806613	43.8384
0.850466	51.9697
0.862425	53.0303
0.894982	62.5758
0.908271	67.8788
0.953452	100.404
0.962089	111.364
0.973384	144.242
0.298327	20.8586
0.351481	22.2727
0.402642	23.6869
0.452474	26.1616
0.505628	32.1717
0.556789	34.6465
0.60795	36.4141
0.66044	40.303
0.712265	42.7778
0.756781	47.3737
0.766083	47.7273
0.807278	53.7374
0.819238	54.798
0.852459	60.8081
0.912257	80.9596
0.927539	90.8586
0.952123	127.626
0.963418	148.131
0.969398	153.434
0.972056	157.677
0.974713	164.04
0.980029	171.818
