Adsorption isotherm of Nitrogen on COF AA-H
DOI: 10.1021/ja5092936
Article source: Figure 2(a)
Adsorbate Nitrogen: InChIKey IJGRMHOSHXDMSA-UHFFFAOYSA-N
Kind: experiment
Temperature: 77 K
Tabular data in the source: 0
pressure (bar)	uptake (cm3(STP)/g)
0.00282	7.52506
0.002726	37.2623
0.00168	65.2461
0.002514	103.734
0.001452	136.965
0.005164	171.967
0.005053	206.952
0.00782	238.45
0.052512	312.113
0.081094	341.974
0.121141	373.633
0.149678	417.488
0.199083	512.162
0.227743	517.534
0.269796	519.464
0.29845	526.585
0.334763	530.241
0.36534	533.871
0.401652	537.526
0.43797	539.432
0.476194	543.096
0.512512	545.002
0.545007	546.891
0.577496	550.53
0.617637	552.453
0.652043	554.35
0.688356	558.006
0.72085	559.895
0.757163	563.55
0.795387	567.214
0.827859	576.101
0.862259	579.747
0.898555	588.651
0.917645	597.479
0.93674	604.559
0.952962	613.375
0.971074	629.197
0.986301	650.254
1.00529	692.318
0.152581	421.763
0.199038	514.249
0.235776	527.128
0.270112	521.494
0.308764	528.813
0.349405	534.276
0.379914	539.762
0.415376	539.681
0.446823	541.461
0.493505	545.058
0.518085	557.965
0.556624	559.729
0.595125	559.641
0.628599	561.416
0.660965	558.564
0.698585	564.96
0.741177	566.714
0.765606	572.214
0.808273	577.672
0.844974	588.7
0.855181	592.38
0.897998	605.245
0.936988	629.23
0.967984	658.789
1.01699	677.195
