Adsorption isotherm of Hydrogen on COF AA-H
DOI: 10.1021/ja5092936
Article source: Figure S9
Adsorbate Hydrogen: InChIKey UFHFLCQGNIYNRP-UHFFFAOYSA-N
Kind: experiment
Temperature: 77 K
Tabular data in the source: 0
pressure (bar)	uptake (wt%)
0.017069	0.075139
0.058419	0.230281
0.108366	0.358197
0.158299	0.478346
0.208176	0.567427
0.258054	0.656509
0.307889	0.722289
0.362068	0.7997
0.409735	0.861607
0.457381	0.911864
0.511532	0.973741
0.557016	1.02401
0.61114	1.07035
0.66094	1.11671
0.715064	1.16306
0.764843	1.19777
0.812468	1.23638
0.867651	1.27106
0.916378	1.32132
0.970487	1.35989
1.01376	1.38493
0.018519	0.181239
0.067159	0.347385
0.129456	0.484345
0.167348	0.582134
0.22974	0.670315
0.286739	0.734072
0.327379	0.817244
0.39251	0.895684
0.433245	0.930076
0.482093	0.988906
0.525511	1.04283
0.585258	1.09197
0.628694	1.13613
0.683002	1.18524
0.745488	1.22464
0.783522	1.24926
0.832408	1.28858
0.889455	1.32794
0.941118	1.33801
0.990023	1.36757
1.00629	1.39694
