Adsorption isotherm of Carbon Dioxide on ZIF-8
DOI: 10.8888/s10450-012-9407-1
Adsorbate Carbon Dioxide: InChIKey CURLTUGMZLYLDI-UHFFFAOYSA-N
Temperature: 298 K
Tabular data in the source: 0
pressure (bar)	uptake (mmol/g)
0.000234676	0.0341151
1.05287	1.05757
2.04942	1.92751
5.08812	3.66738
10.1047	4.92964
15.1724	5.629
20.1287	6.14072
25.0844	6.55011
30.0938	6.77186
