Adsorption isotherm of Carbon Dioxide on ZIF-8
DOI: 10.8888/s10450-012-9407-1
Adsorbate Carbon Dioxide: InChIKey CURLTUGMZLYLDI-UHFFFAOYSA-N
Temperature: 318 K
Tabular data in the source: 0
pressure (bar)	uptake (mmol/g)
0.462963	0.14321
0.983796	0.286372
5.09259	1.41121
10.1273	2.61733
15.1042	3.39274
20.081	3.90147
25.1157	4.28708
