Adsorption isotherm of Carbon Dioxide on ZIF-8
DOI: 10.8888/s10450-012-9407-1
Adsorbate Carbon Dioxide: InChIKey CURLTUGMZLYLDI-UHFFFAOYSA-N
Temperature: 308 K
Tabular data in the source: 0
pressure (bar)	uptake (mmol/g)
1.04167	0.368376
5.03472	1.55484
10.0694	2.84302
15.1042	3.70043
20.081	4.25019
25.1157	4.6358
