Adsorption isotherm of Nitrogen on IRMOF-1
DOI: 10.1016/j.fluid.2007.07.042
Adsorbate Nitrogen: InChIKey IJGRMHOSHXDMSA-UHFFFAOYSA-N
Temperature: 78 K
Tabular data in the source: 0
pressure (bar)	uptake (mg/g)
0.00264115	431.98
0.00646468	611.14
0.00810333	663.577
0.0168428	716.014
0.0463386	742.232
0.0731033	759.711
0.099868	764.081
0.137011	772.82
0.169238	777.19
0.209658	777.19
0.242431	781.56
