Adsorption isotherm of Argon on IRMOF-1
DOI: 10.1016/j.fluid.2007.07.042
Adsorbate Argon: InChIKey XKRFYHLGVUSROY-UHFFFAOYSA-N
Temperature: 78 K
Tabular data in the source: 0
pressure (bar)	uptake (mg/g)
0.00154871	1777.86
0.00537224	1991.98
0.0135655	2031.31
0.0217588	2048.79
0.0436075	2061.9
0.102053	2092.48
0.123902	2096.85
0.155036	2096.85
0.239154	2109.96
