Adsorption isotherm of Nitrogen on IRMOF-1
DOI: 10.1016/j.fluid.2007.07.042
Adsorbate Nitrogen: InChIKey IJGRMHOSHXDMSA-UHFFFAOYSA-N
Temperature: 78 K
Tabular data in the source: 0
pressure (bar)	uptake (mg/g)
0.00537224	803.409
0.00755711	903.913
0.0179353	982.568
0.0337756	1008.79
0.0567168	1021.9
0.0731033	1043.74
0.099868	1056.85
0.137011	1065.59
0.17033	1065.59
0.209112	1074.33
0.242431	1074.33
