Adsorption isotherm of Argon on IRMOF-1
DOI: 10.1016/j.fluid.2007.07.042
Adsorbate Argon: InChIKey XKRFYHLGVUSROY-UHFFFAOYSA-N
Temperature: 78 K
Tabular data in the source: 0
pressure (bar)	uptake (mg/g)
0.00100249	3.74478
0.00209493	174.165
0.00373358	239.711
0.0042798	423.241
0.00537224	650.467
0.00537224	1035.01
0.00646468	1218.53
0.0119269	1332.15
0.027221	1406.43
0.0643638	1458.87
0.111885	1476.35
0.158313	1471.98
0.206927	1480.72
0.227683	1480.72
