Adsorption isotherm of Argon on IRMOF-1
DOI: 10.1016/j.fluid.2007.07.042
Adsorbate Argon: InChIKey XKRFYHLGVUSROY-UHFFFAOYSA-N
Temperature: 78 K
Tabular data in the source: 0
pressure (bar)	uptake (mg/g)
0.00318736	1292.82
0.00537224	1445.76
0.0141117	1476.35
0.0261285	1498.2
0.0441538	1506.94
0.102053	1520.05
0.123355	1524.42
0.155036	1524.42
0.238061	1528.79
