Adsorption isotherm of Nitrogen on IRMOF-1
DOI: 10.1016/j.fluid.2007.07.042
Adsorbate Nitrogen: InChIKey IJGRMHOSHXDMSA-UHFFFAOYSA-N
Temperature: 78 K
Tabular data in the source: 0
pressure (bar)	uptake (mg/g)
0.00154871	95.5095
0.00646468	265.93
0.00810333	427.61
0.0113806	571.812
0.0179353	689.795
0.0332294	746.602
0.0567168	781.56
0.100414	807.778
0.137011	825.257
0.169784	825.257
0.209112	829.627
0.242431	833.997
