Adsorption isotherm of Carbon Dioxide on Zeolite 5A
DOI: 10.1016/j.ijggc.2009.04.005
Adsorbate Carbon Dioxide: InChIKey CURLTUGMZLYLDI-UHFFFAOYSA-N
Temperature: 423 K
Tabular data in the source: 0
pressure (bar)	uptake (mmol/g)
0.0469902	0.338519
0.102067	0.393636
0.14927	0.448668
0.19644	0.547313
0.298703	0.679269
0.395766	0.745748
0.498079	0.812284
0.705295	0.988999
0.999141	1.14485
