Adsorption isotherm of Carbon Dioxide on Zeolite 5A
DOI: 10.1016/j.ijggc.2009.04.005
Adsorbate Carbon Dioxide: InChIKey CURLTUGMZLYLDI-UHFFFAOYSA-N
Temperature: 473 K
Tabular data in the source: 0
pressure (bar)	uptake (mmol/g)
0.0445618	0.0768099
0.0996386	0.131928
0.149466	0.186988
0.199318	0.209338
0.301622	0.286778
0.401318	0.342382
0.498406	0.376151
0.695197	0.454621
1.00223	0.523389
