Adsorption isotherm of Carbon Dioxide on Zeolite 5A
DOI: 10.1016/j.ijggc.2009.04.005
Adsorbate Carbon Dioxide: InChIKey CURLTUGMZLYLDI-UHFFFAOYSA-N
Temperature: 298 K
Tabular data in the source: 0
pressure (bar)	uptake (mmol/g)
-2.45e-05	0.0326087
0.0151367	0.815217
0.0434538	1.55435
0.0668721	1.82609
0.103365	2.16304
0.145205	2.36957
0.194984	2.48913
0.239514	2.6087
0.299824	2.68478
0.396863	2.78261
0.493927	2.84783
0.69597	2.92391
0.99775	3
