Adsorption isotherm of Carbon Dioxide on Zeolite 5A
DOI: 10.1016/j.ijggc.2009.04.005
Adsorbate Carbon Dioxide: InChIKey CURLTUGMZLYLDI-UHFFFAOYSA-N
Temperature: 423 K
Tabular data in the source: 0
pressure (bar)	uptake (mmol/g)
0.0497294	0.1859
0.102083	0.37183
0.149253	0.470475
0.204289	0.580109
0.296054	0.711951
0.395725	0.800265
0.495405	0.877676
0.694805	0.977981
0.87324	1.03444
0.986084	1.05748
