Adsorption isotherm of Carbon Dioxide on Zeolite 5A
DOI: 10.1016/j.ijggc.2009.04.005
Adsorbate Carbon Dioxide: InChIKey CURLTUGMZLYLDI-UHFFFAOYSA-N
Temperature: 353 K
Tabular data in the source: 0
pressure (bar)	uptake (mmol/g)
-2.45e-05	0.0326087
0.0466165	0.836957
0.0988898	1.13043
0.148628	1.30435
0.198375	1.46739
0.297957	1.67391
0.397564	1.84783
0.497204	1.97826
0.699214	2.09783
1.00096	2.21739
