Adsorption isotherm of Carbon Dioxide on Zeolite 5A
DOI: 10.1016/j.ijggc.2009.04.005
Adsorbate Carbon Dioxide: InChIKey CURLTUGMZLYLDI-UHFFFAOYSA-N
Temperature: 353 K
Tabular data in the source: 0
pressure (bar)	uptake (mmol/g)
-2.45e-05	0.0326087
0.0181363	0.315217
0.0519066	0.782609
0.0988898	1.13043
0.145971	1.34783
0.198326	1.53261
0.284793	1.72826
0.392299	1.86957
0.494588	1.96739
0.699214	2.09783
1.00099	2.18478
