Adsorption isotherm of Carbon Dioxide on Zeolite 5A
DOI: 10.1016/j.ijggc.2009.04.005
Adsorbate Carbon Dioxide: InChIKey CURLTUGMZLYLDI-UHFFFAOYSA-N
Temperature: 373 K
Tabular data in the source: 0
pressure (bar)	uptake (mmol/g)
0.023442	0.240131
0.046933	0.414842
0.101805	0.742543
0.146294	0.917483
0.196039	1.08158
0.290355	1.31158
0.397835	1.4872
0.500114	1.59735
0.69424	1.73031
1.00383	1.88633
