Adsorption isotherm of Carbon Dioxide on Zeolite 5A
DOI: 10.1016/j.ijggc.2009.04.005
Adsorbate Carbon Dioxide: InChIKey CURLTUGMZLYLDI-UHFFFAOYSA-N
Temperature: 473 K
Tabular data in the source: 0
pressure (bar)	uptake (mmol/g)
0.0471701	0.0986452
0.0996468	0.121024
0.149482	0.165181
0.199318	0.209338
0.299022	0.254039
0.401334	0.320575
0.498422	0.354344
0.697838	0.432842
1.00223	0.523389
