Adsorption isotherm of Carbon Dioxide on Zeolite 5A
DOI: 10.1016/j.ijggc.2009.04.005
Adsorbate Carbon Dioxide: InChIKey CURLTUGMZLYLDI-UHFFFAOYSA-N
Temperature: 298 K
Tabular data in the source: 0
pressure (bar)	uptake (mmol/g)
-2.45e-05	0.0326087
0.0460785	1.55435
0.0981155	2.16304
0.145205	2.36957
0.194984	2.48913
0.299824	2.68478
0.396863	2.78261
0.493936	2.83696
0.698595	2.92391
0.995126	3
