Adsorption isotherm of Nitrogen on MOF-650
DOI: 10.1039/C4ta04393f
Adsorbate Nitrogen: InChIKey IJGRMHOSHXDMSA-UHFFFAOYSA-N
Temperature: 77 K
Tabular data in the source: 0
pressure (bar)	uptake (cm3(STP)/g)
-0.000303606	64.0013
-0.000132827	28.0005
0.0024668	279.99
0.00258065	255.989
0.00267553	235.989
0.00277041	215.989
0.00288426	191.988
0.00299811	167.988
0.00316888	131.987
0.00332069	99.9863
0.00614802	303.975
0.00958256	379.961
0.00969641	355.96
0.00981031	331.96
0.0133018	395.945
0.023928	555.901
0.0386339	655.841
0.0574953	679.763
0.0725997	695.701
0.0915561	699.623
0.12186	711.498
0.137021	715.436
0.159772	719.342
0.216642	731.108
0.243188	734.999
0.269735	738.889
0.292505	738.796
0.341823	742.593
0.486016	745.999
0.535333	749.796
0.584669	749.593
0.63021	749.405
0.679527	753.202
0.728844	756.999
0.778199	752.796
0.827515	756.593
0.873038	760.405
0.92615	764.187
