Adsorption isotherm of Nitrogen on MOF-649
DOI: 10.1039/C4ta04393f
Adsorbate Nitrogen: InChIKey IJGRMHOSHXDMSA-UHFFFAOYSA-N
Temperature: 77 K
Tabular data in the source: 0
pressure (bar)	uptake (cm3(STP)/g)
-0.003795	16.0804
0	140.704
0.00759	201.005
0.026565	217.085
0.06831	221.106
0.0986695	221.106
0.148005	221.106
0.201135	221.106
0.25047	221.106
0.29601	225.126
0.345345	225.126
0.39468	225.126
0.44022	229.146
0.489555	233.166
0.53889	233.166
0.588225	233.166
0.63756	233.166
0.6831	233.166
0.732435	233.166
0.78177	237.186
0.827309	237.186
0.88044	241.206
0.92598	241.206
