Adsorption isotherm of Hydrogen on MOF-649
DOI: 10.1039/C4ta04393f
Adsorbate Hydrogen: InChIKey UFHFLCQGNIYNRP-UHFFFAOYSA-N
Temperature: 87 K
Tabular data in the source: 0
pressure (bar)	uptake (mg/g)
0.0383125	0.241935
0.0681033	0.403226
0.0893956	0.564516
0.119186	0.725806
0.165997	0.967742
0.221307	1.20968
0.276617	1.45161
0.331926	1.69355
0.387236	1.93548
0.442524	2.09677
0.493583	2.33871
0.548894	2.58065
0.604202	2.82258
0.659467	2.90323
0.714776	3.14516
0.770086	3.3871
0.821123	3.54839
0.876411	3.70968
0.931697	3.87097
0.987007	4.1129
1.04654	4.27419
