Adsorption isotherm of Hydrogen on MOF-649
DOI: 10.1039/C4ta04393f
Adsorbate Hydrogen: InChIKey UFHFLCQGNIYNRP-UHFFFAOYSA-N
Temperature: 77 K
Tabular data in the source: 0
pressure (bar)	uptake (mg/g)
0.0338596	0.403226
0.0634868	0.725806
0.0761843	0.967742
0.0931141	1.20968
0.118509	1.29032
0.165066	1.85484
0.275109	2.74194
0.330132	3.14516
0.380921	3.62903
0.435943	3.95161
0.490965	4.27419
0.545987	4.67742
0.596776	5
0.651798	5.24194
0.711052	5.56452
0.761843	5.8871
0.816863	6.04839
0.871886	6.37097
0.926908	6.53226
0.977697	6.77419
1.03272	7.01613
