Adsorption isotherm of Hydrogen on MOF-650
DOI: 10.1039/C4ta04393f
Adsorbate Hydrogen: InChIKey UFHFLCQGNIYNRP-UHFFFAOYSA-N
Temperature: 77 K
Tabular data in the source: 0
pressure (bar)	uptake (mg/g)
0.012748	1.28839
0.0297453	2.25357
0.0509918	2.89551
0.0722385	3.37617
0.093485	4.01812
0.131729	4.73814
0.182721	5.77882
0.233713	6.57756
0.284705	7.45695
0.335696	8.17504
0.386688	8.81249
0.441929	9.4493
0.492921	10.0867
0.543913	10.7242
0.594904	11.2004
1.03258	15.0051
1.08783	15.4
