Adsorption isotherm of Hydrogen on MOF-650
DOI: 10.1039/C4ta04393f
Adsorbate Hydrogen: InChIKey UFHFLCQGNIYNRP-UHFFFAOYSA-N
Temperature: 87 K
Tabular data in the source: 0
pressure (bar)	uptake (mg/g)
0.0169973	0.564516
0.0339945	1.12903
0.0637398	1.6129
0.0892357	2.09677
0.114732	2.41935
0.165724	3.06452
0.212467	3.70968
0.263458	4.27419
0.31445	4.75806
0.361192	5.24194
0.416434	5.72581
0.463175	6.04839
0.514167	6.53226
0.565159	6.85484
0.616151	7.33871
0.662893	7.66129
0.81162	8.62903
0.913604	9.27419
1.01134	9.75806
