Adsorption isotherm of Hydrogen on IRMOF-1
DOI: 10.1016/j.ijhydene.2011.12.125
Adsorbate Hydrogen: InChIKey UFHFLCQGNIYNRP-UHFFFAOYSA-N
Temperature: 100 K
Tabular data in the source: 0
pressure (bar)	uptake (g/l)
1.45808	1.23077
8.26245	4.76923
14.5808	7.38462
21.3852	10
28.6756	12.1538
35.48	14.1538
42.7704	15.8462
53.4629	18.7692
58.8092	19.8462
65.1276	21.3846
72.418	23.2308
81.6525	24.9231
92.3451	27.0769
105.954	29.5385
115.188	31.0769
124.423	32.4615
138.518	34.7692
149.696	36.3077
162.333	37.8462
176.428	39.8462
191.009	41.8462
201.701	42.7692
212.394	43.8462
221.628	44.9231
233.779	46
252.248	47.8462
265.371	48.9231
275.577	49.8462
287.242	50.6154
300.365	51.6923
312.515	52.6154
326.61	53.6923
337.789	54.4615
348.481	55.2308
