Adsorption isotherm of Hydrogen on Carbon
DOI: 10.1016/j.ijhydene.2011.12.125
Adsorbate Hydrogen: InChIKey UFHFLCQGNIYNRP-UHFFFAOYSA-N
Temperature: 80 K
Tabular data in the source: 0
pressure (bar)	uptake (g/l)
3.40219	9.69231
4.86027	11.2308
6.31835	12.6154
8.26245	14
10.6926	15.3846
12.6367	16.7692
15.0668	18.1538
17.983	19.2308
21.3852	20.4615
24.7874	21.6923
27.7035	22.7692
31.1057	23.8462
34.5079	24.9231
38.3961	25.8462
42.2843	26.9231
45.6865	27.8462
49.5747	28.7692
52.9769	29.8462
56.8651	30.6154
61.2394	31.5385
65.1276	32.3077
70.4739	33.5385
74.3621	34.4615
78.7363	35.2308
85.5407	36.4615
89.9149	37.2308
94.2892	38
98.1774	38.6154
102.552	39.3846
106.926	40
111.3	40.7692
115.674	41.3846
120.049	42
124.909	42.6154
129.283	43.2308
133.171	43.5385
137.546	44.1538
141.92	44.7692
146.294	45.5385
151.154	45.8462
155.529	46.3077
159.903	46.9231
164.763	47.3846
169.137	47.8462
173.512	48.3077
178.372	48.9231
182.746	49.2308
187.606	49.5385
191.981	50
196.841	50.4615
201.215	50.7692
205.589	51.0769
209.964	51.6923
214.338	52
218.712	52.3077
223.572	52.7692
228.433	53.0769
232.807	53.3846
237.667	53.6923
242.041	54
246.902	54.1538
251.276	54.7692
260.51	55.3846
265.371	55.5385
269.745	55.8462
275.577	56.1538
280.437	56.4615
284.812	56.6154
289.672	56.9231
294.046	57.2308
298.906	57.5385
303.281	57.8462
306.683	58
311.543	58.1538
315.917	58.4615
320.778	58.6154
325.638	58.9231
330.012	59.2308
334.872	59.3846
339.247	59.6923
344.107	59.8462
348.967	60
