Adsorption isotherm of Hydrogen on Carbon
DOI: 10.1016/j.ijhydene.2011.12.125
Adsorbate Hydrogen: InChIKey UFHFLCQGNIYNRP-UHFFFAOYSA-N
Temperature: 70 K
Tabular data in the source: 0
pressure (bar)	uptake (g/l)
2.91616	11.8462
4.37424	13.3846
5.34629	14.7692
7.2904	16.3077
8.74848	17.6923
11.1786	19.0769
13.6087	20.4615
16.0389	21.6923
18.955	22.9231
21.8712	24.1538
25.2734	25.2308
28.6756	26.4615
31.5917	27.3846
34.5079	28.6154
38.3961	29.6923
41.7983	30.7692
45.6865	31.6923
49.0887	32.6154
52.4909	33.6923
56.3791	34.6154
60.2673	35.5385
64.1555	36.4615
68.0437	37.3846
71.932	38.3077
75.8202	39.0769
80.1944	40
84.0826	40.7692
88.4569	41.6923
92.3451	42.4615
96.7193	43.0769
100.608	43.5385
104.982	44.3077
109.356	45.0769
113.73	45.6923
118.104	46.4615
122.479	47.0769
126.853	47.6923
131.227	48.3077
136.087	48.9231
140.462	49.3846
144.836	49.8462
149.696	50.3077
154.07	50.9231
158.445	51.3846
163.305	51.8462
167.679	52.3077
172.539	52.7692
176.914	53.2308
181.288	53.5385
186.148	54
190.522	54.4615
195.383	54.7692
199.757	55.2308
204.617	55.5385
209.478	55.8462
213.852	56.1538
218.712	56.4615
225.516	57.2308
232.807	57.5385
237.667	57.8462
241.555	58.4615
249.332	58.6154
254.192	58.9231
256.622	59.0769
261.482	59.3846
265.857	59.6923
270.717	59.8462
275.091	60.1538
279.951	60.4615
284.812	60.6154
289.186	60.9231
294.046	61.0769
298.42	61.3846
303.281	61.6923
308.141	61.8462
313.001	62
317.375	62.1538
322.236	62.4615
327.096	62.6154
331.47	62.9231
336.33	63.0769
341.191	63.2308
345.565	63.5385
