Adsorption isotherm of Hydrogen on Carbon
DOI: 10.1016/j.ijhydene.2011.12.125
Adsorbate Hydrogen: InChIKey UFHFLCQGNIYNRP-UHFFFAOYSA-N
Temperature: 90 K
Tabular data in the source: 0
pressure (bar)	uptake (g/l)
0.486027	4.15385
3.40219	7.38462
4.37424	8.61538
6.31835	10
7.77643	11.5385
10.6926	12.7692
13.1227	14
15.5529	15.3846
18.469	16.6154
21.3852	17.8462
24.7874	18.9231
28.6756	20
32.0778	20.9231
34.9939	22
38.8821	23.0769
42.2843	23.8462
46.1725	24.9231
50.5468	25.6923
53.949	26.6154
57.8372	27.5385
62.2114	28.3077
66.0996	29.0769
70.4739	30
74.3621	30.7692
78.7363	31.3846
83.1106	32.1538
87.4848	32.9231
91.373	33.6923
95.2612	34.1538
99.6355	35.0769
103.524	35.5385
107.898	36.3077
112.272	36.9231
116.646	37.3846
121.507	38
125.881	38.6154
130.255	39.2308
134.629	39.8462
139.004	40.4615
143.864	40.9231
148.238	41.5385
152.612	42.1538
157.473	42.6154
161.847	42.9231
165.735	43.5385
170.109	44
174.484	44.4615
179.344	44.7692
183.718	45.2308
188.092	45.6923
192.953	46.1538
197.327	46.6154
202.187	46.9231
206.561	47.3846
211.422	47.8462
215.796	48.1538
220.656	48.6154
225.03	48.9231
229.891	49.3846
234.265	49.6923
239.125	49.8462
243.985	50.3077
248.36	50.6154
252.734	51.0769
257.594	51.2308
261.968	51.5385
266.829	51.8462
271.203	52.1538
275.577	52.4615
285.784	53.2308
290.644	53.3846
295.018	54
299.392	54
304.253	54.3077
309.113	54.4615
313.487	54.7692
318.348	55.0769
322.722	55.3846
327.582	55.5385
331.956	55.8462
336.817	56
341.677	56.1538
346.537	56.4615
