Adsorption isotherm of Hydrogen on IRMOF-1
DOI: 10.1016/j.ijhydene.2011.12.125
Adsorbate Hydrogen: InChIKey UFHFLCQGNIYNRP-UHFFFAOYSA-N
Temperature: 80 K
Tabular data in the source: 0
pressure (bar)	uptake (g/l)
1.94411	3.69231
8.26245	7.53846
13.1227	10.6154
20.4131	13.3846
29.6476	16.6154
35.48	19.6923
48.1166	22.6154
56.8651	25.2308
65.1276	27.3846
73.39	29.5385
81.1665	31.3846
87.4848	32.7692
92.8311	34
102.066	35.5385
114.702	38.1538
126.853	40.3077
139.004	42.3077
150.182	44
161.361	45.5385
173.512	47.2308
182.26	48.3077
195.869	49.6923
208.019	51.0769
220.656	52.4615
227.461	53.0769
238.153	54
253.22	55.0769
270.231	56.7692
296.962	58.4615
312.515	59.5385
327.096	60.4615
339.247	61.2308
349.453	61.8462
