Adsorption isotherm of Hydrogen on IRMOF-1
DOI: 10.1016/j.ijhydene.2011.12.125
Adsorbate Hydrogen: InChIKey UFHFLCQGNIYNRP-UHFFFAOYSA-N
Temperature: 90 K
Tabular data in the source: 0
pressure (bar)	uptake (g/l)
1.94411	2.15385
6.80437	5.38462
12.6367	8
18.469	10.6154
25.7594	13.3846
33.5358	15.5385
40.3402	17.6923
48.6027	19.8462
54.435	21.6923
62.2114	23.3846
77.2783	26.9231
86.9988	29.0769
97.2053	31.2308
113.244	33.8462
127.339	36.3077
138.518	38
150.668	39.8462
159.903	41.2308
165.735	42
176.428	43.3846
190.036	45.2308
207.533	46.9231
222.114	48.6154
237.667	50
254.192	51.2308
266.829	52.4615
280.437	53.8462
296.962	54.9231
311.057	55.8462
324.18	56.9231
337.303	57.8462
347.995	58.4615
