Adsorption isotherm of Hydrogen on Carbon
DOI: 10.1016/j.ijhydene.2011.12.125
Adsorbate Hydrogen: InChIKey UFHFLCQGNIYNRP-UHFFFAOYSA-N
Temperature: 100 K
Tabular data in the source: 0
pressure (bar)	uptake (g/l)
1.45808	2.61538
2.43013	5.53846
4.86027	7.07692
6.80437	8.46154
8.74848	9.84615
11.1786	11.2308
14.0948	12.4615
16.0389	13.2308
19.4411	14.4615
22.3572	15.5385
25.7594	16.6154
29.1616	17.6923
32.5638	18.7692
36.452	19.6923
40.3402	20.6154
44.2284	21.5385
48.1166	22.4615
52.0049	23.3846
55.8931	24.1538
59.7813	24.9231
64.1555	25.6923
68.5298	26.4615
72.418	27.2308
76.3062	28
80.1944	28.6154
84.0826	29.3846
88.4569	30.1538
92.8311	30.7692
97.6914	31.3846
102.066	31.8462
106.44	32.6154
110.814	33.2308
115.188	33.6923
119.077	34.4615
123.451	35.0769
127.825	35.6923
132.199	36.3077
137.06	36.7692
141.434	37.2308
145.808	37.8462
150.668	38.3077
155.043	38.9231
159.417	39.3846
164.277	39.8462
168.651	40.3077
173.512	40.7692
177.886	41.2308
182.746	41.6923
187.12	42
191.009	42.4615
195.869	43.0769
200.243	43.3846
204.617	43.6923
208.991	44.1538
213.852	44.4615
218.712	44.9231
223.572	45.2308
227.461	45.6923
231.835	46
236.695	46.4615
241.555	46.7692
245.93	47.0769
250.79	47.5385
255.164	47.8462
260.024	48.1538
264.399	48.4615
268.773	48.7692
273.633	49.0769
278.007	49.3846
282.868	49.6923
286.27	49.5385
290.644	50.1538
295.018	50.1538
299.392	50.6154
301.823	50.9231
306.197	51.0769
308.627	51.2308
313.001	51.6923
317.861	51.8462
321.75	52
326.61	52.3077
330.984	52.6154
335.844	52.7692
340.219	53.0769
345.079	53.3846
349.939	53.5385
