Adsorption isotherm of Hydrogen on IRMOF-1
DOI: 10.1016/j.ijhydene.2011.12.125
Adsorbate Hydrogen: InChIKey UFHFLCQGNIYNRP-UHFFFAOYSA-N
Temperature: 70 K
Tabular data in the source: 0
pressure (bar)	uptake (g/l)
1.94411	5.07692
6.80437	8.76923
16.0389	13.6923
22.3572	16.7692
27.7035	19.5385
40.8262	24
49.0887	26.6154
57.3512	29.3846
65.1276	31.6923
75.3341	34.6154
87.9708	37.6923
98.1774	40.1538
106.926	42
117.132	43.8462
130.741	46.1538
140.462	47.6923
157.959	50
169.137	51.5385
179.344	52.7692
192.467	54.3077
205.589	55.6923
229.405	57.6923
241.555	58.6154
248.846	59.2308
268.773	60.6154
280.923	61.3846
295.99	62.3077
308.627	63.0769
325.638	64.1538
337.303	64.7692
349.453	65.5385
