Adsorption isotherm of Water on Activated Carbon Fiber
DOI: 10.1021/jp048323v
Article source: Figure 5
Adsorbate Water: InChIKey XLYOFNOQVPJJNP-UHFFFAOYSA-N
Kind: experiment
Temperature: 303 K
Tabular data in the source: 0
pressure (bar)	uptake (Fractional Loading)
0	0.010086
0.000304	0.011527
0.002917	0.008646
0.00796	0.018732
0.00948	0.023055
0.01191	0.024496
0.017622	0.0317
0.01981	0.046109
0.021999	0.083573
0.023706	0.177233
0.024013	0.229107
0.024264	0.357349
0.024516	0.505764
0.025073	0.67147
0.026119	0.881844
0.026194	0.119597
0.028019	0.161383
0.028247	0.90634
0.029055	0.206052
0.030645	0.383285
0.030678	0.925072
0.031258	0.463977
0.032241	0.646974
0.033039	0.782421
0.033413	0.943804
0.035053	0.939481
0.036574	0.958213
0.037851	0.975504
