Adsorption isotherm of Water on Activated Carbon Fiber
DOI: 10.1021/jp048323v
Article source: Figure 7
Adsorbate Water: InChIKey XLYOFNOQVPJJNP-UHFFFAOYSA-N
Kind: experiment
Temperature: 333 K
Tabular data in the source: 0
pressure (bar)	uptake (Fractional Loading)
0	1.72413
0.015089	20.5583
0.035866	28.9982
0.056644	37.438
0.075715	52.7892
0.094789	75.037
0.10618	107.696
0.113871	135.216
0.121573	209.287
0.12213	157.558
0.124428	247.193
0.126117	167.868
0.126713	283.38
0.128965	176.464
0.130389	181.624
0.131529	190.234
0.131561	324.717
0.133809	202.284
0.141244	353.943
0.141507	262.561
0.147785	333.196
0.153489	384.871
0.156903	376.22
0.159186	403.787
0.16118	412.39
0.162889	419.272
