Adsorption isotherm of Water on Activated Carbon Fiber
DOI: 10.1021/jp048323v
Article source: Figure 7
Adsorbate Water: InChIKey XLYOFNOQVPJJNP-UHFFFAOYSA-N
Kind: experiment
Temperature: 323 K
Tabular data in the source: 0
pressure (bar)	uptake (Fractional Loading)
0	0
0.006166	5.0857
0.011979	3.27982
0.041751	26.9991
0.07212	512.779
0.073386	735.175
0.073745	783.446
0.074278	811.024
0.075061	145.496
0.0771	835.123
0.081592	238.508
0.087616	476.354
0.09028	622.868
0.09103	933.203
0.095957	895.202
0.107245	998.492
