Adsorption isotherm of Water on Activated Carbon Fiber
DOI: 10.1021/jp048323v
Article source: Figure 7
Adsorbate Water: InChIKey XLYOFNOQVPJJNP-UHFFFAOYSA-N
Kind: experiment
Temperature: 328 K
Tabular data in the source: 0
pressure (bar)	uptake (Fractional Loading)
0	0
0.021364	22.1784
0.03778	32.3424
0.074888	83.6577
0.089288	136.947
0.09607	335.148
0.096088	429.976
0.10016	560.965
0.105282	298.84
0.10782	643.64
0.109571	386.724
0.117023	559.056
0.119973	705.575
0.121309	634.87
0.132797	746.813
