Adsorption isotherm of Water on Activated Carbon Fiber
DOI: 10.1021/jp048323v
Article source: Figure 7
Adsorbate Water: InChIKey XLYOFNOQVPJJNP-UHFFFAOYSA-N
Kind: experiment
Temperature: 293 K
Tabular data in the source: 0
pressure (bar)	uptake (Fractional Loading)
0	0
0.003663	11.7964
0.009025	30.3631
0.012058	121.517
0.012294	216.327
0.012463	314.59
0.012566	411.134
0.012668	505.954
0.012839	649.045
0.012941	738.692
0.01301	830.067
0.013878	914.485
0.01429	147.213
0.015892	297.094
0.016563	448.768
0.017033	600.457
0.017504	752.146
0.018043	979.692
0.018174	905.545
0.021807	1032.86
