Adsorption isotherm of Nitrogen on Activated Carbon Fiber
DOI: 10.1021/jp048323v
Article source: Figure 3a
Adsorbate Nitrogen: InChIKey IJGRMHOSHXDMSA-UHFFFAOYSA-N
Kind: experiment
Temperature: 77 K
Tabular data in the source: 0
pressure (bar)	uptake (mg/g)
0	-1.45347
0	119.187
0	129.361
4.3e-05	171.512
0.00013	14.5347
0.000221	24.709
0.000363	40.6972
0.000428	47.9645
0.000584	65.4061
0.000636	71.22
0.000804	90.1151
0.000856	95.929
0.001427	159.882
0.001635	183.137
0.001752	196.218
0.001881	210.753
0.004472	334.296
0.004948	220.923
0.005091	236.911
0.005311	261.62
0.005597	293.597
0.005817	318.306
0.009118	354.638
0.010904	388.066
0.012534	404.052
0.017076	412.766
0.02471	434.558
0.036833	459.249
0.057975	494.103
0.086672	542.027
0.148194	600.078
0.250265	700.222
0.408796	791.565
0.54436	810.266
0.691763	821.682
0.843603	830.185
1.01477	837.207
