Adsorption isotherm of Water on Argon/heat treated Activated Carbon Fiber
DOI: 10.1021/jp048323v
Article source: Figure 5
Adsorbate Water: InChIKey XLYOFNOQVPJJNP-UHFFFAOYSA-N
Kind: experiment
Temperature: 303 K
Tabular data in the source: 0
pressure (bar)	uptake (Fractional Loading)
0.003647	0.025937
0.010574	0.040346
0.013733	0.037464
0.017866	0.051873
0.02115	0.108069
0.023103	0.256484
0.023417	0.416427
0.02367	0.57781
0.023801	0.742075
0.024115	0.903458
0.024736	0.12536
0.027656	0.190202
0.028876	0.268012
0.029792	0.348703
0.031078	0.510086
0.031386	0.582133
0.031816	0.651297
0.032978	0.779539
0.032989	0.95389
0.033467	0.835735
0.034139	0.889049
0.035296	0.929395
0.038337	0.976945
0.040403	0.988473
