Adsorption isotherm of Argon on C32H24Ar1.15N2O8Rh2
DOI: 10.1021/Jp065321x
Adsorbate Argon: InChIKey XKRFYHLGVUSROY-UHFFFAOYSA-N
Temperature: 298 K
Tabular data in the source: 0
pressure (bar)	uptake (mol/mol)
1.14628	0.0414279
2.74798	0.0723442
5.03817	0.134367
7.32598	0.175557
9.15836	0.227259
10.3023	0.247854
11.6757	0.278818
12.8196	0.299413
13.9647	0.330424
16.2525	0.371614
17.8542	0.40253
18.9993	0.433542
21.5154	0.474684
24.261	0.526196
25.8627	0.557112
28.1517	0.608718
30.4371	0.629076
32.0388	0.659992
34.0983	0.70123
35.9271	0.721682
37.9866	0.762919
39.8155	0.783372
41.4172	0.814288
43.4755	0.845109
45.3043	0.865562
47.3626	0.896383
