Adsorption isotherm of Argon on C32H24Ar1.04Cu2N2O8
DOI: 10.1021/Jp065321x
Adsorbate Argon: InChIKey XKRFYHLGVUSROY-UHFFFAOYSA-N
Temperature: 298 K
Tabular data in the source: 0
pressure (bar)	uptake (mol/mol)
1.58371	0.03125
5.65611	0.114583
8.37104	0.15625
10.181	0.197917
12.4434	0.229167
14.9321	0.28125
16.7421	0.3125
18.3258	0.34375
19.9095	0.364583
21.9457	0.40625
23.9819	0.4375
25.7919	0.46875
27.3756	0.489583
29.1855	0.510417
31.6742	0.5625
33.7104	0.583333
35.7466	0.614583
37.1041	0.635417
39.3665	0.65625
41.629	0.6875
43.6652	0.697917
45.7014	0.729167
47.7376	0.75
49.7738	0.78125
