Adsorption isotherm of Xenon on C32H24Ar1.15N2O8Rh2
DOI: 10.1021/Jp065321x
Adsorbate Xenon: InChIKey FHNFHKCVQCLJFQ-UHFFFAOYSA-N
Temperature: 298 K
Tabular data in the source: 0
pressure (bar)	uptake (mol/mol)
0.697995	0.114438
0.935813	0.197722
1.40788	0.33304
1.64927	0.447573
1.8966	0.614188
2.38056	0.853671
2.39364	0.968251
2.63264	1.06195
2.87997	1.22857
3.3461	1.3118
4.50903	1.49906
5.20107	1.56142
6.125	1.65497
8.18926	1.73788
10.2499	1.78953
15.0503	1.84061
20.7603	1.86026
25.5571	1.88009
32.411	1.92033
