Adsorption isotherm of Argon on C32H24Ar1.04Cu2N2O8
DOI: 10.1021/Jp065321x
Adsorbate Argon: InChIKey XKRFYHLGVUSROY-UHFFFAOYSA-N
Temperature: 298 K
Tabular data in the source: 0
pressure (bar)	uptake (mol/mol)
0.904977	0.0104167
2.0362	0.0416667
2.94118	0.0625
4.97738	0.09375
5.88235	0.114583
7.01357	0.125
8.1448	0.166667
9.04977	0.166667
9.95475	0.1875
12.6697	0.239583
15.1584	0.291667
20.362	0.385417
25.1131	0.458333
30.543	0.53125
40.9502	0.677083
47.0588	0.760417
