Adsorption isotherm of Argon on C32H24Ar1.15N2O8Rh2
DOI: 10.1021/Jp065321x
Adsorbate Argon: InChIKey XKRFYHLGVUSROY-UHFFFAOYSA-N
Temperature: 298 K
Tabular data in the source: 0
pressure (bar)	uptake (mol/mol)
1.83476	0.0725344
2.97986	0.103546
3.89427	0.113772
5.03817	0.134367
7.32717	0.185974
9.84685	0.258365
12.363	0.299508
15.1086	0.351019
17.6259	0.402578
19.9149	0.454184
24.9471	0.536469
29.9805	0.629171
35.0127	0.711456
40.2721	0.783277
48.277	0.906609
