Adsorption isotherm of Xenon on C32H24Ar1.04Cu2N2O8
DOI: 10.1021/Jp065321x
Adsorbate Xenon: InChIKey FHNFHKCVQCLJFQ-UHFFFAOYSA-N
Temperature: 298 K
Tabular data in the source: 0
pressure (bar)	uptake (mol/mol)
1.13122	0.166667
1.80995	0.270833
2.0362	0.375
2.71493	0.697917
3.16742	0.84375
3.39367	0.979167
3.84615	1.125
4.52489	1.35417
4.97738	1.45833
6.1086	1.55208
7.46606	1.63542
8.37104	1.6875
10.181	1.73958
11.5385	1.75
12.8959	1.76042
13.8009	1.78125
16.0633	1.80208
18.3258	1.8125
26.0181	1.84375
28.2805	1.84375
31.2217	1.85417
33.4842	1.85417
35.9729	1.85417
38.009	1.85417
41.4027	1.86458
43.6652	1.86458
45.2489	1.86458
47.5113	1.86458
49.7738	1.86458
