Adsorption isotherm of Xenon on C32H24Ar1.04Cu2N2O8
DOI: 10.1021/Jp065321x
Adsorbate Xenon: InChIKey FHNFHKCVQCLJFQ-UHFFFAOYSA-N
Temperature: 298 K
Tabular data in the source: 0
pressure (bar)	uptake (mol/mol)
0.904977	0.103627
1.58371	0.248705
2.0362	0.404145
2.26244	0.435233
2.48869	0.497409
2.71493	0.569948
2.94118	0.756477
3.16742	0.891192
3.61991	1.01554
3.84615	1.11917
4.75113	1.40933
5.88235	1.54404
7.01357	1.60622
8.1448	1.65803
10.181	1.72021
14.9321	1.78238
20.362	1.81347
25.3394	1.8342
30.3167	1.8342
34.8416	1.81347
40.4977	1.85492
