Adsorption isotherm of Xenon on C32H24Ar1.15N2O8Rh2
DOI: 10.1021/Jp065321x
Adsorbate Xenon: InChIKey FHNFHKCVQCLJFQ-UHFFFAOYSA-N
Temperature: 298 K
Tabular data in the source: 0
pressure (bar)	uptake (mol/mol)
0.473257	0.145735
0.950082	0.322719
1.65164	0.468406
2.12609	0.624557
2.37342	0.791172
2.63264	1.06195
3.11303	1.27018
4.04766	1.45749
5.43533	1.61345
6.58636	1.69654
8.87655	1.75857
10.2511	1.79995
12.7661	1.83067
15.2774	1.83015
17.3345	1.85056
19.8471	1.86045
21.6747	1.87048
23.7283	1.85964
26.4703	1.8799
28.9805	1.86896
31.493	1.87886
33.0923	1.88894
35.1447	1.86768
37.2018	1.88808
39.4849	1.88761
41.3137	1.90806
43.139	1.89726
45.422	1.89679
47.7051	1.89631
