Adsorption isotherm of Carbon Dioxide on [Me2NH2][In(BPTC)]
DOI: 10.1039/c5ce01376c
Article source: Figure 4d
Adsorbate Carbon Dioxide: InChIKey CURLTUGMZLYLDI-UHFFFAOYSA-N
Kind: experiment
Temperature: 273 K
Tabular data in the source: 0
pressure (bar)	uptake (cm3(STP)/g)
0.041551	5.78571
0.069252	10.2857
0.091413	14.1429
0.121884	17.3571
0.146814	21.2143
0.171745	23.7857
0.199446	27
0.227147	29.8929
0.254848	32.7857
0.279778	35.3571
0.307479	38.25
0.33241	40.8214
0.360111	43.0714
0.385042	45.9643
0.412742	47.8929
0.440443	50.1429
0.468144	52.3929
0.490305	54.3214
0.520776	56.5714
0.545706	58.5
0.573407	60.4286
0.601108	62.0357
0.626039	63.9643
0.65374	65.5714
0.68144	66.8571
0.706371	68.4643
0.731302	70.0714
0.759003	71.3571
0.786704	72.9643
0.814404	74.5714
0.867036	76.8214
0.891967	77.4643
0.919668	79.0714
0.947368	80.0357
0.972299	81
1	81.9643
1.02493	83.25
1.05263	84.2143
1.08033	84.8571
