Adsorption isotherm of Carbon Dioxide on [Me2NH2][In(BPTC)]
DOI: 10.1039/c5ce01376c
Article source: Figure 4d
Adsorbate Carbon Dioxide: InChIKey CURLTUGMZLYLDI-UHFFFAOYSA-N
Kind: experiment
Temperature: 273 K
Tabular data in the source: 0
pressure (bar)	uptake (cm3(STP)/g)
0.038781	7.71429
0.041551	6.42857
0.066482	12.2143
0.091413	16.3929
0.119114	20.5714
0.146814	24.1071
0.171745	27.9643
0.199446	31.5
0.227147	34.7143
0.252078	37.6071
0.279778	40.8214
0.304709	43.3929
0.33518	46.2857
0.360111	48.5357
0.387812	50.7857
0.412742	52.7143
0.437673	54.9643
0.465374	56.8929
0.490305	58.8214
0.518006	60.1071
0.545706	62.0357
0.570637	63.3214
0.601108	64.9286
0.626039	66.2143
0.65374	68.1429
0.67867	69.1071
0.706371	70.3929
0.731302	71.3571
0.759003	72.6429
0.783934	73.6071
0.814404	74.5714
0.839335	75.5357
0.864266	76.1786
0.891967	77.1429
0.919668	78.1071
0.944598	78.75
0.972299	79.7143
0.99723	80.0357
1.0277	81.3214
1.05263	81.9643
1.08033	82.6071
