Adsorption isotherm of Carbon Dioxide on [Me2NH2][In(BPTC)]
DOI: 10.1039/c5ce01376c
Article source: Figure 4d
Adsorbate Carbon Dioxide: InChIKey CURLTUGMZLYLDI-UHFFFAOYSA-N
Kind: experiment
Temperature: 283 K
Tabular data in the source: 0
pressure (bar)	uptake (cm3(STP)/g)
0.069252	9.64286
0.091413	13.1786
0.119114	16.0714
0.144044	20.25
0.174515	23.1429
0.202216	26.3571
0.227147	29.25
0.254848	31.8214
0.277008	34.3929
0.307479	37.6071
0.33241	39.5357
0.360111	41.7857
0.387812	44.3571
0.412742	45.9643
0.437673	47.8929
0.465374	50.1429
0.490305	51.75
0.518006	53.6786
0.548476	55.6071
0.570637	56.8929
0.598338	58.1786
0.626039	59.7857
0.65374	61.0714
0.68144	62.6786
0.709141	63.9643
0.734072	65.25
0.759003	66.5357
0.786704	67.5
0.811634	68.4643
0.836565	69.75
0.867036	70.7143
0.891967	72
0.919668	72.6429
0.944598	73.6071
0.972299	74.5714
0.99723	75.5357
1.02493	76.1786
1.05263	76.8214
1.08033	77.7857
