Adsorption isotherm of Hydrogen on [Me2NH2][In(BPTC)]
DOI: 10.1039/c5ce01376c
Article source: Figure 4c
Adsorbate Hydrogen: InChIKey UFHFLCQGNIYNRP-UHFFFAOYSA-N
Kind: experiment
Temperature: 77 K
Tabular data in the source: 0
pressure (bar)	uptake (cm3(STP)/g)
0.040457	30.9386
0.040495	33.2437
0.066256	44.7839
0.071996	48.2449
0.091998	55.1717
0.094887	58.0547
0.123422	65.5626
0.123431	66.1389
0.146246	71.3385
0.151966	73.6469
0.17478	78.8465
0.203276	84.0493
0.228922	88.6743
0.257398	92.7246
0.283034	96.7733
0.311492	99.671
0.337108	102.567
0.365566	105.465
0.396855	107.788
0.41678	110.105
0.445208	111.274
0.470815	113.593
0.499263	115.915
0.524861	117.658
0.553299	119.404
0.576046	120.569
0.604474	121.738
0.630072	123.482
0.65565	124.073
0.684088	125.818
0.709666	126.409
0.735254	127.576
0.763682	128.745
0.792101	129.338
0.817689	130.505
0.843267	131.096
0.868845	131.687
0.900105	132.281
0.922852	133.447
0.951271	134.04
0.976858	135.207
1.00527	135.223
1.03086	136.391
1.0337	136.392
1.06211	136.409
1.08483	136.422
