Adsorption isotherm of Carbon Dioxide on [Me2NH2][In(BPTC)]
DOI: 10.1039/c5ce01376c
Article source: Figure 4d
Adsorbate Carbon Dioxide: InChIKey CURLTUGMZLYLDI-UHFFFAOYSA-N
Kind: experiment
Temperature: 295 K
Tabular data in the source: 0
pressure (bar)	uptake (cm3(STP)/g)
0.041551	3.21429
0.069252	4.82143
0.091413	7.39286
0.121884	9.64286
0.144044	11.25
0.171745	13.5
0.202216	15.1071
0.227147	16.7143
0.254848	18.9643
0.282548	20.5714
0.307479	22.1786
0.33241	23.7857
0.360111	25.0714
0.385042	26.6786
0.409972	28.2857
0.440443	29.5714
0.465374	31.1786
0.493075	32.7857
0.518006	34.0714
0.548476	35.3571
0.576177	36.3214
0.598338	37.9286
0.626039	38.8929
0.65097	40.1786
0.67867	41.1429
0.703601	42.4286
0.734072	43.3929
0.761773	44.3571
0.783934	45.6429
0.814404	46.6071
0.839335	47.5714
0.864266	48.5357
0.891967	49.1786
0.919668	50.1429
0.944598	51.1071
0.972299	51.75
1	52.7143
1.0277	53.3571
1.04986	54
1.07756	54.6429
