Adsorption isotherm of Hydrogen on [Me2NH2][In(BPTC)]
DOI: 10.1039/c5ce01376c
Article source: Figure 4c
Adsorbate Hydrogen: InChIKey UFHFLCQGNIYNRP-UHFFFAOYSA-N
Kind: experiment
Temperature: 77 K
Tabular data in the source: 0
pressure (bar)	uptake (cm3(STP)/g)
0.01459	13.0593
0.014619	14.7881
0.040447	30.3623
0.063348	40.7484
0.094781	51.7156
0.094801	52.8682
0.120494	60.3745
0.120513	61.5271
0.149038	68.4588
0.174713	74.8125
0.203218	80.5917
0.228864	85.2166
0.254519	90.4179
0.282996	94.4682
0.308632	98.5168
0.337108	102.567
0.362725	105.463
0.391183	108.361
0.416799	111.257
0.445266	114.731
0.470873	117.051
0.49648	119.371
0.524928	121.692
0.550535	124.012
0.576132	125.756
0.601739	128.076
0.630177	129.821
0.655765	130.988
0.681362	132.732
0.70981	135.053
0.735398	136.22
0.763827	137.389
0.789424	139.133
0.815012	140.3
0.84344	141.469
0.869028	142.636
0.900298	143.807
0.923044	144.973
0.951473	146.142
0.977061	147.309
1.00549	148.478
1.02823	149.067
1.05381	150.234
1.08223	150.827
