Adsorption isotherm of Carbon Dioxide on [Me2NH2][In(BPTC)]
DOI: 10.1039/c5ce01376c
Article source: Figure 4d
Adsorbate Carbon Dioxide: InChIKey CURLTUGMZLYLDI-UHFFFAOYSA-N
Kind: experiment
Temperature: 295 K
Tabular data in the source: 0
pressure (bar)	uptake (cm3(STP)/g)
0.044321	3.21429
0.066482	4.17857
0.094183	6.42857
0.121884	8.03571
0.146814	9.96429
0.171745	11.25
0.199446	12.8571
0.224377	14.4643
0.252078	15.75
0.279778	17.3571
0.304709	18.6429
0.33241	20.25
0.360111	21.5357
0.385042	22.8214
0.409972	23.7857
0.440443	25.0714
0.465374	26.3571
0.493075	27.6429
0.520776	28.6071
0.545706	29.8929
0.573407	30.8571
0.598338	32.1429
0.626039	33.1071
0.65374	34.3929
0.67867	35.3571
0.703601	36.3214
0.734072	37.2857
0.761773	38.25
0.786704	39.5357
0.814404	40.5
0.839335	41.1429
0.867036	42.4286
0.891967	43.0714
0.919668	44.0357
0.947368	45
0.972299	45.9643
0.99723	46.6071
1.0277	47.5714
1.05263	48.2143
1.08033	49.1786
