Adsorption isotherm of Hydrogen on [Me2NH2][In(BPTC)]
DOI: 10.1039/c5ce01376c
Article source: Figure 4c
Adsorbate Hydrogen: InChIKey UFHFLCQGNIYNRP-UHFFFAOYSA-N
Kind: experiment
Temperature: 87 K
Tabular data in the source: 0
pressure (bar)	uptake (cm3(STP)/g)
0.014455	4.99138
0.040178	14.2265
0.065852	20.5803
0.065871	21.7329
0.097208	26.9374
0.097237	28.6662
0.120042	33.2895
0.122892	33.8674
0.148538	38.4924
0.148557	39.6449
0.174193	43.6936
0.174212	44.8462
0.20267	47.7439
0.202689	48.8965
0.228315	52.3689
0.228334	53.5214
0.256792	56.4192
0.256811	57.5717
0.279567	59.3136
0.279587	60.4662
0.308035	62.7877
0.308054	63.9402
0.336511	66.838
0.336521	67.4143
0.362118	69.1578
0.364978	70.312
0.390566	71.4793
0.390595	73.2081
0.416192	74.9517
0.416202	75.528
0.441799	77.2715
0.441819	78.4241
0.470247	79.593
0.470266	80.7456
0.495854	81.9129
0.495873	83.0654
0.521461	84.2327
0.524312	84.8106
0.549899	85.9779
0.549919	87.1305
0.575516	88.874
0.575526	89.4503
0.601123	91.1939
0.629561	92.9391
0.657999	94.6843
0.683587	95.8516
0.709184	97.5951
0.740464	99.342
0.760379	101.082
0.788808	102.251
0.814395	103.418
0.817236	103.42
0.842814	104.011
0.842834	105.164
0.871253	105.756
0.871262	106.333
0.893999	106.922
0.89684	106.924
0.928119	108.67
0.950866	109.836
0.982136	111.007
0.999181	111.016
1.02762	112.762
1.0333	112.765
1.06173	113.934
1.08448	115.1
