Adsorption isotherm of Carbon Dioxide on [Me2NH2][In(BPTC)]
DOI: 10.1039/c5ce01376c
Article source: Figure 4d
Adsorbate Carbon Dioxide: InChIKey CURLTUGMZLYLDI-UHFFFAOYSA-N
Kind: experiment
Temperature: 283 K
Tabular data in the source: 0
pressure (bar)	uptake (cm3(STP)/g)
0.069252	8.67857
0.094183	11.25
0.121884	13.8214
0.146814	16.3929
0.174515	18.9643
0.199446	21.2143
0.227147	23.4643
0.254848	25.7143
0.279778	28.2857
0.307479	30.2143
0.33241	32.1429
0.360111	34.3929
0.387812	36.3214
0.412742	38.25
0.437673	40.1786
0.468144	42.1071
0.493075	44.0357
0.518006	45.6429
0.545706	47.25
0.573407	49.1786
0.601108	50.4643
0.626039	52.0714
0.65374	53.6786
0.67867	54.9643
0.706371	56.5714
0.731302	57.8571
0.761773	59.4643
0.786704	60.75
0.814404	62.0357
0.839335	63.3214
0.864266	64.2857
0.894737	65.5714
0.919668	66.8571
0.944598	68.1429
0.972299	69.1071
1	70.0714
1.0277	71.0357
1.05263	72.3214
1.08033	72.9643
