Adsorption isotherm of Nitrogen on [Me2NH2][In(BPTC)]
DOI: 10.1039/c5ce01376c
Article source: Figure 4a
Adsorbate Nitrogen: InChIKey IJGRMHOSHXDMSA-UHFFFAOYSA-N
Kind: experiment
Temperature: 77 K
Tabular data in the source: 0
pressure (bar)	uptake (cm3(STP)/g)
0.000892	182.083
0.00092	178.958
0.001575	107.083
0.001632	100.833
0.001727	90.4167
0.001831	78.9583
0.002021	58.125
0.002068	52.9167
0.002135	45.625
0.002154	43.5417
0.002267	31.0417
0.002324	24.7917
0.002391	17.5
0.002476	8.125
0.002524	2.91667
0.003605	184.167
0.004639	70.625
0.006309	187.292
0.030823	195.625
0.047179	199.792
0.069008	202.917
0.088124	203.958
0.099025	207.083
0.109973	205
0.115409	208.125
0.131812	207.083
0.137257	209.167
0.145473	207.083
0.153641	210.208
0.170025	211.25
0.170054	208.125
0.189141	212.292
0.18916	210.208
0.208257	213.333
0.211009	211.25
0.224651	213.333
0.230125	212.292
0.246499	214.375
0.249251	212.292
0.262893	214.375
0.271099	213.333
0.279277	215.417
0.292947	214.375
0.298402	215.417
0.309341	214.375
0.317519	216.458
0.328457	215.417
0.336644	216.458
0.347592	214.375
0.353028	217.5
0.372154	217.5
0.372163	216.458
0.388557	216.458
0.396735	218.542
0.407664	218.542
0.407673	217.5
0.429521	218.542
0.429531	217.5
0.448628	220.625
0.451379	218.542
0.459529	223.75
0.467697	226.875
0.467763	219.583
0.483891	248.75
0.486889	219.583
0.497505	253.958
0.51147	220.625
0.516631	253.958
0.527863	220.625
0.535747	255
0.54697	222.708
0.549408	255
0.568828	222.708
0.571256	256.042
0.58765	256.042
0.587953	222.708
0.606776	256.042
0.60707	223.75
0.625901	256.042
0.628918	224.792
0.645027	256.042
0.648034	225.833
0.66142	256.042
0.669883	226.875
0.680527	258.125
0.688999	227.917
0.696921	258.125
0.708115	228.958
0.718778	258.125
0.727222	231.042
0.737904	258.125
0.749051	234.167
0.754298	258.125
0.765416	237.292
0.770691	258.125
0.787084	258.125
0.789978	240.417
0.808942	258.125
0.809056	245.625
0.830791	259.167
0.830867	250.833
0.84172	259.167
0.847241	252.917
0.858113	259.167
0.866357	253.958
0.879971	259.167
0.888206	255
0.896365	259.167
0.907322	256.042
0.912758	259.167
0.92918	256.042
0.937348	259.167
0.956464	260.208
0.972858	260.208
0.989251	260.208
