Adsorption isotherm of Hydrogen on [Me2NH2][In(BPTC)]
DOI: 10.1039/c5ce01376c
Article source: Figure 4c
Adsorbate Hydrogen: InChIKey UFHFLCQGNIYNRP-UHFFFAOYSA-N
Kind: experiment
Temperature: 87 K
Tabular data in the source: 0
pressure (bar)	uptake (cm3(STP)/g)
0.017315	6.14557
0.040168	13.6503
0.068683	20.0057
0.097179	25.2085
0.122834	30.4098
0.145629	34.4568
0.171275	39.0818
0.199752	43.1321
0.225368	46.0282
0.253845	50.0785
0.279461	52.9746
0.307929	56.4486
0.336377	58.7701
0.362003	62.2425
0.38761	64.5624
0.416058	66.8838
0.441664	69.2037
0.470112	71.5251
0.495719	73.845
0.521317	75.5886
0.549765	77.91
0.575362	79.6536
0.6038	81.3988
0.629407	83.7186
0.657836	84.8876
0.680592	86.6295
0.70903	88.3747
0.737469	90.1199
0.763056	91.2872
0.788644	92.4545
0.817082	94.1997
0.84267	95.367
0.871099	96.5359
0.896696	98.2795
0.922274	98.8705
0.950712	100.616
0.979131	101.208
1.00188	102.374
1.02747	103.541
1.05589	104.71
1.08432	105.879
