Adsorption isotherm of Nitrogen on [Me2NH2][In(BPTC)]
DOI: 10.1039/c5ce01376c
Article source: Figure 4b
Adsorbate Nitrogen: InChIKey IJGRMHOSHXDMSA-UHFFFAOYSA-N
Kind: experiment
Temperature: 77 K
Tabular data in the source: 0
pressure (bar)	uptake (cm3(STP)/g)
0.000686	50.3655
0.001233	90.5118
0.001512	110.95
0.00179	131.388
0.002864	10.2211
0.003003	20.4401
0.003142	30.6592
0.003272	40.1484
0.00355	60.5865
0.00368	70.0757
0.003829	81.0247
0.004097	100.733
0.004386	121.901
0.004634	140.149
0.004754	148.909
0.005002	167.157
0.007608	158.4
0.010412	164.241
0.018676	170.817
0.035065	173.748
0.059628	176.686
0.067812	177.422
0.095071	178.172
0.10054	179.635
0.116879	178.917
0.122349	180.381
0.138678	178.933
0.138707	181.123
0.157751	178.947
0.157781	181.137
0.1741	178.959
0.176865	181.881
0.195909	179.705
0.195949	182.625
0.212298	182.637
0.214992	180.449
0.231341	180.461
0.231371	182.651
0.24772	182.663
0.25315	181.207
0.266804	183.406
0.274958	181.953
0.285878	183.42
0.296767	182.698
0.304951	183.434
0.3213	183.446
0.334915	182.726
0.340384	184.19
0.353988	182.74
0.356733	184.202
0.375807	184.216
0.378512	182.758
0.394881	184.23
0.397585	182.772
0.413934	182.784
0.413954	184.244
0.433008	182.798
0.438488	184.992
0.454807	182.814
0.454837	185.004
0.465726	184.282
0.47388	182.828
0.48481	185.025
0.492954	182.842
0.503883	185.039
0.517478	182.859
0.522957	185.053
0.542031	185.067
0.555635	183.617
0.555655	185.077
0.574709	183.631
0.577454	185.093
0.593803	185.105
0.596507	183.647
0.612876	185.119
0.618306	183.663
0.629225	185.131
0.63738	183.677
0.648299	185.145
0.656454	183.691
0.667383	185.889
0.675537	184.435
0.686446	185.173
0.700081	185.912
0.71094	183.001
0.721879	185.928
0.735483	184.478
0.738228	185.94
0.757292	185.224
0.773651	185.966
0.79	185.978
0.814503	184.536
0.814523	185.996
0.830872	186.008
0.833577	184.55
0.849946	186.022
0.86902	186.036
0.885368	186.048
0.901717	186.06
0.920791	186.074
0.939875	186.817
0.953499	186.827
0.964398	186.835
0.978032	187.575
0.994381	187.587
