Adsorption isotherm of Cyclohexane on UiO-66
DOI: 10.1016/j.micromeso.2013.07.035
Adsorbate Cyclohexane: InChIKey XDTMQSROBMDMFD-UHFFFAOYSA-N
Temperature: 473 K
Tabular data in the source: 0
pressure (bar)	uptake (mg/g)
0.00295644	5.63877
0.00919021	19.3833
0.0174148	32.0705
0.0269857	39.4714
0.0405209	48.9868
0.0448148	51.4537
0.0491102	53.5683
0.0696069	60.9692
0.0851476	65.9031
0.103017	68.0176
0.126843	71.1894
