Adsorption isotherm of N-Hexane on UiO-66
DOI: 10.1016/j.micromeso.2013.07.035
Adsorbate N-Hexane: InChIKey VLKZOEOYAKHREP-UHFFFAOYSA-N
Temperature: 473 K
Tabular data in the source: 0
pressure (bar)	uptake (mg/g)
0.00359617	5.99823
0.0125777	19.4079
0.0233369	32.1162
0.0367386	39.5433
0.0546055	49.0937
0.0608522	51.2205
0.0662102	53.698
0.0938632	61.153
0.114822	66.128
0.138883	68.2897
0.170966	71.5243
