Adsorption isotherm of Argon on UiO-66
DOI: 10.1016/j.micromeso.2013.07.035
Adsorbate Argon: InChIKey XKRFYHLGVUSROY-UHFFFAOYSA-N
Temperature: 86 K
Tabular data in the source: 0
pressure (bar)	uptake (ml/g)
0.0602928	0.00727273
0.0703415	0.0101818
0.0803903	0.0116364
0.0884293	0.0145455
0.098478	0.0174545
0.108527	0.0218182
0.116566	0.0261818
0.124605	0.032
0.16882	0.0552727
0.196957	0.0669091
0.217054	0.0712727
0.229113	0.0756364
0.243181	0.08
0.253229	0.0843636
0.265288	0.0872727
0.275337	0.0901818
0.319552	0.138182
0.345679	0.162909
0.363767	0.170182
0.373815	0.173091
0.389893	0.178909
0.395923	0.181818
0.401952	0.183273
0.412001	0.184727
0.424059	0.189091
0.464255	0.194909
0.484352	0.199273
0.50043	0.200727
0.512489	0.202182
0.526557	0.202182
0.536605	0.205091
0.546655	0.208
0.556703	0.208
0.590869	0.213818
0.651162	0.222545
0.663221	0.222545
0.671259	0.222545
0.683318	0.225455
0.693367	0.226909
0.703415	0.228364
0.711455	0.229818
0.727533	0.234182
0.741601	0.235636
0.757679	0.24
0.765718	0.242909
0.775767	0.245818
0.785816	0.248727
0.797875	0.256
0.805913	0.260364
0.809933	0.263273
0.815962	0.267636
0.819982	0.273455
0.826011	0.279273
0.83204	0.286545
