Adsorption isotherm of Nitrogen on Py-Azine COF
DOI: 10.1021/ja4103293
Article source: Figure 2 (A)
Adsorbate Nitrogen: InChIKey IJGRMHOSHXDMSA-UHFFFAOYSA-N
Kind: experiment
Temperature: 77 K
Tabular data in the source: 0
pressure (bar)	uptake (cm3(STP)/g)
0.005725	22.5352
0.005725	42.2535
0.004293	75.3521
0.008587	136.62
0.008587	182.394
0.014311	219.718
0.025761	249.296
0.034347	267.606
0.06297	283.099
0.085869	288.732
0.111629	295.775
0.140252	300
0.171737	302.817
0.223258	305.634
0.239001	308.451
0.280504	308.451
0.320576	312.676
0.37496	312.676
0.423619	314.085
0.469415	315.493
0.526661	319.718
0.572458	322.535
0.618254	323.944
0.676931	329.577
0.728452	333.099
0.77568	338.732
0.827201	350.704
0.87586	361.972
0.920226	378.169
0.967453	409.859
0.993214	440.141
1.00896	467.606
0.015282	33.5343
0.024844	229.552
0.086874	311.572
0.112081	319.398
0.137339	324.062
0.168979	325.545
0.20062	327.027
0.232235	330.09
0.267018	333.144
0.298708	331.464
0.34304	331.326
0.390488	334.34
0.450603	337.314
0.504335	343.471
0.548441	357.562
0.599031	362.147
0.656029	361.969
0.703503	363.402
0.754067	369.569
0.798274	377.336
0.845698	381.931
0.892946	397.594
0.949418	430.619
0.971209	454.267
0.993124	470.008
