Adsorption isotherm of Allura Red, Brilliant Black, Sunset Yellow, Tartrazine, Water on Activated pine wood biochar
DOI: 10.1002/clen.201600333
Article source: Figure 4b
Adsorbate Allura Red: InChIKey CEZCCHQBSQPRMU-UHFFFAOYSA-L
Adsorbate Brilliant Black: InChIKey GMMAPXRGRVJYJY-UHFFFAOYSA-J
Adsorbate Sunset Yellow: InChIKey OIQPTROHQCGFEF-UHFFFAOYSA-L
Adsorbate Tartrazine: InChIKey UJMBCXLDXJUMFB-UHFFFAOYSA-K
Adsorbate Water: InChIKey XLYOFNOQVPJJNP-UHFFFAOYSA-N
Kind: experiment
Temperature: 298 K
Tabular data in the source: 0
pressure (bar)	Allura Red fraction	Allura Red uptake (mg/g)	Brilliant Black fraction	Brilliant Black uptake (mg/g)	Sunset Yellow fraction	Sunset Yellow uptake (mg/g)	Tartrazine fraction	Tartrazine uptake (mg/g)	Water fraction	Water uptake (mg/g)	total uptake (mg/g)
1.01325	18.77	6.951	19.99	3.956	4.43	9.178	7.43	4.091			
1.01325	94.53	24.952	179.05	15.966	28.19	27.244	67.43	16.284			
1.01325	217.84	34.944	448.71	21.979	38.65	46.161	178.36	26.173			
1.01325	344.82	40.996	648.61	28.112	248.85	57.175	387.42	32.089			
1.01325	473.81	42.057	897.7	28.108	420.15	71.071	657.38	36.23			
