Adsorption isotherm of Brilliant Black, Water on Activated pine wood biochar
DOI: 10.1002/clen.201600333
Article source: Figure 4a
Adsorbate Brilliant Black: InChIKey GMMAPXRGRVJYJY-UHFFFAOYSA-J
Adsorbate Water: InChIKey XLYOFNOQVPJJNP-UHFFFAOYSA-N
Kind: experiment
Temperature: 298 K
Tabular data in the source: 0
pressure (bar)	Brilliant Black fraction	Brilliant Black uptake (mg/g)	Water fraction	Water uptake (mg/g)	total uptake (mg/g)
1.01325	30.32	6.966			
1.01325	120.36	18.161			
1.01325	249.46	25.26			
1.01325	378.65	32.194			
1.01325	628.56	37.281			
