Adsorption isotherm of Allura Red, Water on Activated pine wood biochar
DOI: 10.1002/clen.201600333
Article source: Figure 4a
Adsorbate Allura Red: InChIKey CEZCCHQBSQPRMU-UHFFFAOYSA-L
Adsorbate Water: InChIKey XLYOFNOQVPJJNP-UHFFFAOYSA-N
Kind: experiment
Temperature: 298 K
Tabular data in the source: 0
pressure (bar)	Allura Red fraction	Allura Red uptake (mg/g)	Water fraction	Water uptake (mg/g)	total uptake (mg/g)
1.01325	3.5	9.117			
1.01325	109.36	40.222			
1.01325	189.06	46.339			
1.01325	299.21	55.306			
1.01325	409.8	62.389			
