Adsorption isotherm of Sunset Yellow, Water on Activated pine wood biochar
DOI: 10.1002/clen.201600333
Article source: Figure 4a
Adsorbate Sunset Yellow: InChIKey OIQPTROHQCGFEF-UHFFFAOYSA-L
Adsorbate Water: InChIKey XLYOFNOQVPJJNP-UHFFFAOYSA-N
Kind: experiment
Temperature: 298 K
Tabular data in the source: 0
pressure (bar)	Sunset Yellow fraction	Sunset Yellow uptake (mg/g)	Water fraction	Water uptake (mg/g)	total uptake (mg/g)
1.01325	5.88	9.889			
1.01325	10.13	29.069			
1.01325	29.53	46.99			
1.01325	109.16	59.173			
1.01325	168.19	80.241			
1.01325	228.8	89.317			
