Adsorption isotherm of Tartrazine, Water on Activated pine wood biochar
DOI: 10.1002/clen.201600333
Article source: Figure 4a
Adsorbate Tartrazine: InChIKey UJMBCXLDXJUMFB-UHFFFAOYSA-K
Adsorbate Water: InChIKey XLYOFNOQVPJJNP-UHFFFAOYSA-N
Kind: experiment
Temperature: 298 K
Tabular data in the source: 0
pressure (bar)	Tartrazine fraction	Tartrazine uptake (mg/g)	Water fraction	Water uptake (mg/g)	total uptake (mg/g)
1.01325	10.92	8.837			
1.01325	45.06	27.962			
1.01325	150.03	34.635			
1.01325	298.98	39.869			
1.01325	569.51	47.047			
