Adsorption isotherm of Carbon Dioxide on {[Zn2(MTB)(H2O)2]*3H2O*3DMF}n
DOI: 10.1016/j.colsurfa.2012.11.067
Adsorbate Carbon Dioxide: InChIKey CURLTUGMZLYLDI-UHFFFAOYSA-N
Temperature: 273 K
Tabular data in the source: 0
pressure (bar)	uptake (cm3(STP)/g)
0.00421011	0.789266
0.0309707	2.61321
0.0661819	4.93011
0.111252	7.78927
0.168999	10.2048
0.232379	12.7681
0.30421	14.7893
0.371816	16.6625
0.436604	18.1907
0.508435	19.916
0.573224	21.247
0.664773	23.1203
0.752097	24.9935
0.847872	26.916
0.936604	29.1343
1.0028	30.5639
