Adsorption isotherm of Carbon Dioxide on {[Zn2(MTB)(H2O)2]*3H2O*3DMF}n
DOI: 10.1016/j.colsurfa.2012.11.067
Adsorbate Carbon Dioxide: InChIKey CURLTUGMZLYLDI-UHFFFAOYSA-N
Temperature: 293 K
Tabular data in the source: 0
pressure (bar)	uptake (cm3(STP)/g)
0.0239284	1.5287
0.063365	3.40194
0.130971	5.96532
0.194351	8.03574
0.266182	9.7611
0.336604	11.3386
0.401393	12.6695
0.464773	13.9512
0.536604	15.1343
0.598576	16.1203
0.66759	16.9583
0.733788	17.9935
0.799985	18.8808
0.86759	19.7681
0.935196	20.6062
0.998576	21.247
