Adsorption isotherm of Nitrogen on {[Zn2(MTB)(H2O)2]*3H2O*3DMF}n
DOI: 10.1016/j.colsurfa.2012.11.067
Adsorbate Nitrogen: InChIKey IJGRMHOSHXDMSA-UHFFFAOYSA-N
Temperature: 77 K
Tabular data in the source: 0
pressure (bar)	uptake (cm3(STP)/g)
0.00515504	57.4257
0.0194565	60.9296
0.0509196	63.4323
0.100975	65.2343
0.15818	66.2354
0.221107	67.0363
0.281173	67.5368
0.335518	67.9373
0.411316	68.1375
0.572922	68.5379
0.65301	68.4378
0.761701	68.3377
0.843219	68.4378
0.919016	68.638
0.95906	69.0385
0.983373	69.9395
0.993384	71.5412
