Adsorption isotherm of Carbon Dioxide on NH2-MIL-53(Al)
DOI: 10.1016/j.ces.2014.10.028
Article source: Figure 2
Adsorbate Carbon Dioxide: InChIKey CURLTUGMZLYLDI-UHFFFAOYSA-N
Kind: experiment
Temperature: 257 K
Tabular data in the source: 0
pressure (bar)	uptake (mmol/g)
1.01761	2.35294
1.64384	2.41486
2.19178	2.47678
2.818	2.50774
3.60078	2.60062
4.14873	2.66254
4.77495	2.75542
5.55773	2.75542
6.10568	2.81734
6.65362	3.09598
7.51468	4.08669
8.21918	4.98452
9.15851	5.72755
10.0196	6.31579
11.7417	7.24458
13.6204	7.9257
15.4207	8.48297
17.2994	9.00929
19.1781	9.44272
21.0568	9.90712
