Adsorption isotherm of Methane on NH2-MIL-53(Al)
DOI: 10.1016/j.ces.2014.10.028
Article source: Figure 4
Adsorbate Methane: InChIKey VNWKTOKETHGBQD-UHFFFAOYSA-N
Kind: experiment
Temperature: 273 K
Tabular data in the source: 0
pressure (bar)	uptake (mmol/g)
0.970297	0.051185
2.0099	0.10235
4.0198	0.214994
5.05941	0.204394
5.9604	0.276188
9.9802	0.367653
14.9703	0.407362
15.0396	0.489694
19.9604	0.488247
20.0297	0.405874
25.0198	1.41323
