Adsorption isotherm of Methane on NH2-MIL-53(Al)
DOI: 10.1016/j.ces.2014.10.028
Article source: Figure 4
Adsorbate Methane: InChIKey VNWKTOKETHGBQD-UHFFFAOYSA-N
Kind: experiment
Temperature: 298 K
Tabular data in the source: 0
pressure (bar)	uptake (mmol/g)
0.207921	0.041115
0.623762	0.08217
0.831683	0.102697
1.17822	0.133477
1.66337	0.174511
2.14851	0.225839
2.84158	0.277105
3.46535	0.338687
4.92079	0.4412
6.37624	0.533419
7.62376	0.656581
8.87129	0.800332
10.2574	1.03669
12.0594	1.71557
13.8614	2.39445
16.0099	2.63059
18.0198	2.71235
20.1683	2.79407
22.8713	2.87563
25.6436	2.94687
28.3465	3.00784
31.1188	3.06879
