Adsorption isotherm of Carbon Dioxide on NH2-MIL-53(Al)
DOI: 10.1016/j.ces.2014.10.028
Article source: Figure 2
Adsorbate Carbon Dioxide: InChIKey CURLTUGMZLYLDI-UHFFFAOYSA-N
Kind: experiment
Temperature: 273 K
Tabular data in the source: 0
pressure (bar)	uptake (mmol/g)
0.078278	1.23839
0.156556	1.64087
0.234834	1.88854
0.313112	2.04334
0.547945	2.13622
0.626223	2.19814
1.17417	2.26006
1.409	2.29102
1.95695	2.29102
2.97456	2.41486
6.10568	2.5387
8.1409	2.60062
10.1761	2.6935
12.1331	2.94118
13.9335	3.86997
15.6556	4.9226
17.456	5.85139
19.3346	6.56347
21.2133	7.1517
23.7182	7.80186
26.3014	8.39009
28.8845	8.85449
31.3894	9.34985
33.8943	9.96904
