Adsorption isotherm of Carbon Dioxide on NH2-MIL-53(Al)
DOI: 10.1016/j.ces.2014.10.028
Article source: Figure 2
Adsorbate Carbon Dioxide: InChIKey CURLTUGMZLYLDI-UHFFFAOYSA-N
Kind: experiment
Temperature: 298 K
Tabular data in the source: 0
pressure (bar)	uptake (mmol/g)
0	1.30031
0.156556	1.11455
0.234834	1.60991
0.313112	1.76471
0.704501	1.95046
1.09589	1.98142
1.64384	2.0743
2.27006	2.13622
2.97456	2.19814
3.67906	2.2291
5.00978	2.29102
6.49706	2.35294
7.82779	2.3839
9.31507	2.44582
10.7241	2.44582
12.7593	2.50774
14.7945	2.56966
16.9863	2.60062
19.0998	2.72446
21.0568	3.21981
23.5616	4.14861
26.2231	4.89164
28.9628	5.47988
31.546	5.97523
34.364	6.34675
36.7906	6.65635
