Adsorption isotherm of Methane on NH2-MIL-53(Al)
DOI: 10.1016/j.ces.2014.10.028
Article source: Figure 4
Adsorbate Methane: InChIKey VNWKTOKETHGBQD-UHFFFAOYSA-N
Kind: experiment
Temperature: 283 K
Tabular data in the source: 0
pressure (bar)	uptake (mmol/g)
0.485149	0.061622
0.693069	0.123326
1.10891	0.174674
1.66337	0.225981
2.14851	0.287603
2.77228	0.359479
3.46535	0.410745
4.85149	0.544161
6.09901	0.677618
7.48515	0.893387
8.66337	1.3151
9.77228	1.98389
11.0198	2.51882
12.9604	2.74472
15.0396	2.83675
17.0495	2.91851
19.1287	2.97967
21.1386	3.04084
23.8416	3.09152
26.6139	3.13188
29.3861	3.17224
32.0891	3.21262
