Adsorption isotherm of Carbon Dioxide on NH2-MIL-53(Al)
DOI: 10.1016/j.ces.2014.10.028
Article source: Figure 2
Adsorbate Carbon Dioxide: InChIKey CURLTUGMZLYLDI-UHFFFAOYSA-N
Kind: experiment
Temperature: 263 K
Tabular data in the source: 0
pressure (bar)	uptake (mmol/g)
0.156556	2.01238
0.234834	1.9195
0.391389	2.2291
0.626223	2.29102
1.56556	2.3839
2.19178	2.44582
2.818	2.50774
3.5225	2.56966
4.93151	2.60062
6.26223	2.72446
7.59295	3.0031
8.53229	4.17957
9.62818	5.13932
10.7241	5.91331
12.5245	6.81115
14.4031	7.52322
16.2035	8.0805
18.1605	8.57585
19.9609	8.97833
22.6223	9.47368
25.0489	10
