Adsorption isotherm of Nitrogen on shuttle-like aragonite mesocrystals
DOI: 10.1016/j.jece.2017.01.004
Article source: Figure 3
Adsorbate Nitrogen: InChIKey IJGRMHOSHXDMSA-UHFFFAOYSA-N
Kind: experiment
Temperature: 77 K
Tabular data in the source: 0
pressure (bar)	uptake (cm3(STP)/g)
0.005279	1.3716
0.012625	1.7226
0.031218	2.3953
0.048108	3.0583
0.06891	2.9221
0.082122	3.0002
0.085061	3.4096
0.104879	3.1467
0.120544	3.2834
0.125195	3.8
0.143301	3.3519
0.158469	3.5567
0.161408	3.9564
0.181966	3.4693
0.182209	4.0639
0.201045	4.0056
0.203011	3.723
0.252193	4.2499
0.253176	3.8211
0.285224	4.338
0.305296	3.8704
0.33466	4.3386
0.351155	4.1199
0.402435	4.1514
0.403985	4.5847
0.45643	4.2604
0.45876	4.8638
0.507699	7.9124
0.50926	4.6169
0.553538	4.7103
0.560914	8.7795
0.601707	4.943
0.607148	9.1359
0.653756	5.3923
0.656087	9.5697
0.704641	5.9499
0.711196	10.3775
0.756832	6.5221
0.76053	10.7219
0.812945	11.9015
0.816025	7.3579
0.827738	8.1194
0.841923	12.5158
0.856108	8.8811
0.863505	13.2775
0.886931	9.913
0.892483	14.1374
0.910367	11.5588
0.929487	15.1203
0.942425	13.303
0.94736	16.6187
0.962163	15.4154
0.976561	18.8723
0.984323	18.8569
0.992479	21.5646
0.994809	20.2495
1.00298	23.1583
1.00686	26.098
