Adsorption isotherm of Hydrogen sulfide on MIL-53(Cr)
DOI: 10.1021/Cr4006473
Adsorbate Hydrogen sulfide: InChIKey RWSOTUBLDIXVET-UHFFFAOYSA-N
Temperature: 303 K
Tabular data in the source: 0
pressure (bar)	uptake (mmol/g)
0.259377	2.09032
0.46058	2.47742
0.729579	2.86452
0.932094	3.01935
1.06638	3.25161
1.26976	3.25161
1.54051	3.32903
1.74347	3.40645
2.08157	3.56129
2.35232	3.63871
2.82646	3.71613
3.09765	3.71613
3.3006	3.79355
3.91077	3.79355
4.99508	3.87097
5.94336	4.02581
6.96031	4.02581
8.92597	4.10323
10.8912	4.25806
16.856	4.49032
