Adsorption isotherm of Hydrogen sulfide on MIL-47(V)
DOI: 10.1021/Cr4006473
Adsorbate Hydrogen sulfide: InChIKey RWSOTUBLDIXVET-UHFFFAOYSA-N
Temperature: 303 K
Tabular data in the source: 0
pressure (bar)	uptake (mmol/g)
1.11022e-15	0
0.130529	1.32575
0.322794	4.14341
0.516118	6.71235
0.714027	8.20355
0.845967	9.19769
1.04811	9.69405
1.25061	10.1075
1.4531	10.521
1.65666	10.6857
1.86021	10.8505
2.06341	11.0981
2.26661	11.3458
2.40243	11.428
2.81025	11.5917
3.08189	11.7561
3.2858	11.8379
3.9656	12.0831
4.98584	12.3265
5.93835	12.4874
6.95895	12.6479
7.91145	12.8087
8.93134	13.1351
9.95158	13.3785
11.9931	13.6166
13.8985	13.8554
15.9407	13.9278
17.9152	13.9175
