Adsorption isotherm of Hydrogen sulfide on MIL-53(Cr)
DOI: 10.1021/Cr4006473
Adsorbate Hydrogen sulfide: InChIKey RWSOTUBLDIXVET-UHFFFAOYSA-N
Temperature: 303 K
Tabular data in the source: 0
pressure (bar)	uptake (mmol/g)
-0.0695462	0.309677
0.0629852	0.851613
0.127283	1.47097
0.190705	2.24516
0.526627	2.7871
0.795626	3.17419
1.33494	3.71613
1.72772	6.19355
1.85457	7.74194
3.47162	9.52258
3.87665	9.83226
4.55418	9.90968
5.09524	10.1419
5.43379	10.2194
6.2456	10.529
7.26211	10.6065
7.80405	10.6839
8.95528	10.9161
10.3786	10.9935
11.0557	11.1484
12.0044	11.2258
13.0209	11.3032
13.7662	11.3806
14.7832	11.3806
16.2056	11.6129
17.0865	11.6903
