Adsorption isotherm of Hydrogen sulfide on MIL-53(Cr)
DOI: 10.1021/Cr4006473
Adsorbate Hydrogen sulfide: InChIKey RWSOTUBLDIXVET-UHFFFAOYSA-N
Temperature: 303 K
Tabular data in the source: 0
pressure (bar)	uptake (mmol/g)
-0.00168439	0.262765
0.147665	0.964312
0.295329	1.92862
0.442994	2.89294
1.05443	3.50942
1.51483	3.68712
1.80735	6.05369
1.87248	7.89346
3.5535	9.65449
4.01446	9.7446
4.70506	10.0112
5.16658	10.0137
5.7039	10.1918
6.24066	10.4575
7.24006	10.5506
7.77794	10.6411
9.00698	10.9106
10.4673	11.0938
11.0827	11.0972
12.159	11.1907
13.081	11.3709
13.9265	11.4631
14.7726	11.4677
16.2341	11.4757
17.1561	11.656
