Adsorption isotherm of Hydrogen sulfide on MIL-53(Cr)
DOI: 10.1021/Cr4006473
Adsorbate Hydrogen sulfide: InChIKey RWSOTUBLDIXVET-UHFFFAOYSA-N
Temperature: 303 K
Tabular data in the source: 0
pressure (bar)	uptake (mmol/g)
-2.77556e-15	1.77636e-15
0.131627	0.70194
0.327088	2.10549
0.520347	3.89864
0.646691	5.53562
0.843472	6.70541
1.04289	7.40768
1.24408	7.79827
1.51262	8.26711
1.646	8.65737
1.84719	9.04796
2.25175	9.43954
2.45426	9.59637
2.72368	9.90937
3.06221	9.98894
3.26383	10.3016
3.94046	10.5387
4.95518	10.9332
5.90255	11.2495
6.91859	11.4103
8.88067	12.1212
9.89671	12.282
10.8454	12.3645
12.8792	12.3744
14.8444	12.5398
