Adsorption isotherm of Hydrogen sulfide on MIL-47(V)
DOI: 10.1021/Cr4006473
Adsorbate Hydrogen sulfide: InChIKey RWSOTUBLDIXVET-UHFFFAOYSA-N
Temperature: 303 K
Tabular data in the source: 0
pressure (bar)	uptake (mmol/g)
0.198615	1.3254
0.396172	2.8995
0.594435	4.3078
0.79305	5.6332
1.0594	7.04114
1.19204	7.86947
1.39348	8.53164
1.93429	9.44075
2.13609	10.02
2.74675	10.5143
3.01768	10.8445
4.17127	11.7504
5.12096	12.5745
5.86815	12.9851
7.02209	13.8082
8.04304	13.8858
9.26754	14.1281
10.2885	14.2058
11.1052	14.2844
12.0577	14.4453
14.0318	14.518
16.1418	14.6728
