Adsorption isotherm of Nitrogen on UMCM-1
DOI: 10.1039/C1jm10264h
Adsorbate Nitrogen: InChIKey IJGRMHOSHXDMSA-UHFFFAOYSA-N
Temperature: 77 K
Tabular data in the source: 0
pressure (bar)	uptake (mmol/g)
0.00723052	13.8018
0.0102493	26.5651
0.0300172	37.8793
0.0580744	43.5922
0.08607	45.7771
0.119653	47.7558
0.149018	48.2809
0.193764	49.1205
0.294446	51.1135
0.329404	51.7435
0.390928	52.7943
0.484615	54.4745
0.585291	56.1562
0.69157	58.4616
0.76289	60.137
0.971259	65.0583
