Adsorption isotherm of Carbon Dioxide on UMCM-1
DOI: 10.1039/C1jm10264h
Adsorbate Carbon Dioxide: InChIKey CURLTUGMZLYLDI-UHFFFAOYSA-N
Temperature: 298 K
Tabular data in the source: 0
pressure (bar)	uptake (mmol/g)
2.64961	1.40937
4.30004	2.18837
5.60363	3.22637
6.29829	3.37504
7.29741	3.96837
8.86114	4.82138
9.42602	5.26624
11.1203	6.37861
12.1629	6.97197
13.3358	7.67655
14.3783	8.30695
15.5948	9.1597
17.1588	10.1609
18.4618	10.8285
19.4177	11.4959
20.8076	12.2376
21.1987	12.5713
22.9795	13.4615
24.5432	14.2404
25.6726	14.9079
26.9756	15.5015
29.0604	16.5771
30.537	17.2078
32.3178	18.061
34.2285	18.7661
35.9658	19.5452
38.1802	20.1764
39.787	20.7702
