Adsorption isotherm of Methane on UMCM-1
DOI: 10.1039/C1jm10264h
Adsorbate Methane: InChIKey VNWKTOKETHGBQD-UHFFFAOYSA-N
Temperature: 298 K
Tabular data in the source: 0
pressure (bar)	uptake (mmol/g)
3.06569	1.87338
4.16058	2.36169
4.81752	3.01385
5.91241	3.74706
8.10219	4.88694
10.073	6.10874
12.0438	7.16729
14.8905	8.6328
19.927	11.3198
25.1825	13.7617
30.219	15.4691
35.0365	17.0952
40.073	19.0475
50.146	21.4828
