Adsorption isotherm of Nitrogen on UMCM-1
DOI: 10.1039/C1jm10264h
Adsorbate Nitrogen: InChIKey IJGRMHOSHXDMSA-UHFFFAOYSA-N
Temperature: 298 K
Tabular data in the source: 0
pressure (bar)	uptake (mmol/g)
3.71203	0.392851
5.91266	0.836766
6.34428	0.885904
6.7759	0.935042
7.121	1.03383
7.72518	1.13237
8.15712	1.08237
10.8757	1.57534
11.3075	1.57491
11.6958	1.67366
12.0842	1.72284
12.4725	1.82159
12.9041	1.87073
13.2062	1.91999
13.638	1.91957
14.0263	2.01831
15.7528	2.21487
16.1844	2.26401
16.6162	2.26358
16.9611	2.41193
17.3929	2.41151
17.8247	2.41108
18.472	2.50957
18.9038	2.50914
19.2494	2.45923
22.2694	3.19973
22.7014	3.14974
23.9531	3.2972
24.3848	3.29677
25.7659	3.49366
26.1978	3.44367
26.6296	3.44324
27.8811	3.64027
28.3129	3.63984
30.5577	3.78631
30.9895	3.78588
31.4212	3.78546
32.5434	3.93304
32.9752	3.93261
33.407	3.93219
33.8387	3.93176
35.6516	4.12823
36.0835	4.07823
36.5151	4.12737
36.9039	4.07742
37.94	4.12596
38.9758	4.27363
39.4076	4.2732
