Adsorption isotherm of Carbon Dioxide on UMCM-2
DOI: 10.1039/C1jm10264h
Adsorbate Carbon Dioxide: InChIKey CURLTUGMZLYLDI-UHFFFAOYSA-N
Temperature: 298 K
Tabular data in the source: 0
pressure (bar)	uptake (mmol/g)
1.9116	1.29771
4.90875	2.92956
7.95011	5.117
10.0789	6.52598
14.9457	10.4926
20.1175	15.2001
24.985	19.6481
30.1118	23.2445
34.9761	25.5074
40.0156	28.7704
