Adsorption isotherm of Hydrogen on UMCM-1
DOI: 10.1039/C1jm10264h
Adsorbate Hydrogen: InChIKey UFHFLCQGNIYNRP-UHFFFAOYSA-N
Temperature: 77 K
Tabular data in the source: 0
pressure (bar)	uptake (mmol/g)
0.942767	5.89151
2.04061	10.2279
3.14224	14.1198
3.97437	16.3444
8.16624	23.8005
9.56289	26.3599
19.8643	32.6107
29.6343	34.6379
39.7069	34.4436
49.9279	33.472
59.7262	32.1659
69.6664	30.8602
