Adsorption isotherm of Carbon Dioxide on UMCM-2
DOI: 10.1039/C1jm10264h
Adsorbate Carbon Dioxide: InChIKey CURLTUGMZLYLDI-UHFFFAOYSA-N
Temperature: 298 K
Tabular data in the source: 0
pressure (bar)	uptake (mmol/g)
3.63983	2.61655
3.94323	2.76447
4.37678	2.86262
5.07003	3.4058
5.46015	3.55354
5.76344	3.80047
6.1101	4.04731
6.41338	4.29423
6.71667	4.54116
7.06338	4.73849
7.36678	4.8864
8.62324	5.92352
10.6593	7.89968
12.2193	8.9362
12.5226	9.18312
12.7825	9.38063
13.0858	9.62755
13.4325	9.87439
13.7358	10.1213
14.0391	10.3682
14.3424	10.6152
14.6456	10.8621
14.9489	11.1585
15.2956	11.3559
15.512	11.702
15.8588	11.8498
16.2055	12.0471
16.6386	12.5413
16.9854	12.6891
17.3321	12.8865
17.5486	13.1831
17.8953	13.3309
18.1553	13.5779
18.4586	13.8248
18.8052	14.0717
19.1085	14.3186
19.4552	14.5159
19.6717	14.8125
20.0618	14.9603
20.3651	15.2072
20.9718	15.602
21.3185	15.7994
21.6652	16.0462
22.4885	16.5891
22.8353	16.737
23.4852	17.2307
23.832	17.3786
24.1787	17.5759
24.482	17.7733
24.7853	18.0202
25.132	18.2176
25.4788	18.3654
25.8255	18.5627
26.1723	18.7105
26.3456	18.8587
26.6923	19.0065
27.039	19.2039
27.4292	19.3516
27.7325	19.4995
28.0793	19.6969
28.4694	19.8446
28.5993	19.9929
28.9461	20.1407
29.2494	20.3381
29.6395	20.4859
29.9863	20.6337
30.3331	20.7815
30.6798	20.9293
31.0701	20.9781
31.4168	21.1259
32.8038	21.7667
33.194	21.865
33.5842	21.9632
33.8876	22.1111
34.2343	22.2589
34.581	22.4563
34.8411	22.5548
35.2747	22.6034
35.6215	22.7512
35.9682	22.8991
36.3585	22.9478
36.7486	23.0955
37.9623	23.5882
38.3959	23.5873
38.6993	23.7352
39.0895	23.8335
39.4797	23.8822
39.8265	24.0796
