Adsorption isotherm of Methane on UMCM-1
DOI: 10.1039/C1jm10264h
Adsorbate Methane: InChIKey VNWKTOKETHGBQD-UHFFFAOYSA-N
Temperature: 298 K
Tabular data in the source: 0
pressure (bar)	uptake (mmol/g)
1.75182	0.977208
3.28467	1.46492
4.81752	2.60569
6.35036	3.0934
8.10219	4.07061
10.073	5.12915
12.2628	6.02413
15.1095	7.40801
20.146	9.44198
25.4015	11.394
30.219	12.6119
35.2555	13.748
40.073	15.2108
50.146	16.5032
