Adsorption isotherm of Carbon Dioxide on UMCM-1
DOI: 10.1039/C1jm10264h
Adsorbate Carbon Dioxide: InChIKey CURLTUGMZLYLDI-UHFFFAOYSA-N
Temperature: 298 K
Tabular data in the source: 0
pressure (bar)	uptake (mmol/g)
4.97191	8.13709
10.0281	18.8313
15	26.6992
19.9719	31.2024
25.0281	34.5614
30	37.9206
35.2247	40.2028
40.1966	42.1487
