Adsorption isotherm of Nitrogen on UMCM-2
DOI: 10.1039/C1jm10264h
Adsorbate Nitrogen: InChIKey IJGRMHOSHXDMSA-UHFFFAOYSA-N
Temperature: 298 K
Tabular data in the source: 0
pressure (bar)	uptake (mmol/g)
0.88013	0.25597
4.69028	0.904019
9.86799	1.76311
19.9292	3.28569
29.7938	4.64278
40.2417	5.72941
50.4931	6.65056
