Adsorption isotherm of Carbon Dioxide on UMCM-2
DOI: 10.1039/C1jm10264h
Adsorbate Carbon Dioxide: InChIKey CURLTUGMZLYLDI-UHFFFAOYSA-N
Temperature: 298 K
Tabular data in the source: 0
pressure (bar)	uptake (mmol/g)
1.98121	1.14002
5.08127	3.22181
8.05236	5.15489
10.0759	6.54275
14.9828	10.3098
19.8017	14.6221
24.9241	18.4387
29.9642	21.0657
34.9168	24.0397
39.7867	25.9232
