Adsorption isotherm of Nitrogen on UMCM-2
DOI: 10.1039/C1jm10264h
Adsorbate Nitrogen: InChIKey IJGRMHOSHXDMSA-UHFFFAOYSA-N
Temperature: 77 K
Tabular data in the source: 0
pressure (bar)	uptake (mmol/g)
0.00314114	12.7835
0.00486727	27.732
0.0297546	36.701
0.0589751	44.0206
0.0852588	49.7938
0.146474	57.0103
0.175583	58.2474
0.195956	58.866
0.29052	60.5155
0.385056	60.6186
0.587216	60.7216
0.975563	62.3711
