Adsorption isotherm of Nitrogen on UMCM-1
DOI: 10.1039/C1jm10264h
Adsorbate Nitrogen: InChIKey IJGRMHOSHXDMSA-UHFFFAOYSA-N
Temperature: 298 K
Tabular data in the source: 0
pressure (bar)	uptake (mmol/g)
2.15247	0.627624
2.71185	0.881779
3.92943	1.19554
5.89415	1.79331
7.76605	2.33126
11.8871	3.39206
14.8824	4.24381
24.9046	6.79866
34.6555	8.87482
