Adsorption isotherm of Methane on UMCM-1
DOI: 10.1039/C1jm10264h
Adsorbate Methane: InChIKey VNWKTOKETHGBQD-UHFFFAOYSA-N
Temperature: 298 K
Tabular data in the source: 0
pressure (bar)	uptake (mmol/g)
5.15533	1.181
8.18742	1.98074
10.0942	2.28815
15.1194	3.45687
20.1023	4.40392
25.0849	5.41254
30.025	6.22413
35.0085	7.04803
40.0358	7.73644
