Adsorption isotherm of Nitrogen on UMCM-1
DOI: 10.1039/C1jm10264h
Adsorbate Nitrogen: InChIKey IJGRMHOSHXDMSA-UHFFFAOYSA-N
Temperature: 77 K
Tabular data in the source: 0
pressure (bar)	uptake (mmol/g)
0.00459613	23.036
0.00756412	32.894
0.0102747	28.0178
0.0272921	41.9254
0.0553004	44.8367
0.0818909	46.6063
0.116858	47.7552
0.14762	48.2806
0.172796	49.116
0.195182	50.2622
0.199369	49.848
0.242717	50.6874
0.273481	51.3165
0.293059	51.7358
0.316903	56.3063
0.340737	60.3581
0.384084	61.0937
0.490332	61.6352
0.583995	61.9665
0.737768	62.4144
0.975413	62.7764
