Adsorption isotherm of Carbon Dioxide on UMCM-2
DOI: 10.1039/C1jm10264h
Adsorbate Carbon Dioxide: InChIKey CURLTUGMZLYLDI-UHFFFAOYSA-N
Temperature: 298 K
Tabular data in the source: 0
pressure (bar)	uptake (mmol/g)
1.9063	1.62989
4.89619	3.75268
7.97201	6.61788
9.92135	8.54471
14.7724	13.9311
19.9273	19.0199
24.9543	22.1783
30.0247	25.1881
35.0096	27.1089
39.8648	28.7329
