Adsorption isotherm of Methane on UMCM-1
DOI: 10.1039/C1jm10264h
Adsorbate Methane: InChIKey VNWKTOKETHGBQD-UHFFFAOYSA-N
Temperature: 298 K
Tabular data in the source: 0
pressure (bar)	uptake (mmol/g)
0.908752	0.259998
1.99087	0.507561
4.93414	1.20076
7.83414	1.88158
9.78178	2.36437
15.0629	3.4783
19.9976	4.55514
24.8027	5.54528
29.9546	6.47337
34.9767	7.3891
39.9125	8.20572
