Adsorption isotherm of Methane on UMCM-1
DOI: 10.1039/C1jm10264h
Adsorbate Methane: InChIKey VNWKTOKETHGBQD-UHFFFAOYSA-N
Temperature: 298 K
Tabular data in the source: 0
pressure (bar)	uptake (mmol/g)
5.71318	1.39883
6.14592	1.52264
6.96839	1.69592
8.57001	2.04249
9.08919	2.21584
11.297	2.66139
12.509	2.92131
13.0714	3.13183
14.1105	3.30505
15.7987	3.66399
16.5346	3.8249
17.7464	4.122
18.872	4.34477
21.2963	4.80265
22.5516	5.08735
24.1103	5.33479
26.1883	5.7432
27.4437	5.99072
28.656	6.18868
30.8207	6.57229
31.9463	6.78267
33.8083	7.04243
36.0163	7.43841
37.4884	7.68588
39.134	7.88373
