Adsorption isotherm of Nitrogen on UMCM-1
DOI: 10.1039/C1jm10264h
Adsorbate Nitrogen: InChIKey IJGRMHOSHXDMSA-UHFFFAOYSA-N
Temperature: 298 K
Tabular data in the source: 0
pressure (bar)	uptake (mmol/g)
5.02748	0.663786
8.19132	1.08173
10.0117	1.30295
15.0829	1.89284
20.0677	2.38422
24.9659	2.86331
30.0375	3.34236
35.0227	3.75985
40.0947	4.15269
