Adsorption isotherm of Nitrogen on UMCM-1
DOI: 10.1039/C1jm10264h
Adsorbate Nitrogen: InChIKey IJGRMHOSHXDMSA-UHFFFAOYSA-N
Temperature: 77 K
Tabular data in the source: 0
pressure (bar)	uptake (mmol/g)
0.0123777	37.0936
0.026589	40.4213
0.0351361	42.7088
0.0534103	44.1673
0.0843019	46.1479
0.101207	48.0216
0.119489	49.584
0.154552	51.2538
0.174239	52.9204
0.185473	53.6501
0.204277	62.693
0.230874	63.2182
0.256057	63.5353
0.29383	63.9589
0.316203	64.0676
0.344175	64.2814
0.395941	64.9159
0.439312	65.4446
0.467277	65.5545
0.489672	65.9749
0.544183	65.8826
0.556764	65.8853
0.577754	66.2015
0.615497	66.2096
0.632286	66.4209
0.658846	66.4266
0.678438	66.7425
0.704991	66.6443
0.735752	66.7548
0.783309	67.1805
0.832279	67.8144
0.860237	67.8204
0.889607	68.0344
0.93996	68.4608
