Adsorption isotherm of Methane on UMCM-1
DOI: 10.1039/C1jm10264h
Adsorbate Methane: InChIKey VNWKTOKETHGBQD-UHFFFAOYSA-N
Temperature: 298 K
Tabular data in the source: 0
pressure (bar)	uptake (mmol/g)
3.06569	1.54685
5.69343	2.68613
9.41606	4.39535
12.0438	5.61627
15.1095	6.91822
20.365	8.78862
24.9635	10.3334
30	12.2041
35.2555	13.6663
50.146	17.4012
