Adsorption isotherm of Nitrogen on UMCM-1
DOI: 10.1039/C1jm10264h
Adsorbate Nitrogen: InChIKey IJGRMHOSHXDMSA-UHFFFAOYSA-N
Temperature: 298 K
Tabular data in the source: 0
pressure (bar)	uptake (mmol/g)
4.40129	1.16544
10.2252	1.94131
20.0784	3.67329
29.5603	5.166
39.7085	6.37417
