Adsorption isotherm of Nitrogen on UMCM-1
DOI: 10.1039/C1jm10264h
Adsorbate Nitrogen: InChIKey IJGRMHOSHXDMSA-UHFFFAOYSA-N
Temperature: 298 K
Tabular data in the source: 0
pressure (bar)	uptake (mmol/g)
5.00656	0.639399
8.02742	1.13207
10.0987	1.52654
15.1061	1.91811
20.0267	2.4089
24.9906	2.89964
30.0415	3.19203
34.8771	3.28637
40.1872	3.52893
