Adsorption isotherm of Methane on UMCM-2
DOI: 10.1039/C1jm10264h
Adsorbate Methane: InChIKey VNWKTOKETHGBQD-UHFFFAOYSA-N
Temperature: 298 K
Tabular data in the source: 0
pressure (bar)	uptake (mmol/g)
2.07736	0.544714
5.02015	1.34944
7.96326	2.07981
9.95413	2.58737
14.8879	3.87487
19.952	5.08799
24.8431	6.20202
29.9506	7.39035
34.8855	8.41762
39.9937	9.44486
