Adsorption isotherm of Hydrogen on UMCM-2
DOI: 10.1039/C1jm10264h
Adsorbate Hydrogen: InChIKey UFHFLCQGNIYNRP-UHFFFAOYSA-N
Temperature: 77 K
Tabular data in the source: 0
pressure (bar)	uptake (mmol/g)
0.433996	2.92013
0.867993	5.39082
2.02532	8.98307
2.74864	12.2395
3.61664	14.5966
4.48463	16.6166
5.49729	18.5239
7.66727	21.1021
9.54792	23.4563
11.4286	25.3612
15.0452	27.5982
19.8192	29.7196
24.7378	30.9417
29.8011	31.9388
34.8644	31.6998
39.6383	31.9111
50.0542	30.8706
