Adsorption isotherm of Nitrogen on UMCM-1
DOI: 10.1039/C1jm10264h
Adsorbate Nitrogen: InChIKey IJGRMHOSHXDMSA-UHFFFAOYSA-N
Temperature: 77 K
Tabular data in the source: 0
pressure (bar)	uptake (mmol/g)
0.00889673	29.1588
0.00897469	33.6206
0.0104469	37.8751
0.0301604	46.0765
0.0581687	48.9878
0.0875531	50.6542
0.119733	52.3213
0.147709	53.3649
0.177093	55.0313
0.195271	55.3465
0.199474	55.8662
0.242879	59.9222
0.29468	64.4987
0.388354	65.4526
0.497408	66.6173
0.584091	67.4659
0.802159	67.5125
0.972698	67.4451
