Adsorption isotherm of Hydrogen on UMCM-1
DOI: 10.1039/C1jm10264h
Adsorbate Hydrogen: InChIKey UFHFLCQGNIYNRP-UHFFFAOYSA-N
Temperature: 298 K
Tabular data in the source: 0
pressure (bar)	uptake (mmol/g)
1.56679	0.04
2.56386	0.0666667
4.13096	0.12
5.55571	0.173333
7.97659	0.213333
9.82713	0.213333
15.0994	0.44
19.9424	0.573333
24.7845	0.666667
30.0552	0.826667
34.8976	0.933333
40.024	1.01333
