Adsorption isotherm of Carbon Dioxide on UMCM-2
DOI: 10.1039/C1jm10264h
Adsorbate Carbon Dioxide: InChIKey CURLTUGMZLYLDI-UHFFFAOYSA-N
Temperature: 298 K
Tabular data in the source: 0
pressure (bar)	uptake (mmol/g)
2.00957	2.15279
3.01277	3.69961
5.10525	6.18851
10.0329	15.1994
15.2134	24.009
20.238	29.1893
25.0162	32.6893
30.0507	34.9127
34.9217	35.7918
45.0046	36.1391
