Adsorption isotherm of Carbon Dioxide on UMCM-2
DOI: 10.1039/C1jm10264h
Adsorbate Carbon Dioxide: InChIKey CURLTUGMZLYLDI-UHFFFAOYSA-N
Temperature: 298 K
Tabular data in the source: 0
pressure (bar)	uptake (mmol/g)
1.12949	0.70454
1.47687	0.815909
1.78096	1.00132
2.08505	1.18673
2.38914	1.37214
2.73652	1.48351
2.91045	1.70586
3.21454	1.89127
3.47528	2.11369
3.77931	2.26206
4.08346	2.48451
5.60384	3.37452
5.86458	3.59694
6.12526	3.78232
7.77613	4.85761
8.08027	5.08006
8.2976	5.30244
8.90588	5.74734
9.16662	5.96975
9.55768	6.26634
9.86176	6.45175
10.1226	6.7112
10.3833	6.93362
11.2089	7.56386
11.513	7.78631
11.7304	8.04573
12.0345	8.26817
12.2953	8.49059
12.556	8.713
12.8168	8.97246
12.9471	9.04663
13.2513	9.26908
13.512	9.49149
13.7294	9.75091
13.9901	9.97333
14.4247	10.344
14.7288	10.5665
14.9895	10.7518
15.2503	11.0113
15.6849	11.382
15.9456	11.6044
17.4233	12.9759
17.684	13.1612
17.9881	13.3467
18.2489	13.6061
18.5096	13.8656
18.727	14.0879
18.9877	14.3104
19.2484	14.4957
19.5092	14.7552
19.7699	14.9406
19.9872	15.1259
20.2479	15.3483
20.552	15.5337
20.7694	15.7932
21.5081	16.3863
21.8122	16.5717
22.0296	16.8311
22.377	17.0166
22.5944	17.239
22.7248	17.3872
22.9855	17.5726
23.2896	17.795
23.5503	17.9804
23.8545	18.2399
24.1153	18.4623
24.4193	18.6477
24.6367	18.9071
24.9408	19.0925
25.2016	19.352
25.5056	19.5004
25.7663	19.6858
26.027	19.8711
26.2876	20.0195
26.5917	20.2049
26.6787	20.3161
26.9828	20.5015
27.2869	20.6869
27.5476	20.9093
27.8517	21.0947
28.1558	21.2801
28.4165	21.5025
28.6339	21.7249
28.9814	21.9104
29.2854	22.0587
29.5461	22.2811
29.8069	22.5406
30.1543	22.652
30.5018	22.8374
31.7182	23.6161
32.0222	23.7645
33.8467	24.8399
34.1507	24.9512
34.4548	25.1737
34.8023	25.3221
35.1063	25.5075
35.367	25.6929
35.7578	25.8043
36.0619	25.9526
36.4093	26.1381
36.7568	26.2865
37.0608	26.4349
37.4083	26.5833
37.7123	26.7316
37.973	26.917
38.3204	27.0284
38.6678	27.1768
39.0587	27.3993
39.4062	27.5477
39.7102	27.659
