Adsorption isotherm of Nitrogen on UMCM-1
DOI: 10.1039/C1jm10264h
Adsorbate Nitrogen: InChIKey IJGRMHOSHXDMSA-UHFFFAOYSA-N
Temperature: 77 K
Tabular data in the source: 0
pressure (bar)	uptake (mmol/g)
0.00479738	34.5536
0.0132916	40.6773
0.0273592	45.7646
0.0581614	48.5727
0.0875386	49.8241
0.119744	52.9439
0.14925	61.5624
0.175822	62.2944
0.226155	62.8239
0.293267	63.6684
0.34079	63.3672
0.385522	63.3768
0.474982	63.1884
0.584009	62.7966
0.771321	62.6291
0.976816	63.088
