Adsorption isotherm of Hydrogen on UMCM-1
DOI: 10.1039/C1jm10264h
Adsorbate Hydrogen: InChIKey UFHFLCQGNIYNRP-UHFFFAOYSA-N
Temperature: 77 K
Tabular data in the source: 0
pressure (bar)	uptake (mmol/g)
3.2699	15.7869
4.09352	19.0114
5.20744	21.4589
6.03957	23.6834
7.99603	27.1333
9.81821	29.6939
19.9759	36.1666
29.8877	38.1941
39.8175	38.1106
49.6092	37.5822
59.8331	36.2773
