Adsorption isotherm of Nitrogen on UMCM-2
DOI: 10.1039/C1jm10264h
Adsorbate Nitrogen: InChIKey IJGRMHOSHXDMSA-UHFFFAOYSA-N
Temperature: 298 K
Tabular data in the source: 0
pressure (bar)	uptake (mmol/g)
4.9839	0.713058
7.93091	1.13105
10.0549	1.33989
14.8658	1.94215
20.1107	2.48273
25.0086	3.0234
30.037	3.46551
35.0219	3.94458
40.0502	4.42363
