Adsorption isotherm of Nitrogen on UMCM-2
DOI: 10.1039/C1jm10264h
Adsorbate Nitrogen: InChIKey IJGRMHOSHXDMSA-UHFFFAOYSA-N
Temperature: 77 K
Tabular data in the source: 0
pressure (bar)	uptake (mmol/g)
0.00482791	25.567
0.00929036	31.0309
0.029809	39.6907
0.0882369	53.6082
0.149337	54.5361
0.178432	54.9485
0.291884	55.567
0.389352	56.9072
0.585692	56.9072
0.972555	56.9072
