Adsorption isotherm of Nitrogen on UMCM-1
DOI: 10.1039/C1jm10264h
Adsorbate Nitrogen: InChIKey IJGRMHOSHXDMSA-UHFFFAOYSA-N
Temperature: 298 K
Tabular data in the source: 0
pressure (bar)	uptake (mmol/g)
0.939474	0.119349
4.97442	0.836044
10.0445	1.6122
14.9261	2.38843
20.0007	2.97007
29.9612	4.14839
35.0383	4.6253
39.7392	5.07242
