Adsorption isotherm of Nitrogen on UMCM-2
DOI: 10.1039/C1jm10264h
Adsorbate Nitrogen: InChIKey IJGRMHOSHXDMSA-UHFFFAOYSA-N
Temperature: 298 K
Tabular data in the source: 0
pressure (bar)	uptake (mmol/g)
1.66258	0.496866
2.83563	0.783021
3.4232	1.05392
5.86749	1.70145
7.92056	2.22854
12.0266	3.26768
14.8613	3.94544
19.9443	5.15036
25.1241	6.26508
30.0112	7.3797
35.2876	8.37417
40.271	9.33845
50.3332	10.9813
