Adsorption isotherm of Methane on UMCM-2
DOI: 10.1039/C1jm10264h
Adsorbate Methane: InChIKey VNWKTOKETHGBQD-UHFFFAOYSA-N
Temperature: 298 K
Tabular data in the source: 0
pressure (bar)	uptake (mmol/g)
1.77728	0.640045
4.89888	1.27743
7.97679	2.21193
9.88443	2.60419
14.9133	3.98037
19.8996	4.61406
25.1026	5.39584
30.0024	5.78217
35.076	5.92064
40.0627	6.15829
