Adsorption isotherm of Methane on UMCM-1
DOI: 10.1039/C1jm10264h
Adsorbate Methane: InChIKey VNWKTOKETHGBQD-UHFFFAOYSA-N
Temperature: 298 K
Tabular data in the source: 0
pressure (bar)	uptake (mmol/g)
15.0434	3.98011
19.9429	4.71298
30.0022	5.98019
35.032	6.51479
40.062	6.85136
