Adsorption isotherm of Nitrogen on UMCM-2
DOI: 10.1039/C1jm10264h
Adsorbate Nitrogen: InChIKey IJGRMHOSHXDMSA-UHFFFAOYSA-N
Temperature: 298 K
Tabular data in the source: 0
pressure (bar)	uptake (mmol/g)
0.820222	0.0487532
1.252	0.0483252
1.68362	0.0974636
2.0719	0.196211
3.02118	0.393535
3.45296	0.393107
3.62551	0.442503
4.01379	0.54125
4.74734	0.689222
5.17912	0.688794
5.91266	0.836766
6.34428	0.885904
6.7759	0.935042
7.121	1.03383
8.50142	1.42899
8.76145	1.13134
9.02004	1.27978
10.8757	1.57534
11.3075	1.57491
11.6958	1.67366
12.0842	1.72284
12.4725	1.82159
12.9041	1.87073
13.2062	1.91999
13.638	1.91957
14.0263	2.01831
15.7528	2.21487
16.1844	2.26401
16.6162	2.26358
16.9611	2.41193
17.3929	2.41151
17.8247	2.41108
20.8035	2.55682
21.1917	2.65557
21.6235	2.65514
22.0553	2.65472
22.573	2.8029
23.0047	2.80247
23.4365	2.80205
23.8683	2.80162
25.8108	2.94839
26.1993	2.99757
26.6311	2.99714
27.0628	2.99672
27.4946	2.99629
27.9264	2.99586
30.8188	3.14169
31.2506	3.14126
31.6824	3.14084
32.1142	3.14041
32.546	3.13998
32.9777	3.13955
33.4095	3.13912
33.8413	3.1387
35.9565	3.2853
36.3883	3.28487
36.8201	3.28444
37.2519	3.28401
37.6837	3.28358
38.1154	3.28316
38.5472	3.28273
38.979	3.2823
39.7997	3.18235
