Adsorption isotherm of Nitrogen on UMCM-2
DOI: 10.1039/C1jm10264h
Adsorbate Nitrogen: InChIKey IJGRMHOSHXDMSA-UHFFFAOYSA-N
Temperature: 298 K
Tabular data in the source: 0
pressure (bar)	uptake (mmol/g)
2.33607	0.269058
3.06658	0.363229
4.23527	0.511211
4.96578	0.605381
6.13121	0.686099
7.73872	0.901345
9.78311	1.1435
11.8268	1.3722
14.7482	1.73543
19.854	2.23318
25.3979	2.78475
30.0707	3.33632
35.1771	3.84753
39.9938	4.3722
50.6429	5.40807
