Adsorption isotherm of Methane on UMCM-2
DOI: 10.1039/C1jm10264h
Adsorbate Methane: InChIKey VNWKTOKETHGBQD-UHFFFAOYSA-N
Temperature: 298 K
Tabular data in the source: 0
pressure (bar)	uptake (mmol/g)
1.0989	0.328767
1.97802	0.739726
2.85714	1.15068
4.17582	1.72603
5.05495	2.30137
6.15385	2.71233
7.91209	3.61644
10.1099	4.43836
12.3077	5.26027
15.1648	6.32877
20	8.30137
25.0549	9.94521
29.8901	11.3425
35.1648	12.411
40.2198	13.5616
49.6703	15.2055
