Adsorption isotherm of Methane on UMCM-2
DOI: 10.1039/C1jm10264h
Adsorbate Methane: InChIKey VNWKTOKETHGBQD-UHFFFAOYSA-N
Temperature: 298 K
Tabular data in the source: 0
pressure (bar)	uptake (volume/volume)
1.1194	4.18118
1.79104	8.88502
3.13433	12.5436
3.80597	15.1568
4.92537	20.3833
6.04478	24.0418
8.28358	31.8815
10.0746	39.7213
12.3134	46.5157
15	57.4913
20.1493	74.7387
25.0746	89.3728
30.2239	101.916
34.9254	112.369
40.2985	121.777
50.1493	135.889
