Adsorption isotherm of Carbon Dioxide on UMCM-1
DOI: 10.1039/C1jm10264h
Adsorbate Carbon Dioxide: InChIKey CURLTUGMZLYLDI-UHFFFAOYSA-N
Temperature: 298 K
Tabular data in the source: 0
pressure (bar)	uptake (mmol/g)
1.17978	1.0081
2.27528	2.15088
3.11798	3.02477
5.05618	5.24332
9.94382	11.6981
15	17.9509
19.8876	22.3868
25.0281	25.5439
30	27.1534
35.0562	28.3591
40.2809	29.6318
45.0843	30.0302
