Adsorption isotherm of Hydrogen on UMCM-1
DOI: 10.1039/C1jm10264h
Adsorbate Hydrogen: InChIKey UFHFLCQGNIYNRP-UHFFFAOYSA-N
Temperature: 298 K
Tabular data in the source: 0
pressure (bar)	uptake (mmol/g)
2.55579	0.123282
2.85887	0.172774
3.29215	0.172666
3.42202	0.197417
3.85524	0.209701
4.76486	0.271434
5.15475	0.283729
5.58792	0.308404
5.97776	0.333091
6.32422	0.37018
6.7575	0.370072
7.1039	0.419553
7.79698	0.456556
8.18682	0.481242
8.5335	0.468765
10.2661	0.57986
10.6561	0.579763
11.0025	0.616852
11.3924	0.641538
11.7823	0.653833
12.1721	0.67852
12.5619	0.703206
13.6882	0.764885
14.1214	0.777169
14.5113	0.801856
15.984	0.900624
16.4172	0.900516
16.7637	0.937605
17.1536	0.9499
17.5434	0.986978
17.9767	0.986871
18.3231	1.02396
18.7564	1.02385
20.7056	1.14728
21.1389	1.14718
21.5287	1.17186
21.9619	1.18415
22.3518	1.20883
22.785	1.23351
23.1748	1.24581
23.608	1.27048
25.8172	1.38146
26.2505	1.39374
26.6837	1.40603
27.0302	1.43072
27.4634	1.44301
27.8533	1.46769
28.2865	1.47998
28.6763	1.50467
29.0662	1.52935
29.4994	1.52924
29.8025	1.57874
30.2357	1.59102
30.6257	1.57853
31.0589	1.60321
31.4488	1.62789
31.8386	1.65258
32.2719	1.65247
32.7051	1.65237
32.8783	1.6895
33.3116	1.68939
34.1345	1.75114
34.5244	1.76344
34.9143	1.77573
35.3043	1.77564
35.6509	1.77555
35.9973	1.81264
36.4306	1.81253
36.8638	1.83721
37.8167	1.91132
38.25	1.91121
38.813	1.94825
39.2463	1.96053
39.5496	1.96046
39.9394	1.99754
