Adsorption isotherm of Carbon Dioxide on UMCM-1
DOI: 10.1039/C1jm10264h
Adsorbate Carbon Dioxide: InChIKey CURLTUGMZLYLDI-UHFFFAOYSA-N
Temperature: 298 K
Tabular data in the source: 0
pressure (bar)	uptake (volume/volume)
1.1892	9.3426
2.20513	25.2893
5.34097	66.526
9.99004	156.717
15.1608	222.695
20.0045	256.213
25.194	278.173
29.8712	302.34
34.979	316.048
40.0039	324.255
