Adsorption isotherm of Carbon Dioxide on UMCM-1
DOI: 10.1039/C1jm10264h
Adsorbate Carbon Dioxide: InChIKey CURLTUGMZLYLDI-UHFFFAOYSA-N
Temperature: 298 K
Tabular data in the source: 0
pressure (bar)	uptake (volume/volume)
2.37934	16.4844
3.31239	26.9297
5.26465	45.6188
10.2692	101.694
15.1039	156.12
20.0302	195.69
25.1336	219.852
30.0698	236.313
35.0083	247.272
40.1179	256.578
45.0583	263.136
