Adsorption isotherm of Methane on UMCM-1
DOI: 10.1039/C1jm10264h
Adsorbate Methane: InChIKey VNWKTOKETHGBQD-UHFFFAOYSA-N
Temperature: 298 K
Tabular data in the source: 0
pressure (bar)	uptake (volume/volume)
2.46441	7.31707
3.36282	11.4983
4.48117	13.5889
5.15498	16.7247
6.05417	21.4286
8.07015	27.1777
9.86387	33.4495
11.8806	39.7213
15.015	47.561
19.943	61.6725
25.534	71.6028
30.2335	82.0557
35.3776	91.4634
50.3491	109.756
