Adsorption isotherm of Methane on UMCM-2
DOI: 10.1039/C1jm10264h
Adsorbate Methane: InChIKey VNWKTOKETHGBQD-UHFFFAOYSA-N
Temperature: 298 K
Tabular data in the source: 0
pressure (bar)	uptake (mmol/g)
0.90928	0.319973
1.73279	0.418292
1.94908	0.541392
1.94924	0.504446
2.25248	0.578263
2.5123	0.664406
4.76483	1.23035
4.98128	1.31651
5.02459	1.32881
5.24121	1.37802
6.6706	1.75944
6.93052	1.82095
7.19045	1.88247
7.49374	1.94397
7.66693	2.0055
7.92659	2.12859
7.92686	2.06701
8.18678	2.12853
8.35992	2.20237
8.66326	2.25156
8.92313	2.32539
9.18306	2.3869
9.48635	2.4484
11.3056	2.92825
11.6089	2.98975
11.9121	3.06357
12.172	3.1374
12.4318	3.22354
12.7784	3.29735
13.0384	3.34654
13.2983	3.42037
13.6016	3.48187
13.9048	3.54337
14.1213	3.62953
14.4246	3.69103
14.6845	3.76486
14.9877	3.82636
15.0312	3.81403
15.2476	3.9125
16.6339	4.23236
16.9371	4.29386
17.2404	4.36767
17.5436	4.44149
17.8035	4.51532
18.1501	4.57681
18.4534	4.63831
18.6699	4.71215
19.0166	4.77364
19.2331	4.84748
19.5798	4.89666
19.7963	4.97049
20.0995	5.04431
20.4028	5.10581
20.7061	5.16731
20.9661	5.22883
21.2693	5.29033
21.5292	5.36416
21.8759	5.41333
25.5151	6.21293
25.8184	6.27443
26.1216	6.34825
26.4249	6.42206
26.7282	6.47125
27.0315	6.53275
27.3349	6.58194
27.6815	6.65574
27.9414	6.71726
28.2446	6.79107
29.9776	7.1601
31.1476	7.35686
31.4943	7.41835
31.7976	7.47985
32.0575	7.54137
32.3608	7.60287
33.3573	7.79967
33.6607	7.84885
33.964	7.91035
34.3106	7.97184
34.614	8.02103
34.9172	8.08253
35.2206	8.13172
35.5239	8.19322
35.6972	8.23012
36.0005	8.29163
36.3472	8.32849
36.6505	8.38999
36.9538	8.45149
37.2571	8.51299
37.5604	8.57449
37.9071	8.61135
38.2538	8.68516
38.5571	8.73435
38.9038	8.78352
