Adsorption isotherm of Nitrogen on UMCM-1
DOI: 10.1039/C1jm10264h
Adsorbate Nitrogen: InChIKey IJGRMHOSHXDMSA-UHFFFAOYSA-N
Temperature: 298 K
Tabular data in the source: 0
pressure (bar)	uptake (mmol/g)
5.44486	0.865794
10.4214	1.61206
20.1902	2.92512
29.9612	4.14839
39.5511	5.05752
49.52	5.87674
