Adsorption isotherm of Carbon Dioxide on UMCM-1
DOI: 10.1039/C1jm10264h
Adsorbate Carbon Dioxide: InChIKey CURLTUGMZLYLDI-UHFFFAOYSA-N
Temperature: 298 K
Tabular data in the source: 0
pressure (bar)	uptake (mmol/g)
3.19004	1.58296
5.60399	2.81972
6.81057	3.56202
8.1027	4.55207
9.82645	5.59125
11.5072	6.58091
13.6186	7.91711
15.1698	8.90689
16.9799	9.94599
19.264	11.282
21.5486	12.4693
23.1863	13.4095
24.997	14.2503
27.1961	15.1899
29.9991	16.2776
32.5863	17.3655
34.5702	18.0574
36.511	18.7494
38.1935	19.1939
