Adsorption isotherm of Carbon Dioxide on UMCM-1
DOI: 10.1039/C1jm10264h
Adsorbate Carbon Dioxide: InChIKey CURLTUGMZLYLDI-UHFFFAOYSA-N
Temperature: 298 K
Tabular data in the source: 0
pressure (bar)	uptake (mmol/g)
5.05618	7.32946
9.94382	17.822
15.0843	25.4205
20.1404	29.3852
25.1124	31.9368
30.1685	34.623
35.1404	36.4343
40.2809	37.5053
