Adsorption isotherm of Hydrogen on UMCM-2
DOI: 10.1039/C1jm10264h
Adsorbate Hydrogen: InChIKey UFHFLCQGNIYNRP-UHFFFAOYSA-N
Temperature: 298 K
Tabular data in the source: 0
pressure (bar)	uptake (mmol/g)
3.63562	0.121076
5.81413	0.134529
8.14174	0.2287
10.1764	0.269058
12.0658	0.309417
15.12	0.41704
19.77	0.497758
25.1479	0.618834
30.089	0.713004
35.3204	0.807175
39.8252	0.887892
50.1422	1.06278
