Adsorption isotherm of Methane on UMCM-2
DOI: 10.1039/C1jm10264h
Adsorbate Methane: InChIKey VNWKTOKETHGBQD-UHFFFAOYSA-N
Temperature: 298 K
Tabular data in the source: 0
pressure (bar)	uptake (mmol/g)
1.55802	0.408536
1.86094	0.495202
3.20265	0.829442
4.24133	1.1018
5.97228	1.59703
6.27531	1.65892
6.53495	1.7332
6.83792	1.80748
7.01107	1.84461
7.3141	1.90649
7.53041	1.98079
7.83344	2.04267
8.09313	2.10456
8.22285	2.16649
8.48255	2.22838
8.78546	2.31505
9.04511	2.38933
9.34824	2.42643
9.95402	2.61216
10.2137	2.68644
10.9493	2.89691
11.209	2.95881
11.512	3.02069
11.7717	3.08258
12.0747	3.15686
12.3344	3.23114
12.5507	3.30544
13.2432	3.47875
13.5462	3.54063
13.8059	3.60253
13.8924	3.63968
14.1954	3.70156
14.4984	3.77584
15.6669	4.08534
15.9266	4.14723
16.2295	4.2215
16.5325	4.29578
17.6146	4.55573
17.9176	4.61762
18.1772	4.70429
18.4803	4.75378
18.7399	4.82807
19.0429	4.90234
20.1248	5.18708
20.4279	5.24896
20.7309	5.31085
20.9905	5.38513
21.2936	5.44702
21.5532	5.5213
21.8563	5.57079
22.1592	5.65746
22.4189	5.71935
22.6785	5.79364
22.9816	5.84313
23.4577	5.96692
23.7607	6.02881
24.0637	6.09069
24.3667	6.16496
24.5831	6.21448
24.8428	6.28876
25.1458	6.35065
25.4923	6.38773
25.7086	6.46203
25.9682	6.53632
26.2712	6.5982
26.5743	6.66008
26.8772	6.73436
27.7862	6.94479
28.046	6.99429
28.5221	7.10569
28.8684	7.16757
29.1714	7.22945
29.4745	7.29133
29.6908	7.35324
29.9939	7.41512
30.2969	7.477
30.6	7.52649
31.7686	7.79882
32.0717	7.84831
32.3315	7.89781
32.6345	7.95969
33.9764	8.25676
34.3228	8.30624
34.5824	8.38052
34.8855	8.41762
35.1452	8.49191
35.4915	8.55378
36.1842	8.67753
36.4873	8.73941
36.7903	8.80129
37.0933	8.86317
37.3963	8.92506
37.6994	8.98694
38.0458	9.03642
38.3054	9.1107
38.6519	9.14779
38.9116	9.20969
39.2579	9.27156
39.5609	9.34583
39.864	9.39532
