Adsorption isotherm of Nitrogen on UMCM-2
DOI: 10.1039/C1jm10264h
Adsorbate Nitrogen: InChIKey IJGRMHOSHXDMSA-UHFFFAOYSA-N
Temperature: 298 K
Tabular data in the source: 0
pressure (bar)	uptake (mmol/g)
5.00656	0.639399
8.20062	0.983196
9.92693	1.22932
15.1061	1.91811
20.1996	2.35916
24.9909	2.8005
29.9561	2.89472
34.9639	3.13758
39.9719	3.33088
