Adsorption isotherm of Carbon Dioxide on UMCM-1
DOI: 10.1039/C1jm10264h
Adsorbate Carbon Dioxide: InChIKey CURLTUGMZLYLDI-UHFFFAOYSA-N
Temperature: 298 K
Tabular data in the source: 0
pressure (bar)	uptake (mmol/g)
4.897	3.0101
8.01763	4.53858
9.92409	6.01995
14.8648	8.73294
19.8051	11.743
25.0064	14.1089
30.0349	15.8316
35.0631	17.7524
40.0915	19.5741
