Adsorption isotherm of Hydrogen on UMCM-1
DOI: 10.1039/C1jm10264h
Adsorbate Hydrogen: InChIKey UFHFLCQGNIYNRP-UHFFFAOYSA-N
Temperature: 298 K
Tabular data in the source: 0
pressure (bar)	uptake (mmol/g)
7.83361	0.186667
9.54306	0.24
11.8213	0.266667
14.9558	0.386667
19.7975	0.466667
24.9246	0.573333
30.1928	0.626667
34.7489	0.666667
40.1604	0.76
