Adsorption isotherm of Methane on UMCM-2
DOI: 10.1039/C1jm10264h
Adsorbate Methane: InChIKey VNWKTOKETHGBQD-UHFFFAOYSA-N
Temperature: 298 K
Tabular data in the source: 0
pressure (bar)	uptake (mmol/g)
2.1978	1.23288
4.3956	2.38356
5.71429	2.9589
7.47253	3.86301
10.1099	5.26027
12.0879	6.32877
14.9451	7.80822
17.1429	8.9589
20.2198	10.274
21.7582	10.9315
25.2747	12.2466
27.2527	13.0685
30.1099	14.137
34.9451	15.863
40	17.4247
44.6154	18.6575
50.3297	20.137
