Adsorption isotherm of Nitrogen on UMCM-1
DOI: 10.1039/C1jm10264h
Adsorbate Nitrogen: InChIKey IJGRMHOSHXDMSA-UHFFFAOYSA-N
Temperature: 298 K
Tabular data in the source: 0
pressure (bar)	uptake (mmol/g)
4.21424	1.10566
10.2114	2.52486
19.5818	4.75078
29.8988	6.7968
39.6546	8.66347
49.6969	10.3655
