Adsorption isotherm of Carbon Dioxide on UMCM-1
DOI: 10.1039/C1jm10264h
Adsorbate Carbon Dioxide: InChIKey CURLTUGMZLYLDI-UHFFFAOYSA-N
Temperature: 298 K
Tabular data in the source: 0
pressure (bar)	uptake (mmol/g)
5.08778	2.22544
8.01891	3.75909
10.0878	4.89706
15.0011	7.6679
20.002	10.0421
25.0026	12.5155
29.9591	15.2863
35.0053	17.0161
39.9225	18.5974
