Adsorption isotherm of Hydrogen on UMCM-1
DOI: 10.1039/C1jm10264h
Adsorbate Hydrogen: InChIKey UFHFLCQGNIYNRP-UHFFFAOYSA-N
Temperature: 298 K
Tabular data in the source: 0
pressure (bar)	uptake (mmol/g)
7.99272	0.893333
9.848	1.09333
11.7042	1.33333
14.9865	1.68
20.1237	2.21333
24.9762	2.74667
29.686	3.26667
35.2509	3.82667
40.1028	4.33333
