Adsorption isotherm of Nitrogen on UMCM-1
DOI: 10.1039/C1jm10264h
Adsorbate Nitrogen: InChIKey IJGRMHOSHXDMSA-UHFFFAOYSA-N
Temperature: 298 K
Tabular data in the source: 0
pressure (bar)	uptake (mmol/g)
8.06742	1.53813
14.8199	2.8972
24.8636	4.53933
35.1071	5.70258
