Adsorption isotherm of Carbon Dioxide on UMCM-1
DOI: 10.1039/C1jm10264h
Adsorbate Carbon Dioxide: InChIKey CURLTUGMZLYLDI-UHFFFAOYSA-N
Temperature: 298 K
Tabular data in the source: 0
pressure (bar)	uptake (mmol/g)
3.25062	1.62723
4.0305	2.26925
5.72094	3.00847
6.19731	3.60159
7.28085	4.144
9.31773	5.32808
10.7477	6.36486
12.1345	7.15419
13.9981	8.1901
15.9048	9.37445
17.3349	10.3122
18.9385	11.1506
21.0188	12.2356
22.4058	12.9259
24.2263	13.6649
25.8298	14.6023
27.2169	15.0946
28.9508	15.7843
30.8148	16.4736
31.9418	16.8674
33.5893	17.2107
35.3665	17.9498
37.0574	18.2435
38.8348	18.735
