Adsorption isotherm of Carbon Dioxide on UMCM-1
DOI: 10.1039/C1jm10264h
Adsorbate Carbon Dioxide: InChIKey CURLTUGMZLYLDI-UHFFFAOYSA-N
Temperature: 298 K
Tabular data in the source: 0
pressure (bar)	uptake (mmol/g)
4.86508	2.74434
8.03585	4.37632
10.0341	5.56299
14.9865	8.67777
19.9828	12.1259
25.0217	14.9815
30.0598	17.3186
35.2289	20.2483
40.2666	22.252
