Adsorption isotherm of Hydrogen on UMCM-1
DOI: 10.1039/C1jm10264h
Adsorbate Hydrogen: InChIKey UFHFLCQGNIYNRP-UHFFFAOYSA-N
Temperature: 298 K
Tabular data in the source: 0
pressure (bar)	uptake (mmol/g)
1.94937	0.0862579
5.06788	0.333317
8.01346	0.493677
9.91961	0.555162
15.0742	0.876066
19.8393	1.09793
24.951	1.31971
29.846	1.54155
35.0445	1.73853
39.9395	1.97275
