Adsorption isotherm of Nitrogen on UMCM-1
DOI: 10.1039/C1jm10264h
Adsorbate Nitrogen: InChIKey IJGRMHOSHXDMSA-UHFFFAOYSA-N
Temperature: 298 K
Tabular data in the source: 0
pressure (bar)	uptake (mmol/g)
4.96384	1.28493
9.83486	2.51004
14.8008	3.70519
19.7699	4.76567
29.7093	6.84175
34.9635	7.7974
40.0318	8.64837
