Adsorption isotherm of Carbon Dioxide on UMCM-2
DOI: 10.1039/C1jm10264h
Adsorbate Carbon Dioxide: InChIKey CURLTUGMZLYLDI-UHFFFAOYSA-N
Temperature: 298 K
Tabular data in the source: 0
pressure (bar)	uptake (mmol/g)
0.586426	0.538291
1.00501	1.00919
1.84173	2.0854
2.34412	2.62359
2.76203	3.2961
3.18039	3.83421
3.59852	4.43951
4.01666	5.04482
4.85247	6.38984
5.1868	6.92785
5.77142	8.00378
6.10552	8.60899
6.35603	9.0797
6.6061	9.68482
7.02423	10.2901
7.27453	10.828
7.52459	11.4332
7.85869	12.0384
8.19302	12.5764
8.44309	13.1815
8.77719	13.7867
9.94597	16.073
10.2803	16.611
10.6144	17.2162
10.9487	17.7542
11.3664	18.4939
11.7007	19.0319
11.9508	19.637
12.2849	20.2423
12.6192	20.7803
12.8693	21.3854
13.2874	21.9907
13.5377	22.5286
14.2048	24.0751
14.6236	24.4787
14.9579	25.0168
15.3763	25.5549
15.9618	26.362
16.3802	26.9001
16.7988	27.371
17.3007	28.0436
17.8031	28.5818
18.1374	29.1198
18.556	29.5907
18.9744	30.1288
19.9787	31.3396
20.4813	31.8106
20.9842	32.2144
21.5708	32.6855
22.0736	33.0892
22.6605	33.4931
23.1631	33.9641
23.666	34.3679
24.2529	34.7718
25.9297	35.9161
26.6008	36.2529
27.272	36.5897
27.8591	36.9264
32.1387	38.7457
34.9082	39.824
37.1757	40.2298
39.4426	40.8372
41.8777	41.3776
44.9011	41.9186
