Adsorption isotherm of Hydrogen on UMCM-1
DOI: 10.1039/C1jm10264h
Adsorbate Hydrogen: InChIKey UFHFLCQGNIYNRP-UHFFFAOYSA-N
Temperature: 298 K
Tabular data in the source: 0
pressure (bar)	uptake (mmol/g)
3.95003	0.262185
4.38406	0.262507
4.77469	0.262796
5.20877	0.300155
5.51264	0.337417
5.94678	0.411812
6.3374	0.412102
6.77143	0.412423
7.20546	0.412745
8.59451	0.524885
9.02854	0.525206
9.46257	0.525528
9.72298	0.525721
10.0704	0.637089
10.5044	0.637411
10.8516	0.637668
11.2856	0.637989
11.85	0.749519
12.2841	0.786877
12.7182	0.787199
13.1522	0.78752
13.5863	0.824879
13.9769	0.862205
14.3676	0.899532
14.7148	0.899789
15.1489	0.90011
16.1473	1.01196
16.5813	1.01228
17.0154	1.0126
17.4494	1.01293
17.8835	1.05028
18.3175	1.08764
18.7082	1.12497
20.5312	1.16336
20.9653	1.20072
21.3993	1.20104
21.8334	1.2384
22.2241	1.27572
22.6581	1.27604
23.0921	1.27636
23.2224	1.3135
23.6564	1.31382
24.0904	1.31414
25.5661	1.31523
25.87	1.3525
26.2172	1.31572
26.6079	1.39008
27.0419	1.3904
27.476	1.39072
27.5628	1.42782
27.9969	1.42815
28.4309	1.42847
28.8649	1.42879
29.2989	1.42911
30.6011	1.46711
30.9917	1.4674
31.4257	1.46772
31.8598	1.46804
32.2938	1.5054
32.7279	1.50572
33.1619	1.50605
33.5959	1.50637
34.03	1.50669
35.636	1.58195
36.07	1.58227
36.504	1.5826
36.9381	1.58292
37.3721	1.58324
37.8061	1.58356
38.2401	1.58388
38.6742	1.5842
39.1082	1.58452
39.5422	1.58485
