Adsorption isotherm of Hydrogen on UMCM-2
DOI: 10.1039/C1jm10264h
Adsorbate Hydrogen: InChIKey UFHFLCQGNIYNRP-UHFFFAOYSA-N
Temperature: 298 K
Tabular data in the source: 0
pressure (bar)	uptake (mmol/g)
4.9917	0.262957
8.11686	0.376383
9.89665	0.562886
15.0616	0.603749
19.8364	0.903583
25.045	1.12966
30.0798	1.17043
32.4238	1.32031
35.028	1.32224
36.9811	1.36073
40.1495	1.36307
