Adsorption isotherm of Nitrogen on UMCM-1
DOI: 10.1039/C1jm10264h
Adsorbate Nitrogen: InChIKey IJGRMHOSHXDMSA-UHFFFAOYSA-N
Temperature: 298 K
Tabular data in the source: 0
pressure (bar)	uptake (mmol/g)
6.58766	0.885077
8.79822	1.13084
11.6156	1.43803
13.8263	1.64684
16.1235	1.92953
18.7675	2.21213
22.3221	2.53145
23.5355	2.71588
26.2231	2.94921
27.5236	3.04741
28.9106	3.21948
30.818	3.36679
32.1183	3.51426
33.8525	3.61235
35.9331	3.83351
37.2338	3.89477
39.4012	4.07897
