Adsorption isotherm of Carbon Dioxide on UMCM-2
DOI: 10.1039/C1jm10264h
Adsorbate Carbon Dioxide: InChIKey CURLTUGMZLYLDI-UHFFFAOYSA-N
Temperature: 298 K
Tabular data in the source: 0
pressure (bar)	uptake (mmol/g)
1.89662	0.989446
2.24141	1.18737
2.58619	1.38529
2.88779	1.58326
3.1894	1.78122
3.53434	1.92958
4.91266	2.96911
5.25745	3.16703
5.60223	3.36495
5.90367	3.61249
6.20528	3.81045
6.55022	3.95881
7.7133	4.80028
8.01474	5.04782
9.00527	5.8399
9.30671	6.08743
9.65149	6.28535
9.9531	6.48332
10.5558	7.02795
10.9004	7.27544
11.1586	7.57258
11.5035	7.72094
11.8049	7.96847
12.2358	8.26544
12.4939	8.56258
12.7953	8.81012
13.0969	9.00808
14.13	9.99838
14.5181	10.1467
14.7765	10.3447
15.0346	10.6418
15.3361	10.8894
15.6807	11.1369
15.982	11.434
16.2404	11.632
16.585	11.8795
16.8865	12.127
17.6187	12.6715
17.8768	12.9686
18.2215	13.2161
18.5229	13.4637
18.8242	13.7608
19.1691	13.9091
19.4706	14.1567
19.7288	14.4042
19.9441	14.6023
20.289	14.7506
20.5905	14.9982
20.8919	15.2457
21.1935	15.4437
21.538	15.7407
21.8829	15.8891
22.1844	16.1366
23.6062	17.077
23.8643	17.3741
24.2089	17.6216
24.5105	17.8196
25.9323	18.7599
26.2771	18.9578
26.6219	19.1558
26.9668	19.3041
27.2685	19.5021
27.6132	19.7
27.9147	19.9475
28.2595	20.1455
30.4574	21.432
30.8023	21.5804
31.1039	21.7783
31.4489	21.9267
31.7938	22.075
32.1387	22.2234
32.4835	22.4213
32.8285	22.5697
33.1734	22.718
33.5182	22.916
33.82	23.0644
34.1649	23.2127
34.553	23.361
34.8546	23.559
37.5711	24.6963
37.9594	24.7951
38.8217	25.1908
39.1666	25.3391
