Adsorption isotherm of Methane on UMCM-1
DOI: 10.1039/C1jm10264h
Adsorbate Methane: InChIKey VNWKTOKETHGBQD-UHFFFAOYSA-N
Temperature: 298 K
Tabular data in the source: 0
pressure (bar)	uptake (mmol/g)
6.28603	1.76973
8.71394	2.25997
11.0984	2.84931
13.5695	3.53749
16.1707	4.12639
18.5555	4.4187
21.2867	5.10636
23.4114	5.34968
26.4898	5.78913
28.6578	6.08187
31.6062	6.47207
33.1237	6.66708
36.029	6.85935
37.4166	6.95561
38.804	7.15088
