Adsorption isotherm of Carbon Dioxide on UMCM-1
DOI: 10.1039/C1jm10264h
Adsorbate Carbon Dioxide: InChIKey CURLTUGMZLYLDI-UHFFFAOYSA-N
Temperature: 298 K
Tabular data in the source: 0
pressure (bar)	uptake (mmol/g)
3.11798	3.02477
5.14045	5.78158
6.91011	8.47139
10.0281	12.5729
11.9663	15.4644
15.1685	19.2966
17.0225	21.246
20.0562	24.5401
22.1629	25.8836
25.0281	28.0338
27.3034	29.4445
30.1685	30.518
35.2247	32.5984
36.7416	33.337
40.0281	34.41
42.5562	34.9455
45.0843	36.0867
