Adsorption isotherm of Methane on UMCM-1
DOI: 10.1039/C1jm10264h
Adsorbate Methane: InChIKey VNWKTOKETHGBQD-UHFFFAOYSA-N
Temperature: 298 K
Tabular data in the source: 0
pressure (bar)	uptake (mmol/g)
5.89147	1.42712
7.14788	1.69775
8.70759	2.02987
9.40063	2.21443
10.9602	2.57119
12.6499	2.92792
14.2096	3.26005
16.1591	3.70292
17.9789	4.05961
19.2789	4.28097
21.1421	4.62533
22.5718	4.94518
24.2184	5.22803
26.1684	5.57237
27.5984	5.80601
29.1583	6.10119
31.1951	6.42089
32.2782	6.65461
33.9684	6.88819
36.0918	7.23249
37.4352	7.44152
39.0389	7.63817
