Adsorption isotherm of Methane on UMCM-1
DOI: 10.1039/C1jm10264h
Adsorbate Methane: InChIKey VNWKTOKETHGBQD-UHFFFAOYSA-N
Temperature: 298 K
Tabular data in the source: 0
pressure (bar)	uptake (mmol/g)
8.32117	3.25398
10.292	3.7411
15.1095	5.53046
19.927	6.9933
24.9635	8.1293
30	9.34694
35.2555	10.401
50.5839	12.5026
