Adsorption isotherm of Nitrogen on UMCM-2
DOI: 10.1039/C1jm10264h
Adsorbate Nitrogen: InChIKey IJGRMHOSHXDMSA-UHFFFAOYSA-N
Temperature: 298 K
Tabular data in the source: 0
pressure (bar)	uptake (mmol/g)
0.782569	0.255933
4.98651	1.34022
9.87484	2.60522
19.9437	5.07517
30.2054	7.25948
40.2703	9.24822
50.334	11.0866
