Adsorption isotherm of Nitrogen on UMCM-2
DOI: 10.1039/C1jm10264h
Adsorbate Nitrogen: InChIKey IJGRMHOSHXDMSA-UHFFFAOYSA-N
Temperature: 298 K
Tabular data in the source: 0
pressure (bar)	uptake (mmol/g)
2.73489	0.392006
3.22417	0.572641
4.29856	0.723421
4.78808	0.934131
5.96053	1.1451
7.7192	1.46155
10.1618	1.89856
12.1153	2.18501
14.9481	2.62216
19.9304	3.43606
25.3014	4.06966
30.1848	4.73315
35.4575	5.27649
39.9491	5.74434
50.1017	6.51508
