Adsorption isotherm of Carbon Dioxide on UMCM-2
DOI: 10.1039/C1jm10264h
Adsorbate Carbon Dioxide: InChIKey CURLTUGMZLYLDI-UHFFFAOYSA-N
Temperature: 298 K
Tabular data in the source: 0
pressure (bar)	uptake (volume/volume)
0.773644	7.74905
2.14786	18.8241
3.18112	33.2078
4.73148	55.8882
10.073	137.202
15.1561	214.644
19.884	262.245
25.0328	293.279
30.0061	314.365
35.3172	324.407
45.3315	324.592
