Adsorption isotherm of Hydrogen on UMCM-1
DOI: 10.1039/C1jm10264h
Adsorbate Hydrogen: InChIKey UFHFLCQGNIYNRP-UHFFFAOYSA-N
Temperature: 298 K
Tabular data in the source: 0
pressure (bar)	uptake (mmol/g)
10.1194	0.533333
20.0917	0.866667
29.9217	1.2
39.752	1.54667
49.8635	1.74667
