Adsorption isotherm of Nitrogen on UMCM-1
DOI: 10.1039/C1jm10264h
Adsorbate Nitrogen: InChIKey IJGRMHOSHXDMSA-UHFFFAOYSA-N
Temperature: 298 K
Tabular data in the source: 0
pressure (bar)	uptake (mmol/g)
5.14737	1.49433
9.92134	2.83918
19.7527	5.49885
29.7802	7.82926
39.8127	9.95019
