Adsorption isotherm of Nitrogen on UMCM-2
DOI: 10.1039/C1jm10264h
Adsorbate Nitrogen: InChIKey IJGRMHOSHXDMSA-UHFFFAOYSA-N
Temperature: 298 K
Tabular data in the source: 0
pressure (bar)	uptake (mmol/g)
2.21024	0.319653
2.60042	0.344187
2.81713	0.368764
3.07722	0.393331
3.46724	0.454811
3.81395	0.503987
4.16071	0.540847
4.50747	0.577708
4.98411	0.663797
5.33087	0.700657
5.67753	0.762148
6.02429	0.799009
6.28432	0.835891
6.67445	0.87274
10.445	1.38905
10.7917	1.43823
11.1384	1.47509
11.4852	1.51195
12.0486	1.5857
12.3953	1.63488
12.6987	1.68406
13.0455	1.70861
13.3922	1.75779
13.739	1.79465
14.3891	1.88069
14.7358	1.91755
15.0826	1.95441
15.3859	2.0036
15.6893	2.04047
16.0795	2.06501
16.3828	2.12651
16.773	2.13873
17.1197	2.1879
17.4665	2.22476
17.7699	2.26163
18.16	2.29848
18.55	2.37228
18.9401	2.40913
19.3303	2.42135
19.6336	2.48285
19.9803	2.53202
20.3705	2.55656
20.6739	2.60575
21.064	2.63028
22.2343	2.76546
22.581	2.81464
22.9712	2.83917
23.2746	2.88836
23.6647	2.91289
24.0115	2.93744
24.4883	2.98658
24.7917	3.02345
25.1819	3.0603
25.5286	3.09716
25.8754	3.13402
26.2221	3.1832
26.6122	3.22005
26.9156	3.25692
27.2624	3.29378
30.9902	3.66232
31.3804	3.68685
31.7705	3.71139
32.1607	3.74824
32.5074	3.7851
32.8108	3.82197
33.2009	3.87113
33.5477	3.89568
33.938	3.9079
34.2847	3.94476
36.6688	4.16585
37.059	4.19038
38.0125	4.3133
38.4028	4.3132
38.7929	4.35005
39.0096	4.38694
39.3998	4.39916
39.7032	4.43603
