Adsorption isotherm of Methane on UMCM-1
DOI: 10.1039/C1jm10264h
Adsorbate Methane: InChIKey VNWKTOKETHGBQD-UHFFFAOYSA-N
Temperature: 298 K
Tabular data in the source: 0
pressure (bar)	uptake (volume/volume)
0.898411	4.18118
1.57455	8.88502
2.92061	14.1115
4.04129	17.77
4.49438	22.4739
6.06272	27.1777
8.08181	35.0174
10.1032	44.4251
12.3446	51.7422
15.0391	63.7631
20.1971	82.5784
25.3513	98.7805
30.7224	110.801
35.1981	120.732
40.5699	133.275
50.6234	144.251
