Adsorption isotherm of Methane on UMCM-2
DOI: 10.1039/C1jm10264h
Adsorbate Methane: InChIKey VNWKTOKETHGBQD-UHFFFAOYSA-N
Temperature: 298 K
Tabular data in the source: 0
pressure (bar)	uptake (mmol/g)
0.90928	0.319973
1.94908	0.541392
5.02459	1.32881
7.92659	2.12859
9.9192	2.63302
15.0312	3.81403
19.8828	5.03205
25.082	6.1022
29.9776	7.1601
34.8735	8.16875
39.9869	9.02956
