Adsorption isotherm of Nitrogen on UMCM-1
DOI: 10.1039/C1jm10264h
Adsorbate Nitrogen: InChIKey IJGRMHOSHXDMSA-UHFFFAOYSA-N
Temperature: 77 K
Tabular data in the source: 0
pressure (bar)	uptake (mmol/g)
0.0215701	34.4534
0.0706317	42.246
0.12799	44.8522
0.172765	47.3521
0.192474	55.2422
0.221843	56.0785
0.269386	56.9188
0.321116	57.4486
0.370051	57.9779
0.414787	58.195
0.466519	58.8286
0.511258	59.2532
0.562983	59.4717
0.607719	59.6888
0.663639	60.0121
0.706979	60.3326
0.709773	60.2294
0.7587	60.3436
0.804834	60.561
0.855159	60.6755
0.898495	60.7886
0.951625	61.4225
