Adsorption isotherm of Methane on UMCM-2
DOI: 10.1039/C1jm10264h
Adsorbate Methane: InChIKey VNWKTOKETHGBQD-UHFFFAOYSA-N
Temperature: 298 K
Tabular data in the source: 0
pressure (bar)	uptake (mmol/g)
1.51725	0.492045
1.82064	0.639959
3.59824	0.982974
3.98837	1.13072
5.28884	1.57369
5.72249	1.57283
6.06931	1.67115
6.5028	1.81881
6.89298	1.91704
7.93321	2.41003
8.36686	2.40917
8.67025	2.55709
9.36394	2.70423
9.71064	2.90156
10.0574	3.04939
10.4477	3.04862
10.7511	3.19653
11.0978	3.39387
11.5314	3.39301
11.8782	3.54084
13.3955	4.03288
13.8291	4.03202
14.1759	4.17985
14.6095	4.17899
14.9129	4.37641
15.3465	4.42506
15.7366	4.52329
17.384	5.01508
17.8176	5.01422
18.1644	5.16205
18.598	5.16119
18.9448	5.30902
19.335	5.35775
19.7686	5.4064
20.072	5.60382
20.3755	5.65272
20.8091	5.65186
21.1994	5.7006
21.3294	5.79935
21.763	5.79849
22.1967	5.79763
22.5	5.99505
22.9337	5.99419
24.2777	6.28856
24.7113	6.2877
25.145	6.28684
25.4484	6.43476
25.882	6.4339
26.2722	6.48263
26.5323	6.63063
26.9659	6.62977
27.3996	6.62891
27.8764	6.77648
28.3101	6.77562
28.7437	6.77476
29.1339	6.92251
29.5675	6.92165
30.5214	7.06827
30.9116	7.11701
31.3453	7.11615
31.7789	7.11529
32.2124	7.31245
32.6461	7.26209
33.0797	7.26123
33.5134	7.26037
33.9036	7.3091
34.2938	7.40734
34.7274	7.40648
35.8547	7.60227
36.2884	7.60141
36.6787	7.60064
37.1123	7.59978
37.546	7.59892
38.0229	7.69698
38.4131	7.74572
38.8468	7.74486
39.2804	7.744
39.7141	7.74314
