Adsorption isotherm of Hydrogen on UMCM-1
DOI: 10.1039/C1jm10264h
Adsorbate Hydrogen: InChIKey UFHFLCQGNIYNRP-UHFFFAOYSA-N
Temperature: 298 K
Tabular data in the source: 0
pressure (bar)	uptake (mmol/g)
2.57113	0.373333
3.85544	0.506667
4.56845	0.56
5.85338	0.72
7.85164	0.946667
9.99257	1.18667
14.9887	1.77333
19.9845	2.34667
24.8386	2.94667
29.8341	3.50667
34.9722	4.08
39.9674	4.62667
