Adsorption isotherm of Ethane, Methane on Zeolite 5A
DOI: 10.1016/0009-2509(96)00013-9
Article source: Figure 3
Adsorbate Ethane: InChIKey OTMSDBZUPAUEDD-UHFFFAOYSA-N
Adsorbate Methane: InChIKey VNWKTOKETHGBQD-UHFFFAOYSA-N
Kind: experiment
Temperature: 303 K
Tabular data in the source: 0
pressure (bar)	Ethane fraction	Ethane uptake (mmol/g)	Methane fraction	Methane uptake (mmol/g)	total uptake (mmol/g)
1	0	0.0152	1	0.506	
1	0.05138	0.362	0.94862	0.39	
1	0.1037	0.596	0.8963	0.31	
1	0.2074	0.903	0.7926	0.208	
1	0.3007	1.09	0.6993	0.152	
1	0.4015	1.21	0.5985	0.0988	
1	0.7973	1.36	0.2027	0.036	
