Adsorption isotherm of Carbon Dioxide on 2,4,6-tris-(4-carboxyphenoxy)-1,3,5-triazine (H3tcpt)
DOI: 10.1039/c5dt01770j
Article source: Figure  5
Adsorbate Carbon Dioxide: InChIKey CURLTUGMZLYLDI-UHFFFAOYSA-N
Kind: experiment
Temperature: 273 K
Tabular data in the source: 0
pressure (bar)	uptake (cm3(STP)/g)
0.004612	1.838
0.011407	4.871
0.052342	22.187
0.104022	38.336
0.150922	50.336
0.204766	59.659
0.255534	67.384
0.306861	73.028
0.355441	78.355
0.406765	82.756
0.456392	86.485
0.506664	90.086
0.557258	93.269
0.607769	95.691
0.658684	98.215
0.709842	100.535
0.761807	102.475
0.810216	104.656
0.860968	106.215
0.912285	107.914
0.961905	109.308
1.00635	110.626
