Adsorption isotherm of Carbon Dioxide on 2,4,6-tris-(4-carboxyphenoxy)-1,3,5-triazine (H3tcpt)
DOI: 10.1039/c5dt01770j
Article source: Figure  5 d
Adsorbate Carbon Dioxide: InChIKey CURLTUGMZLYLDI-UHFFFAOYSA-N
Kind: experiment
Temperature: 298 K
Tabular data in the source: 0
pressure (bar)	uptake (cm3(STP)/g)
0.012679	2.104
0.050423	7.824
0.103765	14.738
0.150988	20.622
0.202957	26.034
0.254232	30.767
0.304802	35.434
0.356637	39.225
0.407087	42.917
0.456269	45.984
0.507558	49.018
0.557727	51.877
0.60915	54.287
0.660159	56.576
0.711022	58.722
0.760777	60.628
0.80956	62.928
0.859036	64.833
0.910885	66.3
0.960361	68.261
1.00817	69.706
