Adsorption isotherm of Nitrogen on 2,4,6-tris-(4-carboxyphenoxy)-1,3,5-triazine (H3tcpt)
DOI: 10.1039/c5dt01770j
Article source: Figure  5 c
Adsorbate Nitrogen: InChIKey IJGRMHOSHXDMSA-UHFFFAOYSA-N
Kind: experiment
Temperature: 298 K
Tabular data in the source: 0
pressure (bar)	uptake (cm3(STP)/g)
0.011139	0.329
0.054668	0.389
0.102857	0.572
0.155155	0.839
0.20453	0.945
0.255643	1.189
0.306755	1.448
0.357157	1.7
0.407007	1.86
0.457645	2.004
0.508757	2.217
0.558765	2.408
0.609482	2.537
0.658936	2.727
0.708706	2.803
0.75966	2.985
0.811089	3.153
0.861017	3.358
0.91134	3.464
0.961821	3.57
1.00875	3.677
