Adsorption isotherm of Nitrogen on 2,4,6-tris-(4-carboxyphenoxy)-1,3,5-triazine (H3tcpt)
DOI: 10.1039/c5dt01770j
Article source: Figure  5
Adsorbate Nitrogen: InChIKey IJGRMHOSHXDMSA-UHFFFAOYSA-N
Kind: experiment
Temperature: 273 K
Tabular data in the source: 0
pressure (bar)	uptake (cm3(STP)/g)
0.006062	0.698
0.052044	1.407
0.102552	2.306
0.153705	3.155
0.203646	4.207
0.254962	5.107
0.306035	6.095
0.35444	6.969
0.405271	7.64
0.456344	8.59
0.508062	9.515
0.557438	10.39
0.608027	11.365
0.659099	12.138
0.709122	13.05
0.759144	13.975
0.809327	14.583
0.859753	15.444
0.910584	16.293
0.959878	17.256
1.00748	17.991
