Adsorption isotherm of Methane on 2,4,6-tris-(4-carboxyphenoxy)-1,3,5-triazine (H3tcpt)
DOI: 10.1039/c5dt01770j
Article source: Figure  5 b
Adsorbate Methane: InChIKey VNWKTOKETHGBQD-UHFFFAOYSA-N
Kind: experiment
Temperature: 273 K
Tabular data in the source: 0
pressure (bar)	uptake (cm3(STP)/g)
0.008002	0.774
0.051729	4.566
0.103292	7.33
0.153078	10.628
0.203995	13.734
0.254992	16.715
0.305263	19.492
0.355936	22.218
0.405801	24.615
0.456797	27.1
0.50747	29.547
0.557415	31.791
0.607118	33.871
0.659324	35.975
0.708138	37.763
0.760587	39.792
0.811663	41.668
0.859909	43.379
0.912116	45.205
0.962545	46.878
1.00699	48.121
