Adsorption isotherm of Hydrogen on 2,4,6-tris-(4-carboxyphenoxy)-1,3,5-triazine (H3tcpt)
DOI: 10.1039/c5dt01770j
Article source: Figure  4
Adsorbate Hydrogen: InChIKey UFHFLCQGNIYNRP-UHFFFAOYSA-N
Kind: experiment
Temperature: 87 K
Tabular data in the source: 0
pressure (bar)	uptake (wt%)
0.005346	0.00833
0.008986	0.05435
0.013839	0.09094
0.055009	0.35197
0.104565	0.56995
0.155921	0.72128
0.205703	0.83755
0.256459	0.93056
0.306481	1.00552
0.357117	1.07181
0.4069	1.12386
0.456682	1.17765
0.508518	1.21651
0.558914	1.26336
0.609657	1.30881
0.659679	1.33344
0.708968	1.36744
0.760457	1.40006
0.809133	1.41983
0.863169	1.45418
0.910032	1.47429
0.961268	1.4892
1.00656	1.51141
