Adsorption isotherm of Carbon Dioxide on 2,4,6-tris-(4-carboxyphenoxy)-1,3,5-triazine (H3tcpt)
DOI: 10.1039/c5dt01770j
Article source: Figure  5 c
Adsorbate Carbon Dioxide: InChIKey CURLTUGMZLYLDI-UHFFFAOYSA-N
Kind: experiment
Temperature: 298 K
Tabular data in the source: 0
pressure (bar)	uptake (cm3(STP)/g)
0.004029	0.334
0.010426	1.501
0.053946	9.356
0.104973	16.491
0.155683	22.508
0.20521	27.989
0.255528	32.728
0.306004	37.084
0.356639	40.995
0.40751	44.425
0.457198	47.632
0.507676	50.479
0.55689	53.028
0.608474	55.324
0.6599	57.581
0.71038	59.571
0.7607	61.354
0.810311	62.953
0.860948	64.468
0.911822	65.746
0.961829	67.008
1.00528	68.164
