Adsorption isotherm of Hydrogen on 2,4,6-tris-(4-carboxyphenoxy)-1,3,5-triazine (H3tcpt)
DOI: 10.1039/c5dt01770j
Article source: Figure  4
Adsorbate Hydrogen: InChIKey UFHFLCQGNIYNRP-UHFFFAOYSA-N
Kind: experiment
Temperature: 77 K
Tabular data in the source: 0
pressure (bar)	uptake (wt%)
0.003893	0.07204
0.004253	0.0923
0.008133	0.15093
0.012879	0.24853
0.013719	0.26613
0.052969	0.8369
0.105871	1.1516
0.154054	1.31431
0.20685	1.44546
0.255752	1.55058
0.306495	1.63037
0.356371	1.70634
0.40662	1.76808
0.457722	1.8156
0.508705	1.87006
0.559807	1.92626
0.609097	1.96302
0.659826	2.00395
0.709235	2.0362
0.761431	2.06394
0.81096	2.08856
0.861329	2.11804
0.912552	2.15168
0.962694	2.18324
1.00722	2.20751
