Adsorption isotherm of Nitrogen on 2,4,6-tris-(4-carboxyphenoxy)-1,3,5-triazine (H3tcpt)
DOI: 10.1039/c5dt01770j
Article source: Figure  3
Adsorbate Nitrogen: InChIKey IJGRMHOSHXDMSA-UHFFFAOYSA-N
Kind: experiment
Temperature: 77 K
Tabular data in the source: 0
pressure (bar)	uptake (cm3(STP)/g)
0.002928	2.97
0.00384	200.84
0.004154	76.17
0.004185	129.43
0.004387	143.19
0.00456	109.72
0.00459	149.44
0.004742	91.72
0.004803	186.56
0.004985	153.61
0.004995	174.21
0.005198	180.46
0.00538	166.92
0.005593	170.95
0.011267	209.17
0.052851	213.25
0.101274	215.62
0.151643	217.84
0.201627	219.99
0.252968	221.54
0.302952	224.65
0.354496	227.17
0.40682	228.57
0.456408	229.16
0.50775	231.38
0.557733	233.15
0.608295	234.41
0.659453	236.7
0.709042	239.29
0.760778	239.95
0.810762	241.58
0.861911	244.32
0.911499	246.09
0.962648	248.98
1.00619	250.53
