Adsorption isotherm of Methane on 2,4,6-tris-(4-carboxyphenoxy)-1,3,5-triazine (H3tcpt)
DOI: 10.1039/c5dt01770j
Article source: Figure  5 c
Adsorbate Methane: InChIKey VNWKTOKETHGBQD-UHFFFAOYSA-N
Kind: experiment
Temperature: 298 K
Tabular data in the source: 0
pressure (bar)	uptake (cm3(STP)/g)
0.011296	0.482
0.051742	1.89
0.105778	3.252
0.156178	4.461
0.206263	5.731
0.255478	6.939
0.306668	8.263
0.357701	9.41
0.40826	10.512
0.458818	11.606
0.508193	12.723
0.559146	13.74
0.60939	14.75
0.660343	15.736
0.709164	16.608
0.75996	17.526
0.811704	18.382
0.860604	19.223
0.910926	20.026
0.96267	20.822
1.00691	21.54
