Adsorption isotherm of Hydrogen on Li-doped COF-202
DOI: 10.1021/Jp9106525
Adsorbate Hydrogen: InChIKey UFHFLCQGNIYNRP-UHFFFAOYSA-N
Temperature: 298 K
Tabular data in the source: 0
pressure (bar)	uptake (wt%)
0.346219	2.00521
0.912211	2.10937
3.1822	2.47396
4.89523	2.65625
7.77035	2.78646
10.0735	2.86458
15.2607	2.99479
19.873	3.09896
23.9102	3.17708
30.2595	3.25521
39.496	3.35937
49.8916	3.4375
59.7092	3.51562
69.5297	3.56771
79.3533	3.59375
89.1739	3.64583
99.5755	3.67187
