Adsorption isotherm of Hydrogen on Li-doped COF-202
DOI: 10.1021/Jp9106525
Adsorbate Hydrogen: InChIKey UFHFLCQGNIYNRP-UHFFFAOYSA-N
Temperature: 298 K
Tabular data in the source: 0
pressure (bar)	uptake (wt%)
0.50578	0.625
1.06575	0.78125
2.74566	1.25
4.45267	1.48438
7.8968	1.69271
9.61886	1.79687
14.7971	2.00521
19.9813	2.16146
25.1686	2.29167
29.7808	2.39583
34.9711	2.5
39.5833	2.60417
45.3577	2.65625
49.9699	2.76042
59.2034	2.89062
64.3997	2.94271
69.0179	2.99479
74.7923	3.04687
79.9855	3.125
84.6038	3.17708
89.8001	3.22917
99.6146	3.33333
