Adsorption isotherm of Hydrogen on COF-202
DOI: 10.1021/Jp9106525
Adsorbate Hydrogen: InChIKey UFHFLCQGNIYNRP-UHFFFAOYSA-N
Temperature: 298 K
Tabular data in the source: 0
pressure (bar)	uptake (wt%)
2.88415	0.0520833
5.19027	0.104167
8.64945	0.182292
10.3775	0.234375
20.18	0.442708
29.9855	0.625
40.3691	0.807292
50.1776	0.963542
59.9892	1.09375
69.7977	1.25
80.1842	1.40625
89.9988	1.51042
94.039	1.5625
99.8133	1.61458
