Adsorption isotherm of Hydrogen on MOF-177
DOI: 10.1021/Jp9106525
Adsorbate Hydrogen: InChIKey UFHFLCQGNIYNRP-UHFFFAOYSA-N
Temperature: 77 K
Tabular data in the source: 0
pressure (bar)	uptake (wt%)
0.613657	3.24324
3.07264	4.32432
4.54585	4.91892
8.42799	5.35135
9.88162	5.45946
19.5609	5.89189
30.1954	6.05405
39.8572	6.05405
49.9978	5.94595
60.1406	5.89189
70.2812	5.78378
79.9408	5.72973
90.5667	5.67568
