Adsorption isotherm of Hydrogen on MOF-177
DOI: 10.1021/Jp9106525
Adsorbate Hydrogen: InChIKey UFHFLCQGNIYNRP-UHFFFAOYSA-N
Temperature: 298 K
Tabular data in the source: 0
pressure (bar)	uptake (wt%)
2.87081	0.0443865
5.74163	0.0709159
8.13397	0.097488
10.0478	0.133031
20.0957	0.22142
30.1435	0.309809
39.7129	0.389311
49.7608	0.459843
59.8086	0.512517
69.8565	0.565191
79.9043	0.626794
89.4737	0.670583
99.5215	0.7054
