Adsorption isotherm of Hydrogen on MOF-177
DOI: 10.1021/Jp9106525
Adsorbate Hydrogen: InChIKey UFHFLCQGNIYNRP-UHFFFAOYSA-N
Temperature: 298 K
Tabular data in the source: 0
pressure (bar)	uptake (wt%)
1.43541	0.017729
3.34928	0.0711295
7.6555	0.177888
10.0478	0.213389
14.8325	0.311176
20.0957	0.417849
26.3158	0.524436
30.1435	0.586594
35.4067	0.684339
39.7129	0.746454
49.7608	0.906271
59.8086	1.04823
69.8565	1.17233
79.4258	1.30541
89.4737	1.41165
99.5215	1.5179
