Adsorption isotherm of Hydrogen on Li-doped COF-202
DOI: 10.1021/Jp9106525
Adsorbate Hydrogen: InChIKey UFHFLCQGNIYNRP-UHFFFAOYSA-N
Temperature: 298 K
Tabular data in the source: 0
pressure (bar)	uptake (wt%)
1.06575	0.78125
2.74868	1.22396
5.03673	1.43229
7.90583	1.61458
9.05287	1.69271
19.4244	1.97917
29.8109	2.13542
39.6255	2.23958
50.0211	2.31771
59.2606	2.39583
69.6592	2.44792
80.0578	2.5
89.8814	2.52604
99.702	2.57812
