Adsorption isotherm of Hydrogen on MOF-177
DOI: 10.1021/Jp9106525
Adsorbate Hydrogen: InChIKey UFHFLCQGNIYNRP-UHFFFAOYSA-N
Temperature: 77 K
Tabular data in the source: 0
pressure (bar)	uptake (wt%)
0.554903	1.78378
1.09893	3.2973
2.59172	4.37838
4.54803	4.97297
7.47051	5.56757
10.3778	5.78378
20.0701	6.54054
29.7493	6.97297
40.386	7.18919
50.0544	7.35135
60.6889	7.51351
70.3573	7.67568
80.0191	7.67568
90.6515	7.78378
100.799	7.83784
