Adsorption isotherm of Hydrogen on COF-202
DOI: 10.1021/Jp9106525
Adsorbate Hydrogen: InChIKey UFHFLCQGNIYNRP-UHFFFAOYSA-N
Temperature: 298 K
Tabular data in the source: 0
pressure (bar)	uptake (wt%)
1.7341	0
5.19629	0.0520833
7.50542	0.078125
9.81455	0.104167
19.6321	0.182292
30.0277	0.260417
39.8483	0.3125
50.2469	0.364583
60.0674	0.416667
69.891	0.442708
79.7146	0.46875
90.1162	0.494792
99.9398	0.520833
