Adsorption isotherm of Hydrogen on Li-doped COF-202
DOI: 10.1021/Jp9106525
Adsorbate Hydrogen: InChIKey UFHFLCQGNIYNRP-UHFFFAOYSA-N
Temperature: 298 K
Tabular data in the source: 0
pressure (bar)	uptake (wt%)
0.331166	2.13542
0.927264	1.97917
1.46917	2.29167
4.31419	2.68229
7.75831	2.89062
10.0614	2.96875
15.2427	3.15104
19.2738	3.28125
24.4611	3.41146
29.6514	3.51562
34.2666	3.59375
39.4599	3.67187
44.6532	3.75
49.2654	3.85417
54.4617	3.90625
59.655	3.98437
64.8513	4.03646
70.0476	4.08854
74.6658	4.14062
79.2841	4.19271
89.6737	4.32292
94.2949	4.34896
99.4942	4.375
