Adsorption isotherm of Hydrogen on IRMOF-1
DOI: 10.1016/j.jallcom.2004.11.109
Adsorbate Hydrogen: InChIKey UFHFLCQGNIYNRP-UHFFFAOYSA-N
Temperature: 77 K
Tabular data in the source: 0
pressure (bar)	uptake (wt%)
0.280697	0.00374478
1.96305	1.17484
2.26893	1.35837
3.6454	1.46324
9.30423	1.58996
18.7866	1.68173
42.1866	1.52005
43.4101	1.61618
