Adsorption isotherm of Hydrogen on IRMOF-1
DOI: 10.1016/j.jallcom.2004.11.109
Adsorbate Hydrogen: InChIKey UFHFLCQGNIYNRP-UHFFFAOYSA-N
Temperature: 298 K
Tabular data in the source: 0
pressure (bar)	uptake (wt%)
5.02187	0.016854
8.0807	0.0255935
10.0689	0.0255935
29.9513	0.0998792
59.316	0.165425
67.5748	0.165425
