Adsorption isotherm of Nitrogen on SIOC-COF-3
DOI: 10.1002/chem.201603043
Article source: Figure 5a
Adsorbate Nitrogen: InChIKey IJGRMHOSHXDMSA-UHFFFAOYSA-N
Kind: experiment
Temperature: 77 K
Tabular data in the source: 0
pressure (bar)	uptake (cm3(STP)/g)
0.000325	139.013
0.001055	130.824
0.001055	123.806
0.001055	116.787
0.001055	109.769
0.001055	102.75
0.001055	95.732
0.001055	88.7135
0.001055	81.695
0.001055	74.6765
0.001055	67.6581
0.001055	60.6396
0.001055	53.6211
0.001055	46.6026
0.001055	39.5841
0.001055	32.5657
0.001055	25.5472
0.001055	18.5287
0.001639	9.7556
0.006893	150.137
0.000404	6.24636
0.013356	159.4
0.086723	185.023
0.121749	189.409
0.156774	193.308
0.191799	195.16
0.226825	197.013
0.26185	198.767
0.296875	200.814
0.366926	204.226
0.402615	203.668
0.437139	206.858
0.472002	207.443
0.507027	208.125
0.542053	209.49
0.578246	209.548
0.612103	211.732
0.647129	213.291
0.682154	213.876
0.717179	214.656
0.752205	216.801
0.78723	218.555
0.822256	220.018
0.857281	222.065
0.987166	253.648
0.995599	267.542
1.00273	272.559
0.334802	202.278
0.053063	177.975
0.899544	226.076
0.918495	228.608
0.934919	230.633
0.952607	236.203
0.971558	243.291
0.143348	205.191
0.194055	209.596
0.229581	210.28
0.264769	213.311
0.299794	213.291
0.33482	215.663
0.352332	214.681
0.438728	217.339
0.476088	219.988
0.51061	225.893
0.526796	226.194
0.58066	227.408
0.616949	227.915
0.634196	228.162
0.685736	229.501
0.720762	229.615
0.738874	229.914
0.775067	231.802
0.811356	232.318
0.84575	234.611
0.891435	238.793
0.928791	244.517
0.96681	259.566
1.00531	276.136
0.386602	217.468
