Adsorption isotherm of Nitrogen on SIOC-COF-4
DOI: 10.1002/chem.201603043
Article source: Figure 5c
Adsorbate Nitrogen: InChIKey IJGRMHOSHXDMSA-UHFFFAOYSA-N
Kind: experiment
Temperature: 77 K
Tabular data in the source: 0
pressure (bar)	uptake (cm3(STP)/g)
0.059796	98.5009
0.088217	105.254
0.121765	110.654
0.15388	115.006
0.444954	142.177
0.509638	147.272
0.541979	150.35
0.574321	153.375
0.831583	188.879
0.862455	195.203
0.891856	202.694
0.916847	209.748
0.935076	215.849
0.954187	224.71
0.969402	233.683
0.986619	247.769
0.793839	181.241
0.757119	174.861
0.721547	170.76
0.685974	165.292
0.652697	161.647
0.617124	157.546
0.474835	144.787
0.401395	138.863
0.368117	136.129
0.335987	132.94
0.30271	130.661
0.264843	126.56
0.194845	120.181
0.22927	125.193
0.010098	82.8157
0.003213	77.3476
0.002065	70.9682
0.000229	63.6775
0.003213	55.931
0.000918	48.1846
0.000229	43.6279
0.000229	36.7928
0.002524	31.3247
0.002524	25.401
0.002524	18.5659
0.002524	13.5535
0.002524	6.26276
0.002524	0.33902
0.143208	163.561
0.19278	170.122
0.224451	172.31
0.26163	175.044
0.298809	176.137
0.330479	177.778
0.352511	178.871
0.395198	181.605
0.437885	183.246
0.481949	193.635
0.51362	201.837
0.543914	204.571
0.579716	204.571
0.618272	207.305
0.652697	207.305
0.688499	210.039
0.725678	212.227
0.755972	212.227
0.793151	216.054
0.812429	217.695
0.852362	220.429
0.892295	227.537
0.934981	237.38
0.969406	255.424
1.00245	272.375
