Adsorption isotherm of Nitrogen on C80H99N25O17Zn5
DOI: 10.1002/anie.200902274
Adsorbate Nitrogen: InChIKey IJGRMHOSHXDMSA-UHFFFAOYSA-N
Temperature: 77 K
Tabular data in the source: 0
pressure (bar)	uptake (cm3(STP)/g)
0.00201143	46.8493
0.00402286	147.945
0.00603429	187.397
0.0100571	193.973
0.0402286	203.836
0.0744229	208.767
0.108617	212.877
0.152869	218.63
0.201143	221.918
0.243383	233.425
0.251429	235.068
0.303726	236.712
0.347977	244.932
0.396251	248.219
0.448549	249.863
0.498834	251.507
0.539063	253.151
0.589349	253.973
0.683886	254.795
0.780434	257.26
0.876983	258.082
0.967497	265.479
