Adsorption isotherm of Nitrogen on Carbon
DOI: 10.1016/j.carbon.2013.09.024
Adsorbate Nitrogen: InChIKey IJGRMHOSHXDMSA-UHFFFAOYSA-N
Temperature: 77 K
Tabular data in the source: 0
pressure (bar)	uptake (cm3(STP)/g)
0.00244715	54.3689
0.00489431	100.971
0.0146829	139.806
0.0391545	151.456
0.063626	166.99
0.0807561	170.874
0.10278	174.757
0.124805	182.524
0.151724	186.408
0.173748	194.175
0.198219	198.058
0.222691	205.825
0.247163	213.592
0.271634	221.359
0.296106	225.243
0.611788	306.796
0.631366	310.68
0.658284	318.447
0.685203	330.097
0.707227	345.631
0.731699	353.398
0.75617	365.049
0.778195	380.583
0.805114	396.117
0.829585	419.417
0.854057	446.602
0.876081	469.903
0.895658	516.505
0.925024	586.408
0.949496	722.33
0.966626	1025.24
