Adsorption isotherm of Nitrogen on Carbon
DOI: 10.1016/j.carbon.2013.09.024
Adsorbate Nitrogen: InChIKey IJGRMHOSHXDMSA-UHFFFAOYSA-N
Temperature: 77 K
Tabular data in the source: 0
pressure (bar)	uptake (cm3(STP)/g)
0.00999863	19.1708
0.0225371	31.9643
0.0526936	44.7963
0.0652551	51.2067
0.100438	66.1774
0.123051	76.8652
0.148197	83.3033
0.175852	91.8745
0.198473	100.435
0.223611	109
0.246233	117.561
0.271363	128.254
0.296501	136.82
0.316606	145.374
0.341744	153.94
0.364357	164.628
0.392005	175.327
0.417143	183.892
0.437224	198.83
0.464879	207.401
0.487493	218.089
0.510114	226.649
0.53526	233.087
0.562899	245.914
0.583004	254.468
0.608142	263.034
0.630756	273.722
0.653346	290.793
0.683503	303.625
0.706101	318.568
0.728699	333.511
0.753799	352.715
0.773881	367.652
0.801482	391.117
0.826528	425.214
0.849012	472.072
0.873997	523.191
0.896481	570.048
0.921588	587.125
0.946711	599.946
0.9668	612.756
