Adsorption isotherm of Nitrogen on Carbon
DOI: 10.1016/j.carbon.2013.09.024
Adsorbate Nitrogen: InChIKey IJGRMHOSHXDMSA-UHFFFAOYSA-N
Temperature: 77 K
Tabular data in the source: 0
pressure (bar)	uptake (cm3(STP)/g)
0.0103441	14.3161
0.0311065	20.0915
0.0570642	25.8821
0.0830404	25.9585
0.103812	28.8767
0.121986	31.7873
0.147953	34.7208
0.17392	37.6543
0.194701	37.7155
0.223266	40.6566
0.244037	43.5748
0.272611	43.6589
0.295971	49.4419
0.31935	49.5106
0.342728	49.5794
0.366088	55.3623
0.392065	55.4387
0.415425	61.2217
0.438803	61.2905
0.459566	67.0658
0.48814	67.1499
0.514107	70.0834
0.537476	73.0092
0.55565	75.9198
0.586812	78.8686
0.610172	84.6516
0.633551	84.7204
0.65692	87.6462
0.685475	93.4445
0.703659	93.498
0.734821	96.4467
0.752986	102.214
0.773757	105.133
0.799715	110.923
0.825682	113.857
0.854247	116.798
0.872393	128.28
0.898351	134.071
0.921664	154.139
0.947464	208.501
0.961222	771.398
