Adsorption isotherm of Hydrogen on IRMOF-10
DOI: 10.1021/Ja9036302
Adsorbate Hydrogen: InChIKey UFHFLCQGNIYNRP-UHFFFAOYSA-N
Temperature: 77 K
Tabular data in the source: 0
pressure (bar)	uptake (wt%)
11.8624	6.67656
15.0258	7.74481
17.3982	8.36795
19.3753	8.81306
21.3524	9.34718
23.1318	9.61424
24.9111	9.97033
26.8882	10.3264
28.6676	10.5935
31.4355	11.0386
33.2148	11.3056
35.1919	11.5727
36.9713	11.8398
38.9483	12.0178
40.9254	12.2849
42.7048	12.5519
44.6819	12.73
46.4612	12.908
48.4383	13.0861
50.2177	13.2641
52.1947	13.4421
53.9741	13.6202
55.9512	13.7982
57.7305	13.9763
59.7076	14.0653
61.487	14.2433
63.464	14.4214
65.4411	14.5104
67.2205	14.6884
69.1976	14.8665
71.1746	14.9555
72.954	15.1335
74.9311	15.2226
76.7104	15.4006
78.6875	15.4896
80.6646	15.5786
