Adsorption isotherm of Hydrogen on Mg-C60@IRMOF-8
DOI: 10.1021/Ja9036302
Adsorbate Hydrogen: InChIKey UFHFLCQGNIYNRP-UHFFFAOYSA-N
Temperature: 77 K
Tabular data in the source: 0
pressure (bar)	uptake (wt%)
0.156688	0.697495
0.208918	1.06953
0.261147	1.5811
0.365606	1.92981
0.417835	2.18557
0.522294	2.41801
0.626753	2.65044
0.678982	2.88294
0.783441	3.11538
0.887899	3.32456
0.992358	3.557
1.14905	3.78938
1.25351	3.99856
1.46242	4.23088
1.67134	4.43994
1.88026	4.64901
2.1414	4.83475
2.50701	5.02038
2.82039	5.20607
3.18599	5.34518
3.60383	5.48424
4.07389	5.59998
4.54396	5.71572
5.01402	5.78494
5.48409	5.85417
6.00638	5.92334
6.47644	5.99257
6.99874	6.03848
7.67772	6.10747
8.46116	6.15308
9.34906	6.22183
10.6026	6.2669
11.3338	6.31257
12.2217	6.33481
12.744	6.35747
13.2663	6.35687
13.7363	6.37959
14.2586	6.37899
14.7287	6.4017
15.251	6.4011
15.7733	6.42376
16.2433	6.44648
16.7656	6.44588
17.2879	6.44528
17.8102	6.46793
18.3325	6.46733
18.8548	6.46673
19.3249	6.48945
19.8472	6.48885
