Adsorption isotherm of Hydrogen on C60@IRMOF-8
DOI: 10.1021/Ja9036302
Adsorbate Hydrogen: InChIKey UFHFLCQGNIYNRP-UHFFFAOYSA-N
Temperature: 77 K
Tabular data in the source: 0
pressure (bar)	uptake (wt%)
0.208918	0.464877
0.261147	0.813654
0.365606	1.06935
0.470064	1.30179
0.574523	1.53422
0.678982	1.76666
0.783441	1.97585
0.887899	2.20828
1.04459	2.44066
1.14905	2.6731
1.30573	2.88222
1.46242	3.1146
1.67134	3.32366
1.82803	3.53279
2.03695	3.7651
2.24586	3.97417
2.50701	4.15991
2.76816	4.36892
3.0293	4.55466
3.34268	4.74035
3.70829	4.90272
4.07389	5.06509
4.4395	5.22746
4.8051	5.36658
5.22294	5.50563
5.693	5.62137
6.16307	5.73711
6.63313	5.8296
7.1032	5.94534
7.72995	6.08415
8.30447	6.15326
8.82677	6.19917
9.45352	6.29148
9.92358	6.3607
10.4459	6.40662
10.9682	6.45253
11.4382	6.4985
11.9605	6.54441
12.4306	6.59039
13.0051	6.63624
13.5274	6.65889
14.0497	6.70481
14.5198	6.72752
15.0421	6.75018
15.5644	6.77284
16.0866	6.79549
16.5567	6.84146
17.079	6.86412
17.6013	6.86352
18.1236	6.88618
18.5937	6.90889
19.116	6.93155
19.6382	6.95421
20.1605	6.97686
