Adsorption isotherm of Hydrogen on IRMOF-1
DOI: 10.1021/Ja9036302
Adsorbate Hydrogen: InChIKey UFHFLCQGNIYNRP-UHFFFAOYSA-N
Temperature: 77 K
Tabular data in the source: 0
pressure (bar)	uptake (wt%)
0.593122	0.612813
1.77937	1.11421
2.96561	1.89415
3.36102	2.14485
4.15185	2.45125
4.54727	2.61838
5.14039	2.86908
5.73351	3.14763
6.32663	3.45404
7.31517	3.67688
7.90829	3.95543
8.89683	4.20613
10.8739	4.79109
11.8624	5.04178
12.851	5.26462
13.8395	5.51532
15.0258	5.73816
16.212	5.961
17.2005	6.12813
18.5845	6.32312
19.9684	6.54596
21.3524	6.74095
22.7363	6.93593
24.1203	7.10306
25.702	7.27019
27.2836	7.43733
28.8653	7.60446
30.4469	7.77159
32.2263	7.91086
33.808	8.05014
35.5873	8.18942
37.3667	8.30084
39.146	8.44011
40.9254	8.55153
42.7048	8.66295
47.8452	8.96936
50.02	9.05292
51.6016	9.16435
53.1833	9.24791
55.1603	9.33148
56.9397	9.41504
58.7191	9.49861
60.6961	9.58217
62.4755	9.63788
64.4526	9.72145
66.4297	9.80501
68.209	9.86072
70.1861	9.94429
71.9655	10
73.9425	10.0836
75.9196	10.1393
77.699	10.195
