Adsorption isotherm of Hydrogen on IRMOF-8
DOI: 10.1021/Ja9036302
Adsorbate Hydrogen: InChIKey UFHFLCQGNIYNRP-UHFFFAOYSA-N
Temperature: 77 K
Tabular data in the source: 0
pressure (bar)	uptake (wt%)
3.55873	3.02671
7.90829	5.25223
12.4556	6.67656
14.0372	7.21068
16.212	7.56677
17.9914	7.92285
21.3524	8.45697
23.3295	8.81306
26.8882	9.34718
29.4584	9.52522
31.04	9.52522
32.6217	9.79228
34.4011	9.97033
36.3781	10.1484
38.1575	10.3264
39.7392	10.6825
40.7277	10.5045
42.7048	10.5935
44.4841	10.7715
46.4612	10.9496
48.4383	11.0386
50.2177	11.1276
52.1947	11.2166
54.1718	11.3947
55.9512	11.4837
57.9282	11.5727
59.9053	11.6617
61.8824	11.7507
63.6618	11.8398
65.6388	11.9288
67.6159	12.0178
69.593	12.1068
71.57	12.1958
73.3494	12.2849
75.3265	12.3739
77.3036	12.4629
79.2806	12.4629
