Adsorption isotherm of Hydrogen on IRMOF-1
DOI: 10.1021/Ja9036302
Adsorbate Hydrogen: InChIKey UFHFLCQGNIYNRP-UHFFFAOYSA-N
Temperature: 200 K
Tabular data in the source: 0
pressure (bar)	uptake (wt%)
1.58166	0.111421
4.74498	0.334262
7.51288	0.529248
9.68766	0.640669
11.0716	0.724234
12.6533	0.835655
15.0258	0.97493
16.8051	1.08635
18.5845	1.19777
20.5616	1.30919
22.3409	1.42061
24.1203	1.50418
26.0974	1.58774
27.8767	1.67131
29.4584	1.78273
31.2378	1.8663
33.0171	1.97772
34.9942	2.06128
36.7736	2.14485
38.5529	2.22841
40.53	2.31198
42.3094	2.39554
44.2864	2.47911
46.0658	2.56267
48.0429	2.64624
49.8222	2.72981
51.7993	2.81337
53.5787	2.89694
55.1603	2.95265
56.9397	3.03621
58.7191	3.11978
60.6961	3.20334
62.4755	3.25905
64.2549	3.31476
66.232	3.39833
68.0113	3.45404
69.9884	3.5376
71.7678	3.59331
73.7448	3.67688
75.7219	3.73259
77.5013	3.7883
79.4783	3.87187
