Adsorption isotherm of Hydrogen on IRMOF-1
DOI: 10.1021/Ja9036302
Adsorbate Hydrogen: InChIKey UFHFLCQGNIYNRP-UHFFFAOYSA-N
Temperature: 87 K
Tabular data in the source: 0
pressure (bar)	uptake (wt%)
0.790829	0.417827
2.37249	1.03064
3.36102	1.44847
3.75644	1.6156
4.54727	1.89415
5.3381	2.31198
6.32663	2.56267
7.51288	2.92479
8.30371	3.09192
8.69912	3.34262
9.88537	3.5376
10.6762	3.84401
11.8624	4.01114
13.0487	4.26184
14.0372	4.48468
15.4212	4.70752
16.6074	4.90251
17.7937	5.12535
19.3753	5.26462
19.9684	5.45961
21.3524	5.6546
22.934	5.84958
24.318	6.01671
25.8997	6.2117
27.2836	6.35097
28.8653	6.51811
30.4469	6.68524
32.2263	6.85237
33.808	6.99164
35.5873	7.13092
37.169	7.27019
38.9483	7.40947
40.7277	7.52089
42.3094	7.66017
44.0887	7.74373
45.8681	7.85515
47.0543	7.93872
49.4268	8.07799
51.2062	8.18942
53.1833	8.27298
54.9626	8.3844
56.742	8.46797
58.7191	8.55153
60.4984	8.66295
62.4755	8.74652
64.2549	8.80223
66.0342	8.91365
68.0113	8.96936
69.7907	9.05292
71.7678	9.13649
73.5471	9.1922
75.5242	9.27577
77.3036	9.35933
79.2806	9.41504
