Adsorption isotherm of Hydrogen on IRMOF-1
DOI: 10.1021/Ja9036302
Adsorbate Hydrogen: InChIKey UFHFLCQGNIYNRP-UHFFFAOYSA-N
Temperature: 77 K
Tabular data in the source: 0
pressure (bar)	uptake (wt%)
1.77937	1.60237
7.31517	4.98516
10.0831	5.96439
14.0372	6.49852
17.3982	7.12166
21.1547	7.38872
22.7363	7.47774
24.7134	7.65579
28.0744	7.83383
31.8309	8.01187
35.1919	8.18991
37.169	8.36795
39.146	8.36795
39.5415	8.45697
41.5185	8.54599
43.2979	8.54599
45.4727	8.54599
47.4498	8.63501
53.381	8.90208
55.358	8.90208
57.5328	8.81306
60.4984	8.90208
62.0801	9.08012
64.0572	9.08012
66.8251	9.16914
68.8021	9.16914
70.3838	9.25816
72.3609	9.25816
74.9311	9.25816
77.699	9.25816
81.06	9.4362
