Adsorption isotherm of Hydrogen on IRMOF-16
DOI: 10.1021/Ja9036302
Adsorbate Hydrogen: InChIKey UFHFLCQGNIYNRP-UHFFFAOYSA-N
Temperature: 77 K
Tabular data in the source: 0
pressure (bar)	uptake (wt%)
1.18624	1.15727
2.7679	2.40356
7.51288	5.34125
9.48995	6.32047
10.6762	6.94362
13.2464	8.01187
14.6303	8.63501
16.212	9.25816
17.596	9.79228
18.9799	10.4154
20.957	10.9496
22.5386	11.4837
24.1203	11.9288
25.702	12.4629
27.4813	12.908
29.063	13.4421
30.8423	13.7982
32.6217	14.2433
34.4011	14.5994
36.1804	15.0445
37.9598	15.4006
39.7392	15.8457
41.5185	16.2018
43.2979	16.5579
45.0773	16.9139
47.0543	17.27
48.8337	17.5371
50.6131	17.8932
52.3924	18.1602
54.3695	18.5163
56.1489	18.7834
58.126	19.0504
59.9053	19.4065
61.6847	19.6736
63.6618	19.9407
65.4411	20.2077
67.4182	20.4748
69.1976	20.7418
71.1746	21.0089
72.954	21.276
74.7334	21.454
76.7104	21.7211
78.4898	21.9881
80.4669	22.1662
