Adsorption isotherm of Hydrogen on IRMOF-1
DOI: 10.1021/Ja9036302
Adsorbate Hydrogen: InChIKey UFHFLCQGNIYNRP-UHFFFAOYSA-N
Temperature: 298 K
Tabular data in the source: 0
pressure (bar)	uptake (wt%)
2.17478	0.0557103
5.93122	0.194986
7.71059	0.278552
9.68766	0.334262
11.467	0.389972
13.2464	0.417827
15.0258	0.501393
16.8051	0.557103
18.5845	0.612813
20.3639	0.668524
22.3409	0.724234
24.1203	0.807799
26.0974	0.86351
27.8767	0.91922
29.8538	0.97493
31.6332	1.03064
33.6102	1.08635
35.5873	1.14206
37.3667	1.19777
39.3438	1.25348
41.1231	1.30919
43.1002	1.33705
44.8796	1.42061
46.8566	1.44847
48.636	1.50418
50.6131	1.55989
52.5901	1.6156
54.3695	1.67131
56.3466	1.72702
57.9282	1.83844
59.9053	1.81058
61.6847	1.8663
63.6618	1.89415
65.0457	2.03343
66.8251	2.00557
68.6044	2.03343
70.3838	2.08914
72.5586	2.14485
75.5242	2.20056
77.8967	2.28412
81.06	2.36769
