Adsorption isotherm of Hydrogen on Mg-C60@IRMOF-10
DOI: 10.1021/Ja9036302
Adsorbate Hydrogen: InChIKey UFHFLCQGNIYNRP-UHFFFAOYSA-N
Temperature: 77 K
Tabular data in the source: 0
pressure (bar)	uptake (wt%)
0.261147	0.534584
0.522294	1.25521
0.731211	1.65032
0.83567	1.88276
0.940129	2.1152
1.04459	2.32438
1.20128	2.55676
1.35796	2.78914
1.46242	2.99832
1.67134	3.23064
1.82803	3.43976
1.98472	3.67214
2.19363	3.8812
2.40255	4.09027
2.61147	4.29933
2.87262	4.50833
3.13376	4.69408
3.44714	4.90302
3.70829	5.08877
4.07389	5.27439
4.38727	5.43683
4.75287	5.5992
5.11848	5.76157
5.53631	5.92388
5.95415	6.06293
6.37198	6.17873
6.78982	6.31779
7.25988	6.43353
7.72995	6.52601
8.20001	6.6185
8.67008	6.71098
9.19237	6.8034
9.66244	6.87263
10.1325	6.96512
10.6548	7.01103
11.1249	7.08026
11.6472	7.14942
12.1172	7.1954
12.6395	7.24131
13.1618	7.31048
13.6319	7.35645
14.4153	7.42532
15.251	7.47087
16.0866	7.51642
16.9745	7.60843
18.2803	7.6767
19.0115	7.72237
20.0039	7.76774
