Adsorption isotherm of Hydrogen on C60@IRMOF-10
DOI: 10.1021/Ja9036302
Adsorbate Hydrogen: InChIKey UFHFLCQGNIYNRP-UHFFFAOYSA-N
Temperature: 77 K
Tabular data in the source: 0
pressure (bar)	uptake (wt%)
0.522294	0.813354
0.678982	1.04573
0.83567	1.25485
0.940129	1.48729
1.09682	1.69642
1.25351	1.92879
1.41019	2.13792
1.61911	2.37023
1.7758	2.57936
1.98472	2.78842
2.19363	2.99748
2.40255	3.2298
2.6637	3.4388
2.87262	3.64787
3.13376	3.83361
3.39491	4.04262
3.70829	4.2283
4.02166	4.41399
4.33504	4.59968
4.64841	4.78536
5.01402	4.94773
5.37963	5.13336
5.74523	5.29573
6.11084	5.43485
6.47644	5.57396
6.89428	5.73627
7.31211	5.87533
7.72995	5.99113
8.14778	6.13018
8.61785	6.24592
9.08791	6.36166
9.55798	6.45415
10.028	6.56989
10.4981	6.66237
10.9682	6.75485
11.4382	6.82408
11.9083	6.91657
12.4306	6.98573
12.9007	7.07822
13.4752	7.12407
14.0497	7.21643
14.7287	7.30868
15.3554	7.40098
16.0866	7.46991
16.8701	7.56204
17.8624	7.67718
19.116	7.76876
19.6905	7.79136
20.0561	7.81419
