Adsorption isotherm of Carbon Dioxide on Zn2(L)(oba)2*2DMF*2H2O
DOI: 10.1039/c5nj01639h
Article source: Figure 4a
Adsorbate Carbon Dioxide: InChIKey CURLTUGMZLYLDI-UHFFFAOYSA-N
Kind: experiment
Temperature: 273 K
Tabular data in the source: 0
pressure (bar)	uptake (cm3(STP)/g)
0	0
0.924397	0.37415
1.82506	0.578231
2.72573	0.782313
3.45196	0.986395
4.52231	1.15646
5.58792	1.29252
7.20531	1.63265
8.97817	1.83673
9.87408	2.0068
10.7653	2.14286
11.6517	2.2449
12.5428	2.38095
14.311	2.55102
15.023	2.65306
16.0886	2.78912
16.975	2.89116
17.687	2.9932
18.5782	3.12925
19.2712	3.09524
20.5112	3.23129
21.2232	3.33333
22.1049	3.40136
22.8169	3.5034
23.6985	3.57143
24.7546	3.63946
25.4666	3.7415
26.3483	3.80952
27.2347	3.91156
28.1164	3.97959
28.8237	4.04762
29.7101	4.14966
30.7662	4.21769
31.6479	4.28571
32.3599	4.38776
33.2416	4.45578
34.128	4.55782
35.0143	4.65986
