Adsorption isotherm of Carbon Dioxide, Methane on Li(0.13)-ZSM-25
DOI: 10.1021/acs.jpcc.8b04152
Article source: Table 4
Adsorbate Carbon Dioxide: InChIKey CURLTUGMZLYLDI-UHFFFAOYSA-N
Adsorbate Methane: InChIKey VNWKTOKETHGBQD-UHFFFAOYSA-N
Kind: experiment
Temperature: 303 K
Tabular data in the source: 0
pressure (bar)	Carbon Dioxide fraction	Carbon Dioxide uptake (mmol/g)	Methane fraction	Methane uptake (mmol/g)	total uptake (mmol/g)
2	0.5	1.94	0.5	0.029	1.969
7	0.5	3.16	0.5	0.25	3.41
