Adsorption isotherm of Nitrogen on CdS
DOI: 10.1021/Jp103157t
Adsorbate Nitrogen: InChIKey IJGRMHOSHXDMSA-UHFFFAOYSA-N
Temperature: 77 K
Tabular data in the source: 0
pressure (bar)	uptake (cm3(STP)/g)
0.00901643	18.7127
0.0247952	30.6383
0.0450821	34.0732
0.063115	39.2039
0.0834019	42.6388
0.110451	51.1847
0.128484	52.916
0.146517	52.9476
0.166804	58.0822
0.187091	61.5171
0.205124	61.5487
0.227665	64.9875
0.236681	66.703
0.259222	68.4422
0.279509	71.8771
0.299796	73.6123
0.315575	75.3396
0.342624	78.7864
0.38996	83.9684
0.450821	89.174
0.473362	92.6129
0.500412	96.0596
0.522953	97.7988
0.547748	102.941
0.570289	106.38
0.595084	111.523
0.615371	113.258
0.635658	116.693
0.644675	118.408
0.667216	123.547
0.692011	130.389
0.712298	135.524
0.732585	140.658
0.750618	147.489
0.777667	157.734
0.7957	166.265
0.827257	183.317
0.847544	200.35
0.874593	224.193
0.885864	244.609
0.89488	259.923
0.899389	271.828
0.906151	287.138
0.912913	304.147
0.919676	321.156
0.926438	346.663
0.930946	368.768
0.9332	385.769
0.937708	402.774
0.939963	419.775
0.942217	445.275
0.944471	457.176
0.948979	474.182
0.951233	509.88
0.953487	526.881
0.955741	543.882
0.957995	572.781
0.967012	601.692
