Adsorption isotherm of Nitrogen on Zeolite FAU-I
DOI: 10.1016/S0169-4332(02)00052-1
Adsorbate Nitrogen: InChIKey IJGRMHOSHXDMSA-UHFFFAOYSA-N
Temperature: 298 K
Tabular data in the source: 0
pressure (bar)	uptake (mmol/g)
0.188887	0.0636713
0.476671	0.155436
1.38488	0.286528
2.02984	0.456949
2.97518	0.666696
4.18875	0.981318
6.78941	1.41392
