Adsorption isotherm of Carbon Dioxide on Zeolite FAU-I
DOI: 10.1016/S0169-4332(02)00052-1
Adsorbate Carbon Dioxide: InChIKey CURLTUGMZLYLDI-UHFFFAOYSA-N
Temperature: 298 K
Tabular data in the source: 0
pressure (bar)	uptake (mmol/g)
0.000175225	0.273419
0.00028979	0.417621
0.000391901	0.60115
0.000509085	0.78468
0.00080872	1.08619
0.00188303	1.36149
0.00429711	1.61056
0.0122357	2.05628
0.0242534	2.38401
0.0576198	2.98703
0.15138	3.64249
0.405791	4.29796
1.04486	4.91409
