Adsorption isotherm of Nitrous oxide on Zeolite FAU-I
DOI: 10.1016/S0169-4332(02)00052-1
Adsorbate Nitrous oxide: InChIKey GQPLMRYTRLFLPF-UHFFFAOYSA-N
Temperature: 298 K
Tabular data in the source: 0
pressure (bar)	uptake (mmol/g)
0.059588	0.102999
0.059588	1.0993
0.059588	1.70233
0.0683056	0.470058
0.0683056	1.32216
0.103176	2.14804
0.120612	2.79039
0.138047	3.02636
0.251376	3.87846
0.329835	4.2193
0.661106	4.74367
1.22775	5.25493
