Adsorption isotherm of Oxygen on Zeolite Li-LSX
DOI: 10.1016/S0169-4332(02)00052-1
Adsorbate Oxygen: InChIKey MYMOFIZGZYHOMD-UHFFFAOYSA-N
Temperature: 298 K
Tabular data in the source: 0
pressure (bar)	uptake (mmol/g)
0.0717634	0.0120831
0.296846	0.0495969
0.651521	0.100752
0.753832	0.148497
1.01984	0.203062
2.00202	0.359938
3.99366	0.663458
