Adsorption isotherm of Oxygen on Zeolite FAU-I
DOI: 10.1016/S0169-4332(02)00052-1
Adsorbate Oxygen: InChIKey MYMOFIZGZYHOMD-UHFFFAOYSA-N
Temperature: 298 K
Tabular data in the source: 0
pressure (bar)	uptake (mmol/g)
0.521623	0.0505621
1.75081	0.155436
3.38101	0.26031
