Adsorption isotherm of Nitrogen on Zeolite Li-LSX
DOI: 10.1016/S0169-4332(02)00052-1
Adsorbate Nitrogen: InChIKey IJGRMHOSHXDMSA-UHFFFAOYSA-N
Temperature: 298 K
Tabular data in the source: 0
pressure (bar)	uptake (mmol/g)
0.0513013	0.0973416
0.324129	0.564558
0.658342	0.960158
0.972093	1.2705
1.9952	1.89459
4.00048	2.51186
