Adsorption isotherm of Nitrogen on Zeolite Li-LSX
DOI: 10.1016/S0169-4332(02)00052-1
Adsorbate Nitrogen: InChIKey IJGRMHOSHXDMSA-UHFFFAOYSA-N
Temperature: 298 K
Tabular data in the source: 0
pressure (bar)	uptake (mmol/g)
0.0649427	0.203062
0.0922254	0.28491
0.160432	0.424734
0.23546	0.58161
0.296846	0.731665
0.405977	0.87831
0.528749	1.02495
0.617418	1.16137
0.753832	1.31483
0.903887	1.48535
1.12897	1.65587
1.36087	1.81956
2.80686	2.23563
