Adsorption isotherm of Nitrogen on Zeolite Li-LSX
DOI: 10.1016/S0169-4332(02)00052-1
Adsorbate Nitrogen: InChIKey IJGRMHOSHXDMSA-UHFFFAOYSA-N
Temperature: 298 K
Tabular data in the source: 0
pressure (bar)	uptake (mmol/g)
0.058122	0.121214
0.317308	0.595251
0.665163	1.08975
0.999376	1.37622
1.98155	1.97644
3.99366	2.62099
