Adsorption isotherm of Nitrous oxide on Zeolite FAU-I
DOI: 10.1016/S0169-4332(02)00052-1
Adsorbate Nitrous oxide: InChIKey GQPLMRYTRLFLPF-UHFFFAOYSA-N
Temperature: 298 K
Tabular data in the source: 0
pressure (bar)	uptake (mmol/g)
0.000347328	0.102999
0.000498942	0.155436
0.000841933	0.207873
0.00192131	0.417621
0.00330798	0.706024
0.00525498	1.00754
0.0122357	1.70233
0.0210667	2.13493
0.0471169	2.81661
0.0795066	3.06569
0.170806	3.89157
0.245366	4.23241
0.516626	4.70434
1.13244	5.28115
