Adsorption isotherm of Oxygen on Zeolite Li-LSX
DOI: 10.1016/S0169-4332(02)00052-1
Adsorbate Oxygen: InChIKey MYMOFIZGZYHOMD-UHFFFAOYSA-N
Temperature: 298 K
Tabular data in the source: 0
pressure (bar)	uptake (mmol/g)
0.058122	0.0154935
0.317308	0.0734693
0.63788	0.124624
0.999376	0.175779
1.9952	0.301962
4.00048	0.58161
