Adsorption isotherm of Oxygen on Zeolite FAU-I
DOI: 10.1016/S0169-4332(02)00052-1
Adsorbate Oxygen: InChIKey MYMOFIZGZYHOMD-UHFFFAOYSA-N
Temperature: 298 K
Tabular data in the source: 0
pressure (bar)	uptake (mmol/g)
0.422456	0.0243436
1.53147	0.142327
3.16032	0.26031
6.65415	0.627369
