Adsorption isotherm of Nitrogen on Zeolite FAU-I
DOI: 10.1016/S0169-4332(02)00052-1
Adsorbate Nitrogen: InChIKey IJGRMHOSHXDMSA-UHFFFAOYSA-N
Temperature: 298 K
Tabular data in the source: 0
pressure (bar)	uptake (mmol/g)
0.260094	0.0636713
0.521623	0.181654
1.50672	0.325856
2.11695	0.43073
3.23281	0.666696
