Adsorption isotherm of Oxygen on Zeolite FAU-I
DOI: 10.1016/S0169-4332(02)00052-1
Adsorbate Oxygen: InChIKey MYMOFIZGZYHOMD-UHFFFAOYSA-N
Temperature: 298 K
Tabular data in the source: 0
pressure (bar)	uptake (mmol/g)
0.0421527	0.247201
0.0508703	0.78468
0.059588	0.574932
0.059588	1.13863
0.0770233	1.41392
0.0770233	1.663
0.0770233	2.05628
0.103176	2.42334
0.111894	3.03947
0.216506	3.6556
0.478035	4.28485
1.10571	4.90098
