Adsorption isotherm of Oxygen on Zeolite Li-LSX
DOI: 10.1016/S0169-4332(02)00052-1
Adsorbate Oxygen: InChIKey MYMOFIZGZYHOMD-UHFFFAOYSA-N
Temperature: 298 K
Tabular data in the source: 0
pressure (bar)	uptake (mmol/g)
0.0717634	0.0223141
0.774294	0.134855
1.40862	0.226935
3.46164	0.492941
