Adsorption isotherm of Phenol, Water on Spherical Activated Carbon
DOI: 10.1007/s13201-016-0381-8
Article source: Figure 5
Adsorbate Phenol: InChIKey ISWSIDIOOBJBQZ-UHFFFAOYSA-N
Adsorbate Water: InChIKey XLYOFNOQVPJJNP-UHFFFAOYSA-N
Kind: experiment
Temperature: 298 K
Tabular data in the source: 0
pressure (bar)	Phenol fraction	Phenol uptake (mg/g)	Water fraction	Water uptake (mg/g)	total uptake (mg/g)
1.01325	0.66	0.77			
1.01325	2.724	47.09			
1.01325	7.93	89.98			
1.01325	50.284	150.9			
1.01325	120.26	181.38			
1.01325	201.888	198.17			
1.01325	382.843	216.86			
1.01325	384.137	213.13			
