Adsorption isotherm of 4-Chlorophenol on Spherical Activated Carbon
DOI: 10.1007/s13201-016-0381-8
Article source: Figure 5
Adsorbate 4-Chlorophenol: InChIKey WXNZTHHGJRFXKQ-UHFFFAOYSA-N
Kind: experiment
Temperature: 298 K
Tabular data in the source: 0
pressure (bar)	uptake (mg/g)
1.01325	49.57
1.01325	99.3
1.01325	0.54
1.01325	183.84
1.01325	224.26
1.01325	257.53
1.01325	281.47
1.01325	273.1
