Adsorption isotherm of 1-Propanol on Zeolite DAY 13
DOI: 10.1021/je00020a035
Article source: Table 1
Adsorbate 1-Propanol: InChIKey BDERNNFJNOPAEC-UHFFFAOYSA-N
Kind: experiment
Temperature: 298 K
Tabular data in the source: 0
pressure (bar)	uptake (mmol/g)
0.000241	1.1809
0.000953	1.8648
0.00214	2.181
0.002843	2.2503
0.003561	2.3545
0.005778	2.4859
0.009203	2.6113
0.020754	2.9144
