Adsorption isotherm of 1-Propanol, Toluene on Zeolite DAY 13
DOI: 10.1021/je00020a035
Article source: Table 3
Adsorbate 1-Propanol: InChIKey BDERNNFJNOPAEC-UHFFFAOYSA-N
Adsorbate Toluene: InChIKey YXFVVABEGXRONW-UHFFFAOYSA-N
Kind: experiment
Temperature: 298 K
Tabular data in the source: 0
pressure (bar)	1-Propanol fraction	1-Propanol uptake (mmol/g)	Toluene fraction	Toluene uptake (mmol/g)	total uptake (mmol/g)
0.003553	0.8549	1.76336	0.1451	0.670539	2.4339
0.003573	0.8266	1.71945	0.1734	0.734452	2.4539
0.003582	0.7175	1.57535	0.2825	0.855747	2.4311
0.003648	0.487	1.25767	0.513	1.10193	2.3596
0.003692	0.3388	1.04813	0.6612	1.29667	2.3448
0.003746	0.1589	0.70495	0.8411	1.56835	2.2733
0.01058	0.8307	1.88147	0.1693	0.694828	2.5763
0.010566	0.7168	1.69811	0.2832	0.84359	2.5417
0.010594	0.5635	1.52653	0.4365	0.979267	2.5058
0.010647	0.4237	1.36825	0.5763	1.10285	2.4711
0.010548	0.2828	1.12305	0.7172	1.31625	2.4393
0.010618	0.1695	0.883473	0.8305	1.47183	2.3553
