Adsorption isotherm of Toluene on Zeolite DAY 100
DOI: 10.1021/je00020a035
Article source: Table 1
Adsorbate Toluene: InChIKey YXFVVABEGXRONW-UHFFFAOYSA-N
Kind: experiment
Temperature: 298 K
Tabular data in the source: 0
pressure (bar)	uptake (mmol/g)
0.000227	1.507
0.000324	1.633
0.001099	1.978
0.003533	2.0762
0.005164	2.11
0.009583	2.125
0.009622	2.1567
0.021005	2.1668
