Adsorption isotherm of 1-Propanol, Toluene on Zeolite DAY 100
DOI: 10.1021/je00020a035
Article source: Table 3
Adsorbate 1-Propanol: InChIKey BDERNNFJNOPAEC-UHFFFAOYSA-N
Adsorbate Toluene: InChIKey YXFVVABEGXRONW-UHFFFAOYSA-N
Kind: experiment
Temperature: 318 K
Tabular data in the source: 0
pressure (bar)	1-Propanol fraction	1-Propanol uptake (mmol/g)	Toluene fraction	Toluene uptake (mmol/g)	total uptake (mmol/g)
0.003669	0.8007	0.845618	0.1993	0.933882	1.7795
0.003681	0.6875	0.673969	0.3125	1.07933	1.7533
0.003667	0.5572	0.538627	0.4428	1.22447	1.7631
0.003664	0.4063	0.449495	0.5937	1.3036	1.7531
0.003715	0.2409	0.305003	0.7591	1.4339	1.7389
0.003731	0.1634	0.189593	0.8366	1.55781	1.7474
0.010458	0.8463	1.24723	0.1537	0.886974	2.1342
0.010458	0.8242	1.15536	0.1758	0.944535	2.0999
0.010478	0.6842	0.850356	0.3158	1.12354	1.9739
0.01045	0.5493	0.649707	0.4507	1.36239	2.0121
0.010486	0.4373	0.597093	0.5627	1.35611	1.9532
0.010483	0.2965	0.402583	0.7035	1.49282	1.8954
0.010512	0.1699	0.258869	0.8301	1.62793	1.8868
