Adsorption isotherm of 1-Propanol on Zeolite DAY 55
DOI: 10.1021/je00020a035
Article source: Table 1
Adsorbate 1-Propanol: InChIKey BDERNNFJNOPAEC-UHFFFAOYSA-N
Kind: experiment
Temperature: 298 K
Tabular data in the source: 0
pressure (bar)	uptake (mmol/g)
0.000328	0.5923
0.000936	1.2285
0.001984	2.0299
0.002766	2.2752
0.004652	2.4736
0.006745	2.5973
0.010026	2.7645
0.020624	3.128
