Adsorption isotherm of 1-Propanol, Toluene on Zeolite DAY 55
DOI: 10.1021/je00020a035
Article source: Table 3
Adsorbate 1-Propanol: InChIKey BDERNNFJNOPAEC-UHFFFAOYSA-N
Adsorbate Toluene: InChIKey YXFVVABEGXRONW-UHFFFAOYSA-N
Kind: experiment
Temperature: 298 K
Tabular data in the source: 0
pressure (bar)	1-Propanol fraction	1-Propanol uptake (mmol/g)	Toluene fraction	Toluene uptake (mmol/g)	total uptake (mmol/g)
0.003535	0.8644	1.52326	0.1356	0.723437	2.2467
0.003452	0.7632	1.23286	0.2368	1.00464	2.2375
0.003602	0.5194	0.828362	0.4806	1.35614	2.1845
0.003616	0.3575	0.604775	0.6425	1.51353	2.1183
0.003569	0.2697	0.512389	0.7303	1.54871	2.0611
0.003561	0.1625	0.365938	0.8375	1.69336	2.0593
0.010458	0.8415	1.86101	0.1585	0.704486	2.5655
0.010427	0.7021	1.26766	0.2979	1.05704	2.3247
0.010424	0.5412	1.02874	0.4588	1.29086	2.3196
0.010424	0.4039	0.73501	0.5961	1.51479	2.2498
0.010411	0.2656	0.579112	0.7344	1.61699	2.1961
0.010404	0.1625	0.315384	0.8375	1.74192	2.0573
