Adsorption isotherm of 1-Propanol, Toluene on Zeolite DAY 55
DOI: 10.1021/je00020a035
Article source: Table 3
Adsorbate 1-Propanol: InChIKey BDERNNFJNOPAEC-UHFFFAOYSA-N
Adsorbate Toluene: InChIKey YXFVVABEGXRONW-UHFFFAOYSA-N
Kind: experiment
Temperature: 318 K
Tabular data in the source: 0
pressure (bar)	1-Propanol fraction	1-Propanol uptake (mmol/g)	Toluene fraction	Toluene uptake (mmol/g)	total uptake (mmol/g)
0.003633	0.8338	0.875511	0.1662	0.818589	1.6941
0.003645	0.6956	0.73378	0.3044	1.02842	1.7622
0.00366	0.5415	0.542262	0.4585	1.18634	1.7286
0.003674	0.3928	0.385671	0.6072	1.24853	1.6342
0.00369	0.2459	0.298713	0.7541	1.29019	1.5889
0.003702	0.1465	0.188865	0.8535	1.42123	1.6101
0.010424	0.8406	1.0722	0.1594	1.0033	2.0755
0.010457	0.6941	0.836618	0.3059	1.14918	1.9858
0.010486	0.5867	0.749588	0.4133	1.19891	1.9485
0.010545	0.4049	0.562836	0.5951	1.29716	1.86
0.010576	0.2479	0.398794	0.7521	1.40001	1.7988
0.010591	0.1448	0.319898	0.8552	1.4583	1.7782
