Adsorption isotherm of Toluene on Zeolite DAY 13
DOI: 10.1021/je00020a035
Article source: Table 1
Adsorbate Toluene: InChIKey YXFVVABEGXRONW-UHFFFAOYSA-N
Kind: experiment
Temperature: 298 K
Tabular data in the source: 0
pressure (bar)	uptake (mmol/g)
0.000452	1.8315
0.001075	2.0218
0.001691	2.0786
0.002391	2.1203
0.003031	2.1396
0.00527	2.1782
0.011032	2.2142
0.020885	2.2384
