Adsorption isotherm of 1-Propanol, Toluene on Zeolite DAY 100
DOI: 10.1021/je00020a035
Article source: Table 3
Adsorbate 1-Propanol: InChIKey BDERNNFJNOPAEC-UHFFFAOYSA-N
Adsorbate Toluene: InChIKey YXFVVABEGXRONW-UHFFFAOYSA-N
Kind: experiment
Temperature: 298 K
Tabular data in the source: 0
pressure (bar)	1-Propanol fraction	1-Propanol uptake (mmol/g)	Toluene fraction	Toluene uptake (mmol/g)	total uptake (mmol/g)
0.003547	0.8574	1.3576	0.1426	1.0815	2.4391
0.0036	0.7083	1.10638	0.2917	1.26732	2.3737
0.003651	0.4736	0.730248	0.5264	1.62615	2.3564
0.0037	0.3118	0.513407	0.6882	1.75029	2.2637
0.003735	0.2021	0.399175	0.7979	1.85732	2.2565
0.003631	0.1141	0.236759	0.8859	1.93734	2.1741
0.010463	0.8591	1.68225	0.1409	0.985448	2.6677
0.010469	0.6883	1.24936	0.3117	1.21924	2.4686
0.010484	0.5516	1.06707	0.4484	1.46573	2.5328
0.010486	0.4334	0.735348	0.5666	1.57925	2.3146
0.010499	0.2941	0.634099	0.7059	1.6776	2.3117
0.010505	0.1692	0.427066	0.8308	1.83733	2.2644
