Adsorption isotherm of 1-Propanol on Zeolite DAY 100
DOI: 10.1021/je00020a035
Article source: Table 1
Adsorbate 1-Propanol: InChIKey BDERNNFJNOPAEC-UHFFFAOYSA-N
Kind: experiment
Temperature: 318 K
Tabular data in the source: 0
pressure (bar)	uptake (mmol/g)
0.000584	0.2965
0.001165	0.4891
0.002498	1.0605
0.00381	1.478
0.006995	2.1241
0.010196	2.2748
0.020883	2.5998
