Adsorption isotherm of 1-Propanol, Toluene on Zeolite DAY 13
DOI: 10.1021/je00020a035
Article source: Table 3
Adsorbate 1-Propanol: InChIKey BDERNNFJNOPAEC-UHFFFAOYSA-N
Adsorbate Toluene: InChIKey YXFVVABEGXRONW-UHFFFAOYSA-N
Kind: experiment
Temperature: 318 K
Tabular data in the source: 0
pressure (bar)	1-Propanol fraction	1-Propanol uptake (mmol/g)	Toluene fraction	Toluene uptake (mmol/g)	total uptake (mmol/g)
0.003602	0.8559	1.51095	0.1441	0.534746	2.0457
0.003641	0.6894	1.32819	0.3106	0.693409	2.0216
0.003696	0.4846	1.11209	0.5154	0.856909	1.969
0.003741	0.2893	0.892676	0.7107	1.02912	1.9218
0.003797	0.1713	0.640412	0.8287	1.20569	1.8461
0.003801	0.1089	0.525359	0.8911	1.27074	1.7961
0.010576	0.8307	1.69485	0.1693	0.565251	2.2601
0.010586	0.7127	1.51276	0.2873	0.683144	2.1959
0.010593	0.5642	1.38731	0.4358	0.791594	2.1789
0.010631	0.4403	1.18245	0.5597	0.944255	2.1267
0.010614	0.291	0.991574	0.709	1.12763	2.1192
0.010604	0.154	0.686607	0.846	1.33699	2.0236
