Adsorption isotherm of Toluene on Zeolite DAY 100
DOI: 10.1021/je00020a035
Article source: Table 1
Adsorbate Toluene: InChIKey YXFVVABEGXRONW-UHFFFAOYSA-N
Kind: experiment
Temperature: 318 K
Tabular data in the source: 0
pressure (bar)	uptake (mmol/g)
0.0004	0.8345
0.000969	1.3692
0.001785	1.5396
0.001924	1.5369
0.002206	1.5812
0.004011	1.6221
0.00625	1.6519
0.015464	1.7531
0.021077	1.8222
0.029954	1.8595
