Adsorption isotherm of 1-Propanol on Zeolite DAY 13
DOI: 10.1021/je00020a035
Article source: Table 1
Adsorbate 1-Propanol: InChIKey BDERNNFJNOPAEC-UHFFFAOYSA-N
Kind: experiment
Temperature: 318 K
Tabular data in the source: 0
pressure (bar)	uptake (mmol/g)
0.000607	1.0026
0.001153	1.3419
0.002475	1.7521
0.003823	1.9688
0.005567	2.0436
0.010265	2.3164
0.020753	2.5044
