Adsorption isotherm of 1-Propanol on Zeolite DAY 55
DOI: 10.1021/je00020a035
Article source: Table 1
Adsorbate 1-Propanol: InChIKey BDERNNFJNOPAEC-UHFFFAOYSA-N
Kind: experiment
Temperature: 318 K
Tabular data in the source: 0
pressure (bar)	uptake (mmol/g)
0.000756	0.2318
0.001126	0.493
0.002513	0.8875
0.002992	1.0807
0.003822	1.4163
0.006021	1.8779
0.010311	2.3522
0.021908	2.6032
