Adsorption isotherm of Toluene on Zeolite DAY 55
DOI: 10.1021/je00020a035
Article source: Table 1
Adsorbate Toluene: InChIKey YXFVVABEGXRONW-UHFFFAOYSA-N
Kind: experiment
Temperature: 298 K
Tabular data in the source: 0
pressure (bar)	uptake (mmol/g)
0.000487	1.4847
0.00081	1.7692
0.001025	1.7938
0.002351	1.873
0.00383	1.8968
0.004025	1.9074
0.005627	1.9617
0.010414	2.0218
0.020771	2.0274
