Adsorption isotherm of 1-Propanol on Zeolite DAY 100
DOI: 10.1021/je00020a035
Article source: Table 1
Adsorbate 1-Propanol: InChIKey BDERNNFJNOPAEC-UHFFFAOYSA-N
Kind: experiment
Temperature: 298 K
Tabular data in the source: 0
pressure (bar)	uptake (mmol/g)
0.000261	0.5281
0.00095	1.4752
0.002144	2.0776
0.002934	2.3183
0.003539	2.4939
0.005366	2.7115
0.009231	2.9488
0.009944	2.9648
0.020882	3.1046
