Adsorption isotherm of Toluene on Zeolite DAY 55
DOI: 10.1021/je00020a035
Article source: Table 1
Adsorbate Toluene: InChIKey YXFVVABEGXRONW-UHFFFAOYSA-N
Kind: experiment
Temperature: 318 K
Tabular data in the source: 0
pressure (bar)	uptake (mmol/g)
0.000459	0.929
0.000986	1.2365
0.002564	1.4195
0.003093	1.4567
0.003849	1.5094
0.005996	1.6165
0.010437	1.7002
0.020876	1.7676
