Adsorption isotherm of Toluene on Zeolite DAY 13
DOI: 10.1021/je00020a035
Article source: Table 1
Adsorbate Toluene: InChIKey YXFVVABEGXRONW-UHFFFAOYSA-N
Kind: experiment
Temperature: 318 K
Tabular data in the source: 0
pressure (bar)	uptake (mmol/g)
0.000457	1.0321
0.000867	1.2131
0.00193	1.5169
0.003329	1.5848
0.005623	1.7011
0.010526	1.7416
0.020994	1.8714
