Adsorption isotherm of Hydrogen on Fe-MOF-74
DOI: 10.1039/c4ta05794e
Article source: Table 5
Adsorbate Hydrogen: InChIKey UFHFLCQGNIYNRP-UHFFFAOYSA-N
Kind: experiment
Temperature: 77 K
Tabular data in the source: 1
pressure (bar)	uptake (molecules/formula unit)
1e-06	0.000534
1.8e-05	0.01518
3.8e-05	0.010818
5.8e-05	0.024644
8.3e-05	0.029316
0.000183	0.066089
0.00028	0.089052
0.000392	0.116558
0.000485	0.14403
0.0007	0.194387
0.000949	0.249296
0.001287	0.299637
0.001694	0.354537
0.002163	0.409428
0.002847	0.464328
0.003746	0.510092
0.004782	0.560415
0.006487	0.610755
0.008799	0.656526
0.011934	0.693161
0.016184	0.725227
0.020652	0.752707
0.028005	0.780205
0.031635	0.793945
0.036839	0.807694
0.042902	0.826011
0.051514	0.853474
0.059988	0.867223
0.074253	0.894694
0.089152	0.917589
0.103832	0.940475
0.164002	0.995427
0.209368	1.05032
0.275607	1.11892
0.321063	1.15552
0.36271	1.17382
0.385576	1.19212
0.422571	1.21498
0.507551	1.26072
0.556288	1.28816
0.648201	1.33846
0.710559	1.37503
0.827752	1.41162
0.907256	1.43906
0.994535	1.47563
