Adsorption isotherm of Hydrogen on Cu-MOF-74
DOI: 10.1039/c4ta05794e
Article source: Table S1
Adsorbate Hydrogen: InChIKey UFHFLCQGNIYNRP-UHFFFAOYSA-N
Kind: experiment
Temperature: 77 K
Tabular data in the source: 1
pressure (bar)	uptake (cm3(STP)/g)
1e-06	0.000986
0.000405	0.4065
0.00088	0.8944
0.001702	1.7313
0.002695	2.7123
0.003774	3.7499
0.004816	4.7269
0.005846	5.6791
0.006864	6.6018
0.007885	7.5134
0.008911	8.4167
0.009935	9.3046
0.010941	10.171
0.014207	12.855
0.015607	13.912
0.019052	16.639
0.020619	17.78
0.025815	21.703
0.030732	25.223
0.034416	27.744
0.035954	28.594
0.040872	31.821
0.045904	34.826
0.051028	37.822
0.057624	41.49
0.060158	42.894
0.06738	46.62
0.070257	47.894
0.077881	51.473
0.080486	52.602
0.087775	55.928
0.090455	57.083
0.098034	60.153
0.098289	60.075
0.10074	61.349
0.10619	63.089
0.12548	69.949
0.13632	73.7
0.15149	78.085
0.18878	87.778
0.19867	90.031
0.20181	90.591
0.20295	90.959
0.22024	94.655
0.24028	98.525
0.24986	100.37
0.29092	107.29
0.29808	108.53
0.30025	108.72
0.3172	111.39
0.3418	114.71
0.35055	115.85
0.39249	121.07
0.39774	121.88
0.40081	122.08
0.41563	123.92
0.4431	126.68
0.45116	127.49
0.49379	131.7
0.49998	132.48
0.50148	132.44
0.51426	133.92
0.58574	139.6
0.59953	141.07
0.60031	140.8
0.61324	142.01
0.68653	147
0.69918	148.13
0.70068	147.89
0.71243	148.99
0.78757	153.29
0.79883	154.29
0.801	154.12
0.8117	155.02
0.8883	158.85
0.89858	159.65
0.90126	159.56
0.91106	160.25
0.98894	163.8
0.99709	164.22
1.0015	164.41
