Adsorption isotherm of Hydrogen on MOF-74-Co
DOI: 10.1039/c4ta05794e
Article source: Table 5
Adsorbate Hydrogen: InChIKey UFHFLCQGNIYNRP-UHFFFAOYSA-N
Kind: experiment
Temperature: 77 K
Tabular data in the source: 1
pressure (bar)	uptake (molecules/formula unit)
0	0.004715
6e-06	0.014869
1.4e-05	0.024248
2.1e-05	0.042634
2.8e-05	0.051849
3.7e-05	0.065632
4.1e-05	0.079372
5.4e-05	0.093155
5.9e-05	0.102318
7.6e-05	0.12523
0.000135	0.198491
0.000173	0.239676
0.000249	0.317445
0.000273	0.326608
0.000382	0.3998
0.000473	0.454683
0.000568	0.504989
0.000704	0.546166
0.000845	0.582766
0.000985	0.623926
0.001464	0.706272
0.002047	0.756621
0.002459	0.788652
0.003043	0.811555
0.00577	0.875696
0.006719	0.889445
0.008065	0.903202
0.00998	0.9124
0.024127	0.958335
0.026436	0.967498
0.031735	0.981256
0.04436	1.00419
0.0566	1.0271
0.074454	1.05459
0.097947	1.08665
0.110652	1.10496
0.209937	1.21022
0.302887	1.30626
0.411055	1.37944
0.50912	1.44346
0.63058	1.50748
0.757391	1.55322
0.805137	1.57151
0.909788	1.60353
0.967498	1.64466
