Adsorption isotherm of Hydrogen on Mn-MOF-74
DOI: 10.1039/c4ta05794e
Article source: Table S3
Adsorbate Hydrogen: InChIKey UFHFLCQGNIYNRP-UHFFFAOYSA-N
Kind: experiment
Temperature: 87 K
Tabular data in the source: 1
pressure (bar)	uptake (cm3(STP)/g)
3e-06	0.008214
3.5e-05	0.093675
0.000205	0.5375
0.000373	0.974
0.00053	1.3843
0.000687	1.8088
0.000865	2.2929
0.001024	2.7162
0.001606	4.2836
0.002026	5.3879
0.003421	8.9108
0.004645	11.847
0.005962	14.848
0.007252	17.646
0.008514	20.284
0.009673	22.596
0.010734	24.659
0.014725	31.673
0.015417	32.794
0.018797	38.198
0.022096	42.788
0.025557	47.349
0.030932	53.608
0.04042	62.786
0.063997	79.323
0.0879	90.753
0.097225	95.876
0.11026	98.75
0.11119	100.54
0.13933	108.15
0.15252	109.78
0.19943	119.9
0.21035	120.33
0.21682	122.53
0.26609	127.94
0.29631	132.54
0.31125	134.09
0.31247	133.2
0.37249	138.98
0.3946	141.84
0.40739	142.9
0.41158	142.39
0.46444	146.58
0.49302	149.34
0.50512	150.15
0.51721	150.39
0.59226	155.76
0.61759	156.79
0.69031	161.4
0.71609	162.4
0.79948	167.01
0.82192	167.8
0.88797	171.18
0.91835	172.32
0.98761	175.44
1.0234	176.84
