Adsorption isotherm of Hydrogen on Mg-MOF-74
DOI: 10.1039/c4ta05794e
Article source: Table 5
Adsorbate Hydrogen: InChIKey UFHFLCQGNIYNRP-UHFFFAOYSA-N
Kind: experiment
Temperature: 77 K
Tabular data in the source: 1
pressure (bar)	uptake (molecules/formula unit)
0	0.000371
1.3e-05	0.019662
2.1e-05	0.02436
2.9e-05	0.029015
4.1e-05	0.033687
5.3e-05	0.047461
6.5e-05	0.05209
8.1e-05	0.065856
0.000167	0.120886
0.000272	0.180415
0.000381	0.217058
0.000501	0.267389
0.000566	0.294835
0.00068	0.331435
0.000768	0.354313
0.000923	0.390913
0.001011	0.409213
0.001291	0.482379
0.001551	0.51441
0.00198	0.569302
0.002527	0.615056
0.003535	0.674542
0.004943	0.724891
0.008049	0.78442
0.010588	0.811909
0.02007	0.862344
0.026399	0.885264
0.029819	0.894436
0.05482	0.935725
0.061921	0.944897
0.09486	0.990703
0.107147	0.999875
0.124773	1.01362
0.174478	1.0594
0.236706	1.11431
0.293022	1.14635
0.341358	1.18294
0.397695	1.2241
0.477672	1.26984
0.539747	1.30186
0.648291	1.34759
0.732774	1.39788
0.907403	1.4482
0.964606	1.46649
0.994764	1.48934
