Adsorption isotherm of Hydrogen on Cu-MOF-74
DOI: 10.1039/c4ta05794e
Article source: Table S2
Adsorbate Hydrogen: InChIKey UFHFLCQGNIYNRP-UHFFFAOYSA-N
Kind: experiment
Temperature: 87 K
Tabular data in the source: 1
pressure (bar)	uptake (cm3(STP)/g)
2e-06	0.000612
0.000588	0.1929
0.001848	0.6299
0.003143	1.0713
0.004715	1.5973
0.006266	2.1086
0.007747	2.5927
0.009282	3.0924
0.010766	3.5694
0.01544	5.1593
0.020502	6.6169
0.025546	8.0544
0.030726	9.6413
0.035794	10.972
0.040594	12.512
0.045636	13.879
0.050685	15.22
0.061362	18.213
0.069863	20.255
0.071329	20.66
0.0799	22.694
0.081332	23.009
0.089934	25.068
0.098713	26.791
0.099991	27.432
0.11297	29.978
0.14342	36.752
0.15054	38.156
0.19433	46.158
0.19768	46.414
0.20076	47.269
0.2101	48.414
0.24567	54.46
0.25177	55.252
0.29666	61.713
0.29861	61.693
0.30196	62.613
0.30828	62.959
0.34685	68.188
0.35208	68.995
0.39733	74.27
0.39823	73.766
0.40217	74.648
0.40685	74.779
0.44781	79.474
0.45235	80.026
0.4979	83.935
0.49801	84.38
0.50243	84.791
0.50575	84.679
0.59409	92.509
0.59762	92.563
0.60229	93.162
0.60473	93.12
0.69506	100.08
0.69737	99.877
0.70247	100.58
0.70401	100.36
0.79606	106.5
0.79705	106.44
0.80276	107.04
0.80331	106.83
0.8965	112.42
0.89699	112.29
0.90274	112.63
0.90292	112.64
0.99718	117.5
