Adsorption isotherm of Hydrogen on MOF-74-Ni
DOI: 10.1039/c4ta05794e
Article source: Table 5
Adsorbate Hydrogen: InChIKey UFHFLCQGNIYNRP-UHFFFAOYSA-N
Kind: experiment
Temperature: 77 K
Tabular data in the source: 1
pressure (bar)	uptake (molecules/formula unit)
0	0.004586
0	0.004853
0	0.004991
1e-06	0.005094
1e-06	0.009827
2e-06	0.014524
2e-06	0.019145
3e-06	0.028342
4e-06	0.032988
4e-06	0.037617
5e-06	0.046815
7e-06	0.056012
8e-06	0.060615
9e-06	0.074372
1.1e-05	0.08813
1.3e-05	0.101887
1.5e-05	0.111059
1.6e-05	0.120213
1.9e-05	0.143108
2.2e-05	0.161425
2.5e-05	0.175174
3.1e-05	0.188931
3.4e-05	0.216377
3.9e-05	0.230117
4.3e-05	0.248417
4.5e-05	0.266708
4.8e-05	0.280431
5.3e-05	0.294163
5.8e-05	0.307894
6.5e-05	0.33534
7e-05	0.362769
8.9e-05	0.403955
0.0001	0.445106
0.000117	0.481698
0.000136	0.51372
0.000163	0.545752
0.000174	0.564044
0.000215	0.600652
0.000258	0.641821
0.000283	0.650984
0.000361	0.69217
0.000396	0.705901
0.00049	0.737941
0.000607	0.760845
0.000707	0.78373
0.000823	0.797479
0.000902	0.811211
0.000988	0.815805
0.002051	0.866266
0.00413	0.893876
0.006135	0.907693
0.008574	0.921494
0.011982	0.930726
0.020101	0.953715
0.033725	0.981273
0.043025	0.995047
0.051657	1.01794
0.062017	1.03627
0.067951	1.04543
0.076765	1.06374
0.086715	1.07748
0.095035	1.10035
0.104121	1.10494
0.154789	1.17358
0.21002	1.23306
0.223311	1.26506
0.25229	1.28793
0.303054	1.33824
0.332101	1.35654
0.364024	1.38855
0.411339	1.42056
0.464836	1.45714
0.509507	1.48915
0.612111	1.54859
0.691879	1.59888
0.806139	1.64461
0.910836	1.67205
1.02937	1.71321
