Adsorption isotherm of Hydrogen on Mn-MOF-74
DOI: 10.1039/c4ta05794e
Article source: Table 5
Adsorbate Hydrogen: InChIKey UFHFLCQGNIYNRP-UHFFFAOYSA-N
Kind: experiment
Temperature: 77 K
Tabular data in the source: 1
pressure (bar)	uptake (molecules/formula unit)
1e-06	0.000629
8e-06	0.005827
5.6e-05	0.006361
9.1e-05	0.006499
0.000135	0.015749
0.000272	0.025084
0.000429	0.038919
0.000531	0.052685
0.000677	0.061891
0.000864	0.075665
0.001006	0.080277
0.001449	0.11236
0.001966	0.144427
0.002586	0.176484
0.003508	0.226824
0.003729	0.245116
0.004343	0.268001
0.005058	0.290887
0.005716	0.322902
0.006264	0.341202
0.007077	0.364079
0.007996	0.391525
0.008764	0.418962
0.009605	0.44183
0.010526	0.460131
0.013034	0.510445
0.015182	0.542468
0.020602	0.611082
0.022576	0.624814
0.027116	0.670551
0.030635	0.693428
0.037929	0.734606
0.049913	0.784937
0.076505	0.862723
0.100677	0.913055
0.136575	0.963395
0.169079	1
0.209368	1.05032
0.275581	1.11436
0.341201	1.15553
0.373938	1.1784
0.435612	1.21499
0.507551	1.26072
0.556288	1.28816
0.668267	1.34303
0.732437	1.37047
0.853454	1.42077
0.935707	1.46648
0.994695	1.48477
