Adsorption isotherm of Hydrogen on Cu-MOF-74
DOI: 10.1039/c4ta05794e
Article source: Table 5
Adsorbate Hydrogen: InChIKey UFHFLCQGNIYNRP-UHFFFAOYSA-N
Kind: experiment
Temperature: 77 K
Tabular data in the source: 1
pressure (bar)	uptake (molecules/formula unit)
1e-06	0.009801
0.000917	0.011723
0.001634	0.016455
0.002502	0.021145
0.003949	0.039548
0.005037	0.044186
0.006425	0.048823
0.008711	0.062615
0.010143	0.071795
0.013342	0.094715
0.017024	0.117627
0.019825	0.135945
0.026081	0.168002
0.031312	0.186328
0.034316	0.209196
0.041204	0.236659
0.046556	0.264105
0.055906	0.296137
0.063162	0.319014
0.075858	0.360183
0.08064	0.378474
0.085724	0.396766
0.093949	0.419634
0.099871	0.437926
0.106174	0.460786
0.123697	0.501946
0.139775	0.53396
0.153207	0.565966
0.167923	0.593403
0.19565	0.639131
0.207998	0.661991
0.227961	0.68486
0.242326	0.703152
0.249908	0.726003
0.282345	0.74888
0.319066	0.785463
0.34976	0.822037
0.395212	0.854052
0.420165	0.876912
0.474876	0.922632
0.520607	0.963774
0.588261	0.995789
0.625489	1.02779
0.706627	1.04609
0.751346	1.07809
0.82355	1.1101
0.87581	1.15123
1.02012	1.17869
