Adsorption isotherm of Nitrogen on Cu-MOF-74
DOI: 10.1039/c4ta05794e
Article source: Table S1a
Adsorbate Nitrogen: InChIKey IJGRMHOSHXDMSA-UHFFFAOYSA-N
Kind: experiment
Temperature: 77 K
Tabular data in the source: 1
pressure (bar)	uptake (cm3(STP)/g)
0	0
0.002717	287.805
0.008152	315.447
0.01087	317.073
0.024456	320.325
0.05163	321.951
0.078804	323.577
0.105978	325.203
0.130435	325.203
0.154891	325.203
0.182065	325.203
0.195652	326.829
0.209239	326.829
0.236413	325.203
0.247283	326.829
0.263587	326.829
0.288043	326.829
0.298913	326.829
0.320652	326.829
0.336957	326.829
0.347826	326.829
0.375	328.455
0.399457	326.829
0.42663	326.829
0.44837	326.829
0.475543	326.829
0.497283	326.829
0.5	326.829
0.521739	328.455
0.527174	326.829
0.548913	328.455
0.55163	326.829
0.57337	326.829
0.576087	326.829
0.595109	326.829
0.600543	326.829
0.619565	328.455
0.625	326.829
0.646739	328.455
0.649457	326.829
0.671196	328.455
0.673913	326.829
0.695652	330.081
0.701087	325.203
0.720109	328.455
0.725543	325.203
0.747283	330.081
0.75	326.829
0.769022	330.081
0.777174	328.455
0.796196	328.455
0.80163	326.829
0.820652	330.081
0.826087	326.829
0.845109	330.081
0.850543	326.829
0.869565	328.455
0.875	328.455
0.894022	330.081
0.902174	328.455
0.918478	330.081
0.92663	328.455
0.94837	330.081
0.951087	328.455
0.975543	331.707
0.986413	334.959
