Adsorption isotherm of Hydrogen on Mn-MOF-74
DOI: 10.1039/c4ta05794e
Article source: Table S3
Adsorbate Hydrogen: InChIKey UFHFLCQGNIYNRP-UHFFFAOYSA-N
Kind: experiment
Temperature: 77 K
Tabular data in the source: 1
pressure (bar)	uptake (cm3(STP)/g)
1e-06	0.010501
9e-06	0.1079
5.2e-05	0.6214
9.5e-05	1.1119
0.00018	2.1022
0.000271	3.118
0.000406	4.6188
0.00049	5.5673
0.000619	7.0172
0.000708	7.9997
0.000799	8.9931
0.000893	10.027
0.00099	11.071
0.001517	16.447
0.002004	21.041
0.002518	25.463
0.003455	33.011
0.003979	36.64
0.004527	40.202
0.005092	43.592
0.00568	46.874
0.006285	50.003
0.006839	52.676
0.00746	55.473
0.008058	57.997
0.009222	62.816
0.009823	64.937
0.010425	66.939
0.013326	74.984
0.015199	79.817
0.019189	87.45
0.021754	91.463
0.026233	97.425
0.030549	102.03
0.037837	108.05
0.0494	115.41
0.075864	126.52
0.09895	134.88
0.1005	133.74
0.10783	137.14
0.13531	143.23
0.13686	142.04
0.16141	146.77
0.19504	153.88
0.20033	154.7
0.20782	154.44
0.21926	157.55
0.26958	163.08
0.29788	167.9
0.31523	169.95
0.32337	169.59
0.37451	175.19
0.39609	178.52
0.41209	180.07
0.42157	179.89
0.47377	184.68
0.49429	187.43
0.50927	188.69
0.53802	190.05
0.59274	195.12
0.60682	196.13
0.6225	196.4
0.69114	201.8
0.70519	202.68
0.72123	202.98
0.79419	207.93
0.8016	208.31
0.82583	209.12
0.88804	212.88
0.90392	213.58
0.91703	213.98
0.98572	217.44
1.0108	218.5
