Adsorption isotherm of Nitrogen on Mn-MOF-74
DOI: 10.1039/c4ta05794e
Article source: Table S1b
Adsorbate Nitrogen: InChIKey IJGRMHOSHXDMSA-UHFFFAOYSA-N
Kind: experiment
Temperature: 77 K
Tabular data in the source: 1
pressure (bar)	uptake (cm3(STP)/g)
0.005435	230.204
0.008152	297.143
0.01087	298.776
0.013587	302.041
0.021739	305.306
0.024456	306.939
0.038044	311.837
0.05163	313.469
0.059783	315.102
0.070652	316.735
0.078804	316.735
0.092391	320
0.103261	320
0.108696	320
0.111413	323.265
0.125	339.592
0.127717	333.061
0.138587	341.224
0.146739	349.388
0.154891	347.755
0.157609	351.02
0.195652	355.918
0.19837	357.551
0.206522	355.918
0.225543	359.184
0.290761	364.082
0.307065	368.98
0.391304	377.143
0.399457	378.776
0.410326	378.776
0.491848	382.041
0.505435	380.408
0.586957	385.306
0.605978	382.041
0.684783	386.939
0.706522	383.673
0.785326	388.571
0.804348	386.939
0.88587	391.837
0.902174	388.571
0.9375	396.735
0.945652	393.469
0.956522	396.735
0.961957	401.633
0.972826	403.265
0.983696	411.429
0.986413	409.796
0.997283	419.592
