Adsorption isotherm of Carbon Dioxide, Methane on [Cu(PF6)2(bpp)2]n PCP
DOI: 10.1002/cplu.201500278
Article source: Figure S22
Adsorbate Carbon Dioxide: InChIKey CURLTUGMZLYLDI-UHFFFAOYSA-N
Adsorbate Methane: InChIKey VNWKTOKETHGBQD-UHFFFAOYSA-N
Kind: experiment
Temperature: 283 K
Tabular data in the source: 0
pressure (bar)	Carbon Dioxide fraction	Carbon Dioxide uptake (mmol/g)	Methane fraction	Methane uptake (mmol/g)	total uptake (mmol/g)
4.24	0.4	1.26	0.6	0.01	1.27
4.37	0.4	1.29	0.6	0.01	1.3
4.52	0.4	1.32	0.6	0	1.32
4.67	0.4	1.34	0.6	0	1.34
4.83	0.4	1.36	0.6	0	1.36
