Adsorption isotherm of Carbon Dioxide on [Cu(PF6)2(bpp)2]n PCP
DOI: 10.1002/cplu.201500278
Article source: Figure 4
Adsorbate Carbon Dioxide: InChIKey CURLTUGMZLYLDI-UHFFFAOYSA-N
Kind: experiment
Temperature: 298 K
Tabular data in the source: 0
pressure (bar)	uptake (mmol/g)
0.345	0.112
0.686	0.235
1.02	0.362
1.33	0.51
1.63	0.677
1.95	0.842
2.26	1
2.56	1.16
2.88	1.29
3.22	1.41
3.89	1.61
4.56	1.76
5.25	1.87
5.95	1.97
6.65	2.05
7.36	2.11
8.08	2.17
8.79	2.22
9.29	2.25
