Adsorption isotherm of Methane on [Cu(PF6)2(bpp)2]n PCP
DOI: 10.1002/cplu.201500278
Article source: Figure 4
Adsorbate Methane: InChIKey VNWKTOKETHGBQD-UHFFFAOYSA-N
Kind: experiment
Temperature: 298 K
Tabular data in the source: 0
pressure (bar)	uptake (mmol/g)
0.384	0
0.759	0.00514
1.12	0.00508
1.49	0.0156
1.87	0.0137
2.24	0.0189
2.6	0.0259
2.96	0.0329
3.32	0.0416
4.04	0.0468
4.77	0.0554
5.5	0.0623
6.23	0.0692
6.95	0.0744
7.68	0.083
8.39	0.0935
9.12	0.104
