Adsorption isotherm of Carbon Dioxide, Methane on [Cu(PF6)2(bpp)2]n PCP
DOI: 10.1002/cplu.201500278
Article source: Figure 6
Adsorbate Carbon Dioxide: InChIKey CURLTUGMZLYLDI-UHFFFAOYSA-N
Adsorbate Methane: InChIKey VNWKTOKETHGBQD-UHFFFAOYSA-N
Kind: experiment
Temperature: 298 K
Tabular data in the source: 0
pressure (bar)	Carbon Dioxide fraction	Carbon Dioxide uptake (mmol/g)	Methane fraction	Methane uptake (mmol/g)	total uptake (mmol/g)
6.76	0.4	1.26	0.6	0.0228	
6.97	0.4	1.29	0.6	0.0228	
7.21	0.4	1.32	0.6	0.0229	
7.45	0.4	1.33	0.6	0.0321	
7.69	0.4	1.3	0.6	0.0659	
