Adsorption isotherm of Ethane, Methane on Activated carbon: Norit
DOI: 10.1021/la990785q
Article source: Figure 5b
Adsorbate Ethane: InChIKey OTMSDBZUPAUEDD-UHFFFAOYSA-N
Adsorbate Methane: InChIKey VNWKTOKETHGBQD-UHFFFAOYSA-N
Kind: experiment
Temperature: 333 K
Tabular data in the source: 0
pressure (bar)	Ethane fraction	Ethane uptake (mmol/g)	Methane fraction	Methane uptake (mmol/g)	total uptake (mmol/g)
0.5	0.8	1.86	0.2	0.118	
0.5	0.6	1.64	0.4	0.181	
0.5	0.2	0.901	0.8	0.301	
0.5	0.1	0.66	0.9	0.409	
