Adsorption isotherm of Methane on Activated carbon: Norit
DOI: 10.1021/la990785q
Article source: Figure 2a
Adsorbate Methane: InChIKey VNWKTOKETHGBQD-UHFFFAOYSA-N
Kind: experiment
Temperature: 303 K
Tabular data in the source: 0
pressure (bar)	uptake (mmol/g)
0.00934	0.0253
0.0261	0.0538
0.0683	0.124
0.143	0.238
0.211	0.326
0.406	0.557
0.601	0.751
0.804	0.922
1.01	1.08
