Adsorption isotherm of N-propane, Ethane on Activated carbon: Norit
DOI: 10.1021/la990785q
Article source: Figure 4a
Adsorbate N-propane: InChIKey ATUOYWHBWRKTHZ-UHFFFAOYSA-N
Adsorbate Ethane: InChIKey OTMSDBZUPAUEDD-UHFFFAOYSA-N
Kind: experiment
Temperature: 303 K
Tabular data in the source: 0
pressure (bar)	N-propane fraction	N-propane uptake (mmol/g)	Ethane fraction	Ethane uptake (mmol/g)	total uptake (mmol/g)
0.5	0.9446	3.58	0.0554	0.0586	
0.5	0.9	3.51	0.1	0.103	
0.5	0.8	3.46	0.2	0.137	
0.5	0.6	3.26	0.4	0.434	
0.5	0.4	2.94	0.6	0.833	
0.5	0.2	2.31	0.8	1.22	
