Adsorption isotherm of N-propane, Ethane on Activated carbon: Norit
DOI: 10.1021/la990785q
Article source: Figure 4c 
Adsorbate N-propane: InChIKey ATUOYWHBWRKTHZ-UHFFFAOYSA-N
Adsorbate Ethane: InChIKey OTMSDBZUPAUEDD-UHFFFAOYSA-N
Kind: experiment
Temperature: 363 K
Tabular data in the source: 0
pressure (bar)	N-propane fraction	N-propane uptake (mmol/g)	Ethane fraction	Ethane uptake (mmol/g)	total uptake (mmol/g)
0.5	0.95	2.27	0.05	0.00597	
0.5	0.8	2.15	0.2	0.175	
0.5	0.6	1.98	0.4	0.295	
0.5	0.4	1.74	0.6	0.537	
0.5	0.2	1.18	0.8	0.701	
