Adsorption isotherm of N-propane on Activated carbon: Norit
DOI: 10.1021/la990785q
Article source: Figure 2c
Adsorbate N-propane: InChIKey ATUOYWHBWRKTHZ-UHFFFAOYSA-N
Kind: experiment
Temperature: 363 K
Tabular data in the source: 0
pressure (bar)	uptake (mmol/g)
0.00766	0.313
0.0135	0.465
0.029	0.716
0.0694	1.1
0.135	1.46
0.2	1.68
0.403	2.12
0.629	2.39
0.806	2.56
1.02	2.69
