Adsorption isotherm of N-propane on Activated carbon: Norit
DOI: 10.1021/la990785q
Article source: Figure 2c
Adsorbate N-propane: InChIKey ATUOYWHBWRKTHZ-UHFFFAOYSA-N
Kind: experiment
Temperature: 303 K
Tabular data in the source: 0
pressure (bar)	uptake (mmol/g)
0.00543	0.716
0.011	1.15
0.0271	1.66
0.0862	2.47
0.149	2.82
0.204	3.01
0.401	3.38
0.617	3.61
0.805	3.75
1.01	3.86
