Adsorption isotherm of Ethane, Methane on Activated carbon: Norit
DOI: 10.1021/la990785q
Article source: Figure 5a
Adsorbate Ethane: InChIKey OTMSDBZUPAUEDD-UHFFFAOYSA-N
Adsorbate Methane: InChIKey VNWKTOKETHGBQD-UHFFFAOYSA-N
Kind: experiment
Temperature: 303 K
Tabular data in the source: 0
pressure (bar)	Ethane fraction	Ethane uptake (mmol/g)	Methane fraction	Methane uptake (mmol/g)	total uptake (mmol/g)
0.5	0.8	2.47	0.2	0.124	
0.5	0.6	2.16	0.4	0.19	
0.5	0.2	1.47	0.8	0.406	
0.5	0.1	1.13	0.9	0.447	
