Adsorption isotherm of Methane on Activated carbon: Norit
DOI: 10.1021/la990785q
Article source: Figure 2a
Adsorbate Methane: InChIKey VNWKTOKETHGBQD-UHFFFAOYSA-N
Kind: experiment
Temperature: 333 K
Tabular data in the source: 0
pressure (bar)	uptake (mmol/g)
0.0309	0.0338
0.0673	0.0624
0.135	0.118
0.207	0.175
0.414	0.33
0.608	0.456
0.81	0.579
1.09	0.73
