Adsorption isotherm of Ethane on Activated carbon: Norit
DOI: 10.1021/la990785q
Article source: Figure 2b
Adsorbate Ethane: InChIKey OTMSDBZUPAUEDD-UHFFFAOYSA-N
Kind: experiment
Temperature: 333 K
Tabular data in the source: 0
pressure (bar)	uptake (mmol/g)
0.00915	0.148
0.0137	0.23
0.0282	0.378
0.0739	0.706
0.136	0.995
0.204	1.23
0.405	1.7
0.607	2.02
0.806	2.28
1.01	2.48
