Adsorption isotherm of N-propane, Ethane on Activated carbon: Norit
DOI: 10.1021/la990785q
Article source: Figure 4b
Adsorbate N-propane: InChIKey ATUOYWHBWRKTHZ-UHFFFAOYSA-N
Adsorbate Ethane: InChIKey OTMSDBZUPAUEDD-UHFFFAOYSA-N
Kind: experiment
Temperature: 333 K
Tabular data in the source: 0
pressure (bar)	N-propane fraction	N-propane uptake (mmol/g)	Ethane fraction	Ethane uptake (mmol/g)	total uptake (mmol/g)
0.5	0.9446	2.87	0.0554	0.0165	
0.5	0.9	2.77	0.1	0.078	
0.5	0.8	2.79	0.2	0.209	
0.5	0.6	2.58	0.4	0.39	
0.5	0.4	2.26	0.6	0.583	
0.5	0.2	1.74	0.8	1.03	
