Adsorption isotherm of Methane on Activated carbon: Norit
DOI: 10.1021/la990785q
Article source: Figure 2a
Adsorbate Methane: InChIKey VNWKTOKETHGBQD-UHFFFAOYSA-N
Kind: experiment
Temperature: 363 K
Tabular data in the source: 0
pressure (bar)	uptake (mmol/g)
0.0081	0.00318
0.029	0.0138
0.0708	0.0381
0.14	0.0751
0.221	0.11
0.412	0.196
0.612	0.281
0.816	0.361
1.02	0.449
