Adsorption isotherm of Ethane on Activated carbon: Norit
DOI: 10.1021/la990785q
Article source: Figure 2b
Adsorbate Ethane: InChIKey OTMSDBZUPAUEDD-UHFFFAOYSA-N
Kind: experiment
Temperature: 363 K
Tabular data in the source: 0
pressure (bar)	uptake (mmol/g)
0.00927	0.0644
0.0152	0.106
0.0278	0.182
0.071	0.381
0.136	0.586
0.202	0.752
0.403	1.12
0.605	1.39
0.816	1.61
1.01	1.79
