Adsorption isotherm of N-propane on Activated carbon: Norit
DOI: 10.1021/la990785q
Article source: Figure 2c
Adsorbate N-propane: InChIKey ATUOYWHBWRKTHZ-UHFFFAOYSA-N
Kind: experiment
Temperature: 333 K
Tabular data in the source: 0
pressure (bar)	uptake (mmol/g)
0.00695	0.403
0.0146	0.668
0.0275	0.995
0.0678	1.56
0.141	2.04
0.213	2.32
0.403	2.72
0.63	2.99
0.814	3.14
1.01	3.27
