Adsorption isotherm of N-propane, Methane on Activated carbon: Norit
DOI: 10.1021/la990785q
Article source: Figure 6a
Adsorbate N-propane: InChIKey ATUOYWHBWRKTHZ-UHFFFAOYSA-N
Adsorbate Methane: InChIKey VNWKTOKETHGBQD-UHFFFAOYSA-N
Kind: experiment
Temperature: 303 K
Tabular data in the source: 0
pressure (bar)	N-propane fraction	N-propane uptake (mmol/g)	Methane fraction	Methane uptake (mmol/g)	total uptake (mmol/g)
0.5	0.8	3.17	0.2	0.0472	
0.5	0.5	2.96	0.5	0.193	
0.5	0.2	2.54	0.8	0.335	
0.5	0.1	2.17	0.9	0.453	
