Adsorption isotherm of Ethane on Activated carbon: Norit
DOI: 10.1021/la990785q
Article source: Figure 2b
Adsorbate Ethane: InChIKey OTMSDBZUPAUEDD-UHFFFAOYSA-N
Kind: experiment
Temperature: 303 K
Tabular data in the source: 0
pressure (bar)	uptake (mmol/g)
0.00617	0.344
0.0126	0.512
0.0263	0.764
0.0738	1.24
0.141	1.66
0.206	1.95
0.402	2.5
0.605	2.88
0.813	3.15
1.01	3.36
