Adsorption isotherm of Nitrogen on Pd/Al(OH)(BDC)0.5(ABDC)0.5
DOI: 10.1002/cplu.201100021
Adsorbate Nitrogen: InChIKey IJGRMHOSHXDMSA-UHFFFAOYSA-N
Temperature: 77 K
Tabular data in the source: 0
pressure (bar)	uptake (cm3(STP)/g)
0	76.1614
0.00831781	172.853
0.0282805	232.738
0.041589	248.13
0.0582247	266.086
0.0815145	275.478
0.094823	281.457
0.116449	288.284
0.136412	293.401
0.156375	295.095
0.174674	298.501
0.194637	301.907
0.237889	305.292
0.296114	308.663
0.351012	312.038
0.43918	316.239
0.48576	317.054
0.534003	318.723
0.582247	318.68
0.63049	320.349
0.678733	322.874
0.725313	323.689
0.778547	325.353
0.795182	326.194
0.823463	327.025
0.848416	328.715
0.87337	329.549
0.898323	329.527
0.923277	333.783
0.946567	337.186
0.951557	338.893
0.966529	344.014
