Adsorption isotherm of Nitrogen on Al(OH)(BDC)0.5(ABDC)0.5
DOI: 10.1002/cplu.201100021
Adsorbate Nitrogen: InChIKey IJGRMHOSHXDMSA-UHFFFAOYSA-N
Temperature: 77 K
Tabular data in the source: 0
pressure (bar)	uptake (cm3(STP)/g)
0.00166356	97.5535
0.00332712	109.533
0.00499068	139.482
0.00831781	195.103
0.00998137	183.121
0.0116449	206.224
0.0548975	304.597
0.0848416	313.128
0.131421	319.933
0.164693	321.615
0.206282	324.146
0.229572	324.125
0.259516	325.811
0.291123	325.783
0.322731	326.611
0.356002	326.581
0.390937	328.262
0.424208	328.233
0.459143	328.202
0.492414	329.884
0.525685	328.999
0.56062	329.824
0.595555	330.649
0.628826	329.764
0.662098	331.446
0.695369	331.417
0.72864	331.388
0.765238	332.211
0.79851	333.037
0.831781	333.008
0.865052	334.69
0.90165	334.658
0.928267	338.058
0.968193	351.714
