Adsorption isotherm of Nitrogen on MIL-53(Al)
DOI: 10.1002/cplu.201100021
Adsorbate Nitrogen: InChIKey IJGRMHOSHXDMSA-UHFFFAOYSA-N
Temperature: 77 K
Tabular data in the source: 0
pressure (bar)	uptake (cm3(STP)/g)
0	0
0.00166356	24.8152
0.00332712	150.608
0.00998137	287.522
0.0182992	290.937
0.0515704	298.61
0.0881688	301.145
0.123104	303.681
0.154711	305.365
0.186319	305.337
0.217927	307.021
0.254525	308.7
0.287796	308.671
0.319404	310.354
0.357666	310.321
0.385946	311.151
0.420881	311.121
0.454152	312.803
0.490751	313.626
0.522358	313.599
0.558957	314.422
0.592228	315.249
0.627163	316.073
0.657107	316.047
0.692042	316.872
0.726976	317.697
0.763575	319.376
0.795182	319.348
0.830117	321.029
0.863388	321.856
0.898323	322.681
0.929931	325.22
0.964866	332.035
