Adsorption isotherm of Nitrogen on NH2-MIL-53(Al)
DOI: 10.1002/cplu.201100021
Adsorbate Nitrogen: InChIKey IJGRMHOSHXDMSA-UHFFFAOYSA-N
Temperature: 77 K
Tabular data in the source: 0
pressure (bar)	uptake (cm3(STP)/g)
0	0
0.00166356	133.495
0.00499068	151.463
0.00998137	160.016
0.0133085	166.859
0.0548975	187.36
0.0831781	193.325
0.118113	197.573
0.153048	200.965
0.187982	205.213
0.221254	209.463
0.254525	212.001
0.287796	216.25
0.322731	218.787
0.357666	222.179
0.390937	225.573
0.420881	227.258
0.492414	233.185
0.525685	237.434
0.558957	240.828
0.593892	245.076
0.628826	248.468
0.660434	254.43
0.695369	259.534
0.726976	265.497
0.763575	274.022
0.796846	282.55
0.830117	296.213
0.865052	313.297
0.89666	341.508
