Adsorption isotherm of Nitrogen on Ni2C34H56N6O16
DOI: 10.1021/Ic200381f
Adsorbate Nitrogen: InChIKey IJGRMHOSHXDMSA-UHFFFAOYSA-N
Temperature: 77 K
Tabular data in the source: 0
pressure (bar)	uptake (cm3(STP)/g)
0.00456113	0.00456113
0.0114028	275.472
0.0273668	307.547
0.0410501	318.868
0.0638558	320.755
0.0843808	326.415
0.114028	328.302
0.173323	333.962
0.225776	333.962
0.275948	337.736
0.326121	337.736
0.376293	337.736
0.421904	339.623
0.472077	341.509
0.522249	341.509
0.56786	343.396
0.615752	345.283
0.665925	345.283
0.711536	347.17
0.761708	347.17
0.807319	350.943
0.855211	352.83
0.898542	356.604
0.93047	364.151
0.944153	373.585
0.960117	394.34
