Adsorption isotherm of Nitrogen on Ni3C36H63N7O20
DOI: 10.1021/Ic200381f
Adsorbate Nitrogen: InChIKey IJGRMHOSHXDMSA-UHFFFAOYSA-N
Temperature: 77 K
Tabular data in the source: 0
pressure (bar)	uptake (cm3(STP)/g)
5.55e-17	200
0.00228056	181.132
0.00456113	145.283
0.0205251	215.094
0.0501724	222.642
0.0798197	226.415
0.107186	224.528
0.125431	224.528
0.150517	224.528
0.173323	228.302
0.198409	226.415
0.223495	226.415
0.246301	226.415
0.273668	228.302
0.303315	228.302
0.342085	226.415
0.394537	228.302
0.442429	230.189
0.488041	230.189
0.538213	228.302
0.590666	228.302
0.636277	228.302
0.68645	228.302
0.736622	230.189
0.784514	230.189
0.830125	232.075
0.880297	232.075
0.928189	235.849
0.948714	269.811
