Adsorption isotherm of Argon on Ni3C87H118N12O29
DOI: 10.1021/Ic200381f
Adsorbate Argon: InChIKey XKRFYHLGVUSROY-UHFFFAOYSA-N
Temperature: 77 K
Tabular data in the source: 0
pressure (bar)	uptake (mmol/g)
0.0652007	0.0425388
0.0916767	-0.0325067
0.107976	-0.0314644
0.222073	0.0142013
0.328016	0.0209763
0.539903	0.0345261
0.643808	0.0411708
0.755868	0.0867062
0.863849	0.0936114
0.969792	0.100386
1.02482	0.257383
