Adsorption isotherm of Carbon Dioxide on Ni3C87H118N12O29
DOI: 10.1021/Ic200381f
Adsorbate Carbon Dioxide: InChIKey CURLTUGMZLYLDI-UHFFFAOYSA-N
Temperature: 298 K
Tabular data in the source: 0
pressure (bar)	uptake (mmol/g)
0.152817	0.12488
0.203751	0.128138
0.254705	0.284873
0.307672	0.249891
0.358616	0.329888
0.401401	0.332624
0.456414	0.374511
0.505326	0.492747
0.554228	0.534243
0.605162	0.5375
0.652026	0.578867
0.704998	0.582254
0.753899	0.623751
0.798717	0.588247
0.851693	0.630004
0.900595	0.671501
0.955609	0.713388
1.00655	0.793385
