Adsorption isotherm of Hydrogen on Ni3C87H118N12O29
DOI: 10.1021/Ic200381f
Adsorbate Hydrogen: InChIKey UFHFLCQGNIYNRP-UHFFFAOYSA-N
Temperature: 77 K
Tabular data in the source: 0
pressure (bar)	uptake (mmol/g)
0.11207	0.122275
0.158939	0.20201
0.207836	0.205137
0.258785	0.323503
0.309743	0.518609
0.36272	0.560366
0.407552	0.639971
0.458491	0.681598
0.509445	0.838334
0.560389	0.91833
0.615407	0.998587
0.664314	1.07845
0.709146	1.15806
0.764174	1.31506
0.817156	1.39518
0.86809	1.39844
0.917016	1.63178
0.96388	1.67315
1.01077	1.90636
