Adsorption isotherm of Nitrogen on Ni2C34H51N6O13.5
DOI: 10.1021/Ic200381f
Adsorbate Nitrogen: InChIKey IJGRMHOSHXDMSA-UHFFFAOYSA-N
Temperature: 77 K
Tabular data in the source: 0
pressure (bar)	uptake (cm3(STP)/g)
5.55e-17	332.075
0.00228056	352.83
0.00684169	386.792
0.00912225	396.226
0.0250862	433.962
0.0387696	435.849
0.0456113	435.849
0.0592946	437.736
0.0957837	435.849
0.104906	437.736
0.139114	439.623
0.155078	439.623
0.189287	437.736
0.20069	441.509
0.232617	437.736
0.246301	437.736
0.280509	439.623
0.296473	439.623
0.332962	437.736
0.348926	439.623
0.380854	439.623
0.401379	437.736
0.421904	439.623
0.44471	439.623
0.474357	439.623
0.492602	439.623
0.517688	439.623
0.574702	437.736
0.618033	443.396
0.636277	441.509
0.665925	439.623
0.681888	439.623
0.716097	443.396
0.72978	443.396
0.757147	441.509
0.775392	443.396
0.807319	441.509
0.830125	445.283
0.85065	445.283
0.878017	447.17
0.905384	449.057
0.923628	452.83
0.935031	456.604
0.946434	462.264
0.957837	486.792
0.960117	501.887
