Adsorption isotherm of Nitrogen on Ni3C87H118N12O29
DOI: 10.1021/Ic200381f
Adsorbate Nitrogen: InChIKey IJGRMHOSHXDMSA-UHFFFAOYSA-N
Temperature: 77 K
Tabular data in the source: 0
pressure (bar)	uptake (mmol/g)
0.0896438	0.00285945
0.222072	0.00708364
0.32801	-0.0278147
0.425803	-0.0246953
0.635656	0.0202761
0.743627	-0.0528349
0.847532	-0.0495205
0.951442	-0.00792848
1.00441	-0.0062388
