Adsorption isotherm of Water on Ni3C87H118N12O29
DOI: 10.1021/Ic200381f
Adsorbate Water: InChIKey XLYOFNOQVPJJNP-UHFFFAOYSA-N
Temperature: 298 K
Tabular data in the source: 0
pressure (bar)	uptake (mmol/g)
0.0224648	0.423499
0.0306338	0.577499
0.0531133	1.11611
0.0796723	1.69334
0.10417	2.0786
0.132751	2.54086
0.155226	3.0411
0.18177	3.50323
0.220549	4.04288
0.251173	4.54364
0.259332	4.6209
0.298106	5.12218
0.308307	5.23794
0.353188	5.70124
0.40419	6.24167
0.426631	6.47333
0.48782	7.01441
0.551052	7.59399
0.571455	7.82551
0.614342	8.63401
0.671472	9.28994
0.730648	10.0227
0.765371	10.7156
0.812343	11.6011
0.851185	12.6396
0.855289	12.87
0.91661	14.4471
0.93096	15.1387
