Adsorption isotherm of Nitrogen on Ni3C87H118N12O29
DOI: 10.1021/Ic200381f
Adsorbate Nitrogen: InChIKey IJGRMHOSHXDMSA-UHFFFAOYSA-N
Temperature: 77 K
Tabular data in the source: 0
pressure (bar)	uptake (cm3(STP)/g)
0.0273668	1.88679
0.0501724	1.88679
0.198409	1.88679
0.399099	1.88679
0.501724	1.88679
0.595227	1.88679
0.695572	1.88679
0.791355	1.88679
0.893981	5.66038
0.941873	5.66038
0.962398	71.6981
