Adsorption isotherm of Nitrogen on eJUC-511
DOI: 10.1002/adma.201907289
Article source: Figure S38
Adsorbate Nitrogen: InChIKey IJGRMHOSHXDMSA-UHFFFAOYSA-N
Kind: experiment
Temperature: 77 K
Tabular data in the source: 0
pressure (bar)	uptake (cm3(STP)/g)
0	24.4275
0.000942	43.7659
0.000942	58.0153
0.003749	66.6667
0.005634	71.2468
0.009383	78.8804
0.018765	85.4962
0.032839	92.112
0.048788	97.7099
0.085376	107.379
0.12009	115.522
0.154804	124.682
0.191393	133.333
0.227039	134.351
0.262695	134.351
0.298341	133.333
0.352763	132.824
0.388409	131.298
0.423123	130.789
0.458779	129.771
0.495368	128.244
0.531014	127.226
0.56667	126.718
0.602316	125.191
0.636098	124.173
0.671744	123.155
0.7074	122.137
0.743047	122.137
0.778703	122.137
0.812475	122.137
0.848131	123.155
0.883777	125.191
0.9016	127.226
0.936314	133.333
0.971028	147.074
1.00012	181.17
1.00199	192.366
1.00387	200.509
1.00574	206.616
0.051605	122.137
0.080685	130.28
0.116331	139.44
0.150113	147.583
0.167936	153.69
0.20265	159.796
0.238306	159.796
0.27301	159.288
0.308666	159.288
0.34338	157.761
0.379969	157.252
0.414683	156.234
0.470037	153.69
0.48786	154.707
0.521631	163.868
0.557288	163.868
0.593876	162.341
0.627648	160.814
0.664246	159.796
0.698018	158.779
0.734606	156.743
0.76932	156.234
0.805909	155.725
0.841565	156.743
0.877211	159.796
0.914742	165.903
0.949456	177.099
0.982285	194.402
1.017	300.254
