Adsorption isotherm of Nitrogen on eJuc-512
DOI: 10.1002/adma.201907289
Article source: Figure S40
Adsorbate Nitrogen: InChIKey IJGRMHOSHXDMSA-UHFFFAOYSA-N
Kind: experiment
Temperature: 77 K
Tabular data in the source: 0
pressure (bar)	uptake (cm3(STP)/g)
0	15.5556
0	29.5556
0.001844	40.4444
0.00921	52.8889
0.018421	63.7778
0.027631	70
0.035008	74.6667
0.04974	81.6667
0.084748	87.1111
0.12159	93.3333
0.156598	98
0.19344	102.667
0.227525	106.556
0.262523	107.333
0.296609	110.444
0.332528	111.222
0.387801	114.333
0.403456	115.111
0.438464	116.667
0.494648	117.444
0.529656	119
0.546233	120.556
0.580319	121.333
0.635581	122.889
0.671511	126
0.688088	127.556
0.724018	129.111
0.759015	134.556
0.794023	139.222
0.829943	145.444
0.865873	155.556
0.90087	171.111
0.935878	196
0.969032	250.444
1.0022	441.778
1.00404	500.889
1.00588	519.556
1.00773	539.778
0.050662	102.667
0.080138	109.667
0.116068	116.667
0.150143	122.889
0.186073	129.111
0.221071	130.667
0.237658	132.222
0.29292	133.778
0.327928	136.889
0.343583	137.667
0.379513	140
0.433853	142.333
0.471617	146.222
0.506625	166.444
0.540711	171.889
0.556365	172.667
0.61256	176.556
0.646636	177.333
0.663223	178.889
0.69822	180.444
0.735984	185.111
0.77007	189.778
0.80599	196
0.84192	203.778
0.877839	217
0.915613	240.333
0.960743	302.556
0.994829	469
1.00681	559.222
