Adsorption isotherm of Nitrogen on JUC-511
DOI: 10.1002/adma.201907289
Article source: Figure 2 (c)
Adsorbate Nitrogen: InChIKey IJGRMHOSHXDMSA-UHFFFAOYSA-N
Kind: experiment
Temperature: 77 K
Tabular data in the source: 0
pressure (bar)	uptake (cm3(STP)/g)
0	29.7345
0.000902	57.6106
0.000902	85.4867
0.004499	110.111
0.005401	121.261
0.009008	133.805
0.018917	148.208
0.028817	157.965
0.037825	165.863
0.049538	171.903
0.084667	191.881
0.116189	206.748
0.15221	224.867
0.206257	252.743
0.229673	255.531
0.266596	259.712
0.298118	262.965
0.33415	265.752
0.368377	268.54
0.404398	272.257
0.438626	275.044
0.473755	277.832
0.509776	280.155
0.545807	282.942
0.580927	285.266
0.615154	288.053
0.649382	290.841
0.685403	293.628
0.721434	298.274
0.757465	301.991
0.792584	305.708
0.828616	310.819
0.863735	315.929
0.899766	324.292
0.933994	333.584
0.965516	349.381
1.00065	380.973
1.00605	391.659
0.051341	199.779
0.083765	217.434
0.112582	232.301
0.150407	251.814
0.189143	275.973
0.224263	282.478
0.25849	286.195
0.292718	288.982
0.329641	291.77
0.345853	292.699
0.380982	294.558
0.427814	297.345
0.469246	301.991
0.507071	316.394
0.5422	319.646
0.576428	321.504
0.611557	323.363
0.647578	325.221
0.683609	327.544
0.718729	329.867
0.75476	332.19
0.789889	335.442
0.825008	339.159
0.861941	343.805
0.88175	346.593
0.920477	354.956
0.961007	367.965
0.993431	386.549
1.00605	398.164
