Adsorption isotherm of Nitrogen on Juc-512
DOI: 10.1002/adma.201907289
Article source: Figure S16
Adsorbate Nitrogen: InChIKey IJGRMHOSHXDMSA-UHFFFAOYSA-N
Kind: experiment
Temperature: 77 K
Tabular data in the source: 0
pressure (bar)	uptake (cm3(STP)/g)
0	15.3061
0	30.6122
0	44.3878
0	53.5714
0	61.2245
0	70.4082
0	81.1225
0	91.8367
0.001753	102.551
0.003506	111.735
0.005259	120.918
0.008765	130.102
0.019282	140.051
0.033306	151.531
0.044705	158.418
0.054341	165.306
0.08414	176.02
0.120962	189.031
0.15602	201.276
0.191079	212.755
0.226137	217.347
0.262959	220.408
0.297136	221.939
0.333076	223.469
0.389169	223.469
0.423356	224.235
0.459296	224.235
0.494355	223.469
0.530295	224.235
0.566224	225
0.601293	225
0.636351	226.531
0.67141	226.531
0.706468	228.061
0.741527	229.592
0.778348	232.653
0.811654	237.245
0.829183	241.837
0.865123	249.49
0.900181	263.265
0.93524	286.99
0.969427	339.031
0.998345	476.02
1.00273	543.367
1.00449	570.918
1.00449	592.347
1.00624	618.367
0.049082	215.051
0.079763	228.827
0.115703	241.837
0.150761	255.612
0.18582	269.388
0.201596	270.918
0.236655	272.449
0.273476	273.98
0.308535	273.98
0.343593	272.449
0.37778	272.449
0.41371	270.918
0.468932	270.918
0.486461	273.98
0.522401	286.224
0.555707	284.694
0.591647	283.929
0.627587	283.163
0.662645	281.633
0.698585	283.163
0.734515	284.694
0.770455	287.755
0.805513	292.347
0.841453	300
0.876512	311.48
0.914205	331.378
0.953651	375
0.992215	519.643
1.00624	639.796
