Adsorption isotherm of Nitrogen on JUC-510
DOI: 10.1002/adma.201907289
Article source: Figure S38
Adsorbate Nitrogen: InChIKey IJGRMHOSHXDMSA-UHFFFAOYSA-N
Kind: experiment
Temperature: 77 K
Tabular data in the source: 0
pressure (bar)	uptake (cm3(STP)/g)
0	52.6096
0	71.6075
0	83.2985
0	99.3737
0	109.603
0	130.063
0	137.37
0	157.829
0.005188	172.443
0.00692	181.211
0.017286	204.593
0.027662	217.745
0.038037	226.514
0.051007	239.666
0.083857	265.971
0.118439	290.814
0.156486	320.042
0.189336	352.192
0.228245	356.576
0.262827	360.96
0.297409	363.883
0.332853	366.806
0.370029	371.19
0.402878	374.113
0.437461	375.574
0.476369	376.305
0.511813	377.035
0.546395	379.958
0.58271	381.42
0.619015	384.342
0.654458	385.804
0.688179	388.727
0.7219	390.919
0.759076	394.572
0.795381	397.495
0.829963	403.34
0.865417	409.917
0.901722	420.877
0.936304	440.605
0.970025	474.948
0.997686	550.939
1.00461	580.167
1.00461	596.242
1.00461	610.856
0.049274	279.123
0.07954	302.505
0.114984	329.541
0.153892	359.499
0.186742	393.111
0.222185	398.225
0.257639	402.61
0.293083	404.802
0.327665	406.994
0.344951	408.455
0.380404	410.647
0.432273	413.57
0.47031	416.493
0.506625	432.568
0.520456	439.875
0.575789	442.797
0.612966	442.797
0.647548	446.451
0.68213	447.912
0.697694	449.374
0.733998	451.566
0.771174	454.489
0.805757	458.873
0.842072	466.91
0.878376	476.409
0.914691	492.484
0.952729	523.173
0.992499	578.706
1.00806	622.547
