Adsorption isotherm of Nitrogen on eJUC-510
DOI: 10.1002/adma.201907289
Article source: Figure S38
Adsorbate Nitrogen: InChIKey IJGRMHOSHXDMSA-UHFFFAOYSA-N
Kind: experiment
Temperature: 77 K
Tabular data in the source: 0
pressure (bar)	uptake (cm3(STP)/g)
0	24.8434
0	48.9562
0	71.6075
0.001733	92.7975
0.003455	108.142
0.00692	118.372
0.019019	134.447
0.03285	143.215
0.038037	147.599
0.048413	151.983
0.082134	166.597
0.117578	180.48
0.153892	192.171
0.190197	203.862
0.228245	207.516
0.264549	210.438
0.297409	213.361
0.333714	216.284
0.370029	217.745
0.40374	219.207
0.439193	221.399
0.474637	223.591
0.51008	225.783
0.545534	227.975
0.580116	229.436
0.617292	232.359
0.651864	233.09
0.687318	235.282
0.723623	237.474
0.759076	239.666
0.793658	242.589
0.829963	245.511
0.864545	249.165
0.899999	255.01
0.932849	263.779
0.966559	280.585
0.999419	325.887
1.00633	339.04
0.051868	181.211
0.080401	193.633
0.115845	206.054
0.153892	220.668
0.186742	232.359
0.221324	235.282
0.257639	238.205
0.292221	241.127
0.328526	243.319
0.345822	242.589
0.380404	244.05
0.432273	245.511
0.473775	246.973
0.508358	258.664
0.541207	264.509
0.576651	265.971
0.612104	268.163
0.647548	268.894
0.682991	269.624
0.719306	271.816
0.753888	273.278
0.790193	276.2
0.807489	276.931
0.842072	280.585
0.880109	286.43
0.918146	294.468
0.957916	309.812
0.995093	334.656
1.0072	350.731
