Adsorption isotherm of Nitrogen on Zeolite LZ
DOI: 10.1002/ppsc.200601010
Adsorbate Nitrogen: InChIKey IJGRMHOSHXDMSA-UHFFFAOYSA-N
Temperature: 77 K
Tabular data in the source: 0
pressure (bar)	uptake (cm3(STP)/g)
0.0197031	93.3826
0.0605481	97.1854
0.10421	99.7206
0.394351	109.016
0.439421	110.495
0.516886	112.397
0.588717	114.087
0.666182	115.988
0.766182	117.678
0.842238	120.002
0.94083	121.692
0.976041	124.016
0.994351	128.876
1.0028	134.368
