Adsorption isotherm of Nitrogen on Zeolite Z-35
DOI: 10.1002/ppsc.200601010
Adsorbate Nitrogen: InChIKey IJGRMHOSHXDMSA-UHFFFAOYSA-N
Temperature: 77 K
Tabular data in the source: 0
pressure (bar)	uptake (cm3(STP)/g)
0.0223168	101.612
0.0537799	105.617
0.0795225	109.621
0.109555	112.481
0.182493	118.774
0.25686	123.351
0.407025	127.927
0.484253	130.215
0.584363	132.503
0.65587	134.22
0.731668	138.224
0.806035	141.084
0.874682	146.233
0.911866	153.098
0.971932	160.534
0.989093	175.98
