Adsorption isotherm of Nitrogen on Zeolite Z-35
DOI: 10.1002/ppsc.200601010
Adsorbate Nitrogen: InChIKey IJGRMHOSHXDMSA-UHFFFAOYSA-N
Temperature: 77 K
Tabular data in the source: 0
pressure (bar)	uptake (cm3(STP)/g)
0.0137359	111.337
0.0266072	115.914
0.0523498	122.778
0.075232	127.355
0.181063	139.94
0.279743	149.093
0.379853	158.818
0.477102	170.831
0.572922	183.417
0.645859	197.146
0.723087	216.596
0.794594	243.483
0.85037	267.509
0.917586	298.4
0.963351	318.994
0.979082	331.579
0.981943	341.304
