Adsorption isotherm of Nitrogen on Zeolite Z-200
DOI: 10.1002/ppsc.200601010
Adsorbate Nitrogen: InChIKey IJGRMHOSHXDMSA-UHFFFAOYSA-N
Temperature: 77 K
Tabular data in the source: 0
pressure (bar)	uptake (cm3(STP)/g)
0.0168862	96.9075
0.0760411	104.795
0.291534	127.893
0.466182	135.217
0.660548	142.541
0.708435	146.485
0.754914	152.682
0.805619	162.26
0.825337	169.02
0.881675	185.922
0.894351	198.879
0.947872	259.724
0.963365	292.964
0.971816	304.795
0.991534	318.879
