Adsorption isotherm of Nitrogen on Zeolite LZ
DOI: 10.1002/ppsc.200601010
Adsorbate Nitrogen: InChIKey IJGRMHOSHXDMSA-UHFFFAOYSA-N
Temperature: 77 K
Tabular data in the source: 0
pressure (bar)	uptake (cm3(STP)/g)
0.0140693	90.0023
0.0591397	94.2276
0.0999848	97.3967
0.194351	102.678
0.263365	105.002
0.364773	107.96
0.492943	109.861
0.54083	110.073
0.612661	110.707
0.719703	110.918
0.818295	111.552
0.915478	112.397
0.964773	112.819
0.990126	115.354
0.994351	120.214
0.999985	127.608
