Adsorption isotherm of Nitrogen on Zeolite Z-200
DOI: 10.1002/ppsc.200601010
Adsorbate Nitrogen: InChIKey IJGRMHOSHXDMSA-UHFFFAOYSA-N
Temperature: 77 K
Tabular data in the source: 0
pressure (bar)	uptake (cm3(STP)/g)
0.00702701	95.2174
0.0549143	99.161
0.108435	102.541
0.160548	105.922
0.198576	112.119
0.276041	122.823
0.383083	127.893
0.461957	129.584
0.536604	131.837
0.612661	134.654
0.690126	136.908
0.761957	138.598
0.835196	140.288
0.905619	144.795
0.930971	147.612
1.00421	160.569
