Adsorption isotherm of Nitrogen on CCOF-5
DOI: 10.1021/jacs.7b12110
Article source: Figure 3
Adsorbate Nitrogen: InChIKey IJGRMHOSHXDMSA-UHFFFAOYSA-N
Kind: experiment
Temperature: 77 K
Tabular data in the source: 0
pressure (bar)	uptake (cm3(STP)/g)
0.051679	188.737
0.08472	196.587
0.123691	201.024
0.159273	205.119
0.195703	208.191
0.231285	210.922
0.264326	213.311
0.299908	215.358
0.336338	217.406
0.370226	219.454
0.404961	220.819
0.440543	222.526
0.476126	224.232
0.512555	225.597
0.547291	226.962
0.582873	228.669
0.618455	230.034
0.654038	231.741
0.688773	233.447
0.725202	235.154
0.759937	237.543
0.79552	239.249
0.831102	242.321
0.866685	245.392
0.902267	250.512
0.937002	258.02
0.97089	273.038
0.051679	209.215
0.086414	215.7
0.121149	220.137
0.156732	223.208
0.192314	225.597
0.227897	227.645
0.263479	229.352
0.298214	230.717
0.333796	232.082
0.369379	233.106
0.404961	234.471
0.439696	235.495
0.476126	236.519
0.510861	237.884
0.546443	238.567
0.582026	239.932
0.618455	240.956
0.652343	241.98
0.688773	243.345
0.723508	244.71
0.760785	246.075
0.777729	247.782
0.814158	250.512
0.852282	254.266
0.892948	261.092
0.937849	275.427
0.975126	302.73
1.00647	331.399
