Adsorption isotherm of Nitrogen on CCOF-6
DOI: 10.1021/jacs.7b12110
Article source: Figure 3
Adsorbate Nitrogen: InChIKey IJGRMHOSHXDMSA-UHFFFAOYSA-N
Kind: experiment
Temperature: 77 K
Tabular data in the source: 0
pressure (bar)	uptake (cm3(STP)/g)
0	125.256
0.010166	167.918
0.050832	185.666
0.097428	192.833
0.121149	195.222
0.156732	197.952
0.192314	199.659
0.228744	201.024
0.263479	201.706
0.299061	202.73
0.334644	203.413
0.370226	203.754
0.404961	203.754
0.441391	204.096
0.476126	204.096
0.531194	203.072
0.565082	203.072
0.601511	203.072
0.617608	203.413
0.65319	203.754
0.708258	202.73
0.743841	203.413
0.759937	203.754
0.794673	204.096
0.849741	204.778
0.867532	206.826
0.90142	209.215
0.937002	214.334
0.972584	229.693
0	5.80205
0	17.4061
0	29.0102
0	39.9317
0	50.8532
0	62.116
0	72.6962
0	83.6177
0.000847	94.8805
0	105.461
0	115.7
0	134.812
0.000847	145.051
0.001694	155.29
0.050832	203.754
0.086414	208.874
0.121997	211.604
0.156732	213.652
0.191467	214.334
0.227897	214.676
0.243146	215.358
0.278728	215.358
0.314311	215.017
0.349046	214.676
0.384628	214.334
0.439696	213.311
0.455793	213.311
0.492223	213.652
0.526958	213.311
0.564235	212.969
0.59897	212.287
0.634552	211.604
0.670134	210.58
0.705717	209.898
0.740452	209.898
0.776034	209.898
0.811617	209.898
0.847199	210.58
0.884476	212.287
0.9226	217.747
0.964112	233.106
1.00393	276.792
