Adsorption isotherm of Water on C1-Zr
DOI: 10.1007/s10450-021-00336-6
Article source: Figure 9
Adsorbate Water: InChIKey XLYOFNOQVPJJNP-UHFFFAOYSA-N
Kind: experiment
Temperature: 278 K
Tabular data in the source: 0
pressure (bar)	uptake (mg/g)
7.8e-05	12.9472
0.00014	18.9523
0.000224	26.9591
0.000328	36.9676
0.000348	40.9285
0.000411	46.9336
0.000516	54.983
0.000579	59.029
0.000663	67.0358
0.000747	73.0835
0.000917	83.2198
0.001087	91.3969
0.001642	114.055
0.002027	128.535
0.002456	143.101
0.002948	161.712
0.00342	174.404
0.003783	190.801
0.00406	203.109
0.004445	217.589
0.005062	248.211
0.005335	270.315
0.00546	284.284
0.005472	305.877
0.005496	451.022
0.00565	496.422
0.005883	510.605
0.006184	519.037
0.006313	521.252
0.006377	523.339
0.006635	531.687
0.006764	533.901
0.006893	538.075
0.007064	544.293
0.007214	548.509
0.0073	550.639
0.007386	552.768
