Adsorption isotherm of Water on C1-Li
DOI: 10.1007/s10450-021-00336-6
Article source: Figure 9
Adsorbate Water: InChIKey XLYOFNOQVPJJNP-UHFFFAOYSA-N
Kind: experiment
Temperature: 278 K
Tabular data in the source: 0
pressure (bar)	uptake (mg/g)
0.000145	7.19762
0.000208	13.2027
0.000208	13.2027
0.000335	21.2947
0.000398	25.3407
0.000441	27.385
0.000483	29.4293
0.000567	37.4361
0.000652	41.5247
0.000695	43.569
0.000757	49.5741
0.000842	53.6627
0.000969	61.7547
0.001034	63.8416
0.001245	77.9813
0.00152	96.167
0.001947	112.692
0.002398	125.341
0.002675	137.649
0.003124	156.175
0.003556	162.905
0.003964	173.509
0.004349	187.99
0.004817	212.436
0.004987	220.613
0.005262	238.799
0.005408	252.811
0.005572	276.661
0.005649	449.361
0.005798	555.537
0.005948	559.753
0.006248	570.145
0.006572	576.661
0.006702	576.917
0.006937	585.221
0.007044	589.353
0.007216	593.612
0.007303	593.782
0.007346	595.826
