Adsorption isotherm of Water on PSi
DOI: 10.1007/s10450-021-00336-6
Article source: Figure 9
Adsorbate Water: InChIKey XLYOFNOQVPJJNP-UHFFFAOYSA-N
Kind: experiment
Temperature: 278 K
Tabular data in the source: 0
pressure (bar)	uptake (mg/g)
0.000277	3.53492
0.000342	5.62181
0.000363	5.66439
0.000492	9.83816
0.000578	11.9676
0.000707	16.1414
0.000772	16.2692
0.000815	16.3543
0.000879	20.4003
0.001224	26.9591
0.001634	33.6457
0.001958	38.2027
0.002368	44.8893
0.002715	47.5298
0.003168	54.3015
0.003706	67.121
0.004116	73.8075
0.00442	76.3629
0.004719	86.7547
0.004978	91.184
0.005195	93.569
0.005408	103.79
0.005576	115.886
0.005741	135.818
0.00586	163.501
0.006125	254.216
0.006246	325.043
0.006483	429.429
0.006632	488.543
0.006846	494.847
0.006911	496.934
0.007038	503.066
0.007082	503.152
0.007147	503.279
0.007233	505.409
0.007255	505.451
0.007298	505.537
0.007384	507.666
0.007448	511.712
