Adsorption isotherm of Water on C1-Al
DOI: 10.1007/s10450-021-00336-6
Article source: Figure 9
Adsorbate Water: InChIKey XLYOFNOQVPJJNP-UHFFFAOYSA-N
Kind: experiment
Temperature: 278 K
Tabular data in the source: 0
pressure (bar)	uptake (mg/g)
0.000168	5.28109
0.000231	9.32709
0.000274	11.3714
0.000317	11.4566
0.000402	17.5043
0.000509	21.6354
0.000615	27.7257
0.000657	29.77
0.000721	31.8569
0.000743	31.8995
0.000892	40.0341
0.001086	44.3356
0.001364	54.6848
0.001579	59.029
0.001792	69.2504
0.002156	81.7291
0.00267	100.383
0.002905	110.647
0.003204	121.039
0.003655	135.647
0.003976	146.082
0.004299	152.598
0.004706	167.121
0.004943	171.508
0.005218	189.693
0.005364	203.705
0.005553	219.762
0.005659	225.852
0.005864	253.705
0.005878	322.359
0.006074	420.784
0.0062	581.814
0.006374	631.175
0.006524	635.392
0.006718	639.693
0.006802	645.741
0.006888	649.83
0.006951	653.876
0.007015	655.963
0.00708	658.049
0.00723	662.266
0.007316	664.395
0.007424	666.567
