Adsorption isotherm of Water on C1-Ti
DOI: 10.1007/s10450-021-00336-6
Article source: Figure 9
Adsorbate Water: InChIKey XLYOFNOQVPJJNP-UHFFFAOYSA-N
Kind: experiment
Temperature: 278 K
Tabular data in the source: 0
pressure (bar)	uptake (mg/g)
0.000232	7.36797
0.000317	11.4566
0.000403	13.586
0.000531	19.7189
0.000702	25.937
0.000746	26.0221
0.000939	32.2828
0.001175	38.6286
0.001197	38.6712
0.001303	44.7615
0.001626	51.2777
0.001819	57.5383
0.002141	67.9727
0.002484	78.4497
0.00274	88.7564
0.003168	105.281
0.003449	107.794
0.003965	122.53
0.004348	140.928
0.004818	159.497
0.005008	173.595
0.005176	185.69
0.005303	193.782
0.005534	211.882
0.005701	229.855
0.005885	255.707
0.005895	283.177
0.005897	328.279
0.006034	463.842
0.006072	624.702
0.006421	672.445
0.006526	680.494
0.006674	690.588
0.006759	694.676
0.006823	698.722
0.006885	704.727
0.006971	708.816
0.007057	710.945
0.007142	715.034
0.007142	715.034
0.007204	721.039
0.007226	721.082
0.007225	723.041
0.007331	729.131
