Adsorption isotherm of Carbon Dioxide, Ethane on Na-X
DOI: 10.1021/la960984z
Article source: Table 1
Adsorbate Carbon Dioxide: InChIKey CURLTUGMZLYLDI-UHFFFAOYSA-N
Adsorbate Ethane: InChIKey OTMSDBZUPAUEDD-UHFFFAOYSA-N
Kind: experiment
Temperature: 301 K
Tabular data in the source: 0
pressure (bar)	Carbon Dioxide fraction	Carbon Dioxide uptake (mmol/g)	Ethane fraction	Ethane uptake (mmol/g)	total uptake (mmol/g)
0.018425	0	0	1	0.224	0.224
0.03981	0	0	1	0.482	0.482
0.060795	0	0	1	0.735	0.735
0.082393	0	0	1	0.99	0.99
0.105498	0	0	1	1.249	1.249
0.131536	0	0	1	1.517	1.517
0.1592	0	0	1	1.768	1.768
0.192784	0	0	1	2.026	2.026
0.232488	0	0	1	2.275	2.275
0.27963	0	0	1	2.506	2.506
0.302122	0.002	0.192744	0.998	2.48426	2.677
0.334053	0.001	0.19509	0.999	2.59191	2.787
0.36729	0.003	0.396104	0.997	2.5599	2.956
0.396767	0.003	0.39364	0.997	2.63436	3.028
0.443297	0.006	0.610818	0.994	2.58718	3.198
0.494239	0.008	0.815022	0.992	2.53898	3.354
0.554608	0.007	0.815043	0.993	2.62396	3.439
0.618043	0.011	1.017	0.989	2.564	3.581
0.673225	0.01	1.01836	0.99	2.61864	3.637
0.738819	0.016	1.19377	0.984	2.56023	3.754
0.819053	0.013	1.19728	0.987	2.61572	3.813
0.899579	0.021	1.38301	0.979	2.54599	3.929
0.982719	0.016	1.38693	0.984	2.58707	3.974
1.06885	0.024	1.57157	0.976	2.51043	4.082
