Adsorption isotherm of Ethane, Methane on Silicalite MFI
DOI: 10.1021/la960984z
Article source: Table 1
Adsorbate Ethane: InChIKey OTMSDBZUPAUEDD-UHFFFAOYSA-N
Adsorbate Methane: InChIKey VNWKTOKETHGBQD-UHFFFAOYSA-N
Kind: experiment
Temperature: 298 K
Tabular data in the source: 0
pressure (bar)	Ethane fraction	Ethane uptake (mmol/g)	Methane fraction	Methane uptake (mmol/g)	total uptake (mmol/g)
0.071661	0	0	1	0.064	0.064
0.148268	0	0	1	0.126	0.126
0.237287	0	0	1	0.195	0.195
0.338386	0	0	1	0.267	0.267
0.36061	0.0194	0.12804	0.9806	0.25996	0.388
0.462669	0.0157	0.1278	0.9843	0.3222	0.45
0.48704	0.0308	0.238343	0.9692	0.314657	0.553
0.590045	0.0264	0.237728	0.9736	0.370272	0.608
0.618282	0.0382	0.341172	0.9618	0.360828	0.702
0.729927	0.0341	0.340054	0.9659	0.413946	0.754
0.76431	0.0455	0.441412	0.9545	0.402588	0.844
