Adsorption isotherm of Carbon Dioxide, Ethane on Na-X
DOI: 10.1021/la960984z
Article source: Table 1
Adsorbate Carbon Dioxide: InChIKey CURLTUGMZLYLDI-UHFFFAOYSA-N
Adsorbate Ethane: InChIKey OTMSDBZUPAUEDD-UHFFFAOYSA-N
Kind: experiment
Temperature: 298 K
Tabular data in the source: 0
pressure (bar)	Carbon Dioxide fraction	Carbon Dioxide uptake (mmol/g)	Ethane fraction	Ethane uptake (mmol/g)	total uptake (mmol/g)
0.018958	0	0	1	0.205	0.205
0.03689	0	0	1	0.398	0.398
0.054302	0	0	1	0.586	0.586
0.073314	0	0	1	0.786	0.786
0.092206	0	0	1	0.98	0.98
0.095539	0.002	0.163163	0.998	0.977837	1.141
0.11607	0.002	0.162504	0.998	1.1695	1.332
0.12271	0.005	0.34579	0.995	1.16421	1.51
0.147575	0.004	0.34578	0.996	1.34922	1.695
0.15984	0.008	0.562992	0.992	1.33901	1.902
0.178732	0.007	0.562464	0.993	1.45354	2.016
0.196424	0.011	0.77525	0.989	1.43975	2.215
0.23854	0.024	1.18622	0.976	1.40378	2.59
0.272031	0.023	1.18574	0.977	1.51526	2.701
0.302895	0.033	1.38384	0.967	1.49316	2.877
0.388915	0.053	1.82987	0.947	1.42613	3.256
0.446003	0.049	1.82917	0.951	1.51483	3.344
0.511438	0.07	2.05741	0.93	1.47159	3.529
0.584872	0.085	2.28537	0.915	1.41863	3.704
0.660946	0.073	2.28596	0.927	1.48004	3.766
0.759858	0.101	2.51447	0.899	1.42053	3.935
0.84817	0.109	2.6985	0.891	1.3655	4.064
0.966227	0.098	2.69664	0.902	1.42036	4.117
1.04126	0.121	2.82155	0.879	1.38345	4.205
