Adsorption isotherm of Xenon on MIL-53(Al)
DOI: 10.1002/anie.200903153
Adsorbate Xenon: InChIKey FHNFHKCVQCLJFQ-UHFFFAOYSA-N
Temperature: 323 K
Tabular data in the source: 0
pressure (bar)	uptake (cm3(STP)/g)
0.0664719	3.07196
0.101066	5.25683
0.133839	6.13078
0.197564	9.1896
0.33776	16.1812
0.463391	21.4249
0.603587	28.4165
0.738321	32.7862
0.869413	35.8451
1.06787	42.8367
