Adsorption isotherm of Xenon on MIL-53(Al)
DOI: 10.1002/anie.200903153
Adsorbate Xenon: InChIKey FHNFHKCVQCLJFQ-UHFFFAOYSA-N
Temperature: 273 K
Tabular data in the source: 0
pressure (bar)	uptake (cm3(STP)/g)
0.0646512	12.6854
0.101066	19.677
0.150225	26.2316
0.26129	65.1224
0.518013	69.9291
0.565351	71.24
0.672774	72.5509
0.807508	72.9879
0.93678	73.8619
1.06787	74.7358
