Adsorption isotherm of Xenon on MIL-53(Al)
DOI: 10.1002/anie.200903153
Adsorbate Xenon: InChIKey FHNFHKCVQCLJFQ-UHFFFAOYSA-N
Temperature: 195 K
Tabular data in the source: 0
pressure (bar)	uptake (cm3(STP)/g)
0.00820858	39.7778
0.00820858	65.5593
0.0227744	76.9207
0.0701133	78.6686
0.128377	203.206
0.219413	220.685
0.350506	233.358
0.674595	247.341
0.934959	250.837
1.19896	250.837
