Adsorption isotherm of Xenon on MIL-53(Al)
DOI: 10.1002/anie.200903153
Adsorbate Xenon: InChIKey FHNFHKCVQCLJFQ-UHFFFAOYSA-N
Temperature: 292 K
Tabular data in the source: 0
pressure (bar)	uptake (cm3(STP)/g)
0.124735	13.1224
0.270393	26.6686
0.405127	39.7778
0.528937	56.8199
0.725576	61.6266
0.820253	63.3745
0.954987	63.8115
