Adsorption isotherm of Xenon on MIL-53(Al)
DOI: 10.1002/anie.200903153
Adsorbate Xenon: InChIKey FHNFHKCVQCLJFQ-UHFFFAOYSA-N
Temperature: 220 K
Tabular data in the source: 0
pressure (bar)	uptake (cm3(STP)/g)
0.0154915	20.114
0.0173122	42.8367
0.0373402	66.8703
0.130197	76.0467
0.274035	79.9795
0.403307	166.938
0.654567	194.467
0.725576	198.837
0.934959	205.828
1.07333	209.761
1.13706	211.072
