Adsorption isotherm of Lead(II) Ion on Egyptian Na-montmorillonite
DOI: 10.1002/apj.2072
Article source: Figure 7
Adsorbate Lead(II) Ion: InChIKey RVPVRDXYQKGNMQ-UHFFFAOYSA-N
Kind: experiment
Temperature: 298 K
Tabular data in the source: 0
pressure (bar)	uptake (mg/g)
1.01325	1.99301
1.01325	3.72598
1.01325	4.80784
1.01325	5.91562
1.01325	6.35902
1.01325	7.2237
