Adsorption isotherm of Cadmium(II) Ion on Egyptian Na-montmorillonite
DOI: 10.1002/apj.2072
Article source: Figure 7
Adsorbate Cadmium(II) Ion: InChIKey WLZRMCYVCSSEQC-UHFFFAOYSA-N
Kind: experiment
Temperature: 298 K
Tabular data in the source: 0
pressure (bar)	uptake (mg/g)
1.01325	1.844
1.01325	3.08717
1.01325	3.67866
1.01325	4.3397
1.01325	5.21771
1.01325	5.64027
