Adsorption isotherm of Ni(II) on Egyptian Na-montmorillonite
DOI: 10.1002/apj.2072
Article source: Figure 7
Adsorbate Ni(II): InChIKey VEQPNABPJHWNSG-UHFFFAOYSA-N
Kind: experiment
Temperature: 298 K
Tabular data in the source: 0
pressure (bar)	uptake (mg/g)
1.01325	1.66721
1.01325	2.59938
1.01325	3.24571
1.01325	3.79236
1.01325	4.34
1.01325	4.55575
