Adsorption isotherm of Nitrogen on CuBTC
DOI: 10.1039/C2cc34782b
Adsorbate Nitrogen: InChIKey IJGRMHOSHXDMSA-UHFFFAOYSA-N
Temperature: 77 K
Tabular data in the source: 0
pressure (bar)	uptake (cm3(STP)/g)
0.0351152	327.5
0.0585253	332.5
0.105346	340
0.147484	343.75
0.198986	347.5
0.250488	350
0.301991	352.5
0.397972	356.25
0.496295	360
0.594617	362.5
0.688258	365
0.78658	370
0.884903	373.75
