Adsorption isotherm of Nitrogen on Pd/MOF-5
DOI: 10.1039/B706432b
Adsorbate Nitrogen: InChIKey IJGRMHOSHXDMSA-UHFFFAOYSA-N
Temperature: 77 K
Tabular data in the source: 0
pressure (bar)	uptake (cm3(STP)/g)
0.0017664	134.868
0.0123648	203.947
0.0317952	203.947
0.0600576	213.816
0.0918528	217.105
0.109517	217.105
0.123648	226.974
0.173107	230.263
0.224333	230.263
0.270259	233.553
0.317952	233.553
0.367411	236.842
0.41687	240.132
0.464563	240.132
0.512256	243.421
0.561715	243.421
0.609408	243.421
0.660634	246.711
0.70656	250
0.756019	250
0.805478	250
0.849638	253.289
0.950323	259.868
0.969754	315.789
