Adsorption isotherm of Nitrogen on IRMOF-1
DOI: 10.1039/B706432b
Adsorbate Nitrogen: InChIKey IJGRMHOSHXDMSA-UHFFFAOYSA-N
Temperature: 77 K
Tabular data in the source: 0
pressure (bar)	uptake (cm3(STP)/g)
0.0035328	217.105
0.0052992	269.737
0.0070656	427.632
0.0105984	585.526
0.0123648	618.421
0.0158976	648.026
0.0247296	671.053
0.035328	694.079
0.0476928	707.237
0.0635904	717.105
0.0741888	723.684
0.102451	733.553
0.123648	736.842
0.166042	750
0.215501	763.158
0.26496	769.737
0.314419	776.316
0.362112	782.895
0.413338	789.474
0.462797	792.763
0.512256	799.342
0.559949	802.632
0.609408	805.921
0.657101	809.211
0.70656	812.5
0.756019	812.5
0.805478	812.5
0.853171	819.079
0.900864	819.079
0.94679	822.368
0.97152	855.263
