Adsorption isotherm of Hydrogen on Pd/MOF-5
DOI: 10.1039/B706432b
Adsorbate Hydrogen: InChIKey UFHFLCQGNIYNRP-UHFFFAOYSA-N
Temperature: 77 K
Tabular data in the source: 0
pressure (bar)	uptake (cm3(STP)/g)
0.00363172	15.5738
0.0108952	26.2295
0.0544758	69.6721
0.107136	97.541
0.205192	130.328
0.303249	150.82
0.406753	167.213
0.510257	177.869
0.617392	187.705
0.717265	194.262
0.809874	199.18
0.911562	204.098
1.01325	207.377
