Adsorption isotherm of Hydrogen on IRMOF-1
DOI: 10.1039/B706432b
Adsorbate Hydrogen: InChIKey UFHFLCQGNIYNRP-UHFFFAOYSA-N
Temperature: 77 K
Tabular data in the source: 0
pressure (bar)	uptake (cm3(STP)/g)
0.0108952	4.09836
0.0562917	15.5738
0.107136	27.0492
0.207008	45.082
0.308696	59.8361
0.4122	73.7705
0.510257	86.0656
0.613761	95.9016
0.715449	105.738
0.820769	113.934
0.920641	121.311
1.01325	127.869
