Adsorption isotherm of Carbon Dioxide on DUT-25
DOI: 10.1002/chem.201202352
Adsorbate Carbon Dioxide: InChIKey CURLTUGMZLYLDI-UHFFFAOYSA-N
Temperature: 196 K
Tabular data in the source: 0
pressure (bar)	uptake (mmol/g)
0.0179641	0.266481
0.0419162	0.53453
0.0718563	1.3277
0.107784	2.38422
0.137725	3.43917
0.185629	5.02238
0.227545	7.12758
0.251497	10.2752
0.281437	18.6599
0.305389	23.9018
0.323353	27.8332
0.335329	33.8572
0.341317	38.5708
0.356287	41.1925
0.371257	44.3377
0.404192	45.917
0.45509	46.1921
0.538922	47.523
0.610778	47.8036
0.679641	48.6069
0.724551	48.6187
0.769461	49.154
0.817365	49.4283
0.874251	49.4432
0.892216	49.7097
