Adsorption isotherm of Methane on DUT-25
DOI: 10.1002/chem.201202352
Adsorbate Methane: InChIKey VNWKTOKETHGBQD-UHFFFAOYSA-N
Temperature: 298 K
Tabular data in the source: 0
pressure (bar)	uptake (mmol/g)
1.23167	0.285884
1.64223	0.855565
4.92669	2.13975
8.21114	3.56625
11.9062	4.56621
14.7801	5.56535
17.654	6.56448
20.1173	7.42088
22.1701	8.13455
25.044	8.99137
28.3284	9.99092
30.3812	10.1353
42.2874	13.7053
45.5718	14.4202
52.1408	15.8501
55.8358	16.5654
62.4047	17.7106
66.0997	18.2836
72.2581	19.2861
75.9531	19.8591
82.1114	20.577
85.3959	21.2919
92.3754	22.1529
96.0704	22.5836
100.176	23.157
102.639	23.4442
106.334	23.8749
112.082	24.3077
115.777	24.8807
121.935	25.3139
125.63	25.8869
130.557	26.3189
135.484	26.7508
