Adsorption isotherm of Krypton on DUT-25
DOI: 10.1002/chem.201202352
Adsorbate Krypton: InChIKey DNNSSWSSYDEUBZ-UHFFFAOYSA-N
Temperature: 298 K
Tabular data in the source: 0
pressure (bar)	uptake (mmol/g)
3.4749	1.33252
6.56371	3.00027
9.65251	4.66801
13.8996	6.50111
16.9884	7.83428
20.8494	9.33344
23.9382	10.6666
27.4131	12.3337
30.5019	13.165
37.8378	15.8294
40.5405	16.6613
43.6293	17.4926
54.0541	20.3191
57.529	20.9825
61.0039	21.9804
64.4788	22.6438
67.9537	23.3071
71.4286	23.9705
77.6062	25.1312
83.3977	26.2925
88.417	26.6187
91.1197	27.2834
94.5946	27.7794
98.4556	28.1076
100.386	28.2716
