Adsorption isotherm of Methane on DUT-25
DOI: 10.1002/chem.201202352
Adsorbate Methane: InChIKey VNWKTOKETHGBQD-UHFFFAOYSA-N
Temperature: 298 K
Tabular data in the source: 0
pressure (bar)	uptake (mmol/g)
2.46334	0.998716
6.15836	1.57174
9.85337	2.99865
12.3167	3.57042
15.6012	4.42765
18.8856	5.28489
22.5806	6.14254
25.8651	6.85746
42.6979	9.57858
46.393	10.0093
52.5513	10.7271
56.6569	11.0159
62.8152	11.4491
66.9208	11.7379
72.6686	12.0284
76.7742	12.1749
82.522	12.3231
86.6276	12.4696
92.7859	12.4758
96.8915	12.48
103.05	12.4862
107.155	12.4904
112.493	12.4958
116.598	12.3577
122.346	12.3635
126.452	12.2254
130.557	12.0873
135.894	12.0927
