Adsorption isotherm of Krypton on DUT-25
DOI: 10.1002/chem.201202352
Adsorbate Krypton: InChIKey DNNSSWSSYDEUBZ-UHFFFAOYSA-N
Temperature: 298 K
Tabular data in the source: 0
pressure (bar)	uptake (mmol/g)
7.16537	2.77597
10.1889	3.63747
12.4459	4.78615
14.3368	5.26476
18.1066	6.79633
20.3778	7.27494
22.6449	7.945
26.4228	9.09368
29.0681	9.85946
33.2283	10.9124
35.8756	11.5825
39.2814	12.3483
41.9308	12.9226
44.9625	13.4012
46.8555	13.7841
50.2674	14.2627
52.5447	14.4542
55.1941	15.0285
57.8435	15.6028
60.8833	15.6986
64.2972	16.0815
67.7152	16.2729
71.1311	16.5601
74.9293	16.7515
78.3433	17.1344
81.7633	17.2301
85.1833	17.3259
95.4495	17.3259
99.2538	17.2301
