Adsorption isotherm of Krypton on DUT-9-SCD
DOI: 10.1002/chem.201202352
Adsorbate Krypton: InChIKey DNNSSWSSYDEUBZ-UHFFFAOYSA-N
Temperature: 298 K
Tabular data in the source: 0
pressure (bar)	uptake (mmol/g)
8.68831	2.68024
12.8424	4.02036
19.6519	5.64765
26.4696	6.89205
33.2832	8.3279
40.109	9.1894
46.9328	10.1466
53.7626	10.8167
60.5925	11.4868
67.8006	12.2525
74.6386	12.5397
81.4725	13.0183
88.3146	13.114
95.1526	13.4012
