Adsorption isotherm of Hydrogen on DUT-25
DOI: 10.1002/chem.201202352
Adsorbate Hydrogen: InChIKey UFHFLCQGNIYNRP-UHFFFAOYSA-N
Temperature: 77 K
Tabular data in the source: 0
pressure (bar)	uptake (mmol/g)
0.378788	3.68658
2.65152	10.8429
3.40909	13.8789
8.71212	23.4206
10.6061	25.1555
17.4242	29.7095
21.9697	31.4443
26.1364	32.5286
29.1667	33.1792
36.7424	34.0466
42.803	34.4803
48.4848	34.2635
64.0152	33.396
71.5909	32.9623
79.5455	32.3118
89.0152	31.2275
93.9394	30.7937
99.6212	30.36
