Adsorption isotherm of Krypton on MIL-100
DOI: 10.1002/chem.201202352
Adsorbate Krypton: InChIKey DNNSSWSSYDEUBZ-UHFFFAOYSA-N
Temperature: 298 K
Tabular data in the source: 0
pressure (bar)	uptake (mmol/g)
3.78195	0.957229
6.05315	1.43584
7.94006	2.1059
9.829	2.68024
12.0982	3.25458
13.9912	3.63747
16.6487	3.82892
19.2981	4.40325
20.8109	4.78615
24.2268	5.07332
26.498	5.55193
29.916	5.74338
33.3299	6.12627
36.7439	6.50916
39.7796	6.79633
46.6135	7.27494
52.6911	7.56211
59.5291	7.84928
66.7473	8.13645
73.9656	8.42362
80.8117	8.3279
87.6517	8.51934
94.874	8.61506
97.1554	8.61506
