Adsorption isotherm of Hydrogen on DUT-25
DOI: 10.1002/chem.201202352
Adsorbate Hydrogen: InChIKey UFHFLCQGNIYNRP-UHFFFAOYSA-N
Temperature: 77 K
Tabular data in the source: 0
pressure (bar)	uptake (mmol/g)
0.378788	3.25286
1.89394	8.02372
5.30303	17.9992
7.19697	21.4689
9.84848	24.288
16.2879	29.2757
25	32.3118
29.1667	33.1792
37.1212	34.2635
42.4242	34.2635
53.7879	33.8298
65.5303	33.396
71.9697	32.7455
89.7727	31.4443
96.2121	30.7937
102.652	30.36
