Adsorption isotherm of Carbon Dioxide on DUT-25
DOI: 10.1002/chem.201202352
Adsorbate Carbon Dioxide: InChIKey CURLTUGMZLYLDI-UHFFFAOYSA-N
Temperature: 298 K
Tabular data in the source: 0
pressure (bar)	uptake (mmol/g)
0.839161	0.428275
2.30769	1.49896
3.35664	2.78379
4.82517	4.06862
6.5035	5.78172
7.76224	7.06654
9.02098	8.99378
10.6993	10.921
11.3287	11.9917
12.5874	13.4907
13.8462	15.4179
16.993	19.4865
18.042	20.9855
19.7203	22.0562
20.7692	23.7693
22.4476	24.6258
23.7063	26.1248
25.3846	26.9813
27.0629	28.052
28.7413	28.6945
30.4196	29.551
32.5175	30.1934
34.4056	30.8358
36.2937	31.2641
38.3916	31.6924
40.4895	31.9065
42.3776	32.3348
44.2657	32.5489
46.3636	32.7631
48.4615	32.9772
49.5105	33.1913
50.1399	32.9772
52.2378	33.4055
54.3357	33.6196
54.5455	33.6196
