Adsorption isotherm of Hydrogen on DUT-25
DOI: 10.1002/chem.201202352
Adsorbate Hydrogen: InChIKey UFHFLCQGNIYNRP-UHFFFAOYSA-N
Temperature: 77 K
Tabular data in the source: 0
pressure (bar)	uptake (mmol/g)
0.381919	4.3094
1.48397	8.22999
2.95654	14.1102
4.78823	19.6001
7.33436	23.5264
9.51757	27.0596
12.7876	31.3803
15.6872	33.7414
18.5886	36.4941
21.4882	38.8553
24.7468	40.8262
29.0885	42.8013
31.9843	44.3791
34.8819	46.3486
40.6696	48.7211
43.9245	49.9087
46.8183	51.0949
49.7102	51.8895
63.4498	56.2512
66.3456	57.829
75.7396	59.4323
78.2648	59.0506
80.7996	60.627
88.7514	62.6163
90.9195	63.0164
97.0682	65.3903
100.315	65.0114
