Adsorption isotherm of Hydrogen on DUT-25
DOI: 10.1002/chem.201202352
Adsorbate Hydrogen: InChIKey UFHFLCQGNIYNRP-UHFFFAOYSA-N
Temperature: 77 K
Tabular data in the source: 0
pressure (bar)	uptake (mmol/g)
0.378788	3.25286
2.65152	9.97544
5.30303	17.9992
7.19697	21.4689
9.84848	24.288
19.3182	31.0106
25	32.3118
29.1667	33.1792
37.1212	34.2635
42.4242	34.2635
64.0152	33.1792
65.5303	33.396
74.6212	32.0949
84.4697	31.6612
89.0152	30.7937
94.697	30.36
99.2424	29.7095
104.924	29.2757
