Adsorption isotherm of Carbon Dioxide on DUT-25
DOI: 10.1002/chem.201202352
Adsorbate Carbon Dioxide: InChIKey CURLTUGMZLYLDI-UHFFFAOYSA-N
Temperature: 298 K
Tabular data in the source: 0
pressure (bar)	uptake (mmol/g)
1.06007	0.713792
2.75618	2.37931
4.66431	4.52068
6.36042	6.18619
7.63251	8.08964
9.11661	9.99308
10.6007	12.1345
12.5088	14.5138
13.3569	15.9413
15.477	18.5586
16.3251	20.2241
18.4452	22.8413
19.7173	24.031
21.6254	26.4103
22.2615	27.1241
23.7456	28.5517
25.4417	29.5034
26.9258	30.693
28.6219	31.6448
30.318	32.8344
32.2261	33.5482
34.1343	34.4999
36.0424	34.9758
37.9505	35.9275
40.0707	36.4034
41.7668	37.3551
43.8869	37.831
45.7951	38.5447
47.9152	39.0206
49.8233	39.7344
51.9435	40.4482
53.8516	41.162
54.6996	41.3999
