Adsorption isotherm of Hydrogen on DUT-25
DOI: 10.1002/chem.201202352
Adsorbate Hydrogen: InChIKey UFHFLCQGNIYNRP-UHFFFAOYSA-N
Temperature: 77 K
Tabular data in the source: 0
pressure (bar)	uptake (mmol/g)
0.757576	0.757576
1.51515	8.89115
2.65152	10.8429
4.92424	17.3486
6.81818	21.0352
9.09091	23.4206
10.9848	25.3723
12.8788	26.8903
17.0455	29.7095
21.5909	31.0106
24.6212	32.3118
30.6818	33.396
35.9848	34.0466
45.4545	34.2635
50.3788	34.2635
60.2273	33.6129
64.3939	33.6129
72.7273	32.9623
79.5455	32.3118
84.8485	32.3118
