Adsorption isotherm of Hydrogen on DUT-25
DOI: 10.1002/chem.201202352
Adsorbate Hydrogen: InChIKey UFHFLCQGNIYNRP-UHFFFAOYSA-N
Temperature: 77 K
Tabular data in the source: 0
pressure (bar)	uptake (mmol/g)
0.374318	2.74286
1.11345	6.2704
1.85069	9.4063
3.67478	13.3297
4.77873	17.6419
7.32296	21.1766
9.86338	23.9279
12.4038	26.6792
15.3033	29.0404
18.5582	30.228
21.8131	31.4156
24.705	32.2102
27.9561	32.6146
30.8461	33.0175
36.6262	33.8234
42.0434	34.2362
48.1807	34.2603
54.6771	33.8941
59.7294	33.5222
65.1428	33.1518
72.0002	32.787
77.7727	32.0264
83.9081	31.6588
90.4045	31.2926
97.262	30.9278
102.673	30.1658
