Adsorption isotherm of Nitrogen on DUT-13
DOI: 10.1002/chem.201202352
Adsorbate Nitrogen: InChIKey IJGRMHOSHXDMSA-UHFFFAOYSA-N
Temperature: 77 K
Tabular data in the source: 0
pressure (bar)	uptake (cm3(STP)/g)
0.00536277	119.172
0.0069954	201.686
0.00852842	311.708
0.0106093	270.437
0.0120427	407.966
0.0464608	504.079
0.0714206	545.222
0.0964801	558.857
0.12154	572.492
0.152344	599.854
0.173557	608.923
0.192772	636.34
0.215767	686.661
0.242426	791.979
0.265272	883.562
0.290099	961.382
0.313094	1011.7
0.338004	1066.6
0.363014	1093.99
0.391887	1121.36
0.409203	1139.62
0.438143	1148.65
0.4651	1171.44
0.484399	1175.94
0.52874	1198.65
0.582771	1212.15
0.630992	1230.26
0.677315	1239.21
0.721739	1239
0.769976	1252.53
0.822143	1247.7
0.870397	1256.64
0.920615	1256.4
0.943743	1270.05
