Adsorption isotherm of Hydrogen on DUT-25
DOI: 10.1002/chem.201202352
Adsorbate Hydrogen: InChIKey UFHFLCQGNIYNRP-UHFFFAOYSA-N
Temperature: 77 K
Tabular data in the source: 0
pressure (bar)	uptake (mmol/g)
0.378788	2.81915
0.757576	1.30114
1.13636	4.98772
1.89394	9.75858
2.27273	11.7103
3.40909	13.2283
5.30303	17.5654
6.81818	20.6015
8.71212	23.2037
10.6061	25.3723
12.8788	27.1072
15.5303	28.4083
19.3182	30.36
22.3485	31.4443
25.7576	32.7455
30.6818	33.6129
36.3636	34.0466
45.0758	34.2635
50.3788	34.2635
54.9242	34.0466
60.2273	33.8298
65.1515	33.6129
70.4545	32.9623
75	32.5286
79.5455	31.878
