Adsorption isotherm of Nitrogen on DUT-25
DOI: 10.1002/chem.201202352
Adsorbate Nitrogen: InChIKey IJGRMHOSHXDMSA-UHFFFAOYSA-N
Temperature: 77 K
Tabular data in the source: 0
pressure (bar)	uptake (cm3(STP)/g)
0.00546239	91.6648
0.00866124	275.031
0.00982899	485.914
0.012729	751.802
0.0133931	568.418
0.0258011	875.523
0.0371243	948.822
0.042703	1008.39
0.0598373	1077.08
0.067281	1154.98
0.0979025	1232.78
0.122912	1260.16
0.171116	1282.86
0.200039	1296.48
0.250241	1300.82
0.300409	1314.34
0.323537	1327.99
0.346715	1327.88
0.369876	1332.35
0.398832	1336.8
0.423908	1345.85
0.443206	1350.34
0.49146	1359.29
0.535851	1368.24
0.584138	1368.02
0.634307	1381.53
0.670939	1399.7
0.73273	1403.99
0.781017	1403.76
0.825408	1412.72
0.873678	1417.08
0.921916	1430.61
0.947008	1435.07
