Adsorption isotherm of Nitrogen on DUT-10(Zn)
DOI: 10.1002/chem.201202352
Adsorbate Nitrogen: InChIKey IJGRMHOSHXDMSA-UHFFFAOYSA-N
Temperature: 77 K
Tabular data in the source: 0
pressure (bar)	uptake (cm3(STP)/g)
0.0212131	9.06895
0.0637058	8.86843
0.083004	13.3619
0.113924	8.63145
0.158332	13.0064
0.183458	8.30333
0.208567	8.18484
0.237556	3.46352
0.430671	11.7213
0.498273	11.4023
0.54656	11.1744
0.592949	1.78645
0.643134	10.7187
0.691422	10.4908
0.735846	10.2812
0.789927	10.026
0.83242	9.82546
0.882639	9.58848
0.925131	9.38796
0.952172	9.26036
