Adsorption isotherm of Hydrogen on IRMOF-1
DOI: 10.1021/Cm101943e
Adsorbate Hydrogen: InChIKey UFHFLCQGNIYNRP-UHFFFAOYSA-N
Temperature: 77 K
Tabular data in the source: 0
pressure (bar)	uptake (wt%)
0.0182292	0.132692
0.0234375	0.161538
0.0364583	0.196154
0.046875	0.242308
0.0677083	0.276923
0.0833333	0.311538
0.109375	0.363462
0.132812	0.398077
0.164062	0.45
0.210937	0.501923
0.265625	0.559615
0.341146	0.617308
0.424479	0.680769
0.533854	0.755769
0.669271	0.836538
0.84375	0.917308
1.0651	1.02692
