Adsorption isotherm of Nitrogen on IRMOF-1
DOI: 10.1021/Cm101943e
Adsorbate Nitrogen: InChIKey IJGRMHOSHXDMSA-UHFFFAOYSA-N
Temperature: 77 K
Tabular data in the source: 0
pressure (bar)	uptake (cm3(STP)/g)
0.0127136	199.286
0.0297839	208.929
0.0492804	215.357
0.0785077	218.571
0.107726	218.571
0.127205	218.571
0.151554	218.571
0.166181	225
0.183217	221.786
0.210009	225
0.231923	225
0.263568	221.786
0.297665	225
0.329318	225
0.375581	225
0.416966	221.786
0.472977	225
0.531414	225
0.621505	225
0.694552	225
0.782199	221.786
0.857689	225
0.96485	234.643
