Adsorption isotherm of Hydrogen on IRMOF-1
DOI: 10.1021/Cm101943e
Adsorbate Hydrogen: InChIKey UFHFLCQGNIYNRP-UHFFFAOYSA-N
Temperature: 77 K
Tabular data in the source: 0
pressure (bar)	uptake (wt%)
0.015625	0.161538
0.0234375	0.196154
0.03125	0.230769
0.0364583	0.265385
0.0546875	0.311538
0.0677083	0.369231
0.0807292	0.403846
0.106771	0.473077
0.130208	0.525
0.169271	0.576923
0.210937	0.646154
0.265625	0.709615
0.341146	0.778846
0.421875	0.848077
0.533854	0.928846
0.669271	1.00962
0.84375	1.10192
1.0651	1.19423
