Adsorption isotherm of Nitrogen on IRMOF-1
DOI: 10.1021/Cm101943e
Adsorbate Nitrogen: InChIKey IJGRMHOSHXDMSA-UHFFFAOYSA-N
Temperature: 77 K
Tabular data in the source: 0
pressure (bar)	uptake (cm3(STP)/g)
0.00313927	260.357
0.0178529	298.929
0.0349232	308.571
0.0544197	315
0.0665942	315
0.0909604	321.429
0.108013	324.643
0.125066	327.857
0.161581	324.643
0.181069	327.857
0.207852	327.857
0.234636	327.857
0.258994	331.071
0.295517	331.071
0.334484	334.286
0.373442	334.286
0.42214	334.286
0.473273	334.286
0.534145	334.286
0.599895	337.5
0.677803	334.286
0.780077	337.5
0.875038	337.5
0.960267	340.714
