Adsorption isotherm of Nitrogen on IRMOF-1
DOI: 10.1021/Cm101943e
Adsorbate Nitrogen: InChIKey IJGRMHOSHXDMSA-UHFFFAOYSA-N
Temperature: 77 K
Tabular data in the source: 0
pressure (bar)	uptake (cm3(STP)/g)
0.000278273	102.857
0.00295665	192.857
0.0037132	472.5
0.0056959	305.357
0.00588721	376.071
0.00680899	716.786
0.0215314	758.571
0.028923	790.714
0.262916	880.714
0.297021	887.143
0.335988	890.357
0.374964	896.786
0.42367	900
0.472377	903.214
0.53571	912.857
0.603896	916.071
0.681812	916.071
0.767059	925.714
0.862028	928.929
0.971607	932.143
