Adsorption isotherm of Hydrogen on IRMOF-1
DOI: 10.1021/Cm101943e
Adsorbate Hydrogen: InChIKey UFHFLCQGNIYNRP-UHFFFAOYSA-N
Temperature: 77 K
Tabular data in the source: 0
pressure (bar)	uptake (wt%)
0.0182292	0.0634615
0.0286458	0.0923077
0.0442708	0.109615
0.0546875	0.144231
0.0677083	0.178846
0.0807292	0.196154
0.106771	0.242308
0.135417	0.288462
0.164062	0.351923
0.210937	0.426923
0.263021	0.507692
0.335938	0.6
0.427083	0.721154
0.533854	0.830769
0.669271	0.975
0.846354	1.125
1.0651	1.30962
