Adsorption isotherm of Nitrogen on IRMOF-1
DOI: 10.1021/Cm101943e
Adsorbate Nitrogen: InChIKey IJGRMHOSHXDMSA-UHFFFAOYSA-N
Temperature: 77 K
Tabular data in the source: 0
pressure (bar)	uptake (cm3(STP)/g)
0.00573068	318.214
0.00587851	372.857
0.00848732	437.143
0.0183225	472.5
0.0378451	488.571
0.0622201	498.214
0.0865863	504.643
0.103648	511.071
0.118266	514.286
0.132875	514.286
0.152354	514.286
0.162094	514.286
0.179138	514.286
0.203496	517.5
0.235149	517.5
0.26195	523.929
0.296039	523.929
0.335006	527.143
0.373964	527.143
0.422662	527.143
0.473794	527.143
0.551711	527.143
0.622322	527.143
0.697804	527.143
0.783016	523.929
0.877977	523.929
0.960806	540
