Adsorption isotherm of Nitrogen on IRMOF-1
DOI: 10.1021/Cm101943e
Adsorbate Nitrogen: InChIKey IJGRMHOSHXDMSA-UHFFFAOYSA-N
Temperature: 77 K
Tabular data in the source: 0
pressure (bar)	uptake (cm3(STP)/g)
0.015192	215.357
0.0298187	221.786
0.0444367	225
0.0712378	231.429
0.100483	241.071
0.122397	241.071
0.137006	241.071
0.151624	244.286
0.185712	244.286
0.21007	247.5
0.231975	244.286
0.261194	244.286
0.297717	244.286
0.329371	244.286
0.373207	247.5
0.424349	250.714
0.473064	257.143
0.533936	257.143
0.599678	257.143
0.677594	257.143
0.762824	260.357
0.857785	260.357
0.957641	270
