Adsorption isotherm of Hydrogen on IRMOF-1
DOI: 10.1021/Cm101943e
Adsorbate Hydrogen: InChIKey UFHFLCQGNIYNRP-UHFFFAOYSA-N
Temperature: 77 K
Tabular data in the source: 0
pressure (bar)	uptake (wt%)
0.015625	0.294231
0.0208333	0.334615
0.0234375	0.380769
0.03125	0.444231
0.0390625	0.507692
0.0520833	0.565385
0.0651042	0.646154
0.0859375	0.726923
0.106771	0.819231
0.132812	0.9
0.169271	0.998077
0.213542	1.09615
0.270833	1.19423
0.346354	1.29808
0.442708	1.39615
0.53125	1.47115
0.669271	1.56346
0.84375	1.64423
1.0625	1.73654
