Adsorption isotherm of Nitrogen on IRMOF-1
DOI: 10.1021/Cm101943e
Adsorbate Nitrogen: InChIKey IJGRMHOSHXDMSA-UHFFFAOYSA-N
Temperature: 77 K
Tabular data in the source: 0
pressure (bar)	uptake (cm3(STP)/g)
0.00870472	517.5
0.013618	533.571
0.0185486	556.071
0.0258881	568.929
0.0380886	578.571
0.26222	623.571
0.291447	626.786
0.330414	630
0.376677	630
0.422949	633.214
0.471646	633.214
0.551998	633.214
0.620183	636.429
0.695656	633.214
0.778433	630
0.878264	630
0.963554	655.714
