Adsorption isotherm of Hydrogen on IRMOF-1
DOI: 10.1021/Cm101943e
Adsorbate Hydrogen: InChIKey UFHFLCQGNIYNRP-UHFFFAOYSA-N
Temperature: 77 K
Tabular data in the source: 0
pressure (bar)	uptake (wt%)
0.015625	0.213462
0.0234375	0.242308
0.0286458	0.282692
0.0364583	0.328846
0.0416667	0.357692
0.0546875	0.398077
0.0651042	0.45
0.0833333	0.496154
0.109375	0.582692
0.132812	0.640385
0.169271	0.726923
0.210937	0.813462
0.265625	0.905769
0.335938	1.00385
0.429688	1.10769
0.533854	1.21154
0.671875	1.32692
0.864583	1.45385
1.06771	1.575
