Adsorption isotherm of Hydrogen on IRMOF-1
DOI: 10.1021/Cm101943e
Adsorbate Hydrogen: InChIKey UFHFLCQGNIYNRP-UHFFFAOYSA-N
Temperature: 77 K
Tabular data in the source: 0
pressure (bar)	uptake (wt%)
0.015625	0.323077
0.0286458	0.403846
0.0338542	0.461538
0.0416667	0.507692
0.0546875	0.6
0.0651042	0.657692
0.0807292	0.715385
0.101562	0.819231
0.130208	0.911538
0.166667	0.998077
0.210937	1.10769
0.265625	1.21154
0.341146	1.30385
0.429688	1.40769
0.53125	1.5
0.671875	1.58654
0.846354	1.67885
1.0651	1.76538
