Adsorption isotherm of Methane on AR-V carbon
DOI: 10.1007/s10450-021-00338-4
Article source: Figure 5
Adsorbate Methane: InChIKey VNWKTOKETHGBQD-UHFFFAOYSA-N
Kind: experiment
Temperature: 273 K
Tabular data in the source: 0
pressure (bar)	uptake (mmol/g)
0.1	0.11
0.13	0.146
0.15	0.166
0.19	0.199
0.24	0.25
0.3	0.301
0.35	0.355
0.47	0.45
0.57	0.526
0.68	0.609
0.85	0.722
1	0.816
1.27	0.966
1.53	1.093
1.88	1.244
5.21	2.138
15.84	3.484
25.04	4.146
35.05	4.623
47.38	5.013
57.84	5.243
66.71	5.392
79.13	5.552
88.17	5.644
99.13	5.735
109.53	5.806
