Adsorption isotherm of Methane on AR-V carbon
DOI: 10.1007/s10450-021-00338-4
Article source: Figure 5
Adsorbate Methane: InChIKey VNWKTOKETHGBQD-UHFFFAOYSA-N
Kind: experiment
Temperature: 213 K
Tabular data in the source: 0
pressure (bar)	uptake (mmol/g)
0.1	0.574
0.13	0.715
0.17	0.872
0.19	0.955
0.25	1.186
0.31	1.381
0.38	1.576
0.43	1.728
0.55	1.986
0.65	2.172
0.86	2.495
1	2.671
1.21	2.905
1.58	3.213
1.85	3.402
5.22	4.617
15.66	5.842
25.53	6.279
