Adsorption isotherm of Nitrogen on AR-V microporous carbon
DOI: 10.1007/s10450-021-00338-4
Article source: Figure 1A
Adsorbate Nitrogen: InChIKey IJGRMHOSHXDMSA-UHFFFAOYSA-N
Kind: experiment
Temperature: 77 K
Tabular data in the source: 0
pressure (bar)	uptake (mmol/g)
0.031326	0.288183
0.041606	5.67463
0.039573	5.96508
0.050944	6.31919
0.057819	6.60908
0.064671	6.8667
0.071503	7.09208
0.076064	7.25308
0.089727	7.70382
0.17977	9.1497
0.238055	9.72663
0.289488	10.0459
0.349806	10.3324
0.441214	10.4879
0.528103	10.5469
0.650686	10.7004
0.730895	10.7598
0.82894	10.8503
0.9181	10.9737
0.9739	11.1637
1.00309	11.5166
0.134867	8.60417
0.139364	8.6684
0.217841	9.46986
0.31848	10.1086
0.432349	10.553
0.52153	10.7086
0.626278	10.8309
0.719912	10.9863
0.820141	11.0122
0.911527	11.1354
0.976277	11.3893
1.03218	11.7406
