Adsorption isotherm of Methane on AR-V carbon
DOI: 10.1007/s10450-021-00338-4
Article source: Figure 5
Adsorbate Methane: InChIKey VNWKTOKETHGBQD-UHFFFAOYSA-N
Kind: experiment
Temperature: 393 K
Tabular data in the source: 0
pressure (bar)	uptake (mmol/g)
0.11	0.01
0.13	0.012
0.16	0.015
0.19	0.018
0.24	0.022
0.3	0.028
0.36	0.033
0.45	0.042
0.54	0.049
0.68	0.062
0.85	0.077
1.05	0.095
1.3	0.117
1.49	0.133
1.84	0.162
5.26	0.426
16.61	1.073
25.59	1.446
38.88	1.883
46.39	2.091
60.76	2.435
68.61	2.601
82.96	2.873
94.43	3.067
102.95	3.199
113.31	3.348
