Adsorption isotherm of Methane on AR-V carbon
DOI: 10.1007/s10450-021-00338-4
Article source: Figure 5
Adsorbate Methane: InChIKey VNWKTOKETHGBQD-UHFFFAOYSA-N
Kind: experiment
Temperature: 243 K
Tabular data in the source: 0
pressure (bar)	uptake (mmol/g)
0.1	0.188
0.13	0.231
0.16	0.288
0.19	0.343
0.24	0.424
0.28	0.488
0.37	0.614
0.46	0.742
0.55	0.858
0.65	0.981
0.81	1.171
1.03	1.39
1.27	1.599
1.58	1.837
1.92	2.063
5.37	3.339
15.47	4.67
25.64	5.272
37.61	5.684
48.36	5.922
59.39	6.091
69.67	6.205
76.4	6.263
