Adsorption isotherm of Methane on AR-V carbon
DOI: 10.1007/s10450-021-00338-4
Article source: Figure 5
Adsorbate Methane: InChIKey VNWKTOKETHGBQD-UHFFFAOYSA-N
Kind: experiment
Temperature: 313 K
Tabular data in the source: 0
pressure (bar)	uptake (mmol/g)
0.1	0.039
0.13	0.048
0.15	0.059
0.19	0.07
0.24	0.089
0.29	0.108
0.36	0.131
0.43	0.159
0.54	0.194
0.66	0.235
0.8	0.281
1.01	0.345
1.24	0.414
1.48	0.481
1.83	0.574
5.06	1.224
15.68	2.341
25.32	2.943
35.57	3.413
45.98	3.783
55.49	4.056
65.09	4.286
77.22	4.525
86.98	4.685
98.41	4.846
105.05	4.927
