Adsorption isotherm of Methane on AR-V carbon
DOI: 10.1007/s10450-021-00338-4
Article source: Figure 5
Adsorbate Methane: InChIKey VNWKTOKETHGBQD-UHFFFAOYSA-N
Kind: experiment
Temperature: 353 K
Tabular data in the source: 0
pressure (bar)	uptake (mmol/g)
0.1	0.018
0.12	0.021
0.17	0.029
0.21	0.036
0.25	0.043
0.3	0.052
0.37	0.063
0.47	0.081
0.53	0.09
0.66	0.112
0.81	0.136
1.04	0.173
1.24	0.204
1.62	0.261
1.94	0.308
5.12	0.704
16.24	1.591
26.37	2.111
35.01	2.456
45.58	2.806
59.81	3.193
67.74	3.377
77.79	3.585
91.07	3.825
101.94	3.996
110.07	4.112
