Adsorption isotherm of Methane on AR-V carbon
DOI: 10.1007/s10450-021-00338-4
Article source: Figure 5
Adsorbate Methane: InChIKey VNWKTOKETHGBQD-UHFFFAOYSA-N
Kind: experiment
Temperature: 293 K
Tabular data in the source: 0
pressure (bar)	uptake (mmol/g)
0.1	0.071
0.12	0.087
0.16	0.109
0.2	0.134
0.23	0.156
0.31	0.202
0.36	0.235
0.45	0.289
0.57	0.353
0.65	0.395
0.84	0.49
1.04	0.587
1.21	0.66
1.54	0.788
1.95	0.931
5.04	1.652
16.15	2.884
25.46	3.5
36.51	4.019
46.8	4.37
58.46	4.668
69.03	4.873
77.31	5.005
87.7	5.141
95.57	5.228
105.03	5.317
