Adsorption isotherm of Hydrogen on MOF-74
DOI: 10.1021/La703864a
Adsorbate Hydrogen: InChIKey UFHFLCQGNIYNRP-UHFFFAOYSA-N
Temperature: 77 K
Tabular data in the source: 0
pressure (bar)	uptake (wt%)
0.001067	0.081587
0.002266	0.162966
0.003466	0.234386
0.004933	0.302733
0.006666	0.372873
0.008932	0.442359
0.011865	0.514474
0.015598	0.582977
0.021998	0.668086
0.03613	0.782497
0.06266	0.900745
0.094657	0.989041
0.136653	1.07173
0.178915	1.1371
0.231044	1.18746
0.258241	1.23557
0.295837	1.2754
0.339433	1.29496
0.426891	1.36825
0.549145	1.45424
0.708196	1.54716
0.855114	1.61917
1.14815	1.73524
1.49518	1.84217
1.90244	1.94135
2.374	2.03337
2.94861	2.12714
3.70136	2.21952
4.7106	2.3232
5.92381	2.42773
7.65164	2.54224
9.38079	2.61161
12.1179	2.66207
14.9482	2.70832
17.9516	2.75141
21.2593	2.78128
24.8522	2.75104
27.9373	2.73753
31.201	2.73374
