Adsorption isotherm of Hydrogen on MOF-74
DOI: 10.1021/La703864a
Adsorbate Hydrogen: InChIKey UFHFLCQGNIYNRP-UHFFFAOYSA-N
Temperature: 87 K
Tabular data in the source: 0
pressure (bar)	uptake (wt%)
0.013732	0.199055
0.025864	0.319707
0.033597	0.381382
0.046529	0.464737
0.065193	0.554824
0.09839	0.666882
0.165183	0.806765
0.258241	0.927983
0.36983	1.02855
0.490084	1.11176
0.628737	1.19017
0.844716	1.29
1.13989	1.40022
1.46399	1.49963
1.79405	1.58495
2.16535	1.66767
2.50958	1.73536
