Adsorption isotherm of Hydrogen on MOF-177
DOI: 10.1021/La703864a
Adsorbate Hydrogen: InChIKey UFHFLCQGNIYNRP-UHFFFAOYSA-N
Temperature: 77 K
Tabular data in the source: 0
pressure (bar)	uptake (wt%)
0.0196606	0.0173806
0.0914256	0.154967
0.195933	0.327203
0.261195	0.447634
0.320176	0.499776
0.398595	0.620431
0.536069	0.776183
0.614637	0.862749
0.666966	0.931823
0.791433	1.05326
0.876504	1.15699
0.935561	1.19208
