Adsorption isotherm of N-propane, Propene on Zeolite 4A
DOI: 10.1023/a:1026223914143
Article source: Table 2
Adsorbate N-propane: InChIKey ATUOYWHBWRKTHZ-UHFFFAOYSA-N
Adsorbate Propene: InChIKey QQONPFPTGQHPMA-UHFFFAOYSA-N
Kind: experiment
Temperature: 473 K
Tabular data in the source: 0
pressure (bar)	N-propane fraction	N-propane uptake (mmol/g)	Propene fraction	Propene uptake (mmol/g)	total uptake (mmol/g)
1.0293	0.938	0.32936	0.062	0.13064	0.46
0.9084	0.883	0.297306	0.117	0.200694	0.498
0.9426	0.718	0.203061	0.282	0.395939	0.599
0.9939	0.586	0.142847	0.414	0.534153	0.677
1.0635	0.411	0.07614	0.589	0.73386	0.81
1.1899	0.043	0.006664	0.957	0.945336	0.952
