Adsorption isotherm of Propene on Zeolite 4A
DOI: 10.1023/a:1026223914143
Article source: Figure 3
Adsorbate Propene: InChIKey QQONPFPTGQHPMA-UHFFFAOYSA-N
Kind: experiment
Temperature: 423 K
Tabular data in the source: 0
pressure (bar)	uptake (mmol/g)
0.0259	0.141
0.041	0.296
0.0561	0.349
0.069	0.426
0.0971	0.4
0.138	0.575
0.207	0.704
0.207	0.715
0.289	0.878
0.33	0.939
0.509	1.04
0.649	1.19
0.662	1.18
1.02	1.31
1.48	1.42
2.31	1.56
3.64	1.73
4.61	1.83
