Adsorption isotherm of N-propane, Propene on Zeolite 4A
DOI: 10.1023/a:1026223914143
Article source: Table 2
Adsorbate N-propane: InChIKey ATUOYWHBWRKTHZ-UHFFFAOYSA-N
Adsorbate Propene: InChIKey QQONPFPTGQHPMA-UHFFFAOYSA-N
Kind: experiment
Temperature: 423 K
Tabular data in the source: 0
pressure (bar)	N-propane fraction	N-propane uptake (mmol/g)	Propene fraction	Propene uptake (mmol/g)	total uptake (mmol/g)
0.8461	0.95	0.344373	0.05	0.228627	0.573
0.3797	0.894	0.20475	0.106	0.24525	0.45
1.0415	0.886	0.33579	0.114	0.48321	0.819
1.4542	0.776	0.255528	0.224	0.836472	1.092
1.0745	0.504	0.087934	0.496	1.05407	1.142
0.9951	0.376	0.062964	0.624	1.10304	1.166
0.9841	0.105	0.036888	0.895	1.23511	1.272
