Adsorption isotherm of N-propane on Zeolite 4A
DOI: 10.1023/a:1026223914143
Article source: Figure 2
Adsorbate N-propane: InChIKey ATUOYWHBWRKTHZ-UHFFFAOYSA-N
Kind: experiment
Temperature: 423 K
Tabular data in the source: 0
pressure (bar)	uptake (mmol/g)
0.14	0.0866
0.504	0.306
1.14	0.576
2.18	0.837
3.66	1.08
