Adsorption isotherm of Propene on Zeolite 4A
DOI: 10.1023/a:1026223914143
Article source: Figure 3
Adsorbate Propene: InChIKey QQONPFPTGQHPMA-UHFFFAOYSA-N
Kind: experiment
Temperature: 473 K
Tabular data in the source: 0
pressure (bar)	uptake (mmol/g)
0.0475	0.128
0.0604	0.164
0.101	0.232
0.145	0.286
0.28	0.441
0.416	0.613
0.431	0.64
0.641	0.798
0.651	0.753
0.986	0.97
1.14	0.979
1.92	1.19
2.5	1.3
4.16	1.53
4.7	1.58
