Adsorption isotherm of N-propane on Zeolite 4A
DOI: 10.1023/a:1026223914143
Article source: Figure 2
Adsorbate N-propane: InChIKey ATUOYWHBWRKTHZ-UHFFFAOYSA-N
Kind: experiment
Temperature: 473 K
Tabular data in the source: 0
pressure (bar)	uptake (mmol/g)
0.275	0.125
0.895	0.328
1.26	0.463
2.21	0.631
3.68	0.839
