Adsorption isotherm of Nitrogen on Carbon
DOI: 10.1021/jp0479567
Adsorbate Nitrogen: InChIKey IJGRMHOSHXDMSA-UHFFFAOYSA-N
Temperature: 77 K
Tabular data in the source: 0
pressure (bar)	uptake (micromoles/m2)
0.00372489	-0.0320745
0.0137359	3.14284
0.0380483	5.7171
0.0666512	7.51908
0.115276	8.89202
0.171052	10.1791
0.25543	11.8095
0.364121	13.7831
0.439919	15.7567
0.469952	17.2155
0.580073	19.7897
0.614396	21.1626
0.694484	21.9349
0.717366	23.3079
0.774572	25.2815
0.831778	27.8557
0.887553	31.2881
0.910436	33.9481
0.940469	38.4102
0.970502	42.7006
0.994814	48.0207
