Adsorption isotherm of Nitrogen on Carbon
DOI: 10.1021/jp0479567
Adsorbate Nitrogen: InChIKey IJGRMHOSHXDMSA-UHFFFAOYSA-N
Temperature: 77 K
Tabular data in the source: 0
pressure (bar)	uptake (molecules/unitcell)
1.07e-15	0.0249685
3.07e-15	0.0162291
1.02e-14	0.0249685
2.92e-14	0.0249685
5.71e-14	0.033708
9.68e-14	0.086145
2.88e-13	0.252195
6.71e-13	0.505641
1.14e-12	0.776565
1.93e-12	1.25724
3.05e-12	1.65925
6.17e-12	2.45455
1.01e-11	2.8653
2.12e-11	3.3722
2.91e-11	3.56446
6.53e-11	3.78295
1.03e-10	3.86161
3.67e-10	3.96648
