Adsorption isotherm of Nitrogen on Carbon
DOI: 10.1021/jp0479567
Adsorbate Nitrogen: InChIKey IJGRMHOSHXDMSA-UHFFFAOYSA-N
Temperature: 77 K
Tabular data in the source: 0
pressure (bar)	uptake (molecules/unitcell)
9.77e-16	0.0789342
3.04e-15	0.26485
5.74e-15	0.501469
9.9e-15	0.822596
1.96e-14	1.324
2.81e-14	1.724
5.95e-14	2.42823
9.58e-14	2.94654
2.12e-13	3.38034
2.79e-13	3.54936
5.76e-13	3.75781
9.93e-13	3.81978
2.95e-12	3.93809
1.03e-11	3.96062
6.19e-11	3.98879
2.96e-10	3.98316
9.87e-10	3.98316
3.07e-09	3.99443
9.34e-09	3.98316
