Adsorption isotherm of Nitrogen on Carbon
DOI: 10.1021/jp0479567
Adsorbate Nitrogen: InChIKey IJGRMHOSHXDMSA-UHFFFAOYSA-N
Temperature: 77 K
Tabular data in the source: 0
pressure (bar)	uptake (micromoles/m2)
0.00229475	-0.117883
0.00229475	6.14614
0.00944547	7.77651
0.0308976	9.23525
0.0566402	10.1791
0.0981143	11.123
0.199654	12.7534
0.301195	14.1263
0.408455	16.0141
0.507135	17.4729
0.604385	18.9316
0.703065	20.4762
0.806035	23.2221
0.904715	26.7402
1.00196	33.7765
