Adsorption isotherm of Nitrogen on Carbon
DOI: 10.1021/jp0479567
Adsorbate Nitrogen: InChIKey IJGRMHOSHXDMSA-UHFFFAOYSA-N
Temperature: 77 K
Tabular data in the source: 0
pressure (bar)	uptake (micromoles/m2)
0.00515504	6.23195
0.0308976	8.11974
0.0595005	9.32106
0.0995445	10.0933
0.202515	11.8095
0.301195	13.2683
0.397014	14.3838
0.498554	16.1857
0.600095	17.5587
0.701635	19.4465
0.804605	22.1065
0.904715	25.4531
1.00626	32.7468
