Adsorption isotherm of Copper(II) Ion, Co(II) on CTA
DOI: 10.1016/j.jcis.2016.10.043
Article source: Figure 2a
Adsorbate Copper(II) Ion: InChIKey JPVYNHNXODAKFH-UHFFFAOYSA-N
Adsorbate Co(II): InChIKey XLJKHNWPARRRJB-UHFFFAOYSA-N
Kind: experiment
Temperature: 298 K
Tabular data in the source: 0
pressure (bar)	Copper(II) Ion fraction	Copper(II) Ion uptake (mmol/g)	Co(II) fraction	Co(II) uptake (mmol/g)	total uptake (mmol/g)
1.01325	0.02089	0.30971	0.05682	0.14349	
1.01325	0.03179	0.40141	0.08486	0.16993	
1.01325	0.04905	0.47805	0.11919	0.17551	
1.01325	0.06903	0.53513	0.14837	0.19437	
1.01325	0.08447	0.60275	0.17297	0.23408	
1.01325	0.11081	0.70343	0.23248	0.19128	
1.01325	0.1317	0.82818	0.26223	0.24613	
1.01325	0.198	0.96181	0.37953	0.2202	
1.01325	0.2743	0.98414	0.4705	0.17446	
1.01325	0.39691	1.14617	0.66618	0.11608	
1.01325	0.53951	1.19086	0.84485	0.04964	
