Adsorption isotherm of Ni(II), Copper(II) Ion on CTA
DOI: 10.1016/j.jcis.2016.10.043
Article source: Figure 2b
Adsorbate Ni(II): InChIKey  VEQPNABPJHWNSG-UHFFFAOYSA-N
Adsorbate Copper(II) Ion: InChIKey JPVYNHNXODAKFH-UHFFFAOYSA-N
Kind: experiment
Temperature: 298 K
Tabular data in the source: 0
pressure (bar)	Ni(II) fraction	Ni(II) uptake (mmol/g)	Copper(II) Ion fraction	Copper(II) Ion uptake (mmol/g)	total uptake (mmol/g)
1.01325	0.04522	0.13603	0.02028	0.30146	
1.01325	0.0494	0.25289	0.02445	0.44428	
1.01325	0.07491	0.30492	0.04001	0.52224	
1.01325	0.11185	0.23258	0.06269	0.57101	
1.01325	0.14519	0.23704	0.08038	0.63815	
1.01325	0.19342	0.25995	0.10585	0.75618	
1.01325	0.22817	0.26875	0.13701	0.84393	
1.01325	0.3012	0.34044	0.1915	1.06052	
1.01325	0.37927	0.29856	0.25745	1.11487	
1.01325	0.53536	0.27862	0.38007	1.29603	
1.01325	0.71069	0.12786	0.54967	1.22855	
1.01325	0.88027	0.08526	0.7214	1.15999	
1.01325	1.04064	0.04371	0.87178	1.20278	
1.01325	1.17544	0.03775	1.02218	1.2142	
