Adsorption isotherm of Ni(II), Co(II) on CTA
DOI: 10.1016/j.jcis.2016.10.043
Article source: Figure 2c
Adsorbate Ni(II): InChIKey VEQPNABPJHWNSG-UHFFFAOYSA-N
Adsorbate Co(II): InChIKey XLJKHNWPARRRJB-UHFFFAOYSA-N
Kind: experiment
Temperature: 298 K
Tabular data in the source: 0
pressure (bar)	Ni(II) fraction	Ni(II) uptake (mmol/g)	Co(II) fraction	Co(II) uptake (mmol/g)	total uptake (mmol/g)
1.01325	0.02269	0.10695	0.03866	0.10937	
1.01325	0.04249	0.16372	0.05612	0.16508	
1.01325	0.06129	0.22646	0.08108	0.23058	
1.01325	0.08014	0.26351	0.10296	0.26484	
1.01325	0.10897	0.28384	0.12924	0.29835	
1.01325	0.13379	0.31731	0.15864	0.33751	
1.01325	0.16256	0.37229	0.20123	0.37178	
1.01325	0.20233	0.39801	0.24446	0.39552	
1.01325	0.27082	0.50797	0.33779	0.45692	
1.01325	0.3385	0.51698	0.41419	0.51342	
1.01325	0.4519	0.56484	0.59301	0.4789	
1.01325	0.6342	0.50939	0.76235	0.47637	
1.01325	0.77753	0.53098	0.91786	0.49377	
1.01325	0.92787	0.52629	1.10603	0.48448	
1.01325	1.06922	0.53593	1.26909	0.48608	
