Adsorption isotherm of Helium on KOH Activated Anthracite 2
DOI: 10.1016/j.carbon.2009.08.040
Article source: Figure 3a
Adsorbate Helium: InChIKey SWQJXJOGLNCZEY-UHFFFAOYSA-N
Kind: experiment
Temperature: 50 K
Tabular data in the source: 0
pressure (bar)	uptake (mg/g)
0.538278	3.74138
1.11244	7.24138
1.79426	10.5
2.51196	13.5172
3.15789	16.5345
3.83971	19.5517
4.5933	22.2069
5.38278	24.8621
6.17225	27.2759
7.03349	29.569
7.89474	31.8621
8.75598	34.1552
9.65311	35.9655
10.5861	38.2586
11.555	39.9483
13.4569	43.931
14.4976	45.6207
15.5024	47.431
16.5789	49
17.6555	50.569
19.8086	54.1897
22.1053	57.0862
24.4019	60.2241
26.7703	63.1207
29.2105	65.8966
