Adsorption isotherm of Helium on KOH Activated Anthracite 1
DOI: 10.1016/j.carbon.2009.08.040
Article source: Figure 6
Adsorbate Helium: InChIKey SWQJXJOGLNCZEY-UHFFFAOYSA-N
Kind: experiment
Temperature: 40 K
Tabular data in the source: 0
pressure (bar)	uptake (mg/g)
0.340357	7.90778
0.753647	13.1141
1.11831	16.9703
1.58023	20.6329
2.11507	24.1022
2.72285	27.378
3.37925	30.4606
4.08428	33.157
4.88655	35.8528
5.73744	38.3554
6.66126	40.8575
7.63371	42.9734
8.65478	44.8961
9.74878	46.8183
10.8671	48.5475
12.034	50.6622
13.2496	52.1978
14.4895	53.7332
15.7536	55.2685
17.0908	56.6103
18.4522	57.9521
19.8136	59.2938
22.1232	61.2082
24.5057	63.7009
26.9125	65.0359
29.4408	67.1419
