Adsorption isotherm of Helium on KOH Activated Anthracite 3
DOI: 10.1016/j.carbon.2009.08.040
Article source: Figure 3a
Adsorbate Helium: InChIKey SWQJXJOGLNCZEY-UHFFFAOYSA-N
Kind: experiment
Temperature: 50 K
Tabular data in the source: 0
pressure (bar)	uptake (mg/g)
1.32775	7.48276
2.69139	14.2414
3.40909	17.2586
4.19856	20.1552
5.02392	22.931
5.8134	25.4655
6.67464	27.8793
7.53589	30.2931
8.4689	32.4655
10.3708	37.0517
12.3445	41.1552
14.4617	45.1379
16.5789	48.7586
18.8038	52.1379
21.1005	55.5172
23.433	58.8966
25.8732	61.6724
28.3493	64.6897
