Adsorption isotherm of Helium on KOH Activated Anthracite 1
DOI: 10.1016/j.carbon.2009.08.040
Article source: Figure 6
Adsorbate Helium: InChIKey SWQJXJOGLNCZEY-UHFFFAOYSA-N
Kind: experiment
Temperature: 30 K
Tabular data in the source: 0
pressure (bar)	uptake (mg/g)
0	8.8746
0.145867	15.6261
0.218801	21.0275
0.340357	25.464
0.510535	30.2861
0.729335	34.722
1.02107	38.7716
1.33712	42.821
1.75041	46.4839
2.23663	49.9535
2.79579	53.0367
3.40357	56.1196
4.10859	58.6231
4.86224	61.3192
5.64019	63.4364
7.07455	66.7069
8.60616	69.9768
10.2836	72.667
12.0583	75.3565
13.8331	77.6602
15.7293	79.9632
17.6499	81.6871
19.7164	84.3748
21.7585	85.9051
23.8736	88.0137
26.0373	90.5078
28.2496	92.4228
