Adsorption isotherm of Helium on KOH Activated Anthracite 3
DOI: 10.1016/j.carbon.2009.08.040
Article source: Figure 3b
Adsorbate Helium: InChIKey SWQJXJOGLNCZEY-UHFFFAOYSA-N
Kind: experiment
Temperature: 20 K
Tabular data in the source: 0
pressure (bar)	uptake (mg/g)
0	20.3583
0.005814	40.3094
0.080572	58.6319
0.190037	67.5896
0.263386	76.1401
0.444849	84.2834
0.662252	91.6124
0.915595	98.127
1.38564	107.085
1.96368	114.821
2.57766	121.743
3.33581	128.257
4.12984	133.55
4.99599	138.844
5.89813	143.73
6.87234	148.208
7.81043	152.28
8.85669	156.352
9.90295	160.423
11.4542	166.124
13.0416	171.417
14.737	176.303
16.4324	181.189
18.236	186.482
20.0757	191.368
21.9514	196.254
23.9352	200.733
25.9552	206.026
28.0473	211.319
