Adsorption isotherm of Helium on CO2 Activated Bituminous
DOI: 10.1016/j.carbon.2009.08.040
Article source: Figure 3b
Adsorbate Helium: InChIKey SWQJXJOGLNCZEY-UHFFFAOYSA-N
Kind: experiment
Temperature: 20 K
Tabular data in the source: 0
pressure (bar)	uptake (mg/g)
0.112519	30.1303
0.61856	38.6808
1.23225	43.5668
2.09816	47.2313
3.07224	50.8958
4.08215	52.9316
5.09206	54.9674
6.17409	57.0033
7.21994	58.2248
8.3019	59.8534
9.81674	62.7036
11.5117	64.7394
13.1347	67.1824
14.8296	68.8111
16.5607	70.8469
18.2556	72.4756
20.0588	74.5114
21.862	76.5472
23.6652	78.5831
25.5405	81.0261
27.3798	83.0619
29.3632	85.0977
