Adsorption isotherm of Helium on KOH Activated Anthracite 1
DOI: 10.1016/j.carbon.2009.08.040
Article source: Figure 6
Adsorbate Helium: InChIKey SWQJXJOGLNCZEY-UHFFFAOYSA-N
Kind: experiment
Temperature: 150 K
Tabular data in the source: 0
pressure (bar)	uptake (mg/g)
1.11831	0.185734
3.98703	0.360212
6.32091	0.538129
7.94976	0.913506
10.3809	1.0908
11.5478	1.27622
13.2496	1.26528
16.7747	1.62846
19.2545	2.19129
22.731	2.16893
25.9643	2.72692
29.4165	2.89764
