Adsorption isotherm of Helium on KOH Activated Anthracite 1
DOI: 10.1016/j.carbon.2009.08.040
Article source: Figure 6
Adsorbate Helium: InChIKey SWQJXJOGLNCZEY-UHFFFAOYSA-N
Kind: experiment
Temperature: 135 K
Tabular data in the source: 0
pressure (bar)	uptake (mg/g)
1.11831	0.185734
2.21232	0.371625
3.28201	0.17182
4.44895	0.550168
8.89789	1.29326
10.0405	1.47884
12.8849	1.65347
18.671	2.77382
24.5543	3.31476
27.5203	3.68154
