Adsorption isotherm of Helium on KOH Activated Anthracite 3
DOI: 10.1016/j.carbon.2009.08.040
Article source: Figure 4
Adsorbate Helium: InChIKey SWQJXJOGLNCZEY-UHFFFAOYSA-N
Kind: experiment
Temperature: 120 K
Tabular data in the source: 0
pressure (bar)	uptake (mg/g)
0.965033	0.209205
1.92999	0.39749
2.85931	0.606695
4.78938	1.0251
6.93403	1.5272
9.43634	2.17573
11.9386	2.80335
14.4408	3.41004
16.9785	3.9749
19.5164	4.60251
22.0899	5.16736
24.6988	5.66946
27.3081	6.27615
29.9171	6.77824
