Adsorption isotherm of Nitrogen on CO2 Activated Bituminous
DOI: 10.1016/j.carbon.2009.08.040
Article source: Figure 1a
Adsorbate Nitrogen: InChIKey IJGRMHOSHXDMSA-UHFFFAOYSA-N
Kind: experiment
Temperature: 77 K
Tabular data in the source: 0
pressure (bar)	uptake (cm3(STP)/g)
2.7e-05	26.6174
0.005132	184.104
0.022473	224.03
0.049678	243.993
0.080588	261.738
0.104073	268.392
0.127557	275.046
0.15722	281.701
0.181938	286.137
0.21407	290.573
0.26103	295.009
0.291928	301.664
0.3117	301.664
0.363603	306.1
0.398215	319.409
0.414269	310.536
0.506973	337.153
0.508189	319.409
0.60213	348.244
0.607054	330.499
0.700991	354.898
0.709625	339.372
0.799853	363.771
0.813432	350.462
0.906126	368.207
0.920952	365.989
1.00251	370.425
