Adsorption isotherm of Nitrogen on KOH Activated Anthracite 3
DOI: 10.1016/j.carbon.2009.08.040
Article source: Figure 1a
Adsorbate Nitrogen: InChIKey IJGRMHOSHXDMSA-UHFFFAOYSA-N
Kind: experiment
Temperature: 77 K
Tabular data in the source: 0
pressure (bar)	uptake (cm3(STP)/g)
0.001234	40.0027
0.003702	391.119
0.020981	533.379
0.046898	613.436
0.071582	671.268
0.097499	726.88
0.11848	766.927
0.151802	820.333
0.171549	844.821
0.202403	884.888
0.251769	931.663
0.302371	958.441
0.361611	983.015
0.408509	989.785
0.501071	1001.1
0.603507	1016.88
0.708411	1028.22
0.813316	1039.56
0.90958	1048.66
1.00708	1064.43
