Adsorption isotherm of Helium on Activated Carbon Monolith
DOI: 10.1016/j.carbon.2009.08.040
Article source: Figure 6
Adsorbate Helium: InChIKey SWQJXJOGLNCZEY-UHFFFAOYSA-N
Kind: experiment
Temperature: 105 K
Tabular data in the source: 0
pressure (bar)	uptake (mg/g)
2.21232	0.757477
4.3517	1.51542
8.82496	2.45129
13.4441	3.77206
18.2334	4.70589
21.7585	5.262
