Adsorption isotherm of Nitrogen on KOH Activated Anthracite 1
DOI: 10.1016/j.carbon.2009.08.040
Article source: Figure 1a
Adsorbate Nitrogen: InChIKey IJGRMHOSHXDMSA-UHFFFAOYSA-N
Kind: experiment
Temperature: 77 K
Tabular data in the source: 0
pressure (bar)	uptake (cm3(STP)/g)
5.9e-05	57.671
0.005278	326.063
0.021392	374.861
0.046131	399.261
0.079515	419.224
0.104235	425.878
0.128955	432.532
0.161087	436.969
0.185805	441.405
0.216699	443.623
0.264893	445.841
0.316793	448.059
0.369929	450.277
0.420594	452.495
0.51945	454.713
0.620777	456.932
0.72334	459.15
0.825903	461.368
0.919816	463.586
1.00385	468.022
