Adsorption isotherm of Helium on Activated Carbon Monolith
DOI: 10.1016/j.carbon.2009.08.040
Article source: Figure 3b
Adsorbate Helium: InChIKey SWQJXJOGLNCZEY-UHFFFAOYSA-N
Kind: experiment
Temperature: 20 K
Tabular data in the source: 0
pressure (bar)	uptake (mg/g)
0	8.95765
0	17.5081
0	24.8371
0.004757	32.9805
0.079045	48.0456
0.260332	54.9674
0.513734	61.8893
1.92186	74.9186
4.33914	84.6906
7.54945	92.8339
11.3364	99.3485
15.4841	106.678
20.0283	113.192
