Adsorption isotherm of Nitrogen on NaOH Activated Anthracite
DOI: 10.1016/j.carbon.2009.08.040
Article source: Figure 1a
Adsorbate Nitrogen: InChIKey IJGRMHOSHXDMSA-UHFFFAOYSA-N
Kind: experiment
Temperature: 77 K
Tabular data in the source: 0
pressure (bar)	uptake (cm3(STP)/g)
0	0
0.001234	240.003
0.004937	337.789
0.024683	411.165
0.048132	453.439
0.071582	480.157
0.099967	504.664
0.117246	515.813
0.155504	540.341
0.176486	549.276
0.213511	562.69
0.256707	571.674
0.301137	585.105
0.307308	578.452
0.362845	587.462
0.402338	596.438
0.415914	592.023
0.494901	607.752
0.514647	596.684
0.591166	610.185
0.617082	601.353
0.694835	614.857
0.718285	606.02
0.799739	619.532
0.823189	612.916
0.905878	624.209
0.915751	615.342
1.00584	633.317
