Adsorption isotherm of Helium on Activated Carbon Monolith
DOI: 10.1016/j.carbon.2009.08.040
Article source: Figure 6
Adsorbate Helium: InChIKey SWQJXJOGLNCZEY-UHFFFAOYSA-N
Kind: experiment
Temperature: 30 K
Tabular data in the source: 0
pressure (bar)	uptake (mg/g)
0	8.68167
0.170178	17.3622
0.364668	25.271
0.802269	33.9498
1.45867	41.2768
2.52836	48.6011
4.20583	55.3427
6.56402	61.5012
9.62723	66.6905
14.9514	72.637
21.4668	77.997
