Adsorption isotherm of Helium on CO2 Activated Bituminous
DOI: 10.1016/j.carbon.2009.08.040
Article source: Figure 3a
Adsorbate Helium: InChIKey SWQJXJOGLNCZEY-UHFFFAOYSA-N
Kind: experiment
Temperature: 50 K
Tabular data in the source: 0
pressure (bar)	uptake (mg/g)
0.717703	2.41379
1.54306	4.82759
2.44019	6.75862
3.33732	8.56897
4.34211	10.1379
6.92584	13.6379
9.65311	16.7759
12.488	19.431
15.5024	21.8448
18.5167	24.0172
21.6388	26.069
24.8684	27.8793
28.1699	29.4483
