Adsorption isotherm of Helium on Activated Carbon Monolith
DOI: 10.1016/j.carbon.2009.08.040
Article source: Figure 6
Adsorbate Helium: InChIKey SWQJXJOGLNCZEY-UHFFFAOYSA-N
Kind: experiment
Temperature: 40 K
Tabular data in the source: 0
pressure (bar)	uptake (mg/g)
0.170178	4.4362
0.437601	9.06471
1.11831	17.1632
2.11507	23.1375
3.64668	29.8801
5.81037	36.4257
8.72771	42.1947
12.4716	47.3796
17.0178	51.7877
21.3938	55.2322
