Adsorption isotherm of Helium on Activated Carbon Monolith
DOI: 10.1016/j.carbon.2009.08.040
Article source: Figure 6
Adsorbate Helium: InChIKey SWQJXJOGLNCZEY-UHFFFAOYSA-N
Kind: experiment
Temperature: 150 K
Tabular data in the source: 0
pressure (bar)	uptake (mg/g)
1.094	0.185891
1.84765	0.37397
4.64344	0.355991
7.02593	0.340669
9.7731	0.708855
12.3501	0.885208
15.0486	1.06078
17.5527	1.04468
20.0081	1.41474
