Adsorption isotherm of Helium on KOH Activated Anthracite 1
DOI: 10.1016/j.carbon.2009.08.040
Article source: Figure 3b
Adsorbate Helium: InChIKey SWQJXJOGLNCZEY-UHFFFAOYSA-N
Kind: experiment
Temperature: 20 K
Tabular data in the source: 0
pressure (bar)	uptake (mg/g)
0	8.14332
0.004463	30.9446
0.042694	46.0098
0.115925	53.7459
0.370208	66.7752
0.767606	72.0684
1.27324	77.7687
1.92286	81.8404
2.68066	85.9121
3.54651	89.1694
4.52042	91.6124
5.56651	94.4625
6.68465	96.9055
7.83891	99.7557
9.60609	102.199
11.4094	105.456
13.2849	108.306
15.2684	111.156
17.288	113.599
19.3437	116.45
21.4716	119.707
23.6715	122.557
25.9436	125.814
28.2518	129.072
