Adsorption isotherm of Helium on KOH Activated Anthracite 1
DOI: 10.1016/j.carbon.2009.08.040
Article source: Figure 6
Adsorbate Helium: InChIKey SWQJXJOGLNCZEY-UHFFFAOYSA-N
Kind: experiment
Temperature: 105 K
Tabular data in the source: 0
pressure (bar)	uptake (mg/g)
1.094	0.378817
2.18801	0.757633
3.28201	1.13645
4.3517	1.51542
7.14749	2.46207
10.0162	3.40826
12.9092	3.96843
15.8023	5.10738
18.7682	5.86001
21.7585	6.61249
24.7974	7.36465
27.8363	8.11681
