Adsorption isotherm of Helium on Activated Carbon Monolith
DOI: 10.1016/j.carbon.2009.08.040
Article source: Figure 6
Adsorbate Helium: InChIKey SWQJXJOGLNCZEY-UHFFFAOYSA-N
Kind: experiment
Temperature: 75 K
Tabular data in the source: 0
pressure (bar)	uptake (mg/g)
0.899514	0.958846
2.18801	2.30104
4.52188	4.60115
7.12318	6.7066
9.84603	8.61835
12.7877	10.5287
15.9238	12.2449
19.2545	13.7669
20.8833	14.5281
