Adsorption isotherm of Helium on Activated Carbon Monolith
DOI: 10.1016/j.carbon.2009.08.040
Article source: Figure 3a
Adsorbate Helium: InChIKey SWQJXJOGLNCZEY-UHFFFAOYSA-N
Kind: experiment
Temperature: 50 K
Tabular data in the source: 0
pressure (bar)	uptake (mg/g)
0.466507	3.62069
1.07656	6.87931
1.83014	10.0172
2.61962	13.0345
4.52153	18.1034
5.63397	20.6379
7.78708	24.5
10.0837	28
12.6316	31.2586
15.4665	34.0345
18.4091	36.8103
21.2799	38.8621
