Adsorption isotherm of Helium on KOH Activated Anthracite 2
DOI: 10.1016/j.carbon.2009.08.040
Article source: Figure 3b
Adsorbate Helium: InChIKey SWQJXJOGLNCZEY-UHFFFAOYSA-N
Kind: experiment
Temperature: 20 K
Tabular data in the source: 0
pressure (bar)	uptake (mg/g)
0	14.658
0.001116	7.73616
0.004228	29.316
0.042517	44.7883
0.043222	49.6743
0.153275	62.7036
0.190331	69.6254
0.372146	80.2117
1.52999	107.899
2.10785	114.414
3.01041	122.15
3.84056	127.85
4.67059	132.736
5.57273	137.622
6.51088	142.101
7.91801	148.208
9.39708	153.094
10.9483	158.388
12.4996	163.681
14.1229	168.974
15.8183	173.86
17.5138	179.153
19.2812	182.818
22.2031	191.368
25.2333	200.733
28.4075	208.469
