Adsorption isotherm of Helium on NaOH Activated Anthracite
DOI: 10.1016/j.carbon.2009.08.040
Article source: Figure 4
Adsorbate Helium: InChIKey SWQJXJOGLNCZEY-UHFFFAOYSA-N
Kind: experiment
Temperature: 120 K
Tabular data in the source: 0
pressure (bar)	uptake (mg/g)
2.0012	0.334728
3.03758	0.523013
4.00254	0.711297
7.18358	1.40167
10.329	2.13389
13.5103	2.88703
16.7269	3.53556
19.9436	4.20502
23.1601	4.83264
26.448	5.43933
29.7357	6.00418
