Adsorption isotherm of Helium on KOH Activated Anthracite 1
DOI: 10.1016/j.carbon.2009.08.040
Article source: Figure 6
Adsorbate Helium: InChIKey SWQJXJOGLNCZEY-UHFFFAOYSA-N
Kind: experiment
Temperature: 60 K
Tabular data in the source: 0
pressure (bar)	uptake (mg/g)
0.705024	1.92473
1.45867	4.04207
2.21232	5.77355
3.0389	7.6975
3.79254	9.23606
4.69206	10.9666
5.54295	12.3116
6.44246	13.8492
7.36629	15.1938
8.31442	16.5382
9.31118	17.8822
11.6451	20.5682
14.0762	23.2535
16.6288	25.7452
19.2788	27.6574
22.0259	29.9548
24.846	31.8659
27.7391	33.5837
