Adsorption isotherm of Helium on KOH Activated Anthracite 2
DOI: 10.1016/j.carbon.2009.08.040
Article source: Figure 4
Adsorbate Helium: InChIKey SWQJXJOGLNCZEY-UHFFFAOYSA-N
Kind: experiment
Temperature: 120 K
Tabular data in the source: 0
pressure (bar)	uptake (mg/g)
3.61021	0.857741
7.00755	2.11297
10.4403	3.28452
13.9089	4.49791
17.3772	5.62762
20.8455	6.7364
24.3492	7.78243
27.8525	8.70293
