Adsorption isotherm of Helium on Activated Carbon Monolith
DOI: 10.1016/j.carbon.2009.08.040
Article source: Figure 4
Adsorbate Helium: InChIKey SWQJXJOGLNCZEY-UHFFFAOYSA-N
Kind: experiment
Temperature: 120 K
Tabular data in the source: 0
pressure (bar)	uptake (mg/g)
1.60841	0.355649
3.18096	0.669456
6.36185	1.31799
9.57845	1.96653
12.8663	2.57322
16.1182	3.09623
19.406	3.68201
22.1219	4.14226
