Adsorption isotherm of Helium on Activated Carbon Monolith
DOI: 10.1016/j.carbon.2009.08.040
Article source: Figure 6
Adsorbate Helium: InChIKey SWQJXJOGLNCZEY-UHFFFAOYSA-N
Kind: experiment
Temperature: 60 K
Tabular data in the source: 0
pressure (bar)	uptake (mg/g)
0.705024	2.11765
1.72609	4.81205
3.01459	7.69766
4.54619	10.1958
6.24797	12.5
8.09562	15.1891
10.1621	17.298
13.7358	20.5548
17.0178	23.2346
20.5916	25.5267
