Adsorption isotherm of Helium on KOH Activated Anthracite 1
DOI: 10.1016/j.carbon.2009.08.040
Article source: Figure 6
Adsorbate Helium: InChIKey SWQJXJOGLNCZEY-UHFFFAOYSA-N
Kind: experiment
Temperature: 90 K
Tabular data in the source: 0
pressure (bar)	uptake (mg/g)
0.996759	0.186516
1.99352	0.758884
2.99028	1.33125
3.98703	1.90362
4.93517	2.4763
5.93193	3.04867
6.92869	3.42811
7.94976	4.19325
11.5964	5.71321
14.295	7.04633
17.0421	7.9933
19.8622	9.13272
22.6823	10.0792
25.5754	11.0252
28.4927	11.9711
