Adsorption isotherm of Nitrogen on KOH Activated Anthracite 2
DOI: 10.1016/j.carbon.2009.08.040
Article source: Figure 1a
Adsorbate Nitrogen: InChIKey IJGRMHOSHXDMSA-UHFFFAOYSA-N
Kind: experiment
Temperature: 77 K
Tabular data in the source: 0
pressure (bar)	uptake (cm3(STP)/g)
0	0
0.001234	306.669
0.004937	435.566
0.023449	544.496
0.046898	606.77
0.07405	666.829
0.099967	709.108
0.117246	731.368
0.146866	766.989
0.170315	789.262
0.208574	816.013
0.256707	833.896
0.299903	845.102
0.306073	858.449
0.354206	851.888
0.394933	871.977
0.407275	860.893
0.504774	883.329
0.604741	890.215
0.607209	879.109
0.707177	897.107
0.710879	886.004
0.807145	903.992
0.815784	895.122
0.907112	906.434
0.913283	899.781
1.00461	911.092
