Adsorption isotherm of Helium on NaOH Activated Anthracite
DOI: 10.1016/j.carbon.2009.08.040
Article source: Figure 3b
Adsorbate Helium: InChIKey SWQJXJOGLNCZEY-UHFFFAOYSA-N
Kind: experiment
Temperature: 20 K
Tabular data in the source: 0
pressure (bar)	uptake (mg/g)
0	11.8078
0.003465	24.0228
0.04334	50.4886
0.152687	58.6319
0.334033	65.9609
0.62361	73.6971
1.05712	79.3974
1.63481	84.6906
2.2845	89.1694
3.04235	93.6482
3.90827	97.3127
4.81018	100.57
5.78421	103.827
6.83035	107.085
7.91249	109.935
9.03063	112.378
10.1848	114.821
11.3751	117.671
13.1064	120.928
14.9097	124.186
16.7852	127.443
18.6968	131.107
20.6804	133.958
22.7361	137.215
24.8281	141.287
26.9919	144.137
29.2281	148.208
