Adsorption isotherm of Helium on KOH Activated Anthracite 1
DOI: 10.1016/j.carbon.2009.08.040
Article source: Figure 4
Adsorbate Helium: InChIKey SWQJXJOGLNCZEY-UHFFFAOYSA-N
Kind: experiment
Temperature: 120 K
Tabular data in the source: 0
pressure (bar)	uptake (mg/g)
1.25075	0.209205
2.46585	0.439331
3.68111	0.711297
4.89637	0.983264
7.75575	1.61088
10.7224	2.28033
13.7247	2.92887
16.727	3.55649
19.7647	4.12134
22.8382	4.68619
25.9473	5.25105
29.0564	5.79498
