Adsorption isotherm of Helium on KOH Activated Anthracite 1
DOI: 10.1016/j.carbon.2009.08.040
Article source: Figure 3a
Adsorbate Helium: InChIKey SWQJXJOGLNCZEY-UHFFFAOYSA-N
Kind: experiment
Temperature: 50 K
Tabular data in the source: 0
pressure (bar)	uptake (mg/g)
0.430622	2.77586
0.861244	5.67241
1.6866	10.1379
2.9067	14.7241
3.83971	17.2586
5.311	21.2414
6.13636	23.0517
6.96172	24.8621
8.75598	28.1207
10.7297	31.3793
12.811	34.0345
15.0359	36.931
17.2967	39.3448
19.701	41.6379
22.1411	43.4483
24.6531	45.6207
27.2727	47.431
29.9282	49.4828
