Adsorption isotherm of Helium on Activated Carbon Monolith
DOI: 10.1016/j.carbon.2009.08.040
Article source: Figure 6
Adsorbate Helium: InChIKey SWQJXJOGLNCZEY-UHFFFAOYSA-N
Kind: experiment
Temperature: 135 K
Tabular data in the source: 0
pressure (bar)	uptake (mg/g)
2.21232	-0.014227
4.44895	0.550168
8.9222	0.907253
13.3712	1.26449
15.7536	2.02088
17.8201	1.62174
21.7342	1.98242
