Adsorption isotherm of Helium on Activated Carbon Monolith
DOI: 10.1016/j.carbon.2009.08.040
Article source: Figure 6
Adsorbate Helium: InChIKey SWQJXJOGLNCZEY-UHFFFAOYSA-N
Kind: experiment
Temperature: 90 K
Tabular data in the source: 0
pressure (bar)	uptake (mg/g)
0.996759	-0.00641
1.96921	0.373188
2.99028	1.52418
3.93841	1.90393
4.93517	2.4763
6.7342	3.04351
7.94976	3.8074
10.3809	4.75639
14.222	6.08217
18.2334	7.21393
21.7099	8.34913
