Adsorption isotherm of Helium on KOH Activated Anthracite 1
DOI: 10.1016/j.carbon.2009.08.040
Article source: Figure 6
Adsorbate Helium: InChIKey SWQJXJOGLNCZEY-UHFFFAOYSA-N
Kind: experiment
Temperature: 75 K
Tabular data in the source: 0
pressure (bar)	uptake (mg/g)
0.875203	1.15193
1.75041	2.11093
2.67423	2.87669
3.57374	3.83554
4.47326	4.79438
5.42139	5.75292
6.32091	6.51884
7.29335	7.47721
8.2658	8.24266
9.26256	9.00796
11.6937	10.9216
14.222	12.6417
16.799	14.3614
19.4733	15.8876
22.1961	17.2206
24.9919	18.5531
27.812	20.0784
