Adsorption isotherm of Helium on NaOH Activated Anthracite
DOI: 10.1016/j.carbon.2009.08.040
Article source: Figure 3a
Adsorbate Helium: InChIKey SWQJXJOGLNCZEY-UHFFFAOYSA-N
Kind: experiment
Temperature: 50 K
Tabular data in the source: 0
pressure (bar)	uptake (mg/g)
0.466507	2.53448
0.897129	5.55172
1.50718	7.96552
2.08134	10.5
2.69139	12.9138
3.33732	15.2069
4.12679	17.3793
4.88038	19.3103
5.63397	21.2414
7.28469	25.1034
9.07895	28.6034
10.945	31.8621
12.9904	35
15.0718	37.6552
17.2608	40.431
19.5574	42.7241
21.89	45.1379
24.3301	47.431
26.8421	49.3621
29.39	51.4138
