Adsorption isotherm of Water on UiO-66(Zr4+) with low concentration stearic acid
DOI: 10.1021/acs.chemmater.5b00665
Article source: Figure 4
Adsorbate Water: InChIKey XLYOFNOQVPJJNP-UHFFFAOYSA-N
Kind: experiment
Temperature: 298 K
Tabular data in the source: 0
pressure (bar)	uptake (mmol/g)
0.000363	0.839542
0.000564	1.0328
0.000806	1.22589
0.001047	1.28959
0.001329	1.41782
0.00149	1.54654
0.001813	1.67461
0.002094	1.86753
0.002376	1.99576
0.0029	2.12299
0.003424	2.44431
0.004551	3.02192
0.005558	3.47064
0.006001	3.85698
0.006485	4.30786
0.006726	4.75973
0.007008	5.5996
0.007089	5.92275
0.00729	6.56887
0.007371	6.89201
0.007492	7.40907
0.007613	7.99083
0.007693	8.44336
0.007854	8.96026
0.007975	9.47732
0.008338	9.99339
0.00866	10.5743
0.008982	11.3493
0.009143	11.8015
0.009465	12.3178
0.009667	12.8345
0.009908	13.5451
0.009949	14.0625
0.010029	14.5798
0.01007	15.0972
0.01015	15.485
0.010231	15.9375
0.010271	16.2608
0.010432	16.713
0.010472	17.2951
0.010553	17.683
0.010674	18.2
0.010754	18.7173
0.010835	19.2992
0.010915	20.7221
0.010956	20.2044
0.011077	21.5625
0.011399	22.5963
0.011479	23.1135
0.0116	23.2424
0.012204	23.7575
0.01297	24.1425
0.014379	24.5896
0.014581	24.6534
0.016071	25.0355
0.017561	25.2234
0.019011	25.4762
0.020421	25.7292
0.021831	25.9175
0.023321	26.0407
0.024852	26.2285
0.026423	26.4161
0.027993	26.6037
0.029282	26.9866
0.030491	27.8227
