Adsorption isotherm of Nitrogen on UiO-66(Zr4+)  metal/ligand ratio of 6:3
DOI: 10.1021/acs.chemmater.5b00665
Article source: Figure 3
Adsorbate Nitrogen: InChIKey IJGRMHOSHXDMSA-UHFFFAOYSA-N
Kind: experiment
Temperature: 77 K
Tabular data in the source: 0
pressure (bar)	uptake (mmol/g)
0.00588	10.7463
0.009813	11.0448
0.013749	11.306
0.01769	11.4925
0.022945	11.7164
0.029516	11.9776
0.040045	12.1642
0.049261	12.2761
0.062432	12.3507
0.079554	12.4627
0.103266	12.5373
0.125663	12.5746
0.158599	12.6493
0.199442	12.6866
0.250825	12.7612
0.254778	12.7612
0.315385	12.7985
0.323289	12.8358
0.398394	12.8358
0.404979	12.8731
0.502483	12.8731
0.510386	12.9104
0.631607	12.9104
0.643465	12.9104
0.794987	12.9851
0.810801	12.9478
0.983387	13.2836
