Adsorption isotherm of Nitrogen on UiO-66(Zr4+) with high concentration stearic acid
DOI: 10.1021/acs.chemmater.5b00665
Article source: Figure 3
Adsorbate Nitrogen: InChIKey IJGRMHOSHXDMSA-UHFFFAOYSA-N
Kind: experiment
Temperature: 77 K
Tabular data in the source: 0
pressure (bar)	uptake (mmol/g)
0	0.149254
0	0.932836
0	1.3806
0	1.79104
0	2.68657
0	2.94776
0	3.20896
0	3.39552
0	3.69403
0	3.95522
0	4.21642
0	4.47761
0	4.77612
0	5.41045
0	5.67164
0	6.34328
0	6.82836
0	7.27612
0	7.57463
0	7.83582
0	8.09701
0	8.35821
0	8.8806
0	9.02985
0	10.2612
0	10.4478
0	10.7463
0.000588	11.0821
0.000669	9.85075
0.00075	8.6194
0.000981	5.11194
0.00117	2.23881
0.001278	0.597015
0.001293	0.373134
0.001318	0
0.001834	12.1642
0.001854	11.8657
0.001883	11.4179
0.001972	10.0746
0.002003	9.58955
0.002016	9.40299
0.004437	12.6493
0.007045	13.0597
0.008341	13.3955
0.010954	13.7313
0.016197	14.1418
0.020128	14.4776
0.026694	14.8134
0.031947	15.0746
0.038521	15.2985
0.049054	15.4104
0.062221	15.5597
0.07934	15.709
0.100417	15.7836
0.126762	15.8955
0.161016	15.9701
0.201854	16.0821
0.255872	16.1567
0.320427	16.2687
0.400797	16.3433
0.507523	16.3806
0.636637	16.5672
0.63927	16.6045
0.80264	16.8284
0.807915	16.7537
0.880372	16.9403
0.940958	17.3134
0.956764	17.3881
0.965966	17.7239
0.976475	18.209
0.980393	18.7313
0.982994	19.2537
0.983079	17.9478
0.985592	19.8134
0.985686	18.3955
0.990929	18.806
0.992227	19.1045
0.993515	19.5522
0.996128	19.8881
