Adsorption isotherm of Nitrogen on UiO-66(Zr4+)  metal/ligand ratio of 6:6
DOI: 10.1021/acs.chemmater.5b00665
Article source: Figure 3
Adsorbate Nitrogen: InChIKey IJGRMHOSHXDMSA-UHFFFAOYSA-N
Kind: experiment
Temperature: 77 K
Tabular data in the source: 0
pressure (bar)	uptake (mmol/g)
0.003331	9.4403
0.005942	9.81343
0.007242	10.0746
0.012493	10.3731
0.015113	10.597
0.020367	10.8582
0.026942	11.0448
0.032208	11.1194
0.040104	11.2687
0.050637	11.3806
0.105966	11.5672
0.252204	11.8284
0.31676	11.9403
0.32335	11.903
0.398449	11.9776
0.405041	11.9403
0.501221	12.0149
0.510445	12.0149
0.632981	12.0522
0.642202	12.0896
0.796357	12.2015
0.806898	12.2015
0.897805	12.3134
0.978156	12.6866
0.983412	12.9104
