Adsorption isotherm of Water on UiO-66(Zr4+) with metal/ligand ratio 6:6
DOI: 10.1021/acs.chemmater.5b00665
Article source: Figure 4
Adsorbate Water: InChIKey XLYOFNOQVPJJNP-UHFFFAOYSA-N
Kind: experiment
Temperature: 298 K
Tabular data in the source: 0
pressure (bar)	uptake (mmol/g)
0.002417	2.12498
0.003021	2.38127
0.003544	2.5732
0.004592	2.95706
0.005961	3.40428
0.006888	3.91803
0.007411	4.30404
0.007572	4.82094
0.007935	5.33701
0.008096	5.78921
0.008257	6.17671
0.008458	6.69345
0.008579	7.2752
0.00866	7.53365
0.008901	8.11491
0.009143	8.63148
0.009304	8.63081
0.009506	9.08285
0.009626	9.47052
0.009788	10.1815
0.009828	9.92256
0.01007	11.2802
0.01015	11.9268
0.010271	12.6379
0.010311	13.1553
0.010392	13.8666
0.010432	14.2546
0.010513	15.16
0.010633	15.8065
0.010674	16.2592
0.010835	16.7114
0.010915	17.2933
0.011036	17.6163
0.011157	18.198
0.011399	18.6499
0.011963	19.0358
0.012768	19.4206
0.013372	19.6122
0.014822	19.9944
0.016434	20.3759
0.017884	20.6288
0.020703	20.9406
0.022274	21.1282
0.023885	21.3804
0.025134	21.5046
0.026785	21.6919
0.028114	21.8158
0.029846	22.3262
