Adsorption isotherm of Water on UiO-66(Zr4+) with metal/ligand ratio 6:4
DOI: 10.1021/acs.chemmater.5b00665
Article source: Figure 4
Adsorbate Water: InChIKey XLYOFNOQVPJJNP-UHFFFAOYSA-N
Kind: experiment
Temperature: 298 K
Tabular data in the source: 0
pressure (bar)	uptake (mmol/g)
0	0
8.1e-05	0.193753
0.000121	0.581757
0.000161	0.905067
0.000322	1.16318
0.000524	1.29174
0.000806	1.48467
0.001007	1.67792
0.001249	1.80632
0.001571	1.93438
0.001772	2.12764
0.002135	2.38492
0.002538	2.64204
0.002981	2.76961
0.003504	3.02623
0.004551	3.47479
0.005438	3.924
0.006001	4.30985
0.006606	4.82492
0.006928	5.14707
0.00729	5.66314
0.007572	6.05014
0.007895	6.63107
0.008257	7.08244
0.00862	7.53382
0.008942	7.98535
0.009345	8.43656
0.009506	8.95346
0.009707	9.3408
0.009828	9.72847
0.009949	10.3102
0.009989	10.7629
0.01007	11.2155
0.01011	11.7975
0.01019	12.4442
0.010231	13.1556
0.010311	13.4788
0.010351	13.8668
0.010392	14.2548
0.010472	14.6426
0.010513	15.5482
0.010593	15.936
0.010633	16.3887
0.010754	16.9058
0.010875	17.2935
0.010915	17.8109
0.011077	18.2631
0.011479	18.779
0.012003	19.0356
0.013372	19.4181
0.015104	19.7992
0.016434	20.0525
0.018246	20.2391
0.019253	20.3643
0.020743	20.4876
0.022395	20.7396
0.023684	20.7989
0.025093	20.9225
0.026785	21.239
0.028074	21.2984
0.029806	21.6795
