Adsorption isotherm of Nitrogen on UiO-66(Zr4+) with acetic acid
DOI: 10.1021/acs.chemmater.5b00665
Article source: Figure 3
Adsorbate Nitrogen: InChIKey IJGRMHOSHXDMSA-UHFFFAOYSA-N
Kind: experiment
Temperature: 77 K
Tabular data in the source: 0
pressure (bar)	uptake (mmol/g)
0	0.149254
0	0.932836
0	1.3806
0	1.79104
0	2.68657
0	2.94776
0	3.20896
0	3.39552
0	3.69403
0	3.95522
0	4.21642
0	4.47761
0	4.77612
0	5.41045
0	5.67164
0	6.34328
0	6.82836
0	7.27612
0	7.57463
0	7.83582
0	8.09701
0	8.35821
0	8.8806
0	9.02985
0.000669	9.85075
0.00075	8.6194
0.000981	5.11194
0.00117	2.23881
0.001278	0.597015
0.001293	0.373134
0.001318	0
0.001957	10.2985
0.001972	10.0746
0.002003	9.58955
0.002016	9.40299
0.003262	10.4851
0.00456	10.7836
0.005856	11.1194
0.005868	10.9328
0.007156	11.3806
0.008464	11.5299
0.011089	11.6791
0.012392	11.903
0.015015	12.0896
0.01764	12.2388
0.020263	12.4254
0.021569	12.6119
0.025509	12.7985
0.03208	13.0597
0.039976	13.209
0.050507	13.3582
0.062358	13.4701
0.079482	13.5448
0.103192	13.6567
0.125591	13.6567
0.158525	13.7687
0.199369	13.806
0.200684	13.8433
0.249434	13.8806
0.256019	13.9179
0.316629	13.9179
0.323213	13.9925
0.39832	13.9552
0.404903	14.0299
0.499771	14.0299
0.512946	14.0672
0.632849	14.0672
0.643389	14.0672
0.794911	14.1418
0.812038	14.1791
0.981996	14.403
