Adsorption isotherm of Water on UiO-66(Zr4+) with acetic acid
DOI: 10.1021/acs.chemmater.5b00665
Article source: Figure 4
Adsorbate Water: InChIKey XLYOFNOQVPJJNP-UHFFFAOYSA-N
Kind: experiment
Temperature: 298 K
Tabular data in the source: 0
pressure (bar)	uptake (mmol/g)
0.00286	2.18785
0.003263	2.31558
0.004108	2.57088
0.005035	2.76115
0.005921	3.01628
0.006686	3.27191
0.007129	3.52886
0.007371	4.04543
0.007532	4.43294
0.007653	4.95
0.007975	5.78971
0.008176	6.50052
0.008378	7.14664
0.00862	7.59851
0.008821	7.92116
0.009143	8.56678
0.009465	9.40649
0.009667	10.182
0.009908	10.828
0.01007	11.4742
0.010271	12.2498
0.010392	12.7668
0.010553	13.4778
0.010633	14.0597
0.010754	14.7062
0.010875	15.9996
0.010915	15.4818
0.010996	16.7754
0.011077	17.3573
0.011117	17.81
0.011157	18.2627
0.011238	19.0387
0.011278	19.5561
0.011358	20.6556
0.011399	21.0436
0.011479	21.7549
0.01156	22.4016
0.011721	22.9832
0.011802	23.4357
0.011922	23.8881
0.012043	24.3404
0.012245	24.6631
0.012607	24.985
0.012929	25.3072
0.013533	25.5635
0.014299	25.7544
0.015185	26.0742
0.016554	26.3921
0.017924	26.5805
0.019575	26.8325
0.020018	26.8954
0.022757	27.1429
0.025134	27.3272
0.027711	27.64
0.030048	27.8892
