Adsorption isotherm of Nitrogen on UiO-66(Zr4+) with low concentration stearic acid
DOI: 10.1021/acs.chemmater.5b00665
Article source: Figure 3
Adsorbate Nitrogen: InChIKey IJGRMHOSHXDMSA-UHFFFAOYSA-N
Kind: experiment
Temperature: 77 K
Tabular data in the source: 0
pressure (bar)	uptake (mmol/g)
0.009668	13.2463
0.013606	13.4701
0.017545	13.694
0.02017	13.8433
0.02411	14.0299
0.026733	14.2164
0.033314	14.3284
0.039895	14.4403
0.051746	14.5522
0.0636	14.6269
0.078091	14.6642
0.099168	14.7388
0.126836	14.7761
0.159769	14.8881
0.201931	14.9254
0.25331	15.0373
0.317871	15.0746
0.321823	15.0746
0.400878	15.1119
0.404829	15.1493
0.504968	15.1493
0.508919	15.1866
0.635405	15.2612
0.641993	15.2612
0.802735	15.3731
0.805371	15.3731
0.898912	15.5224
0.963458	15.7836
0.979257	15.9701
0.981883	16.1194
0.991079	16.5299
0.991091	16.3433
0.99634	16.6791
0.997633	17.0522
1.00159	16.9776
1.00287	17.5373
1.00289	17.2015
