Adsorption isotherm of Water on UiO-66(Zr4+) with high concentration stearic acid
DOI: 10.1021/acs.chemmater.5b00665
Article source: Figure 4
Adsorbate Water: InChIKey XLYOFNOQVPJJNP-UHFFFAOYSA-N
Kind: experiment
Temperature: 298 K
Tabular data in the source: 0
pressure (bar)	uptake (mmol/g)
0.001128	2.58316
0.001208	2.77691
0.001369	3.03503
0.001531	3.22845
0.001651	3.42203
0.001813	3.61546
0.001974	3.80888
0.002175	4.06683
0.002417	4.32461
0.002578	4.45334
0.002739	4.58207
0.002981	4.77516
0.003263	5.03277
0.003746	5.41895
0.00431	5.93419
0.004511	6.06275
0.005075	6.51329
0.005357	7.02969
0.005518	7.48189
0.005639	7.86957
0.005679	8.38696
0.00576	8.7748
0.00584	9.22733
0.005961	9.87379
0.006042	10.2616
0.006122	10.7142
0.006283	11.2957
0.006525	11.6829
0.006726	12.2643
0.006968	12.6515
0.007371	13.1674
0.007693	13.6837
0.008015	14.1352
0.008217	14.5872
0.008458	15.0391
0.0087	15.491
0.008901	15.943
0.009143	16.5243
0.009304	16.8471
0.009425	17.3641
0.009586	17.9457
0.009667	18.3336
0.009788	18.8506
0.009828	19.3033
0.009868	20.1442
0.009908	20.7263
0.010029	21.308
0.01011	21.6312
0.01019	22.0837
0.010311	22.4714
0.010351	23.0535
0.010392	23.5062
0.010553	23.9584
0.010714	24.4753
0.010915	25.0567
0.011358	25.3784
0.011963	25.8287
0.012808	26.2781
0.013372	26.5346
0.014782	27.0463
0.016434	27.4277
0.017924	27.745
0.019374	27.9978
0.020743	28.1863
0.022234	28.4389
0.023764	28.6914
0.025254	28.8794
0.026664	29.1323
0.028074	29.45
0.029484	29.9618
0.030168	30.4118
