Adsorption isotherm of Water on UiO-66(Zr4+) with metal/ligand ratio 6:3
DOI: 10.1021/acs.chemmater.5b00665
Article source: Figure 4
Adsorbate Water: InChIKey XLYOFNOQVPJJNP-UHFFFAOYSA-N
Kind: experiment
Temperature: 298 K
Tabular data in the source: 0
pressure (bar)	uptake (mmol/g)
8.1e-05	1.03479
0.000242	1.2929
0.000443	1.68025
0.000685	2.06742
0.001007	2.32487
0.001208	2.51813
0.00145	2.84061
0.001692	3.0337
0.002014	3.22646
0.002336	3.35452
0.002658	3.67667
0.002981	3.93412
0.003343	4.12671
0.004068	4.5119
0.004551	4.96277
0.005357	5.41232
0.00584	5.86319
0.006001	6.12131
0.006243	6.57318
0.006404	7.02538
0.006606	7.54211
0.006847	7.99398
0.007089	8.44585
0.007451	8.89722
0.007895	9.47765
0.008217	9.8645
0.008539	10.316
0.008861	10.9617
0.009183	11.4779
0.009385	11.9946
0.009586	12.5114
0.009707	12.8343
0.009747	13.287
0.009828	14.2571
0.009868	15.6802
0.009908	16.5858
0.009949	16.2622
0.009989	17.1677
0.01007	17.4909
0.01011	18.0083
0.01019	18.5255
0.010231	18.9135
0.010271	19.4309
0.010351	19.8834
0.010553	20.2708
0.010835	20.7872
0.01164	21.2367
0.012043	21.4291
0.013332	21.812
0.015024	22.1932
0.016393	22.3817
0.017843	22.6992
0.019172	22.8878
0.020945	23.0099
0.022314	23.263
0.023603	23.3224
0.025335	23.574
0.026745	23.6976
0.028114	23.9508
0.029846	24.3318
