Adsorption isotherm of Nitrogen on UiO-66(Zr4+)  metal/ligand ratio of 6:4
DOI: 10.1021/acs.chemmater.5b00665
Article source: Figure 3
Adsorbate Nitrogen: InChIKey IJGRMHOSHXDMSA-UHFFFAOYSA-N
Kind: experiment
Temperature: 77 K
Tabular data in the source: 0
pressure (bar)	uptake (mmol/g)
0.001986	9.85075
0.007225	10.3358
0.011158	10.6343
0.015099	10.8209
0.021674	11.0075
0.02562	11.1194
0.030883	11.2313
0.038781	11.3433
0.04932	11.3806
0.062491	11.4552
0.080935	11.4925
0.100695	11.5672
0.12441	11.6045
0.157348	11.6418
0.199507	11.7164
0.256164	11.7164
0.316769	11.791
0.32204	11.791
0.39846	11.8284
0.406365	11.8284
0.502547	11.903
0.511772	11.8657
0.64485	11.903
0.795056	11.9403
0.810865	11.9776
0.982138	12.2388
