Adsorption isotherm of Carbon Dioxide on {[Cu(tba)2](DMF)}
DOI: 10.1021/Ja506357n
Adsorbate Carbon Dioxide: InChIKey CURLTUGMZLYLDI-UHFFFAOYSA-N
Temperature: 293 K
Tabular data in the source: 0
pressure (bar)	uptake (cm3(STP)/g)
0.00282496	0.170219
0.00572205	0.855422
0.0142931	2.05272
0.0286583	4.62043
0.0457764	6.84338
0.0629185	9.23798
0.0772116	11.2907
0.0915047	13.3434
0.105726	14.8812
0.122748	16.4175
0.136969	17.9552
0.168115	20.3426
0.199238	22.5583
0.230312	24.4307
0.275464	26.8109
0.314941	28.679
0.357171	30.2023
0.399377	31.554
0.438758	32.7354
0.480941	33.9154
0.520298	34.9252
0.559631	35.7633
0.601765	36.5999
0.643875	37.265
0.686009	38.1016
0.725318	38.7681
0.764627	39.4345
0.806689	39.7562
0.848823	40.5929
0.888108	41.0877
0.930193	41.581
0.969478	42.0758
1.00874	42.3989
