Adsorption isotherm of Carbon Dioxide on {[Cu(tba)2](DMF)}
DOI: 10.1021/Ja506357n
Adsorbate Carbon Dioxide: InChIKey CURLTUGMZLYLDI-UHFFFAOYSA-N
Temperature: 273 K
Tabular data in the source: 0
pressure (bar)	uptake (cm3(STP)/g)
0.00208773	-0.00062135
0.00406363	1.33808
0.0081024	2.97378
0.012079	5.35355
0.0262831	10.26
0.0363614	14.5725
0.0506648	18.2885
0.0587797	21.1135
0.0711197	23.3419
0.0896483	26.4614
0.104113	28.2428
0.118591	29.8754
0.147583	32.6942
0.176637	34.7689
0.203641	36.3977
0.245234	38.3199
0.282664	40.0944
0.322219	41.422
0.357624	42.4531
0.395129	43.3348
0.434721	44.2159
0.47015	44.9494
0.507667	45.6822
0.547285	46.2657
0.584802	46.9986
0.622344	47.4338
0.661973	47.8685
0.699515	48.3037
0.734957	48.8884
0.772499	49.3237
0.812141	49.6095
0.847608	49.8965
0.887213	50.6288
0.922692	50.7671
0.960234	51.2023
0.997763	51.7864
