Adsorption isotherm of Argon on COF-42
DOI: 10.1021/Ja204728y
Adsorbate Argon: InChIKey XKRFYHLGVUSROY-UHFFFAOYSA-N
Temperature: 87 K
Tabular data in the source: 0
pressure (bar)	uptake (cm3(STP)/g)
0.003941	0.003941
0.00788201	67.7596
0.019705	85.2459
0.03941	102.732
0.0630561	124.59
0.0867021	142.077
0.0945841	155.191
0.114289	174.863
0.122171	190.164
0.141876	201.093
0.185227	212.022
0.200991	216.393
0.252224	220.765
0.303457	225.137
0.342867	227.322
0.398041	231.694
0.441392	233.88
0.492626	238.251
0.5478	242.623
0.599033	242.623
0.646325	244.809
0.693617	249.18
0.740909	249.18
0.776378	255.738
0.835493	260.109
0.882785	264.481
0.934018	281.967
0.969487	354.098
