Adsorption isotherm of Argon on COF-43
DOI: 10.1021/Ja204728y
Adsorbate Argon: InChIKey XKRFYHLGVUSROY-UHFFFAOYSA-N
Temperature: 87 K
Tabular data in the source: 0
pressure (bar)	uptake (cm3(STP)/g)
0.003941	17.284
0.00788201	37.037
0.027587	54.321
0.047292	64.1975
0.0709381	74.0741
0.0867021	83.9506
0.102466	88.8889
0.149758	103.704
0.19705	123.457
0.248283	145.679
0.295575	165.432
0.319221	180.247
0.342867	195.062
0.374395	229.63
0.401982	239.506
0.421687	246.914
0.465038	256.79
0.500508	264.198
0.5478	271.605
0.595092	279.012
0.642384	283.951
0.689676	291.358
0.740909	298.765
0.788201	311.111
0.843375	325.926
0.882785	335.802
0.934018	362.963
0.953723	395.062
