Adsorption isotherm of Hydrogen on PCN-922
DOI: 10.1021/Ic3019937
Adsorbate Hydrogen: InChIKey UFHFLCQGNIYNRP-UHFFFAOYSA-N
Temperature: 77 K
Tabular data in the source: 0
pressure (bar)	uptake (wt%)
0.0117496	0.0165254
0.0297694	0.236196
0.0778221	0.551621
0.152904	0.85578
0.25802	1.15994
0.387161	1.41341
0.49528	1.63308
0.675477	1.89218
0.825642	2.08368
0.972803	2.2245
1.0599	2.30899
