Adsorption isotherm of Methane on PCN-922
DOI: 10.1021/Ic3019937
Adsorbate Methane: InChIKey VNWKTOKETHGBQD-UHFFFAOYSA-N
Temperature: 273 K
Tabular data in the source: 0
pressure (bar)	uptake (cm3(STP)/g)
0.199917	5.31992
0.253486	6.79471
0.332674	8.97958
0.411863	11.1098
0.491051	13.4586
0.577227	15.9166
0.679707	18.5384
0.777528	21.488
0.866033	23.4544
0.959196	25.9124
1.01276	27.2779
1.0477	28.3157
