Adsorption isotherm of Hydrogen on PCN-922
DOI: 10.1021/Ic3019937
Adsorbate Hydrogen: InChIKey UFHFLCQGNIYNRP-UHFFFAOYSA-N
Temperature: 87 K
Tabular data in the source: 0
pressure (bar)	uptake (wt%)
0.0117496	0.0165254
0.0658089	0.191135
0.155908	0.399541
0.25802	0.607947
0.390165	0.799454
0.516303	0.945902
0.651451	1.07545
0.753563	1.17684
0.861682	1.27822
0.972803	1.36271
1.05089	1.41904
