Adsorption isotherm of Nitrogen on PCN-922
DOI: 10.1021/Ic3019937
Adsorbate Nitrogen: InChIKey IJGRMHOSHXDMSA-UHFFFAOYSA-N
Temperature: 77 K
Tabular data in the source: 0
pressure (bar)	uptake (cm3(STP)/g)
0.00208205	10.7252
0.00208205	237.831
0.0066467	418.975
0.0134937	487.918
0.022623	520.361
0.0637048	551.453
0.143586	571.73
0.241726	579.841
0.374101	587.952
0.536146	594.711
0.718731	598.767
0.828283	604.174
0.926423	606.878
0.967504	606.878
