Adsorption isotherm of Carbon Dioxide on PCN-922
DOI: 10.1021/Ic3019937
Adsorbate Carbon Dioxide: InChIKey CURLTUGMZLYLDI-UHFFFAOYSA-N
Temperature: 273 K
Tabular data in the source: 0
pressure (bar)	uptake (wt%)
0.00893277	0.64765
0.0601724	2.55941
0.123057	4.63505
0.185943	6.7653
0.246498	8.56782
0.358294	11.135
0.432825	12.7191
0.530646	14.4124
0.623809	15.9964
0.737933	17.7443
0.845071	19.0552
0.935905	20.2023
1.0314	21.0762
1.05935	21.4586
