Adsorption isotherm of Methane on PCN-922
DOI: 10.1021/Ic3019937
Adsorbate Methane: InChIKey VNWKTOKETHGBQD-UHFFFAOYSA-N
Temperature: 298 K
Tabular data in the source: 0
pressure (bar)	uptake (cm3(STP)/g)
0.258144	5.2653
0.339662	7.0132
0.428166	8.81572
0.539962	10.946
0.635454	12.6939
0.72163	14.1687
0.800819	15.4796
0.875349	16.6266
0.942892	18.1014
1.00345	19.03
1.05935	19.9586
