Adsorption isotherm of Carbon Dioxide on PCN-922
DOI: 10.1021/Ic3019937
Adsorbate Carbon Dioxide: InChIKey CURLTUGMZLYLDI-UHFFFAOYSA-N
Temperature: 298 K
Tabular data in the source: 0
pressure (bar)	uptake (wt%)
0.0135909	0.319919
0.0811341	1.63084
0.197588	3.43336
0.332674	5.34513
0.479406	7.36614
0.593531	8.84093
0.719301	10.1519
0.831096	11.2443
0.949879	12.3913
1.06633	13.3199
