Adsorption isotherm of Nitrogen on PCN-921
DOI: 10.1021/Ic3019937
Adsorbate Nitrogen: InChIKey IJGRMHOSHXDMSA-UHFFFAOYSA-N
Temperature: 77 K
Tabular data in the source: 0
pressure (bar)	uptake (cm3(STP)/g)
0.00208205	1.26247
0.218903	1.26247
0.422029	1.26247
0.568098	1.26247
0.695908	1.26247
0.832847	1.26247
0.976634	1.26247
1.00859	1.26247
