Adsorption isotherm of Carbon Dioxide, Methane on Shale
DOI: 10.1166/jnn.2017.14438
Article source: Figure 1
Adsorbate Carbon Dioxide: InChIKey CURLTUGMZLYLDI-UHFFFAOYSA-N
Adsorbate Methane: InChIKey VNWKTOKETHGBQD-UHFFFAOYSA-N
Kind: experiment
Temperature: 373 K
Tabular data in the source: 0
pressure (bar)	Carbon Dioxide fraction	Carbon Dioxide uptake (cm3(STP)/g)	Methane fraction	Methane uptake (cm3(STP)/g)	total uptake (cm3(STP)/g)
0.115			0.5	0.0309	
2.011			0.5	0.2118	
3.337			0.5	0.6072	
3.716			0.5	0.6876	
10.161			0.5	1.4783	
10.919			0.5	1.6727	
22.201			0.5	2.2489	
22.295			0.5	2.4634	
40.404			0.5	2.9524	
44.102			0.5	3.1669	
62.306			0.5	3.4683	
63.729			0.5	3.3811	
86.485			0.5	3.468	
86.959			0.5	3.535	
107.819			0.5	3.5348	
