Adsorption isotherm of Methane on Shale
DOI: 10.1166/jnn.2017.14438
Article source: Figure 1
Adsorbate Methane: InChIKey VNWKTOKETHGBQD-UHFFFAOYSA-N
Kind: experiment
Temperature: 373 K
Tabular data in the source: 0
pressure (bar)	uptake (cm3(STP)/g)
0.159	0.0128
4.062	0.7368
6.038	1.1267
10.643	1.4782
13.93	2.0616
22.067	2.1971
22.318	2.5952
43.82	2.8293
43.966	3.3296
61.349	3.468
61.946	3.1914
85.97	3.5548
86.745	3.3918
107.529	3.4916
