Adsorption isotherm of Methane on Shale
DOI: 10.1166/jnn.2017.14438
Article source: Figure 1
Adsorbate Methane: InChIKey VNWKTOKETHGBQD-UHFFFAOYSA-N
Kind: experiment
Temperature: 373 K
Tabular data in the source: 0
pressure (bar)	uptake (cm3(STP)/g)
0.15	0.0266
3.837	0.4202
10.683	1.1595
12.414	1.0903
22.12	1.8243
25.282	1.5104
43.945	2.0315
47.332	1.8985
62.006	2.2069
63.436	2.1058
86.465	2.2066
88.121	2.2279
112.204	2.2543
