Adsorption isotherm of Nitrogen on Shale
DOI: 10.1166/jnn.2017.14438
Article source: Figure 1
Adsorbate Nitrogen: InChIKey IJGRMHOSHXDMSA-UHFFFAOYSA-N
Kind: experiment
Temperature: 373 K
Tabular data in the source: 0
pressure (bar)	uptake (cm3(STP)/g)
0.451	0.0266
3.537	0.1436
10.836	0.351
11.288	0.3616
21.823	0.5051
22.275	0.6274
36.197	0.7124
44.099	0.8613
62.386	0.9834
62.387	0.9303
86.62	0.93
87.071	0.9992
121.464	1.0095
