Adsorption isotherm of Carbon Dioxide on Shale
DOI: 10.1166/jnn.2017.14438
Article source: Figure 1
Adsorbate Carbon Dioxide: InChIKey CURLTUGMZLYLDI-UHFFFAOYSA-N
Kind: experiment
Temperature: 373 K
Tabular data in the source: 0
pressure (bar)	uptake (cm3(STP)/g)
0.21	0.0175
4.377	1.5588
4.852	1.3779
10.915	3.1538
12.243	3.0063
21.816	3.9914
23.524	3.8171
41.252	4.5943
44.381	4.6345
62.491	4.9761
63.914	4.8287
86.954	5.0362
91.506	4.9424
115.59	5.0963
