Adsorption isotherm of Methane on Shale
DOI: 10.1166/jnn.2017.14438
Article source: Figure 5
Adsorbate Methane: InChIKey VNWKTOKETHGBQD-UHFFFAOYSA-N
Kind: experiment
Temperature: 373 K
Tabular data in the source: 0
pressure (bar)	uptake (cm3(STP)/g)
3.552	0.4054
11.939	1.06148
25.127	1.47577
47.046	1.85858
62.852	2.05935
87.215	2.17526
110.965	2.20327
