Adsorption isotherm of Nitrogen, Methane on Shale
DOI: 10.1166/jnn.2017.14438
Article source: Figure 1
Adsorbate Nitrogen: InChIKey IJGRMHOSHXDMSA-UHFFFAOYSA-N
Adsorbate Methane: InChIKey VNWKTOKETHGBQD-UHFFFAOYSA-N
Kind: experiment
Temperature: 373 K
Tabular data in the source: 0
pressure (bar)	Nitrogen fraction	Nitrogen uptake (cm3(STP)/g)	Methane fraction	Methane uptake (cm3(STP)/g)	total uptake (cm3(STP)/g)
-3.3e-05			0.5	0.0106	
3.762			0.5	0.2925	
10.609			0.5	0.7552	
10.759			0.5	0.8882	
22.123			0.5	1.037	
22.273			0.5	1.2445	
41.012			0.5	1.3773	
43.646			0.5	1.4145	
62.31			0.5	1.4941	
64.643			0.5	1.4622	
86.618			0.5	1.547	
87.446			0.5	1.5151	
110.023			0.5	1.5362	
