Adsorption isotherm of Methane on Shale
DOI: 10.1166/jnn.2017.14438
Article source: Figure 5
Adsorbate Methane: InChIKey VNWKTOKETHGBQD-UHFFFAOYSA-N
Kind: experiment
Temperature: 373 K
Tabular data in the source: 0
pressure (bar)	uptake (cm3(STP)/g)
0.03911	0.004416
0.13191	0.011349
0.26848	0.015981
0.5058	0.020224
0.67739	0.022793
0.93511	0.024614
1.19356	0.02533
