Adsorption isotherm of Hydrogen on IRMOF-1
DOI: 10.1126/science.1083440
Adsorbate Hydrogen: InChIKey UFHFLCQGNIYNRP-UHFFFAOYSA-N
Temperature: 78 K
Tabular data in the source: 0
pressure (bar)	uptake (wt%)
0.00508993	0.0207926
0.00696848	3.71919
0.0222278	3.7609
0.0323971	3.78183
0.101001	3.84558
0.169626	3.95066
0.266177	4.0358
0.357628	4.07948
0.436432	4.22615
0.58128	4.39518
0.649873	4.43827
0.713387	4.48123
