Adsorption isotherm of Hydrogen on IRMOF-1
DOI: 10.1126/science.1083440
Adsorbate Hydrogen: InChIKey UFHFLCQGNIYNRP-UHFFFAOYSA-N
Temperature: 298 K
Tabular data in the source: 0
pressure (bar)	uptake (wt%)
4.96971	0.258808
10.0149	0.499997
14.9822	0.798419
19.9548	1.00881
