Adsorption isotherm of Hydrogen on Purified SWCNTs
DOI: 10.1016/j.carbon.2005.03.037
Article source: Figure 2b
Adsorbate Hydrogen: InChIKey UFHFLCQGNIYNRP-UHFFFAOYSA-N
Kind: experiment
Temperature: 77 K
Tabular data in the source: 0
pressure (bar)	uptake (wt%)
0	0
3.08677	1.96004
11.7496	2.2365
20.8108	2.41066
43.1152	2.31982
48.99	2.5027
