Adsorption isotherm of Hydrogen on Activated Carbon
DOI: 10.1016/j.carbon.2005.03.037
Article source: Figure 2a
Adsorbate Hydrogen: InChIKey UFHFLCQGNIYNRP-UHFFFAOYSA-N
Kind: experiment
Temperature: 77 K
Tabular data in the source: 0
pressure (bar)	uptake (wt%)
0.189702	1.21951
0.379404	1.62602
0.758808	1.82114
3.03523	3.07317
11.5718	3.98374
20.2981	4
42.4932	4.78049
48.1843	4.61789
