Adsorption isotherm of Hydrogen on Purified SWCNTs
DOI: 10.1016/j.carbon.2005.03.037
Article source: Figure 2b
Adsorbate Hydrogen: InChIKey UFHFLCQGNIYNRP-UHFFFAOYSA-N
Kind: experiment
Temperature: 298 K
Tabular data in the source: 0
pressure (bar)	uptake (wt%)
0	0
6.77098	0.059247
17.8236	0.135279
29.6728	0.224046
58.4495	0.341612
65.7183	0.34117
