Adsorption isotherm of Hydrogen on Activated Carbon
DOI: 10.1016/j.carbon.2005.03.037
Article source: Figure 2a
Adsorbate Hydrogen: InChIKey UFHFLCQGNIYNRP-UHFFFAOYSA-N
Kind: experiment
Temperature: 298 K
Tabular data in the source: 0
pressure (bar)	uptake (wt%)
6.82927	0.04878
17.832	0.195122
29.4038	0.260163
58.6179	0.455285
65.6369	0.520325
