Adsorption isotherm of Carbon Dioxide, Nitrogen on RF-700
DOI: 10.1021/acs.energyfuels.7b02671
Article source: Figure 3
Adsorbate Carbon Dioxide: InChIKey CURLTUGMZLYLDI-UHFFFAOYSA-N
Adsorbate Nitrogen: InChIKey IJGRMHOSHXDMSA-UHFFFAOYSA-N
Kind: experiment
Temperature: 373 K
Tabular data in the source: 0
pressure (bar)	Carbon Dioxide fraction	Carbon Dioxide uptake (mmol/g)	Nitrogen fraction	Nitrogen uptake (mmol/g)	total uptake (mmol/g)
1.01325	0.049763	0.131469	0.95011	0.021866	0.152982
1.01325	0.07487	0.204204	0.924872	0.021001	0.224411
1.01325	0.100034	0.267329	0.900067	0.016401	0.284491
1.01325	0.124837	0.28838	0.875054	0.01642	0.304435
