Adsorption isotherm of Nitrogen on RF-700
DOI: 10.1021/acs.energyfuels.7b02671
Article source: Figure 2
Adsorbate Nitrogen: InChIKey IJGRMHOSHXDMSA-UHFFFAOYSA-N
Kind: experiment
Temperature: 323 K
Tabular data in the source: 0
pressure (bar)	uptake (mmol/g)
0.006031	0.000806
0.011689	0.00155
0.026301	0.003702
0.050402	0.007149
0.075815	0.010702
0.103052	0.014285
0.126925	0.017664
0.153708	0.021566
0.202557	0.028663
0.254447	0.036203
0.303834	0.042905
0.356728	0.049781
0.403782	0.056066
0.457127	0.063677
0.505309	0.070396
0.557092	0.076791
0.608214	0.083096
0.659336	0.089679
0.703439	0.09588
0.753836	0.102376
0.804964	0.109018
0.856518	0.114855
0.905746	0.121655
0.949329	0.126637
1.00121	0.132883
