Adsorption isotherm of Nitrogen on RF-700
DOI: 10.1021/acs.energyfuels.7b02671
Article source: Figure 2
Adsorbate Nitrogen: InChIKey IJGRMHOSHXDMSA-UHFFFAOYSA-N
Kind: experiment
Temperature: 373 K
Tabular data in the source: 0
pressure (bar)	uptake (mmol/g)
0.005651	0.00032
0.010999	0.000517
0.025887	0.001469
0.050954	0.002721
0.077044	0.004189
0.102329	0.005674
0.1271	0.007159
0.153005	0.008647
0.201863	0.011361
0.25298	0.014384
0.301833	0.01743
0.352157	0.020081
0.403586	0.023291
0.45638	0.026207
0.503531	0.028897
0.560553	0.031865
0.604807	0.034549
0.655476	0.037713
0.711978	0.040208
0.75627	0.042722
0.808717	0.045701
0.855178	0.049052
0.910409	0.051596
0.947778	0.054639
1.00899	0.057666
