Adsorption isotherm of Carbon Dioxide, Nitrogen on RF-700
DOI: 10.1021/acs.energyfuels.7b02671
Article source: Figure 4
Adsorbate Carbon Dioxide: InChIKey CURLTUGMZLYLDI-UHFFFAOYSA-N
Adsorbate Nitrogen: InChIKey IJGRMHOSHXDMSA-UHFFFAOYSA-N
Kind: experiment
Temperature: 373 K
Tabular data in the source: 0
pressure (bar)	Carbon Dioxide fraction	Carbon Dioxide uptake (mmol/g)	Nitrogen fraction	Nitrogen uptake (mmol/g)	total uptake (mmol/g)
1.01325	0.049946	0.125464	0.950108	0.049095	0.1742
1.01325	0.075036	0.201955	0.924935	0.042619	0.244208
1.01325	0.099941	0.258765	0.899975	0.030596	0.289196
1.01325	0.124905	0.282236	0.875007	0.025589	0.307733
