Adsorption isotherm of Carbon Dioxide on RF-700
DOI: 10.1021/acs.energyfuels.7b02671
Article source: Figure 2
Adsorbate Carbon Dioxide: InChIKey CURLTUGMZLYLDI-UHFFFAOYSA-N
Kind: experiment
Temperature: 348 K
Tabular data in the source: 0
pressure (bar)	uptake (mmol/g)
0.005711	0.012389
0.00966	0.019922
0.024815	0.045174
0.052923	0.087957
0.078612	0.125205
0.104995	0.159779
0.131603	0.191434
0.157115	0.222715
0.205242	0.275969
0.262631	0.339094
0.313535	0.383063
0.357566	0.421066
0.416905	0.477672
0.458898	0.509835
0.516424	0.554549
0.558453	0.593144
0.606592	0.619912
0.665712	0.65887
0.71039	0.691512
0.765943	0.721207
0.816144	0.755336
0.861959	0.784477
0.919807	0.814723
0.96431	0.844365
1.01844	0.864112
