Adsorption isotherm of Nitrogen on RF-700
DOI: 10.1021/acs.energyfuels.7b02671
Article source: Figure 2
Adsorbate Nitrogen: InChIKey IJGRMHOSHXDMSA-UHFFFAOYSA-N
Kind: experiment
Temperature: 303 K
Tabular data in the source: 0
pressure (bar)	uptake (mmol/g)
0.005069	0.001068
0.010211	0.002049
0.025896	0.005316
0.05155	0.010645
0.076675	0.016019
0.10005	0.020755
0.124973	0.025883
0.150923	0.031267
0.204271	0.041823
0.253727	0.051935
0.304261	0.061813
0.357731	0.071413
0.408354	0.081461
0.457032	0.090778
0.507933	0.100517
0.558968	0.11036
0.608242	0.118621
0.659989	0.12777
0.705629	0.137044
0.757088	0.144824
0.808885	0.153204
0.856952	0.16173
0.906602	0.169641
0.9497	0.177378
1.00331	0.186256
