Adsorption isotherm of Carbon Dioxide, Nitrogen on RF-700
DOI: 10.1021/acs.energyfuels.7b02671
Article source: Figure 3
Adsorbate Carbon Dioxide: InChIKey CURLTUGMZLYLDI-UHFFFAOYSA-N
Adsorbate Nitrogen: InChIKey IJGRMHOSHXDMSA-UHFFFAOYSA-N
Kind: experiment
Temperature: 348 K
Tabular data in the source: 0
pressure (bar)	Carbon Dioxide fraction	Carbon Dioxide uptake (mmol/g)	Nitrogen fraction	Nitrogen uptake (mmol/g)	total uptake (mmol/g)
1.01325	0.049768	0.25094	0.9502	0.02755	0.27821
1.01325	0.074914	0.41107	0.925206	0.02443	0.43572
1.01325	0.099943	0.49255	0.900018	0.01964	0.51143
1.01325	0.125035	0.5431	0.874927	0.0186	0.56092
