Adsorption isotherm of Carbon Dioxide, Nitrogen on RF-700
DOI: 10.1021/acs.energyfuels.7b02671
Article source: Figure 4
Adsorbate Carbon Dioxide: InChIKey CURLTUGMZLYLDI-UHFFFAOYSA-N
Adsorbate Nitrogen: InChIKey IJGRMHOSHXDMSA-UHFFFAOYSA-N
Kind: experiment
Temperature: 303 K
Tabular data in the source: 0
pressure (bar)	Carbon Dioxide fraction	Carbon Dioxide uptake (mmol/g)	Nitrogen fraction	Nitrogen uptake (mmol/g)	total uptake (mmol/g)
1.01325	0.049956	0.40469	0.950026	0.1607	0.56475
1.01325	0.074956	0.5726	0.9251	0.13643	0.70802
1.01325	0.099907	0.70497	0.900091	0.10729	0.81464
1.01325	0.1248	0.76184	0.875164	0.06356	0.82678
