Adsorption isotherm of Carbon Dioxide on RF-700
DOI: 10.1021/acs.energyfuels.7b02671
Article source: Figure 2
Adsorbate Carbon Dioxide: InChIKey CURLTUGMZLYLDI-UHFFFAOYSA-N
Kind: experiment
Temperature: 323 K
Tabular data in the source: 0
pressure (bar)	uptake (mmol/g)
0.005544	0.026787
0.010221	0.045306
0.026468	0.102268
0.053248	0.18046
0.079271	0.251015
0.101736	0.303291
0.127896	0.359211
0.152236	0.407925
0.205134	0.507598
0.258064	0.583754
0.310368	0.665028
0.360543	0.733314
0.409691	0.803064
0.462345	0.86032
0.513578	0.91679
0.564685	0.965384
0.612839	1.02329
0.664487	1.06478
0.70918	1.10207
0.76325	1.14372
0.807805	1.18378
0.870195	1.23013
0.915855	1.26818
0.954106	1.30395
1.01262	1.3161
