Adsorption isotherm of Carbon Dioxide on RF-700
DOI: 10.1021/acs.energyfuels.7b02671
Article source: Figure 2
Adsorbate Carbon Dioxide: InChIKey CURLTUGMZLYLDI-UHFFFAOYSA-N
Kind: experiment
Temperature: 303 K
Tabular data in the source: 0
pressure (bar)	uptake (mmol/g)
0.004423	0.03964
0.009998	0.079614
0.025589	0.171506
0.052543	0.297434
0.078261	0.401615
0.10223	0.489001
0.128321	0.568225
0.155509	0.640752
0.207423	0.770655
0.253569	0.870522
0.307119	0.972949
0.356391	1.05342
0.409738	1.14356
0.463251	1.20257
0.51507	1.29173
0.566313	1.337
0.620364	1.40971
0.670759	1.45526
0.718549	1.50623
0.76831	1.55901
0.823032	1.60085
0.867035	1.6395
0.915096	1.71498
0.960432	1.72409
1.01554	1.74711
