Adsorption isotherm of Nitrogen on RF-700
DOI: 10.1021/acs.energyfuels.7b02671
Article source: Figure 2
Adsorbate Nitrogen: InChIKey IJGRMHOSHXDMSA-UHFFFAOYSA-N
Kind: experiment
Temperature: 348 K
Tabular data in the source: 0
pressure (bar)	uptake (mmol/g)
0.005392	0.000388
0.010757	0.000756
0.025248	0.001954
0.05026	0.004082
0.077871	0.006389
0.105331	0.008987
0.127572	0.010694
0.153963	0.012931
0.200894	0.016988
0.253896	0.021554
0.304794	0.026272
0.354394	0.030193
0.406262	0.034238
0.454294	0.038514
0.508003	0.042749
0.55512	0.047198
0.606606	0.051968
0.658168	0.05616
0.706572	0.059724
0.762565	0.063684
0.807117	0.067545
0.864921	0.072023
0.913811	0.076185
0.956944	0.079517
1.00746	0.084563
