Adsorption isotherm of Carbon Dioxide on RF-700
DOI: 10.1021/acs.energyfuels.7b02671
Article source: Figure 2
Adsorbate Carbon Dioxide: InChIKey CURLTUGMZLYLDI-UHFFFAOYSA-N
Kind: experiment
Temperature: 373 K
Tabular data in the source: 0
pressure (bar)	uptake (mmol/g)
0.006822	0.007902
0.010813	0.011781
0.025819	0.024924
0.050472	0.045467
0.075861	0.066515
0.102675	0.086322
0.129842	0.104957
0.154325	0.124437
0.206118	0.159467
0.25457	0.19066
0.305265	0.220419
0.356974	0.250576
0.406141	0.281838
0.459194	0.311265
0.51009	0.341044
0.558247	0.365839
0.606983	0.390877
0.656306	0.413228
0.704379	0.440352
0.755956	0.463692
0.815111	0.492153
0.861086	0.510752
0.913896	0.530042
0.952087	0.546437
1.01048	0.574632
