Adsorption isotherm of Carbon Dioxide, Nitrogen on RF-700
DOI: 10.1021/acs.energyfuels.7b02671
Article source: Figure 3
Adsorbate Carbon Dioxide: InChIKey CURLTUGMZLYLDI-UHFFFAOYSA-N
Adsorbate Nitrogen: InChIKey IJGRMHOSHXDMSA-UHFFFAOYSA-N
Kind: experiment
Temperature: 303 K
Tabular data in the source: 0
pressure (bar)	Carbon Dioxide fraction	Carbon Dioxide uptake (mmol/g)	Nitrogen fraction	Nitrogen uptake (mmol/g)	total uptake (mmol/g)
1.01325	0.04997	0.43354	0.950198	0.07698	0.51039
1.01325	0.075094	0.59056	0.925018	0.0605	0.65135
1.01325	0.100006	0.78374	0.900078	0.04248	0.82781
1.01325	0.125042	0.83063	0.874982	0.04128	0.87061
