Adsorption isotherm of Nitrogen on COF-366-Co-2F
DOI: 10.1021/jacs.7b11940
Article source: Figure S10
Adsorbate Nitrogen: InChIKey IJGRMHOSHXDMSA-UHFFFAOYSA-N
Kind: experiment
Temperature: 77 K
Tabular data in the source: 0
pressure (bar)	uptake (cm3(STP)/g)
0	47.756
0	58.6881
0	66.7434
0	74.7986
0	81.7031
0	87.4568
0	93.2106
0	100.115
0	107.02
0.001034	136.939
0.001034	162.255
0.00309	180.667
0.00309	191.024
0.004124	198.504
0.005157	208.285
0.007214	215.19
0.007214	222.094
0.009281	228.999
0.017519	252.014
0.027834	276.18
0.038139	307.25
0.058758	356.732
0.07112	367.089
0.077311	370.541
0.083492	372.842
0.09174	375.144
0.099988	378.596
0.155645	388.953
0.21028	397.008
0.262847	401.611
0.303043	405.063
0.359744	409.666
0.40303	412.543
0.452507	415.42
0.504051	418.872
0.555585	421.174
0.605062	423.475
0.65763	426.352
0.707107	428.654
0.75556	431.53
0.809161	433.832
0.858638	436.133
0.91842	441.312
0.96893	446.49
1.005	456.272
0.011338	245.109
0.048443	340.621
0.085559	380.898
0.200998	402.762
0.299952	411.968
0.400973	418.297
0.427774	420.023
0.454574	422.325
0.479308	425.201
0.499927	428.078
0.603005	432.681
0.701959	437.284
0.796789	440.736
0.901924	445.339
1.005	456.272
