Adsorption isotherm of Carbon Dioxide on COF-366-Co
DOI: 10.1021/jacs.7b11940
Article source: Figure S32
Adsorbate Carbon Dioxide: InChIKey CURLTUGMZLYLDI-UHFFFAOYSA-N
Kind: experiment
Temperature: 273 K
Tabular data in the source: 0
pressure (bar)	uptake (cm3(STP)/g)
0.27215	0.65728
0.646009	1.3615
1.01987	2.06573
1.36005	2.723
1.6999	3.38028
2.37992	4.41315
2.7878	4.97653
3.09397	5.53991
3.46783	6.10329
3.80802	6.61972
5.40586	8.77934
7.13977	10.892
8.9077	12.9578
10.6756	14.9296
12.3755	16.8075
14.1094	18.5916
15.8437	20.3756
17.5776	22.0657
19.3115	23.7559
21.0455	25.3991
22.7794	26.9484
24.5133	28.5916
26.2472	30.1409
27.9811	31.6901
29.715	33.2394
31.483	34.6479
33.1832	36.1502
34.679	37.4648
