Adsorption isotherm of Nitrogen on COF-366 -(OMe)2-Co
DOI: 10.1021/jacs.7b11940
Article source: Figure S18
Adsorbate Nitrogen: InChIKey IJGRMHOSHXDMSA-UHFFFAOYSA-N
Kind: experiment
Temperature: 77 K
Tabular data in the source: 0
pressure (bar)	uptake (cm3(STP)/g)
0	33.7143
0	37.7143
0	40.5714
0	54.2857
0	58.2857
0	61.7143
0	64
0	68
0	70.8571
0.00228	82.8571
0.00228	88
0.00456	92.5714
0.00456	96
0.00456	98.8571
0.00456	102.286
0.00685	104.571
0.00685	106.857
0.009129	110.286
0.019394	122.857
0.029668	134.857
0.036518	142.857
0.050207	152.571
0.063896	158.286
0.075305	160
0.084434	161.714
0.100413	164
0.157469	169.143
0.212235	173.143
0.249888	174.857
0.312648	177.714
0.353726	179.143
0.403932	180.857
0.455273	182.571
0.504345	184
0.554552	185.143
0.607038	186.857
0.659524	188
0.707451	189.143
0.757658	190.857
0.810144	191.429
0.86263	193.143
0.910557	194.286
0.960764	196
0.009129	118.857
0.045647	158.857
0.095843	170.857
0.189417	179.143
0.28983	183.429
0.395948	186.571
0.421046	187.143
0.445009	187.429
0.467828	188
0.490646	188.857
0.591059	191.429
0.691472	193.143
0.785036	194.286
0.887739	196
1.00412	197.714
