Adsorption isotherm of Carbon Dioxide on COF-366-F-Co
DOI: 10.1021/jacs.7b11940
Article source: Figure S34
Adsorbate Carbon Dioxide: InChIKey CURLTUGMZLYLDI-UHFFFAOYSA-N
Kind: experiment
Temperature: 298 K
Tabular data in the source: 0
pressure (bar)	uptake (cm3(STP)/g)
5.08046	2.36504
5.82336	2.87918
6.4432	3.18766
7.06304	3.59897
10.2846	5.03856
13.5062	6.47815
16.6653	7.91774
19.9494	9.35733
23.1085	10.6427
26.3301	12.0309
29.6142	13.2648
32.8358	14.653
36.0574	15.9383
39.2165	17.1722
42.4381	18.4576
45.7222	19.7429
48.8813	21.0283
52.1654	22.2622
55.3245	23.4447
58.5461	24.6787
61.7677	25.9126
64.3083	27.0437
