Adsorption isotherm of Carbon Dioxide on COF-366-(F)4-Co
DOI: 10.1021/jacs.7b11940
Article source: Figure S35
Adsorbate Carbon Dioxide: InChIKey CURLTUGMZLYLDI-UHFFFAOYSA-N
Kind: experiment
Temperature: 298 K
Tabular data in the source: 0
pressure (bar)	uptake (cm3(STP)/g)
3.15276	2.58427
4.31091	3.14607
4.95433	3.59551
5.72644	3.82022
6.36986	4.38202
7.01328	4.7191
10.1017	6.40449
13.3188	7.97753
16.4716	9.66292
19.6887	11.1236
22.8414	12.5843
26.1872	13.9326
29.4043	15.2809
32.6214	16.5168
35.7742	17.7528
38.9269	18.9888
42.2727	20.1124
45.4898	21.2921
48.7069	22.3596
51.924	23.3708
55.0124	24.4944
58.2939	25.5618
61.511	26.573
64.2133	27.4719
