Adsorption isotherm of Nitrogen on COF-366-(F)4
DOI: 10.1021/jacs.7b11940
Article source: Figure S14
Adsorbate Nitrogen: InChIKey IJGRMHOSHXDMSA-UHFFFAOYSA-N
Kind: experiment
Temperature: 77 K
Tabular data in the source: 0
pressure (bar)	uptake (cm3(STP)/g)
0	37.1536
0	46.5995
0.001034	53.5265
0.001034	58.5642
0.001034	62.3426
0.001034	66.1209
0.001034	69.8992
0.001034	74.937
0.001034	85.6423
0.001034	91.9396
0.00309	98.2368
0.00309	101.385
0.005157	105.164
0.007224	108.942
0.008258	113.035
0.017539	123.426
0.027854	134.131
0.038179	144.836
0.050561	149.244
0.060876	153.652
0.069134	156.171
0.075325	157.431
0.083573	159.32
0.098022	161.524
0.156841	166.877
0.207392	171.285
0.258987	175.063
0.310581	178.212
0.351851	180.101
0.41067	182.935
0.452973	184.509
0.502501	186.398
0.552029	188.917
0.60568	190.806
0.664489	193.955
0.710927	196.474
0.760454	199.937
0.814106	203.4
0.863634	207.809
0.913161	213.476
0.962689	219.458
1.00603	247.481
0.009281	153.023
0.046427	188.287
0.084606	196.788
0.201201	207.179
0.299233	211.902
0.397255	215.365
0.422019	215.995
0.443682	216.94
0.484962	222.292
0.503535	224.811
0.601556	227.96
0.703702	230.479
0.803791	233.627
0.892531	236.146
1.00397	247.481
