Adsorption isotherm of Carbon Dioxide on COF-366-(OMe)2-Co
DOI: 10.1021/jacs.7b11940
Article source: Figure S33
Adsorbate Carbon Dioxide: InChIKey CURLTUGMZLYLDI-UHFFFAOYSA-N
Kind: experiment
Temperature: 273 K
Tabular data in the source: 0
pressure (bar)	uptake (cm3(STP)/g)
0.289612	0.19802
0.68761	0.94059
1.04936	1.48515
1.37522	1.9802
1.73697	2.62376
2.42458	3.56436
2.75044	3.9604
3.11219	4.45545
3.40181	5.0495
3.76391	5.54455
5.50088	7.62376
7.23786	9.80198
8.97518	11.7822
10.7122	13.7624
12.4857	15.7426
14.2227	17.6238
15.9597	19.4555
17.697	21.2871
19.4702	23.0693
21.2075	24.8515
22.9445	26.6337
24.6815	28.3168
26.4188	30.0495
28.1558	31.6832
29.8931	33.3663
31.6663	35.0495
33.4033	36.6832
34.851	38.1683
