Adsorption isotherm of Carbon Dioxide on COF-366-(F)4-Co
DOI: 10.1021/jacs.7b11940
Article source: Figure S35
Adsorbate Carbon Dioxide: InChIKey CURLTUGMZLYLDI-UHFFFAOYSA-N
Kind: experiment
Temperature: 273 K
Tabular data in the source: 0
pressure (bar)	uptake (cm3(STP)/g)
0.278808	1.1236
0.592467	2.13483
0.975828	3.14607
1.28949	4.1573
1.67285	5.11236
2.26532	6.62921
2.75323	7.64045
3.10174	8.42697
3.4154	9.10112
3.79876	9.88764
5.3322	12.6966
7.07475	15.5056
8.8173	18.0899
10.5947	20.5056
12.3024	22.7528
14.0798	24.8315
15.8572	26.7978
17.5998	28.6517
19.3423	30.3933
21.0849	32.0225
22.8274	33.5955
24.6048	35.1685
26.3474	36.6854
28.0551	38.0899
29.7976	39.5506
31.575	41.0112
33.2827	42.4157
34.8162	43.6517
