Adsorption isotherm of Carbon Dioxide on COF-366-(OMe)2-Co
DOI: 10.1021/jacs.7b11940
Article source: Figure S33
Adsorbate Carbon Dioxide: InChIKey CURLTUGMZLYLDI-UHFFFAOYSA-N
Kind: experiment
Temperature: 283 K
Tabular data in the source: 0
pressure (bar)	uptake (cm3(STP)/g)
3.27265	3.06931
3.92727	3.66337
4.95557	4.45545
7.10627	6.13861
9.39699	7.82178
11.6413	9.50495
13.8852	11.0891
16.176	12.6733
18.4203	14.1584
20.6642	15.6436
22.9085	17.1287
25.1993	18.5149
27.4432	20
29.6875	21.3861
31.9314	22.7723
34.1758	24.1584
36.4196	25.5445
38.6635	26.9307
40.9547	28.2178
43.1518	29.604
45.022	30.7921
