Adsorption isotherm of Carbon Dioxide on COF-366-Co
DOI: 10.1021/jacs.7b11940
Article source: Figure S32
Adsorbate Carbon Dioxide: InChIKey CURLTUGMZLYLDI-UHFFFAOYSA-N
Kind: experiment
Temperature: 283 K
Tabular data in the source: 0
pressure (bar)	uptake (cm3(STP)/g)
1.14671	0.93897
1.58748	1.59624
1.94045	1.97183
2.29297	2.53521
3.08671	3.28638
3.52747	3.94366
3.96869	4.31925
4.4977	4.69484
4.93891	5.16432
7.09952	6.94836
9.30425	8.73239
11.5531	10.4225
13.8019	12.0188
16.0508	13.615
18.2996	15.1174
20.5489	16.6197
22.7978	18.0282
25.0466	19.4836
27.3396	20.8451
29.5885	22.2066
31.8373	23.5681
34.0862	24.8357
36.335	26.1502
38.5839	27.4178
40.8327	28.7324
43.0816	30.0469
44.9779	31.0798
