Adsorption isotherm of Carbon Dioxide on COF-366-F-Co
DOI: 10.1021/jacs.7b11940
Article source: Figure S34
Adsorbate Carbon Dioxide: InChIKey CURLTUGMZLYLDI-UHFFFAOYSA-N
Kind: experiment
Temperature: 283 K
Tabular data in the source: 0
pressure (bar)	uptake (cm3(STP)/g)
3.11687	3.08483
3.72287	3.49614
4.06909	3.90746
4.5022	4.31877
4.93531	4.8329
7.09952	6.88946
9.35062	8.84319
11.6017	10.6941
13.896	12.4422
16.1039	14.1388
18.3982	15.8869
20.6493	17.4807
22.8572	19.126
25.1515	20.7198
27.4026	22.3136
29.6537	23.856
31.9048	25.347
34.1559	26.9923
36.407	28.3805
38.7018	29.82
40.9529	31.2596
43.1171	32.8021
44.9356	34.2416
