Adsorption isotherm of Carbon Dioxide on COF-366-Co
DOI: 10.1021/jacs.7b11940
Article source: Figure S32
Adsorbate Carbon Dioxide: InChIKey CURLTUGMZLYLDI-UHFFFAOYSA-N
Kind: experiment
Temperature: 298 K
Tabular data in the source: 0
pressure (bar)	uptake (cm3(STP)/g)
2.65073	1.22066
3.02895	1.69014
4.16488	1.97183
5.04825	2.34742
5.80597	2.62911
6.43676	2.9108
7.06819	3.33333
10.0971	4.69484
13.3787	5.91549
16.597	7.277
19.8154	8.4507
23.0338	9.67136
26.2522	10.8451
29.4706	11.9718
32.6896	13.0986
35.908	14.1784
39.0632	15.3991
42.3447	16.5258
45.5631	17.5587
48.6552	18.5446
51.9998	19.5775
55.2182	20.5634
58.4366	21.5962
61.7181	22.5352
64.3057	23.4272
