Adsorption isotherm of Carbon Dioxide on COF-366-Co
DOI: 10.1021/jacs.7b11940
Article source: Figure S32
Adsorbate Carbon Dioxide: InChIKey CURLTUGMZLYLDI-UHFFFAOYSA-N
Kind: experiment
Temperature: 273 K
Tabular data in the source: 0
pressure (bar)	uptake (cm3(STP)/g)
0.352972	0.65728
0.837859	1.3615
1.32275	2.06573
1.76396	2.723
2.20473	3.38028
3.08671	4.41315
3.61572	4.97653
4.01281	5.53991
4.4977	6.10329
4.93891	6.61972
7.01128	8.77934
9.26013	10.892
11.5531	12.9578
13.8461	14.9296
16.0508	16.8075
18.2996	18.5916
20.5489	20.3756
22.7978	22.0657
25.0466	23.7559
27.2955	25.3991
29.5443	26.9484
31.7932	28.5916
34.042	30.1409
36.2909	31.6901
38.5397	33.2394
40.8327	34.6479
43.0379	36.1502
44.9779	37.4648
