Adsorption isotherm of Carbon Dioxide on COF-366-F-Co
DOI: 10.1021/jacs.7b11940
Article source: Figure S34
Adsorbate Carbon Dioxide: InChIKey CURLTUGMZLYLDI-UHFFFAOYSA-N
Kind: experiment
Temperature: 273 K
Tabular data in the source: 0
pressure (bar)	uptake (cm3(STP)/g)
0.275694	0.30848
0.654998	1.13111
1.0343	1.74807
1.37883	2.36504
1.79255	2.98201
2.48197	4.11311
2.82685	4.73008
3.2058	5.29563
3.51627	5.75835
3.92999	6.37532
5.61893	8.74036
7.44589	11.1054
9.23844	13.162
11.031	15.3728
12.8235	17.4807
14.6853	19.5373
16.4086	21.491
18.2356	23.4447
19.9937	25.347
21.7863	27.2494
23.6133	29.1003
25.3714	30.9512
27.1639	32.7506
28.9565	34.4987
30.749	36.2982
32.5416	38.0463
34.3341	39.7943
35.8166	41.3368
