Adsorption isotherm of Carbon Dioxide on COF-366-(OMe)2-Co
DOI: 10.1021/jacs.7b11940
Article source: Figure S33
Adsorbate Carbon Dioxide: InChIKey CURLTUGMZLYLDI-UHFFFAOYSA-N
Kind: experiment
Temperature: 298 K
Tabular data in the source: 0
pressure (bar)	uptake (cm3(STP)/g)
5.47872	2.57426
6.41425	2.9703
7.08212	3.26733
10.1557	4.55446
13.4295	5.89109
16.6369	7.07921
19.8437	8.36634
22.9842	9.70297
26.3249	10.9901
29.4648	12.0297
32.6722	13.3168
35.9459	14.4555
39.1534	15.6436
42.3602	16.7327
45.6339	17.7723
48.9076	18.8119
52.0482	19.901
55.3219	20.9901
58.5293	22.0792
61.7361	23.1683
64.2751	24.1584
