Adsorption isotherm of Carbon Dioxide on COF-366-(F)4-Co
DOI: 10.1021/jacs.7b11940
Article source: Figure S35
Adsorbate Carbon Dioxide: InChIKey CURLTUGMZLYLDI-UHFFFAOYSA-N
Kind: experiment
Temperature: 283 K
Tabular data in the source: 0
pressure (bar)	uptake (cm3(STP)/g)
1.93595	2.80899
2.11603	3.59551
3.01647	4.7191
3.46669	5.50562
3.91691	5.95506
4.45718	6.51685
4.9074	7.19101
6.97841	9.4382
9.22951	11.6854
11.4806	13.8202
13.7317	15.9551
15.9828	17.6966
18.2339	19.5506
20.485	21.1236
22.7361	22.6966
25.0322	24.2135
27.3284	25.7303
29.5344	27.1348
31.7855	28.5393
34.0366	29.8315
36.2877	31.1798
38.5839	32.3596
40.835	33.5955
43.0861	34.7191
44.977	35.8427
