Adsorption isotherm of Methane on MIL-53(Cr)
DOI: 10.1021/Jp311601q
Adsorbate Methane: InChIKey VNWKTOKETHGBQD-UHFFFAOYSA-N
Temperature: 300 K
Tabular data in the source: 0
pressure (bar)	uptake (molecules/unitcell)
1.19e-05	0.112829
4.74e-05	0.126913
0.000192	0.140998
0.000931	0.126913
0.00323421	0.155082
0.00651618	0.21142
0.0141913	0.422688
0.0275008	0.845223
0.0493022	1.80297
0.0866835	3.92973
0.164744	5.70438
0.331921	6.69029
0.878154	7.50719
2.02745	8.02832
9.24923	8.61987
62.2694	9.08466
