Adsorption isotherm of Carbon Dioxide on MIL-53(Cr)
DOI: 10.1021/Jp311601q
Adsorbate Carbon Dioxide: InChIKey CURLTUGMZLYLDI-UHFFFAOYSA-N
Temperature: 300 K
Tabular data in the source: 0
pressure (bar)	uptake (molecules/unitcell)
1.07e-05	0.0947643
3.8e-05	0.109066
0.00028	0.123367
0.0011154	0.109066
0.00266066	0.166271
0.00462651	0.337889
0.00905738	0.795534
0.193658	8.4039
0.461949	8.79003
1.54179	9.19047
6.65288	9.53371
24.5102	9.74823
67.1382	9.84834
