Adsorption isotherm of Carbon monoxide on MOF-74-Ni
DOI: 10.1021/Jp809872w
Adsorbate Carbon monoxide: InChIKey UGFAIRIUMAVXCW-UHFFFAOYSA-N
Temperature: 303 K
Tabular data in the source: 0
pressure (bar)	uptake (mol gas/mol Ni)
0.000503	0.00674161
0.000503	0.0556828
0.00142043	0.178036
0.00220698	0.24096
0.00286245	0.302137
0.00456665	0.370305
0.00587757	0.422742
0.0111213	0.543347
0.0184624	0.627246
0.0260658	0.683179
0.0438944	0.746103
0.0610675	0.784557
