Adsorption isotherm of Carbon monoxide on MOF-74-Ni
DOI: 10.1021/Jp809872w
Adsorbate Carbon monoxide: InChIKey UGFAIRIUMAVXCW-UHFFFAOYSA-N
Temperature: 303 K
Tabular data in the source: 0
pressure (bar)	uptake (mol gas/mol Ni)
0.000503	0.00324581
0.000634	0.0941366
0.00102715	0.160557
0.00168262	0.225229
0.00233808	0.275918
0.00312463	0.323111
0.00469774	0.391279
0.00600867	0.445464
0.0112524	0.553834
0.0176759	0.628994
0.0440255	0.746103
0.0613297	0.777565
