Adsorption isotherm of Carbon Dioxide, Nitrogen, Methane on MOF-508b
DOI: 10.1021/jp077618g
Article source: Figure 8b3
Adsorbate Carbon Dioxide: InChIKey CURLTUGMZLYLDI-UHFFFAOYSA-N
Adsorbate Nitrogen: InChIKey IJGRMHOSHXDMSA-UHFFFAOYSA-N
Adsorbate Methane: InChIKey VNWKTOKETHGBQD-UHFFFAOYSA-N
Kind: experiment
Temperature: 303 K
Tabular data in the source: 0
pressure (bar)	Carbon Dioxide fraction	Carbon Dioxide uptake (mmol/g)	Nitrogen fraction	Nitrogen uptake (mmol/g)	Methane fraction	Methane uptake (mmol/g)	total uptake (mmol/g)
1.9995	0.33	1.04863	0.33	0.245283	0.33	0.301887	
3.00166	0.33	1.50947	0.33	0.320755	0.33	0.415094	
3.97726	0.33	2.02747	0.33	0.377358	0.33	0.509434	
