Adsorption isotherm of Carbon Dioxide on MOF-508b
DOI: 10.1021/jp077618g
Article source: Figure 5
Adsorbate Carbon Dioxide: InChIKey CURLTUGMZLYLDI-UHFFFAOYSA-N
Kind: experiment
Temperature: 323 K
Tabular data in the source: 0
pressure (bar)	uptake (mmol/g)
0.092409	0.120074
0.462046	0.672084
1.0297	1.29699
2.0198	2.13956
3.0495	2.98237
4.50165	3.97113
