Adsorption isotherm of Carbon Dioxide on MOF-508
DOI: 10.1021/Jp077618g
Adsorbate Carbon Dioxide: InChIKey CURLTUGMZLYLDI-UHFFFAOYSA-N
Temperature: 343 K
Tabular data in the source: 0
pressure (bar)	uptake (mmol/g)
0.117994	0.131455
0.516224	0.558685
1.0177	0.920188
2.0649	1.61033
3.03835	2.13615
4.54277	2.99061
