Adsorption isotherm of Carbon Dioxide on MOF-508
DOI: 10.1021/Jp077618g
Adsorbate Carbon Dioxide: InChIKey CURLTUGMZLYLDI-UHFFFAOYSA-N
Temperature: 303 K
Tabular data in the source: 0
pressure (bar)	uptake (mmol/g)
0.131965	0.260819
0.469208	0.978239
1.01173	1.75974
2.03812	3.09414
3.03519	4.26519
4.51613	5.92373
