Adsorption isotherm of Methane on Zeolite 5A
DOI: 10.1021/jp077618g
Article source: Figure 4b
Adsorbate Methane: InChIKey VNWKTOKETHGBQD-UHFFFAOYSA-N
Kind: experiment
Temperature: 323 K
Tabular data in the source: 0
pressure (bar)	uptake (mmol/g)
0.132353	0.131148
0.544118	0.360656
1.02941	0.590164
2.05882	1.01639
3.04412	1.37705
4.51471	1.86885
