Adsorption isotherm of Carbon Dioxide on MOF-508b
DOI: 10.1021/jp077618g
Article source: Figure 5
Adsorbate Carbon Dioxide: InChIKey CURLTUGMZLYLDI-UHFFFAOYSA-N
Kind: experiment
Temperature: 343 K
Tabular data in the source: 0
pressure (bar)	uptake (mmol/g)
0.097531	0.126043
0.509697	0.57456
1.00137	0.927334
2.0377	1.56113
3.04738	2.1238
4.52208	2.96812
