Adsorption isotherm of Methane on MOF-508
DOI: 10.1021/Jp077618g
Adsorbate Methane: InChIKey VNWKTOKETHGBQD-UHFFFAOYSA-N
Temperature: 323 K
Tabular data in the source: 0
pressure (bar)	uptake (mmol/g)
0.102913	0.130841
0.558007	0.392523
1.02769	0.621495
2.05484	0.981308
3.02347	1.40654
4.47611	1.8972
