Adsorption isotherm of Carbon Dioxide on Zeolite 5A
DOI: 10.1021/jp077618g
Article source: Figure 4a
Adsorbate Carbon Dioxide: InChIKey CURLTUGMZLYLDI-UHFFFAOYSA-N
Kind: experiment
Temperature: 303 K
Tabular data in the source: 0
pressure (bar)	uptake (mmol/g)
0.117994	0.229508
0.457227	0.983607
0.988201	1.83607
2.0354	3.11475
3.03835	4.2623
4.52802	5.93443
