Adsorption isotherm of Carbon Dioxide on Zeolite 5A
DOI: 10.1021/jp077618g
Article source: Figure 4b
Adsorbate Carbon Dioxide: InChIKey CURLTUGMZLYLDI-UHFFFAOYSA-N
Kind: experiment
Temperature: 323 K
Tabular data in the source: 0
pressure (bar)	uptake (mmol/g)
0.102941	0.163934
0.455882	0.688525
1.02941	1.34426
2.02941	2.16393
3.04412	2.98361
4.5	4
