Adsorption isotherm of Nitrogen on MOF-508
DOI: 10.1021/Jp077618g
Adsorbate Nitrogen: InChIKey IJGRMHOSHXDMSA-UHFFFAOYSA-N
Temperature: 303 K
Tabular data in the source: 0
pressure (bar)	uptake (mmol/g)
0.660699	0.227488
0.98425	0.322275
1.32781	0.36019
