Adsorption isotherm of Nitrogen on Zeolite 5A
DOI: 10.1021/jp077618g
Article source: Figure 4b
Adsorbate Nitrogen: InChIKey IJGRMHOSHXDMSA-UHFFFAOYSA-N
Kind: experiment
Temperature: 323 K
Tabular data in the source: 0
pressure (bar)	uptake (mmol/g)
0.121566	0.098684
0.515661	0.361842
0.939153	0.592105
2.00616	0.921053
3.01412	1.38158
4.59243	1.94079
