Adsorption isotherm of Methane on Zeolite 5A
DOI: 10.1021/jp077618g
Article source: Figure 4c
Adsorbate Methane: InChIKey VNWKTOKETHGBQD-UHFFFAOYSA-N
Kind: experiment
Temperature: 343 K
Tabular data in the source: 0
pressure (bar)	uptake (mmol/g)
0.117647	0.122396
0.529412	0.325094
1.04412	0.561954
2.04412	0.969293
2.95588	1.30961
4.51471	1.85521
