Adsorption isotherm of Carbon Dioxide on Zeolite 5A
DOI: 10.1021/jp077618g
Article source: Figure 4c
Adsorbate Carbon Dioxide: InChIKey CURLTUGMZLYLDI-UHFFFAOYSA-N
Kind: experiment
Temperature: 343 K
Tabular data in the source: 0
pressure (bar)	uptake (mmol/g)
0.117647	0.163934
0.514706	0.557377
1	0.918033
2.02941	1.57377
3.02941	2.13115
4.51471	2.98361
