Adsorption isotherm of Carbon Dioxide on MOF-508b
DOI: 10.1021/jp077618g
Article source: Figure 5
Adsorbate Carbon Dioxide: InChIKey CURLTUGMZLYLDI-UHFFFAOYSA-N
Kind: experiment
Temperature: 303 K
Tabular data in the source: 0
pressure (bar)	uptake (mmol/g)
0.105611	0.191866
0.448845	0.958858
1.0033	1.79882
2.033	3.09581
3.0363	4.29703
4.50165	5.97909
