Adsorption isotherm of Nitrogen on MOF-508
DOI: 10.1021/Jp077618g
Adsorbate Nitrogen: InChIKey IJGRMHOSHXDMSA-UHFFFAOYSA-N
Temperature: 343 K
Tabular data in the source: 0
pressure (bar)	uptake (mmol/g)
0.117994	0.131455
0.530973	0.394366
1.00295	0.591549
2.05015	1.01878
3.0236	1.41315
4.52802	1.93897
