Adsorption isotherm of Carbon Dioxide on MOF-508
DOI: 10.1021/Jp077618g
Adsorbate Carbon Dioxide: InChIKey CURLTUGMZLYLDI-UHFFFAOYSA-N
Temperature: 303 K
Tabular data in the source: 0
pressure (bar)	uptake (mmol/g)
0.498443	0.860106
1.00487	1.51358
2.0093	2.82059
