Adsorption isotherm of Carbon Dioxide, Nitrogen on MOF-508b
DOI: 10.1021/jp077618g
Article source: Figure 8b2
Adsorbate Carbon Dioxide: InChIKey CURLTUGMZLYLDI-UHFFFAOYSA-N
Adsorbate Nitrogen: InChIKey IJGRMHOSHXDMSA-UHFFFAOYSA-N
Kind: experiment
Temperature: 303 K
Tabular data in the source: 0
pressure (bar)	Carbon Dioxide fraction	Carbon Dioxide uptake (mmol/g)	Nitrogen fraction	Nitrogen uptake (mmol/g)	total uptake (mmol/g)
1.00107	0.5	0.90566	0.5	0.244767	
2.00741	0.5	1.58491	0.5	0.370253	
4.0032	0.5	2.86792	0.5	0.564847	
