Adsorption isotherm of Methane on MOF-508
DOI: 10.1021/Jp077618g
Adsorbate Methane: InChIKey VNWKTOKETHGBQD-UHFFFAOYSA-N
Temperature: 303 K
Tabular data in the source: 0
pressure (bar)	uptake (mmol/g)
0.661018	0.322275
0.998037	0.417062
1.32152	0.492891
