Adsorption isotherm of Methane on Zeolite 5A
DOI: 10.1021/jp077618g
Article source: Figure 4a
Adsorbate Methane: InChIKey VNWKTOKETHGBQD-UHFFFAOYSA-N
Kind: experiment
Temperature: 303 K
Tabular data in the source: 0
pressure (bar)	uptake (mmol/g)
0.147493	0.163934
0.545723	0.42623
1.03245	0.655738
2.0354	1.08197
3.03835	1.47541
4.51327	2
