Adsorption isotherm of Nitrogen on MOF-508
DOI: 10.1021/Jp077618g
Adsorbate Nitrogen: InChIKey IJGRMHOSHXDMSA-UHFFFAOYSA-N
Temperature: 303 K
Tabular data in the source: 0
pressure (bar)	uptake (mmol/g)
0.495444	0.227488
0.999078	0.36019
1.99788	0.587678
