Adsorption isotherm of Carbon Dioxide on MOF-508
DOI: 10.1021/Jp077618g
Adsorbate Carbon Dioxide: InChIKey CURLTUGMZLYLDI-UHFFFAOYSA-N
Temperature: 303 K
Tabular data in the source: 0
pressure (bar)	uptake (mmol/g)
0.663443	1.04265
1.00854	1.53555
1.33343	2.02844
