Adsorption isotherm of Methane on MOF-508
DOI: 10.1021/Jp077618g
Adsorbate Methane: InChIKey VNWKTOKETHGBQD-UHFFFAOYSA-N
Temperature: 303 K
Tabular data in the source: 0
pressure (bar)	uptake (mmol/g)
0.488801	0.278018
1.00273	0.49951
2.00523	0.886346
