Adsorption isotherm of Nitrogen on MOF-508
DOI: 10.1021/Jp077618g
Adsorbate Nitrogen: InChIKey IJGRMHOSHXDMSA-UHFFFAOYSA-N
Temperature: 323 K
Tabular data in the source: 0
pressure (bar)	uptake (mmol/g)
0.102913	0.130841
0.469962	0.359813
0.910324	0.588785
1.96686	0.981308
3.02347	1.40654
4.60829	1.99533
