Adsorption isotherm of Nitrogen on MOF-508
DOI: 10.1021/Jp077618g
Adsorbate Nitrogen: InChIKey IJGRMHOSHXDMSA-UHFFFAOYSA-N
Temperature: 303 K
Tabular data in the source: 0
pressure (bar)	uptake (mmol/g)
0.16129	0.195207
0.571848	0.454203
1.05572	0.647299
2.03812	1.0334
3.03519	1.45211
4.51613	1.96578
