Adsorption isotherm of Carbon Dioxide on MOF-508
DOI: 10.1021/Jp077618g
Adsorbate Carbon Dioxide: InChIKey CURLTUGMZLYLDI-UHFFFAOYSA-N
Temperature: 303 K
Tabular data in the source: 0
pressure (bar)	uptake (mmol/g)
0.10582	0.215017
0.449735	0.979522
1.00529	1.79181
2.05026	3.08191
3.04233	4.27645
4.51058	5.92491
