Adsorption isotherm of Nitrogen on Zeolite 5A
DOI: 10.1021/jp077618g
Article source: Figure 4a
Adsorbate Nitrogen: InChIKey IJGRMHOSHXDMSA-UHFFFAOYSA-N
Kind: experiment
Temperature: 303 K
Tabular data in the source: 0
pressure (bar)	uptake (mmol/g)
0.117647	0.098361
0.529412	0.459016
1	0.655738
2.01471	1.01639
3.02941	1.44262
4.5	1.96721
