Adsorption isotherm of Carbon Dioxide, Methane on MOF-508b
DOI: 10.1021/jp077618g
Article source: Figure 8b1
Adsorbate Carbon Dioxide: InChIKey CURLTUGMZLYLDI-UHFFFAOYSA-N
Adsorbate Methane: InChIKey VNWKTOKETHGBQD-UHFFFAOYSA-N
Kind: experiment
Temperature: 303 K
Tabular data in the source: 0
pressure (bar)	Carbon Dioxide fraction	Carbon Dioxide uptake (mmol/g)	Methane fraction	Methane uptake (mmol/g)	total uptake (mmol/g)
0.997852	0.5	0.835443	0.5	0.283019	
2.00103	0.5	1.51899	0.5	0.490566	
3.99078	0.5	2.82911	0.5	0.886792	
