Adsorption isotherm of Methane on MOF-508
DOI: 10.1021/Jp077618g
Adsorbate Methane: InChIKey VNWKTOKETHGBQD-UHFFFAOYSA-N
Temperature: 343 K
Tabular data in the source: 0
pressure (bar)	uptake (mmol/g)
0.117994	0.131455
0.516224	0.361502
1.03245	0.591549
2.05015	1.01878
2.97935	1.34742
4.52802	1.84038
