Adsorption isotherm of Nitrogen on Zeolite 5A
DOI: 10.1021/jp077618g
Article source: Figure 4c
Adsorbate Nitrogen: InChIKey IJGRMHOSHXDMSA-UHFFFAOYSA-N
Kind: experiment
Temperature: 343 K
Tabular data in the source: 0
pressure (bar)	uptake (mmol/g)
0.132353	0.098361
0.558824	0.393443
1.02941	0.590164
2.05882	0.983607
3.02941	1.34426
4.51471	1.90164
