Adsorption isotherm of Carbon Dioxide on MOF-508
DOI: 10.1021/Jp077618g
Adsorbate Carbon Dioxide: InChIKey CURLTUGMZLYLDI-UHFFFAOYSA-N
Temperature: 323 K
Tabular data in the source: 0
pressure (bar)	uptake (mmol/g)
0.10582	0.215017
0.462963	0.692833
1.04497	1.31399
2.02381	2.15017
3.04233	2.98635
4.51058	3.96587
