Adsorption isotherm of Carbon Dioxide on MOF-508
DOI: 10.1021/Jp077618g
Adsorbate Carbon Dioxide: InChIKey CURLTUGMZLYLDI-UHFFFAOYSA-N
Temperature: 323 K
Tabular data in the source: 0
pressure (bar)	uptake (mmol/g)
0.102913	0.130841
0.470716	0.719626
1.02913	1.30841
2.02791	2.12617
3.05609	2.97664
4.50976	3.95794
