Adsorption isotherm of Carbon Dioxide on MOF-508
DOI: 10.1021/Jp077618g
Adsorbate Carbon Dioxide: InChIKey CURLTUGMZLYLDI-UHFFFAOYSA-N
Temperature: 343 K
Tabular data in the source: 0
pressure (bar)	uptake (mmol/g)
0.119048	0.119454
0.515873	0.573379
1.00529	0.931741
2.05026	1.60068
3.0291	2.15017
4.51058	2.96246
