Adsorption isotherm of Propene on Zeolite 13X
DOI: 10.1007/s10450-007-9101-x
Adsorbate Propene: InChIKey QQONPFPTGQHPMA-UHFFFAOYSA-N
Temperature: 318 K
Tabular data in the source: 0
pressure (bar)	uptake (mmol/g)
0.00864738	0.979547
0.0135483	1.11661
0.0271728	1.50626
0.0538902	1.62331
0.277498	1.78248
0.544201	2.03189
