Adsorption isotherm of N-propane on 36 wt% CuCl/NaX
DOI: 10.1007/s10450-007-9101-x
Article source: Figure 1
Adsorbate N-propane: InChIKey ATUOYWHBWRKTHZ-UHFFFAOYSA-N
Kind: experiment
Temperature: 318 K
Tabular data in the source: 0
pressure (bar)	uptake (mmol/g)
0.005719	0.14456
0.011066	0.27021
0.017636	0.4027
0.025293	0.51536
0.035335	0.60588
0.047654	0.6787
0.064269	0.75153
0.081508	0.80226
0.100693	0.84194
0.132251	0.90372
0.167726	0.94116
0.19829	0.96537
0.238561	0.99178
0.2746	1.01601
0.302552	1.03365
0.33037	1.0535
0.367198	1.06891
0.397466	1.08434
0.437824	1.09755
0.469786	1.11299
0.531374	1.12838
0.590609	1.15043
0.668036	1.16361
0.749031	1.17679
0.84004	1.19219
0.933469	1.20982
1.02849	1.22302
1.12305	1.23844
