Adsorption isotherm of N-propane, Propene on Na-X
DOI: 10.1007/s10450-007-9101-x
Article source: Figure 6
Adsorbate N-propane: InChIKey ATUOYWHBWRKTHZ-UHFFFAOYSA-N
Adsorbate Propene: InChIKey QQONPFPTGQHPMA-UHFFFAOYSA-N
Kind: experiment
Temperature: 358 K
Tabular data in the source: 0
pressure (bar)	N-propane fraction	N-propane uptake (mmol/g)	Propene fraction	Propene uptake (mmol/g)	total uptake (mmol/g)
0.008583	0.5	0.133045	0.5	0.4783	
0.01373	0.5	0.133045	0.5	0.604227	
0.027372	0.5	0.184204	0.5	0.947545	
0.054558	0.5	0.250438	0.5	1.17571	
0.278132	0.5	0.3111	0.5	1.40734	
0.554325	0.5	0.3661	0.5	1.65463	
