Adsorption isotherm of N-propane on Zeolite 13X
DOI: 10.1007/s10450-007-9101-x
Adsorbate N-propane: InChIKey ATUOYWHBWRKTHZ-UHFFFAOYSA-N
Temperature: 404 K
Tabular data in the source: 0
pressure (bar)	uptake (mmol/g)
0.0279861	0.148266
0.0403049	0.219867
0.0559325	0.277147
0.0820609	0.388128
0.110412	0.499109
0.140518	0.61009
0.183311	0.756872
0.242112	0.914393
0.329812	1.12562
0.406966	1.28314
0.508416	1.4335
0.659159	1.60892
0.844094	1.78434
1.17864	1.98124
