Adsorption isotherm of Propene on 36 Wt% CuCl/Zeolite NaX
DOI: 10.1007/s10450-007-9101-x
Adsorbate Propene: InChIKey QQONPFPTGQHPMA-UHFFFAOYSA-N
Temperature: 358 K
Tabular data in the source: 0
pressure (bar)	uptake (mmol/g)
0.000698	0.201218
0.00236016	0.399619
0.00570843	0.574873
0.0109317	0.720367
0.0169149	0.822875
0.0259086	0.938609
0.0381051	1.02128
0.0501215	1.09733
0.0652613	1.15354
0.0832664	1.20976
0.102011	1.25274
0.13418	1.29573
0.201393	1.35525
0.273094	1.40154
0.337987	1.428
0.405751	1.46437
0.502166	1.49744
0.596759	1.52389
0.817476	1.58672
1.01172	1.64293
1.15446	1.676
