Adsorption isotherm of N-propane on Zeolite NaX
DOI: 10.1007/s10450-007-9101-x
Adsorbate N-propane: InChIKey ATUOYWHBWRKTHZ-UHFFFAOYSA-N
Temperature: 318 K
Tabular data in the source: 0
pressure (bar)	uptake (mmol/g)
0.00864738	0.203482
0.0141705	0.219293
0.0277898	0.249977
0.0544985	0.284954
0.277498	0.264409
0.56284	0.356677
