Adsorption isotherm of N-propane on Zeolite 13X
DOI: 10.1007/s10450-007-9101-x
Adsorbate N-propane: InChIKey ATUOYWHBWRKTHZ-UHFFFAOYSA-N
Temperature: 358 K
Tabular data in the source: 0
pressure (bar)	uptake (mmol/g)
0.00451709	0.123206
0.00731629	0.201966
0.0108676	0.287887
0.0144426	0.366648
0.0201667	0.488369
0.0292238	0.642311
0.0371923	0.796252
0.0488196	0.932293
0.0606136	1.08982
0.0757235	1.24734
0.0975701	1.42634
0.124175	1.59102
0.165023	1.79866
0.217957	1.99556
0.296908	2.17099
0.361861	2.27481
0.46626	2.41085
0.589738	2.51467
0.727696	2.60417
0.897927	2.69009
1.14277	2.78675
