Adsorption isotherm of Propene on 36 Wt% CuCl/Zeolite NaX
DOI: 10.1007/s10450-007-9101-x
Adsorbate Propene: InChIKey QQONPFPTGQHPMA-UHFFFAOYSA-N
Temperature: 318 K
Tabular data in the source: 0
pressure (bar)	uptake (mmol/g)
0.000127	0.187991
0.000301	0.389699
0.000691	0.591407
0.00154087	0.786501
0.00310443	0.965062
0.00588496	1.14362
0.0109317	1.27258
0.0193013	1.39824
0.0311032	1.46768
0.0491141	1.51728
0.0646021	1.55696
0.0867172	1.58341
0.0999609	1.59333
0.135549	1.62309
0.166064	1.64293
0.201393	1.65285
0.23933	1.67931
0.299221	1.69915
0.366582	1.71237
0.435635	1.73221
0.492073	1.75205
0.608999	1.78843
0.694916	1.79835
0.792955	1.82811
0.942323	1.86448
1.09732	1.89755
1.22696	1.94053
