Adsorption isotherm of Propene on Na-X
DOI: 10.1007/s10450-007-9101-x
Article source: Figure 1
Adsorbate Propene: InChIKey QQONPFPTGQHPMA-UHFFFAOYSA-N
Kind: experiment
Temperature: 318 K
Tabular data in the source: 0
pressure (bar)	uptake (mmol/g)
8.1e-05	0.1379
0.000134	0.2555
0.000185	0.3587
0.000248	0.5062
0.000319	0.639
0.000394	0.7645
0.00046	0.8974
0.000544	0.9934
0.000643	1.1337
0.00076	1.274
0.000874	1.3922
0.001034	1.5177
0.00119	1.6211
0.001407	1.7614
0.001664	1.8795
0.001996	2.0272
0.002498	2.1453
0.002913	2.256
0.003647	2.3741
0.004438	2.4626
0.005631	2.625
0.007251	2.7282
0.009339	2.8019
0.01121	2.883
0.014642	2.9714
0.018076	3.0599
0.02361	3.1409
0.028347	3.1998
0.036517	3.2513
0.046377	3.3176
0.056468	3.3839
0.068754	3.4354
0.096405	3.4867
0.131401	3.5455
0.155597	3.586
0.186853	3.6116
0.221208	3.6558
0.252872	3.6852
0.307964	3.7182
0.372477	3.7365
0.450609	3.7547
0.537403	3.7767
0.60548	3.8209
0.70194	3.854
0.813767	3.8834
0.977012	3.9312
1.07029	3.9866
