Adsorption isotherm of Propene on Zeolite 13X
DOI: 10.1007/s10450-007-9101-x
Adsorbate Propene: InChIKey QQONPFPTGQHPMA-UHFFFAOYSA-N
Temperature: 318 K
Tabular data in the source: 0
pressure (bar)	uptake (mmol/g)
0.00355566	0.235591
0.00411652	0.291648
0.00476585	0.347704
0.00542913	0.432156
0.00618472	0.516607
0.00704547	0.601058
0.00789696	0.699741
0.00899725	0.826685
0.00992293	0.953762
0.0122665	1.17952
0.0137512	1.3207
0.0161875	1.50416
0.0193754	1.80088
0.0231777	1.92762
0.025983	2.06879
0.0305865	2.25226
0.0360015	2.39324
0.0444939	2.54817
0.0586894	2.73118
0.0749238	2.85765
0.092587	2.9701
0.112572	3.09678
0.141382	3.19499
0.180482	3.3073
0.223027	3.41975
0.266774	3.51817
0.319072	3.58825
0.400711	3.67231
0.463938	3.74253
0.582535	3.76992
0.768176	3.86794
0.964768	3.96615
1.09894	4.02228
