Adsorption isotherm of N-propane on 36 Wt% CuCl/Zeolite NaX
DOI: 10.1007/s10450-007-9101-x
Adsorbate N-propane: InChIKey ATUOYWHBWRKTHZ-UHFFFAOYSA-N
Temperature: 408 K
Tabular data in the source: 0
pressure (bar)	uptake (mmol/g)
0.00844996	0.0173617
0.0136537	0.0244595
0.0277259	0.0290319
0.0556618	0.034459
0.278725	0.0476309
0.56599	0.130672
