Adsorption isotherm of Propene on 36 Wt% CuCl/Zeolite NaX
DOI: 10.1007/s10450-007-9101-x
Adsorbate Propene: InChIKey QQONPFPTGQHPMA-UHFFFAOYSA-N
Temperature: 404 K
Tabular data in the source: 0
pressure (bar)	uptake (mmol/g)
0.00451972	0.158231
0.0113847	0.270658
0.022476	0.376472
0.0351327	0.469059
0.0491141	0.5385
0.0652613	0.5881
0.0832664	0.65754
0.0999609	0.683994
0.131483	0.769968
0.164387	0.812954
0.234519	0.889008
0.308475	0.951835
0.370322	0.998129
0.462995	1.05765
0.561494	1.09402
0.694916	1.14362
0.868818	1.1833
1.03248	1.23621
1.16624	1.29242
