Adsorption isotherm of N-propane on 36 Wt% CuCl/Zeolite NaX
DOI: 10.1007/s10450-007-9101-x
Adsorbate N-propane: InChIKey ATUOYWHBWRKTHZ-UHFFFAOYSA-N
Temperature: 358 K
Tabular data in the source: 0
pressure (bar)	uptake (mmol/g)
0.00855086	0.0172197
0.0140123	0.0219609
0.022962	0.0259882
0.0347844	0.0280076
0.051524	0.0296245
0.0754675	0.0296245
0.119573	0.0313347
0.16934	0.0331437
0.242527	0.0325294
0.332093	0.0344073
0.439678	0.0344073
0.65862	0.0350571
0.8337	0.0363936
1.03189	0.0370809
