Adsorption isotherm of Propene on Zeolite 13X
DOI: 10.1007/s10450-007-9101-x
Adsorbate Propene: InChIKey QQONPFPTGQHPMA-UHFFFAOYSA-N
Temperature: 358 K
Tabular data in the source: 0
pressure (bar)	uptake (mmol/g)
0.00973644	0.118145
0.0148631	0.243889
0.0192855	0.3703
0.0234482	0.496977
0.0280505	0.623721
0.031442	0.736567
0.0352468	0.877742
0.040156	0.990522
0.0442874	1.1176
0.0496444	1.24461
0.0547533	1.37169
0.0594183	1.52716
0.0666024	1.64
0.0734514	1.75292
0.0836855	1.87986
0.100143	2.10575
0.117882	2.27506
0.129993	2.35964
0.158068	2.51465
0.192207	2.66965
0.211944	2.74007
0.249419	2.82439
0.303259	2.95107
0.351109	3.02129
0.393489	3.07748
0.455555	3.13354
0.527436	3.20376
0.600814	3.27404
0.707012	3.3442
0.792352	3.40039
0.932407	3.47054
1.07948	3.5266
