Adsorption isotherm of Propene on Na-X
DOI: 10.1007/s10450-007-9101-x
Article source: Figure 1
Adsorbate Propene: InChIKey QQONPFPTGQHPMA-UHFFFAOYSA-N
Kind: experiment
Temperature: 404 K
Tabular data in the source: 0
pressure (bar)	uptake (mmol/g)
0.002097	0.1263
0.004425	0.2289
0.008219	0.3908
0.011194	0.5013
0.014015	0.5898
0.016581	0.7005
0.019346	0.7891
0.023217	0.8702
0.027861	0.9661
0.031608	1.0473
0.034858	1.1212
0.040096	1.2172
0.046784	1.3057
0.051582	1.3943
0.059361	1.4533
0.066405	1.5198
0.106856	1.8668
0.128204	1.9849
0.160435	2.1103
0.195254	2.221
0.218424	2.2801
0.247856	2.3391
0.285233	2.3907
0.31017	2.4645
0.328095	2.494
0.377572	2.5456
0.416582	2.5825
0.466122	2.6193
0.500035	2.6488
0.528932	2.6709
0.591834	2.7152
0.653131	2.7446
0.720444	2.7963
0.829087	2.8479
0.901986	2.8847
1.03801	2.9363
1.16091	3.025
