Adsorption isotherm of N-propane on Zeolite 13X
DOI: 10.1007/s10450-007-9101-x
Adsorbate N-propane: InChIKey ATUOYWHBWRKTHZ-UHFFFAOYSA-N
Temperature: 318 K
Tabular data in the source: 0
pressure (bar)	uptake (mmol/g)
0.00123311	0.198386
0.00176496	0.287887
0.0024192	0.373808
0.00305987	0.452569
0.00384635	0.54565
0.00486496	0.670951
0.00634652	0.814152
0.00807703	0.957354
0.0106679	1.15068
0.0135767	1.31536
0.0170663	1.48362
0.0211892	1.6304
0.0281596	1.8452
0.0367352	2.02062
0.051613	2.22469
0.0771411	2.42875
0.115296	2.60059
0.16199	2.72589
0.227596	2.84045
0.317802	2.95501
0.472061	3.08031
0.701197	3.1913
0.97911	3.27364
1.17864	3.30586
