Adsorption isotherm of N-propane on Zeolite 13X
DOI: 10.1007/s10450-007-9101-x
Adsorbate N-propane: InChIKey ATUOYWHBWRKTHZ-UHFFFAOYSA-N
Temperature: 318 K
Tabular data in the source: 0
pressure (bar)	uptake (mmol/g)
0.00855086	0.132328
0.0138559	0.14261
0.0194037	0.148047
0.0264912	0.151127
0.0344266	0.156372
0.0456642	0.159606
0.0628433	0.164022
0.0830162	0.169715
0.100219	0.169715
0.136239	0.173225
0.185964	0.178018
0.253838	0.181699
0.355101	0.184196
0.507035	0.185457
0.680854	0.189292
0.828701	0.189292
0.956374	0.188005
