Adsorption isotherm of Propene on Zeolite 13X
DOI: 10.1007/s10450-007-9101-x
Adsorbate Propene: InChIKey QQONPFPTGQHPMA-UHFFFAOYSA-N
Temperature: 318 K
Tabular data in the source: 0
pressure (bar)	uptake (mmol/g)
0.00349655	0.0798523
0.00476387	0.220227
0.00588708	0.346838
0.00789478	0.614756
0.0100818	0.840382
0.0120662	1.10877
0.0135257	1.23578
0.0161868	1.49
0.017853	1.63124
0.021715	1.87123
0.0239491	1.99831
0.0305865	2.25226
0.0397	2.47782
0.0459727	2.6047
0.0616368	2.8018
0.069086	2.90048
0.0926126	3.05508
0.12213	3.16726
0.161073	3.30777
0.202286	3.39182
0.254031	3.46171
0.351724	3.55953
0.427569	3.62955
0.479135	3.65741
0.5638	3.7134
0.663456	3.78355
0.806486	3.83941
0.980396	3.90943
1.13504	3.96549
