Adsorption isotherm of N-propane on 36 Wt% CuCl/Zeolite NaX
DOI: 10.1007/s10450-007-9101-x
Adsorbate N-propane: InChIKey ATUOYWHBWRKTHZ-UHFFFAOYSA-N
Temperature: 404 K
Tabular data in the source: 0
pressure (bar)	uptake (mmol/g)
0.0285765	0.0438785
0.0660796	0.0950272
0.0973997	0.131132
0.142573	0.174759
0.201593	0.224403
0.233163	0.245465
0.27534	0.284578
0.320673	0.307144
0.363262	0.328205
0.411507	0.347762
0.459745	0.370328
0.50657	0.389885
0.627929	0.419972
0.696693	0.439529
0.811399	0.465103
0.931985	0.481651
1.03405	0.499704
1.13936	0.522269
1.20429	0.5328
