Adsorption isotherm of N-propane on 36 Wt% CuCl/Zeolite NaX
DOI: 10.1007/s10450-007-9101-x
Adsorbate N-propane: InChIKey ATUOYWHBWRKTHZ-UHFFFAOYSA-N
Temperature: 358 K
Tabular data in the source: 0
pressure (bar)	uptake (mmol/g)
0.0133367	0.086001
0.0266638	0.155202
0.0401271	0.221395
0.0555711	0.284578
0.0738257	0.343249
0.100137	0.418468
0.135824	0.492182
0.170713	0.547844
0.204406	0.583949
0.239715	0.615541
0.269677	0.642619
0.305493	0.666689
0.365787	0.702794
0.444092	0.723855
0.49615	0.747925
0.573848	0.762969
0.672974	0.791552
0.778362	0.811109
0.906513	0.826153
1.04124	0.84571
1.17952	0.860754
