Adsorption isotherm of Propene on 36 Wt% CuCl/Zeolite NaX
DOI: 10.1007/s10450-007-9101-x
Adsorbate Propene: InChIKey QQONPFPTGQHPMA-UHFFFAOYSA-N
Temperature: 408 K
Tabular data in the source: 0
pressure (bar)	uptake (mmol/g)
0.00821218	0.0679995
0.0100162	0.0808718
0.0119875	0.0969416
0.0142793	0.112599
0.0176648	0.137117
0.0222702	0.169627
0.0290212	0.211505
0.0396496	0.261651
0.0521598	0.321147
0.0686171	0.384961
0.0877423	0.454241
0.117076	0.535987
0.153288	0.603239
0.196014	0.689714
0.265279	0.746264
0.34898	0.833307
0.465647	0.887531
0.633181	0.952762
0.794494	0.991051
0.987522	1.02279
