Adsorption isotherm of N-propane on Zeolite 13X
DOI: 10.1007/s10450-007-9101-x
Adsorbate N-propane: InChIKey ATUOYWHBWRKTHZ-UHFFFAOYSA-N
Temperature: 358 K
Tabular data in the source: 0
pressure (bar)	uptake (mmol/g)
0.00845357	0.0784989
0.0116816	0.0956754
0.0168168	0.115817
0.0220339	0.129177
0.033729	0.153204
0.0449224	0.166276
0.064143	0.179237
0.0965938	0.191893
0.147863	0.211128
0.220854	0.21697
0.296565	0.221457
0.408135	0.229143
0.582761	0.233882
0.766683	0.238719
0.972165	0.245324
