Adsorption isotherm of N-propane, Propene on NaX
DOI: 10.1007/s10450-007-9101-x
Article source: Fig. 6
Adsorbate N-propane: InChIKey ATUOYWHBWRKTHZ-UHFFFAOYSA-N
Adsorbate Propene: InChIKey QQONPFPTGQHPMA-UHFFFAOYSA-N
Kind: experiment
Temperature: 318 K
Tabular data in the source: 0
pressure (bar)	N-propane fraction	N-propane uptake (mmol/g)	Propene fraction	Propene uptake (mmol/g)	total uptake (mmol/g)
0.008518	0.5	0.346737	0.5	1	0
0.013857	0.5	0.316811	0.5	1.15478	0
0.027385	0.5	0.3661	0.5	1.43318	0
0.054345	0.5	0.353102	0.5	1.56783	0
0.277207	0.5	0.379577	0.5	1.685	0
0.55212	0.5	0.379577	0.5	1.77828	0
