Adsorption isotherm of Propene on 36 wt% CuCl/NaX
DOI: 10.1007/s10450-007-9101-x
Article source: Figure 1
Adsorbate Propene: InChIKey QQONPFPTGQHPMA-UHFFFAOYSA-N
Kind: experiment
Temperature: 404 K
Tabular data in the source: 0
pressure (bar)	uptake (mmol/g)
0.004576	0.1663
0.011272	0.2734
0.022105	0.3804
0.035703	0.4739
0.048585	0.5274
0.065373	0.6076
0.08119	0.6655
0.094189	0.7011
0.129658	0.7679
0.162892	0.8258
0.191117	0.8614
0.226778	0.9148
0.251304	0.9238
0.294849	0.9505
0.330522	0.9772
0.349945	0.995
0.374714	1.0129
0.401328	1.0307
0.43471	1.0529
0.470869	1.0619
0.515822	1.0797
0.57161	1.1108
0.605202	1.1331
0.70194	1.1598
0.805008	1.191
0.933899	1.2266
1.01158	1.2533
1.12099	1.2889
