Adsorption isotherm of N-propane on 36 Wt% CuCl/Zeolite NaX
DOI: 10.1007/s10450-007-9101-x
Adsorbate N-propane: InChIKey ATUOYWHBWRKTHZ-UHFFFAOYSA-N
Temperature: 318 K
Tabular data in the source: 0
pressure (bar)	uptake (mmol/g)
0.00832607	0.0194395
0.0118853	0.019846
0.0156183	0.0204011
0.0196104	0.0209718
0.0281095	0.021858
0.0409647	0.0227815
0.0551845	0.022625
0.0855724	0.0234188
0.128372	0.0237441
0.192579	0.0232579
0.25202	0.022315
0.353847	0.021858
0.486642	0.0202609
0.697553	0.0187805
1.01656	0.0170518
