Adsorption isotherm of N-propane on 36 wt% CuCl/NaX
DOI: 10.1007/s10450-007-9101-x
Article source: Figure 1
Adsorbate N-propane: InChIKey ATUOYWHBWRKTHZ-UHFFFAOYSA-N
Kind: experiment
Temperature: 404 K
Tabular data in the source: 0
pressure (bar)	uptake (mmol/g)
0.028947	0.04329
0.065088	0.09126
0.097611	0.12188
0.142528	0.17248
0.199159	0.2209
0.235396	0.24733
0.271019	0.27821
0.323147	0.30906
0.356041	0.3267
0.39564	0.3421
0.44761	0.36414
0.49306	0.36848
0.557699	0.39495
0.614469	0.41037
0.670965	0.42357
0.779292	0.44559
0.866164	0.46099
0.921298	0.47423
0.979716	0.48746
1.06047	0.49847
1.12798	0.51613
