Adsorption isotherm of Propene on Zeolite 13X
DOI: 10.1007/s10450-007-9101-x
Adsorbate Propene: InChIKey QQONPFPTGQHPMA-UHFFFAOYSA-N
Temperature: 358 K
Tabular data in the source: 0
pressure (bar)	uptake (mmol/g)
0.00862494	0.913999
0.0119106	1.11434
0.0164479	1.3332
0.0225854	1.55051
0.0326346	1.80325
0.0463608	1.94467
0.0640218	2.13714
0.0984533	2.3266
0.137507	2.4161
0.19869	2.53285
0.27438	2.60559
0.407849	2.80993
0.532211	2.80993
0.756062	2.91804
0.964505	3.00183
