Adsorption isotherm of N-propane on Na-X
DOI: 10.1007/s10450-007-9101-x
Article source: Figure 1
Adsorbate N-propane: InChIKey ATUOYWHBWRKTHZ-UHFFFAOYSA-N
Kind: experiment
Temperature: 404 K
Tabular data in the source: 0
pressure (bar)	uptake (mmol/g)
0.028451	0.1628
0.065133	0.3515
0.099403	0.5227
0.127233	0.6467
0.174703	0.8121
0.235722	1.0131
0.293833	1.1845
0.347376	1.2731
0.418023	1.3972
0.481282	1.4858
0.516416	1.539
0.573984	1.604
0.621441	1.6454
0.666807	1.6867
0.715484	1.7222
0.781448	1.7517
0.845863	1.7812
0.891867	1.8226
0.948418	1.864
1.00879	1.8876
1.08243	1.923
1.16172	1.9466
