Adsorption isotherm of Propene on 36 Wt% CuCl/Zeolite NaX
DOI: 10.1007/s10450-007-9101-x
Adsorbate Propene: InChIKey QQONPFPTGQHPMA-UHFFFAOYSA-N
Temperature: 358 K
Tabular data in the source: 0
pressure (bar)	uptake (mmol/g)
0.00821218	0.426488
0.0106511	0.495372
0.0138799	0.579933
0.0186078	0.652699
0.0257858	0.728828
0.0339216	0.813838
0.0450485	0.866795
0.0587044	0.930502
0.0873284	0.998891
0.12568	1.07231
0.159198	1.13312
0.236822	1.19738
0.326627	1.23572
0.472299	1.29555
0.65759	1.39077
0.829032	1.42404
0.992203	1.45811
