Adsorption isotherm of Propene on Zeolite 13X
DOI: 10.1007/s10450-007-9101-x
Adsorbate Propene: InChIKey QQONPFPTGQHPMA-UHFFFAOYSA-N
Temperature: 358 K
Tabular data in the source: 0
pressure (bar)	uptake (mmol/g)
0.010392	0.160371
0.0120307	0.202264
0.0141557	0.244089
0.0158635	0.286115
0.0180705	0.356403
0.0246246	0.553434
0.0280505	0.623721
0.0289828	0.680244
0.0324825	0.750598
0.0421687	1.03281
0.0457615	1.18829
0.0521375	1.31523
0.0594073	1.4705
0.0699407	1.6823
0.0810028	1.85167
0.0953542	2.03513
0.103461	2.13395
0.123784	2.30319
0.150532	2.48652
0.218947	2.73994
0.241397	2.76787
0.279512	2.86642
0.328948	2.9649
0.413132	3.06312
0.494168	3.16153
0.630806	3.25968
0.831906	3.38602
1.06193	3.48417
1.19016	3.55453
