Adsorption isotherm of N-propane on 36 Wt% CuCl/Zeolite NaX
DOI: 10.1007/s10450-007-9101-x
Adsorbate N-propane: InChIKey ATUOYWHBWRKTHZ-UHFFFAOYSA-N
Temperature: 318 K
Tabular data in the source: 0
pressure (bar)	uptake (mmol/g)
0.00588863	0.251482
0.0086797	0.323692
0.0126176	0.394398
0.0175953	0.469616
0.0264797	0.553861
0.0387609	0.62908
0.0529405	0.695272
0.0703309	0.746421
0.102239	0.815622
0.137719	0.877302
0.186801	0.938981
0.249889	0.985617
0.311908	1.03827
0.466159	1.10747
0.682363	1.16464
