Adsorption isotherm of Propene on Zeolite NaX
DOI: 10.1007/s10450-007-9101-x
Adsorbate Propene: InChIKey QQONPFPTGQHPMA-UHFFFAOYSA-N
Temperature: 408 K
Tabular data in the source: 0
pressure (bar)	uptake (mmol/g)
0.00864738	0.125105
0.0133971	0.185311
0.0271728	0.312896
0.0544985	0.528324
0.268309	1.29688
0.53212	1.81614
