Adsorption isotherm of Propene on Zeolite 13X
DOI: 10.1007/s10450-007-9101-x
Adsorbate Propene: InChIKey QQONPFPTGQHPMA-UHFFFAOYSA-N
Temperature: 404 K
Tabular data in the source: 0
pressure (bar)	uptake (mmol/g)
0.00163576	0.0963288
0.00276396	0.162044
0.00401449	0.22776
0.00577229	0.346048
0.00821644	0.451192
0.0107888	0.600147
0.0138834	0.735959
0.0182299	0.889295
0.0232236	1.06454
0.02813	1.20911
0.0340729	1.3493
0.0447401	1.54645
0.0531097	1.72169
0.0704438	1.91008
0.083622	2.05903
0.105459	2.22551
0.127739	2.32627
0.169431	2.48399
0.236356	2.62418
0.364713	2.82133
0.455338	2.91771
0.574245	3.02724
