Adsorption isotherm of Propene on Zeolite 13X
DOI: 10.1007/s10450-007-9101-x
Adsorbate Propene: InChIKey QQONPFPTGQHPMA-UHFFFAOYSA-N
Temperature: 318 K
Tabular data in the source: 0
pressure (bar)	uptake (mmol/g)
0.00862494	2.2404
0.0126045	2.43902
0.0188422	2.55687
0.0270722	2.68041
0.0404696	2.78354
0.0629434	2.91804
0.0849747	3.00183
0.150547	3.11732
0.207898	3.29894
0.309027	3.33022
0.456756	3.42586
0.641563	3.49113
0.861231	3.49113
0.992204	3.65982
