Adsorption isotherm of N-propane, Propene on 36 wt% CuCl/NaX
DOI: 10.1007/s10450-007-9101-x
Article source: Figure 5
Adsorbate N-propane: InChIKey ATUOYWHBWRKTHZ-UHFFFAOYSA-N
Adsorbate Propene: InChIKey QQONPFPTGQHPMA-UHFFFAOYSA-N
Kind: experiment
Temperature: 358 K
Tabular data in the source: 0
pressure (bar)	N-propane fraction	N-propane uptake (mmol/g)	Propene fraction	Propene uptake (mmol/g)	total uptake (mmol/g)
0.008467	0.5	0.307964	0.5	0.034104	
0.013689	0.5	0.324564	0.5	0.039673	
0.026949	0.5	0.412003	0.5	0.051916	
0.055408	0.5	0.531741	0.5	0.059388	
0.546041	0.5	1.12512	0.5	0.162817	
