Adsorption isotherm of Propene on Zeolite 13X
DOI: 10.1007/s10450-007-9101-x
Adsorbate Propene: InChIKey QQONPFPTGQHPMA-UHFFFAOYSA-N
Temperature: 408 K
Tabular data in the source: 0
pressure (bar)	uptake (mmol/g)
0.00852781	0.171977
0.0106353	0.213669
0.0130401	0.262974
0.0169202	0.323657
0.0214632	0.398343
0.0273805	0.485658
0.0355277	0.603395
0.047963	0.742632
0.064751	0.913999
0.0849747	1.07306
0.111515	1.2598
0.150547	1.47905
0.232828	1.72013
0.323349	1.9083
0.46722	2.09718
0.606243	2.19851
0.786632	2.30474
1.0207	2.4161
