Adsorption isotherm of N-propane on Zeolite 13X
DOI: 10.1007/s10450-007-9101-x
Adsorbate N-propane: InChIKey ATUOYWHBWRKTHZ-UHFFFAOYSA-N
Temperature: 358 K
Tabular data in the source: 0
pressure (bar)	uptake (mmol/g)
0.00465891	0.0874054
0.00869905	0.176906
0.0130016	0.262827
0.0162427	0.330848
0.0205443	0.420349
0.0251939	0.502689
0.0292238	0.59219
0.0341085	0.667371
0.0378885	0.764032
0.0431413	0.842793
0.0485187	0.914393
0.0529053	0.993154
0.0580463	1.05759
0.0629043	1.13278
0.0690169	1.20796
0.109055	1.56596
0.132094	1.71632
0.168112	1.85952
0.201124	1.95976
0.233295	2.06358
0.264001	2.12444
0.296908	2.18173
0.32778	2.23901
0.353022	2.27123
0.404457	2.30345
0.438307	2.35357
0.483881	2.38579
0.537507	2.43591
0.600779	2.46097
0.679853	2.50035
0.774106	2.54331
0.870595	2.58985
1.02875	2.63639
1.14985	2.66503
