Adsorption isotherm of Propene on 36 Wt% CuCl/Zeolite NaX
DOI: 10.1007/s10450-007-9101-x
Adsorbate Propene: InChIKey QQONPFPTGQHPMA-UHFFFAOYSA-N
Temperature: 408 K
Tabular data in the source: 0
pressure (bar)	uptake (mmol/g)
0.00855086	0.301405
0.0133971	0.324826
0.0274796	0.406584
0.0544985	0.528324
0.271337	0.979547
0.538127	1.09591
