Adsorption isotherm of Propene on 36 Wt% CuCl/Zeolite NaX
DOI: 10.1007/s10450-007-9101-x
Adsorbate Propene: InChIKey QQONPFPTGQHPMA-UHFFFAOYSA-N
Temperature: 318 K
Tabular data in the source: 0
pressure (bar)	uptake (mmol/g)
0.00845541	0.259508
0.0137012	0.290336
0.0274796	0.363413
0.0544985	0.406584
0.271337	0.438178
0.550345	0.528324
