Adsorption isotherm of Propene on 36 Wt% CuCl/Zeolite NaX
DOI: 10.1007/s10450-007-9101-x
Adsorbate Propene: InChIKey QQONPFPTGQHPMA-UHFFFAOYSA-N
Temperature: 318 K
Tabular data in the source: 0
pressure (bar)	uptake (mmol/g)
0.00817541	1.0361
0.0105836	1.05566
0.0139456	1.10665
0.0181731	1.14208
0.0244789	1.20685
0.0344062	1.26528
0.0446245	1.33704
0.0645265	1.36902
0.0832955	1.45811
0.118748	1.49299
0.176649	1.6154
0.291589	1.65404
0.396499	1.72052
0.559938	1.76167
0.783305	1.76167
1.00638	1.78966
