Adsorption isotherm of N-propane on Na-X
DOI: 10.1007/s10450-007-9101-x
Article source: Figure 1
Adsorbate N-propane: InChIKey ATUOYWHBWRKTHZ-UHFFFAOYSA-N
Kind: experiment
Temperature: 318 K
Tabular data in the source: 0
pressure (bar)	uptake (mmol/g)
0.001247	0.0945
0.002456	0.2241
0.003588	0.3421
0.004757	0.4484
0.005876	0.5665
0.007196	0.7084
0.00836	0.8088
0.00971	0.9389
0.011082	1.063
0.01232	1.1754
0.014184	1.2995
0.015904	1.4118
0.017836	1.5242
0.019652	1.6306
0.021842	1.7193
0.024491	1.8197
0.026984	1.8907
0.02973	1.9853
0.033343	2.0562
0.036408	2.133
0.041553	2.2098
0.046602	2.2807
0.054125	2.3457
0.060702	2.4107
0.068061	2.4816
0.097679	2.647
0.135332	2.765
0.168655	2.8477
0.201187	2.9008
0.235722	2.9302
0.271456	2.9774
0.304369	3.0188
0.338298	3.0542
0.369488	3.0719
0.407099	3.0895
0.436817	3.1013
0.481282	3.1308
0.520955	3.1485
0.544503	3.1662
0.573984	3.1721
0.615886	3.1898
0.649382	3.1897
0.696787	3.2015
0.734683	3.2192
0.767715	3.231
0.838494	3.2368
0.923847	3.2486
1.01789	3.2781
1.10179	3.2899
1.21395	3.3075
