Adsorption isotherm of Propene on 36 Wt% CuCl/Zeolite NaX
DOI: 10.1007/s10450-007-9101-x
Adsorbate Propene: InChIKey QQONPFPTGQHPMA-UHFFFAOYSA-N
Temperature: 404 K
Tabular data in the source: 0
pressure (bar)	uptake (mmol/g)
0.00461242	0.0821771
0.00822692	0.128471
0.0118565	0.187991
0.0189133	0.267351
0.0278168	0.340099
0.0421767	0.449219
0.0626643	0.56826
0.0940538	0.697221
0.128841	0.763354
0.197346	0.879088
0.324537	0.994822
0.596759	1.1304
0.904824	1.22298
1.2023	1.30234
