Adsorption isotherm of N-propane on 36 wt% CuCl/NaX
DOI: 10.1007/s10450-007-9101-x
Article source: Figure 1
Adsorbate N-propane: InChIKey ATUOYWHBWRKTHZ-UHFFFAOYSA-N
Kind: experiment
Temperature: 358 K
Tabular data in the source: 0
pressure (bar)	uptake (mmol/g)
0.013329	0.08392
0.026026	0.15418
0.04042	0.22244
0.054038	0.28198
0.071614	0.3371
0.099174	0.41655
0.133752	0.48716
0.169629	0.5379
0.200493	0.57762
0.232863	0.61071
0.26804	0.63716
0.30318	0.66141
0.336977	0.67904
0.367959	0.69225
0.408978	0.70765
0.44269	0.72087
0.49204	0.7385
0.532599	0.75393
0.586678	0.77156
0.663743	0.78695
0.718456	0.79352
0.798546	0.81115
0.903233	0.82875
0.96917	0.84198
1.11583	0.85735
