Adsorption isotherm of N-propane on Zeolite 13X
DOI: 10.1007/s10450-007-9101-x
Adsorbate N-propane: InChIKey ATUOYWHBWRKTHZ-UHFFFAOYSA-N
Temperature: 318 K
Tabular data in the source: 0
pressure (bar)	uptake (mmol/g)
0.00124076	0.112466
0.0024342	0.223447
0.00357131	0.330848
0.0046878	0.448989
0.00578442	0.55997
0.00718184	0.692431
0.00827926	0.824892
0.00954437	0.943034
0.011071	1.07191
0.0123742	1.18648
0.0140029	1.29746
0.0155548	1.41918
0.0173858	1.53016
0.0196741	1.62324
0.0217198	1.7199
0.0264714	1.89532
0.0326638	2.05642
0.0408064	2.19605
0.0522552	2.35715
0.067331	2.48603
0.0969688	2.63639
0.134567	2.76169
0.166046	2.84045
0.201124	2.89415
0.233295	2.94427
0.298749	3.00871
0.364106	3.05883
0.430252	3.09821
0.489901	3.13043
0.550965	3.15907
0.615821	3.16982
0.701197	3.19488
0.833721	3.24142
0.985182	3.26648
1.06105	3.28796
1.18595	3.29512
