Adsorption isotherm of N-propane on 36 Wt% CuCl/Zeolite NaX
DOI: 10.1007/s10450-007-9101-x
Adsorbate N-propane: InChIKey ATUOYWHBWRKTHZ-UHFFFAOYSA-N
Temperature: 408 K
Tabular data in the source: 0
pressure (bar)	uptake (mmol/g)
0.0082677	0.00473588
0.0117087	0.00650917
0.0156183	0.00849613
0.0200204	0.0100951
0.0257697	0.0127631
0.0354408	0.0159153
0.050174	0.0202609
0.0692899	0.0252648
0.0956889	0.0300196
0.132694	0.0328357
0.189417	0.0374336
0.240805	0.0406639
0.315131	0.0420907
0.449843	0.0438692
0.564824	0.0460393
0.802945	0.0470018
1.02501	0.0479846
