Adsorption isotherm of Propene on Na-X
DOI: 10.1007/s10450-007-9101-x
Article source: Figure 1
Adsorbate Propene: InChIKey QQONPFPTGQHPMA-UHFFFAOYSA-N
Kind: experiment
Temperature: 358 K
Tabular data in the source: 0
pressure (bar)	uptake (mmol/g)
0.000451	0.1356
0.000924	0.2605
0.001351	0.3857
0.001892	0.5036
0.002436	0.6364
0.00318	0.7544
0.003814	0.9021
0.004575	1.0202
0.005337	1.1236
0.006403	1.2491
0.007679	1.3968
0.008952	1.5667
0.01074	1.6774
0.012531	1.7586
0.014608	1.9211
0.018034	2.0096
0.02045	2.1204
0.024536	2.2237
0.027836	2.2975
0.031579	2.3787
0.037897	2.4598
0.044854	2.5336
0.050874	2.6148
0.061944	2.6811
0.071285	2.7475
0.093111	2.8285
0.126824	2.9538
0.163343	3.0275
0.193375	3.079
0.228876	3.138
0.263451	3.1674
0.303249	3.219
0.34898	3.2632
0.40738	3.3074
0.449573	3.3294
0.532231	3.3662
0.604088	3.3956
0.676083	3.4251
0.835026	3.4692
0.974765	3.5059
1.07572	3.5428
