Adsorption isotherm of Propene on 36 Wt% CuCl/Zeolite NaX
DOI: 10.1007/s10450-007-9101-x
Adsorbate Propene: InChIKey QQONPFPTGQHPMA-UHFFFAOYSA-N
Temperature: 358 K
Tabular data in the source: 0
pressure (bar)	uptake (mmol/g)
0.000734	0.118551
0.00160473	0.237591
0.00283336	0.343405
0.00480358	0.482286
0.00758518	0.611247
0.0132573	0.760047
0.0215816	0.895622
0.0404983	1.0345
0.0686594	1.12378
0.11879	1.21637
0.232151	1.33872
0.512466	1.49413
0.877683	1.58011
