Adsorption isotherm of N-propane, Propene on NaX
DOI: 10.1007/s10450-007-9101-x
Article source: Fig. 6
Adsorbate N-propane: InChIKey ATUOYWHBWRKTHZ-UHFFFAOYSA-N
Adsorbate Propene: InChIKey QQONPFPTGQHPMA-UHFFFAOYSA-N
Kind: experiment
Temperature: 404 K
Tabular data in the source: 0
pressure (bar)	N-propane fraction	N-propane uptake (mmol/g)	Propene fraction	Propene uptake (mmol/g)	total uptake (mmol/g)
0.00861	0.5	0.029682	0.5	0.171554	0
0.013654	0.5	0.038931	0.5	0.191073	0
0.027692	0.5	0.065751	0.5	0.316228	0
0.054748	0.5	0.130677	0.5	0.523239	0
0.274664	0.5	0.47152	0.5	1.15478	0
0.545237	0.5	0.871565	0.5	1.65463	0
