Adsorption isotherm of N-propane on Zeolite 13X
DOI: 10.1007/s10450-007-9101-x
Adsorbate N-propane: InChIKey ATUOYWHBWRKTHZ-UHFFFAOYSA-N
Temperature: 404 K
Tabular data in the source: 0
pressure (bar)	uptake (mmol/g)
0.0278136	0.144686
0.0640819	0.334428
0.0963711	0.495529
0.12572	0.61725
0.171259	0.803412
0.233295	1.00747
0.286096	1.15068
0.335987	1.27598
0.40949	1.38696
0.472061	1.48004
0.508416	1.53374
0.578901	1.60176
0.66736	1.67694
0.774106	1.75212
0.838892	1.8273
0.97911	1.881
1.10115	1.94544
1.19331	1.98124
