Adsorption isotherm of Propene on 36 Wt% CuCl/Zeolite NaX
DOI: 10.1007/s10450-007-9101-x
Adsorbate Propene: InChIKey QQONPFPTGQHPMA-UHFFFAOYSA-N
Temperature: 318 K
Tabular data in the source: 0
pressure (bar)	uptake (mmol/g)
0.000127	0.221058
0.000217	0.333485
0.00031	0.429379
0.000515	0.551726
0.000847	0.693914
0.00140633	0.836101
0.00236016	0.951835
0.0040834	1.05104
0.00806157	1.16346
0.0157546	1.28581
0.0256469	1.3784
0.0392835	1.45445
0.0571926	1.53712
0.0912326	1.63301
0.162726	1.71568
0.254361	1.74875
0.370322	1.79835
0.615213	1.81488
1.15446	1.84464
