Adsorption isotherm of N-propane on 36 Wt% CuCl/Zeolite NaX
DOI: 10.1007/s10450-007-9101-x
Adsorbate N-propane: InChIKey ATUOYWHBWRKTHZ-UHFFFAOYSA-N
Temperature: 358 K
Tabular data in the source: 0
pressure (bar)	uptake (mmol/g)
0.0129721	0.098036
0.0193874	0.135645
0.0268491	0.174759
0.0409698	0.236438
0.0548064	0.284578
0.0759001	0.356788
0.100833	0.409441
0.127614	0.46059
0.169534	0.517756
0.216055	0.570409
0.27534	0.620054
0.350894	0.669698
0.462941	0.717838
0.839997	0.833675
0.998842	0.874293
1.18772	0.899867
