Adsorption isotherm of N-propane on 36 Wt% CuCl/Zeolite NaX
DOI: 10.1007/s10450-007-9101-x
Adsorbate N-propane: InChIKey ATUOYWHBWRKTHZ-UHFFFAOYSA-N
Temperature: 404 K
Tabular data in the source: 0
pressure (bar)	uptake (mmol/g)
0.0283792	0.0363567
0.042121	0.0559135
0.0625169	0.0769747
0.10295	0.11308
0.166047	0.17175
0.269677	0.237943
0.327407	0.278561
0.472663	0.350771
0.65458	0.424485
1.21267	0.546339
