Adsorption isotherm of N-propane, Propene on 36 wt% CuCl/NaX
DOI: 10.1007/s10450-007-9101-x
Article source: Figure 5
Adsorbate N-propane: InChIKey ATUOYWHBWRKTHZ-UHFFFAOYSA-N
Adsorbate Propene: InChIKey QQONPFPTGQHPMA-UHFFFAOYSA-N
Kind: experiment
Temperature: 404 K
Tabular data in the source: 0
pressure (bar)	N-propane fraction	N-propane uptake (mmol/g)	Propene fraction	Propene uptake (mmol/g)	total uptake (mmol/g)
0.00854	0.5	0.554115	0.5	0.017709	
0.013381	0.5	0.614186	0.5	0.024372	
0.026764	0.5	0.753703	0.5	0.028353	
0.053934	0.5	0.808723	0.5	0.03527	
0.26993	0.5	0.964051	0.5	0.063518	
0.541821	0.5	1.10637	0.5	0.130858	
