Adsorption isotherm of N-propane, Propene on 36 wt% CuCl/NaX
DOI: 10.1007/s10450-007-9101-x
Article source: Figure 5
Adsorbate N-propane: InChIKey ATUOYWHBWRKTHZ-UHFFFAOYSA-N
Adsorbate Propene: InChIKey QQONPFPTGQHPMA-UHFFFAOYSA-N
Kind: experiment
Temperature: 318 K
Tabular data in the source: 0
pressure (bar)	N-propane fraction	N-propane uptake (mmol/g)	Propene fraction	Propene uptake (mmol/g)	total uptake (mmol/g)
0.008504	0.5	0.220141	0.5	0.011439	
0.013696	0.5	0.235993	0.5	0.012653	
0.027498	0.5	0.266318	0.5	0.013996	
0.055005	0.5	0.310742	0.5	0.014233	
0.543926	0.5	0.53765	0.5	0.075145	
