Adsorption isotherm of N-propane on Zeolite NaX
DOI: 10.1007/s10450-007-9101-x
Adsorbate N-propane: InChIKey ATUOYWHBWRKTHZ-UHFFFAOYSA-N
Temperature: 408 K
Tabular data in the source: 0
pressure (bar)	uptake (mmol/g)
0.00864738	0.0285365
0.0140123	0.0399623
0.0284207	0.0700488
0.0557359	0.132328
0.271337	0.377268
0.556557	0.81241
