Adsorption isotherm of Propene on Zeolite 13X
DOI: 10.1007/s10450-007-9101-x
Adsorbate Propene: InChIKey QQONPFPTGQHPMA-UHFFFAOYSA-N
Temperature: 404 K
Tabular data in the source: 0
pressure (bar)	uptake (mmol/g)
0.0245895	0.114346
0.0387731	0.211629
0.0545745	0.366034
0.0663483	0.464383
0.0768281	0.577096
0.0875286	0.689876
0.0949642	0.774527
0.106442	0.873209
0.125286	1.01418
0.133739	1.0989
0.154877	1.23994
0.176464	1.38105
0.20106	1.52216
0.269663	1.83257
0.297423	1.97381
0.350027	2.07229
0.386041	2.19937
0.461785	2.31195
0.517596	2.41063
0.570826	2.52355
0.65033	2.63633
0.765316	2.72064
0.900717	2.83329
1.02612	2.93191
1.13144	2.98816
