Adsorption isotherm of Propene on Zeolite 13X
DOI: 10.1007/s10450-007-9101-x
Adsorbate Propene: InChIKey QQONPFPTGQHPMA-UHFFFAOYSA-N
Temperature: 358 K
Tabular data in the source: 0
pressure (bar)	uptake (mmol/g)
0.00864738	0.391652
0.0133971	0.602248
0.0271728	0.961392
0.0551137	1.20337
0.259424	1.45094
0.538127	1.65396
