Adsorption isotherm of N-propane on 36 Wt% CuCl/Zeolite NaX
DOI: 10.1007/s10450-007-9101-x
Adsorbate N-propane: InChIKey ATUOYWHBWRKTHZ-UHFFFAOYSA-N
Temperature: 318 K
Tabular data in the source: 0
pressure (bar)	uptake (mmol/g)
0.00583192	0.14701
0.0111599	0.278103
0.0180887	0.412472
0.0255955	0.520624
0.0356752	0.612388
0.0489794	0.691044
0.0642682	0.759867
0.0843295	0.80575
0.10261	0.845078
0.136687	0.913901
0.201831	0.97834
0.267512	1.02147
0.337004	1.05857
0.407263	1.09267
0.469954	1.11775
0.542296	1.13981
0.637442	1.16889
0.79933	1.19497
0.961522	1.21804
1.17819	1.24512
