Adsorption isotherm of N-propane on Zeolite NaX
DOI: 10.1007/s10450-007-9101-x
Adsorbate N-propane: InChIKey ATUOYWHBWRKTHZ-UHFFFAOYSA-N
Temperature: 358 K
Tabular data in the source: 0
pressure (bar)	uptake (mmol/g)
0.00864738	0.0962776
0.0140123	0.129875
0.0277898	0.196009
0.0557359	0.245344
0.28063	0.307097
0.56284	0.377268
