Adsorption isotherm of Propene on Zeolite 13X
DOI: 10.1007/s10450-007-9101-x
Adsorbate Propene: InChIKey QQONPFPTGQHPMA-UHFFFAOYSA-N
Temperature: 404 K
Tabular data in the source: 0
pressure (bar)	uptake (mmol/g)
0.0234212	0.142874
0.0266698	0.0998487
0.0313798	0.12751
0.0363279	0.169403
0.040709	0.197264
0.0471281	0.239157
0.0554613	0.323475
0.0674233	0.40766
0.0793597	0.548635
0.0964895	0.675312
0.109929	0.788091
0.125257	0.943364
0.142716	1.08447
0.162616	1.23974
0.179339	1.35266
0.194611	1.49396
0.218132	1.59265
0.240564	1.70556
0.265329	1.8468
0.307293	2.01617
0.350124	2.15728
0.398889	2.27006
0.432778	2.35471
0.484995	2.39674
0.543586	2.48125
0.609255	2.56577
0.694047	2.65022
0.777893	2.73474
0.886154	2.81919
1.00953	2.91781
1.14998	2.9881
