Adsorption isotherm of N-propane on Zeolite 13X
DOI: 10.1007/s10450-007-9101-x
Adsorbate N-propane: InChIKey ATUOYWHBWRKTHZ-UHFFFAOYSA-N
Temperature: 408 K
Tabular data in the source: 0
pressure (bar)	uptake (mmol/g)
0.00855804	0.0217649
0.011539	0.0289879
0.0160763	0.0383455
0.021765	0.0503787
0.0310773	0.0666413
0.0431205	0.0851969
0.060076	0.105986
0.0787135	0.12656
0.105698	0.148065
0.146058	0.175605
0.202659	0.198553
0.274371	0.219951
0.382258	0.237095
0.513301	0.255576
0.694935	0.264446
0.84931	0.275497
0.984179	0.275497
