Adsorption isotherm of Propene on CuCl
DOI: 10.1007/s10450-007-9101-x
Adsorbate Propene: InChIKey QQONPFPTGQHPMA-UHFFFAOYSA-N
Temperature: 358 K
Tabular data in the source: 0
pressure (bar)	uptake (mmol/g)
0.0601706	0.0226568
0.0759958	0.0358835
0.100981	0.0325768
0.142607	0.0292701
0.16947	0.0358835
0.216226	0.0358835
0.273094	0.0391902
0.344919	0.0325768
0.44457	0.0458036
0.561494	0.0524169
0.70917	0.0590303
0.895685	0.062337
1.09732	0.0689503
1.22696	0.0821771
