Adsorption isotherm of Propene on 36 wt% CuCl/NaX
DOI: 10.1007/s10450-007-9101-x
Article source: Figure 1
Adsorbate Propene: InChIKey QQONPFPTGQHPMA-UHFFFAOYSA-N
Kind: experiment
Temperature: 358 K
Tabular data in the source: 0
pressure (bar)	uptake (mmol/g)
0.000704	0.2054
0.002415	0.4104
0.005555	0.5797
0.010406	0.7356
0.015517	0.8335
0.024496	0.936
0.035294	1.0339
0.049136	1.1097
0.0639	1.1542
0.080279	1.2121
0.097454	1.2478
0.125285	1.2923
0.162892	1.3325
0.197788	1.3681
0.226778	1.3948
0.260076	1.4082
0.294849	1.435
0.315791	1.4394
0.345939	1.4617
0.374714	1.4662
0.410582	1.4885
0.454988	1.5063
0.510035	1.5197
0.558727	1.5375
0.619156	1.5553
0.663132	1.582
0.74319	1.5999
0.814329	1.6177
0.902402	1.6444
1.02306	1.6711
1.13371	1.6978
