Adsorption isotherm of Propene on 36 wt% CuCl/NaX
DOI: 10.1007/s10450-007-9101-x
Article source: Figure 1
Adsorbate Propene: InChIKey QQONPFPTGQHPMA-UHFFFAOYSA-N
Kind: experiment
Temperature: 318 K
Tabular data in the source: 0
pressure (bar)	uptake (mmol/g)
0.000127	0.1823
0.000306	0.3917
0.000688	0.592
0.001513	0.7746
0.003069	0.975
0.005882	1.1442
0.010527	1.2822
0.018205	1.3892
0.030775	1.4694
0.046419	1.5274
0.062445	1.5631
0.08119	1.5988
0.096361	1.6078
0.129658	1.6346
0.159221	1.6569
0.195524	1.6703
0.224233	1.6926
0.263087	1.7016
0.305141	1.7105
0.379053	1.7373
0.460151	1.7552
0.539883	1.7819
0.626325	1.7998
0.71829	1.8221
0.795976	1.8399
0.912641	1.8711
0.966273	1.8844
1.0349	1.9111
1.12099	1.9334
