Adsorption isotherm of N-propane on Na-X
DOI: 10.1007/s10450-007-9101-x
Article source: Figure 1
Adsorbate N-propane: InChIKey ATUOYWHBWRKTHZ-UHFFFAOYSA-N
Kind: experiment
Temperature: 358 K
Tabular data in the source: 0
pressure (bar)	uptake (mmol/g)
0.004673	0.1111
0.008892	0.1816
0.012987	0.27
0.016623	0.3349
0.020903	0.4293
0.025148	0.512
0.02973	0.5947
0.034229	0.6952
0.039066	0.7602
0.043813	0.8548
0.048697	0.9316
0.053654	0.9966
0.059115	1.0557
0.064551	1.1266
0.071121	1.1916
0.11051	1.5759
0.132954	1.7177
0.167186	1.8654
0.202955	1.9777
0.233668	2.0604
0.266686	2.1313
0.307044	2.1785
0.33243	2.2376
0.362994	2.2731
0.3861	2.2848
0.403552	2.3026
0.425402	2.338
0.436817	2.3498
0.456457	2.3675
0.47709	2.3912
0.49854	2.403
0.520955	2.4325
0.544503	2.4443
0.589386	2.4679
0.621441	2.4915
0.666807	2.5151
0.721772	2.5387
0.788315	2.5623
0.891867	2.5918
0.948418	2.6154
1.00879	2.6331
1.08243	2.6567
1.15133	2.6744
