Adsorption isotherm of Nitrogen on Zn2(bdc)2(dabco)
DOI: 10.1021/Ic070036t
Adsorbate Nitrogen: InChIKey IJGRMHOSHXDMSA-UHFFFAOYSA-N
Temperature: 78 K
Tabular data in the source: 0
pressure (bar)	uptake (cm3(STP)/g)
0.00182509	36.5184
0.00182509	170.233
0.00400996	323.611
0.0171192	448.149
0.0236738	494.031
0.08922	520.25
0.384178	537.292
0.661657	546.468
0.906363	549.09
