Adsorption isotherm of Hydrogen on Zn2(bdc)2(dabco)
DOI: 10.1021/Ic070036t
Adsorbate Hydrogen: InChIKey UFHFLCQGNIYNRP-UHFFFAOYSA-N
Temperature: 78 K
Tabular data in the source: 0
pressure (bar)	uptake (cm3(STP)/g)
0.00619484	11.6108
0.0717411	39.1402
0.176615	74.5352
0.307707	107.308
0.469388	137.46
0.569892	154.502
0.672581	168.922
0.781825	180.72
0.891069	192.518
0.956615	199.073
