Adsorption isotherm of Nitrogen on [Eu2(BDC)3(DMF)2]*(DMF)1.7
DOI: 10.1016/j.inoche.2009.10.026
Adsorbate Nitrogen: InChIKey IJGRMHOSHXDMSA-UHFFFAOYSA-N
Temperature: 77 K
Tabular data in the source: 0
pressure (bar)	uptake (cm3(STP)/g)
0.00493157	0.00493157
0.00739736	56.7653
0.00986315	116.085
0.0123289	122.222
0.0295894	129.391
0.0369868	133.997
0.0567131	136.564
0.0863025	139.648
0.130687	143.251
0.202195	146.868
0.303292	151.012
0.456171	153.649
0.562199	154.728
0.702749	156.336
0.789052	157.404
