Adsorption isotherm of Hydrogen on IRMOF-1
DOI: 10.1007/s10934-007-9178-3
Adsorbate Hydrogen: InChIKey UFHFLCQGNIYNRP-UHFFFAOYSA-N
Temperature: 77 K
Tabular data in the source: 0
pressure (bar)	uptake (wt%)
0.000222149	0.0592353
0.00235048	0.0267474
0.0070156	0.0706881
0.00706576	0.0840638
0.0116234	0.0993422
0.124833	0.286401
0.183473	0.322601
0.212783	0.337835
0.235327	0.34926
0.242113	0.358802
0.251121	0.360697
0.26015	0.368324
0.329984	0.389218
0.363758	0.39489
0.399796	0.404379
0.467344	0.415723
0.501117	0.421395
0.530391	0.427075
0.597931	0.436508
0.61594	0.438387
0.629462	0.444095
0.638484	0.449812
0.647499	0.453617
0.661014	0.457414
0.715032	0.461139
0.753292	0.462982
0.800559	0.466719
0.832083	0.472395
0.845598	0.476192
0.852356	0.478091
0.861364	0.479985
0.935626	0.481763
0.971643	0.48552
0.998652	0.487383
1.01218	0.495002
1.02345	0.498803
1.06621	0.502548
