Adsorption isotherm of Hydrogen on IRMOF-1
DOI: 10.1007/s10934-007-9178-3
Adsorbate Hydrogen: InChIKey UFHFLCQGNIYNRP-UHFFFAOYSA-N
Temperature: 77 K
Tabular data in the source: 0
pressure (bar)	uptake (wt%)
0.00983582	0.0408163
0.0198102	0.0653061
0.0449885	0.0979592
0.0626514	0.116327
0.0878816	0.142857
0.110688	0.155102
0.13597	0.17551
0.158741	0.191837
0.181547	0.204082
0.206898	0.216327
0.232233	0.230612
0.257584	0.242857
0.277862	0.253061
0.305742	0.267347
0.336184	0.279592
0.359007	0.289796
0.381831	0.3
0.407182	0.312245
0.44017	0.32449
0.460448	0.334694
0.48076	0.340816
0.508674	0.35102
0.546771	0.361224
0.638116	0.395918
0.663554	0.397959
0.686343	0.412245
0.711763	0.416327
0.737167	0.422449
0.75999	0.432653
0.790467	0.440816
0.815871	0.446939
0.836183	0.453061
0.864115	0.461224
0.897137	0.469388
0.91745	0.47551
0.942853	0.481633
0.97333	0.489796
0.998716	0.497959
1.01903	0.504082
1.05461	0.510204
1.07238	0.516327
