Adsorption isotherm of Hydrogen on IRMOF-1
DOI: 10.1007/s10934-007-9178-3
Adsorbate Hydrogen: InChIKey UFHFLCQGNIYNRP-UHFFFAOYSA-N
Temperature: 77 K
Tabular data in the source: 0
pressure (bar)	uptake (wt%)
0.0110766	0.0838356
0.0177451	0.128219
0.0199617	0.144658
0.0244573	0.161096
0.0266739	0.177534
0.0356713	0.208767
0.0424459	0.225205
0.0469478	0.24
0.0537224	0.256438
0.0627822	0.271233
0.0695569	0.287671
0.0854413	0.305753
0.0990654	0.318904
0.11269	0.332055
0.128599	0.343562
0.146794	0.353425
0.164988	0.363288
0.185475	0.369863
0.205967	0.374795
0.226453	0.38137
0.249225	0.386301
0.269717	0.391233
0.292495	0.394521
0.319818	0.401096
0.344881	0.40274
0.388163	0.407671
0.447399	0.412603
0.511199	0.41589
0.561338	0.41589
0.584121	0.417534
0.606905	0.419178
0.62741	0.420822
0.6502	0.420822
0.672991	0.420822
0.695775	0.422466
0.718565	0.422466
0.741349	0.42411
0.764139	0.42411
0.786929	0.42411
0.809719	0.42411
0.832503	0.425753
0.855293	0.425753
0.875798	0.427397
0.898588	0.427397
0.921379	0.427397
0.944169	0.427397
0.966959	0.427397
0.989743	0.429041
1.01253	0.429041
1.03532	0.429041
1.05811	0.429041
1.0809	0.430685
