Adsorption isotherm of Hydrogen on IRMOF-1
DOI: 10.1007/s10934-007-9178-3
Adsorbate Hydrogen: InChIKey UFHFLCQGNIYNRP-UHFFFAOYSA-N
Temperature: 77 K
Tabular data in the source: 0
pressure (bar)	uptake (wt%)
0.00507895	0.02
0.0101579	0.0333333
0.0203158	0.0466667
0.0330132	0.0583333
0.0533289	0.0683333
0.0711053	0.0775
0.0914211	0.085
0.121895	0.095
0.142211	0.100833
0.170145	0.108333
0.193	0.114167
0.218395	0.12
0.24125	0.126667
0.274263	0.1325
0.294579	0.1375
0.325053	0.14
0.347908	0.144167
0.375842	0.15
0.406316	0.154167
0.429171	0.1575
0.462184	0.161667
0.477421	0.164167
0.507895	0.168333
0.553605	0.173333
0.581539	0.176667
0.612013	0.1825
0.639947	0.185
0.695816	0.19
0.751684	0.196667
0.784697	0.2
0.807553	0.2025
0.827868	0.205
0.8685	0.2075
0.896434	0.210833
0.924368	0.213333
0.954842	0.216667
0.980237	0.218333
1.02595	0.2225
1.05388	0.225833
