Adsorption isotherm of Hydrogen on IRMOF-1
DOI: 10.1007/s10934-007-9178-3
Adsorbate Hydrogen: InChIKey UFHFLCQGNIYNRP-UHFFFAOYSA-N
Temperature: 77 K
Tabular data in the source: 0
pressure (bar)	uptake (wt%)
0.00507895	0.0183333
0.0126974	0.035
0.0279342	0.0575
0.0330132	0.0658333
0.0380921	0.0733333
0.04825	0.0816667
0.0558684	0.0891667
0.0634868	0.0975
0.0711053	0.1025
0.0812632	0.11
0.0965	0.116667
0.109197	0.124167
0.126974	0.13
0.14475	0.135
0.165066	0.14
0.185382	0.144167
0.228553	0.151667
0.251408	0.154167
0.276803	0.156667
0.299658	0.159167
0.325053	0.160833
0.350447	0.1625
0.373303	0.165
0.398697	0.165833
0.421553	0.166667
0.446947	0.168333
0.472342	0.169167
0.495197	0.17
0.568842	0.173333
0.612013	0.174167
0.637408	0.174167
0.662803	0.175
0.688197	0.175833
0.713592	0.175833
0.738987	0.175833
0.761842	0.176667
0.787237	0.1775
0.812632	0.1775
0.838026	0.1775
0.863421	0.178333
0.888816	0.178333
0.914211	0.179167
0.939605	0.179167
0.962461	0.18
0.987855	0.18
1.01325	0.18
1.03864	0.18
1.06404	0.180833
