Adsorption isotherm of Hydrogen on IRMOF-1
DOI: 10.1007/s10934-007-9178-3
Adsorbate Hydrogen: InChIKey UFHFLCQGNIYNRP-UHFFFAOYSA-N
Temperature: 77 K
Tabular data in the source: 0
pressure (bar)	uptake (wt%)
0.00917976	0.0477543
0.126811	0.213786
0.196745	0.261431
0.210267	0.267139
0.232812	0.278564
0.244091	0.286187
0.259864	0.291891
0.325204	0.314704
0.365757	0.328007
0.401803	0.339408
0.467114	0.354577
0.480622	0.356464
0.532426	0.369747
0.597716	0.379184
0.620232	0.382965
0.633754	0.388674
0.651763	0.390552
0.669778	0.394341
0.714789	0.396172
0.732804	0.399961
0.831861	0.413159
0.847619	0.415042
0.865635	0.418831
0.930911	0.424447
0.948919	0.426325
0.987186	0.430079
1.00519	0.430046
1.02095	0.43384
1.06597	0.437581
