Adsorption isotherm of Hydrogen on IRMOF-1
DOI: 10.1007/s10934-007-9178-3
Adsorbate Hydrogen: InChIKey UFHFLCQGNIYNRP-UHFFFAOYSA-N
Temperature: 77 K
Tabular data in the source: 0
pressure (bar)	uptake (wt%)
0.00661852	0.0575342
0.0110142	0.100274
0.0291777	0.118356
0.0382313	0.134795
0.0541095	0.154521
0.0631631	0.170959
0.0881574	0.190685
0.106321	0.208767
0.133607	0.225205
0.156322	0.244932
0.174517	0.254795
0.194978	0.267945
0.222276	0.281096
0.240458	0.294247
0.265484	0.305753
0.292769	0.322192
0.315528	0.330411
0.342827	0.343562
0.361046	0.346849
0.383786	0.36
0.406545	0.368219
0.436129	0.379726
0.461167	0.387945
0.488471	0.399452
0.502127	0.404384
0.538547	0.41589
0.556767	0.419178
0.593181	0.432329
0.611388	0.438904
0.679678	0.460274
0.713826	0.470137
0.732039	0.475068
0.759362	0.481644
0.782134	0.486575
0.798068	0.491507
0.829937	0.50137
0.848157	0.504658
0.873201	0.511233
0.895972	0.516164
0.923289	0.524384
0.943788	0.527671
0.975669	0.534247
0.993876	0.540822
1.02576	0.547397
1.04398	0.550685
1.0713	0.55726
