Adsorption isotherm of Hydrogen on IRMOF-1
DOI: 10.1007/s10934-007-9178-3
Adsorbate Hydrogen: InChIKey UFHFLCQGNIYNRP-UHFFFAOYSA-N
Temperature: 77 K
Tabular data in the source: 0
pressure (bar)	uptake (wt%)
0.0204377	0.0496449
0.146668	0.108654
0.182714	0.120055
0.209751	0.129561
0.236768	0.133334
0.243532	0.137143
0.259298	0.140937
0.333589	0.150358
0.362862	0.156038
0.396629	0.159799
0.466398	0.163496
0.502414	0.167253
0.529423	0.169115
0.596964	0.178548
0.610472	0.180435
0.62398	0.182322
0.637502	0.18803
0.664518	0.191803
0.714029	0.193625
0.752296	0.197378
0.799556	0.199204
0.831058	0.199148
0.844581	0.204856
0.858089	0.206743
0.869332	0.204812
0.952595	0.206574
1.00886	0.208384
1.02011	0.208364
1.03136	0.210254
1.06964	0.215918
