Adsorption isotherm of Hydrogen on IRMOF-1
DOI: 10.1007/s10934-007-9178-3
Adsorbate Hydrogen: InChIKey UFHFLCQGNIYNRP-UHFFFAOYSA-N
Temperature: 77 K
Tabular data in the source: 0
pressure (bar)	uptake (wt%)
0.010009	0.0204082
0.0147884	0.0571429
0.0298191	0.0857143
0.042339	0.110204
0.0498198	0.128571
0.0623916	0.146939
0.0724179	0.165306
0.0849898	0.183673
0.105146	0.208163
0.120281	0.22449
0.137978	0.238776
0.155676	0.253061
0.173391	0.265306
0.193651	0.277551
0.216475	0.287755
0.251974	0.304082
0.274814	0.312245
0.297655	0.320408
0.323041	0.328571
0.34841	0.338776
0.389069	0.346939
0.434819	0.355102
0.478024	0.363265
0.523792	0.369388
0.584815	0.377551
0.620418	0.381633
0.656039	0.383673
0.709443	0.389796
0.760336	0.391837
0.795957	0.393878
0.851941	0.395918
0.902817	0.4
0.941	0.4
0.98424	0.404082
1.03004	0.406122
1.07075	0.408163
