Adsorption isotherm of Nitrogen on Inf-3[Cu-Me-4py-trz-ia]
DOI: 10.1039/C2jm15734a
Adsorbate Nitrogen: InChIKey IJGRMHOSHXDMSA-UHFFFAOYSA-N
Temperature: 323 K
Tabular data in the source: 0
pressure (bar)	uptake (mmol/g)
1.39665	0.265683
2.3743	0.383764
3.35196	0.560886
3.63128	0.649446
4.7486	0.767528
5.86592	0.885609
6.84358	1.06273
7.96089	1.18081
9.07821	1.32841
10.3352	1.44649
11.3128	1.56458
12.5698	1.71218
13.9665	1.83026
15.0838	1.94834
16.3408	2.00738
17.5978	2.12546
18.8547	2.21402
20.1117	2.3321
21.3687	2.39114
22.6257	2.4797
24.0223	2.53875
25.2793	2.62731
26.5363	2.68635
27.933	2.74539
29.1899	2.80443
30.3073	2.89299
31.4246	2.92251
32.8212	2.98155
34.0782	3.04059
35.4749	3.09963
36.8715	3.12915
38.1285	3.18819
39.5251	3.24723
40.9218	3.27675
42.1788	3.33579
43.5754	3.36531
44.9721	3.39483
46.2291	3.45387
47.6257	3.48339
49.0223	3.51292
50	3.57196
