Adsorption isotherm of Nitrogen on Inf-3[Cu-Me-4py-trz-ia]
DOI: 10.1039/C2jm15734a
Adsorbate Nitrogen: InChIKey IJGRMHOSHXDMSA-UHFFFAOYSA-N
Temperature: 323 K
Tabular data in the source: 0
pressure (bar)	uptake (mmol/g)
0.977654	0.177122
2.09497	0.383764
3.77095	0.649446
5.30726	0.856089
7.82123	1.18081
10.1955	1.44649
15.3631	1.94834
20.5307	2.3321
26.1173	2.68635
30.8659	2.92251
36.0335	3.12915
40.5028	3.27675
46.3687	3.45387
50	3.54244
