Adsorption isotherm of Nitrogen on MIL-53(Al)
DOI: 10.1039/C2jm15734a
Adsorbate Nitrogen: InChIKey IJGRMHOSHXDMSA-UHFFFAOYSA-N
Temperature: 323 K
Tabular data in the source: 0
pressure (bar)	uptake (mmol/g)
0.983146	0.118081
1.68539	0.236162
2.38764	0.324723
3.08989	0.383764
3.65169	0.413284
4.63483	0.590406
5.05618	0.590406
5.89888	0.678967
7.02247	0.797048
7.44382	0.826568
8.28652	0.915129
9.26966	0.97417
9.55056	0.97417
10.6742	1.09225
11.9382	1.21033
13.3427	1.29889
14.6067	1.38745
14.7472	1.41697
15.8708	1.44649
17.1348	1.53506
18.5393	1.5941
19.1011	1.62362
19.6629	1.65314
21.0674	1.71218
22.4719	1.77122
23.736	1.83026
25.1404	1.8893
26.4045	1.94834
27.809	1.97786
28.7921	2.0369
29.2135	2.0369
30.4775	2.06642
31.7416	2.09594
33.1461	2.15498
34.5506	2.15498
35.9551	2.1845
37.2191	2.24354
38.6236	2.27306
38.764	2.27306
39.8876	2.30258
41.1517	2.30258
42.5562	2.3321
43.8202	2.36162
45.2247	2.36162
46.6292	2.39114
47.8933	2.42066
49.2978	2.45018
