Adsorption isotherm of Nitrogen on Inf-3[Cu-Me-4py-trz-ia]
DOI: 10.1039/C2jm15734a
Adsorbate Nitrogen: InChIKey IJGRMHOSHXDMSA-UHFFFAOYSA-N
Temperature: 298 K
Tabular data in the source: 0
pressure (bar)	uptake (mmol/g)
0.698324	0.324723
1.67598	0.472325
2.3743	0.738007
3.77095	1.00369
5.02793	1.26937
7.68156	1.77122
10.0559	2.21402
14.3855	2.71587
15.2235	2.83395
20.1117	3.30627
25.419	3.69004
30.3073	3.98524
35.0559	4.19188
41.3408	4.45756
45.2514	4.54613
