Adsorption isotherm of Methane on MIL-53(Al)
DOI: 10.1039/C2jm15734a
Adsorbate Methane: InChIKey VNWKTOKETHGBQD-UHFFFAOYSA-N
Temperature: 273 K
Tabular data in the source: 0
pressure (bar)	uptake (mmol/g)
1.56695	1.61172
1.9943	1.94139
3.1339	2.5641
4.98575	3.33333
5.98291	3.47985
6.83761	3.73626
7.97721	3.95604
9.11681	4.17582
10.2564	4.35897
11.396	4.50549
12.6781	4.65201
13.9601	4.79853
15.3846	4.87179
16.6667	5.01832
17.8063	5.09158
19.0883	5.20147
20.3704	5.27473
21.6524	5.34799
23.0769	5.42125
24.5014	5.49451
25.7835	5.56777
27.208	5.64103
28.49	5.71429
29.6296	5.75092
31.0541	5.78755
32.3362	5.82418
33.7607	5.89744
34.9003	5.93407
36.1823	5.93407
37.6068	6.00733
38.8889	6.04396
40.7407	6.11722
43.8746	6.19048
47.151	6.22711
49.8575	6.30037
