Adsorption isotherm of Nitrogen on MIL-53(Al)
DOI: 10.1039/C2jm15734a
Adsorbate Nitrogen: InChIKey IJGRMHOSHXDMSA-UHFFFAOYSA-N
Temperature: 273 K
Tabular data in the source: 0
pressure (bar)	uptake (mmol/g)
1.40449	0.472325
2.24719	0.708487
3.08989	0.885609
4.07303	1.12177
4.91573	1.29889
5.89888	1.44649
6.88202	1.5941
8.00562	1.77122
8.98876	1.94834
10.2528	2.06642
11.5169	2.1845
12.7809	2.30258
14.0449	2.45018
15.0281	2.56827
16.2921	2.62731
17.5562	2.71587
18.8202	2.83395
20.0843	2.89299
21.4888	2.98155
22.6124	3.04059
24.0169	3.12915
25.2809	3.18819
26.6854	3.24723
27.9494	3.30627
29.2135	3.36531
30.618	3.42435
31.882	3.48339
33.2865	3.54244
34.5506	3.57196
35.9551	3.631
37.3596	3.66052
38.6236	3.71956
40.0281	3.71956
41.4326	3.7786
42.6966	3.83764
44.1011	3.86716
45.5056	3.89668
46.7697	3.9262
48.1742	3.95572
49.4382	4.01476
