Adsorption isotherm of Nitrogen on Inf-3[Cu-Me-4py-trz-ia]
DOI: 10.1039/C2jm15734a
Adsorbate Nitrogen: InChIKey IJGRMHOSHXDMSA-UHFFFAOYSA-N
Temperature: 298 K
Tabular data in the source: 0
pressure (bar)	uptake (mmol/g)
1.25698	0.354244
2.51397	0.708487
3.77095	0.97417
4.60894	1.15129
5.72626	1.38745
6.70391	1.5941
7.5419	1.77122
8.51955	1.8893
9.9162	2.1845
11.0335	2.27306
12.1508	2.45018
13.4078	2.59779
14.5251	2.74539
15.6425	2.83395
16.7598	2.98155
18.0168	3.09963
19.4134	3.21771
20.3911	3.30627
21.7877	3.39483
23.0447	3.51292
24.3017	3.60148
25.5587	3.69004
26.8156	3.7786
28.2123	3.83764
29.4693	3.9262
30.8659	3.98524
32.1229	4.04428
33.5196	4.10332
34.7765	4.19188
36.1732	4.2214
37.5698	4.28044
38.8268	4.33948
40.2235	4.369
41.4804	4.45756
42.8771	4.48708
44.1341	4.51661
45.5307	4.54613
46.9274	4.60517
48.324	4.63469
49.581	4.66421
