Adsorption isotherm of Methane on MIL-53(Al)
DOI: 10.1039/C2jm15734a
Adsorbate Methane: InChIKey VNWKTOKETHGBQD-UHFFFAOYSA-N
Temperature: 298 K
Tabular data in the source: 0
pressure (bar)	uptake (mmol/g)
1.28205	0.879121
1.85185	1.28205
3.9886	1.97802
4.98575	2.27106
7.69231	2.89377
10.8262	3.33333
11.396	3.36996
14.9573	3.77289
19.8006	4.17582
29.0598	4.57875
38.4615	4.94505
47.2934	5.12821
