Adsorption isotherm of Methane on MIL-53(Al)
DOI: 10.1039/C2jm15734a
Adsorbate Methane: InChIKey VNWKTOKETHGBQD-UHFFFAOYSA-N
Temperature: 323 K
Tabular data in the source: 0
pressure (bar)	uptake (mmol/g)
1.1396	0.549451
2.2792	0.915751
3.56125	1.24542
4.8433	1.53846
7.54986	2.12454
9.54416	2.38095
13.3903	2.82051
13.9601	2.9304
19.0883	3.33333
27.0655	3.80952
35.1852	4.06593
