Adsorption isotherm of Nitrogen on Inf-3[Cu-Me-4py-trz-ia]
DOI: 10.1039/C2jm15734a
Adsorbate Nitrogen: InChIKey IJGRMHOSHXDMSA-UHFFFAOYSA-N
Temperature: 273 K
Tabular data in the source: 0
pressure (bar)	uptake (mmol/g)
0.977654	0.472325
2.51397	1.09225
3.21229	1.35793
3.77095	1.62362
5.58659	2.12546
6.56425	2.36162
7.40223	2.65683
8.37989	2.80443
9.35754	3.01107
11.1732	3.33579
12.2905	3.51292
13.2682	3.69004
14.3855	3.89668
15.3631	3.98524
16.6201	4.13284
17.8771	4.28044
18.1564	4.30996
19.4134	4.42804
20.6704	4.51661
23.0447	4.78229
24.3017	4.87085
25.2793	4.95941
26.3966	5.04797
27.3743	5.10701
28.6313	5.19557
29.6089	5.25461
31.0056	5.31365
32.9609	5.43173
34.3575	5.49077
35.6145	5.54982
39.1061	5.72694
40.5028	5.75646
41.4804	5.78598
42.7374	5.87454
45.5307	5.9631
46.9274	5.99262
49.8603	6.05166
