Adsorption isotherm of Nitrogen on MIL-53(Al)
DOI: 10.1039/C2jm15734a
Adsorbate Nitrogen: InChIKey IJGRMHOSHXDMSA-UHFFFAOYSA-N
Temperature: 77 K
Tabular data in the source: 0
pressure (bar)	uptake (cm3(STP)/g)
0.000985708	227.271
0.00757502	246.546
0.031471	256.154
0.055355	263.007
0.0857327	267.096
0.116116	272.563
0.161674	276.63
0.200726	280.707
0.250621	284.769
0.315689	287.431
0.393781	292.83
0.493559	298.198
0.554297	302.244
0.617203	306.287
0.667115	314.481
0.723522	319.911
0.762574	323.988
0.805963	328.058
0.845021	333.513
0.877573	338.976
0.916679	355.45
0.962326	380.178
