Adsorption isotherm of Methane on Inf-3[Cu-Me-4py-trz-ia]
DOI: 10.1039/C2jm15734a
Adsorbate Methane: InChIKey VNWKTOKETHGBQD-UHFFFAOYSA-N
Temperature: 298 K
Tabular data in the source: 0
pressure (bar)	uptake (mmol/g)
1.2894	1.32841
1.43266	1.66052
2.149	1.99262
2.43553	2.36162
3.15186	2.73063
3.86819	3.13653
4.44126	3.46863
5.44413	3.87454
6.16046	4.16974
7.02006	4.46494
8.16619	4.79705
9.16905	5.05535
10.1719	5.20295
10.6017	5.35055
11.7479	5.57196
12.894	5.75646
14.0401	5.94096
15.1862	6.01476
16.3324	6.19926
17.6218	6.34686
18.9112	6.45756
20.0573	6.60517
21.3467	6.67897
22.7794	6.75277
24.0688	6.82657
25.3582	6.90037
26.6476	6.97417
28.0802	7.01107
29.5129	7.08487
30.8023	7.15867
32.235	7.19557
33.6676	7.23247
34.957	7.26937
36.2464	7.30627
37.5358	7.34317
38.8252	7.38007
40.2579	7.38007
41.5473	7.45387
42.9799	7.49077
44.2693	7.49077
45.702	7.52768
46.1318	7.56458
47.5645	7.56458
48.9971	7.60148
