Adsorption isotherm of Methane on Inf-3[Cu-Me-4py-trz-ia]
DOI: 10.1039/C2jm15734a
Adsorbate Methane: InChIKey VNWKTOKETHGBQD-UHFFFAOYSA-N
Temperature: 273 K
Tabular data in the source: 0
pressure (bar)	uptake (mmol/g)
0.429799	0.885609
0.716332	1.25461
1.00287	1.95572
1.2894	2.39852
2.149	3.02583
2.43553	3.65314
3.15186	4.13284
3.86819	4.72325
4.87106	5.23985
5.87393	5.75646
7.87966	6.45756
9.45559	6.78967
10.745	7.04797
12.1777	7.34317
13.8968	7.52768
15.4728	7.67528
17.192	7.78598
19.1977	7.89668
20.7736	7.97048
23.0659	8.04428
25.788	8.15498
27.7937	8.19188
29.6562	8.22878
31.2321	8.30258
32.6648	8.30258
35.2436	8.37638
36.8195	8.37638
39.5415	8.41328
41.404	8.41328
43.6963	8.45018
45.5587	8.45018
47.851	8.45018
49.8567	8.48708
