Adsorption isotherm of Methane on Inf-3[Cu-Me-4py-trz-ia]
DOI: 10.1039/C2jm15734a
Adsorbate Methane: InChIKey VNWKTOKETHGBQD-UHFFFAOYSA-N
Temperature: 273 K
Tabular data in the source: 0
pressure (bar)	uptake (mmol/g)
0.716332	1.25461
1.00287	2.02952
1.86246	2.61993
2.00573	3.13653
2.43553	3.61624
2.86533	4.13284
3.4384	4.64945
4.58453	5.12915
5.58739	5.68266
6.73352	6.08856
8.30946	6.53137
9.45559	6.78967
11.7479	7.15867
13.3238	7.34317
15.7593	7.60148
18.0516	7.74908
19.6275	7.85978
21.6332	8.00738
23.639	8.08118
26.0745	8.15498
28.0802	8.22878
29.5129	8.26568
30.9456	8.30258
32.235	8.30258
33.6676	8.37638
34.957	8.33948
36.1032	8.41328
37.9656	8.45018
41.1175	8.48708
44.1261	8.52399
46.7049	8.52399
48.5673	8.59779
49.7135	8.59779
