Adsorption isotherm of Nitrogen on MIL-53(Al)
DOI: 10.1039/C2jm15734a
Adsorbate Nitrogen: InChIKey IJGRMHOSHXDMSA-UHFFFAOYSA-N
Temperature: 298 K
Tabular data in the source: 0
pressure (bar)	uptake (mmol/g)
0.983146	0.236162
1.68539	0.324723
3.23034	0.590406
5.05618	0.856089
7.44382	1.15129
8.84831	1.26937
9.83146	1.38745
12.3596	1.56458
15.309	1.85978
22.3315	2.27306
30.1966	2.59779
41.573	2.89299
