Adsorption isotherm of Methane on MIL-53(Al)
DOI: 10.1039/C2jm15734a
Adsorbate Methane: InChIKey VNWKTOKETHGBQD-UHFFFAOYSA-N
Temperature: 273 K
Tabular data in the source: 0
pressure (bar)	uptake (mmol/g)
0.569801	0.805861
1.1396	1.28205
2.2792	2.27106
5.12821	3.40659
10.114	4.32234
14.8148	4.83516
17.3789	5.01832
19.0883	5.20147
29.7721	5.75092
37.3219	6.00733
