Adsorption isotherm of Nitrogen on Inf-3[Cu-Me-4py-trz-ia]
DOI: 10.1039/C2jm15734a
Adsorbate Nitrogen: InChIKey IJGRMHOSHXDMSA-UHFFFAOYSA-N
Temperature: 273 K
Tabular data in the source: 0
pressure (bar)	uptake (mmol/g)
0.977654	0.472325
1.39665	0.738007
2.09497	0.97417
3.49162	1.50554
5.1676	2.0369
7.5419	2.65683
10.1955	3.24723
14.6648	3.9262
20.2514	4.57565
25.5587	4.98893
30.1676	5.31365
34.9162	5.54982
40.9218	5.8155
44.6927	5.93358
