Adsorption isotherm of Methane on Inf-3[Cu-Me-4py-trz-ia]
DOI: 10.1039/C2jm15734a
Adsorbate Methane: InChIKey VNWKTOKETHGBQD-UHFFFAOYSA-N
Temperature: 273 K
Tabular data in the source: 0
pressure (bar)	uptake (mmol/g)
0.716332	0.716332
1.00287	1.95572
1.43266	2.73063
2.00573	3.32103
3.58166	4.61255
4.87106	5.16605
5.01433	5.46125
7.87966	6.38376
10.8883	7.04797
15.1862	7.56458
19.914	7.93358
25.0716	8.15498
29.9427	8.30258
35.1003	8.37638
40.1146	8.37638
