Adsorption isotherm of Methane on Inf-3[Cu-Me-4py-trz-ia]
DOI: 10.1039/C2jm15734a
Adsorbate Methane: InChIKey VNWKTOKETHGBQD-UHFFFAOYSA-N
Temperature: 323 K
Tabular data in the source: 0
pressure (bar)	uptake (mmol/g)
1.43266	0.922509
2.43553	1.36531
3.29513	1.73432
3.86819	1.95572
4.58453	2.28782
5.30086	2.58303
6.73352	3.06273
8.16619	3.35793
9.45559	3.69004
11.4613	4.05904
12.7507	4.28044
13.8968	4.42804
16.4756	4.72325
18.4814	4.98155
20.3438	5.12915
21.9198	5.27675
23.7822	5.42435
26.0745	5.53506
27.6504	5.64576
29.3696	5.68266
30.8023	5.79336
32.5215	5.83026
34.0974	5.90406
35.8166	5.97786
38.5387	6.12546
42.2636	6.16236
44.2693	6.23616
46.5616	6.27306
48.5673	6.34686
49.8567	6.30996
