Adsorption isotherm of Nitrogen on MIL-53(Al)
DOI: 10.1039/C2jm15734a
Adsorbate Nitrogen: InChIKey IJGRMHOSHXDMSA-UHFFFAOYSA-N
Temperature: 273 K
Tabular data in the source: 0
pressure (bar)	uptake (mmol/g)
0.842697	0.295203
2.24719	0.738007
4.91573	1.26937
5.89888	1.41697
9.26966	1.94834
14.7472	2.56827
16.0112	2.62731
18.8202	2.83395
21.9101	2.95203
29.4944	3.39483
39.3258	3.71956
