Adsorption isotherm of Methane on Inf-3[Cu-Me-4py-trz-ia]
DOI: 10.1039/C2jm15734a
Adsorbate Methane: InChIKey VNWKTOKETHGBQD-UHFFFAOYSA-N
Temperature: 323 K
Tabular data in the source: 0
pressure (bar)	uptake (mmol/g)
1.2894	0.848708
2.29226	1.36531
3.29513	1.84502
4.15473	2.17712
5.58739	2.65683
6.30372	2.91513
7.16332	3.06273
8.02292	3.35793
9.31232	3.65314
10.3152	3.83764
11.6046	4.09594
12.7507	4.28044
14.4699	4.46494
15.616	4.64945
17.765	4.87085
19.341	5.05535
20.4871	5.16605
22.7794	5.31365
24.6418	5.42435
25.9312	5.57196
27.937	5.60886
29.3696	5.68266
30.9456	5.79336
32.5215	5.86716
34.2407	5.94096
35.8166	6.01476
36.9628	6.01476
38.9685	6.08856
41.404	6.16236
45.1289	6.30996
47.851	6.30996
49.8567	6.38376
