Adsorption isotherm of Methane on Inf-3[Cu-Me-4py-trz-ia]
DOI: 10.1039/C2jm15734a
Adsorbate Methane: InChIKey VNWKTOKETHGBQD-UHFFFAOYSA-N
Temperature: 298 K
Tabular data in the source: 0
pressure (bar)	uptake (mmol/g)
1.43266	1.32841
1.86246	1.91882
2.72206	2.39852
3.29513	2.80443
3.72493	3.09963
4.29799	3.46863
5.15759	3.80074
6.16046	4.20664
7.16332	4.50185
8.16619	4.83395
9.31232	5.12915
10.1719	5.31365
11.6046	5.57196
13.1805	5.83026
15.4728	6.12546
17.6218	6.38376
20.2006	6.60517
22.9226	6.75277
25.9312	6.90037
27.5072	7.01107
29.9427	7.08487
32.3782	7.23247
34.5272	7.30627
37.3926	7.34317
39.9713	7.38007
42.4069	7.41697
45.2722	7.45387
48.4241	7.49077
