Adsorption isotherm of Nitrogen on Norit R1 Extra Carbon
DOI: 10.1039/C2jm15734a
Adsorbate Nitrogen: InChIKey IJGRMHOSHXDMSA-UHFFFAOYSA-N
Temperature: 77 K
Tabular data in the source: 0
pressure (bar)	uptake (cm3(STP)/g)
0.0185552	278.211
0.0294637	293.347
0.0403423	301.596
0.0490584	311.225
0.0751528	327.717
0.0990547	338.703
0.120794	351.068
0.177248	367.517
0.207626	371.606
0.259701	378.42
0.281387	378.389
0.311771	383.855
0.352973	383.797
0.435396	387.812
0.563359	391.763
0.62191	391.68
0.656613	393.008
0.72385	395.668
0.858325	400.987
0.899527	400.929
0.938579	405.005
0.962457	410.481
