Adsorption isotherm of Methane on MIL-53(Al)
DOI: 10.1039/C2jm15734a
Adsorbate Methane: InChIKey VNWKTOKETHGBQD-UHFFFAOYSA-N
Temperature: 298 K
Tabular data in the source: 0
pressure (bar)	uptake (mmol/g)
1.28205	1.28205
1.85185	1.28205
2.5641	1.42857
3.27635	1.72161
3.9886	1.97802
4.98575	2.27106
5.69801	2.41758
6.69516	2.63736
7.69231	2.89377
7.83476	2.89377
8.97436	3.07692
10.2564	3.22344
10.8262	3.33333
11.396	3.36996
11.5385	3.36996
12.6781	3.51648
13.9601	3.663
14.9573	3.77289
15.2422	3.77289
16.5242	3.91941
17.9487	3.99267
19.2308	4.10256
19.8006	4.17582
20.5128	4.17582
21.7949	4.28571
23.0769	4.32234
24.5014	4.3956
25.7835	4.46886
27.208	4.54212
28.6325	4.57875
29.0598	4.57875
29.9145	4.61538
31.339	4.68864
32.7635	4.72527
34.188	4.7619
35.4701	4.83516
36.8946	4.87179
38.3191	4.90842
38.4615	4.94505
39.6011	4.94505
41.0256	4.94505
42.4501	4.98168
43.8746	5.01832
45.2991	5.05495
46.5812	5.09158
47.2934	5.12821
48.0057	5.12821
49.4302	5.12821
