Adsorption isotherm of Methane on MIL-53(Al)
DOI: 10.1039/C2jm15734a
Adsorbate Methane: InChIKey VNWKTOKETHGBQD-UHFFFAOYSA-N
Temperature: 323 K
Tabular data in the source: 0
pressure (bar)	uptake (mmol/g)
1.1396	0.586081
1.9943	0.879121
2.99145	1.06227
3.9886	1.28205
4.70085	1.53846
5.55556	1.72161
6.69516	1.94139
7.69231	2.12454
8.68946	2.27106
9.97151	2.38095
11.1111	2.60073
12.3932	2.74725
13.6752	2.85714
14.6724	2.9304
15.9544	3.07692
17.2365	3.18681
18.661	3.33333
19.8006	3.36996
21.2251	3.44322
22.5071	3.55311
23.9316	3.62637
25.2137	3.663
26.4957	3.73626
27.9202	3.80952
29.3447	3.84615
30.6268	3.91941
32.0513	3.95604
33.3333	4.0293
34.6154	4.06593
35.8974	4.10256
37.3219	4.13919
38.604	4.17582
40.0285	4.21245
41.3105	4.21245
42.735	4.28571
44.1595	4.32234
45.4416	4.35897
46.8661	4.3956
48.1481	4.43223
49.5726	4.46886
