Adsorption isotherm of Methane on Inf-3[Cu-Me-4py-trz-ia]
DOI: 10.1039/C2jm15734a
Adsorbate Methane: InChIKey VNWKTOKETHGBQD-UHFFFAOYSA-N
Temperature: 323 K
Tabular data in the source: 0
pressure (bar)	uptake (mmol/g)
0.429799	0.405904
1.14613	0.627306
1.57593	0.99631
2.149	1.21771
3.72493	1.99262
5.01433	2.43542
7.44986	3.21033
10.0287	3.80074
15.1862	4.61255
20.0573	5.12915
25.5014	5.49815
30.2292	5.75646
34.957	5.94096
40.2579	6.08856
