Adsorption isotherm of Nitrogen on Inf-3[Cu-Me-4py-trz-ia]
DOI: 10.1039/C2jm15734a
Adsorbate Nitrogen: InChIKey IJGRMHOSHXDMSA-UHFFFAOYSA-N
Temperature: 77 K
Tabular data in the source: 0
pressure (bar)	uptake (cm3(STP)/g)
0.00126051	290.632
0.00359634	329.196
0.0210045	342.945
0.0449065	353.931
0.0752723	355.265
0.122998	359.33
0.198916	363.354
0.250967	364.658
0.311699	367.327
0.368093	370.002
0.404959	369.949
0.454842	371.256
0.515561	371.17
0.580624	372.455
0.632669	372.381
0.68254	370.933
0.732423	372.24
0.780143	374.927
0.832195	376.231
0.882065	374.782
0.927605	374.718
0.966765	403.588
0.973306	411.843
