Adsorption isotherm of Nitrogen on MIL-53(Al)
DOI: 10.1039/C2jm15734a
Adsorbate Nitrogen: InChIKey IJGRMHOSHXDMSA-UHFFFAOYSA-N
Temperature: 298 K
Tabular data in the source: 0
pressure (bar)	uptake (mmol/g)
0.983146	0.236162
1.68539	0.324723
3.23034	0.590406
3.65169	0.619926
4.63483	0.797048
5.05618	0.856089
5.75843	0.944649
6.88202	1.09225
7.44382	1.15129
8.00562	1.21033
9.41011	1.38745
9.97191	1.44649
10.5337	1.47601
11.9382	1.5941
13.0618	1.68266
14.3258	1.77122
15.309	1.85978
15.5899	1.85978
16.8539	1.94834
18.2584	2.0369
19.5225	2.12546
20.927	2.1845
22.191	2.27306
22.3315	2.27306
23.5955	2.30258
24.8596	2.36162
26.264	2.45018
27.6685	2.4797
28.9326	2.53875
30.1966	2.59779
30.3371	2.59779
31.7416	2.62731
33.0056	2.65683
34.2697	2.71587
35.5337	2.77491
36.9382	2.80443
38.3427	2.83395
39.6067	2.86347
40.8708	2.89299
41.573	2.89299
42.2753	2.92251
43.6798	2.95203
44.9438	2.98155
46.3483	3.01107
47.7528	3.04059
49.1573	3.07011
