Adsorption isotherm of Nitrogen on MIL-53(Al)
DOI: 10.1039/C2jm15734a
Adsorbate Nitrogen: InChIKey IJGRMHOSHXDMSA-UHFFFAOYSA-N
Temperature: 323 K
Tabular data in the source: 0
pressure (bar)	uptake (mmol/g)
0.983146	0.118081
1.68539	0.236162
2.38764	0.324723
3.08989	0.383764
5.05618	0.590406
7.44382	0.826568
9.26966	0.97417
14.7472	1.41697
19.1011	1.62362
28.7921	2.0369
38.764	2.27306
