Adsorption isotherm of Methane on Inf-3[Cu-Me-4py-trz-ia]
DOI: 10.1039/C2jm15734a
Adsorbate Methane: InChIKey VNWKTOKETHGBQD-UHFFFAOYSA-N
Temperature: 298 K
Tabular data in the source: 0
pressure (bar)	uptake (mmol/g)
0.859599	0.885609
1.00287	1.10701
1.43266	1.58672
2.00573	2.02952
2.29226	2.21402
3.58166	2.98893
5.01433	3.69004
7.73639	4.68635
9.88539	5.20295
14.7564	6.05166
20.0573	6.60517
25.0716	6.90037
30.2292	7.12177
35.3868	7.26937
40.1146	7.38007
