Adsorption isotherm of Hydrogen on ZIF-8
DOI: 10.1021/Jp911477a
Adsorbate Hydrogen: InChIKey UFHFLCQGNIYNRP-UHFFFAOYSA-N
Temperature: 125 K
Tabular data in the source: 0
pressure (bar)	uptake (wt%)
0.976023	0.17311
2.01983	0.300957
2.99073	0.443844
5.02792	0.669455
9.93549	1.11316
14.7113	1.45157
19.4078	1.67718
24.4483	1.88775
29.408	1.99304
33.3899	2.16601
38.7964	2.25625
43.5439	2.37658
47.7569	2.45178
54.2233	2.54203
