Adsorption isotherm of Hydrogen on ZIF-8
DOI: 10.1021/Jp911477a
Adsorbate Hydrogen: InChIKey UFHFLCQGNIYNRP-UHFFFAOYSA-N
Temperature: 77 K
Tabular data in the source: 0
pressure (bar)	uptake (wt%)
0.0295356	0.0979066
0.10395	0.315997
0.205412	0.586731
0.401249	1.06051
0.722947	1.5719
0.987355	1.89528
1.47893	2.31642
2.11529	2.57963
3.09612	2.91053
5.02792	3.30158
10.405	3.74529
15.9495	3.95586
26.8137	4.20403
58.7869	4.53492
