Adsorption isotherm of Hydrogen on ZIF-8
DOI: 10.1021/Jp911477a
Adsorbate Hydrogen: InChIKey UFHFLCQGNIYNRP-UHFFFAOYSA-N
Temperature: 125 K
Tabular data in the source: 0
pressure (bar)	uptake (wt%)
4.32725	0.443844
5.64318	0.534088
7.79658	0.692016
11.1513	0.902586
15.5854	1.12068
20.561	1.40645
25.6037	1.62454
28.7368	1.74487
38.3511	1.98552
46.1313	2.15097
51.1821	2.26377
56.1341	2.4217
