Adsorption isotherm of Hydrogen on ZIF-8
DOI: 10.1021/Jp911477a
Adsorbate Hydrogen: InChIKey UFHFLCQGNIYNRP-UHFFFAOYSA-N
Temperature: 300 K
Tabular data in the source: 0
pressure (bar)	uptake (wt%)
5.02792	0.0302233
10.0509	0.0603048
14.5424	0.112947
20.0918	0.143029
25.0193	0.203192
30.4443	0.218233
34.1698	0.225753
43.5439	0.300957
54.8529	0.391201
