Adsorption isotherm of Hydrogen on ZIF-8
DOI: 10.1021/Jp911477a
Adsorbate Hydrogen: InChIKey UFHFLCQGNIYNRP-UHFFFAOYSA-N
Temperature: 100 K
Tabular data in the source: 0
pressure (bar)	uptake (wt%)
0.203055	0.0527844
0.493922	0.188151
0.976023	0.436323
1.49611	0.624333
2.04329	0.789781
2.57395	0.940188
3.02545	1.11316
3.43511	1.2034
4.03766	1.31621
5.02792	1.48918
10.0509	2.09833
15.5854	2.46682
19.6332	2.69995
25.901	2.85788
30.4443	3.01581
35.3739	3.14366
39.7026	3.18878
46.1313	3.32415
54.2233	3.43695
