Adsorption isotherm of Hydrogen on ZIF-8
DOI: 10.1021/Jp911477a
Adsorbate Hydrogen: InChIKey UFHFLCQGNIYNRP-UHFFFAOYSA-N
Temperature: 200 K
Tabular data in the source: 0
pressure (bar)	uptake (wt%)
5.90988	0.150549
8.85225	0.203192
11.5443	0.225753
16.7032	0.331038
22.5504	0.443844
29.408	0.526568
36.6205	0.646894
44.0495	0.744658
51.1821	0.827383
55.4898	0.887546
