Adsorption isotherm of Methane on ZIF-8
DOI: 10.1021/Jp911477a
Adsorbate Methane: InChIKey VNWKTOKETHGBQD-UHFFFAOYSA-N
Temperature: 300 K
Tabular data in the source: 0
pressure (bar)	uptake (wt%)
0.0167016	0.0438605
0.0460498	0.0744487
0.123442	0.196802
0.340356	0.410919
0.951748	1.11445
1.76888	2.12386
2.55128	2.85798
3.67973	3.77563
5.45896	4.96857
6.93602	5.79445
7.87352	6.1921
10.8862	7.38504
15.0515	8.36386
18.8566	9.09798
20.8107	9.28151
26.0717	10.0462
30.8731	10.4744
38.6779	11.0862
45.1604	11.5144
51.2644	11.8815
55.7856	12.1262
59.8564	12.3403
