Adsorption isotherm of Hydrogen on ZIF-8
DOI: 10.1021/Jp911477a
Adsorbate Hydrogen: InChIKey UFHFLCQGNIYNRP-UHFFFAOYSA-N
Temperature: 77 K
Tabular data in the source: 0
pressure (bar)	uptake (wt%)
1.07046	1.44405
1.07046	1.57942
1.47893	1.71479
1.67918	1.83511
1.86303	1.978
2.29332	2.16601
2.6956	2.27129
3.31818	2.39914
3.47499	2.48938
4.58437	2.69995
6.55693	2.903
8.55092	3.14366
12.6612	3.35423
18.532	3.54224
25.3098	3.73025
35.7847	3.87313
41.5789	3.92578
49.4398	4.0085
55.4898	4.09874
