Adsorption isotherm of Argon on ZIF-8
DOI: 10.1021/Jp911477a
Adsorbate Argon: InChIKey XKRFYHLGVUSROY-UHFFFAOYSA-N
Temperature: 87 K
Tabular data in the source: 0
pressure (bar)	uptake (cm3(STP)/g)
9.85e-07	-3.40061
4.76e-06	7.47838
9.73e-06	13.1769
1.85e-05	26.1281
2.38e-05	38.0432
2.92e-05	53.0665
3.93e-05	112.124
4.99e-05	182.578
7.05e-05	240.082
0.000102	258.731
0.000511	324.523
0.00105719	339.029
0.005166	358.196
0.00972119	363.895
0.0492339	373.22
0.0995203	374.774
0.154735	374.774
0.203582	376.328
0.26785	378.4
0.340017	378.4
0.447354	377.882
0.632244	384.099
0.687303	391.351
0.821969	399.64
0.937218	409.483
1.32457	408.965
