Adsorption isotherm of Hydrogen on ZIF-8
DOI: 10.1021/Jp911477a
Adsorbate Hydrogen: InChIKey UFHFLCQGNIYNRP-UHFFFAOYSA-N
Temperature: 77 K
Tabular data in the source: 0
pressure (bar)	uptake (wt%)
0.0306067	0.132452
0.048719	0.224217
0.070268	0.306805
0.0957956	0.361864
0.125193	0.444452
0.14539	0.561745
0.180971	0.690984
0.231507	0.860331
0.296156	1.08316
0.393385	1.34163
0.493016	1.55332
0.648189	1.82294
0.860991	2.11484
1.11279	2.44462
1.47812	2.69642
2.0317	2.95267
2.9196	3.28913
3.9857	3.56321
6.23887	3.83951
8.87387	4.04897
12.0316	4.23614
16.823	4.46565
22.6538	4.6038
32.2217	4.78206
38.7584	4.83554
59.2337	5.03386
