Adsorption isotherm of Hydrogen on ZIF-8
DOI: 10.1021/Jp911477a
Adsorbate Hydrogen: InChIKey UFHFLCQGNIYNRP-UHFFFAOYSA-N
Temperature: 77 K
Tabular data in the source: 0
pressure (bar)	uptake (wt%)
0.0496542	0.0603048
0.101578	0.16559
0.207797	0.338558
0.314868	0.504007
0.415389	0.654414
0.517265	0.759699
0.6222	0.895066
0.71465	1.02291
0.820836	1.12068
0.931978	1.22596
2.4578	1.82759
3.76746	2.18105
5.84204	2.45178
8.65021	2.64731
11.4118	2.77516
13.2596	2.84284
16.1347	2.88044
20.0918	2.94813
24.7322	2.99325
35.3739	3.06845
68.3058	3.1211
78.4549	3.15118
