Adsorption isotherm of Hydrogen on ZIF-8
DOI: 10.1021/Jp911477a
Adsorbate Hydrogen: InChIKey UFHFLCQGNIYNRP-UHFFFAOYSA-N
Temperature: 200 K
Tabular data in the source: 0
pressure (bar)	uptake (wt%)
4.85677	0.143029
9.70873	0.248314
14.8821	0.323518
19.6332	0.451364
24.4483	0.549129
27.7586	0.601771
33.3899	0.699536
37.911	0.78226
45.0784	0.857464
48.8724	0.910107
52.3775	0.992831
