Adsorption isotherm of Hydrogen on ZIF-8
DOI: 10.1021/Jp911477a
Adsorbate Hydrogen: InChIKey UFHFLCQGNIYNRP-UHFFFAOYSA-N
Temperature: 300 K
Tabular data in the source: 0
pressure (bar)	uptake (wt%)
8.35576	0.0678252
12.0898	0.0603048
16.5115	0.0979066
22.5504	0.105427
29.0705	0.203192
37.0457	0.263355
43.0441	0.300957
50.5946	0.353599
