Adsorption isotherm of Methane on ZIF-8
DOI: 10.1021/Jp911477a
Adsorbate Methane: InChIKey VNWKTOKETHGBQD-UHFFFAOYSA-N
Temperature: 240 K
Tabular data in the source: 0
pressure (bar)	uptake (wt%)
0.853506	5.48944
1.07493	6.41411
1.29538	7.28492
1.8262	8.47574
2.34318	9.49816
2.97338	10.3281
3.55004	11.0017
4.86808	12.2286
5.28984	12.4572
6.90107	13.1789
9.62184	13.9968
13.1942	14.6464
19.7696	15.2959
24.2666	15.765
30.7932	15.9815
37.1747	16.2702
43.4118	16.4506
48.7671	16.7153
55.0874	16.8596
60.8632	16.9799
