Adsorption isotherm of Methane on ZIF-8
DOI: 10.1021/Jp911477a
Adsorbate Methane: InChIKey VNWKTOKETHGBQD-UHFFFAOYSA-N
Temperature: 270 K
Tabular data in the source: 0
pressure (bar)	uptake (wt%)
0.0467031	0.196802
0.123442	0.349743
0.340356	0.869743
0.951748	2.24621
1.55826	3.37798
2.03646	4.14268
2.6614	5.06033
3.38151	5.85563
4.11867	6.62033
5.23308	7.53798
7.6548	8.7921
10.7339	9.95445
15.4816	10.8415
20.8107	11.7897
24.6433	12.4015
31.3111	12.9827
38.1369	13.3192
46.4507	13.8086
56.577	14.1144
61.5667	14.4509
