Adsorption isotherm of Methane on ZIF-8
DOI: 10.1021/Jp911477a
Adsorbate Methane: InChIKey VNWKTOKETHGBQD-UHFFFAOYSA-N
Temperature: 200 K
Tabular data in the source: 0
pressure (bar)	uptake (wt%)
0.0176696	0.380331
0.0480375	1.17563
0.126969	3.3168
0.414554	8.60857
0.565157	9.74033
0.72826	10.7192
0.826695	11.4227
0.951748	11.9733
1.14301	12.4321
1.39219	13.1662
1.67197	13.5639
2.12436	14.0533
2.55128	14.3592
3.28757	14.7874
5.23308	15.5827
7.44215	15.9192
10.7339	16.5003
15.2651	16.9286
20.2326	17.3874
25.3474	17.5403
31.3111	17.7544
40.9198	17.9074
