Adsorption isotherm of Methane on ZIF-8
DOI: 10.1021/Jp911477a
Adsorbate Methane: InChIKey VNWKTOKETHGBQD-UHFFFAOYSA-N
Temperature: 270 K
Tabular data in the source: 0
pressure (bar)	uptake (wt%)
7.54773	4.93798
10.2897	6.22268
14.841	7.41563
20.2326	8.66974
24.6433	9.58739
29.5957	10.1686
37.6035	10.9639
43.9058	11.4227
49.1432	11.8815
60.7055	12.5544
