Adsorption isotherm of Argon on ZIF-8
DOI: 10.1021/Jp911477a
Adsorbate Argon: InChIKey XKRFYHLGVUSROY-UHFFFAOYSA-N
Temperature: 87 K
Tabular data in the source: 0
pressure (bar)	uptake (cm3(STP)/g)
1.09e-06	5.64407
4.7e-06	19.6393
6.92e-06	46.6967
9.97e-06	121.338
1.26e-05	188.515
1.47e-05	241.697
1.79e-05	263.073
2.51e-05	279.599
3.02e-05	288.024
3.89e-05	296.45
4.73e-05	305.523
6.97e-05	318.809
0.0001	324.642
0.000128	335.335
0.000515	365.471
0.000731	372.276
0.00102996	372.276
0.0020615	382.97
0.00493534	400.144
0.0065045	400.144
0.00951651	412.134
0.0506222	443.242
0.101322	449.723
0.156189	453.612
0.202799	456.204
0.265291	458.149
0.334331	463.333
0.412012	464.305
0.567871	464.63
0.812441	465.926
1.04705	466.898
