Adsorption isotherm of Argon on ZIF-8
DOI: 10.1021/Jp911477a
Adsorbate Argon: InChIKey XKRFYHLGVUSROY-UHFFFAOYSA-N
Temperature: 87 K
Tabular data in the source: 0
pressure (bar)	uptake (cm3(STP)/g)
1.28e-05	0.743763
2.06e-05	-0.810379
3.21e-05	0.743763
4.17e-05	1.26181
7.31e-05	2.2979
0.000106	1.26181
0.000192	6.96033
0.000325	9.55057
0.000412	15.2491
0.000536	25.61
0.000739	40.6334
0.000895	50.9943
0.00095	66.0177
0.00211164	259.249
0.0030931	338.511
0.00416779	349.908
0.005166	355.088
0.00640329	356.124
0.0078428	359.232
0.0099559	362.859
0.0120495	363.895
0.0206105	369.075
0.0320455	372.184
0.0535214	372.702
0.0765493	374.774
0.137336	378.918
0.191795	387.207
0.249349	389.279
0.294669	468.54
0.301784	394.46
0.369627	505.84
0.447354	516.719
0.554498	525.008
0.712344	536.405
0.893549	541.585
1.10756	549.874
