Adsorption isotherm of Methane on ZIF-8
DOI: 10.1021/Jp911477a
Adsorbate Methane: InChIKey VNWKTOKETHGBQD-UHFFFAOYSA-N
Temperature: 240 K
Tabular data in the source: 0
pressure (bar)	uptake (wt%)
0.0169385	0.22739
0.048719	0.410919
0.130597	1.29798
0.360084	3.46974
0.887021	6.98739
1.14301	7.9968
1.35352	8.82268
1.84523	9.98504
2.4115	10.7803
2.89612	11.5756
3.62826	12.218
5.01654	13.1662
5.38261	13.5027
7.23541	14.1756
9.72599	15.0321
13.6382	15.8274
20.5196	16.4697
25.3474	16.898
30.8731	17.265
36.0475	17.4792
47.778	17.9074
61.5667	18.1521
