Adsorption isotherm of Methane on ZIF-8
DOI: 10.1021/Jp911477a
Adsorbate Methane: InChIKey VNWKTOKETHGBQD-UHFFFAOYSA-N
Temperature: 240 K
Tabular data in the source: 0
pressure (bar)	uptake (wt%)
0.0169385	0.105037
0.0501111	0.349743
0.126969	0.930919
0.355048	2.82739
0.874613	6.03915
1.14301	7.07915
1.35352	7.93563
1.89796	9.28151
2.37777	10.1686
2.89612	10.9639
3.67973	11.6674
4.94637	12.9215
5.38261	13.2274
7.23541	13.9921
9.58995	14.818
13.6382	15.705
19.3954	16.5309
25.3474	16.9897
30.8731	17.3262
38.1369	17.6627
47.778	18.1827
62.44	18.305
