Adsorption isotherm of Argon on ZIF-8
DOI: 10.1021/Jp911477a
Adsorbate Argon: InChIKey XKRFYHLGVUSROY-UHFFFAOYSA-N
Temperature: 87 K
Tabular data in the source: 0
pressure (bar)	uptake (cm3(STP)/g)
9.97e-07	-3.91866
4.81e-06	2.81595
1.03e-05	9.55057
1.53e-05	19.9115
1.92e-05	35.4529
2.44e-05	58.7651
3.06e-05	104.353
3.93e-05	203.818
4.87e-05	233.347
7.13e-05	264.43
0.000102	280.489
0.000232	312.608
0.000517	334.884
0.000722	345.245
0.00103226	346.281
0.00134203	352.498
0.00168341	352.498
0.00237916	357.16
0.00504421	361.823
0.0103186	365.967
0.0492339	374.256
0.101923	373.738
0.156592	379.436
0.201168	384.617
0.258434	390.315
0.312779	394.978
0.369627	403.266
0.469216	412.591
0.588575	417.254
0.729542	418.29
1.01883	420.88
