Adsorption isotherm of Hydrogen on ZIF-8
DOI: 10.1021/Jp911477a
Adsorbate Hydrogen: InChIKey UFHFLCQGNIYNRP-UHFFFAOYSA-N
Temperature: 77 K
Tabular data in the source: 0
pressure (bar)	uptake (wt%)
0.101578	0.270875
0.396644	0.932668
0.722947	1.40645
1.01042	1.74487
1.49611	2.10585
2.01983	2.35402
2.54441	2.51195
3.06058	2.63227
3.51534	2.7902
4.03766	2.85788
4.42832	2.98573
5.0863	3.06093
7.27483	3.24894
10.1676	3.48959
16.1347	3.7152
20.7998	3.84305
26.506	3.9333
31.8831	4.03106
36.6205	4.10626
41.5789	4.13635
48.8724	4.18147
58.1122	4.30179
