Adsorption isotherm of Methane on ZIF-8
DOI: 10.1021/Jp911477a
Adsorbate Methane: InChIKey VNWKTOKETHGBQD-UHFFFAOYSA-N
Temperature: 300 K
Tabular data in the source: 0
pressure (bar)	uptake (wt%)
7.44215	3.0721
11.1972	3.98974
15.4816	5.1521
21.1059	6.25327
27.1971	7.10974
31.3111	7.81327
37.6035	8.45563
44.5287	9.09798
48.4558	9.43445
58.1936	9.89327
59.8564	10.2603
