Adsorption isotherm of Methane on ZIF-8
DOI: 10.1021/Jp911477a
Adsorbate Methane: InChIKey VNWKTOKETHGBQD-UHFFFAOYSA-N
Temperature: 240 K
Tabular data in the source: 0
pressure (bar)	uptake (wt%)
0.0171788	0.0438605
0.0480375	0.135625
0.12877	0.625037
0.350081	1.7568
0.887021	4.26504
1.11126	5.1521
1.33458	5.94739
1.84523	7.17092
2.34451	8.08857
2.9372	8.88386
3.62826	9.64857
5.08771	10.8415
5.53641	11.1474
7.33805	11.8815
10.0039	12.8297
13.2593	13.5333
19.6705	14.298
25.3474	14.8486
31.3111	15.0321
37.6035	15.3686
45.801	15.6439
51.9917	15.8274
58.1936	16.0721
64.2242	16.1027
