Adsorption isotherm of Methane on ZIF-8
DOI: 10.1021/Jp911477a
Adsorbate Methane: InChIKey VNWKTOKETHGBQD-UHFFFAOYSA-N
Temperature: 240 K
Tabular data in the source: 0
pressure (bar)	uptake (wt%)
0.12877	0.808566
0.355048	2.39915
0.887021	4.99915
1.11126	6.03915
1.33458	6.80386
1.84523	7.93563
2.44571	8.7921
3.02113	9.67915
3.67973	10.2297
5.23308	11.3003
5.53641	11.698
7.33805	12.4015
9.72599	13.1968
13.8317	13.9309
19.6705	14.4815
25.1656	14.8607
31.0551	15.0738
37.3942	15.3401
42.8712	15.4924
49.4962	15.6217
55.3705	15.7739
63.4805	15.9185
