Adsorption isotherm of Methane on ZIF-8
DOI: 10.1021/Jp911477a
Adsorbate Methane: InChIKey VNWKTOKETHGBQD-UHFFFAOYSA-N
Temperature: 200 K
Tabular data in the source: 0
pressure (bar)	uptake (wt%)
5.08771	13.0439
7.44215	14.2368
10.7339	15.1544
14.4287	16.225
20.2326	17.0815
26.0717	17.6933
33.5959	18.2744
37.0775	18.4274
40.9198	18.9168
