Adsorption isotherm of Methane on ZIF-8
DOI: 10.1021/Jp911477a
Adsorbate Methane: InChIKey VNWKTOKETHGBQD-UHFFFAOYSA-N
Temperature: 240 K
Tabular data in the source: 0
pressure (bar)	uptake (wt%)
0.016468	0.380331
0.0473656	0.56386
0.126969	1.38974
0.345185	3.68386
0.86238	7.44621
1.09572	8.63915
1.31592	9.49563
1.84523	10.8109
2.37777	11.7592
2.85561	12.585
3.57751	13.1968
5.01654	14.298
5.38261	14.6344
7.1342	15.4909
9.58995	16.1944
13.2593	16.9286
19.3954	17.6321
24.9929	18.0603
30.8731	18.2133
37.0775	18.6109
46.4507	19.0086
62.44	19.1615
