Adsorption isotherm of Methane on ZIF-8
DOI: 10.1021/Jp911477a
Adsorbate Methane: InChIKey VNWKTOKETHGBQD-UHFFFAOYSA-N
Temperature: 240 K
Tabular data in the source: 0
pressure (bar)	uptake (wt%)
4.93901	6.26116
7.26837	7.72262
9.92562	9.07582
13.5543	10.429
20.4504	11.701
25.2766	12.54
32.8388	13.379
38.6149	14.0015
45.4068	14.4074
51.4339	15.0029
58.9916	15.5171
63.5722	15.7065
