Adsorption isotherm of Argon on ZIF-8
DOI: 10.1021/Jp911477a
Adsorbate Argon: InChIKey XKRFYHLGVUSROY-UHFFFAOYSA-N
Temperature: 87 K
Tabular data in the source: 0
pressure (bar)	uptake (cm3(STP)/g)
1e-06	2.6495
1.93e-06	8.11778
4.12e-06	15.7734
5.04e-06	19.0543
8.55e-06	37.6465
9.69e-06	58.4259
1.32e-05	117.216
1.49e-05	164.186
1.74e-05	202.176
1.99e-05	235.676
2.4e-05	256.053
2.98e-05	269.177
3.91e-05	280.919
4.73e-05	291.28
7.15e-05	303.368
0.000101	312.693
0.000238	334.796
0.000514	354.136
0.000679	358.972
0.00106779	362.771
0.00223705	370.023
0.00472411	380.039
0.00708689	382.456
0.00981873	390.4
0.0243092	405.25
0.0505251	424.246
0.0977597	433.57
0.144341	441.168
0.203187	444.622
0.251851	445.313
0.348934	448.421
0.50305	453.602
0.713792	456.019
0.996839	457.055
