Adsorption isotherm of Hydrogen on ZIF-8
DOI: 10.1021/Jp911477a
Adsorbate Hydrogen: InChIKey UFHFLCQGNIYNRP-UHFFFAOYSA-N
Temperature: 100 K
Tabular data in the source: 0
pressure (bar)	uptake (wt%)
2.18983	0.57921
2.54441	0.669455
3.09612	0.78226
3.24244	0.917627
4.32725	1.03795
5.57841	1.2786
7.79658	1.5719
10.7717	1.82759
14.8821	2.09833
20.0918	2.36154
24.7322	2.58715
34.1698	2.85036
44.561	3.06093
56.1341	3.25646
