Adsorption isotherm of Nitrogen on Nanoporous Carbon
DOI: 10.1039/C4ra01000k
Adsorbate Nitrogen: InChIKey IJGRMHOSHXDMSA-UHFFFAOYSA-N
Temperature: 77 K
Tabular data in the source: 0
pressure (bar)	uptake (cm3(STP)/g)
0.380434	300.341
0.44017	331.561
0.490476	353.388
0.539209	362.654
0.587943	371.921
0.635104	374.91
0.683836	384.176
0.729426	393.453
0.773444	399.593
0.831608	411.971
0.880342	427.52
0.929075	468.2
0.954228	515.239
0.962088	530.921
0.963659	552.905
