Adsorption isotherm of Nitrogen on A-NPC
DOI: 10.1039/C4ra01000k
Adsorbate Nitrogen: InChIKey IJGRMHOSHXDMSA-UHFFFAOYSA-N
Temperature: 77 K
Tabular data in the source: 0
pressure (bar)	uptake (cm3(STP)/g)
0.00943223	345.519
0.0235805	389.453
0.039301	417.674
0.0550214	439.613
0.0613095	452.158
0.0691697	467.839
0.0864622	483.49
0.103754	502.282
0.10847	508.55
0.119475	517.938
0.13834	533.584
0.141483	542.998
0.155632	549.235
0.163492	558.634
0.172925	568.027
0.188645	583.683
0.207509	602.47
0.223229	614.985
0.242094	630.631
0.259386	643.14
0.276679	655.65
0.286111	665.043
0.30812	680.679
0.337988	702.572
0.344277	715.117
0.371001	727.596
0.402441	746.343
0.438599	765.074
0.468468	783.826
0.503052	802.562
0.536065	818.162
0.569079	833.762
0.602091	852.503
0.635104	864.962
0.669688	877.416
0.702701	893.016
0.735715	911.757
0.768727	927.357
0.80174	949.24
0.836324	974.259
0.867766	1002.43
0.905495	1061.99
0.935363	1140.43
0.965232	1225.15
