Adsorption isotherm of Nitrogen on Nanoporous Carbon
DOI: 10.1039/C4ra01000k
Adsorbate Nitrogen: InChIKey IJGRMHOSHXDMSA-UHFFFAOYSA-N
Temperature: 77 K
Tabular data in the source: 0
pressure (bar)	uptake (cm3(STP)/g)
0.00786019	159.74
0.0172925	178.479
0.0251527	184.694
0.0345849	190.9
0.0471612	200.218
0.0974668	228.092
0.141483	246.607
0.193361	258.805
0.245238	274.136
0.286111	286.405
0.341133	295.45
0.383577	304.576
0.433883	310.517
0.484188	322.726
0.529777	334.964
0.583227	340.886
0.630387	349.981
0.675977	355.953
0.721565	365.059
0.779731	377.216
0.823748	386.332
0.872481	401.683
0.921215	429.567
0.944795	460.747
0.951083	473.239
0.952656	504.56
0.957372	523.329
0.966804	545.2
