Adsorption isotherm of Nitrogen on A-NPC
DOI: 10.1039/C4ra01000k
Adsorbate Nitrogen: InChIKey IJGRMHOSHXDMSA-UHFFFAOYSA-N
Temperature: 77 K
Tabular data in the source: 0
pressure (bar)	uptake (cm3(STP)/g)
0.405586	762.039
0.44017	793.341
0.476328	843.486
0.509341	865.369
0.542353	877.827
0.573794	887.15
0.606807	902.75
0.63982	918.35
0.674405	927.662
0.707417	940.121
0.743574	965.135
0.775016	980.74
0.80174	999.502
0.844185	1046.49
0.877198	1106.06
0.908638	1149.94
0.941652	1187.53
0.963659	1234.58
