Adsorption isotherm of Nitrogen on TC
DOI: 10.1016/j.micromeso.2013.04.020
Adsorbate Nitrogen: InChIKey IJGRMHOSHXDMSA-UHFFFAOYSA-N
Temperature: 77 K
Tabular data in the source: 0
pressure (bar)	uptake (cm3(STP)/g)
0.0236188	194.663
0.0488122	212.334
0.072431	223.369
0.0976242	234.402
0.124392	244.327
0.148011	250.938
0.173205	258.652
0.193674	266.372
0.218868	271.875
0.242487	278.485
0.269254	283.985
0.292873	290.596
0.318067	293.886
0.340111	297.179
0.366879	302.68
0.390498	305.971
0.412541	310.371
0.43931	312.553
0.462928	315.845
0.488122	318.028
0.510167	319.109
0.535359	321.293
0.558979	324.585
0.585746	325.66
0.607791	328.954
0.634558	331.136
0.659751	333.32
0.681796	335.507
0.70699	337.691
0.729033	340.984
0.754227	342.062
0.777846	345.353
0.801464	348.645
0.826658	349.722
0.848702	353.016
0.875471	356.304
0.902238	362.911
0.925857	369.521
0.944752	380.561
0.963647	420.363
