Adsorption isotherm of Hydrogen on TC
DOI: 10.1016/j.micromeso.2013.04.020
Adsorbate Hydrogen: InChIKey UFHFLCQGNIYNRP-UHFFFAOYSA-N
Temperature: 77 K
Tabular data in the source: 0
pressure (bar)	uptake (wt%)
0.586346	0.768872
1.54801	1.33017
3.59317	1.63444
4.06535	1.70599
4.73518	1.73478
5.40644	1.77228
7.21828	1.9014
9.37992	1.97965
12.466	2.07898
14.1114	2.12904
15.4482	2.16918
16.6797	2.19148
17.6055	2.22128
19.5055	2.26364
20.3758	2.26709
20.7868	2.27743
