Adsorption isotherm of Hydrogen on Pt/TC
DOI: 10.1016/j.micromeso.2013.04.020
Adsorbate Hydrogen: InChIKey UFHFLCQGNIYNRP-UHFFFAOYSA-N
Temperature: 77 K
Tabular data in the source: 0
pressure (bar)	uptake (wt%)
0	0
0.304172	0.814266
1.4821	1.36137
3.32687	1.63167
5.45698	1.78084
7.52768	1.88605
9.49089	1.96456
11.1397	2.00673
12.742	2.07492
14.285	2.09915
15.5729	2.131
16.7069	2.16218
17.7382	2.19291
18.6123	2.20547
19.387	2.23508
20.2627	2.25639
21.0871	2.27748
