Adsorption isotherm of Hydrogen on TC
DOI: 10.1016/j.micromeso.2013.04.020
Adsorbate Hydrogen: InChIKey UFHFLCQGNIYNRP-UHFFFAOYSA-N
Temperature: 77 K
Tabular data in the source: 0
pressure (bar)	uptake (wt%)
0.0507482	5.05796e-05
1.61079	0.12918
3.8454	0.17659
6.13901	0.205454
8.50984	0.223764
10.839	0.246019
13.3591	0.263149
15.667	0.27608
17.9364	0.294289
20.2981	0.308603
22.606	0.321534
