Adsorption isotherm of Nitrogen on Pt/TC
DOI: 10.1016/j.micromeso.2013.04.020
Adsorbate Nitrogen: InChIKey IJGRMHOSHXDMSA-UHFFFAOYSA-N
Temperature: 77 K
Tabular data in the source: 0
pressure (bar)	uptake (cm3(STP)/g)
0.0236188	205.725
0.0503868	221.182
0.0740055	233.323
0.0960498	242.147
0.122818	253.179
0.144862	259.791
0.168481	265.295
0.196823	274.112
0.220442	280.722
0.242487	285.122
0.266105	289.52
0.292873	295.021
0.316492	299.418
0.341686	303.814
0.363729	306.002
0.390498	309.29
0.415691	313.686
0.43931	316.978
0.464503	319.161
0.489697	323.557
0.51174	324.639
0.533785	326.826
0.560552	330.114
0.584172	332.299
0.606216	335.593
0.632984	336.669
0.656603	339.96
0.683371	342.142
0.708564	346.538
0.730608	348.726
0.754227	350.911
0.77942	355.307
0.804614	357.491
0.826658	361.891
0.850277	366.288
0.875471	371.791
0.900663	380.612
0.922708	387.224
0.949476	405.999
0.966796	450.227
