Adsorption isotherm of Hydrogen on Pt/TC
DOI: 10.1016/j.micromeso.2013.04.020
Adsorbate Hydrogen: InChIKey UFHFLCQGNIYNRP-UHFFFAOYSA-N
Temperature: 77 K
Tabular data in the source: 0
pressure (bar)	uptake (wt%)
1.4776	0.159612
3.78335	0.193804
6.11861	0.218723
8.50462	0.243692
10.8277	0.263283
13.2554	0.284308
15.4263	0.303747
17.8478	0.322107
20.2156	0.339085
22.4668	0.349302
