Adsorption isotherm of Argon on Fullerene
DOI: 10.1021/jp002047c
Article source: Figure 1
Adsorbate Argon: InChIKey XKRFYHLGVUSROY-UHFFFAOYSA-N
Kind: experiment
Temperature: 78 K
Tabular data in the source: 0
pressure (bar)	uptake (molecules/nm2)
0.001374	3.96379
0.002909	4.49202
0.022713	6.12658
0.05147	8.07648
0.079471	9.49799
0.079488	9.12801
0.106338	10.1798
0.106713	10.4968
0.133157	11.8658
0.133172	11.5487
0.158812	13.4463
0.159222	13.0234
0.184857	15.0268
0.185271	14.4982
0.211272	17.03
0.211691	16.3957
0.237259	19.8261
0.237294	19.0862
0.262796	23.9437
0.263242	22.7279
