Adsorption isotherm of Carbon Dioxide on Fullerene
DOI: 10.1021/jp002047c
Article source: Figure 2
Adsorbate Carbon Dioxide: InChIKey CURLTUGMZLYLDI-UHFFFAOYSA-N
Kind: experiment
Temperature: 273 K
Tabular data in the source: 0
pressure (bar)	uptake (molecules/nm2)
0.019559	3.09404
0.056901	8.83666
0.074683	11.4853
0.11024	17.6854
0.128022	20.334
0.161803	26.0887
0.181361	29.1827
0.215141	34.9374
0.234701	38.0314
0.268477	44.2376
0.318259	52.6469
0.371593	61.9471
0.424925	71.6988
0.476479	81.005
0.529811	90.7567
0.581366	100.063
0.636477	109.809
0.688035	118.663
0.739586	128.421
0.792917	138.173
0.846248	147.924
0.897798	157.682
0.952915	166.976
1.00625	176.277
1.05069	185.155
