Adsorption isotherm of Water on [Cu2(pcp)2bipy]*5H2O]n
DOI: 10.1039/C2ce26138c
Adsorbate Water: InChIKey XLYOFNOQVPJJNP-UHFFFAOYSA-N
Temperature: 293 K
Tabular data in the source: 0
pressure (bar)	uptake (mol/mol)
0.0177535	0.169412
0.0400831	0.630588
0.0778964	1.14824
0.124441	1.48706
0.285765	1.80706
0.343187	1.85412
0.55961	2.01412
0.683459	2.42824
0.886695	2.69176
0.979639	3.10588
