Adsorption isotherm of Carbon Dioxide on [Cu2(pcp)2bipy]*5H2O]n
DOI: 10.1039/C2ce26138c
Adsorbate Carbon Dioxide: InChIKey CURLTUGMZLYLDI-UHFFFAOYSA-N
Temperature: 195 K
Tabular data in the source: 0
pressure (bar)	uptake (cm3(STP)/g)
0.115816	1.84758
0.314713	7.15935
0.56319	12.933
0.828055	18.0139
1.08452	22.1709
1.6631	28.4065
2.4479	34.2956
3.25713	38.2217
4.091	41.455
4.88348	43.8799
