Adsorption isotherm of Methanol on [Cu2(pcp)2bipy]*5H2O]n
DOI: 10.1039/C2ce26138c
Adsorbate Methanol: InChIKey OKKJLVBELUTLKV-UHFFFAOYSA-N
Temperature: 293 K
Tabular data in the source: 0
pressure (bar)	uptake (cm3(STP)/g)
0.0287391	0.0752941
0.161325	0.32
0.209942	0.414118
0.25419	0.592941
0.285303	0.969412
0.341021	1.92941
0.418756	2.78588
0.538055	2.95529
0.761138	3.18118
0.882675	3.40706
