Adsorption isotherm of Carbon Dioxide on [Cu2(pcp)2bipy]*5H2O]n
DOI: 10.1039/C2ce26138c
Adsorbate Carbon Dioxide: InChIKey CURLTUGMZLYLDI-UHFFFAOYSA-N
Temperature: 195 K
Tabular data in the source: 0
pressure (bar)	uptake (cm3(STP)/g)
0.00177135	2.38443
0.00926027	20.438
0.0162166	27.2506
0.051333	33.382
0.147825	39.854
0.355397	45.6448
0.504844	49.7324
0.650967	53.6496
0.860172	58.9294
0.98641	63.1873
