Adsorption isotherm of Carbon Dioxide on [Cu2(pcp)2bipy]*5H2O]n
DOI: 10.1039/C2ce26138c
Adsorbate Carbon Dioxide: InChIKey CURLTUGMZLYLDI-UHFFFAOYSA-N
Temperature: 195 K
Tabular data in the source: 0
pressure (bar)	uptake (cm3(STP)/g)
0.00177135	2.38443
0.00926027	20.438
0.0162166	27.2506
0.051333	33.382
0.1495	40.1946
0.330569	46.6667
0.523199	52.1168
0.651088	56.2044
0.802185	60.1217
0.98641	63.1873
