Adsorption isotherm of Methane on [Cu2(pcp)2bipy]*5H2O]n
DOI: 10.1039/C2ce26138c
Adsorbate Methane: InChIKey VNWKTOKETHGBQD-UHFFFAOYSA-N
Temperature: 195 K
Tabular data in the source: 0
pressure (bar)	uptake (cm3(STP)/g)
0.115531	0.115473
0.454024	1.38568
0.842003	2.54042
1.3538	4.04157
1.96461	5.54273
2.29482	6.58199
2.79831	7.73672
3.54928	8.66051
4.358	9.46882
4.94388	9.93072
