Adsorption isotherm of Carbon Dioxide on [Cu2(pcp)2bipy]*5H2O]n
DOI: 10.1039/C2ce26138c
Adsorbate Carbon Dioxide: InChIKey CURLTUGMZLYLDI-UHFFFAOYSA-N
Temperature: 195 K
Tabular data in the source: 0
pressure (bar)	uptake (cm3(STP)/g)
0.00187626	4.59854
0.012456	17.8832
0.0276557	23.674
0.0411729	28.9538
0.097832	34.7445
0.20256	40.0243
0.302191	42.7494
0.549467	46.4964
0.753544	48.5401
0.955954	50.4136
