Adsorption isotherm of Methane on Cr-MIL(101)
DOI: 10.1016/j.energy.2015.08.096
Article source: Figure 8
Adsorbate Methane: InChIKey VNWKTOKETHGBQD-UHFFFAOYSA-N
Kind: experiment
Temperature: 298 K
Tabular data in the source: 0
pressure (bar)	uptake (volume/volume)
0.123	0.751
0.665	5.509
2.037	13.475
5.076	31.16
7.654	44.538
10.651	60.521
13.178	72.798
15.756	84.124
17.586	91.992
19.56	100.212
21.964	109.785
24.592	119.11
27.394	129.186
30.083	137.309
32.374	144.429
34.817	151.551
37.2	157.971
39.991	164.693
43.682	174.024
45.061	176.234
49.948	187.072
55.049	196.111
60.027	204.798
64.954	212.684
