Adsorption isotherm of Methane on MOF-74-Ni
DOI: 10.1016/j.energy.2015.08.096
Article source: Figure 8
Adsorbate Methane: InChIKey VNWKTOKETHGBQD-UHFFFAOYSA-N
Kind: experiment
Temperature: 298 K
Tabular data in the source: 0
pressure (bar)	uptake (volume/volume)
0.194	0.702
0.73	20.224
1.142	30.437
1.594	40.65
2.086	49.161
2.335	64.378
2.686	78.594
3.753	94.816
4.594	108.735
6.029	128.563
7.013	140.08
9.326	157.811
12.293	174.044
17.1	192.19
22.805	207.438
29.449	218.287
34.989	226.126
40.528	232.464
45.945	238.901
52.527	243.544
60.947	249.998
63.768	251.516
