Adsorption isotherm of Methane on PCN-14
DOI: 10.1016/j.energy.2015.08.096
Article source: Figure 8
Adsorbate Methane: InChIKey VNWKTOKETHGBQD-UHFFFAOYSA-N
Kind: experiment
Temperature: 298 K
Tabular data in the source: 0
pressure (bar)	uptake (volume/volume)
0.133	0.501
2.358	36.703
3.907	55.125
5.456	72.412
6.695	83.518
8.94	104.845
11.854	124.158
16.133	144.865
21.931	164.573
29.865	183.158
34.399	193.399
40.297	201.757
46.426	208.981
53.071	218.477
60.694	225.458
65.252	228.763
