Adsorption isotherm of Methane on CuBTC
DOI: 10.1016/j.energy.2015.08.096
Article source: Figure 8
Adsorbate Methane: InChIKey VNWKTOKETHGBQD-UHFFFAOYSA-N
Kind: experiment
Temperature: 298 K
Tabular data in the source: 0
pressure (bar)	uptake (volume/volume)
0.161	1.251
2.693	40.741
3.957	50.081
4.99	63.582
6.229	74.687
7.056	87.934
9.378	108.252
11.598	131.219
15.364	158.356
20.906	184.494
27.94	207.614
31.985	216.717
36.132	226.074
42.211	237.711
48.367	246.953
55.578	255.697
61.372	260.396
63.793	265.203
