Adsorption isotherm of Methane on NU-111
DOI: 10.1016/j.energy.2015.08.096
Article source: Figure 8
Adsorbate Methane: InChIKey VNWKTOKETHGBQD-UHFFFAOYSA-N
Kind: experiment
Temperature: 298 K
Tabular data in the source: 0
pressure (bar)	uptake (volume/volume)
1.397	6.238
4.939	26.303
7.039	37.787
9.873	49.086
13.427	62.974
17.614	83.925
24.246	105.016
30.131	122.51
34.948	136.658
39.558	151.245
44.915	168.168
52.371	182.709
60.135	199.016
64.706	205.535
