Adsorption isotherm of Methane on UTSA-20
DOI: 10.1016/j.energy.2015.08.096
Article source: Figure 8
Adsorbate Methane: InChIKey VNWKTOKETHGBQD-UHFFFAOYSA-N
Kind: experiment
Temperature: 298 K
Tabular data in the source: 0
pressure (bar)	uptake (volume/volume)
0.135	0.873
2.667	40.11
4.295	61.686
7.441	84.279
9.789	101.571
13.681	122.276
18.501	142.104
24.994	163.329
29.219	173.191
31.615	178.375
36.637	186.097
41.557	196.719
48.331	204.83
55.311	216.094
61.492	224.201
