Adsorption isotherm of Methane on Al MOF-519
DOI: 10.1016/j.energy.2015.08.096
Article source: Figure 8
Adsorbate Methane: InChIKey VNWKTOKETHGBQD-UHFFFAOYSA-N
Kind: experiment
Temperature: 298 K
Tabular data in the source: 0
pressure (bar)	uptake (volume/volume)
0.214	0.711
6.977	64.309
10.584	89.436
13.768	110.906
16.594	125.858
19.258	140.969
25.492	168.018
28.901	179.319
32.602	191.575
36.173	203.513
40.23	212.435
45.748	224.543
50.227	236.486
59.671	251.158
65.22	260.406
