Adsorption isotherm of Methane on NU-125
DOI: 10.1016/j.energy.2015.08.096
Article source: Figure 8
Adsorbate Methane: InChIKey VNWKTOKETHGBQD-UHFFFAOYSA-N
Kind: experiment
Temperature: 298 K
Tabular data in the source: 0
pressure (bar)	uptake (volume/volume)
0.117	0.79
1.158	11.681
4.881	46.819
7.123	65.74
11.738	99.851
16.204	121.963
22.178	146.468
28.72	165.97
37.517	191.127
49.054	213.359
58.027	227.314
