Adsorption isotherm of Methane on Activated Carbon
DOI: 10.1016/j.apenergy.2015.03.123
Article source: Figure 3
Adsorbate Methane: InChIKey VNWKTOKETHGBQD-UHFFFAOYSA-N
Kind: experiment
Isotherm type: excess
Temperature: 298 K
Tabular data in the source: 0
pressure (bar)	uptake (g/g)
3.65497	0.049405
11.6959	0.080357
18.2749	0.096429
19.7368	0.101786
32.8947	0.114881
38.0117	0.118452
45.3216	0.12381
56.2865	0.126786
76.0234	0.128571
94.2982	0.127381
113.304	0.125
133.041	0.120238
149.123	0.115476
165.936	0.11131
183.48	0.107143
199.561	0.102381
214.912	0.098809
230.994	0.095833
245.614	0.092857
259.503	0.090476
