Adsorption isotherm of Methane on Activated Carbon
DOI: 10.1016/j.apenergy.2015.03.123
Article source: Figure 5
Adsorbate Methane: InChIKey VNWKTOKETHGBQD-UHFFFAOYSA-N
Kind: experiment
Temperature: 298 K
Tabular data in the source: 0
pressure (bar)	uptake (g/l)
4.35327	34.3175
11.7476	56.9217
18.4309	70.1651
21.4031	75.6176
33.3229	89.6249
37.7983	93.5122
46.7554	99.7262
54.9483	109.844
74.3658	120.707
95.2772	132.345
112.462	140.094
129.643	148.623
147.576	156.37
165.515	162.556
181.954	169.527
198.396	175.718
214.1	179.57
230.545	184.98
244.003	188.839
260.451	193.47
