Adsorption isotherm of Methane on MOF-177
DOI: 10.1016/j.apenergy.2015.03.123
Article source: Figure 3
Adsorbate Methane: InChIKey VNWKTOKETHGBQD-UHFFFAOYSA-N
Kind: experiment
Isotherm type: excess
Temperature: 298 K
Tabular data in the source: 0
pressure (bar)	uptake (g/g)
2.92398	0.009524
8.77193	0.019048
13.1579	0.027381
19.0058	0.039286
22.6608	0.045238
28.5088	0.054167
34.3567	0.061905
40.9357	0.072024
47.5146	0.077381
57.0175	0.082738
76.0234	0.092262
94.2982	0.096429
113.304	0.096429
131.579	0.093452
149.854	0.091667
166.667	0.0875
184.942	0.083929
200.292	0.079762
216.374	0.075
233.187	0.071429
248.538	0.068452
263.158	0.064881
