Adsorption isotherm of Methane on CuBTC
DOI: 10.1016/j.apenergy.2015.03.123
Article source: Figure 3
Adsorbate Methane: InChIKey VNWKTOKETHGBQD-UHFFFAOYSA-N
Kind: experiment
Isotherm type: excess
Temperature: 298 K
Tabular data in the source: 0
pressure (bar)	uptake (g/g)
5.11696	0.029762
8.04094	0.053571
11.6959	0.072619
18.2749	0.088095
23.3918	0.098214
29.9708	0.107143
37.2807	0.11369
43.8596	0.117857
56.2865	0.121429
76.0234	0.123214
94.2982	0.122024
112.573	0.119048
130.117	0.114881
149.854	0.110119
167.398	0.105357
184.211	0.100595
199.561	0.094643
215.643	0.091071
230.263	0.088095
246.345	0.084524
261.696	0.080952
