Adsorption isotherm of Methane on MIL-88A
DOI: 10.1016/j.apenergy.2015.03.123
Article source: Figure 3
Adsorbate Methane: InChIKey VNWKTOKETHGBQD-UHFFFAOYSA-N
Kind: experiment
Isotherm type: excess
Temperature: 298 K
Tabular data in the source: 0
pressure (bar)	uptake (g/g)
18.2749	0.058333
27.7778	0.0625
38.7427	0.064881
59.9415	0.068452
79.6784	0.069048
97.9532	0.068452
117.69	0.066667
135.234	0.063095
158.626	0.058333
176.17	0.055952
192.982	0.052976
208.333	0.048809
224.415	0.046429
240.497	0.044643
255.848	0.042262
