Adsorption isotherm of Methane on Hypercrosslinked Polymer
DOI: 10.1016/j.apenergy.2015.03.123
Article source: Figure 3
Adsorbate Methane: InChIKey VNWKTOKETHGBQD-UHFFFAOYSA-N
Kind: experiment
Isotherm type: excess
Temperature: 298 K
Tabular data in the source: 0
pressure (bar)	uptake (g/g)
5.84795	0.025595
10.9649	0.042857
18.2749	0.055357
20.4678	0.059524
24.1228	0.065476
31.4327	0.072024
39.4737	0.079167
46.7836	0.085119
59.2105	0.090476
79.6784	0.095833
97.9532	0.095238
116.959	0.091071
137.427	0.086309
146.93	0.084524
172.515	0.079762
188.596	0.075595
204.678	0.069643
219.298	0.065476
234.649	0.058929
251.462	0.055952
