Adsorption isotherm of Nitrogen on DBD-BTT
DOI: 10.1021/acsami.1c04419
Article source: Figure S12
Adsorbate Nitrogen: InChIKey IJGRMHOSHXDMSA-UHFFFAOYSA-N
Kind: experiment
Temperature: 77 K
Tabular data in the source: 0
pressure (bar)	uptake ()
0.012292	5.77617
0.012292	15.8845
0.012292	41.8773
0.019317	75.0903
0.028097	101.083
0.035121	128.52
0.042146	155.957
0.066731	207.942
0.082535	287.365
0.126437	311.913
0.149266	323.466
0.193167	335.018
0.221264	337.906
0.26341	343.682
0.307312	349.458
0.356481	353.791
0.409163	355.235
0.460089	363.899
0.512771	371.119
0.554917	375.451
0.607599	379.783
0.672573	389.892
0.714719	392.78
0.756864	397.112
0.80779	404.332
0.860472	412.996
0.900862	430.325
0.941251	451.986
0.960568	476.534
0.976373	525.632
0.986909	545.848
0.990421	568.953
0.992177	586.282
0.971104	567.509
0.960568	542.96
0.948276	519.856
0.935983	492.419
0.918422	472.202
0.885057	450.542
0.84818	434.657
0.797254	424.549
0.742816	418.773
0.697158	408.664
0.646232	401.444
0.595306	397.112
0.54438	387.004
0.500479	379.783
0.440773	369.675
0.388091	361.011
0.326628	352.347
0.289751	346.57
0.247605	343.682
0.173851	330.686
0.131705	316.245
0.100096	301.805
0.068487	235.379
0.036877	145.848
0.029853	115.523
0.022829	85.1986
0.017561	59.2058
0.012292	25.9928
0.014049	0
