Adsorption isotherm of Nitrogen on DBD-BTTH
DOI: 10.1021/acsami.1c04419
Article source: Figure S10
Adsorbate Nitrogen: InChIKey IJGRMHOSHXDMSA-UHFFFAOYSA-N
Kind: experiment
Temperature: 77 K
Tabular data in the source: 0
pressure (bar)	uptake ()
0	0
0	6.37755
0	12.7551
0	24.2347
0	31.8878
0	38.2653
0	51.0204
0	58.6735
0.010235	65.051
0.015352	77.1684
0.030705	90.5612
0.046057	102.041
0.066527	110.969
0.081879	121.173
0.098937	130.102
0.117701	137.755
0.133053	153.061
0.160346	163.265
0.182521	179.847
0.228578	204.082
0.271223	265.306
0.329221	306.122
0.375278	331.633
0.417923	341.837
0.465686	345.663
0.503213	353.316
0.552682	359.694
0.600444	364.796
0.644795	373.724
0.687441	373.724
0.733497	381.378
0.76079	383.929
0.803436	386.48
0.832434	403.061
0.878491	423.469
0.905784	447.704
0.926254	459.184
0.943312	470.663
0.96037	479.592
0.970605	489.796
0.984251	497.449
0.99278	510.204
0.999604	534.439
0.994486	534.439
0.979134	524.235
0.96037	508.929
0.946723	496.173
0.920283	478.316
0.898961	460.459
0.883609	445.153
0.851198	432.398
0.823905	423.469
0.80173	409.439
0.762496	401.786
0.730086	397.959
0.684029	392.857
0.644795	391.582
0.597033	382.653
0.550976	377.551
0.501508	373.724
0.46398	368.622
0.412806	362.245
0.37016	346.939
0.325809	325.255
0.271223	288.265
0.223461	229.592
0.180816	197.704
0.119407	165.816
0.08529	147.959
0.056292	132.653
0.035822	117.347
0.013646	100.765
0	85.4592
