Adsorption isotherm of Hydrogen on Carbon
DOI: 10.1016/j.micromeso.2008.09.044
Adsorbate Hydrogen: InChIKey UFHFLCQGNIYNRP-UHFFFAOYSA-N
Temperature: 77 K
Tabular data in the source: 0
pressure (bar)	uptake (wt%)
0.0149893	0.192
0.0299786	0.252
0.0509636	0.336
0.0689507	0.396
0.0929336	0.468
0.119914	0.504
0.140899	0.564
0.176874	0.6
0.218844	0.684
0.242827	0.708
0.299786	0.756
0.365739	0.828
0.425696	0.864
0.485653	0.912
0.605567	0.984
0.719486	1.044
0.785439	1.08
0.842398	1.092
0.902355	1.116
0.96531	1.14
1.00128	1.152
1.01927	1.164
1.06424	1.176
1.09122	1.188
1.13319	1.2
1.16916	1.2
1.19015	1.212
