Adsorption isotherm of Hydrogen on Carbon
DOI: 10.1016/j.micromeso.2008.09.044
Adsorbate Hydrogen: InChIKey UFHFLCQGNIYNRP-UHFFFAOYSA-N
Temperature: 87 K
Tabular data in the source: 0
pressure (bar)	uptake (wt%)
0.0151176	0.096
0.0301991	0.156
0.0573099	0.228
0.0934215	0.288
0.126505	0.324
0.168613	0.372
0.219722	0.408
0.243804	0.456
0.303938	0.504
0.36406	0.54
0.424194	0.588
0.484316	0.624
0.604548	0.684
0.724779	0.744
0.787882	0.756
0.844987	0.78
0.905085	0.792
0.965183	0.804
1.00727	0.828
1.02229	0.828
1.06738	0.852
1.08841	0.852
1.13348	0.864
1.1455	0.864
1.17255	0.876
1.19358	0.876
