Adsorption isotherm of Nitrogen on Carbon
DOI: 10.1016/j.micromeso.2008.09.044
Adsorbate Nitrogen: InChIKey IJGRMHOSHXDMSA-UHFFFAOYSA-N
Temperature: 77 K
Tabular data in the source: 0
pressure (bar)	uptake (cm3(STP)/g)
0	122.034
0.00618803	135.55
0.0123761	169.405
0.0288775	189.629
0.0577549	209.766
0.0721936	202.886
0.117572	222.908
0.138199	222.764
0.165014	242.916
0.198017	235.906
0.241333	249.163
0.294963	255.569
0.344467	255.223
0.387783	268.48
0.441412	261.326
0.484729	261.024
0.536296	267.444
0.583737	273.893
0.633241	273.547
0.680683	273.216
0.730187	266.091
0.775566	279.334
0.800318	279.161
0.827133	285.753
0.882825	285.365
0.903452	285.221
0.919953	291.885
0.944705	298.492
0.957081	311.965
