Adsorption isotherm of Hydrogen on Carbon
DOI: 10.1016/j.micromeso.2008.09.044
Adsorbate Hydrogen: InChIKey UFHFLCQGNIYNRP-UHFFFAOYSA-N
Temperature: 77 K
Tabular data in the source: 0
pressure (bar)	uptake (wt%)
0.0693871	0.288
0.120496	0.324
0.171641	0.396
0.213701	0.396
0.240764	0.42
0.303878	0.444
0.370009	0.48
0.424098	0.492
0.490216	0.516
0.544294	0.516
0.604379	0.516
0.664489	0.54
0.724575	0.54
0.766635	0.54
0.784673	0.552
0.826721	0.54
0.832742	0.552
0.853772	0.552
0.889811	0.54
0.904833	0.54
0.952901	0.54
0.970927	0.54
0.982944	0.54
1.00998	0.54
1.03702	0.54
1.04303	0.54
1.06106	0.54
1.07007	0.54
1.09711	0.54
1.10912	0.54
1.12715	0.54
1.1632	0.54
1.21127	0.54
