Adsorption isotherm of Nitrogen on Carbon
DOI: 10.1016/j.micromeso.2008.09.044
Adsorbate Nitrogen: InChIKey IJGRMHOSHXDMSA-UHFFFAOYSA-N
Temperature: 77 K
Tabular data in the source: 0
pressure (bar)	uptake (cm3(STP)/g)
0.00206268	433.884
0.00412535	467.768
0.0082507	528.756
0.0206268	582.907
0.0288775	603.188
0.0350655	623.484
0.0453789	630.192
0.0556922	657.238
0.082507	684.17
0.0969457	704.408
0.117572	717.824
0.136137	744.813
0.142325	731.21
0.148513	751.506
0.162951	744.626
0.181515	758.055
0.193891	771.528
0.202142	764.691
0.241333	764.418
0.299088	784.354
0.387783	797.294
0.486791	810.162
0.583737	836.604
0.680683	849.487
0.728124	849.156
0.775566	862.384
0.798255	862.226
0.829195	868.79
0.851885	882.191
0.874574	875.253
0.897264	895.433
0.924078	908.806
0.952956	928.943
0.965332	949.196
