Adsorption isotherm of Hydrogen on Carbon
DOI: 10.1016/j.micromeso.2008.09.044
Adsorbate Hydrogen: InChIKey UFHFLCQGNIYNRP-UHFFFAOYSA-N
Temperature: 87 K
Tabular data in the source: 0
pressure (bar)	uptake (wt%)
0.0329764	0.18
0.0719486	0.288
0.101927	0.336
0.143897	0.42
0.179872	0.468
0.215846	0.516
0.245824	0.564
0.29379	0.624
0.365739	0.684
0.4197	0.744
0.482655	0.792
0.599572	0.876
0.725482	0.972
0.782441	0.996
0.845396	1.044
0.905353	1.08
0.96531	1.116
0.995289	1.128
1.02827	1.128
1.15118	1.2
