Adsorption isotherm of Nitrogen on Carbon
DOI: 10.1016/j.micromeso.2008.09.044
Adsorbate Nitrogen: InChIKey IJGRMHOSHXDMSA-UHFFFAOYSA-N
Temperature: 77 K
Tabular data in the source: 0
pressure (bar)	uptake (cm3(STP)/g)
0	74.5763
0.00618803	101.652
0.0165014	115.139
0.0309401	135.377
0.0536296	141.999
0.076319	141.84
0.101071	141.668
0.134074	141.437
0.173265	147.943
0.193891	147.799
0.233082	161.085
0.245458	160.999
0.288775	167.476
0.336216	160.366
0.391908	187.096
0.482666	179.683
0.581674	192.551
0.676557	205.448
0.771441	231.905
0.800318	238.483
0.82507	238.31
0.872512	271.877
0.91789	285.12
0.942643	312.066
0.955019	325.539
