Adsorption isotherm of Hydrogen on Carbon
DOI: 10.1016/j.micromeso.2008.09.044
Adsorbate Hydrogen: InChIKey UFHFLCQGNIYNRP-UHFFFAOYSA-N
Temperature: 87 K
Tabular data in the source: 0
pressure (bar)	uptake (wt%)
0.0151056	0.084
0.030127	0.084
0.0481888	0.12
0.0752635	0.156
0.0993219	0.18
0.117372	0.204
0.144434	0.228
0.168481	0.24
0.195531	0.252
0.222582	0.264
0.243624	0.276
0.303734	0.3
0.360839	0.324
0.420925	0.324
0.484039	0.348
0.604235	0.372
0.718398	0.372
0.784505	0.384
0.826565	0.384
0.83857	0.372
0.880642	0.384
0.940716	0.372
0.96475	0.372
1.02484	0.372
1.06692	0.396
1.08492	0.372
1.12398	0.372
1.15402	0.372
1.19006	0.36
1.2081	0.372
