Adsorption isotherm of Hydrogen on Carbon
DOI: 10.1016/j.micromeso.2008.09.044
Adsorbate Hydrogen: InChIKey UFHFLCQGNIYNRP-UHFFFAOYSA-N
Temperature: 77 K
Tabular data in the source: 0
pressure (bar)	uptake (wt%)
0.0179872	0.324
0.0449679	0.612
0.0719486	0.852
0.0959315	0.972
0.12591	1.116
0.149893	1.236
0.176874	1.308
0.197859	1.404
0.224839	1.476
0.254818	1.548
0.305782	1.668
0.359743	1.812
0.422698	1.932
0.485653	2.064
0.54561	2.148
0.605567	2.232
0.668522	2.328
0.725482	2.388
0.785439	2.436
0.845396	2.508
0.905353	2.556
0.96531	2.58
0.989293	2.628
1.02527	2.64
1.05525	2.664
1.07923	2.676
1.10921	2.7
1.13919	2.7
1.17516	2.724
1.19315	2.736
