Adsorption isotherm of Nitrogen on Carbon
DOI: 10.1016/j.micromeso.2008.09.044
Adsorbate Nitrogen: InChIKey IJGRMHOSHXDMSA-UHFFFAOYSA-N
Temperature: 77 K
Tabular data in the source: 0
pressure (bar)	uptake (cm3(STP)/g)
0	196.61
0.00618803	244.025
0.0144387	250.747
0.0268148	270.999
0.0350655	291.281
0.0536296	297.931
0.0783817	318.097
0.0907577	324.79
0.11551	331.397
0.134074	344.827
0.158826	351.434
0.171202	351.348
0.204205	364.677
0.243396	364.403
0.297025	370.809
0.387783	383.735
0.482666	396.632
0.581674	402.721
0.674495	415.632
0.746688	421.908
0.785879	428.414
0.796193	428.342
0.827133	448.465
0.845697	434.776
0.872512	461.708
0.897264	461.535
0.919953	474.936
0.94058	488.352
0.952956	495.045
0.965332	528.857
