Adsorption isotherm of Hydrogen on MOF-235
DOI: 10.1016/j.jiec.2012.01.014
Adsorbate Hydrogen: InChIKey UFHFLCQGNIYNRP-UHFFFAOYSA-N
Temperature: 298 K
Tabular data in the source: 0
pressure (bar)	uptake (mmol/g)
0.00267448	0.036583
2.35621	0.229655
5.20899	0.25156
6.96434	0.262226
8.86857	0.309348
10.9181	0.344148
12.677	0.403591
14.501	0.353222
16.547	0.339245
19.1118	0.422376
21.5295	0.493441
23.7244	0.51592
25.6982	0.5142
