Adsorption isotherm of Methane on MOF-235
DOI: 10.1016/j.jiec.2012.01.014
Adsorbate Methane: InChIKey VNWKTOKETHGBQD-UHFFFAOYSA-N
Temperature: 298 K
Tabular data in the source: 0
pressure (bar)	uptake (mmol/g)
0.00624045	0.0853604
0.350357	0.792378
1.26325	2.27939
2.38118	2.5711
3.70593	2.69189
4.51184	2.71558
5.16709	2.67843
7.13283	2.56696
8.95683	2.51659
11.2203	2.47803
13.8556	2.52452
16.8599	2.61946
19.2001	2.62962
21.1034	2.66454
23.588	2.65018
25.6384	2.69718
