Adsorption isotherm of Carbon Dioxide on MOF-235
DOI: 10.1016/j.jiec.2012.01.014
Adsorbate Carbon Dioxide: InChIKey CURLTUGMZLYLDI-UHFFFAOYSA-N
Temperature: 298 K
Tabular data in the source: 0
pressure (bar)	uptake (mmol/g)
0.00267448	0.036583
1.39697	0.108539
3.66671	0.155343
6.0042	0.128916
8.78031	0.102108
10.6123	0.161488
12.6628	0.208482
14.4903	0.20689
16.6834	0.20498
19.1011	0.276044
21.3709	0.322848
23.6379	0.333068
25.6848	0.331285
