Adsorption isotherm of Ethanol on {[Cu4(OH)2(tci)2-(bpy)2]Â·11H2O}
DOI: 10.1039/c5dt00762c
Article source: Figure 3- EtOH
Adsorbate Ethanol: InChIKey LFQSCWFLJHTTHZ-UHFFFAOYSA-N
Kind: experiment
Temperature: 298 K
Tabular data in the source: 0
pressure (bar)	uptake (mg/g)
0	0.385
0.004961	6.085
0.009893	10.025
0.014978	13.158
0.019665	15.981
0.024592	18.815
0.029489	21.63
0.034393	24.415
0.039302	27.268
0.044235	30.294
0.049172	33.513
0.054144	37.116
0.059093	40.296
0.064139	51.057
1.7e-05	21.116
0.004961	36.292
0.009927	39.386
0.01483	41.065
0.019762	42.446
0.024671	43.683
0.02966	44.756
0.034467	45.753
0.039491	46.557
0.044297	47.399
0.049308	48.328
0.054315	49.613
0.059127	51.562
0.064128	55.146
0.069042	72.765
