Adsorption isotherm of Methanol on {[Cu4(OH)2(tci)2-(bpy)2]Â·11H2O}
DOI: 10.1039/c5dt00762c
Article source: Figure 3- MeOH
Adsorbate Methanol: InChIKey OKKJLVBELUTLKV-UHFFFAOYSA-N
Kind: experiment
Temperature: 298 K
Tabular data in the source: 0
pressure (bar)	uptake (mg/g)
0.004767	16.866
0.014743	28.069
0.024953	34.674
0.035213	38.989
0.045128	41.399
0.054968	44.54
0.065105	46.517
0.075217	48.158
0.085119	51.107
0.095256	52.507
0.105318	54.369
0.115394	56.519
0.125518	60.613
0.135618	62.744
0.145852	66.665
1.2e-05	18.249
0.005542	35.337
0.010494	41.169
0.020076	47.552
0.030434	51.819
0.040522	54.499
0.050067	56.639
0.059858	58.309
0.070648	59.94
0.080082	61.619
0.090243	62.98
0.100294	64.255
0.110208	65.453
0.120418	66.334
0.130925	67.253
0.140691	68.057
0.15105	70.044
