Adsorption isotherm of Nitrogen on {[Cu4(OH)2(tci)2-(bpy)2]Â·11H2O}
DOI: 10.1039/c5dt00762c
Article source: Figure S7- N2
Adsorbate Nitrogen: InChIKey IJGRMHOSHXDMSA-UHFFFAOYSA-N
Kind: experiment
Temperature: 77 K
Tabular data in the source: 0
pressure (bar)	uptake (cm3(STP)/g)
0.025463	0.582
0.0352	0.652
0.057968	1.151
0.080827	1.893
0.104902	2.781
0.127751	3.772
0.150984	4.861
0.171077	5.728
0.191018	6.657
0.212033	7.655
0.232115	8.737
0.252441	9.909
0.27223	10.852
0.292394	11.913
0.312405	13.119
0.332802	14.201
0.352895	15.345
0.373758	16.607
0.393232	17.627
0.413862	18.847
0.434715	19.97
0.454959	21.073
0.475518	22.259
0.495378	23.521
0.515319	24.471
0.535715	25.719
0.555879	26.877
0.575972	28.09
0.596217	29.325
0.616694	30.372
0.63701	31.322
0.657488	32.348
0.677651	33.444
0.69744	34.463
0.71807	35.572
0.738619	36.654
0.758478	37.68
0.778338	38.603
0.799434	39.539
0.819294	40.385
0.839761	41.272
0.859783	43.013
0.879795	43.623
0.899888	44.975
0.921125	46.535
0.922199	46.868
0.942221	47.853
0.962841	49.988
0.983096	52.304
1.00228	70.098
0.085812	3.419
0.101295	3.966
0.136799	5.672
0.173002	7.295
0.210037	9.278
0.247	11.226
0.283963	13.307
0.320613	15.394
0.35788	17.613
0.394002	19.818
0.431422	21.981
0.468466	23.743
0.505885	24.873
0.542464	26.551
0.579498	28.728
0.616005	30.829
0.653192	32.972
0.690003	34.983
0.7265	36.945
0.763393	38.651
0.800346	40.218
0.836853	41.654
0.873888	42.541
0.89245	44.254
0.911155	46.355
0.929647	48.511
0.948503	51.743
0.968525	57.935
1.00266	70.084
