Adsorption isotherm of Benzene on {[Cu4(OH)2(tci)2-(bpy)2]Â·11H2O}
DOI: 10.1039/c5dt00762c
Article source: Figure 3- C6H6
Adsorbate Benzene: InChIKey UHOVQNZJYSORNB-UHFFFAOYSA-N
Kind: experiment
Temperature: 298 K
Tabular data in the source: 0
pressure (bar)	uptake (mg/g)
9e-06	1.538
0.005331	7.803
0.010194	8.447
0.014864	8.745
0.019847	9.014
0.024728	9.225
0.029648	9.619
0.034675	10.215
0.039723	10.84
0.044633	11.388
0.049929	11.935
0.05458	12.406
0.059719	12.829
0.064297	13.262
0.069334	13.723
0.074253	14.223
0.079641	14.53
0.084191	14.934
0.089368	15.405
0.094138	15.981
0.099296	16.769
0.103718	18.288
0.108902	21.661
9e-06	0.288
0.005149	2.412
0.010085	4.526
0.014746	5.42
0.019784	5.997
0.024813	6.439
0.029748	6.66
0.03476	7.207
0.040065	7.582
0.045112	7.919
0.049403	9.562
0.054709	10.753
0.05937	11.292
0.064251	11.839
0.069225	12.368
0.074106	12.839
0.079117	13.194
0.083879	13.684
0.089055	14.088
0.094001	14.77
0.098975	15.76
0.103791	17.375
