Adsorption isotherm of Water on {[Cu4(OH)2(tci)2-(bpy)2]Â·11H2O}
DOI: 10.1039/c5dt00762c
Article source: Figure 3- H2O
Adsorbate Water: InChIKey XLYOFNOQVPJJNP-UHFFFAOYSA-N
Kind: experiment
Temperature: 298 K
Tabular data in the source: 0
pressure (bar)	uptake (mg/g)
0.004885	23.361
0.006876	31.043
0.008888	37.215
0.010877	42.55
0.012847	47.279
0.014788	51.748
0.016753	56.448
0.018752	60.388
0.020715	64.877
0.022695	69.663
0.024651	75.421
0.02661	83.209
5.7e-05	2.184
0.004928	37.272
0.006908	47.638
0.00889	54.964
0.010845	61.867
0.012854	66.779
0.014788	71.7
0.016818	75.304
0.018772	78.503
0.02074	81.558
0.022706	84.209
0.024656	86.465
0.025673	87.449
0.027625	88.984
