Adsorption isotherm of Nitrogen on HP2MG
DOI: 10.1016/j.seppur.2014.01.048
Adsorbate Nitrogen: InChIKey IJGRMHOSHXDMSA-UHFFFAOYSA-N
Temperature: 77 K
Tabular data in the source: 0
pressure (bar)	uptake (cm3(STP)/g)
0.00739736	100.31
0.0271237	118.738
0.0665762	137.113
0.0739736	139.733
0.101097	147.58
0.113426	150.187
0.138084	158.041
0.157811	163.267
0.180002	168.488
0.231784	170.987
0.335347	194.468
0.433979	212.682
0.53261	230.896
0.631241	254.39
0.717544	280.558
0.774257	312.087
0.818642	330.448
0.84823	359.411
0.875354	393.661
0.897547	422.643
0.914807	456.92
0.927136	493.85
0.936999	525.506
0.939465	551.902
0.946862	583.565
0.951793	617.875
0.959191	646.898
0.961657	691.776
