Adsorption isotherm of Nitrogen on ST3AN
DOI: 10.1016/j.seppur.2014.01.048
Adsorbate Nitrogen: InChIKey IJGRMHOSHXDMSA-UHFFFAOYSA-N
Temperature: 77 K
Tabular data in the source: 0
pressure (bar)	uptake (cm3(STP)/g)
0.0620618	2.4521
0.0965478	3.05706
0.172428	3.23133
0.33912	5.22586
0.533421	5.55633
0.819696	6.26077
0.842689	6.45753
0.873724	7.2705
0.939193	14.0585
0.943752	18.1874
0.949445	23.9681
0.955123	31.4011
0.956191	39.8688
0.958405	48.7491
0.961651	70.0214
