Adsorption isotherm of Nitrogen on HP2MG
DOI: 10.1016/j.seppur.2014.01.048
Adsorbate Nitrogen: InChIKey IJGRMHOSHXDMSA-UHFFFAOYSA-N
Temperature: 77 K
Tabular data in the source: 0
pressure (bar)	uptake (cm3(STP)/g)
0.239181	181.528
0.34521	205.002
0.441376	223.223
0.542473	246.711
0.636173	270.218
0.72001	301.674
0.779188	341.117
0.816176	370.059
0.850697	404.289
0.882751	451.726
0.900012	496.564
0.917272	546.682
0.932068	599.447
0.936999	631.117
0.94193	662.787
0.944396	681.262
0.949328	699.73
0.964123	707.611
