Adsorption isotherm of Nitrogen on ST2AN
DOI: 10.1016/j.seppur.2014.01.048
Adsorbate Nitrogen: InChIKey IJGRMHOSHXDMSA-UHFFFAOYSA-N
Temperature: 77 K
Tabular data in the source: 0
pressure (bar)	uptake (cm3(STP)/g)
0.174736	2.40419
0.339137	3.36699
0.436859	3.94506
0.533436	3.904
0.632305	4.68812
0.718527	5.47762
0.77831	5.86528
0.815099	6.05618
0.877169	7.68211
0.903595	9.52974
0.925303	23.7718
0.945943	29.5462
0.950067	79.1141
0.958323	57.4239
0.962771	73.119
