Adsorption isotherm of Nitrogen on ST1AN
DOI: 10.1016/j.seppur.2014.01.048
Adsorbate Nitrogen: InChIKey IJGRMHOSHXDMSA-UHFFFAOYSA-N
Temperature: 77 K
Tabular data in the source: 0
pressure (bar)	uptake (cm3(STP)/g)
0.065505	3.07025
0.101141	3.67472
0.139082	3.65859
0.175873	3.64295
0.343727	4.39774
0.535712	6.38151
0.679421	7.14657
0.82082	8.94532
0.878287	10.9863
0.919632	15.7191
0.937883	30.7888
0.949236	45.8615
0.957048	70.4364
0.962636	87.1638
