Adsorption isotherm of Nitrogen on STEPA
DOI: 10.1016/j.seppur.2014.01.048
Adsorbate Nitrogen: InChIKey IJGRMHOSHXDMSA-UHFFFAOYSA-N
Temperature: 77 K
Tabular data in the source: 0
pressure (bar)	uptake (cm3(STP)/g)
0.0631839	5.34319
0.0965222	5.74209
0.178148	6.32701
0.342541	8.11597
0.436809	9.10859
0.532223	10.5138
0.631087	11.9176
0.716151	13.5337
0.777075	14.747
0.821896	16.5869
0.851779	17.6069
0.879341	20.8998
0.897696	25.2293
0.909136	31.2141
0.930887	40.9123
0.935381	51.857
0.94446	64.2456
0.947807	74.9843
0.953245	107.409
0.953424	88.8201
0.957701	122.278
