Adsorption isotherm of Carbon Dioxide on Zeolite 13X
DOI: 10.1021/acs.iecr.0c05067
Article source: Figure 3A
Adsorbate Carbon Dioxide: InChIKey CURLTUGMZLYLDI-UHFFFAOYSA-N
Kind: experiment
Temperature: 343 K
Tabular data in the source: 0
pressure (bar)	uptake (mmol/g)
0.001027	0.018828
0.014371	0.367155
0.02053	0.498954
0.025663	0.630753
0.036955	0.800209
0.053379	0.988494
0.09136	1.3227
0.139607	1.60042
0.202224	1.88755
0.293584	2.1841
0.41266	2.46653
0.514286	2.66423
0.590248	2.78661
0.722669	2.97019
0.808896	3.06904
0.908469	3.18671
1.01625	3.29027
