Adsorption isotherm of Carbon Dioxide on Zeolite 13X
DOI: 10.1021/acs.iecr.0c05067
Article source: Figure 3A
Adsorbate Carbon Dioxide: InChIKey CURLTUGMZLYLDI-UHFFFAOYSA-N
Kind: experiment
Temperature: 363 K
Tabular data in the source: 0
pressure (bar)	uptake (mmol/g)
0.008212	0.080021
0.06775	0.724895
0.122156	1.03086
0.150898	1.15324
0.220701	1.3933
0.307956	1.6522
0.403422	1.84519
0.509153	2.03818
0.606672	2.18881
0.704192	2.32531
0.80787	2.45711
0.897177	2.55125
0.994696	2.6501
