Adsorption isotherm of Nitrogen on Zeolite 13X
DOI: 10.1021/acs.iecr.0c05067
Article source: Figure 3B
Adsorbate Nitrogen: InChIKey IJGRMHOSHXDMSA-UHFFFAOYSA-N
Kind: experiment
Temperature: 473 K
Tabular data in the source: 0
pressure (bar)	uptake (mmol/g)
0.001013	0.000639
0.099241	0.008307
0.198481	0.01246
0.359494	0.017891
0.493165	0.022045
0.705823	0.028435
0.901266	0.036102
1.02076	0.0377
