Adsorption isotherm of Carbon Dioxide on Zeolite 13X
DOI: 10.1021/acs.iecr.0c05067
Article source: Figure 3A
Adsorbate Carbon Dioxide: InChIKey CURLTUGMZLYLDI-UHFFFAOYSA-N
Kind: experiment
Temperature: 323 K
Tabular data in the source: 0
pressure (bar)	uptake (mmol/g)
0.005133	0.028243
0.005133	0.282427
0.006159	0.48954
0.018477	1.00261
0.034902	1.32741
0.064671	1.74163
0.095466	2.02406
0.140633	2.32531
0.204277	2.63128
0.288452	2.91841
0.402395	3.21496
0.517365	3.43619
0.624123	3.59623
0.715483	3.71391
0.806843	3.80335
0.901283	3.91161
1.01933	4.00105
