Adsorption isotherm of Water on Zeolite 13X
DOI: 10.1021/acs.iecr.0c05067
Article source: Figure S1A
Adsorbate Water: InChIKey XLYOFNOQVPJJNP-UHFFFAOYSA-N
Kind: experiment
Temperature: 323 K
Tabular data in the source: 0
pressure (bar)	uptake (mmol/g)
7.1e-05	0.017094
0.000495	0.42735
0.001839	1.67521
0.002971	4.20513
0.003395	5.47009
0.007993	11.265
0.010752	11.8291
0.012166	12.2222
0.019452	12.8034
0.021432	12.9402
0.023837	13.094
0.027515	13.2137
0.03565	13.4872
0.052838	14.1197
0.061609	14.2735
0.062246	14.3248
0.066773	14.4786
