Adsorption isotherm of Nitrogen on Zeolite 13X
DOI: 10.1021/acs.iecr.0c05067
Article source: Figure 3B
Adsorbate Nitrogen: InChIKey IJGRMHOSHXDMSA-UHFFFAOYSA-N
Kind: experiment
Temperature: 323 K
Tabular data in the source: 0
pressure (bar)	uptake (mmol/g)
0.001013	0.000319
0.099241	0.031949
0.307848	0.089776
0.496203	0.139936
0.743291	0.214696
0.866835	0.246645
1.0157	0.285304
