Adsorption isotherm of Carbon Dioxide on Zeolite 13X
DOI: 10.1021/acs.iecr.0c05067
Article source: Figure 3A
Adsorbate Carbon Dioxide: InChIKey CURLTUGMZLYLDI-UHFFFAOYSA-N
Kind: experiment
Temperature: 423 K
Tabular data in the source: 0
pressure (bar)	uptake (mmol/g)
0.016424	0.061192
0.053379	0.127092
0.096493	0.202406
0.15911	0.305962
0.207357	0.381276
0.29769	0.503661
0.401369	0.630753
0.495808	0.739017
0.637468	0.88023
0.798631	1.02144
1.01317	1.18619
0.001027	0.023536
