Adsorption isotherm of Carbon Dioxide on Zeolite 13X
DOI: 10.1021/acs.iecr.0c05067
Article source: Figure 3A
Adsorbate Carbon Dioxide: InChIKey CURLTUGMZLYLDI-UHFFFAOYSA-N
Kind: experiment
Temperature: 473 K
Tabular data in the source: 0
pressure (bar)	uptake (mmol/g)
0	0
0.019504	0.014121
0.064671	0.03295
0.111891	0.084728
0.145766	0.103556
0.200171	0.141213
0.305902	0.207113
0.398289	0.258891
0.499914	0.310669
0.599487	0.357741
0.789393	0.451883
1.02036	0.560146
