Adsorption isotherm of Nitrogen on Zeolite 13X
DOI: 10.1021/acs.iecr.0c05067
Article source: Figure 3B
Adsorbate Nitrogen: InChIKey IJGRMHOSHXDMSA-UHFFFAOYSA-N
Kind: experiment
Temperature: 423 K
Tabular data in the source: 0
pressure (bar)	uptake (mmol/g)
0.001013	0
0.100253	0.005431
0.309873	0.01853
0.489114	0.023323
0.728101	0.032268
0.923544	0.041853
1.01873	0.045367
