Adsorption isotherm of Nitrogen on Zeolite 13X
DOI: 10.1021/acs.iecr.0c05067
Article source: Figure 3B
Adsorbate Nitrogen: InChIKey IJGRMHOSHXDMSA-UHFFFAOYSA-N
Kind: experiment
Temperature: 343 K
Tabular data in the source: 0
pressure (bar)	uptake (mmol/g)
0.001013	0
0.099241	0.023642
0.195443	0.046326
0.30481	0.070927
0.411139	0.096805
0.52557	0.118211
0.600506	0.134505
0.699747	0.15655
0.781772	0.177316
0.882025	0.19361
0.999494	0.217572
