Adsorption isotherm of Nitrogen on Zeolite 13X
DOI: 10.1021/acs.iecr.0c05067
Article source: Figure 3B
Adsorbate Nitrogen: InChIKey IJGRMHOSHXDMSA-UHFFFAOYSA-N
Kind: experiment
Temperature: 363 K
Tabular data in the source: 0
pressure (bar)	uptake (mmol/g)
0	0.000319
0.093165	0.020128
0.187342	0.035144
0.28962	0.053674
0.378734	0.070288
0.483038	0.085623
0.57519	0.099681
0.673418	0.116613
0.785823	0.132907
0.878987	0.143131
1.01266	0.165495
