Adsorption isotherm of Carbon Dioxide on Zeolite 13X
DOI: 10.1021/acs.iecr.0c05067
Article source: Figure 3A
Adsorbate Carbon Dioxide: InChIKey CURLTUGMZLYLDI-UHFFFAOYSA-N
Kind: experiment
Temperature: 523 K
Tabular data in the source: 0
pressure (bar)	uptake (mmol/g)
0.001027	0
0.021557	0.018828
0.066724	0.037657
0.106758	0.03295
0.16219	0.047071
0.198118	0.051778
0.304876	0.084728
0.403422	0.117678
0.502994	0.141213
0.59846	0.160042
0.800684	0.202406
1.00496	0.254184
