Adsorption isotherm of Nitrogen, Methane on Mary Lee Coal
DOI: 10.1016/0378-3812(95)02965-6
Article source: Table 4
Adsorbate Nitrogen: InChIKey IJGRMHOSHXDMSA-UHFFFAOYSA-N
Adsorbate Methane: InChIKey VNWKTOKETHGBQD-UHFFFAOYSA-N
Kind: experiment
Temperature: 80 K
Tabular data in the source: 0
pressure (bar)	Nitrogen fraction	Nitrogen uptake (scf/ton)	Methane fraction	Methane uptake (scf/ton)	total uptake (scf/ton)
25.7726	0.3135	24.2485	0.6865	295.231	319.48
55.4407	0.2915	37.3363	0.7085	432.894	470.23
83.8747	0.2797	32.8985	0.7203	503.782	536.68
27.4756	0.9168	131.056	0.0832	62.6135	193.67
57.261	0.9094	189.361	0.0906	101.829	291.19
82.5647	0.9046	215.902	0.0954	122.928	338.83
25.5658	0.8522	102.149	0.1478	97.3609	199.51
58.6192	0.8367	162.817	0.1633	165.113	327.93
83.9437	0.8287	198.099	0.1713	197.861	395.96
