Adsorption isotherm of Methane on Mary Lee Coal
DOI: 10.1016/0378-3812(95)02965-6
Article source: Table 3
Adsorbate Methane: InChIKey VNWKTOKETHGBQD-UHFFFAOYSA-N
Kind: experiment
Temperature: 80 K
Tabular data in the source: 0
pressure (bar)	uptake (scf/ton)
6.4466	194.44
21.1324	364.66
36.0872	454.94
52.4002	520.24
69.4647	566.99
86.2534	601.25
103.663	633.18
