Adsorption isotherm of Nitrogen on Mary Lee Coal
DOI: 10.1016/0378-3812(95)02965-6
Article source: Table 3
Adsorbate Nitrogen: InChIKey IJGRMHOSHXDMSA-UHFFFAOYSA-N
Kind: experiment
Temperature: 80 K
Tabular data in the source: 0
pressure (bar)	uptake (scf/ton)
7.4946	59.3
20.5946	126.66
35.2805	176.51
52.607	221.77
69.5957	255.28
86.5085	284.19
103.497	306.44
