Adsorption isotherm of Nitrogen on BITA-PDA-COF
DOI: 10.1039/c9cc06780a
Article source: Figure 2
Adsorbate Nitrogen: InChIKey IJGRMHOSHXDMSA-UHFFFAOYSA-N
Kind: experiment
Temperature: 77 K
Tabular data in the source: 0
pressure (bar)	uptake (cm3(STP)/g)
0.002372	105.059
0.001348	96.2758
0.001536	88.2325
0.001348	80.3329
0.001348	73.1163
0.002006	64.4604
0.001348	55.9555
0.001348	48.7288
0.000408	41.275
0.001348	5.89224
0.005298	129.883
0.003981	119.164
0.003718	112.464
0.003103	33.0073
0.002665	24.9956
0.002665	17.7488
0.007601	141.382
0.011042	151.683
0.029593	175.029
0.061451	188.466
0.080935	193.297
0.101999	196.82
0.123063	199.336
0.144315	201.061
0.166883	203.218
0.187278	204.234
0.205014	204.846
0.252078	208.998
0.304549	210.724
0.35608	212.259
0.404351	213.494
0.4535	214.916
0.506159	217.453
0.556185	218.574
0.607528	219.868
0.657555	221.177
0.707581	222.284
0.758631	223.358
0.80895	225.907
0.830014	225.847
0.860293	228.424
0.885306	230.739
0.910319	233.154
0.936461	236.605
0.960345	242.892
0.981409	257.31
0.991941	271.502
1.00379	318.822
1.00116	297.53
0.013564	157.422
0.100882	216.488
0.137744	219.674
0.204685	224.087
0.262809	226.864
0.29967	227.771
0.336532	229.078
0.395774	230.431
0.462715	231.799
0.506359	235.979
0.555428	236.68
0.606092	236.872
0.656518	237.404
0.708538	237.068
0.757607	238.478
0.794469	238.351
0.841503	239.973
0.868192	242.308
0.896915	242.789
0.933337	247.25
0.964215	263.697
0.98176	285.946
0.988157	297.279
0.995492	307.551
0.814534	239.244
