Adsorption isotherm of Carbon Dioxide on Zeolite 4A
DOI: 10.1016/j.apsusc.2009.12.090
Adsorbate Carbon Dioxide: InChIKey CURLTUGMZLYLDI-UHFFFAOYSA-N
Temperature: 298 K
Tabular data in the source: 0
pressure (bar)	uptake (cm3(STP)/g)
2.97e-05	2.51011
0.000483	4.56951
0.0016	7.31539
0.00305	9.71803
0.00668	14.3517
0.0114	19.3286
0.0232026	26.3649
0.0442429	34.4309
0.0769322	43.355
0.140086	52.2791
0.217072	58.9722
0.486394	68.7543
1.19514	80.0811
