Adsorption isotherm of Carbon Dioxide on Zeolite 4A
DOI: 10.1016/j.apsusc.2009.12.090
Adsorbate Carbon Dioxide: InChIKey CURLTUGMZLYLDI-UHFFFAOYSA-N
Temperature: 298 K
Tabular data in the source: 0
pressure (bar)	uptake (cm3(STP)/g)
5.15e-06	2.68173
5.4e-05	5.25598
0.00013	7.65862
0.000242	9.71803
0.000319	11.7774
0.00044	13.6652
0.00153	25.6784
0.00216	30.6553
0.00462	40.9524
0.00923	50.5629
0.0206767	60.8599
0.0557127	69.6124
0.127747	76.1339
