Adsorption isotherm of Carbon Dioxide on Zeolite 4A
DOI: 10.1016/j.apsusc.2009.12.090
Adsorbate Carbon Dioxide: InChIKey CURLTUGMZLYLDI-UHFFFAOYSA-N
Temperature: 298 K
Tabular data in the source: 0
pressure (bar)	uptake (cm3(STP)/g)
2.77e-05	2.85334
0.000108	5.25598
0.000201	7.83024
0.00044	12.6355
0.000714	17.6124
0.00136	25.5068
0.00237	33.4012
0.00441	42.8401
0.00881	52.9656
0.0184258	62.0613
0.0385281	68.9259
0.106234	76.992
0.292918	85.916
0.641387	93.124
1.19514	100.16
