Adsorption isotherm of Carbon Dioxide on Zeolite 4A
DOI: 10.1016/j.apsusc.2009.12.090
Adsorbate Carbon Dioxide: InChIKey CURLTUGMZLYLDI-UHFFFAOYSA-N
Temperature: 298 K
Tabular data in the source: 0
pressure (bar)	uptake (cm3(STP)/g)
0.00431	0.793937
0.00822	2.33849
0.014299	4.74113
0.0279013	6.80054
0.0496477	11.6058
0.0787261	20.3583
0.119211	29.9689
0.168454	38.8929
0.255082	46.4441
0.486394	55.7114
0.865492	61.8896
1.1679	66.0085
