Adsorption isotherm of Nitrogen on COF-NUST-12
DOI: 10.1039/d1cc03219d
Article source: Figure S27
Adsorbate Nitrogen: InChIKey IJGRMHOSHXDMSA-UHFFFAOYSA-N
Kind: experiment
Temperature: 77 K
Tabular data in the source: 0
pressure (bar)	uptake (cm3(STP)/g)
0	6.79502
0.00201	16.9875
0.008042	23.2163
0.018094	28.3126
0.039203	36.2401
0.057297	40.2038
0.074385	44.7339
0.090469	46.4326
0.110573	49.8301
0.138719	53.2276
0.153797	54.3601
0.181943	56.6251
0.215115	60.5889
0.265375	63.9864
0.319656	66.8177
0.355844	69.6489
0.406104	71.9139
0.458375	75.3114
0.509641	78.1427
0.559901	80.4077
0.611167	84.3715
0.661427	87.2027
0.713698	89.4677
0.762953	93.9977
0.813214	98.5277
0.862469	103.624
0.912729	113.25
0.958969	127.973
0.989125	159.117
0.993146	187.995
0.997167	210.646
0.999177	229.332
1.00018	246.319
1.00119	261.042
1.0032	274.066
0.978068	262.741
0.968016	242.922
0.966005	224.236
0.927807	168.743
0.919766	143.828
0.911724	130.804
0.859453	114.383
0.809193	106.455
0.757927	102.492
0.706661	99.6602
0.655396	97.3952
0.607146	95.1302
0.554875	93.4315
0.504615	91.7327
0.455359	87.2027
0.403089	85.504
0.353833	84.3715
0.300557	81.5402
0.24125	78.1427
