Adsorption isotherm of Nitrogen on COF-NUST-13
DOI: 10.1039/d1cc03219d
Article source: Figure S27
Adsorbate Nitrogen: InChIKey IJGRMHOSHXDMSA-UHFFFAOYSA-N
Kind: experiment
Temperature: 77 K
Tabular data in the source: 0
pressure (bar)	uptake (cm3(STP)/g)
0.004021	177.237
0.007036	190.827
0.020104	207.814
0.040208	215.176
0.056292	221.971
0.074385	224.236
0.090469	227.633
0.110573	229.898
0.140729	232.163
0.154802	234.428
0.166865	236.693
0.193	237.826
0.217125	241.223
0.268391	244.621
0.318651	246.886
0.356849	249.717
0.408115	251.982
0.458375	254.813
0.509641	257.644
0.560906	260.476
0.611167	262.741
0.662432	266.138
0.714703	268.969
0.763958	272.367
0.815224	276.897
0.865484	281.427
0.912729	288.788
0.961984	300.68
1.00219	340.883
1.00521	353.907
0.979073	345.98
0.963995	330.125
0.920771	303.511
0.909714	296.716
0.858448	285.957
0.808187	280.861
0.755917	276.897
0.706661	273.499
0.656401	270.668
0.60413	268.403
0.55588	265.006
0.50562	262.741
0.454354	260.476
0.404094	258.211
0.352828	255.946
0.304578	252.548
0.24326	249.151
