Adsorption isotherm of Nitrogen on COF-NUST-11
DOI: 10.1039/d1cc03219d
Article source: Figure 3
Adsorbate Nitrogen: InChIKey IJGRMHOSHXDMSA-UHFFFAOYSA-N
Kind: experiment
Temperature: 77 K
Tabular data in the source: 0
pressure (bar)	uptake (cm3(STP)/g)
0.00201	90.6002
0.004021	103.058
0.004021	116.648
0.008042	135.9
0.014073	155.153
0.024125	173.273
0.034177	199.32
0.040208	218.573
0.052271	233.296
0.074385	240.091
0.090469	245.753
0.110573	251.416
0.136708	257.078
0.148771	261.608
0.166865	263.873
0.193	267.271
0.213104	269.536
0.269396	276.331
0.319656	281.993
0.357854	285.391
0.408115	291.053
0.458375	296.716
0.508635	301.246
0.561911	305.21
0.611167	310.872
0.663438	314.836
0.711688	321.631
0.761948	329.558
0.812208	335.221
0.860458	348.811
0.910719	360.136
0.958969	385.051
1.00521	428.086
1.00521	438.279
0.981083	429.219
0.960979	415.629
0.910719	394.111
0.860458	374.292
0.808187	356.172
0.757927	343.148
0.707667	334.655
0.656401	327.86
0.605135	322.763
0.55588	316.535
0.504615	312.005
0.454354	303.511
0.403089	298.981
0.352828	294.451
0.300557	288.788
0.240245	281.427
