Adsorption isotherm of Nitrogen on PCN-18
DOI: 10.1021/Ic900372t
Adsorbate Nitrogen: InChIKey IJGRMHOSHXDMSA-UHFFFAOYSA-N
Temperature: 77 K
Tabular data in the source: 0
pressure (bar)	uptake (cm3(STP)/g)
0.00449778	28.5714
0.04048	50.2857
0.0584711	57.1429
0.0764622	62.8571
0.103449	72
0.134933	77.7143
0.157422	81.1429
0.179911	83.4286
0.2024	85.7143
0.229387	88
0.269867	91.4286
0.310347	92.5714
0.346329	94.8571
0.386809	96
0.422791	99.4286
0.467769	99.4286
0.508249	100.571
0.544231	102.857
0.580213	104
0.625191	106.286
0.661173	109.714
0.692658	109.714
0.742133	112
0.800604	116.571
0.836587	118.857
0.863573	123.429
0.895058	128
0.917547	133.714
0.93104	140.571
0.944533	146.286
0.949031	156.571
0.953529	165.714
