Adsorption isotherm of Hydrogen on PCN-18
DOI: 10.1021/Ic900372t
Adsorbate Hydrogen: InChIKey UFHFLCQGNIYNRP-UHFFFAOYSA-N
Temperature: 77 K
Tabular data in the source: 0
pressure (bar)	uptake (cm3(STP)/g)
0.0663422	27.9584
0.0867552	30.3344
0.112271	33.6593
0.127581	35.5596
0.147994	37.9355
0.168407	39.8381
0.209233	42.6964
0.250059	45.5548
0.301092	46.9975
0.347021	48.438
0.387847	50.823
0.428673	52.2613
0.469499	53.2261
0.510325	54.6644
0.556254	55.1581
0.59708	56.5964
0.637906	57.0879
0.688939	58.0572
0.729765	59.0221
0.780797	59.5181
0.852243	60.97
0.903275	61.466
0.959411	61.4909
1.02065	62.4648
1.05127	62.4784
