Adsorption isotherm of Nitrogen on PCN-18
DOI: 10.1021/Ic900372t
Adsorbate Nitrogen: InChIKey IJGRMHOSHXDMSA-UHFFFAOYSA-N
Temperature: 77 K
Tabular data in the source: 0
pressure (bar)	uptake (cm3(STP)/g)
0.00899556	0.00899556
0.0134933	38.8571
0.0269867	44.5714
0.0449778	49.1429
0.0584711	54.8571
0.0764622	60.5714
0.0854578	68.5714
0.112444	75.4286
0.166418	88
0.188907	90.2857
0.224889	93.7143
0.265369	96
0.301351	98.2857
0.341831	100.571
0.386809	102.857
0.431787	105.143
0.467769	107.429
0.503751	108.571
0.539733	108.571
0.580213	110.857
0.620693	113.143
0.64768	113.143
0.683662	114.286
0.76912	118.857
0.827591	125.714
0.872569	132.571
0.913049	140.571
0.944533	155.429
0.953529	174.857
