Adsorption isotherm of Hydrogen on PCN-18
DOI: 10.1021/Ic900372t
Adsorbate Hydrogen: InChIKey UFHFLCQGNIYNRP-UHFFFAOYSA-N
Temperature: 77 K
Tabular data in the source: 0
pressure (bar)	uptake (cm3(STP)/g)
0	0.473373
0.0102065	8.99861
0.020413	14.6836
0.0306195	18.0018
0.0459292	24.1624
0.0561357	26.0604
0.0663422	27.9584
0.081652	31.2788
0.102065	35.0749
0.127581	37.9264
0.153097	40.778
0.17351	43.6273
0.20413	45.5344
0.239853	48.3905
0.280679	50.7755
0.321505	52.6871
0.362331	54.5987
0.403157	56.9837
0.443983	58.8953
0.484809	60.3335
0.525635	61.2984
0.602183	64.1726
0.643009	65.1375
0.678732	65.6267
0.714455	66.5893
0.745074	67.0762
0.780797	67.5655
0.877759	68.5553
0.923688	69.049
0.959411	68.5915
0.979824	69.0739
1.01044	69.0875
