Adsorption isotherm of Carbon Dioxide on PCN-18
DOI: 10.1021/Ic900372t
Adsorbate Carbon Dioxide: InChIKey CURLTUGMZLYLDI-UHFFFAOYSA-N
Temperature: 195 K
Tabular data in the source: 0
pressure (bar)	uptake (cm3(STP)/g)
0.002351	15.7616
0.00736468	29.488
0.0176058	44.7374
0.0385154	50.8291
0.0462808	57.4356
0.067235	60.9849
0.0881981	64.0257
0.103863	69.6115
0.135307	74.1728
0.153661	76.1979
0.185106	80.7592
0.21655	85.3205
0.250657	87.8466
0.279466	92.9176
0.313573	95.4437
0.347636	100.512
0.38698	104.053
0.428942	108.101
0.457804	110.121
0.491893	113.664
0.531237	117.204
0.560081	120.241
0.604697	122.763
0.633541	125.8
0.675538	127.814
0.720154	130.335
0.772651	132.852
0.814684	132.832
0.859308	134.845
0.896069	135.844
0.945957	137.346
1.00639	136.808
1.0405	138.826
