Adsorption isotherm of Nitrogen on IRMOF-1
DOI: 10.1016/j.ijhydene.2011.12.163
Adsorbate Nitrogen: InChIKey IJGRMHOSHXDMSA-UHFFFAOYSA-N
Temperature: 77 K
Tabular data in the source: 0
pressure (bar)	uptake (cm3(STP)/g)
0.00212586	273.563
0.00425173	410.348
0.00637759	614.002
0.00850346	699.115
0.0148811	741.688
0.0233845	772.11
0.225342	903.441
0.227467	873.052
0.244474	870.066
0.261481	876.198
0.28274	876.265
0.301873	885.443
0.31888	885.496
0.340138	891.642
0.361397	894.748
0.38053	897.847
0.401788	900.953
0.420921	901.013
0.44218	904.119
0.463438	904.185
0.480445	907.278
0.499578	910.378
0.520837	910.444
0.542095	913.55
0.563354	913.617
0.584613	913.683
0.603745	916.783
0.622878	919.882
0.644137	919.948
0.665396	923.054
0.684528	920.075
0.705787	923.181
0.727046	923.247
0.748304	923.314
0.769563	926.42
0.788696	923.44
0.809954	926.546
0.831213	926.613
0.852472	929.719
0.87373	926.746
0.894989	929.852
0.916248	929.918
0.937506	929.985
0.956639	933.084
