Adsorption isotherm of Hydrogen on IRMOF-1
DOI: 10.1016/j.ijhydene.2011.12.163
Adsorbate Hydrogen: InChIKey UFHFLCQGNIYNRP-UHFFFAOYSA-N
Temperature: 77 K
Tabular data in the source: 0
pressure (bar)	uptake (wt%)
0.015873	0.327626
0.0204082	0.389452
0.0294785	0.457486
0.0340136	0.500772
0.0430839	0.568806
0.0521542	0.655378
0.0680272	0.741993
0.0770975	0.791488
0.0884354	0.847176
0.106576	0.927625
0.120181	0.977147
0.136054	1.03286
0.1678	1.13812
0.190476	1.20623
0.210884	1.24962
0.240363	1.3116
0.267574	1.37356
0.294785	1.41699
0.321995	1.46042
0.344671	1.49146
0.378685	1.5411
0.414966	1.58459
0.435374	1.60943
0.482993	1.66534
0.53288	1.70891
0.582766	1.7463
0.62585	1.77746
0.671202	1.81482
0.712018	1.83979
0.752834	1.85858
0.795918	1.88975
0.825397	1.90229
0.848073	1.91479
0.875283	1.92732
0.913832	1.9461
0.943311	1.95864
1.00227	1.98372
1.03401	1.99628
1.06803	2.00885
