Adsorption isotherm of Hydrogen on IRMOF-1
DOI: 10.1016/j.ijhydene.2011.12.163
Adsorbate Hydrogen: InChIKey UFHFLCQGNIYNRP-UHFFFAOYSA-N
Temperature: 77 K
Tabular data in the source: 0
pressure (bar)	uptake (wt%)
0.015873	0.0371767
0.031746	0.0743535
0.047619	0.10535
0.0521542	0.130098
0.0702948	0.161109
0.0793651	0.179704
0.104308	0.229296
0.133787	0.278917
0.1678	0.347104
0.213152	0.415362
0.267574	0.502215
0.301587	0.545684
0.340136	0.59536
0.362812	0.62022
0.39229	0.65748
0.426304	0.713309
0.469388	0.750654
0.498866	0.787914
0.53288	0.831383
0.573696	0.868714
0.62585	0.918474
0.673469	0.968207
0.734694	1.0242
0.795918	1.0802
0.848073	1.12378
0.904762	1.17357
0.956916	1.21715
1.00227	1.25451
1.02948	1.27322
1.06803	1.31053
