Adsorption isotherm of Nitrogen on IRMOF-1
DOI: 10.1016/j.ijhydene.2011.12.163
Adsorbate Nitrogen: InChIKey IJGRMHOSHXDMSA-UHFFFAOYSA-N
Temperature: 77 K
Tabular data in the source: 0
pressure (bar)	uptake (cm3(STP)/g)
0.0148811	261.445
0.0340138	270.623
0.0531466	276.762
0.0722794	279.861
0.0892863	282.954
0.106293	283.007
0.1233	289.14
0.140307	292.232
0.157314	295.325
0.174321	292.339
0.189202	289.346
0.210461	289.412
0.238097	292.538
0.265733	295.664
0.295495	292.718
0.335887	292.844
0.374152	292.964
0.386907	293.004
0.408166	293.07
0.437928	293.163
0.459187	293.23
0.476194	293.283
0.488949	293.323
0.510207	293.39
0.537844	293.476
0.548473	293.509
0.569732	293.576
0.59099	293.642
0.60162	293.676
0.614375	293.715
0.635633	293.782
0.656892	293.848
0.678151	293.915
0.690906	293.955
0.712165	294.021
0.733423	297.127
0.754682	297.194
0.771689	303.326
0.780192	294.234
0.792947	297.314
0.814206	297.38
0.835465	297.447
0.856723	297.513
0.867353	303.625
0.875856	297.573
0.88436	303.679
0.901366	297.653
0.922625	297.719
0.943884	297.786
0.965142	297.852
