Adsorption isotherm of Hydrogen on IRMOF-1
DOI: 10.1016/j.ijhydene.2011.12.163
Adsorbate Hydrogen: InChIKey UFHFLCQGNIYNRP-UHFFFAOYSA-N
Temperature: 77 K
Tabular data in the source: 0
pressure (bar)	uptake (wt%)
0.0181406	0.309101
0.0226757	0.358567
0.0249433	0.420379
0.0362812	0.463707
0.0408163	0.531713
0.0544218	0.593595
0.0657596	0.661642
0.0793651	0.717344
0.0907029	0.760673
0.106576	0.810209
0.133787	0.903074
0.1678	1.00216
0.190476	1.05174
0.213152	1.1075
0.247166	1.15097
0.267574	1.20671
0.340136	1.30603
0.369615	1.33712
0.399093	1.37438
0.428571	1.40546
0.46712	1.43659
0.498866	1.46769
0.53288	1.4988
0.564626	1.51753
0.60771	1.55488
0.646259	1.57366
0.671202	1.59235
0.716553	1.61117
0.76644	1.64238
0.807256	1.66735
0.848073	1.68614
0.879819	1.6987
0.911565	1.71125
0.961451	1.7301
1	1.7427
1.04082	1.75531
1.06576	1.76782
