Adsorption isotherm of Nitrogen on IRMOF-1
DOI: 10.1016/j.ijhydene.2011.12.163
Adsorbate Nitrogen: InChIKey IJGRMHOSHXDMSA-UHFFFAOYSA-N
Temperature: 77 K
Tabular data in the source: 0
pressure (bar)	uptake (cm3(STP)/g)
0.0148811	218.892
0.0361397	225.037
0.0531466	231.169
0.0722794	234.269
0.0914122	237.368
0.112671	234.395
0.129678	237.488
0.146685	240.581
0.163692	240.634
0.180698	237.647
0.199831	234.668
0.235971	243.899
0.265733	243.992
0.297621	244.092
0.335887	244.212
0.376278	250.417
0.423047	250.564
0.435802	247.564
0.457061	250.67
0.476194	253.769
0.495326	250.79
0.516585	250.856
0.535718	253.956
0.554851	250.976
0.576109	254.082
0.614375	254.202
0.635633	254.268
0.656892	254.335
0.676025	257.434
0.697284	254.461
0.718542	254.528
0.739801	254.594
0.754682	251.601
0.769563	251.648
0.790822	254.754
0.81208	257.86
0.833339	257.926
0.852472	257.986
0.867353	258.033
0.888611	261.139
0.90987	264.245
0.929003	267.344
0.950261	264.371
0.958765	270.477
