Adsorption isotherm of Hydrogen on IRMOF-1
DOI: 10.1016/j.ijhydene.2011.12.163
Adsorbate Hydrogen: InChIKey UFHFLCQGNIYNRP-UHFFFAOYSA-N
Temperature: 77 K
Tabular data in the source: 0
pressure (bar)	uptake (wt%)
0.0204082	0.136081
0.0249433	0.173188
0.0362812	0.222696
0.0453515	0.266011
0.0566893	0.309339
0.0702948	0.358861
0.0816327	0.40219
0.104308	0.457948
0.133787	0.519928
0.1678	0.581936
0.213152	0.644014
0.235828	0.662693
0.301587	0.737257
0.321995	0.762102
0.376417	0.805697
0.399093	0.818197
0.469388	0.874249
0.492063	0.892928
0.55102	0.936551
0.573696	0.949051
0.585034	0.955301
0.60771	0.9678
0.693878	1.02395
0.716553	1.03027
0.736961	1.04276
0.804989	1.08026
0.827664	1.09276
0.863946	1.10534
0.884354	1.11782
0.918367	1.13657
0.941043	1.14907
0.961451	1.15538
0.984127	1.16788
1	1.17416
1.02268	1.18666
1.04308	1.19296
