Adsorption isotherm of Nitrogen on IRMOF-1
DOI: 10.1016/j.ijhydene.2011.12.163
Adsorbate Nitrogen: InChIKey IJGRMHOSHXDMSA-UHFFFAOYSA-N
Temperature: 77 K
Tabular data in the source: 0
pressure (bar)	uptake (cm3(STP)/g)
0.00637759	0.00637759
0.0170069	455.98
0.0297621	477.297
0.0488949	489.515
0.0701535	495.66
0.0914122	501.806
0.110545	504.905
0.131804	511.051
0.153062	511.117
0.172195	511.177
0.191328	514.276
0.206209	514.323
0.225342	517.422
0.2466	517.489
0.267859	520.595
0.289118	520.661
0.310376	520.728
0.331635	523.834
0.352893	520.861
0.372026	527
0.393285	524.027
0.414544	524.093
0.433676	524.153
0.454935	524.22
0.476194	527.326
0.497452	524.353
0.518711	524.419
0.53997	524.486
0.561228	527.592
0.580361	524.612
0.60162	521.639
0.622878	524.745
0.644137	521.772
0.665396	521.839
0.686654	521.905
0.705787	521.965
0.727046	522.031
0.748304	522.098
0.769563	522.165
0.790822	522.231
0.81208	522.298
0.833339	522.364
0.854597	522.431
0.875856	522.497
0.897115	525.603
0.918373	528.709
0.937506	534.848
0.958765	540.994
