Adsorption isotherm of Nitrogen on Activated Carbon
DOI: 10.1007/s10450-018-9995-5
Article source: Figure 1
Adsorbate Nitrogen: InChIKey IJGRMHOSHXDMSA-UHFFFAOYSA-N
Kind: experiment
Temperature: 77 K
Tabular data in the source: 0
pressure (bar)	uptake (cm3(STP)/g)
0.003322	0.074135
0.003322	0.098847
0.003322	0.118616
0.005537	0.14827
0.005537	0.186161
0.005537	0.219934
0.007752	0.252059
0.007752	0.285008
0.007752	0.31631
0.012181	0.341021
0.016611	0.355848
0.023255	0.378913
0.038758	0.400329
0.06755	0.413509
0.100771	0.420099
0.140637	0.423394
0.164999	0.423394
0.187147	0.425041
0.215939	0.429984
0.238086	0.431631
0.266878	0.433278
0.289025	0.433278
0.317817	0.438221
0.34218	0.439868
0.368757	0.439868
0.394226	0.440692
0.418589	0.442339
0.446273	0.443163
0.469528	0.443987
0.49389	0.445634
0.51936	0.447282
0.54483	0.449753
0.569192	0.4514
0.594661	0.453048
0.620131	0.452224
0.645601	0.453871
0.67107	0.454695
0.695433	0.455519
0.72201	0.45799
0.746372	0.45799
0.772949	0.458814
0.797311	0.459638
0.822781	0.461285
0.847143	0.462109
0.87372	0.462932
0.896975	0.46458
0.92466	0.467875
0.949022	0.468699
0.975599	0.469522
0.998854	0.471993
1.01325	0.492586
0.091912	0.416804
0.193791	0.429984
0.293455	0.437397
0.397548	0.443163
0.499427	0.449753
0.599091	0.455519
0.699862	0.459638
0.800634	0.46458
0.910264	0.468699
