Adsorption isotherm of Nitrogen on m-ox-AC
DOI: 10.1007/s10450-018-9995-5
Article source: Figure 1
Adsorbate Nitrogen: InChIKey IJGRMHOSHXDMSA-UHFFFAOYSA-N
Kind: experiment
Temperature: 77 K
Tabular data in the source: 0
pressure (bar)	uptake (cm3(STP)/g)
0.001107	0.062603
0.001107	0.095552
0.001107	0.133443
0.00443	0.179572
0.005537	0.23229
0.005537	0.275124
0.00443	0.314662
0.007752	0.354201
0.009966	0.385502
0.016611	0.420099
0.023255	0.429984
0.034329	0.443163
0.045402	0.456343
0.056476	0.46458
0.06755	0.472817
0.078624	0.479407
0.087483	0.484349
0.110738	0.49341
0.133993	0.500824
0.159462	0.509061
0.186039	0.514003
0.211509	0.518946
0.236979	0.525535
0.263556	0.52883
0.286811	0.532125
0.313388	0.538715
0.339965	0.540362
0.365434	0.543657
0.388689	0.547776
0.415266	0.550247
0.441843	0.552718
0.467313	0.555189
0.491675	0.557661
0.517145	0.560956
0.542615	0.562603
0.568084	0.56425
0.593554	0.565898
0.619024	0.568369
0.644493	0.570016
0.669963	0.573311
0.695433	0.574135
0.718688	0.574959
0.745265	0.578254
0.769627	0.579901
0.796204	0.580725
0.821674	0.581549
0.846036	0.583196
0.872613	0.584843
0.896975	0.586491
0.923552	0.588138
0.946807	0.589786
0.972277	0.591433
0.995532	0.594728
1.00993	0.608731
0.101879	0.489292
0.199328	0.518122
0.300099	0.53542
0.401978	0.549423
0.499427	0.566722
0.599091	0.576606
0.699862	0.581549
0.800634	0.587315
0.908049	0.59061
