Adsorption isotherm of Nitrogen on w-ox-AC
DOI: 10.1007/s10450-018-9995-5
Article source: Figure 1
Adsorbate Nitrogen: InChIKey IJGRMHOSHXDMSA-UHFFFAOYSA-N
Kind: experiment
Temperature: 77 K
Tabular data in the source: 0
pressure (bar)	uptake (cm3(STP)/g)
0.001107	0.031301
0.002215	0.098847
0.005537	0.149918
0.005537	0.224053
0.007752	0.268534
0.007752	0.324547
0.009966	0.350906
0.018825	0.377265
0.032114	0.403624
0.058691	0.426689
0.087483	0.441516
0.111845	0.448105
0.133993	0.453048
0.163892	0.458814
0.189361	0.46458
0.215939	0.469522
0.238086	0.47117
0.264663	0.476112
0.293455	0.479407
0.318925	0.480231
0.34218	0.485997
0.368757	0.487644
0.393119	0.490115
0.415266	0.492586
0.442951	0.49341
0.466206	0.495881
0.494998	0.500824
0.51936	0.499176
0.547044	0.5
0.569192	0.501647
0.593554	0.504119
0.620131	0.504942
0.645601	0.507414
0.669963	0.509061
0.695433	0.510708
0.720902	0.512356
0.74748	0.51318
0.771842	0.515651
0.797311	0.516474
0.822781	0.517298
0.848251	0.518122
0.87372	0.518946
0.898083	0.520593
0.922445	0.522241
0.946807	0.523888
0.974492	0.526359
0.997747	0.52883
1.01103	0.5486
0.091912	0.443163
0.191576	0.466227
0.294562	0.479407
0.397548	0.490939
0.497212	0.500824
0.600198	0.509061
0.703184	0.515651
0.799526	0.519769
0.905834	0.526359
