Adsorption isotherm of Nitrogen on s-ox-AC
DOI: 10.1007/s10450-018-9995-5
Article source: Figure 1
Adsorbate Nitrogen: InChIKey IJGRMHOSHXDMSA-UHFFFAOYSA-N
Kind: experiment
Temperature: 77 K
Tabular data in the source: 0
pressure (bar)	uptake (cm3(STP)/g)
0.003322	0.067545
0.003322	0.097199
0.003322	0.126853
0.003322	0.153213
0.003322	0.184514
0.003322	0.2257
0.005537	0.259473
0.007752	0.285008
0.009966	0.321252
0.012181	0.347611
0.02547	0.367381
0.040973	0.383855
0.047617	0.39374
0.06312	0.403624
0.085268	0.420099
0.10963	0.428336
0.138422	0.436573
0.16057	0.441516
0.184932	0.448105
0.213724	0.454695
0.238086	0.459638
0.264663	0.461285
0.289025	0.466227
0.314495	0.471993
0.339965	0.476112
0.366542	0.479407
0.390904	0.481878
0.417481	0.485173
0.441843	0.487644
0.467313	0.490939
0.49389	0.492586
0.517145	0.496705
0.542615	0.499176
0.568084	0.501647
0.592447	0.505766
0.619024	0.50659
0.644493	0.508237
0.672178	0.510708
0.69654	0.51318
0.720902	0.514003
0.746372	0.515651
0.771842	0.516474
0.800634	0.520593
0.822781	0.520593
0.844929	0.522241
0.870398	0.526359
0.90362	0.530478
0.923552	0.530478
0.949022	0.530478
0.972277	0.533773
0.997747	0.537891
1.00993	0.558484
0.098557	0.436573
0.19822	0.449753
0.300099	0.47117
0.399763	0.484349
0.49832	0.502471
0.596876	0.510708
0.699862	0.517298
0.800634	0.522241
0.905834	0.52883
