Adsorption isotherm of Carbon Dioxide, Methane on Wet Fruitland Coal
DOI: 10.1021/ef900642j
Article source: Figure 4
Adsorbate Carbon Dioxide: InChIKey CURLTUGMZLYLDI-UHFFFAOYSA-N
Adsorbate Methane: InChIKey VNWKTOKETHGBQD-UHFFFAOYSA-N
Kind: experiment
Isotherm type: excess
Temperature: 319 K
Tabular data in the source: 0
pressure (bar)	Carbon Dioxide fraction	Carbon Dioxide uptake (mmol/g)	Methane fraction	Methane uptake (mmol/g)	total uptake (mmol/g)
0.353	0.8	0.00774	0.2	0.00576	
6.562	0.8	0.36387	0.2	0.03812	
13.736	0.8	0.54629	0.2	0.0536	
27.7475	0.8	0.73427	0.2	0.06224	
41.2275	0.8	0.83153	0.2	0.05944	
54.997	0.8	0.88839	0.2	0.05649	
69.142	0.8	0.9254	0.2	0.05197	
82.6705	0.8	0.95589	0.2	0.03983	
96.4795	0.8	0.97597	0.2	0.03552	
108.554	0.8	0.98226	0.2	0.03356	
119.132	0.8	0.91065	0.2	0.02852	
