Adsorption isotherm of Carbon Dioxide, Methane on Wet Fruitland Coal
DOI: 10.1021/ef900642j
Article source: Figure 4
Adsorbate Carbon Dioxide: InChIKey CURLTUGMZLYLDI-UHFFFAOYSA-N
Adsorbate Methane: InChIKey VNWKTOKETHGBQD-UHFFFAOYSA-N
Kind: experiment
Isotherm type: excess
Temperature: 319 K
Tabular data in the source: 0
pressure (bar)	Carbon Dioxide fraction	Carbon Dioxide uptake (mmol/g)	Methane fraction	Methane uptake (mmol/g)	total uptake (mmol/g)
0.2885	0.4	0.00871	0.6	0.00576	
7.137	0.4	0.16911	0.6	0.12323	
14.0035	0.4	0.26395	0.6	0.17946	
27.6055	0.4	0.39169	0.6	0.23065	
41.244	0.4	0.46452	0.6	0.25728	
55.4315	0.4	0.52911	0.6	0.26034	
69.265	0.4	0.55065	0.6	0.26256	
82.922	0.4	0.57169	0.6	0.24608	
96.449	0.4	0.61839	0.6	0.23044	
110.115	0.4	0.63242	0.6	0.2335	
124.05	0.4	0.6375	0.6	0.21939	
