Adsorption isotherm of Methane on Wet Fruitland Coal
DOI: 10.1021/ef900642j
Article source: Figure 2
Adsorbate Methane: InChIKey VNWKTOKETHGBQD-UHFFFAOYSA-N
Kind: experiment
Isotherm type: excess
Temperature: 319 K
Tabular data in the source: 0
pressure (bar)	uptake (mmol/g)
0.221	0.00433
6.841	0.19285
7.616	0.21762
14.402	0.31141
14.439	0.32199
27.218	0.45908
27.661	0.45019
41.952	0.53559
42.247	0.55218
55.506	0.5955
55.58	0.60199
69.06	0.64123
69.502	0.6357
83.093	0.66532
83.388	0.65907
96.702	0.67667
97.052	0.66994
110.292	0.68802
110.717	0.68201
123.496	0.69576
124.307	0.68975
