Adsorption isotherm of Nitrogen, Methane on Illinois No. 6 Coal
DOI: 10.1021/ef900642j
Article source: Figure 5
Adsorbate Nitrogen: InChIKey IJGRMHOSHXDMSA-UHFFFAOYSA-N
Adsorbate Methane: InChIKey VNWKTOKETHGBQD-UHFFFAOYSA-N
Kind: experiment
Isotherm type: excess
Temperature: 319 K
Tabular data in the source: 0
pressure (bar)	Nitrogen fraction	Nitrogen uptake (mmol/g)	Methane fraction	Methane uptake (mmol/g)	total uptake (mmol/g)
0.3235	0.6	0.000573	0.4	0.00218	
7.1015	0.6	0.01006	0.4	0.02507	
14.1855	0.6	0.019745	0.4	0.04762	
28.029	0.6	0.036102	0.4	0.07951	
41.6965	0.6	0.043767	0.4	0.10532	
55.4105	0.6	0.043925	0.4	0.12733	
69.079	0.6	0.04507	0.4	0.14619	
83.0335	0.6	0.042809	0.4	0.163	
96.7385	0.6	0.041386	0.4	0.17481	
110.355	0.6	0.047148	0.4	0.18315	
125.214	0.6	0.049604	0.4	0.19872	
