Adsorption isotherm of Carbon Dioxide, Nitrogen on Wet Fruitland Coal
DOI: 10.1021/ef900642j
Article source: Figure 4
Adsorbate Carbon Dioxide: InChIKey CURLTUGMZLYLDI-UHFFFAOYSA-N
Adsorbate Nitrogen: InChIKey IJGRMHOSHXDMSA-UHFFFAOYSA-N
Kind: experiment
Isotherm type: excess
Temperature: 319 K
Tabular data in the source: 0
pressure (bar)	Carbon Dioxide fraction	Carbon Dioxide uptake (mmol/g)	Nitrogen fraction	Nitrogen uptake (mmol/g)	total uptake (mmol/g)
0.2575	0.4	0.00696	0.6	0.00095	
7.2575	0.4	0.15207	0.6	0.02108	
13.9235	0.4	0.25454	0.6	0.03738	
27.218	0.4	0.4035	0.6	0.05521	
41.2025	0.4	0.51678	0.6	0.05591	
55.233	0.4	0.59329	0.6	0.05396	
69.1715	0.4	0.65141	0.6	0.04581	
82.9615	0.4	0.68892	0.6	0.03843	
96.6205	0.4	0.72113	0.6	0.0263	
110.372	0.4	0.7447	0.6	0.01439	
124.013	0.4	0.76075	0.6	0.00805	
