Adsorption isotherm of Carbon Dioxide, Nitrogen on Wet Fruitland Coal
DOI: 10.1021/ef900642j
Article source: Figure 4
Adsorbate Carbon Dioxide: InChIKey CURLTUGMZLYLDI-UHFFFAOYSA-N
Adsorbate Nitrogen: InChIKey IJGRMHOSHXDMSA-UHFFFAOYSA-N
Kind: experiment
Isotherm type: excess
Temperature: 319 K
Tabular data in the source: 0
pressure (bar)	Carbon Dioxide fraction	Carbon Dioxide uptake (mmol/g)	Nitrogen fraction	Nitrogen uptake (mmol/g)	total uptake (mmol/g)
0.2575	0.2	0.00696	0.8	0.00095	
7.2025	0.2	0.07155	0.8	0.03571	
14.1845	0.2	0.12694	0.8	0.0656	
27.87	0.2	0.21069	0.8	0.10377	
41.3975	0.2	0.27773	0.8	0.12579	
55.4755	0.2	0.33028	0.8	0.13756	
69.311	0.2	0.37335	0.8	0.14271	
83.1235	0.2	0.41085	0.8	0.14035	
96.68	0.2	0.44195	0.8	0.13719	
110.47	0.2	0.46385	0.8	0.13122	
123.948	0.2	0.4852	0.8	0.12481	
