Adsorption isotherm of Nitrogen on Wet Fruitland Coal
DOI: 10.1021/ef900642j
Article source: Figure 8
Adsorbate Nitrogen: InChIKey IJGRMHOSHXDMSA-UHFFFAOYSA-N
Kind: experiment
Isotherm type: excess
Temperature: 319 K
Tabular data in the source: 0
pressure (bar)	uptake (mmol/g)
0.115	0.00111
2.145	0.01428
14.329	0.09502
14.846	0.09133
27.296	0.1429
28.963	0.16025
41.374	0.19397
41.738	0.20222
55.165	0.22954
56.027	0.24086
68.955	0.26387
68.974	0.26719
82.975	0.29033
83.262	0.29303
96.593	0.31493
97.455	0.31813
109.751	0.33376
110.364	0.33339
124.134	0.35073
