Adsorption isotherm of Nitrogen on Wet Tiffany Coal
DOI: 10.1021/ef900642j
Article source: Figure 2
Adsorbate Nitrogen: InChIKey IJGRMHOSHXDMSA-UHFFFAOYSA-N
Kind: experiment
Isotherm type: excess
Temperature: 328 K
Tabular data in the source: 0
pressure (bar)	uptake (mmol/g)
0.148	0.00208
7.268	0.0237
8.615	0.04005
13.946	0.0386
15.348	0.05606
28.002	0.0671
28.795	0.08104
41.633	0.08727
42.316	0.10105
54.748	0.10825
55.726	0.11674
68.896	0.12329
69.542	0.12826
82.933	0.13385
83.542	0.1401
96.878	0.15258
97.413	0.14633
110.712	0.15705
111.321	0.16699
124.694	0.16489
125.303	0.17482
137.606	0.18458
