Adsorption isotherm of Nitrogen, Methane on Illinois No. 6 Coal
DOI: 10.1021/ef900642j
Article source: Figure 5
Adsorbate Nitrogen: InChIKey IJGRMHOSHXDMSA-UHFFFAOYSA-N
Adsorbate Methane: InChIKey VNWKTOKETHGBQD-UHFFFAOYSA-N
Kind: experiment
Isotherm type: excess
Temperature: 319 K
Tabular data in the source: 0
pressure (bar)	Nitrogen fraction	Nitrogen uptake (mmol/g)	Methane fraction	Methane uptake (mmol/g)	total uptake (mmol/g)
0.3235	0.4	0.000573	0.6	0.00218	
6.9535	0.4	0.013468	0.6	0.04665	
14.0195	0.4	0.017424	0.6	0.08375	
28.123	0.4	0.026373	0.6	0.13028	
41.5595	0.4	0.029148	0.6	0.16314	
56.385	0.4	0.024961	0.6	0.19611	
69.3215	0.4	0.024032	0.6	0.21638	
82.962	0.4	0.020831	0.6	0.23894	
96.6765	0.4	0.01279	0.6	0.25444	
110.965	0.4	0.01122	0.6	0.26831	
125.355	0.4	0.009354	0.6	0.28121	
