Adsorption isotherm of Carbon Dioxide, Methane on Wet Fruitland Coal
DOI: 10.1021/ef900642j
Article source: Figure 4
Adsorbate Carbon Dioxide: InChIKey CURLTUGMZLYLDI-UHFFFAOYSA-N
Adsorbate Methane: InChIKey VNWKTOKETHGBQD-UHFFFAOYSA-N
Kind: experiment
Isotherm type: excess
Temperature: 319 K
Tabular data in the source: 0
pressure (bar)	Carbon Dioxide fraction	Carbon Dioxide uptake (mmol/g)	Methane fraction	Methane uptake (mmol/g)	total uptake (mmol/g)
0.2885	0.6	0.00871	0.4	0.00576	
7.408	0.6	0.27702	0.4	0.08458	
13.6135	0.6	0.37718	0.4	0.10007	
27.2805	0.6	0.55839	0.4	0.13103	
41.6175	0.6	0.64282	0.4	0.14901	
55.3645	0.6	0.71274	0.4	0.14832	
69.1985	0.6	0.75871	0.4	0.14303	
83.137	0.6	0.7829	0.4	0.12986	
96.3015	0.6	0.80806	0.4	0.1258	
109.965	0.6	0.8352	0.4	0.12174	
123.42	0.6	0.84315	0.4	0.10763	
