Adsorption isotherm of Carbon Dioxide, Nitrogen on Wet Fruitland Coal
DOI: 10.1021/ef900642j
Article source: Figure 4
Adsorbate Carbon Dioxide: InChIKey CURLTUGMZLYLDI-UHFFFAOYSA-N
Adsorbate Nitrogen: InChIKey IJGRMHOSHXDMSA-UHFFFAOYSA-N
Kind: experiment
Isotherm type: excess
Temperature: 319 K
Tabular data in the source: 0
pressure (bar)	Carbon Dioxide fraction	Carbon Dioxide uptake (mmol/g)	Nitrogen fraction	Nitrogen uptake (mmol/g)	total uptake (mmol/g)
0.2575	0.6	0.00696	0.4	0.00095	
7.211	0.6	0.24735	0.4	0.01711	
13.7275	0.6	0.39023	0.4	0.02456	
27.059	0.6	0.57931	0.4	0.02756	
41.36	0.6	0.70373	0.4	0.02547	
55.5215	0.6	0.78247	0.4	0.01857	
69.4875	0.6	0.83195	0.4	0.01293	
83.166	0.6	0.85887	0.4	-0.00038	
97.0015	0.6	0.88551	0.4	-0.00825	
110.624	0.6	0.88763	0.4	-0.02365	
124.06	0.6	0.89281	0.4	-0.03375	
