Adsorption isotherm of Nitrogen on Dry Pocahontas Coal
DOI: 10.1021/ef900642j
Article source: Figure 2
Adsorbate Nitrogen: InChIKey IJGRMHOSHXDMSA-UHFFFAOYSA-N
Kind: experiment
Isotherm type: excess
Temperature: 328 K
Tabular data in the source: 0
pressure (bar)	uptake (mmol/g)
0.276	0.00609
7.483	0.10194
14.525	0.16734
16.111	0.18273
28.297	0.25391
42.197	0.31772
56.062	0.36135
69.889	0.39824
83.662	0.42231
97.195	0.44157
111.263	0.46051
125.146	0.47465
137.942	0.48429
