Adsorption isotherm of Carbon Dioxide, Nitrogen, Methane on Wet Tiffany Coal
DOI: 10.1021/ef900642j
Article source: Figure 6
Adsorbate Carbon Dioxide: InChIKey CURLTUGMZLYLDI-UHFFFAOYSA-N
Adsorbate Nitrogen: InChIKey IJGRMHOSHXDMSA-UHFFFAOYSA-N
Adsorbate Methane: InChIKey VNWKTOKETHGBQD-UHFFFAOYSA-N
Kind: experiment
Isotherm type: excess
Temperature: 328 K
Tabular data in the source: 0
pressure (bar)	Carbon Dioxide fraction	Carbon Dioxide uptake (mmol/g)	Nitrogen fraction	Nitrogen uptake (mmol/g)	Methane fraction	Methane uptake (mmol/g)	total uptake (mmol/g)
0.058	0.5	0.00067	0.4	0.00067	0.1	0.00067	
6.83833	0.5	0.09381	0.4	0.01889	0.1	0.01123	
13.6833	0.5	0.16475	0.4	0.02579	0.1	0.01662	
27.0413	0.5	0.25972	0.4	0.03031	0.1	0.0246	
42.166	0.5	0.32074	0.4	0.03495	0.1	0.02751	
55.557	0.5	0.35222	0.4	0.03915	0.1	0.02827	
69.4997	0.5	0.37497	0.4	0.04002	0.1	0.02805	
83.1507	0.5	0.38359	0.4	0.04163	0.1	0.02891	
97.1973	0.5	0.392	0.4	0.04034	0.1	0.02719	
110.809	0.5	0.38521	0.4	0.04217	0.1	0.02816	
124.7	0.5	0.37788	0.4	0.04476	0.1	0.02924	
138.214	0.5	0.37022	0.4	0.04659	0.1	0.03279	
