Adsorption isotherm of Carbon Dioxide, Nitrogen on Wet Fruitland Coal
DOI: 10.1021/ef900642j
Article source: Figure 4
Adsorbate Carbon Dioxide: InChIKey CURLTUGMZLYLDI-UHFFFAOYSA-N
Adsorbate Nitrogen: InChIKey IJGRMHOSHXDMSA-UHFFFAOYSA-N
Kind: experiment
Isotherm type: excess
Temperature: 319 K
Tabular data in the source: 0
pressure (bar)	Carbon Dioxide fraction	Carbon Dioxide uptake (mmol/g)	Nitrogen fraction	Nitrogen uptake (mmol/g)	total uptake (mmol/g)
0.2575	0.8	0.00696	0.2	0.00095	
8.374	0.8	0.40838	0.2	0.00415	
14.248	0.8	0.55378	0.2	0.00673	
27.0775	0.8	0.73812	0.2	0.00415	
41.3785	0.8	0.84109	0.2	0.00687	
55.7815	0.8	0.91453	0.2	0.00032	
69.0495	0.8	0.93894	0.2	0.00283	
83.137	0.8	0.97366	0.2	-0.01689	
96.033	0.8	0.97829	0.2	-0.01807	
109.925	0.8	0.94698	0.2	-0.01675	
123.473	0.8	0.99591	0.2	-0.04141	
