Adsorption isotherm of Methane on Dry Pocahontas Coal
DOI: 10.1021/ef900642j
Article source: Figure 2
Adsorbate Methane: InChIKey VNWKTOKETHGBQD-UHFFFAOYSA-N
Kind: experiment
Isotherm type: excess
Temperature: 328 K
Tabular data in the source: 0
pressure (bar)	uptake (mmol/g)
0.276	0.00609
7.018	0.31059
14.482	0.43914
14.666	0.45196
28.51	0.60103
41.987	0.65971
42.244	0.67926
56.016	0.72994
69.568	0.73894
70.047	0.75689
83.58	0.7675
83.635	0.78032
97.261	0.79606
111.108	0.79897
137.916	0.80961
