Adsorption isotherm of Methane on Wet Tiffany Coal
DOI: 10.1021/ef900642j
Article source: Figure 2
Adsorbate Methane: InChIKey VNWKTOKETHGBQD-UHFFFAOYSA-N
Kind: experiment
Isotherm type: excess
Temperature: 328 K
Tabular data in the source: 0
pressure (bar)	uptake (mmol/g)
0.148	0.00208
4.262	0.06569
5.554	0.07193
9.539	0.11343
13.155	0.13121
20.571	0.19225
25.865	0.20009
33.373	0.24254
40.789	0.25727
45.179	0.28098
55.749	0.29635
62.002	0.31781
70.247	0.31011
72.904	0.3335
82.421	0.32148
85.262	0.34503
96.126	0.32499
99.742	0.3527
110.329	0.32801
119.165	0.35748
124.643	0.33184
136.411	0.33631
