Adsorption isotherm of Carbon Dioxide on Wet Fruitland Coal
DOI: 10.1021/ef900642j
Article source: Figure 2
Adsorbate Carbon Dioxide: InChIKey CURLTUGMZLYLDI-UHFFFAOYSA-N
Kind: experiment
Isotherm type: excess
Temperature: 319 K
Tabular data in the source: 0
pressure (bar)	uptake (mmol/g)
0.221	0.00433
13.148	0.59776
15.213	0.64345
29.357	0.81589
30.574	0.83946
42.136	0.91355
43.649	0.91572
56.649	0.95303
57.018	0.96265
69.484	0.98409
70.848	0.95765
82.558	0.98846
83.296	0.94976
92.147	0.99859
97.439	0.86325
104.594	0.95368
110.569	0.72312
110.587	0.657
123.497	0.47519
123.68	0.72244
