Adsorption isotherm of Methane on Wet Fruitland Coal
DOI: 10.1021/ef900642j
Article source: Figure 8
Adsorbate Methane: InChIKey VNWKTOKETHGBQD-UHFFFAOYSA-N
Kind: experiment
Isotherm type: excess
Temperature: 319 K
Tabular data in the source: 0
pressure (bar)	uptake (mmol/g)
0.352	0.00853
1.534	0.03619
6.947	0.19262
7.668	0.21476
14.227	0.30929
14.283	0.32095
27.161	0.45167
27.771	0.44333
41.592	0.53452
42.294	0.54643
55.486	0.5881
55.616	0.6
69.03	0.63738
69.418	0.6319
82.999	0.65952
83.183	0.65167
96.708	0.67143
96.875	0.66786
110.363	0.68548
110.622	0.67857
123.814	0.69333
124.258	0.68643
