Adsorption isotherm of Nitrogen on Wet Fruitland Coal
DOI: 10.1021/ef900642j
Article source: Figure 2
Adsorbate Nitrogen: InChIKey IJGRMHOSHXDMSA-UHFFFAOYSA-N
Kind: experiment
Isotherm type: excess
Temperature: 319 K
Tabular data in the source: 0
pressure (bar)	uptake (mmol/g)
0.221	0.00433
14.863	0.08997
27.476	0.14363
41.288	0.19321
55.229	0.23052
69.004	0.26495
83.074	0.29049
96.646	0.3165
110.366	0.33506
124.197	0.35194
