Adsorption isotherm of Carbon Dioxide, Methane on Wet Fruitland Coal
DOI: 10.1021/ef900642j
Article source: Figure 4
Adsorbate Carbon Dioxide: InChIKey CURLTUGMZLYLDI-UHFFFAOYSA-N
Adsorbate Methane: InChIKey VNWKTOKETHGBQD-UHFFFAOYSA-N
Kind: experiment
Isotherm type: excess
Temperature: 319 K
Tabular data in the source: 0
pressure (bar)	Carbon Dioxide fraction	Carbon Dioxide uptake (mmol/g)	Methane fraction	Methane uptake (mmol/g)	total uptake (mmol/g)
0.2885	0.2	0.00871	0.8	0.00576	
7.378	0.2	0.08516	0.8	0.16132	
14.235	0.2	0.13306	0.8	0.24559	
27.585	0.2	0.19645	0.8	0.34227	
42.442	0.2	0.24266	0.8	0.40323	
55.1685	0.2	0.26444	0.8	0.44047	
69.151	0.2	0.30411	0.8	0.44924	
82.734	0.2	0.32032	0.8	0.44979	
96.7625	0.2	0.33484	0.8	0.45145	
109.964	0.2	0.35177	0.8	0.44739	
124.095	0.2	0.35274	0.8	0.44151	
