Adsorption isotherm of Nitrogen, Methane on Illinois No. 6 Coal
DOI: 10.1021/ef900642j
Article source: Figure 5
Adsorbate Nitrogen: InChIKey IJGRMHOSHXDMSA-UHFFFAOYSA-N
Adsorbate Methane: InChIKey VNWKTOKETHGBQD-UHFFFAOYSA-N
Kind: experiment
Isotherm type: excess
Temperature: 319 K
Tabular data in the source: 0
pressure (bar)	Nitrogen fraction	Nitrogen uptake (mmol/g)	Methane fraction	Methane uptake (mmol/g)	total uptake (mmol/g)
0.3235	0.2	0.000573	0.8	0.00218	
6.9445	0.2	0.006554	0.8	0.06499	
14.011	0.2	0.013374	0.8	0.11716	
27.9945	0.2	0.014372	0.8	0.17562	
42.116	0.2	0.014678	0.8	0.21369	
55.2845	0.2	0.016613	0.8	0.24861	
68.8415	0.2	0.013067	0.8	0.27247	
82.6945	0.2	0.008385	0.8	0.29806	
96.5945	0.2	0.001777	0.8	0.31324	
110.448	0.2	0.002824	0.8	0.32657	
124.828	0.2	-0.002846	0.8	0.32233	
