Adsorption isotherm of Carbon Dioxide on Wet Tiffany Coal
DOI: 10.1021/ef900642j
Article source: Figure 2
Adsorbate Carbon Dioxide: InChIKey CURLTUGMZLYLDI-UHFFFAOYSA-N
Kind: experiment
Isotherm type: excess
Temperature: 328 K
Tabular data in the source: 0
pressure (bar)	uptake (mmol/g)
0.111	0.00144
4.708	0.19595
6.609	0.22831
14.082	0.3576
27.605	0.47583
36.275	0.50226
43.064	0.5343
56.068	0.55319
69.681	0.55285
70.99	0.5466
83.422	0.52592
96.757	0.48425
103.71	0.4687
109.723	0.43408
123.058	0.38952
134.849	0.36597
135.407	0.36173
136.427	0.22288
