Adsorption isotherm of Carbon Dioxide on Wet Fruitland Coal
DOI: 10.1021/ef900642j
Article source: Figure 8
Adsorbate Carbon Dioxide: InChIKey CURLTUGMZLYLDI-UHFFFAOYSA-N
Kind: experiment
Isotherm type: excess
Temperature: 319 K
Tabular data in the source: 0
pressure (bar)	uptake (mmol/g)
0.166	0.00603
1.959	0.09525
6.911	0.50289
7.115	0.4994
13.102	0.5953
13.86	0.66482
14.248	0.68705
14.414	0.71499
14.839	0.64388
22.452	0.83947
27.46	0.88806
27.719	0.89346
29.308	0.90489
29.382	0.81601
30.454	0.83982
36.072	0.95826
41.486	0.99733
41.948	0.9113
42.059	0.9913
43.464	1.00718
43.667	0.91385
50.449	1.03261
54.884	1.0285
55.364	1.04279
56.196	1.0447
56.676	0.95423
57.046	0.96502
62.812	1.06028
69.298	1.02285
69.335	1.05174
69.464	0.98635
70.795	0.95715
73.289	1.087
82.27	0.98831
82.677	1.05371
82.973	0.94736
83.287	0.95022
92.009	0.99978
94.596	1.1944
95.206	1.03916
95.483	0.88742
97.46	0.86362
102.487	0.90269
104.538	0.9519
105.499	0.97572
106.645	0.95794
110.618	0.65796
116.624	0.76751
121.964	0.85135
123.35	0.73326
123.424	0.47548
123.627	0.72469
