Adsorption isotherm of Nitrogen, Methane on Illinois No. 6 Coal
DOI: 10.1021/ef900642j
Article source: Figure 5
Adsorbate Nitrogen: InChIKey IJGRMHOSHXDMSA-UHFFFAOYSA-N
Adsorbate Methane: InChIKey VNWKTOKETHGBQD-UHFFFAOYSA-N
Kind: experiment
Isotherm type: excess
Temperature: 319 K
Tabular data in the source: 0
pressure (bar)	Nitrogen fraction	Nitrogen uptake (mmol/g)	Methane fraction	Methane uptake (mmol/g)	total uptake (mmol/g)
0.3235	0.8	0.000573	0.2	0.00218	
7.0175	0.8	0.019641	0.2	0.01313	
13.694	0.8	0.025721	0.2	0.02202	
27.4995	0.8	0.04756	0.2	0.03872	
43.1855	0.8	0.062437	0.2	0.05454	
55.779	0.8	0.06936	0.2	0.06517	
68.9105	0.8	0.078605	0.2	0.07535	
82.5835	0.8	0.083717	0.2	0.08359	
96.596	0.8	0.08466	0.2	0.09464	
110.061	0.8	0.088659	0.2	0.10602	
124.507	0.8	0.094885	0.2	0.10851	
