Adsorption isotherm of Carbon Dioxide on Dry Pocahontas Coal
DOI: 10.1021/ef900642j
Article source: Figure 2
Adsorbate Carbon Dioxide: InChIKey CURLTUGMZLYLDI-UHFFFAOYSA-N
Kind: experiment
Isotherm type: excess
Temperature: 328 K
Tabular data in the source: 0
pressure (bar)	uptake (mmol/g)
0.276	0.00609
7.25	0.63143
10.604	0.70964
14.529	0.82215
16.483	0.82728
28.353	0.99333
28.501	0.97827
42.364	1.0908
42.383	1.06292
55.51	1.10558
56.173	1.13314
69.615	1.12195
69.743	1.14984
83.296	1.08481
83.443	1.1207
96.922	1.07458
98.455	0.99766
110.662	0.92974
110.959	0.85634
123.812	0.75573
124.271	0.83778
137.29	0.77179
138.527	0.69006
