Adsorption isotherm of Nitrogen on VO-TAPT-2,3-DHTA COF
DOI: 10.1021/acssuschemeng.8b05373
Article source: Figure 2
Adsorbate Nitrogen: InChIKey IJGRMHOSHXDMSA-UHFFFAOYSA-N
Kind: experiment
Temperature: 77 K
Tabular data in the source: 0
pressure (bar)	uptake (cm3(STP)/g)
0.051151	149.555
0.070268	160.553
0.089386	167.501
0.108503	175.654
0.12762	184.518
0.147648	195.242
0.165855	204.38
0.184972	211.548
0.20409	216.691
0.223207	219.482
0.242324	222.272
0.261442	225.063
0.280559	228.017
0.299677	229.823
0.318794	231.3
0.337911	232.449
0.357029	234.255
0.376146	236.225
0.395263	237.046
0.414381	238.523
0.433498	239.672
0.452615	241.478
0.471733	243.447
0.49085	245.581
0.509968	247.715
0.529085	248.864
0.548202	250.342
0.56732	252.476
0.586437	253.953
0.605554	255.758
0.624672	257.564
0.643789	259.041
0.662906	260.683
0.682024	262.489
0.701141	264.951
0.720259	267.741
0.739376	270.696
0.758493	273.651
0.777611	277.918
0.796728	282.186
0.815845	287.439
0.834963	292.364
0.85408	299.258
0.873197	305.222
0.892315	312.225
0.910977	317.615
0.93055	321.582
0.949667	321.691
0.966053	318.496
0.001116	21.6106
0.002373	43.8219
0.00363	63.9179
0.004887	78.7255
0.008658	86.1292
0.012429	90.36
0.0162	95.6484
0.021228	100.937
0.024998	105.168
0.031283	110.456
0.036311	114.687
0.041339	118.917
0.048881	122.09
0.068992	130.552
0.089103	141.129
0.110472	148.533
0.130583	155.936
0.149437	165.455
0.169549	177.09
0.18966	187.667
0.212285	192.955
0.233654	197.186
0.253765	201.417
0.273876	204.59
0.295245	208.82
0.316613	214.109
0.335467	215.167
0.354322	218.34
0.376947	220.455
0.395801	220.455
0.414656	222.57
0.436024	225.743
0.456135	226.801
0.477504	227.859
0.496358	229.974
0.51647	233.147
0.539095	235.263
0.557949	237.378
0.578061	238.436
0.596915	239.493
0.618283	242.666
0.638395	244.782
0.658506	246.897
0.681131	247.955
0.702499	250.07
0.71884	253.243
0.740208	255.359
0.76032	257.474
0.779174	261.705
0.800542	265.935
0.820654	269.108
0.842022	273.339
0.860876	277.57
0.882245	281.801
0.902356	287.089
0.922467	293.435
0.943836	304.012
0.957662	317.762
