Adsorption isotherm of Carbon Dioxide on TAPT-2,3-DHTA COF
DOI: 10.1021/acssuschemeng.8b05373
Article source: Figure S14
Adsorbate Carbon Dioxide: InChIKey CURLTUGMZLYLDI-UHFFFAOYSA-N
Kind: experiment
Isotherm type: absolute
Temperature: 298 K
Tabular data in the source: 0
pressure (bar)	uptake (cm3(STP)/g)
0.030051	2.04275
0.066249	3.60544
0.092104	4.91085
0.117959	6.12404
0.145107	7.26185
0.172255	8.42272
0.19811	9.48691
0.226551	10.5156
0.252406	11.5444
0.278261	12.5518
0.304117	13.4883
0.332557	14.3197
0.358413	15.411
0.384268	16.3971
0.412709	17.284
0.437859	18.0231
0.464419	19.1073
0.49286	19.9799
0.518715	20.888
0.542954	21.6605
0.633217	24.4232
0.655748	25.1165
0.681603	25.9962
0.707458	26.8618
0.735899	27.6351
0.761754	28.4935
0.787609	29.2952
0.813465	30.1324
0.841905	30.9128
0.867761	31.6719
0.893616	32.5304
0.922057	33.2682
0.947912	34.0345
0.973767	34.7936
0.999622	35.496
1.02806	36.3686
1.05392	37.0302
0.045919	2.71478
0.573295	22.646
0.602516	23.5395
1.0464	37.7663
1.0311	37.354
1.00048	36.4605
0.972653	35.7732
0.946215	35.0859
0.922559	34.3299
0.891947	33.5052
0.868291	32.6804
0.840461	32.0619
0.812632	31.1684
0.787585	30.3436
0.761146	29.5189
0.733317	28.7629
0.706878	27.9381
0.68044	27.1821
0.654001	26.3574
0.627563	25.5326
0.599733	24.6392
0.573295	23.8144
0.546857	22.921
0.521114	22.0962
0.492588	21.134
0.46615	20.2405
0.011132	1.47766
0.038962	3.12715
0.066792	4.50172
0.091839	5.84192
0.118277	7.1134
0.147498	8.35052
0.172545	9.45017
0.198983	10.5498
0.226813	11.6495
0.253252	12.646
0.278298	13.6426
0.304737	14.6735
0.333262	15.6357
0.359005	16.5979
0.385443	17.5601
0.411882	18.5223
0.43832	19.4158
