Adsorption isotherm of Nitrogen on TAPT-2,3-DHTA COF
DOI: 10.1021/acssuschemeng.8b05373
Article source: Figure 2
Adsorbate Nitrogen: InChIKey IJGRMHOSHXDMSA-UHFFFAOYSA-N
Kind: experiment
Temperature: 77 K
Tabular data in the source: 0
pressure (bar)	uptake (cm3(STP)/g)
0.000626	115.576
0.000626	97.5743
-0.000739	72.3721
0.000626	55.2514
0.000626	35.1433
0.000626	14.4606
0.005406	156.582
0.003357	134.727
0.007454	175.49
0.010185	192.069
0.017164	208.265
0.026875	226.522
0.040723	242.074
0.056613	251.622
0.067537	266.691
0.089386	284.32
0.109868	299.422
0.128986	315.508
0.149469	331.595
0.169952	345.383
0.190435	360.321
0.209552	377.556
0.227304	398.239
0.245552	429.785
0.25598	437.306
0.268269	453.393
0.29558	464.692
0.318794	473.747
0.340642	479.164
0.35976	485.238
0.377967	489.588
0.397994	492.789
0.415746	497.056
0.434864	499.546
0.456712	503.759
0.475829	506.44
0.499043	511.009
0.516795	513.143
0.537278	515.605
0.557761	519.846
0.576878	522.335
0.598727	524.825
0.617844	529.229
0.638327	531.692
0.657444	534.81
0.679293	538.422
0.699776	541.677
0.718893	545.316
0.739376	547.942
0.759859	552.21
0.780342	556.314
0.799459	558.94
0.819942	563.701
0.84179	568.871
0.860908	574.808
0.881391	579.951
0.901873	586.681
0.922356	593.904
0.941474	601.701
0.963947	611.798
0.942579	620.259
0.928752	622.375
0.903613	620.259
0.883502	618.144
0.859619	614.971
0.838251	608.625
0.823168	604.394
0.799285	598.048
0.780431	591.702
0.740208	580.067
0.71884	576.894
0.678617	564.202
0.659763	559.971
0.575547	543.048
0.759063	587.471
0.698729	570.548
0.639652	556.798
0.617026	552.567
0.599429	548.337
0.556692	538.818
0.536581	536.702
0.51647	534.587
0.496358	530.356
0.47499	526.125
0.453622	521.895
0.434767	518.722
0.41717	515.549
0.395801	512.375
0.373176	508.145
0.351808	504.972
0.33421	499.683
0.314099	495.453
0.293988	488.049
0.272619	482.76
0.252508	474.299
0.232397	465.837
0.21857	436.222
0.204744	410.838
0.195945	396.03
0.175834	371.704
0.153208	350.55
0.130583	334.685
0.111729	317.762
0.091617	299.781
0.070249	281.801
0.051395	265.935
