Adsorption isotherm of Carbon Dioxide on VO-TAPT-2,3-DHTA COF
DOI: 10.1021/acssuschemeng.8b05373
Article source: Figure S22
Adsorbate Carbon Dioxide: InChIKey CURLTUGMZLYLDI-UHFFFAOYSA-N
Kind: experiment
Isotherm type: absolute
Temperature: 298 K
Tabular data in the source: 0
pressure (bar)	uptake (cm3(STP)/g)
0.02584	2.57524
0.044008	3.95403
0.068665	5.35731
0.092025	6.58354
0.119277	7.84932
0.14653	8.90413
0.171187	9.90621
0.199737	10.8857
0.225692	11.8049
0.251646	12.6487
0.278899	13.5453
0.306151	14.3364
0.332106	15.12
0.358061	15.8659
0.385313	16.6043
0.412566	17.2899
0.438521	17.9755
0.464475	18.7139
0.491728	19.3468
0.51898	20.0776
0.547531	20.7181
0.574783	21.2982
0.602035	21.9311
0.62799	22.564
0.653945	23.1969
0.681197	23.8298
0.70845	24.3572
0.734405	24.9901
0.760359	25.5175
0.787612	26.0976
0.814864	26.6778
0.840819	27.2052
0.866774	27.7778
0.894026	28.3127
0.919981	28.8402
0.948531	29.3324
0.974486	29.8246
1.00044	30.2905
1.02769	30.7765
1.05365	31.2436
1.05309	31.7711
1.0261	31.1619
1.00062	30.9182
0.972138	30.4308
0.949653	29.9434
0.922669	29.517
0.891189	29.0296
0.870203	28.5422
0.840221	28.1158
0.816236	27.4456
0.781758	27.141
0.760771	26.4099
0.736786	26.0444
0.703807	25.4352
0.011243	2.52829
0.038226	4.78242
0.066708	6.6101
0.093691	8.13316
0.117676	9.16884
0.146158	10.3873
0.173141	11.6057
0.198625	12.3977
0.224109	13.3725
0.252591	14.3473
0.278075	15.0783
0.305058	15.9312
0.330542	16.7232
0.359024	17.4238
0.386007	18.1549
0.411491	18.8555
0.438474	19.5257
0.465457	20.1958
0.49244	20.866
0.519423	21.5361
0.546406	21.9626
0.57189	22.5718
0.600372	23.2419
0.625856	23.8512
0.655837	24.3995
0.679822	24.9478
