Adsorption isotherm of Nitrogen on PyTTA-2,3-DHTA COF
DOI: 10.1021/acssuschemeng.8b05373
Article source: Figure 2
Adsorbate Nitrogen: InChIKey IJGRMHOSHXDMSA-UHFFFAOYSA-N
Kind: experiment
Temperature: 77 K
Tabular data in the source: 0
pressure (bar)	uptake (cm3(STP)/g)
-0.000592	212.95
0.001162	158.001
-0.001469	139.491
-0.000153	120.921
-0.000153	102.352
-0.000153	84.6668
-0.000153	65.5079
-0.000153	45.4648
-0.000153	25.4216
0.003792	239.243
0.005107	258.079
0.009053	277.477
0.012669	295.709
0.016568	313.858
0.023081	334.256
0.030423	355.249
0.035355	374.156
0.041273	395.336
0.043246	414.747
0.046863	430.043
0.069549	458.034
0.095851	472.35
0.114263	480.098
0.135305	487.509
0.155032	494.667
0.17739	500.646
0.195801	504.857
0.216844	509.573
0.23394	512.942
0.253667	516.816
0.276025	520.802
0.295752	524.058
0.315479	526.697
0.335206	529.953
0.356248	533.153
0.37466	535.343
0.395702	538.038
0.414114	541.07
0.437786	544.438
0.454883	546.543
0.475925	550.277
0.496967	552.242
0.516694	555.049
0.537736	558.642
0.556148	561.45
0.57719	564.144
0.598232	566.839
0.619274	569.31
0.637686	571.892
0.658729	575.092
0.679771	577.787
0.699498	580.145
0.719225	583.682
0.740267	587.051
0.761309	591.093
0.779721	594.293
0.800763	598.672
0.82049	602.546
0.841532	607.262
0.861259	612.315
0.882301	618.884
0.900713	624.105
0.921755	633.201
0.942797	642.801
0.001211	197.519
0.001211	179.07
0.050844	441.705
0.961195	655.504
0.945458	658.76
0.915194	660.93
0.903088	659.845
0.881297	655.504
0.860718	651.163
0.841349	646.822
0.821979	641.395
0.800189	633.798
0.78203	629.457
0.76024	624.031
0.73966	618.605
0.719081	612.093
0.699711	606.667
0.677921	602.326
0.657341	599.07
0.636762	590.388
0.616182	588.217
0.598023	584.961
0.578654	581.705
0.558074	578.45
0.538705	575.194
0.516915	571.938
0.496335	566.512
0.474545	564.341
0.457597	563.256
0.435806	558.915
0.416437	555.659
0.395858	552.403
0.375278	548.062
0.355909	545.891
0.334118	541.55
0.31596	539.38
0.29538	535.039
0.27359	532.868
0.25301	528.527
0.233641	525.271
0.213061	519.845
0.192481	516.589
0.171901	510.078
0.153743	505.736
0.130742	498.14
0.110162	490.543
0.090793	481.86
0.071424	469.922
0.052055	449.302
