Adsorption isotherm of Nitrogen on VO-PyTTA-2,3-DHTA COF
DOI: 10.1021/acssuschemeng.8b05373
Article source: Figure 2
Adsorbate Nitrogen: InChIKey IJGRMHOSHXDMSA-UHFFFAOYSA-N
Kind: experiment
Temperature: 77 K
Tabular data in the source: 0
pressure (bar)	uptake (cm3(STP)/g)
-0.002126	126.61
-0.002126	70.5482
-0.002784	52.8532
-0.002972	35.9485
-0.001844	17.5896
0.001162	159.239
-0.001469	144.855
0.003075	185.499
0.002477	169.85
0.009053	206.311
0.013562	222.232
0.021912	239.569
0.030095	255.918
0.035355	274.192
0.040031	292.598
0.045876	309.121
0.059028	317.698
0.068234	331.964
0.084804	339.863
0.099797	345.326
0.115578	349.453
0.13136	356.134
0.147142	358.885
0.162923	362.029
0.178705	365.173
0.194486	367.924
0.210268	370.871
0.22605	374.212
0.241831	376.963
0.258402	379.478
0.273394	381.679
0.289176	383.644
0.304958	385.805
0.320739	387.574
0.336521	389.146
0.352302	391.504
0.368084	393.665
0.383866	395.827
0.404908	398.185
0.420689	399.56
0.436471	402.41
0.452253	403.49
0.468034	406.045
0.483816	407.42
0.499597	409.189
0.515379	411.35
0.531161	412.726
0.546942	414.298
0.562724	416.066
0.578505	418.621
0.594287	420.193
0.610069	422.551
0.62585	424.32
0.641632	426.088
0.657413	428.446
0.673195	430.608
0.688977	432.573
0.704758	434.734
0.72054	437.682
0.736321	441.612
0.752103	443.577
0.767885	447.114
0.783009	448.98
0.799636	453.486
0.816545	456.644
0.831011	459.493
0.845477	462.981
0.861917	467.697
0.879013	474.182
0.895077	479.256
0.90898	484.814
0.925043	491.228
0.941921	498.663
0.962406	512.248
0.025422	248.527
0.032685	265.891
0.036317	283.256
0.04237	301.705
0.019369	231.163
0.006053	194.264
0.012106	214.884
0	111.783
0	94.4186
