Adsorption isotherm of Carbon Dioxide on PyTTA-2,3-DHTA COF
DOI: 10.1021/acssuschemeng.8b05373
Article source: Figure S15
Adsorbate Carbon Dioxide: InChIKey CURLTUGMZLYLDI-UHFFFAOYSA-N
Kind: experiment
Isotherm type: absolute
Temperature: 298 K
Tabular data in the source: 0
pressure (bar)	uptake (cm3(STP)/g)
0.017818	1.17928
0.046981	2.5215
0.067702	3.32683
0.093284	4.40061
0.120144	5.47439
0.145214	6.48851
0.173865	7.50263
0.199446	8.4571
0.225028	9.29226
0.250609	10.2467
0.274592	11.0819
0.363898	13.9453
0.38619	14.6612
0.411772	15.4963
0.438632	16.3315
0.466004	17.107
0.491074	17.9421
0.521772	18.5387
0.547353	19.5528
0.572935	20.388
0.601074	20.9249
0.626655	21.939
0.652237	22.7741
0.680376	23.5496
0.705958	24.3252
0.732818	25.1603
0.759679	25.9955
0.78526	26.7113
0.8134	27.4272
0.838981	28.2623
0.86712	28.9782
0.892702	29.694
0.920841	30.5292
0.943865	31.2981
0.972004	31.941
0.997586	32.5376
1.02157	33.0645
1.06026	33.8251
0.331447	13.014
0.305951	12.0892
1.05242	34.55
1.02409	34.1536
0.99859	33.559
0.973094	32.8984
0.944765	32.5021
0.916436	31.7093
0.882442	30.9166
0.865445	30.4542
0.839949	29.9257
0.81162	29.1329
0.011332	2.90669
0.038244	4.42609
0.066573	5.74732
0.093485	6.80429
0.117564	7.99339
0.14731	9.05037
0.172806	10.0413
0.199718	11.0322
0.225214	11.9571
0.252126	12.8819
0.279039	13.8068
0.304534	14.5995
0.331447	15.5904
0.358359	16.251
0.382439	17.1098
0.412184	17.8365
0.439096	18.6953
0.464592	19.6201
0.491505	20.2808
0.519833	20.9414
0.546746	21.9323
0.573658	22.5268
0.60057	23.2535
0.627483	24.0462
0.654395	24.839
0.677058	25.6317
0.70822	26.3584
0.735132	27.1511
0.759212	27.7457
0.786124	28.4723
