Adsorption isotherm of Carbon Dioxide on {Cu2(Glu)2(mu-bpp)}*(C3H6O)
DOI: 10.1039/C2dt31427d
Adsorbate Carbon Dioxide: InChIKey CURLTUGMZLYLDI-UHFFFAOYSA-N
Temperature: 196 K
Tabular data in the source: 0
pressure (bar)	uptake (cm3(STP)/g)
0.00533492	3.52821
0.0238111	26.8655
0.0491563	61.6465
0.0986705	77.1399
0.170513	87.8473
0.320436	93.4515
0.642526	99.4341
0.991853	101.96
