Adsorption isotherm of Carbon Dioxide on {Cu2(Glu)2(mu-bpa)}*(CH3CN)
DOI: 10.1039/C2dt31427d
Adsorbate Carbon Dioxide: InChIKey CURLTUGMZLYLDI-UHFFFAOYSA-N
Temperature: 196 K
Tabular data in the source: 0
pressure (bar)	uptake (cm3(STP)/g)
0.00577857	4.84786
0.034876	29.9668
0.0948095	47.6809
0.203989	57.1516
0.391562	63.7177
0.592483	67.6758
0.741601	68.8826
0.983994	71.1736
