Adsorption isotherm of Carbon Dioxide on {Cu2(Glu)2(mu-bpp)}*(C3H6O)
DOI: 10.1039/C2dt31427d
Adsorbate Carbon Dioxide: InChIKey CURLTUGMZLYLDI-UHFFFAOYSA-N
Temperature: 196 K
Tabular data in the source: 0
pressure (bar)	uptake (cm3(STP)/g)
0.000928282	3.97305
0.00660111	28.2528
0.0467579	60.1238
0.0927594	77.0102
0.212645	90.1217
0.38699	96.3185
0.644778	99.6479
0.996081	103.225
