Adsorption isotherm of Hydrogen on {Cu2(Glu)2(mu-bpa)}*(CH3CN)
DOI: 10.1039/C2dt31427d
Adsorbate Hydrogen: InChIKey UFHFLCQGNIYNRP-UHFFFAOYSA-N
Temperature: 77 K
Tabular data in the source: 0
pressure (bar)	uptake (cm3(STP)/g)
0.018921	1.36027
0.0896446	5.47175
0.141243	7.34339
0.364817	8.71388
0.523344	10.381
0.672462	11.5878
0.826234	12.8049
0.994273	15.372
