Adsorption isotherm of Nitrogen on {Cu2(Glu)2(mu-bpa)}*(CH3CN)
DOI: 10.1039/C2dt31427d
Adsorbate Nitrogen: InChIKey IJGRMHOSHXDMSA-UHFFFAOYSA-N
Temperature: 77 K
Tabular data in the source: 0
pressure (bar)	uptake (cm3(STP)/g)
0.010023	3.09895
0.16855	4.76604
0.266172	4.54104
0.363692	3.87625
0.512299	2.88417
0.609716	1.7796
0.964204	6.07517
0.984352	12.7129
