Adsorption isotherm of Nitrogen on {Cu2(Glu)2(mu-bpp)}*(C3H6O)
DOI: 10.1039/C2dt31427d
Adsorbate Nitrogen: InChIKey IJGRMHOSHXDMSA-UHFFFAOYSA-N
Temperature: 77 K
Tabular data in the source: 0
pressure (bar)	uptake (cm3(STP)/g)
0.018783	0.920402
0.195603	1.30902
0.377075	1.70786
0.512016	2.00443
0.660832	1.89194
0.912357	3.76342
0.991716	5.25652
