Adsorption isotherm of Carbon Dioxide on {Cu2(Glu)2(mu-bpa)}*(CH3CN)
DOI: 10.1039/C2dt31427d
Adsorbate Carbon Dioxide: InChIKey CURLTUGMZLYLDI-UHFFFAOYSA-N
Temperature: 298 K
Tabular data in the source: 0
pressure (bar)	uptake (cm3(STP)/g)
0.0140447	0.470428
0.20542	3.96796
0.308045	5.51219
0.378098	6.98483
0.531993	9.0813
0.681404	12.047
0.881831	14.2458
0.989023	15.3605
