Adsorption isotherm of Carbon Dioxide on {Cu2(Glu)2(mu-bpa)}*(CH3CN)
DOI: 10.1039/C2dt31427d
Adsorbate Carbon Dioxide: InChIKey CURLTUGMZLYLDI-UHFFFAOYSA-N
Temperature: 273 K
Tabular data in the source: 0
pressure (bar)	uptake (cm3(STP)/g)
0.0142151	1.34992
0.145355	6.03375
0.234447	9.74604
0.374808	14.0106
0.529129	18.3058
0.683279	21.7215
0.832777	25.127
0.986842	28.1029
