Adsorption isotherm of Carbon Dioxide on {Cu2(Glu)2(mu-bpp)}*(C3H6O)
DOI: 10.1039/C2dt31427d
Adsorbate Carbon Dioxide: InChIKey CURLTUGMZLYLDI-UHFFFAOYSA-N
Temperature: 298 K
Tabular data in the source: 0
pressure (bar)	uptake (cm3(STP)/g)
0.0373927	2.30486
0.134927	4.32775
0.228102	8.1038
0.377128	13.7924
0.526018	18.5983
0.665373	21.6142
0.81903	27.3151
0.972347	30.8092
