Adsorption isotherm of Carbon Dioxide on {Cu2(Glu)2(mu-bpa)}*(CH3CN)
DOI: 10.1039/C2dt31427d
Adsorbate Carbon Dioxide: InChIKey CURLTUGMZLYLDI-UHFFFAOYSA-N
Temperature: 196 K
Tabular data in the source: 0
pressure (bar)	uptake (cm3(STP)/g)
0.000937447	4.83723
0.0119482	13.6526
0.0244077	29.9438
0.088137	46.7871
0.178251	55.7764
0.286211	60.8488
0.435793	64.6941
0.734276	68.8665
0.990881	72.947
