Adsorption isotherm of Carbon Dioxide on {Cu2(Glu)2(mu-bpp)}*(C3H6O)
DOI: 10.1039/C2dt31427d
Adsorbate Carbon Dioxide: InChIKey CURLTUGMZLYLDI-UHFFFAOYSA-N
Temperature: 273 K
Tabular data in the source: 0
pressure (bar)	uptake (cm3(STP)/g)
0.0375971	3.62893
0.117491	11.3404
0.229941	20.0204
0.314126	25.5374
0.421741	32.8811
0.571448	42.9832
0.771898	51.8962
0.985697	57.3151
