Adsorption isotherm of Hydrogen on {Cu2(Glu)2(mu-bpp)}*(C3H6O)
DOI: 10.1039/C2dt31427d
Adsorbate Hydrogen: InChIKey UFHFLCQGNIYNRP-UHFFFAOYSA-N
Temperature: 77 K
Tabular data in the source: 0
pressure (bar)	uptake (cm3(STP)/g)
0.018783	0.920402
0.120897	-0.173854
0.21413	0.910176
0.372507	2.13738
0.567939	2.5669
0.824118	4.44861
0.968536	5.64513
