Adsorption isotherm of Nitrogen on NH2-MIL-101(Cr)
DOI: 10.1016/j.jcat.2013.08.001
Adsorbate Nitrogen: InChIKey IJGRMHOSHXDMSA-UHFFFAOYSA-N
Temperature: 77 K
Tabular data in the source: 0
pressure (bar)	uptake (cm3(STP)/g)
0.00372489	288.354
0.00801532	331.259
0.015166	379.883
0.0394785	441.38
0.0680813	495.725
0.105265	558.651
0.128147	607.276
0.138158	628.728
0.176772	658.761
0.208235	685.934
0.215386	723.118
0.223967	733.129
0.299764	748.86
0.405595	763.162
0.532878	780.323
0.65873	791.765
0.75884	806.066
0.876112	824.658
0.927597	847.54
0.95048	870.423
0.960491	894.735
0.970502	934.779
