Adsorption isotherm of Nitrogen on PMA-MIL-101(Cr)
DOI: 10.1016/j.jcat.2013.08.001
Adsorbate Nitrogen: InChIKey IJGRMHOSHXDMSA-UHFFFAOYSA-N
Temperature: 77 K
Tabular data in the source: 0
pressure (bar)	uptake (cm3(STP)/g)
0.00229475	205.406
0.0165962	265.472
0.0480593	322.678
0.095254	368.442
0.119566	378.453
0.162471	412.777
0.209665	422.788
0.288323	435.659
0.387003	441.38
0.484253	447.1
0.587223	457.111
0.685903	458.541
0.784583	467.122
0.881833	477.133
0.927597	492.865
0.949049	504.306
0.964781	537.199
0.983373	617.287
0.989093	807.496
