Adsorption isotherm of Nitrogen on NO2-MIL-101(Cr)
DOI: 10.1016/j.jcat.2013.08.001
Adsorbate Nitrogen: InChIKey IJGRMHOSHXDMSA-UHFFFAOYSA-N
Temperature: 77 K
Tabular data in the source: 0
pressure (bar)	uptake (cm3(STP)/g)
0.00229475	274.053
0.0194565	339.839
0.0380483	391.325
0.0566402	429.938
0.105265	515.747
0.115276	532.909
0.15961	558.651
0.199654	587.254
0.203945	625.868
0.218246	633.019
0.269731	641.6
0.404165	660.191
0.55004	674.493
0.673032	683.074
0.796024	695.945
0.873252	711.677
0.943329	737.419
0.971932	787.474
0.981943	870.423
0.989093	990.555
