Adsorption isotherm of Nitrogen on MIL-101
DOI: 10.1142/S1793604712500397
Adsorbate Nitrogen: InChIKey IJGRMHOSHXDMSA-UHFFFAOYSA-N
Temperature: 77 K
Tabular data in the source: 0
pressure (bar)	uptake (cm3(STP)/g)
0.00209832	245.614
0.00419663	305.263
0.00629495	350.877
0.0104916	382.456
0.0188848	421.053
0.0293764	459.649
0.0482613	512.281
0.0755394	568.421
0.0902276	592.982
0.0986208	607.018
0.115407	635.088
0.121702	649.123
0.13639	677.193
0.144784	694.737
0.155275	729.825
0.167865	771.93
0.190947	800
0.235011	835.088
0.251798	845.614
0.264388	887.719
0.274879	922.807
0.302157	940.351
0.346222	950.877
0.39868	954.386
0.444843	961.404
0.495202	964.912
0.545562	971.93
0.59802	975.439
0.646281	975.439
0.692444	978.947
0.744902	982.456
0.791065	985.965
0.839326	989.474
0.889686	992.982
0.931652	992.982
0.961028	996.491
