Adsorption isotherm of Nitrogen on 2.0%Pd@MIL-101
DOI: 10.1142/S1793604712500397
Adsorbate Nitrogen: InChIKey IJGRMHOSHXDMSA-UHFFFAOYSA-N
Temperature: 77 K
Tabular data in the source: 0
pressure (bar)	uptake (cm3(STP)/g)
0.00209832	164.912
0.00419663	231.579
0.00629495	270.175
0.0104916	305.263
0.0167865	329.825
0.0293764	364.912
0.0461629	403.509
0.073441	438.596
0.0965225	466.667
0.119604	494.737
0.138489	522.807
0.159472	564.912
0.169964	589.474
0.197242	610.526
0.243405	645.614
0.270683	694.737
0.283273	722.807
0.302157	726.316
0.350419	729.825
0.396582	733.333
0.449039	740.351
0.497301	740.351
0.54766	743.86
0.595922	743.86
0.646281	747.368
0.694542	750.877
0.740705	754.386
0.791065	750.877
0.841424	750.877
0.887587	754.386
0.948439	757.895
0.973618	757.895
