Adsorption isotherm of N-Hexane on MIL-53(Fe)-Cl
DOI: 10.1021/Jp205369t
Adsorbate N-Hexane: InChIKey VLKZOEOYAKHREP-UHFFFAOYSA-N
Temperature: 313 K
Tabular data in the source: 0
pressure (bar)	uptake (molecules/unitcell)
0.00153399	0.267889
0.00160142	0.543401
0.00313729	0.818943
0.00393706	1.08682
0.00473871	1.36234
0.00554035	1.63787
0.00706685	1.87515
0.0129724	2.00537
0.0218037	2.08974
0.0306311	2.1588
0.039453	2.2049
0.0475369	2.23568
0.0614945	2.26658
0.0725097	2.27446
0.0850008	2.31299
0.0952836	2.32851
0.108503	2.34409
0.118788	2.36726
0.132742	2.38285
0.137147	2.38294
0.147434	2.41377
0.158451	2.4293
0.169468	2.44484
0.178282	2.46033
0.187831	2.47583
0.197377	2.48368
0.209127	2.49158
0.217205	2.4994
0.223817	2.51484
0.242912	2.5382
0.262007	2.56155
0.275959	2.56949
0.290647	2.5851
0.311213	2.61614
0.32223	2.63168
0.328842	2.64712
0.339863	2.67796
