Adsorption isotherm of N-Heptane on MIL-53(Fe)-CH3
DOI: 10.1021/Jp205369t
Adsorbate N-Heptane: InChIKey IMNFDUFMRHMDMM-UHFFFAOYSA-N
Temperature: 313 K
Tabular data in the source: 0
pressure (bar)	uptake (molecules/unitcell)
7.69e-05	0.971522
0.000797112	1.06753
0.00127893	1.15289
0.00294754	1.22744
0.00485199	1.28062
0.00746817	1.32305
0.0103202	1.34409
0.0126997	1.39722
0.0167394	1.41814
0.0191172	1.44992
0.0203141	1.56723
0.0215136	1.71656
0.0217452	1.64181
0.023183	1.8018
0.0248508	1.86567
0.0267536	1.8975
0.028893	1.91862
0.0310316	1.92907
0.0331702	1.93952
0.0355472	1.96062
0.0376866	1.98174
0.041012	1.98139
0.0433881	1.99181
0.0457642	2.00223
0.0559796	2.02249
0.0583557	2.03292
0.0607319	2.04334
0.0631071	2.04308
0.0673835	2.0533
0.0695212	2.05308
0.0718965	2.05282
0.0742718	2.05257
0.0764095	2.05234
0.0785481	2.06279
0.0799741	2.07331
0.0809234	2.06253
0.0832995	2.07296
0.0854373	2.07273
0.0878125	2.07248
0.0901878	2.07222
0.0925631	2.07197
0.0947009	2.07174
0.0951768	2.08237
0.097077	2.08216
0.0982655	2.09271
0.0994522	2.08191
