Adsorption isotherm of N-Butane on MIL-53(Fe)-Cl
DOI: 10.1021/Jp205369t
Adsorbate N-Butane: InChIKey IJDNQMDRQITEOD-UHFFFAOYSA-N
Temperature: 303 K
Tabular data in the source: 0
pressure (bar)	uptake (molecules/unitcell)
0.00499002	2.027
0.0199601	2.25665
0.0299401	2.51335
0.0499002	2.68892
0.0798403	2.81038
0.10479	2.89133
0.179641	2.98552
0.249501	3.10676
0.369261	3.16017
0.503992	3.25403
0.618762	3.28044
0.753493	3.30674
0.873253	3.34663
1.01796	3.37288
1.12774	3.3858
1.35729	3.4251
1.40719	3.42483
1.63174	3.43713
1.79641	3.46326
1.84631	3.46299
1.93114	3.46253
2.00599	3.47564
