Adsorption isotherm of N-Octane on MIL-53(Fe)-Cl
DOI: 10.1021/Jp205369t
Adsorbate N-Octane: InChIKey TVMXDCGIABBOFY-UHFFFAOYSA-N
Temperature: 313 K
Tabular data in the source: 0
pressure (bar)	uptake (molecules/unitcell)
0.000483092	0.992754
0.00120773	1.16534
0.00144928	1.32718
0.00193237	1.41346
0.00289855	1.49969
0.00483092	1.55344
0.00772947	1.5855
0.00990338	1.60684
0.0123188	1.61738
0.0147343	1.61712
0.0166667	1.63849
0.0202899	1.6381
0.0229469	1.63781
0.0258454	1.64829
0.0294686	1.65869
0.0316425	1.66925
0.0350242	1.66888
0.0374396	1.66862
0.0388889	1.66847
0.0398551	1.68994
