Adsorption isotherm of N-Butane on MIL-53(Fe)-Cl
DOI: 10.1021/Jp205369t
Adsorbate N-Butane: InChIKey IJDNQMDRQITEOD-UHFFFAOYSA-N
Temperature: 303 K
Tabular data in the source: 0
pressure (bar)	uptake (molecules/unitcell)
0.0267046	0.912409
0.0528752	1.80657
0.20616	2.0438
0.502047	2.15328
0.505786	2.28102
0.805946	2.5365
0.815026	2.84672
0.968845	3.10219
1.11946	3.24818
