Adsorption isotherm of N-Hexane on MIL-53(Fe)-Br
DOI: 10.1021/Jp205369t
Adsorbate N-Hexane: InChIKey VLKZOEOYAKHREP-UHFFFAOYSA-N
Temperature: 313 K
Tabular data in the source: 0
pressure (bar)	uptake (molecules/unitcell)
0.00506024	1.36462
0.00843373	1.44043
0.0118072	1.61372
0.0125301	1.80866
0.0139759	1.9278
0.0151807	1.99278
0.0168675	2.11191
0.0185542	2.15523
0.0214458	2.20939
0.0238554	2.23105
0.0257831	2.25271
0.0281928	2.26354
0.033012	2.2852
0.0373494	2.30686
0.0416867	2.32852
0.0457831	2.33935
0.0491566	2.35018
0.0537349	2.36101
0.0585542	2.37184
0.0614458	2.38267
0.0638554	2.38267
0.0655422	2.38267
0.0679518	2.3935
0.0720482	2.40433
0.0744578	2.40433
0.0768675	2.41516
0.0826506	2.42599
0.0850602	2.42599
0.0903614	2.42599
0.0915663	2.43682
0.0939759	2.43682
0.0956627	2.43682
0.0980723	2.44765
0.1	2.43682
0.130044	2.46992
0.143158	2.49248
0.157364	2.50376
0.169385	2.51504
0.178128	2.53759
0.185777	2.54887
0.205448	2.56015
0.222933	2.58271
0.238232	2.59398
0.265552	2.60526
0.285223	2.6391
0.302708	2.66165
0.3191	2.67293
0.331121	2.70677
0.343141	2.71805
0.350791	2.75188
0.356255	2.85338
