Adsorption isotherm of N-Butane on MIL-53(Fe)-CH3
DOI: 10.1021/Jp205369t
Adsorbate N-Butane: InChIKey IJDNQMDRQITEOD-UHFFFAOYSA-N
Temperature: 303 K
Tabular data in the source: 0
pressure (bar)	uptake (molecules/unitcell)
0.00740136	2.64305
0.0222726	2.86104
0.0522892	3.02452
0.0722866	3.14714
0.102385	3.22888
0.162638	3.33787
0.248	3.48774
0.363598	3.58311
0.49929	3.70572
0.625003	3.74659
0.745659	3.81471
0.901567	3.84196
0.99207	3.88283
1.13794	3.88283
1.24354	3.92371
1.36926	3.95095
1.48996	3.9782
1.64085	3.99183
1.74649	3.99183
1.87727	3.99183
1.99801	3.9782
