Adsorption isotherm of Methane on MIL-53(Fe)-CH3
DOI: 10.1021/Jp205369t
Adsorbate Methane: InChIKey VNWKTOKETHGBQD-UHFFFAOYSA-N
Temperature: 303 K
Tabular data in the source: 0
pressure (bar)	uptake (molecules/unitcell)
0.279579	0.179837
0.559734	0.310627
0.698661	0.474114
1.04943	0.588556
1.75001	0.899183
2.52024	1.2752
3.64259	1.65123
4.97505	2.12534
6.16898	2.40327
7.57359	2.73025
8.55701	2.94278
9.9622	3.22071
11.1573	3.40054
12.493	3.59673
13.6883	3.76022
14.8833	3.94005
16.1496	4.0545
17.5561	4.21798
18.6111	4.33243
19.9478	4.44687
22.1992	4.6267
24.943	4.85559
27.4061	5.00272
29.9392	5.18256
