Adsorption isotherm of N-Heptane on MIL-53(Fe)-Cl
DOI: 10.1021/Jp205369t
Adsorbate N-Heptane: InChIKey IMNFDUFMRHMDMM-UHFFFAOYSA-N
Temperature: 313 K
Tabular data in the source: 0
pressure (bar)	uptake (molecules/unitcell)
0.000170662	0.810449
0.000204655	0.473912
0.000405842	0.982165
0.00519963	1.02364
0.0102494	1.03078
0.0122696	1.03089
0.0140366	1.03786
0.0165625	1.03113
0.0190878	1.03127
0.021613	1.03141
0.0246433	1.03157
0.0264102	1.03854
0.0289362	1.03181
0.0314614	1.03195
0.0339867	1.03209
0.0370169	1.03225
0.0387839	1.03922
0.0413098	1.03249
0.0438351	1.03263
0.0463603	1.03277
0.0501482	1.03298
0.0516633	1.03306
0.0541886	1.0332
0.0567138	1.03334
0.059239	1.03347
0.0617643	1.03361
0.0642895	1.03375
0.0668148	1.03389
0.06934	1.03403
0.0718652	1.03417
0.074138	1.03429
0.0759056	1.03439
0.0784309	1.03453
0.0809561	1.03467
0.0834813	1.03481
0.0860066	1.03495
0.0885318	1.03508
0.091057	1.03522
0.0935816	1.04223
0.0961068	1.04237
0.0986321	1.04251
0.101157	1.04265
0.103683	1.04278
0.106208	1.04292
0.110248	1.04315
