Adsorption isotherm of Ethane on MIL-53(Fe)-Cl
DOI: 10.1021/Jp205369t
Adsorbate Ethane: InChIKey OTMSDBZUPAUEDD-UHFFFAOYSA-N
Temperature: 303 K
Tabular data in the source: 0
pressure (bar)	uptake (molecules/unitcell)
0.0745656	0.456562
0.0781798	0.817977
0.15712	1.71204
0.44454	2.45405
0.658726	2.87264
0.941581	3.15812
2.56034	4.034
5.01587	4.58697
7.60874	4.8737
8.86969	4.96949
10.0607	5.06525
11.4612	5.12308
12.5818	5.18075
13.9826	5.2576
15.103	5.29625
16.3635	5.354
17.6241	5.41175
18.6043	5.43131
20.0745	5.45113
22.2451	5.50937
25.1159	5.58702
27.9861	5.6076
30.0865	5.64679
