Adsorption isotherm of N-Hexane on MIL-53(Fe)-Br
DOI: 10.1021/Jp205369t
Adsorbate N-Hexane: InChIKey VLKZOEOYAKHREP-UHFFFAOYSA-N
Temperature: 313 K
Tabular data in the source: 0
pressure (bar)	uptake (molecules/unitcell)
0.00100756	0.00100756
0.00302267	1.95563
0.00403023	2.01706
0.0201511	2.11945
0.0493703	2.17065
0.070529	2.2116
0.100756	2.20137
0.123929	2.2116
0.147103	2.22184
0.174307	2.24232
0.200504	2.25256
0.249874	2.29352
0.275063	2.28328
0.300252	2.28328
0.327456	2.28328
0.35063	2.28328
