Adsorption isotherm of N-propane on MIL-53(Fe)-Cl
DOI: 10.1021/Jp205369t
Adsorbate N-propane: InChIKey ATUOYWHBWRKTHZ-UHFFFAOYSA-N
Temperature: 303 K
Tabular data in the source: 0
pressure (bar)	uptake (molecules/unitcell)
0	1.83784
0.048	2.31081
0.072	2.56757
0.096	2.7027
0.216	2.97297
0.312	3.2027
0.504	3.39189
0.744	3.51351
1.008	3.60811
1.512	3.68919
1.992	3.77027
2.544	3.82432
3	3.89189
3.432	3.89189
4.008	3.94595
4.872	3.97297
6	4.04054
6.984	4.06757
7.992	4.09459
9.072	4.12162
10.008	4.14865
