Adsorption isotherm of N-Heptane on MIL-53(Fe)-Br
DOI: 10.1021/Jp205369t
Adsorbate N-Heptane: InChIKey IMNFDUFMRHMDMM-UHFFFAOYSA-N
Temperature: 313 K
Tabular data in the source: 0
pressure (bar)	uptake (molecules/unitcell)
0.000121652	1.20192
0.00013625	1.34615
0.000171008	1.68956
0.000937764	1.76511
0.00524773	1.84753
0.0103161	1.92308
0.0125934	1.92308
0.0141116	1.92308
0.0166427	1.92995
0.0191731	1.92995
0.0217041	1.93681
0.0265125	1.94368
0.0290429	1.94368
0.0315739	1.95055
0.0341043	1.95055
0.0366347	1.95055
0.0447325	1.95742
0.0472629	1.95742
0.0515645	1.95742
0.0540949	1.95742
0.0566252	1.95742
0.0591556	1.95742
0.061686	1.95742
0.0642163	1.95742
0.0667467	1.95742
0.0692771	1.95742
0.0718074	1.95742
0.0745908	1.95742
0.0761091	1.95742
0.0786401	1.96429
0.0811712	1.97115
0.0837015	1.97115
0.0859789	1.97115
0.0885099	1.97802
0.0910403	1.97802
0.0935713	1.98489
0.0961024	1.99176
0.0986328	1.99176
0.100405	1.99863
