Adsorption isotherm of N-Nonane on MIL-53(Fe)-NH2
DOI: 10.1021/Jp205369t
Adsorbate N-Nonane: InChIKey BKIMMITUMNQMOS-UHFFFAOYSA-N
Temperature: 313 K
Tabular data in the source: 0
pressure (bar)	uptake (molecules/unitcell)
0.000528407	0.0389755
0.00102843	0.0489978
0.00202083	0.0612472
0.00350015	0.0701559
0.00547185	0.0812918
0.00891742	0.0957684
0.0108924	0.110245
0.0138445	0.121381
