Adsorption isotherm of N-Octane on MIL-53(Fe)-CH3
DOI: 10.1021/Jp205369t
Adsorbate N-Octane: InChIKey TVMXDCGIABBOFY-UHFFFAOYSA-N
Temperature: 313 K
Tabular data in the source: 0
pressure (bar)	uptake (molecules/unitcell)
0.000297544	0.757975
0.000780207	0.854009
0.00197376	0.928615
0.00411405	0.960415
0.00601596	0.981564
0.0081554	1.00269
0.0102948	1.02381
0.0119592	1.04499
0.0133835	1.03416
0.0150522	1.10871
0.0162516	1.25805
0.0174486	1.37536
0.0193539	1.43921
0.0210182	1.46039
0.0233944	1.47081
0.0255338	1.49194
0.0279099	1.50236
0.0302852	1.5021
0.0324238	1.51255
0.0347999	1.52298
0.0371752	1.52272
0.0395505	1.52247
