Adsorption isotherm of N-Butane on MIL-53(Fe)-Br
DOI: 10.1021/Jp205369t
Adsorbate N-Butane: InChIKey IJDNQMDRQITEOD-UHFFFAOYSA-N
Temperature: 303 K
Tabular data in the source: 0
pressure (bar)	uptake (molecules/unitcell)
0.00499002	0.929919
0.0149701	1.23989
0.0449102	1.26685
0.10479	1.28032
0.174651	1.28032
0.244511	1.30728
0.279441	1.30728
0.329341	1.30728
0.379242	1.30728
0.429142	1.30728
0.479042	1.32075
0.533932	1.32075
0.583832	1.32075
0.633733	1.33423
0.683633	1.33423
0.758483	1.33423
0.783433	1.33423
0.833333	1.34771
0.883234	1.34771
0.933134	1.34771
1.00299	1.33423
1.08782	1.34771
1.13772	1.36119
1.18762	1.36119
1.28244	1.36119
1.33234	1.37466
1.38224	1.37466
1.43214	1.37466
1.502	1.37466
1.53194	1.37466
1.58184	1.37466
1.63174	1.37466
1.68164	1.37466
1.78144	1.38814
1.83134	1.38814
1.88124	1.38814
1.93114	1.38814
2.001	1.38814
