Adsorption isotherm of N-Octane on MIL-53(Fe)-CH3
DOI: 10.1021/Jp205369t
Adsorbate N-Octane: InChIKey TVMXDCGIABBOFY-UHFFFAOYSA-N
Temperature: 313 K
Tabular data in the source: 0
pressure (bar)	uptake (molecules/unitcell)
4.54e-05	0.898072
4.77e-05	0.942149
4.96e-05	0.980716
5.55e-05	1.09642
0.000160884	1.17906
0.000264329	1.22314
0.000469546	1.27824
0.000574943	1.36088
0.000983148	1.427
0.00169221	1.43802
0.00260397	1.45455
0.00351546	1.46556
0.00493414	1.49862
0.00574358	1.49311
0.00675572	1.49311
0.00776815	1.49862
0.00878029	1.49862
0.0100961	1.49862
0.0108046	1.49862
0.0118167	1.49862
0.0128292	1.50413
0.0138413	1.50413
0.0148534	1.50413
0.0158659	1.50964
0.016878	1.50964
0.0178902	1.50964
0.0189023	1.50964
0.0199145	1.50964
0.0209266	1.50964
0.0219387	1.50964
0.02285	1.51515
0.0238621	1.51515
0.0248742	1.51515
0.0258864	1.51515
0.0368181	1.52617
0.0378303	1.52617
0.0400573	1.53168
