Adsorption isotherm of N-Hexane on MIL-53(Fe)-Br
DOI: 10.1021/Jp205369t
Adsorbate N-Hexane: InChIKey VLKZOEOYAKHREP-UHFFFAOYSA-N
Temperature: 313 K
Tabular data in the source: 0
pressure (bar)	uptake (molecules/unitcell)
0.0114085	1.61503
0.0121914	1.81403
0.0188818	2.1509
0.0247761	2.23521
0.0335999	2.28896
0.0416875	2.33505
0.0497676	2.35052
0.0593181	2.37368
0.0718054	2.3969
0.0791532	2.42001
0.0916368	2.42792
0.10339	2.45112
0.114409	2.47431
0.128361	2.48225
0.142315	2.49785
0.155534	2.51343
0.166553	2.53661
0.174632	2.54444
0.193725	2.56014
0.213555	2.58351
0.229711	2.59915
0.250273	2.61488
0.262757	2.62279
0.272305	2.6383
0.283318	2.63852
0.293603	2.6617
0.307559	2.68494
0.315637	2.69277
0.328859	2.716
0.339879	2.74684
0.346491	2.76228
