Adsorption isotherm of Ethane on MIL-53(Fe)-CH3
DOI: 10.1021/Jp205369t
Adsorbate Ethane: InChIKey OTMSDBZUPAUEDD-UHFFFAOYSA-N
Temperature: 303 K
Tabular data in the source: 0
pressure (bar)	uptake (molecules/unitcell)
0.203805	0.847699
0.269636	1.3694
0.477842	1.71709
0.829	1.82557
1.03969	1.89066
2.44643	2.08544
4.91009	2.21434
7.37431	2.27803
12.5146	2.34005
15.0496	2.36022
17.5143	2.38043
19.9789	2.40063
22.5141	2.39906
24.9785	2.44101
27.5137	2.43943
30.1192	2.45955
