Adsorption isotherm of N-Octane on MIL-53(Fe)-Cl
DOI: 10.1021/Jp205369t
Adsorbate N-Octane: InChIKey TVMXDCGIABBOFY-UHFFFAOYSA-N
Temperature: 313 K
Tabular data in the source: 0
pressure (bar)	uptake (molecules/unitcell)
0.000275743	0.24644
0.000398295	0.133747
0.00042619	0.56332
0.000433963	0.683037
0.000543712	0.373163
0.00057938	0.922454
0.000701932	0.80976
0.00110709	1.04914
0.00137368	1.15474
0.0016412	1.27442
0.00203675	1.36591
0.00282236	1.46439
0.00360523	1.52062
0.00555601	1.5626
0.00763529	1.58343
0.0104938	1.60416
0.0130921	1.61787
0.0160795	1.6245
0.0175085	1.63134
0.0207557	1.63792
0.0232237	1.64462
0.0255613	1.64429
0.0272496	1.64405
0.0303674	1.65769
0.0329643	1.65029
0.0358219	1.65693
0.0368608	1.65678
0.0380301	1.66366
0.0391994	1.67054
0.0403687	1.67741
