Adsorption isotherm of Ethane on MIL-53(Fe)-Cl
DOI: 10.1021/Jp205369t
Adsorbate Ethane: InChIKey OTMSDBZUPAUEDD-UHFFFAOYSA-N
Temperature: 303 K
Tabular data in the source: 0
pressure (bar)	uptake (molecules/unitcell)
0.441695	0.0912409
1.17661	0.20073
1.32722	0.346715
1.6402	1.04015
1.95798	1.89781
2.84404	2.17153
3.87004	2.22628
5.18871	2.28102
6.35998	2.29927
7.53231	2.35401
7.97241	2.39051
9.43689	2.42701
10.7545	2.44526
12.0732	2.5
13.246	2.57299
14.2747	2.71898
16.1974	3.41241
16.6418	3.59489
16.9393	3.75912
17.0899	3.90511
17.976	4.17883
18.5661	4.34307
20.0392	4.67153
