Adsorption isotherm of Ethane on MIL-53(Fe)-CH3
DOI: 10.1021/Jp205369t
Adsorbate Ethane: InChIKey OTMSDBZUPAUEDD-UHFFFAOYSA-N
Temperature: 303 K
Tabular data in the source: 0
pressure (bar)	uptake (molecules/unitcell)
0.0583668	1.36953
0.061046	1.06518
0.259876	2.4781
0.397277	2.86932
0.534487	3.28228
0.671123	3.76045
0.950135	4.06463
1.65111	4.43376
2.42155	4.91154
4.9518	5.47519
7.48454	5.75622
10.018	5.9503
12.4813	6.12268
14.9454	6.20811
17.5506	6.24997
20.0147	6.33539
22.2676	6.39921
24.8727	6.46281
27.7598	6.48276
29.9426	6.52488
