Adsorption isotherm of N-Heptane on MIL-53(Fe)-NH2
DOI: 10.1021/Jp205369t
Adsorbate N-Heptane: InChIKey IMNFDUFMRHMDMM-UHFFFAOYSA-N
Temperature: 313 K
Tabular data in the source: 0
pressure (bar)	uptake (molecules/unitcell)
0.00105572	0.0768374
0.00106992	0.091314
0.00451221	0.10245
0.00698065	0.120267
0.0123859	0.13363
0.0202498	0.154788
0.0310636	0.184855
0.0492358	0.22049
0.0757599	0.275056
0.0998253	0.321826
0.11896	0.339644
