Adsorption isotherm of Methane on MIL-53(Fe)-Cl
DOI: 10.1021/Jp205369t
Adsorbate Methane: InChIKey VNWKTOKETHGBQD-UHFFFAOYSA-N
Temperature: 303 K
Tabular data in the source: 0
pressure (bar)	uptake (molecules/unitcell)
1.90404	0.0547445
2.63575	0.0547445
4.24657	0.0912409
6.00427	0.145985
7.46822	0.164234
9.95816	0.237226
10.3977	0.255474
11.7164	0.310219
12.156	0.328467
13.4746	0.383212
14.9391	0.419708
16.4047	0.492701
18.164	0.60219
19.4832	0.675182
20.8051	0.839416
21.8353	1.04015
22.5745	1.29562
23.1647	1.45985
23.608	1.60584
24.1981	1.77007
25.0826	1.98905
25.5238	2.06204
26.4061	2.20803
26.7004	2.26277
27.7285	2.39051
28.7561	2.5
30.0764	2.60949
31.5419	2.68248
33.0059	2.70073
35.2021	2.73723
36.5202	2.77372
37.9842	2.79197
40.1803	2.82847
41.498	2.84672
43.2551	2.88321
44.7191	2.90146
46.9153	2.93796
48.3792	2.9562
50.1358	2.97445
