Adsorption isotherm of N-Nonane on MIL-53(Fe)-Cl
DOI: 10.1021/Jp205369t
Adsorbate N-Nonane: InChIKey BKIMMITUMNQMOS-UHFFFAOYSA-N
Temperature: 313 K
Tabular data in the source: 0
pressure (bar)	uptake (molecules/unitcell)
0	0.84
3.14e-05	0.797134
0.000125786	0.917107
0.000314465	0.947053
0.000534591	0.964133
0.000691824	0.985517
0.00100629	1.01114
0.00138365	1.03675
0.00160377	1.03668
0.00191824	1.04088
0.00371069	1.05323
0.00402516	1.05314
0.00433962	1.05305
0.00465409	1.05296
0.00522013	1.05279
0.00553459	1.0527
0.00584906	1.05261
0.00616352	1.05252
0.00647799	1.05243
0.00679245	1.05235
0.00710692	1.05226
0.00742138	1.05217
0.00773585	1.05636
0.00805031	1.05627
0.00836478	1.05618
0.00867925	1.05609
0.00899371	1.056
0.00930818	1.05591
0.00962264	1.05582
0.0100314	1.05999
