Adsorption isotherm of N-Hexane on MIL-53(Fe)-Cl
DOI: 10.1021/Jp205369t
Adsorbate N-Hexane: InChIKey VLKZOEOYAKHREP-UHFFFAOYSA-N
Temperature: 313 K
Tabular data in the source: 0
pressure (bar)	uptake (molecules/unitcell)
0.00120773	0.269654
0.00193237	0.550151
0.0031401	0.819805
0.00386473	1.16505
0.00458937	1.37001
0.00555556	1.6289
0.00628019	1.75832
0.00724638	1.88771
0.0103865	1.95212
0.0147343	2.0164
0.0169082	2.04854
0.0193237	2.06986
0.0246377	2.12324
0.0270531	2.13377
0.0352657	2.18684
0.0376812	2.18658
0.0410628	2.2078
0.0434783	2.21833
0.0478261	2.22865
0.0502415	2.22839
0.0512077	2.23908
0.0536232	2.23882
0.0555556	2.23861
0.057971	2.24914
0.0615942	2.25954
0.0640097	2.25928
0.0666667	2.26978
0.0690821	2.26952
0.0729469	2.26911
0.0753623	2.27964
0.0777778	2.29017
0.0801932	2.28991
0.0842995	2.30026
0.086715	2.29999
0.0874396	2.29992
0.0898551	2.31045
0.0922705	2.31019
0.0968599	2.32048
0.0992754	2.32022
