Adsorption isotherm of N-Hexane on MIL-53(Fe)-Br
DOI: 10.1021/Jp205369t
Adsorbate N-Hexane: InChIKey VLKZOEOYAKHREP-UHFFFAOYSA-N
Temperature: 313 K
Tabular data in the source: 0
pressure (bar)	uptake (molecules/unitcell)
0.00100756	1.12628
0.00403023	1.19795
0.0201511	1.31058
0.0503778	1.45392
0.070529	1.46416
0.0997481	1.48464
0.124937	1.4744
0.153149	1.4744
0.18539	1.4744
0.199496	1.48464
0.227708	1.48464
0.250882	1.49488
0.280101	1.48464
0.299244	1.48464
0.327456	1.49488
0.35063	1.48464
