Adsorption isotherm of N-Heptane on MIL-53(Fe)-CH3
DOI: 10.1021/Jp205369t
Adsorbate N-Heptane: InChIKey IMNFDUFMRHMDMM-UHFFFAOYSA-N
Temperature: 313 K
Tabular data in the source: 0
pressure (bar)	uptake (molecules/unitcell)
0.000520631	0.143836
0.000814569	0.547945
0.00157922	0.60274
0.00259761	0.664384
0.00336365	0.732877
0.004129	0.794521
0.00489643	0.876712
0.00641811	0.910959
0.00844587	0.945205
0.0102206	0.979452
0.0122463	0.993151
0.0140189	1.00685
0.0162983	1.0274
0.0188308	1.04795
0.0211102	1.06849
0.0249085	1.09589
0.0264274	1.10274
0.0289585	1.10959
0.0314895	1.11644
0.0337675	1.12329
0.0370577	1.13014
0.0388297	1.13699
0.04136	1.13699
0.0436373	1.13699
0.0461684	1.14384
0.0499646	1.15068
0.0519889	1.15068
0.05452	1.15753
0.0570511	1.16438
0.0593284	1.16438
0.0618594	1.17123
0.0643905	1.17808
0.0669216	1.18493
0.0694519	1.18493
0.071983	1.19178
0.074261	1.19863
0.0760316	1.19178
0.0785619	1.19178
0.0810923	1.19178
0.0836226	1.19178
0.086153	1.19178
0.0886834	1.19178
0.0912137	1.19178
0.0937441	1.19178
0.0962745	1.19178
0.0988048	1.19178
0.100323	1.19178
