Adsorption isotherm of Ethane on MIL-53(Fe)-Cl
DOI: 10.1021/Jp205369t
Adsorbate Ethane: InChIKey OTMSDBZUPAUEDD-UHFFFAOYSA-N
Temperature: 303 K
Tabular data in the source: 0
pressure (bar)	uptake (molecules/unitcell)
0.151224	1.12236
0.367692	1.76922
0.929788	1.97877
2.8917	2.17005
3.59208	2.20847
6.18305	2.30499
6.88324	2.32439
7.58325	2.32477
10.0336	2.36415
10.3836	2.36434
11.0838	2.38374
11.7838	2.38412
12.8335	2.34665
13.394	2.40402
14.094	2.4044
15.0042	2.42392
15.4242	2.42414
16.1242	2.42452
16.8242	2.4249
17.9444	2.44454
18.6444	2.44492
19.3445	2.4453
20.0445	2.44568
22.7747	2.46618
24.9445	2.44834
25.3645	2.44857
26.0647	2.46797
26.7647	2.46835
27.4647	2.46873
28.1649	2.48813
28.8649	2.48851
29.5649	2.48889
29.9849	2.48912
