Adsorption isotherm of N-Heptane on MIL-53(Fe)-CH3
DOI: 10.1021/Jp205369t
Adsorbate N-Heptane: InChIKey IMNFDUFMRHMDMM-UHFFFAOYSA-N
Temperature: 313 K
Tabular data in the source: 0
pressure (bar)	uptake (molecules/unitcell)
0.000110227	1.08904
0.000124092	1.22603
0.000395153	1.40411
0.00116327	1.49315
0.00496853	1.58904
0.0102899	1.66438
0.0125672	1.66438
0.0140862	1.67123
0.0166172	1.67808
0.0191483	1.68493
0.021427	1.69863
0.0244641	1.70548
0.0264898	1.71918
0.0290215	1.73288
0.0312996	1.73973
0.0338313	1.75342
0.0368698	1.77397
0.0388948	1.78082
0.0414259	1.78767
0.0439569	1.79452
0.046235	1.80137
0.0500312	1.80822
0.0520562	1.81507
0.0545872	1.82192
0.0571176	1.82192
0.0596487	1.82877
0.0619267	1.83562
0.064457	1.83562
0.0669881	1.84247
0.0695185	1.84247
0.0720495	1.84932
0.0743269	1.84932
0.0760988	1.85616
0.0786306	1.86986
0.0809086	1.87671
0.0834396	1.88356
0.0859707	1.89041
0.0885017	1.89726
0.0907805	1.91096
0.0933108	1.91096
0.0958426	1.92466
0.0981206	1.93151
0.100399	1.94521
