Adsorption isotherm of Ethane on MIL-53(Fe)-Br
DOI: 10.1021/Jp205369t
Adsorbate Ethane: InChIKey OTMSDBZUPAUEDD-UHFFFAOYSA-N
Temperature: 303 K
Tabular data in the source: 0
pressure (bar)	uptake (molecules/unitcell)
0.292683	0.255474
0.439024	1.29562
0.585366	1.44161
0.878049	1.53285
1.31707	1.75182
1.90244	1.95255
3.07317	2.08029
3.80488	2.13504
4.82927	2.18978
7.46341	2.29927
9.95122	2.37226
12.439	2.42701
14.9268	2.48175
17.4146	2.55474
18.5854	2.60949
19.9024	2.73723
22.5366	3.21168
24.439	3.61314
