Adsorption isotherm of N-Butane on MIL-53(Fe)-Br
DOI: 10.1021/Jp205369t
Adsorbate N-Butane: InChIKey IJDNQMDRQITEOD-UHFFFAOYSA-N
Temperature: 303 K
Tabular data in the source: 0
pressure (bar)	uptake (molecules/unitcell)
0	1.07664
0.146341	1.87956
0.292683	2.18978
0.439024	2.57299
0.585366	3.12044
1.02439	3.64964
1.46341	3.83212
