Adsorption isotherm of Methane on MIL-53(Fe)-CH3
DOI: 10.1021/Jp205369t
Adsorbate Methane: InChIKey VNWKTOKETHGBQD-UHFFFAOYSA-N
Temperature: 303 K
Tabular data in the source: 0
pressure (bar)	uptake (molecules/unitcell)
1.8932	0.0436364
3.49515	0.0654545
4.95146	0.0872727
7.28155	0.196364
9.17476	0.24
9.75728	0.370909
10.9223	0.48
11.7961	0.654545
12.6699	0.829091
13.5437	1.00364
14.4175	1.15636
15.2913	1.33091
16.165	1.50545
18.0583	1.83273
19.3689	1.92
22.8641	2.02909
25.0485	2.11636
27.6699	2.16
30	2.24727
31.4563	2.26909
32.9126	2.29091
34.9515	2.31273
