Adsorption isotherm of N-propane on MIL-53(Fe)-Br
DOI: 10.1021/Jp205369t
Adsorbate N-propane: InChIKey ATUOYWHBWRKTHZ-UHFFFAOYSA-N
Temperature: 303 K
Tabular data in the source: 0
pressure (bar)	uptake (molecules/unitcell)
0.0527338	0.91196
0.195924	1.45017
0.283456	1.52492
0.987125	1.59967
2.07241	1.64452
3.01119	1.65947
4.00855	1.68937
5.006	1.70432
5.97412	1.71927
7.2063	1.73422
7.99838	1.74917
9.11329	1.74917
9.99339	1.76412
