Adsorption isotherm of N-Hexane on MIL-53(Fe)-NH2
DOI: 10.1021/Jp205369t
Adsorbate N-Hexane: InChIKey VLKZOEOYAKHREP-UHFFFAOYSA-N
Temperature: 313 K
Tabular data in the source: 0
pressure (bar)	uptake (molecules/unitcell)
0.00149091	0.0918676
0.00443715	0.130194
0.00737777	0.145561
0.0147256	0.168672
0.0228076	0.191799
0.0367652	0.222701
0.0558624	0.253709
0.0756938	0.284732
0.0933207	0.308056
0.121225	0.323941
0.149861	0.332187
0.18217	0.348163
0.216682	0.364184
0.24973	0.395481
0.282043	0.426763
0.31362	0.450377
0.345199	0.481643
