Adsorption isotherm of Methane on MIL-53(Fe)-Cl
DOI: 10.1021/Jp205369t
Adsorbate Methane: InChIKey VNWKTOKETHGBQD-UHFFFAOYSA-N
Temperature: 303 K
Tabular data in the source: 0
pressure (bar)	uptake (molecules/unitcell)
0.274277	0.243169
0.549109	0.430188
0.75514	0.57981
1.03016	0.748112
1.71816	1.12208
2.47497	1.53344
3.16426	1.77638
3.78458	2.00065
4.40471	2.24363
4.95548	2.50537
6.12842	2.80421
7.57729	3.17777
8.61263	3.40181
9.99345	3.66311
11.2367	3.84961
12.4799	4.03611
13.5163	4.14785
14.8979	4.33428
16.211	4.44588
17.4544	4.61366
18.5606	4.66922
19.9427	4.7995
22.4313	4.9479
24.9194	5.15245
27.2011	5.24481
29.8973	5.3931
