Adsorption isotherm of N-propane on MIL-53(Fe)-CH3
DOI: 10.1021/Jp205369t
Adsorbate N-propane: InChIKey ATUOYWHBWRKTHZ-UHFFFAOYSA-N
Temperature: 303 K
Tabular data in the source: 0
pressure (bar)	uptake (molecules/unitcell)
0.436893	0.436893
0.582524	1.76727
1.16505	2.53091
1.74757	2.66182
1.8932	3.36
2.47573	4.01455
3.34951	4.14545
4.66019	4.25455
5.97087	4.34182
7.42718	4.38545
7.86408	4.40727
