Adsorption isotherm of N-Butane on MIL-53(Fe)-4H
DOI: 10.1021/Jp205369t
Adsorbate N-Butane: InChIKey IJDNQMDRQITEOD-UHFFFAOYSA-N
Temperature: 303 K
Tabular data in the source: 0
pressure (bar)	uptake (molecules/unitcell)
0.165631	0.165631
0.248447	0.0238095
0.331263	2.38095
0.745342	2.57143
1.0766	2.66667
1.5735	2.7381
1.73913	2.95238
1.98758	3.19048
2.15321	3.5
