Adsorption isotherm of N-Octane on MIL-53(Fe)-Br
DOI: 10.1021/Jp205369t
Adsorbate N-Octane: InChIKey TVMXDCGIABBOFY-UHFFFAOYSA-N
Temperature: 313 K
Tabular data in the source: 0
pressure (bar)	uptake (molecules/unitcell)
0.000240964	0.000240964
0.00168675	1.01805
0.0026506	1.02888
0.00289157	1.13718
0.00337349	1.35379
0.00385542	1.45126
0.00433735	1.58123
0.00506024	1.6787
0.00771084	1.73285
0.00987952	1.76534
0.0122892	1.787
0.013494	1.79783
0.0156627	1.81949
0.0180723	1.83032
0.020241	1.83032
0.0226506	1.84116
0.0250602	1.86282
0.0274699	1.86282
0.0296386	1.87365
0.0318072	1.87365
0.0337349	1.88448
0.0361446	1.89531
0.0385542	1.90614
