Adsorption isotherm of N-Nonane on MIL-53(Fe)-CH3
DOI: 10.1021/Jp205369t
Adsorbate N-Nonane: InChIKey BKIMMITUMNQMOS-UHFFFAOYSA-N
Temperature: 313 K
Tabular data in the source: 0
pressure (bar)	uptake (molecules/unitcell)
0.000329341	0.471545
0.000389222	0.512195
0.000449102	0.552846
0.000508982	0.601626
0.000628743	0.621951
0.000778443	0.654472
0.000988024	0.707317
0.00140719	0.715447
0.00161677	0.723577
0.00191617	0.731707
0.00212575	0.743902
0.00233533	0.747967
0.00263473	0.752033
0.00284431	0.760163
0.00305389	0.760163
0.00335329	0.768293
0.00374251	0.772358
0.00404192	0.776423
0.00434132	0.776423
0.00464072	0.776423
0.00502994	0.784553
0.00523952	0.780488
0.00553892	0.784553
0.00583832	0.788618
0.00613772	0.788618
0.00640719	0.792683
0.00670659	0.792683
0.00700599	0.792683
0.00730539	0.796748
0.00760479	0.800813
0.00790419	0.800813
0.00820359	0.804878
0.00847305	0.808943
0.00877246	0.808943
0.00907186	0.813008
0.00937126	0.813008
0.00967066	0.813008
0.00997006	0.817073
