Adsorption isotherm of N-Octane on MIL-53(Fe)-4H
DOI: 10.1021/Jp205369t
Adsorbate N-Octane: InChIKey TVMXDCGIABBOFY-UHFFFAOYSA-N
Temperature: 313 K
Tabular data in the source: 0
pressure (bar)	uptake (molecules/unitcell)
0.00845666	0.0359477
0.0118393	0.0490196
0.012685	0.0718954
0.015222	0.0816993
0.0181818	0.0915033
0.0232558	0.104575
0.0262156	0.120915
0.0291755	0.127451
0.0317125	0.137255
0.0342495	0.143791
