Adsorption isotherm of Methane on MIL-53(Fe)-Br
DOI: 10.1021/Jp205369t
Adsorbate Methane: InChIKey VNWKTOKETHGBQD-UHFFFAOYSA-N
Temperature: 303 K
Tabular data in the source: 0
pressure (bar)	uptake (molecules/unitcell)
0.259901	0.217515
0.606436	0.401628
0.779703	0.552212
1.0396	0.669393
1.73267	0.887115
2.59901	1.15509
3.72525	1.32285
4.93812	1.50738
6.23762	1.60833
7.4505	1.69252
8.66337	1.74327
10.0495	1.81082
11.1757	1.8448
12.5619	1.87891
13.7748	1.91294
14.9876	1.93024
16.2005	1.96426
17.5	1.98161
19.0594	2.0158
20.0124	2.03297
22.0916	2.05069
25.2104	2.10235
27.3762	2.1201
29.9752	2.12135
