Adsorption isotherm of N-Nonane on MIL-53(Fe)-4H
DOI: 10.1021/Jp205369t
Adsorbate N-Nonane: InChIKey BKIMMITUMNQMOS-UHFFFAOYSA-N
Temperature: 313 K
Tabular data in the source: 0
pressure (bar)	uptake (molecules/unitcell)
0.0012685	0.0130719
0.00295983	0.0228758
0.00676533	0.0392157
0.00930233	0.0522876
0.0114165	0.0784314
0.012685	0.104575
