Adsorption isotherm of Methane on MIL-53(Fe)-CH3
DOI: 10.1021/Jp205369t
Adsorbate Methane: InChIKey VNWKTOKETHGBQD-UHFFFAOYSA-N
Temperature: 303 K
Tabular data in the source: 0
pressure (bar)	uptake (molecules/unitcell)
0.842768	0.196185
1.12331	0.294278
1.61492	0.408719
2.17715	0.506812
2.5283	0.588556
2.95026	0.637602
3.51249	0.735695
3.93426	0.80109
4.49668	0.882834
5.0591	0.964578
6.1141	1.07902
6.74713	1.14441
7.87293	1.22616
8.43535	1.3079
9.06858	1.35695
11.0389	1.48774
11.7427	1.52044
12.517	1.55313
13.5726	1.61853
14.2764	1.65123
15.6841	1.71662
16.3881	1.73297
17.5143	1.78202
18.359	1.81471
19.063	1.83106
21.3158	1.89646
22.0198	1.91281
22.7238	1.92916
23.3574	1.9455
24.0615	1.96185
25.6808	1.99455
26.3848	2.0109
27.0891	2.0109
28.3563	2.0436
29.0603	2.05995
29.9758	2.05995
