Adsorption isotherm of N-Butane on MIL-53(Fe)-CH3
DOI: 10.1021/Jp205369t
Adsorbate N-Butane: InChIKey IJDNQMDRQITEOD-UHFFFAOYSA-N
Temperature: 303 K
Tabular data in the source: 0
pressure (bar)	uptake (molecules/unitcell)
0.00342655	1.59401
0.0131717	1.90736
0.0332102	1.9891
0.0532761	2.0436
0.0683392	2.07084
0.103537	2.08447
0.153797	2.12534
0.199028	2.16621
0.249289	2.20708
0.274453	2.19346
0.324741	2.20708
0.375029	2.22071
0.420287	2.23433
0.470589	2.23433
0.505787	2.24796
0.525907	2.24796
0.576196	2.26158
0.636544	2.2752
0.686832	2.28883
0.772332	2.30245
0.822633	2.30245
0.872935	2.30245
0.923237	2.30245
0.99869	2.30245
1.10432	2.30245
1.25523	2.30245
1.36085	2.31608
1.41114	2.3297
1.46144	2.3297
1.49664	2.34332
1.52682	2.34332
1.57712	2.34332
1.62741	2.35695
1.67771	2.35695
1.74815	2.34332
1.77831	2.35695
1.82861	2.35695
1.87892	2.35695
1.92922	2.35695
2.00468	2.34332
