Adsorption isotherm of N-Octane on MIL-53(Fe)-Cl
DOI: 10.1021/Jp205369t
Adsorbate N-Octane: InChIKey TVMXDCGIABBOFY-UHFFFAOYSA-N
Temperature: 313 K
Tabular data in the source: 0
pressure (bar)	uptake (molecules/unitcell)
5.72e-05	0.880274
0.000325587	1.01404
0.0026646	1.03484
0.00500498	1.07676
0.0077336	1.0975
0.0103319	1.11122
0.01267	1.11793
0.0163059	1.11038
0.0208513	1.10974
0.0257868	1.11609
0.0291634	1.11561
