Adsorption isotherm of N-Hexane on MIL-53(Fe)-Br
DOI: 10.1021/Jp205369t
Adsorbate N-Hexane: InChIKey VLKZOEOYAKHREP-UHFFFAOYSA-N
Temperature: 313 K
Tabular data in the source: 0
pressure (bar)	uptake (molecules/unitcell)
0.00403023	1.31058
0.00906801	1.44369
0.0130982	1.80205
0.0161209	1.98635
0.0191436	2.13993
0.0261965	2.24232
0.0342569	2.28328
0.0413098	2.32423
0.0503778	2.35495
0.0594458	2.36519
0.0735516	2.3959
0.0806045	2.41638
0.088665	2.42662
0.102771	2.4471
0.116877	2.45734
0.128967	2.46758
0.144081	2.49829
0.156171	2.50853
0.168262	2.51877
0.175315	2.53925
0.18539	2.53925
0.194458	2.55973
0.204534	2.55973
0.215617	2.56997
0.223678	2.5802
0.232746	2.59044
0.238791	2.60068
0.252897	2.60068
0.264987	2.62116
0.275063	2.62116
0.285139	2.64164
0.296222	2.65188
0.302267	2.67235
0.310327	2.67235
0.319395	2.67235
0.324433	2.69283
0.332494	2.72355
0.341562	2.73379
0.348615	2.75427
