Adsorption isotherm of N-Heptane on MIL-53(Fe)-Cl
DOI: 10.1021/Jp205369t
Adsorbate N-Heptane: InChIKey IMNFDUFMRHMDMM-UHFFFAOYSA-N
Temperature: 313 K
Tabular data in the source: 0
pressure (bar)	uptake (molecules/unitcell)
0.000111693	1.39424
0.000123487	1.27748
0.000194943	0.570066
0.000334386	1.68958
0.000818621	1.89565
0.00459815	1.97827
0.00964586	2.00602
0.0119151	2.04049
0.0141885	2.03375
0.0167124	2.04762
0.0189851	2.04775
0.0215096	2.05475
0.0245392	2.06179
0.0263062	2.06875
0.0288321	2.06202
0.0313581	2.05529
0.0338833	2.05543
0.0389345	2.04884
0.041459	2.05585
0.0439842	2.05599
0.0465088	2.06299
0.0497916	2.06318
0.0518111	2.07015
0.0543363	2.07029
0.0568616	2.07043
0.0593868	2.07057
0.061912	2.07071
0.064438	2.06398
0.0669632	2.06412
0.0694885	2.06426
0.0720137	2.0644
0.0740339	2.06451
0.0758009	2.07147
0.0783261	2.07161
0.0808506	2.07862
0.0833752	2.08563
0.0856472	2.09262
0.0881724	2.09276
0.090697	2.09976
0.0929697	2.09989
0.0954936	2.11376
0.0980188	2.1139
0.100543	2.12091
0.103069	2.12105
0.105341	2.12804
0.107865	2.13505
0.110137	2.14204
