Adsorption isotherm of N-Hexane on MIL-53(Fe)-Cl
DOI: 10.1021/Jp205369t
Adsorbate N-Hexane: InChIKey VLKZOEOYAKHREP-UHFFFAOYSA-N
Temperature: 313 K
Tabular data in the source: 0
pressure (bar)	uptake (molecules/unitcell)
0.00166466	1.85664
0.0017078	1.98252
0.004825	2.07692
0.00998796	2.13986
0.0202923	2.2028
0.0367591	2.24476
0.0511586	2.25524
0.069682	2.2972
0.0995056	2.30769
0.124191	2.32867
0.148874	2.33916
0.166362	2.36014
0.176644	2.36014
0.186931	2.37063
0.197217	2.38112
0.206475	2.39161
0.21779	2.4021
0.233214	2.4021
0.250698	2.41259
0.256868	2.41259
0.267151	2.41259
0.281543	2.4021
0.291826	2.4021
0.300052	2.4021
0.317529	2.39161
0.33501	2.39161
0.350434	2.39161
