Adsorption isotherm of N-propane on MIL-53(Fe)-Br
DOI: 10.1021/Jp205369t
Adsorbate N-propane: InChIKey ATUOYWHBWRKTHZ-UHFFFAOYSA-N
Temperature: 303 K
Tabular data in the source: 0
pressure (bar)	uptake (molecules/unitcell)
0	1.60584
0.439024	1.9708
1.31707	2.15328
2.04878	2.28102
2.4878	2.48175
2.78049	2.62774
3.07317	2.82847
3.5122	3.13869
3.80488	3.4854
4.53659	3.64964
4.82927	3.79562
5.41463	3.90511
6.14634	4.05109
7.02439	4.17883
8.04878	4.30657
