Adsorption isotherm of N-propane on MIL-53(Fe)-Cl
DOI: 10.1021/Jp205369t
Adsorbate N-propane: InChIKey ATUOYWHBWRKTHZ-UHFFFAOYSA-N
Temperature: 303 K
Tabular data in the source: 0
pressure (bar)	uptake (molecules/unitcell)
0.048	1.67568
0.096	1.81081
0.312	1.95946
0.768	2.05405
1.008	2.05405
1.248	2.10811
1.488	2.12162
1.728	2.12162
1.992	2.12162
2.136	2.14865
2.376	2.14865
2.616	2.16216
2.856	2.16216
3.024	2.16216
3.144	2.16216
3.384	2.17568
3.984	2.17568
4.296	2.18919
4.536	2.18919
4.776	2.18919
5.016	2.18919
5.256	2.18919
5.496	2.2027
5.736	2.2027
6.024	2.2027
6.144	2.2027
6.384	2.2027
6.624	2.2027
6.864	2.2027
7.104	2.2027
7.344	2.2027
7.584	2.2027
7.824	2.2027
8.016	2.2027
8.136	2.21622
8.376	2.21622
8.616	2.21622
8.856	2.21622
9.096	2.21622
9.336	2.21622
9.576	2.21622
9.816	2.21622
10.008	2.21622
