Adsorption isotherm of N-propane on MIL-53(Fe)-4H
DOI: 10.1021/Jp205369t
Adsorbate N-propane: InChIKey ATUOYWHBWRKTHZ-UHFFFAOYSA-N
Temperature: 303 K
Tabular data in the source: 0
pressure (bar)	uptake (molecules/unitcell)
0.496894	0.496894
0.745342	1.69048
0.910973	2.19048
1.0766	2.45238
1.73913	2.64286
2.48447	2.69048
3.31263	2.7619
4.05797	2.78571
4.88613	2.83333
5.63147	2.83333
6.45963	2.88095
7.20497	2.92857
7.61905	3.04762
8.03313	3.2619
8.4472	3.42857
9.27536	3.7619
