Adsorption isotherm of N-Hexane on MIL-53(Fe)-Cl
DOI: 10.1021/Jp205369t
Adsorbate N-Hexane: InChIKey VLKZOEOYAKHREP-UHFFFAOYSA-N
Temperature: 313 K
Tabular data in the source: 0
pressure (bar)	uptake (molecules/unitcell)
0.00336527	0.818182
0.00448703	1.09091
0.00570227	1.63636
0.00784152	1.87762
0.0130296	2.01399
0.0212882	2.10839
0.0315926	2.17133
0.0398296	2.2028
0.0449782	2.22378
0.0635015	2.26573
0.0727632	2.28671
0.0851097	2.30769
0.0964244	2.31818
0.109799	2.33916
0.120089	2.36014
0.133464	2.38112
0.137577	2.38112
0.148899	2.41259
0.158161	2.43357
0.170504	2.44406
0.179762	2.45455
0.18902	2.46503
0.19725	2.47552
0.209592	2.48601
0.223996	2.50699
0.234286	2.52797
0.254855	2.53846
0.263088	2.55944
0.277488	2.56993
0.296	2.58042
0.300117	2.59091
0.313492	2.61189
0.324806	2.62238
0.332015	2.65385
0.341273	2.66434
