Adsorption isotherm of N-Nonane on MIL-53(Fe)-Br
DOI: 10.1021/Jp205369t
Adsorbate N-Nonane: InChIKey BKIMMITUMNQMOS-UHFFFAOYSA-N
Temperature: 313 K
Tabular data in the source: 0
pressure (bar)	uptake (molecules/unitcell)
0	0.764789
6.22e-05	0.802817
9.34e-05	0.819718
0.000311203	0.849296
0.000497925	0.874648
0.000715768	0.878873
0.000995851	0.887324
0.00140041	0.895775
0.00161826	0.9
0.00177386	0.9
0.00192946	0.908451
0.00301867	0.925352
0.00332988	0.925352
0.00370332	0.929577
0.00401452	0.929577
0.00432573	0.929577
0.00463693	0.933803
0.0051971	0.938028
0.0055083	0.938028
0.0058195	0.938028
0.00613071	0.938028
0.00644191	0.942254
0.00675311	0.942254
0.00706432	0.942254
0.00737552	0.942254
0.00768672	0.946479
0.00799793	0.946479
0.00827801	0.950704
0.00858921	0.950704
0.00890041	0.950704
0.00921162	0.950704
0.00952282	0.95493
0.00998963	0.950704
