Adsorption isotherm of N-Hexane on MIL-53(Fe)-CH3
DOI: 10.1021/Jp205369t
Adsorbate N-Hexane: InChIKey VLKZOEOYAKHREP-UHFFFAOYSA-N
Temperature: 313 K
Tabular data in the source: 0
pressure (bar)	uptake (molecules/unitcell)
0.00252405	0.256958
0.00256699	0.414418
0.00422332	0.489038
0.0058774	0.55537
0.007536	0.638278
0.0100103	0.712915
0.0116689	0.795822
0.0141455	0.878746
0.0158041	0.961653
0.0182785	1.03629
0.0199438	1.14406
0.0256766	1.16904
0.0330477	1.20234
0.0404187	1.23564
0.0502505	1.29386
0.0559765	1.29398
0.0641633	1.31901
0.0756221	1.34411
0.0838044	1.35257
0.0911709	1.36929
0.100173	1.38605
0.105902	1.39446
0.114082	1.39463
0.122264	1.40309
0.130444	1.40326
0.138626	1.41171
0.14599	1.42015
0.154171	1.42032
0.162353	1.42878
0.170533	1.42895
0.178715	1.4374
0.186897	1.44586
0.195077	1.44603
0.199988	1.45442
0.205714	1.45454
0.213894	1.45471
0.222074	1.45488
0.230254	1.45505
0.238436	1.4635
0.251524	1.46377
0.255614	1.46386
0.263794	1.46403
0.271976	1.47249
0.280156	1.47266
0.288336	1.47282
0.301426	1.48138
0.305514	1.47318
0.313694	1.47335
0.321874	1.47352
0.330056	1.48198
0.338236	1.48215
0.348873	1.49065
