Adsorption isotherm of N-propane on MIL-53(Fe)-Br
DOI: 10.1021/Jp205369t
Adsorbate N-propane: InChIKey ATUOYWHBWRKTHZ-UHFFFAOYSA-N
Temperature: 303 K
Tabular data in the source: 0
pressure (bar)	uptake (molecules/unitcell)
0.138706	1.22591
0.225556	1.40532
0.342331	1.49502
0.576562	1.56977
0.898911	1.62957
1.13334	1.67442
1.3972	1.70432
1.6905	1.71927
1.98351	1.77907
2.15926	1.82392
2.39339	1.91362
2.56894	1.98837
2.80298	2.09302
2.97804	2.24252
3.5047	2.46678
3.73854	2.60133
3.97209	2.78073
4.44094	2.87043
4.96828	2.99003
5.43704	3.09468
5.99391	3.18439
6.46286	3.25914
6.90266	3.30399
7.43049	3.34884
7.92897	3.39369
8.36878	3.43854
