Adsorption isotherm of N-propane on MIL-53(Fe)-Cl
DOI: 10.1021/Jp205369t
Adsorbate N-propane: InChIKey ATUOYWHBWRKTHZ-UHFFFAOYSA-N
Temperature: 303 K
Tabular data in the source: 0
pressure (bar)	uptake (molecules/unitcell)
0.188001	1.42336
0.30924	0.565693
0.345558	1.80657
0.35357	2.08029
0.505252	2.26277
1.24016	2.37226
2.26936	2.5365
2.42051	2.70073
2.718	2.86496
3.01549	3.0292
3.61047	3.35766
4.06071	3.74088
4.35606	3.83212
5.5316	3.99635
6.55813	4.06934
7.43831	4.14234
8.61118	4.21533
