Adsorption isotherm of N-propane on MIL-53(Fe)-CH3
DOI: 10.1021/Jp205369t
Adsorbate N-propane: InChIKey ATUOYWHBWRKTHZ-UHFFFAOYSA-N
Temperature: 303 K
Tabular data in the source: 0
pressure (bar)	uptake (molecules/unitcell)
0.048	2.62709
0.072	2.83794
0.12	3.01638
0.312	3.51934
0.528	3.76288
0.744	3.92533
1.032	4.07166
2.016	4.33245
3	4.4473
3.504	4.49663
4.008	4.56217
4.992	4.59594
6	4.69459
7.128	4.74477
8.016	4.82705
9.192	4.81242
10.008	4.84596
