Adsorption isotherm of N-Octane on MIL-53(Fe)-NH2
DOI: 10.1021/Jp205369t
Adsorbate N-Octane: InChIKey TVMXDCGIABBOFY-UHFFFAOYSA-N
Temperature: 313 K
Tabular data in the source: 0
pressure (bar)	uptake (molecules/unitcell)
0.00301978	0.0801782
0.00450347	0.0935412
0.0163108	0.136971
0.0251649	0.168151
0.0335266	0.197105
0.0399428	0.241648
