Adsorption isotherm of N-Nonane on MIL-53(Fe)-CH3
DOI: 10.1021/Jp205369t
Adsorbate N-Nonane: InChIKey BKIMMITUMNQMOS-UHFFFAOYSA-N
Temperature: 313 K
Tabular data in the source: 0
pressure (bar)	uptake (molecules/unitcell)
2.99e-05	0.96748
8.98e-05	1.00813
0.000479042	1.08537
0.000988024	1.11382
0.00137725	1.11789
0.00161677	1.11789
0.00191617	1.12195
0.00236527	1.12195
0.00266467	1.13008
0.00284431	1.13008
0.00305389	1.13008
0.00335329	1.13415
0.00353293	1.13415
0.00374251	1.13415
0.00404192	1.13415
0.00434132	1.13415
0.00464072	1.13415
0.00502994	1.13415
0.00523952	1.13415
0.00553892	1.13415
0.00583832	1.13415
0.00613772	1.13415
0.00643713	1.13415
0.00673653	1.13415
0.00703593	1.13415
0.00733533	1.13415
0.00763473	1.13415
0.00793413	1.13415
0.00823353	1.13415
0.00853293	1.13415
0.00883234	1.13415
0.00913174	1.13415
0.00943114	1.13415
0.00973054	1.13415
0.0100299	1.13821
