Adsorption isotherm of Ethane on MIL-53(Fe)-4H
DOI: 10.1021/Jp205369t
Adsorbate Ethane: InChIKey OTMSDBZUPAUEDD-UHFFFAOYSA-N
Temperature: 303 K
Tabular data in the source: 0
pressure (bar)	uptake (molecules/unitcell)
0.497925	8.88e-16
0.67632	1.04762
0.913145	0.0238095
1.42462	1.16667
2.17207	1.21429
3.00251	1.2619
4.41415	1.33333
5.16104	1.33333
5.99148	1.38095
6.82135	1.38095
7.65151	1.40476
8.4811	1.38095
9.14585	1.45238
9.56163	1.52381
10.1445	1.69048
10.6453	1.92857
11.0627	2.14286
11.8161	2.69048
12.0679	2.92857
12.4038	3.2619
12.6553	3.47619
13.5767	4.19048
13.9111	4.40476
14.3286	4.61905
14.7461	4.83333
15.9968	5.33333
16.5797	5.5
17.0793	5.64286
17.6611	5.71429
18.3264	5.83333
19.0744	5.92857
19.7392	6
20.5699	6.07143
21.2347	6.14286
21.9821	6.19048
22.3973	6.21429
23.1448	6.2619
23.809	6.28571
24.5564	6.33333
25.3866	6.35714
26.2167	6.38095
26.9642	6.42857
27.7943	6.45238
28.6245	6.47619
29.3717	6.5
30.2018	6.52381
31.032	6.54762
31.7789	6.54762
32.6093	6.59524
33.4395	6.61905
34.2696	6.64286
35.0995	6.64286
35.8464	6.64286
