Adsorption isotherm of Methane on MIL-53(Fe)-Br
DOI: 10.1021/Jp205369t
Adsorbate Methane: InChIKey VNWKTOKETHGBQD-UHFFFAOYSA-N
Temperature: 303 K
Tabular data in the source: 0
pressure (bar)	uptake (molecules/unitcell)
0.878049	0.0912409
1.31707	0.182482
1.90244	0.291971
3.65854	0.583942
4.97561	0.821168
7.02439	1.24088
8.4878	1.49635
9.07317	1.66058
10.5366	1.80657
11.7073	1.91606
13.0244	1.98905
14.9268	2.08029
16.9756	2.18978
18.2927	2.24453
20.4878	2.33577
21.9512	2.39051
24.878	2.48175
27.5122	2.5365
30	2.62774
32.7805	2.70073
34.8293	2.73723
35.561	2.75547
37.0244	2.79197
38.3415	2.82847
40.6829	2.86496
42.1463	2.90146
43.4634	2.91971
44.9268	2.9562
47.122	3.01095
48.5854	3.0292
50.0488	3.04745
50.6341	3.08394
52.0976	3.10219
52.9756	3.12044
54.439	3.13869
55.1707	3.13869
