Adsorption isotherm of N-Octane on MIL-53(Fe)-Br
DOI: 10.1021/Jp205369t
Adsorbate N-Octane: InChIKey TVMXDCGIABBOFY-UHFFFAOYSA-N
Temperature: 313 K
Tabular data in the source: 0
pressure (bar)	uptake (molecules/unitcell)
0.000250627	0.000250627
0.00037594	0.605391
0.000501253	0.755034
0.000626566	0.965901
0.00100251	1.02027
0.00213033	1.04053
0.00300752	1.08122
0.00313283	1.22406
0.00338346	1.31927
0.00363409	1.40767
0.00401003	1.55728
0.00438596	1.61845
0.00513784	1.67957
0.00588972	1.70668
0.00714286	1.73372
0.00877193	1.75391
0.00989975	1.77416
0.0111529	1.77399
0.012406	1.78743
0.0134085	1.8077
0.0145363	1.80074
0.0170426	1.81401
0.0195489	1.82727
0.0216792	1.84059
0.0238095	1.8539
0.0255639	1.86047
0.0273183	1.86703
0.029198	1.87358
0.0308271	1.88016
0.031203	1.88691
0.0324561	1.87994
0.0338346	1.88655
0.0348371	1.89322
0.0365915	1.89978
0.037594	1.89284
0.0387218	1.9131
0.0397243	1.91296
