Adsorption isotherm of N-Octane on MIL-53(Fe)-CH3
DOI: 10.1021/Jp205369t
Adsorbate N-Octane: InChIKey TVMXDCGIABBOFY-UHFFFAOYSA-N
Temperature: 313 K
Tabular data in the source: 0
pressure (bar)	uptake (molecules/unitcell)
0.000315355	0.231405
0.00052587	0.391185
0.000734154	0.506887
0.000739173	0.606061
0.00104867	0.721763
0.00155614	0.749311
0.00236725	0.77686
0.00317864	0.809917
0.00399003	0.842975
0.00510506	0.876033
0.00571319	0.892562
0.00672589	0.903581
0.00763738	0.914601
0.00865008	0.92562
0.0100682	0.947658
0.010777	0.953168
0.0117891	0.953168
0.0128013	0.953168
0.0138134	0.953168
0.0148258	0.958678
0.015838	0.958678
0.0168501	0.958678
0.0178623	0.958678
0.0188744	0.958678
0.0198866	0.958678
0.020899	0.964187
0.0219111	0.964187
0.0228224	0.969697
0.0238345	0.969697
0.0248466	0.969697
0.0258588	0.969697
0.0268709	0.969697
0.0278834	0.975207
0.0288955	0.975207
0.0299077	0.975207
0.0309198	0.975207
0.0319319	0.975207
0.0329441	0.975207
0.0339565	0.980716
0.0349687	0.980716
0.0359811	0.986226
0.0369932	0.986226
0.0380054	0.986226
0.0390175	0.986226
0.0399285	0.986226
