Adsorption isotherm of Ethane on MIL-53(Fe)-Br
DOI: 10.1021/Jp205369t
Adsorbate Ethane: InChIKey OTMSDBZUPAUEDD-UHFFFAOYSA-N
Temperature: 303 K
Tabular data in the source: 0
pressure (bar)	uptake (molecules/unitcell)
0.0698603	1.09677
0.209581	1.41935
0.349301	1.56452
0.698603	1.64516
0.978044	1.69355
2.51497	1.83871
3.49301	1.87097
4.19162	1.8871
6.07784	1.95161
6.77645	1.96774
8.94212	2
9.64072	2
10.2695	2.01613
10.9681	2.01613
11.6667	2.03226
12.7844	2.04839
13.483	2.04839
14.1816	2.04839
15.6487	2.06452
17.4651	2.06452
18.9321	2.06452
20.1198	2.08065
20.2595	2.08065
20.9581	2.09677
21.6567	2.09677
22.3553	2.09677
23.0539	2.09677
23.7525	2.09677
24.4511	2.09677
25.01	2.04839
25.2894	2.09677
25.988	2.09677
26.6866	2.09677
27.3852	2.1129
28.0838	2.1129
28.7824	2.1129
29.481	2.1129
30.1098	2.09677
