Adsorption isotherm of N-propane on MIL-53(Fe)-CH3
DOI: 10.1021/Jp205369t
Adsorbate N-propane: InChIKey ATUOYWHBWRKTHZ-UHFFFAOYSA-N
Temperature: 303 K
Tabular data in the source: 0
pressure (bar)	uptake (molecules/unitcell)
0.024	1.34598
0.048	1.75142
0.096	1.88121
0.312	2.18961
0.504	2.27095
0.744	2.31992
1.008	2.32028
1.56	2.35346
2.04	2.37032
2.592	2.37107
3.384	2.40457
3.624	2.4049
3.864	2.42144
4.128	2.42179
4.368	2.42212
4.608	2.42244
4.848	2.42277
5.088	2.42309
5.328	2.42342
5.568	2.42374
5.808	2.42406
6.048	2.42439
6.144	2.42452
6.384	2.42484
6.624	2.44138
6.864	2.44171
7.104	2.44203
7.344	2.44236
7.608	2.44271
8.04	2.45951
8.424	2.44382
8.664	2.46036
8.904	2.46068
9.144	2.46101
9.384	2.46133
9.624	2.47787
9.864	2.47819
10.032	2.46221
