Adsorption isotherm of N-Nonane on MIL-53(Fe)-Br
DOI: 10.1021/Jp205369t
Adsorbate N-Nonane: InChIKey BKIMMITUMNQMOS-UHFFFAOYSA-N
Temperature: 313 K
Tabular data in the source: 0
pressure (bar)	uptake (molecules/unitcell)
0.000240964	0.000240964
0.00144578	0.823105
0.00240964	0.920578
0.00289157	1.0722
0.00385542	1.19134
0.00578313	1.25632
0.00819277	1.26715
0.0101205	1.26715
0.0122892	1.27798
0.0137349	1.27798
