Adsorption isotherm of N-Heptane on MIL-53(Fe)-Cl
DOI: 10.1021/Jp205369t
Adsorbate N-Heptane: InChIKey IMNFDUFMRHMDMM-UHFFFAOYSA-N
Temperature: 313 K
Tabular data in the source: 0
pressure (bar)	uptake (molecules/unitcell)
0.000724638	0.636612
0.000966184	0.50709
0.00120773	0.755265
0.00144928	0.895527
0.00169082	1.15449
0.00217391	1.27315
0.002657	1.5213
0.00362319	1.6399
0.00507246	1.72607
0.00628019	1.73673
0.00869565	1.75805
0.0108696	1.7794
0.0128019	1.78999
0.0152174	1.80052
0.0176329	1.82184
0.0198068	1.84319
0.0222222	1.84293
0.0243961	1.86427
0.0268116	1.86401
0.0289855	1.87457
0.031401	1.86352
0.0335749	1.87407
0.0357488	1.87384
0.0381643	1.88437
0.0403382	1.88414
0.0425121	1.89469
0.0449275	1.89443
0.047343	1.89417
0.0495169	1.90473
0.0519324	1.90447
0.0541063	1.91502
0.0565217	1.91476
0.0589372	1.9145
0.0613527	1.92503
0.0647343	1.93546
0.0671498	1.9352
0.0695652	1.93494
0.0719807	1.94547
0.0741546	1.93444
0.07657	1.95577
0.078744	1.94474
0.0811594	1.95527
0.0835749	1.9658
0.0859903	1.95475
0.0881643	1.96531
0.0903382	1.96507
0.0927536	1.96481
0.0949275	1.97537
0.0971014	1.98592
0.0995169	1.97487
