Adsorption isotherm of N-Nonane on MIL-53(Fe)-Cl
DOI: 10.1021/Jp205369t
Adsorbate N-Nonane: InChIKey BKIMMITUMNQMOS-UHFFFAOYSA-N
Temperature: 313 K
Tabular data in the source: 0
pressure (bar)	uptake (molecules/unitcell)
0	0.942857
3.14e-05	0.972848
9.43e-05	1.14854
0.000440252	1.14416
0.00100629	1.18686
0.00141509	1.20388
0.00160377	1.20811
0.00191824	1.20374
0.00210692	1.20368
0.0022956	1.20792
0.00261006	1.21211
0.00279874	1.22063
0.00301887	1.22057
0.00333333	1.22476
0.00352201	1.22899
0.00371069	1.22894
0.00402516	1.22885
0.00433962	1.22876
0.00465409	1.22867
0.00496855	1.22429
0.00522013	1.22851
0.00553459	1.22842
0.00584906	1.22833
0.00616352	1.23252
0.00647799	1.23243
0.00679245	1.23235
0.00710692	1.23226
0.00742138	1.23217
0.00773585	1.23208
0.00805031	1.23199
0.00836478	1.2319
0.00867925	1.23181
0.00899371	1.23172
0.00930818	1.23591
0.00962264	1.23582
0.0100314	1.23571
