Adsorption isotherm of N-Butane on MIL-53(Fe)-Br
DOI: 10.1021/Jp205369t
Adsorbate N-Butane: InChIKey IJDNQMDRQITEOD-UHFFFAOYSA-N
Temperature: 303 K
Tabular data in the source: 0
pressure (bar)	uptake (molecules/unitcell)
0.00499002	1.65768
0.0149701	1.80593
0.0199601	1.99461
0.0499002	2.15633
0.0698603	2.2372
0.0998004	2.30458
0.174651	2.38544
0.249501	2.47978
0.369261	2.53369
0.508982	2.61456
0.638723	2.61456
0.753493	2.65499
0.873253	2.68194
1.00299	2.69542
1.11776	2.72237
1.25749	2.72237
1.38224	2.73585
1.502	2.74933
1.62176	2.74933
1.75649	2.7628
1.88124	2.7628
2.00599	2.7628
