Adsorption isotherm of N-Hexane on MIL-53(Fe)-4H
DOI: 10.1021/Jp205369t
Adsorbate N-Hexane: InChIKey VLKZOEOYAKHREP-UHFFFAOYSA-N
Temperature: 313 K
Tabular data in the source: 0
pressure (bar)	uptake (molecules/unitcell)
0.0114165	0.0196078
0.0156448	0.0228758
0.0422833	0.0261438
0.0511628	0.0261438
0.0579281	0.0326797
0.0676533	0.0326797
0.0693446	0.0359477
0.0735729	0.0359477
0.0778013	0.0359477
0.0849894	0.0392157
0.0892178	0.0392157
0.0934461	0.0392157
0.0968288	0.0424837
0.101057	0.0424837
0.105285	0.0424837
0.112896	0.539216
0.113742	0.0457516
0.116279	0.444444
0.11797	0.0457516
0.12093	0.408497
0.121353	0.0457516
0.12389	0.385621
0.126427	0.362745
0.129387	0.54902
0.12981	0.333333
0.13277	0.310458
0.134461	0.683007
0.135729	0.287582
0.136575	0.584967
0.136998	0.0522876
0.138689	0.261438
0.141226	0.238562
0.144186	0.215686
0.145455	0.0522876
0.146723	0.69281
0.147569	0.186275
0.150529	0.163399
0.153488	0.137255
0.153911	0.0555556
0.156025	0.114379
0.15814	0.0555556
0.158562	0.728758
0.167865	0.794118
0.178436	0.800654
0.191121	0.820261
0.196195	0.843137
0.2	0.852941
