Adsorption isotherm of N-Octane on MIL-53(Fe)-Cl
DOI: 10.1021/Jp205369t
Adsorbate N-Octane: InChIKey TVMXDCGIABBOFY-UHFFFAOYSA-N
Temperature: 313 K
Tabular data in the source: 0
pressure (bar)	uptake (molecules/unitcell)
7e-05	1.07745
8.55e-05	1.31689
9.15e-05	1.40844
9.69e-05	1.49294
0.000105633	1.62675
0.000630139	1.70414
0.00102157	1.73225
0.00309994	1.739
0.00504888	1.75281
0.00790509	1.73832
0.0099839	1.75211
0.0124532	1.77994
0.016609	1.77935
0.0207653	1.78581
0.0236229	1.79245
0.02648	1.79205
0.0292073	1.79166
