Adsorption isotherm of N-Octane on MIL-53(Fe)-Br
DOI: 10.1021/Jp205369t
Adsorbate N-Octane: InChIKey TVMXDCGIABBOFY-UHFFFAOYSA-N
Temperature: 313 K
Tabular data in the source: 0
pressure (bar)	uptake (molecules/unitcell)
0.00037594	0.965935
0.000877193	0.999881
0.00513784	1.03331
0.00764411	1.03978
0.0100251	1.05306
0.0122807	1.05955
0.0156642	1.05909
0.0175439	1.06564
0.0206767	1.06521
0.0253133	1.07139
0.0288221	1.07091
0.029198	1.07766
