Adsorption isotherm of N-Heptane on MIL-53(Fe)-Br
DOI: 10.1021/Jp205369t
Adsorbate N-Heptane: InChIKey IMNFDUFMRHMDMM-UHFFFAOYSA-N
Temperature: 313 K
Tabular data in the source: 0
pressure (bar)	uptake (molecules/unitcell)
0.0011185	1.05082
0.00492031	1.11264
0.00618618	1.11951
0.0084656	1.14011
0.0099859	1.16071
0.0122632	1.16071
0.0135277	1.15385
0.0160581	1.15385
0.0185884	1.15385
0.0211181	1.14698
0.0236485	1.14698
0.0259258	1.14698
0.0284562	1.14698
0.0309865	1.14698
0.0335176	1.15385
0.036048	1.15385
0.0373131	1.15385
0.0385783	1.15385
0.0411087	1.15385
0.0436391	1.15385
0.0461701	1.16071
0.0487005	1.16071
0.0497119	1.15385
0.0509778	1.16071
0.0535082	1.16071
0.0560385	1.16071
0.0585689	1.16071
0.0610993	1.16071
0.0636296	1.16071
0.06616	1.16071
0.0686904	1.16071
0.0712207	1.16071
0.0742565	1.15385
0.0752693	1.16071
0.0777997	1.16071
0.08033	1.16071
0.0828604	1.16071
0.0853908	1.16071
0.0879211	1.16071
0.0904515	1.16071
0.0929819	1.16071
0.0955129	1.16758
0.0980433	1.16758
0.100067	1.16071
