Adsorption isotherm of N-Hexane on MIL-53(Fe)-CH3
DOI: 10.1021/Jp205369t
Adsorbate N-Hexane: InChIKey VLKZOEOYAKHREP-UHFFFAOYSA-N
Temperature: 313 K
Tabular data in the source: 0
pressure (bar)	uptake (molecules/unitcell)
0.00119085	1.36743
0.00121344	1.4503
0.00205856	1.54977
0.0028969	1.62437
0.00453968	1.64927
0.0119311	1.75715
0.020145	1.88163
0.032424	1.91504
0.0504336	1.96513
0.0708836	1.96556
0.0864301	1.98245
0.0995204	1.99101
0.124881	1.99982
0.154329	2.00043
0.178873	2.01752
0.200143	2.02625
0.215688	2.03486
0.24105	2.05196
0.250048	2.05214
0.264772	2.05245
0.285225	2.06116
0.300771	2.07805
0.319583	2.07016
0.342491	2.08721
0.350671	2.08738
