Adsorption isotherm of Methane on MIL-53(Fe)-Cl
DOI: 10.1021/Jp205369t
Adsorbate Methane: InChIKey VNWKTOKETHGBQD-UHFFFAOYSA-N
Temperature: 303 K
Tabular data in the source: 0
pressure (bar)	uptake (molecules/unitcell)
0.411878	0.317962
0.755325	0.561093
1.03034	0.729396
2.47756	1.2714
2.89239	1.2899
3.44465	1.4019
3.99708	1.49519
5.37846	1.70033
6.00043	1.75615
6.62223	1.83068
7.86655	1.90488
8.48853	1.9607
9.11051	2.01652
9.94018	2.05351
11.0465	2.09035
12.4987	2.12701
13.1209	2.16411
13.8124	2.18245
14.5039	2.2008
15.0571	2.21922
15.887	2.23749
17.4775	2.27408
17.8926	2.27385
18.5841	2.2922
19.8981	2.31021
20.3131	2.30999
21.0047	2.32834
21.6962	2.34669
22.3879	2.34632
23.0102	2.3647
23.7017	2.38305
24.3935	2.38268
24.9468	2.38238
25.4308	2.40084
26.1225	2.40047
26.814	2.41882
27.5057	2.41845
28.1974	2.41808
28.889	2.43642
29.5115	2.43609
30.1342	2.41704
