Adsorption isotherm of Methane on MIL-53(Fe)-Br
DOI: 10.1021/Jp205369t
Adsorbate Methane: InChIKey VNWKTOKETHGBQD-UHFFFAOYSA-N
Temperature: 303 K
Tabular data in the source: 0
pressure (bar)	uptake (molecules/unitcell)
0.693069	0.0672208
1.2995	0.1344
1.99257	0.218343
4.93812	0.654533
9.87624	1.37596
14.9876	1.64596
20.0124	1.8323
25.0371	1.96848
29.9752	2.0879
35.0866	2.19068
