Adsorption isotherm of N-Hexane on MIL-53(Fe)-CH3
DOI: 10.1021/Jp205369t
Adsorbate N-Hexane: InChIKey VLKZOEOYAKHREP-UHFFFAOYSA-N
Temperature: 313 K
Tabular data in the source: 0
pressure (bar)	uptake (molecules/unitcell)
0.00160517	0.558707
0.00165386	0.757687
0.00169882	0.941362
0.00174564	1.13269
0.00325154	1.28578
0.00695073	1.40065
0.0128488	1.50027
0.0202022	1.54634
0.0275575	1.60006
0.0319816	1.67668
0.0356808	1.79156
0.0386439	1.89876
0.0430717	1.99069
0.0489585	2.04438
0.0533694	2.06743
0.0658624	2.11361
0.0827607	2.15988
0.099657	2.19849
0.111412	2.22935
0.123163	2.2449
0.134915	2.26045
0.143727	2.26828
0.156947	2.28386
0.167962	2.29175
0.177509	2.2996
0.189258	2.30749
0.197336	2.31531
0.209822	2.33088
0.220103	2.33874
0.229651	2.35425
0.240664	2.35448
0.250211	2.36233
0.258291	2.3778
0.270041	2.3857
0.28693	2.3937
0.302352	2.40933
0.322914	2.42506
0.328791	2.44049
0.342743	2.44843
