Adsorption isotherm of N-Nonane on MIL-53(Fe)-Cl
DOI: 10.1021/Jp205369t
Adsorbate N-Nonane: InChIKey BKIMMITUMNQMOS-UHFFFAOYSA-N
Temperature: 313 K
Tabular data in the source: 0
pressure (bar)	uptake (molecules/unitcell)
0.000241546	0.000241546
0.000483092	0.722969
0.000966184	0.895579
0.00169082	0.992623
0.00289855	1.06803
0.00458937	1.1326
0.00676329	1.15395
0.0089372	1.1645
0.0108696	1.17509
0.0128019	1.18567
0.0135266	1.1748
