Adsorption isotherm of N-Heptane on MIL-53(Fe)-Br
DOI: 10.1021/Jp205369t
Adsorbate N-Heptane: InChIKey IMNFDUFMRHMDMM-UHFFFAOYSA-N
Temperature: 313 K
Tabular data in the source: 0
pressure (bar)	uptake (molecules/unitcell)
0.000240964	0.99639
0.000481928	1.12635
0.00144578	1.16968
0.00313253	1.27798
0.0053012	1.35379
0.00554217	1.58123
0.00650602	1.72202
0.00674699	1.83032
0.00771084	1.88448
0.00915663	1.96029
0.0106024	1.99278
0.0125301	2.02527
0.0171084	2.04693
0.0195181	2.06859
0.0216867	2.07942
0.0240964	2.10108
0.026506	2.11191
0.0289157	2.11191
0.0313253	2.12274
0.0337349	2.13357
0.0359036	2.13357
0.0383133	2.1444
0.0407229	2.15523
0.0428916	2.15523
0.0453012	2.15523
0.0477108	2.16606
0.0501205	2.16606
0.0522892	2.1769
0.0544578	2.18773
0.0568675	2.18773
0.0592771	2.18773
0.0614458	2.19856
0.0633735	2.19856
0.0657831	2.20939
0.0681928	2.20939
0.0701205	2.22022
0.0725301	2.22022
0.0749398	2.22022
0.0773494	2.22022
0.0795181	2.23105
0.0819277	2.23105
0.0840964	2.24188
0.0862651	2.25271
0.0886747	2.25271
0.0910843	2.26354
0.093494	2.26354
0.0956627	2.27437
0.0995181	2.27437
