Adsorption isotherm of N-Hexane on MIL-53(Fe)-CH3
DOI: 10.1021/Jp205369t
Adsorbate N-Hexane: InChIKey VLKZOEOYAKHREP-UHFFFAOYSA-N
Temperature: 313 K
Tabular data in the source: 0
pressure (bar)	uptake (molecules/unitcell)
0.000726953	0.181417
0.000978851	0.362885
0.000994066	0.555054
0.00126287	0.950043
0.00175229	1.13149
0.0031893	1.2808
0.00628814	1.41926
0.00819006	1.44041
0.0105679	1.47218
0.0138966	1.51453
0.0162728	1.52495
0.0215017	1.5671
0.0238779	1.57752
0.0274433	1.60917
0.0298211	1.64094
0.0314864	1.6728
0.0345835	1.7899
0.0381557	1.90696
0.0495672	2.03385
0.053371	2.07615
0.0559847	2.08655
0.05836	2.0863
0.0588359	2.09692
0.061212	2.10734
0.0635873	2.10709
0.0652508	2.11759
0.0669143	2.12809
0.0692896	2.12783
0.0721408	2.13821
0.0745161	2.13795
0.0773672	2.14832
0.0797425	2.14807
0.0811685	2.15859
0.0835438	2.15834
0.0859191	2.15809
0.0866325	2.16869
0.0890078	2.16843
0.0899587	2.17901
0.092334	2.17875
0.0947093	2.1785
0.0970854	2.18892
0.0989865	2.1994
