Adsorption isotherm of N-Hexane on MIL-53(Fe)-Cl
DOI: 10.1021/Jp205369t
Adsorbate N-Hexane: InChIKey VLKZOEOYAKHREP-UHFFFAOYSA-N
Temperature: 313 K
Tabular data in the source: 0
pressure (bar)	uptake (molecules/unitcell)
0.00245205	1.15385
0.00352706	1.29021
0.00458051	1.36364
0.0190088	1.45804
0.0262103	1.46853
0.0364931	1.46853
0.0498643	1.47902
0.0766031	1.48951
0.0868859	1.48951
0.106427	1.5
0.116706	1.48951
0.126989	1.48951
0.137271	1.48951
0.156809	1.48951
0.167092	1.48951
0.177374	1.48951
0.187657	1.48951
0.19794	1.48951
0.208223	1.48951
0.218505	1.48951
0.228788	1.48951
0.239071	1.48951
0.256552	1.48951
0.266834	1.48951
0.277117	1.48951
0.2874	1.48951
0.306937	1.48951
0.31722	1.48951
0.327503	1.48951
0.337786	1.48951
0.351157	1.5
