Adsorption isotherm of N-Heptane on MIL-53(Fe)-4H
DOI: 10.1021/Jp205369t
Adsorbate N-Heptane: InChIKey IMNFDUFMRHMDMM-UHFFFAOYSA-N
Temperature: 313 K
Tabular data in the source: 0
pressure (bar)	uptake (molecules/unitcell)
0.00634249	0.0163399
0.0114165	0.0163399
0.017759	0.0196078
0.0236786	0.0228758
0.030444	0.0294118
0.0359408	0.0326797
0.0410148	0.0359477
0.048203	0.0392157
0.053277	0.0424837
0.0621564	0.0490196
0.0672304	0.0555556
0.0731501	0.0588235
0.0786469	0.0686275
0.0837209	0.0718954
0.0896406	0.0784314
0.0938689	0.0849673
0.0993658	0.0947712
0.10444	0.104575
0.109514	0.117647
0.113742	0.137255
0.118393	0.163399
