Adsorption isotherm of Ethane on MIL-53(Fe)-CH3
DOI: 10.1021/Jp205369t
Adsorbate Ethane: InChIKey OTMSDBZUPAUEDD-UHFFFAOYSA-N
Temperature: 303 K
Tabular data in the source: 0
pressure (bar)	uptake (molecules/unitcell)
1.01942	0.0654545
1.45631	0.741818
1.60194	1.68
1.8932	1.83273
2.47573	1.98545
3.64078	2.07273
4.66019	2.13818
5.82524	2.20364
7.13592	2.24727
8.4466	2.26909
9.61165	2.35636
10.1942	2.55273
10.4854	2.77091
10.6311	3.01091
10.9223	3.22909
11.068	3.44727
11.3592	3.66545
11.6505	3.99273
11.9417	4.25455
12.6699	4.62545
13.835	4.84364
14.8544	4.97455
16.165	4.99636
17.3301	5.08364
18.6408	5.12727
20.0971	5.14909
21.5534	5.19273
23.0097	5.19273
24.3204	5.21455
25.6311	5.21455
27.0874	5.23636
28.5437	5.23636
29.8544	5.23636
