Adsorption isotherm of N-Butane on MIL-53(Fe)-Cl
DOI: 10.1021/Jp205369t
Adsorbate N-Butane: InChIKey IJDNQMDRQITEOD-UHFFFAOYSA-N
Temperature: 303 K
Tabular data in the source: 0
pressure (bar)	uptake (molecules/unitcell)
0.00499002	0.00499002
0.00998004	1.14859
0.0149701	1.55397
0.0249501	1.66203
0.0548902	1.71592
0.0698603	1.75638
0.10479	1.79673
0.174651	1.80987
0.244511	1.83652
0.354291	1.82241
0.503992	1.83511
0.583832	1.86171
0.633733	1.86144
0.683633	1.86117
0.898204	1.86001
0.998004	1.87298
1.02794	1.85931
1.07784	1.87255
1.12774	1.87228
1.17764	1.87201
1.22754	1.87174
1.28244	1.88496
1.33234	1.88469
1.38224	1.88442
1.43214	1.88415
1.53194	1.88361
1.58184	1.88334
1.63174	1.88307
1.68164	1.8828
1.78144	1.88226
1.83134	1.88199
1.88124	1.88172
1.93114	1.89497
1.99601	1.8811
