Adsorption isotherm of N-propane on MIL-53(Fe)-Br
DOI: 10.1021/Jp205369t
Adsorbate N-propane: InChIKey ATUOYWHBWRKTHZ-UHFFFAOYSA-N
Temperature: 303 K
Tabular data in the source: 0
pressure (bar)	uptake (molecules/unitcell)
0.0171555	1.86877
0.0194949	1.50997
0.023004	0.971761
0.0746655	2.04817
0.103226	2.16777
0.306168	2.54153
0.510767	2.66113
0.744901	2.75083
1.00857	2.81063
2.03449	2.96013
2.53307	2.99003
3.03156	3.03488
4.02882	3.07973
5.05552	3.10963
6.02344	3.15449
6.99156	3.16944
8.01826	3.19934
8.98628	3.22924
10.0131	3.24419
