Adsorption isotherm of Ethane on MIL-53(Fe)-Br
DOI: 10.1021/Jp205369t
Adsorbate Ethane: InChIKey OTMSDBZUPAUEDD-UHFFFAOYSA-N
Temperature: 303 K
Tabular data in the source: 0
pressure (bar)	uptake (molecules/unitcell)
0.0698603	0.709677
0.209581	1.37097
0.419162	1.91935
0.698603	2.24194
0.978044	2.43548
1.74651	2.79032
2.44511	3.14516
3.63273	3.37097
4.96008	3.64516
6.35729	3.79032
7.47505	3.95161
8.8024	4.04839
9.92016	4.14516
11.5968	4.22581
12.505	4.29032
14.9501	4.40323
17.3952	4.48387
19.98	4.56452
21.3074	4.59677
23.3333	4.64516
24.9401	4.67742
26.6168	4.69355
28.6427	4.74194
29.9701	4.77419
