Adsorption isotherm of Methane on MIL-53(Fe)-4H
DOI: 10.1021/Jp205369t
Adsorbate Methane: InChIKey VNWKTOKETHGBQD-UHFFFAOYSA-N
Temperature: 303 K
Tabular data in the source: 0
pressure (bar)	uptake (molecules/unitcell)
1.07912	0.0238095
2.4072	0.047619
3.48632	0.0714286
4.06752	0.0952381
4.89739	0.0952381
5.22963	0.119048
6.0595	0.119048
6.80639	0.119048
7.88495	0.0952381
9.12976	0.0952381
9.87749	0.166667
10.6275	0.428571
11.2953	0.761905
12.0465	1.11905
12.5469	1.33333
13.6269	1.42857
15.4532	1.47619
17.1135	1.52381
18.5251	1.59524
19.9365	1.64286
20.7664	1.64286
23.0906	1.69048
25.0001	1.7619
25.83	1.7619
27.5733	1.80952
28.9844	1.83333
30.3955	1.85714
32.222	1.92857
33.0522	1.95238
34.2973	1.97619
35.1272	1.97619
36.2063	2
37.4514	2.02381
38.9452	2.02381
40.1075	2.07143
