Adsorption isotherm of N-Butane on MIL-53(Fe)-CH3
DOI: 10.1021/Jp205369t
Adsorbate N-Butane: InChIKey IJDNQMDRQITEOD-UHFFFAOYSA-N
Temperature: 303 K
Tabular data in the source: 0
pressure (bar)	uptake (molecules/unitcell)
0.145631	1.94182
0.291262	2.42182
0.436893	2.57455
0.582524	3.49091
0.728155	3.6
