Adsorption isotherm of N-Octane on MIL-53(Fe)-Br
DOI: 10.1021/Jp205369t
Adsorbate N-Octane: InChIKey TVMXDCGIABBOFY-UHFFFAOYSA-N
Temperature: 313 K
Tabular data in the source: 0
pressure (bar)	uptake (molecules/unitcell)
0.000501253	1.61218
0.00112782	1.65291
0.00313283	1.67985
0.00501253	1.7136
0.00989975	1.74695
0.0110276	1.7536
0.0125313	1.7534
0.016792	1.75282
0.0206767	1.75909
0.0236842	1.76549
0.0269424	1.77184
0.0289474	1.77837
