Adsorption isotherm of N-Nonane on MIL-53(Fe)-Br
DOI: 10.1021/Jp205369t
Adsorbate N-Nonane: InChIKey BKIMMITUMNQMOS-UHFFFAOYSA-N
Temperature: 313 K
Tabular data in the source: 0
pressure (bar)	uptake (molecules/unitcell)
3.11e-05	1.10704
9.34e-05	1.1493
0.000466805	1.19155
0.000995851	1.20423
0.00143154	1.22535
0.00161826	1.22958
0.00192946	1.23803
0.00233402	1.24648
0.00264523	1.25493
0.00301867	1.26338
0.00332988	1.26761
0.00373444	1.27183
0.00404564	1.27183
0.00435685	1.27606
0.00466805	1.28028
0.00522822	1.28451
0.00553942	1.28451
0.00585062	1.28873
0.00616183	1.28873
0.00647303	1.28873
0.00678423	1.28873
0.00709544	1.28873
0.00740664	1.29296
0.00771784	1.29296
0.00799793	1.29718
0.00830913	1.29718
0.00862033	1.29718
0.00893154	1.29718
0.00924274	1.29718
0.00955394	1.30141
0.00998963	1.30141
