Adsorption isotherm of N-Hexane on MIL-53(Fe)-4H
DOI: 10.1021/Jp205369t
Adsorbate N-Hexane: InChIKey VLKZOEOYAKHREP-UHFFFAOYSA-N
Temperature: 313 K
Tabular data in the source: 0
pressure (bar)	uptake (molecules/unitcell)
0.00954671	0.00785089
0.0190916	0.00804869
0.0286383	0.0158996
0.0374489	0.0160822
0.0484622	0.0163104
0.0675537	0.0243591
0.0829742	0.0323317
0.0961901	0.0326056
0.107936	0.0251959
0.122622	0.0331533
0.133635	0.0333815
0.147584	0.0260175
0.159331	0.0262609
0.166677	0.0417193
0.181361	0.0420236
0.187971	0.0498136
0.198984	0.0500418
0.209265	0.0579079
0.218076	0.0580905
0.229091	0.0659719
0.235701	0.0737619
0.246714	0.0739901
0.269479	0.089768
0.279762	0.105287
0.290039	0.0978471
0.292981	0.120867
0.301061	0.136341
0.309878	0.159483
0.317222	0.167288
0.325298	0.167455
0.33338	0.190582
0.34073	0.221347
