Adsorption isotherm of Methane on MIL-53(Fe)-Br
DOI: 10.1021/Jp205369t
Adsorbate Methane: InChIKey VNWKTOKETHGBQD-UHFFFAOYSA-N
Temperature: 303 K
Tabular data in the source: 0
pressure (bar)	uptake (molecules/unitcell)
0.173267	0.167307
0.433168	0.317933
0.779703	0.451878
1.0396	0.569059
2.51238	1.22194
3.89851	1.62394
5.02475	1.99237
6.32426	2.26055
7.53713	2.51196
8.75	2.71321
9.96287	2.93118
11.349	3.08235
12.4752	3.23339
14.9876	3.48542
16.0272	3.60298
17.5866	3.72078
20.0124	3.90588
22.6114	4.0409
25.0371	4.19256
27.896	4.32771
29.9752	4.42904
