Adsorption isotherm of N-Nonane on MIL-53(Fe)-CH3
DOI: 10.1021/Jp205369t
Adsorbate N-Nonane: InChIKey BKIMMITUMNQMOS-UHFFFAOYSA-N
Temperature: 313 K
Tabular data in the source: 0
pressure (bar)	uptake (molecules/unitcell)
1.1e-05	0.138789
2.37e-05	0.29893
0.000280638	0.544454
0.000769218	0.71522
0.00196193	0.77915
0.00410221	0.81095
0.00647918	0.832048
0.00838363	0.885226
0.00957803	0.970508
0.0112466	1.04506
0.0136236	1.06616
