Adsorption isotherm of Methane on [Ni2(C2O4)(L)2]n*6nH2O
DOI: 10.1021/Cg400948e
Adsorbate Methane: InChIKey VNWKTOKETHGBQD-UHFFFAOYSA-N
Temperature: 273 K
Tabular data in the source: 0
pressure (bar)	uptake (cm3(STP)/g)
0.0418472	1.26401
0.0949055	2.66555
0.14948	4.1672
0.201022	5.36852
0.255596	6.46973
0.307139	7.67105
0.358681	8.87237
0.413255	9.87347
0.466314	10.8746
0.520888	11.6755
0.570914	12.5764
0.627005	13.3773
0.680063	14.0781
0.757376	15.1793
0.808919	15.9802
0.861977	16.681
0.918067	17.3817
0.993865	18.1826
1.04996	18.6832
