Adsorption isotherm of Hydrogen on [Ni2(C2O4)(L)2]n*6nH2O
DOI: 10.1021/Cg400948e
Adsorbate Hydrogen: InChIKey UFHFLCQGNIYNRP-UHFFFAOYSA-N
Temperature: 87 K
Tabular data in the source: 0
pressure (bar)	uptake (cm3(STP)/g)
0.0402937	17.3252
0.0716458	24.3111
0.0895613	27.804
0.120913	32.5364
0.176153	39.0716
0.252294	45.9449
0.334406	50.9026
0.413533	54.8463
0.489674	58.3392
0.57328	61.2688
0.650913	63.635
0.73004	66.1139
0.809167	68.0294
0.886801	69.9449
0.968913	71.4097
1.04356	72.9871
