Adsorption isotherm of Hydrogen on [Ni2(C2O4)(L)2]n*6nH2O
DOI: 10.1021/Cg400948e
Adsorbate Hydrogen: InChIKey UFHFLCQGNIYNRP-UHFFFAOYSA-N
Temperature: 273 K
Tabular data in the source: 0
pressure (bar)	uptake (cm3(STP)/g)
0.017592	0.46313
0.0494269	0.46313
0.079746	0.36302
0.199506	0.46313
0.284399	0.46313
0.357165	0.46313
0.440542	0.56324
0.519372	0.56324
0.599717	0.76346
0.708866	0.76346
0.784663	0.66335
0.865009	0.76346
0.943838	0.76346
0.995381	0.86357
1.02267	0.96368
1.05147	0.96368
