Adsorption isotherm of Carbon Dioxide on [Ni2(C2O4)(L)2]n*6nH2O
DOI: 10.1021/Cg400948e
Adsorbate Carbon Dioxide: InChIKey CURLTUGMZLYLDI-UHFFFAOYSA-N
Temperature: 273 K
Tabular data in the source: 0
pressure (bar)	uptake (cm3(STP)/g)
0.016076	10.5742
0.0403312	21.7866
0.0706503	29.3949
0.0979374	33.8999
0.146448	40.1067
0.19799	44.8119
0.25408	48.7162
0.307139	51.5192
0.363229	54.1221
0.414771	56.1243
0.493601	58.8273
0.57243	60.9296
0.65126	62.7316
0.733121	64.5335
0.810435	65.835
0.893812	67.0363
0.990833	68.1375
1.01964	68.638
1.04844	69.0385
