Adsorption isotherm of Hydrogen on [Ni2(C2O4)(L)2]n*6nH2O
DOI: 10.1021/Cg400948e
Adsorbate Hydrogen: InChIKey UFHFLCQGNIYNRP-UHFFFAOYSA-N
Temperature: 77 K
Tabular data in the source: 0
pressure (bar)	uptake (cm3(STP)/g)
0.0134205	16.4238
0.0417867	30.2829
0.0701529	38.3956
0.098519	44.2547
0.111956	46.5083
0.144801	50.3392
0.17466	53.1562
0.201533	55.635
0.253787	59.2407
0.301561	61.9449
0.36128	64.3111
0.413533	66.5646
0.464294	68.4801
0.51804	70.0576
0.567308	71.635
0.622547	72.9871
0.70466	74.4519
0.779308	76.2547
0.86142	77.6068
0.939054	78.8463
0.994294	79.8604
1.04804	80.4238
