Adsorption isotherm of Nitrogen on [Ni2(C2O4)(L)2]n*6nH2O
DOI: 10.1021/Cg400948e
Adsorbate Nitrogen: InChIKey IJGRMHOSHXDMSA-UHFFFAOYSA-N
Temperature: 273 K
Tabular data in the source: 0
pressure (bar)	uptake (cm3(STP)/g)
0.047911	0.36302
0.122193	0.76346
0.232857	1.36412
0.355649	2.06489
0.413255	2.26511
0.490569	2.56544
0.566366	2.76566
0.65126	3.06599
0.783148	3.56654
0.837722	3.96698
0.942322	4.1672
0.993865	4.06709
1.02267	4.36742
1.05299	4.1672
