Adsorption isotherm of Nitrogen on [Ni2(C2O4)(L)2]n*6nH2O
DOI: 10.1021/Cg400948e
Adsorbate Nitrogen: InChIKey IJGRMHOSHXDMSA-UHFFFAOYSA-N
Temperature: 77 K
Tabular data in the source: 0
pressure (bar)	uptake (cm3(STP)/g)
0.000566	15.2884
0.000566	35.0815
0.000566	45.2642
0.000865	5.10575
0.000865	25.2422
0.000865	55.4468
0.00372489	59.1079
0.0137359	61.8538
0.0537799	63.6844
0.108125	64.2565
0.169621	64.7141
0.228257	64.9429
0.289753	65.2862
0.348389	65.2862
0.409885	65.2862
0.492834	65.1718
0.55004	64.9429
0.610106	64.8285
0.668741	64.8285
0.727377	64.5997
0.787443	64.4853
0.85037	64.2565
0.894704	64.3709
0.933318	64.3709
0.966211	64.4853
