Adsorption isotherm of Nitrogen on Activated Charcoal
DOI: 10.3327/jnst.36.818
Article source: Figure 9
Adsorbate Nitrogen: InChIKey IJGRMHOSHXDMSA-UHFFFAOYSA-N
Kind: experiment
Temperature: 273 K
Tabular data in the source: 0
pressure (bar)	uptake (mol/g)
0.000108	0
0.001015	1e-06
0.004719	4e-06
0.009847	9e-06
0.033135	2.9e-05
0.098632	8.4e-05
0.990855	0.000599
