Adsorption isotherm of Xenon on MS5A
DOI: 10.3327/jnst.36.818
Article source: Figure 2
Adsorbate Xenon: InChIKey FHNFHKCVQCLJFQ-UHFFFAOYSA-N
Kind: experiment
Temperature: 303 K
Tabular data in the source: 0
pressure (bar)	uptake (mol/g)
4.2e-05	0
0.000134	0
0.001209	3e-06
0.102849	0.000268
0.927897	0.001387
