Adsorption isotherm of Nitrogen on Activated Charcoal
DOI: 10.3327/jnst.36.818
Article source: Figure 9
Adsorbate Nitrogen: InChIKey IJGRMHOSHXDMSA-UHFFFAOYSA-N
Kind: experiment
Temperature: 195 K
Tabular data in the source: 0
pressure (bar)	uptake (mol/g)
0.000102	3e-06
0.001005	2.6e-05
0.004706	0.000115
0.010739	0.000219
0.034263	0.000497
0.059399	0.000707
0.104959	0.001024
0.99568	0.003263
