Adsorption isotherm of Xenon on MS5A
DOI: 10.3327/jnst.36.818
Article source: Figure 2
Adsorbate Xenon: InChIKey FHNFHKCVQCLJFQ-UHFFFAOYSA-N
Kind: experiment
Temperature: 159 K
Tabular data in the source: 0
pressure (bar)	uptake (mol/g)
1.1e-05	0.000112
0.000103	0.001068
0.000917	0.002759
0.010247	0.003507
0.103825	0.003665
0.963829	0.003571
