Adsorption isotherm of Xenon on Activated Charcoal
DOI: 10.3327/jnst.36.818
Article source: Figure 3
Adsorbate Xenon: InChIKey FHNFHKCVQCLJFQ-UHFFFAOYSA-N
Kind: experiment
Temperature: 303 K
Tabular data in the source: 0
pressure (bar)	uptake (mol/g)
1.1e-05	0
0.000191	6e-06
0.000984	3.1e-05
0.010414	0.00025
0.055883	0.000765
0.963873	0.002856
