Adsorption isotherm of Krypton on Activated Charcoal
DOI: 10.3327/jnst.36.818
Article source: Figure 3
Adsorbate Krypton: InChIKey DNNSSWSSYDEUBZ-UHFFFAOYSA-N
Kind: experiment
Temperature: 303 K
Tabular data in the source: 0
pressure (bar)	uptake (mol/g)
4.8e-05	0
0.000211	0
0.001067	2e-06
0.001179	2e-06
0.001435	3e-06
0.00205	4e-06
0.005674	1.2e-05
0.010909	2.2e-05
0.101086	0.00019
0.938469	0.001177
