Adsorption isotherm of Krypton on Activated Charcoal
DOI: 10.3327/jnst.36.818
Article source: Figure 3
Adsorbate Krypton: InChIKey DNNSSWSSYDEUBZ-UHFFFAOYSA-N
Kind: experiment
Temperature: 159 K
Tabular data in the source: 0
pressure (bar)	uptake (mol/g)
1e-05	5.9e-05
9.9e-05	0.0004
0.000942	0.001435
0.009687	0.003713
0.111394	0.008192
0.959423	0.010888
