Adsorption isotherm of Krypton on MS5A
DOI: 10.3327/jnst.36.818
Article source: Figure 2
Adsorbate Krypton: InChIKey DNNSSWSSYDEUBZ-UHFFFAOYSA-N
Kind: experiment
Temperature: 77 K
Tabular data in the source: 0
pressure (bar)	uptake (mol/g)
1.6e-05	0.005224
0.000101	0.005218
0.000929	0.00533
0.010344	0.005307
0.105172	0.005286
0.943626	0.005165
