Adsorption isotherm of Krypton on Activated Charcoal
DOI: 10.3327/jnst.36.818
Article source: Figure 3
Adsorbate Krypton: InChIKey DNNSSWSSYDEUBZ-UHFFFAOYSA-N
Kind: experiment
Temperature: 273 K
Tabular data in the source: 0
pressure (bar)	uptake (mol/g)
2.3e-05	0
3.9e-05	0
7.3e-05	0
0.000221	1e-06
0.001081	6e-06
0.004033	2.2e-05
0.010703	5.6e-05
0.115441	0.000451
0.88113	0.002066
