Adsorption isotherm of Krypton on MS5A
DOI: 10.3327/jnst.36.818
Article source: Figure 2
Adsorbate Krypton: InChIKey DNNSSWSSYDEUBZ-UHFFFAOYSA-N
Kind: experiment
Temperature: 195 K
Tabular data in the source: 0
pressure (bar)	uptake (mol/g)
1.1e-05	0
0.000104	2e-06
0.000452	1e-05
0.001021	2.1e-05
0.001586	3.3e-05
0.002613	5.4e-05
0.005029	9.9e-05
0.008678	0.000175
0.02311	0.00046
0.160657	0.002377
0.99243	0.004503
