Adsorption isotherm of Xenon on Activated Charcoal
DOI: 10.3327/jnst.36.818
Article source: Figure 3
Adsorbate Xenon: InChIKey FHNFHKCVQCLJFQ-UHFFFAOYSA-N
Kind: experiment
Temperature: 323 K
Tabular data in the source: 0
pressure (bar)	uptake (mol/g)
1e-05	0
0.000102	2e-06
0.000317	5e-06
0.000529	8e-06
0.010208	0.000147
0.103371	0.00078
0.981522	0.00226
