Adsorption isotherm of Xenon on Activated Charcoal
DOI: 10.3327/jnst.36.818
Article source: Figure 3
Adsorbate Xenon: InChIKey FHNFHKCVQCLJFQ-UHFFFAOYSA-N
Kind: experiment
Temperature: 273 K
Tabular data in the source: 0
pressure (bar)	uptake (mol/g)
1.1e-05	1e-06
0.000123	1.8e-05
0.000162	2e-05
0.000376	5e-05
0.000988	0.00012
0.001043	0.000111
0.002168	0.000214
0.0044	0.000362
0.008219	0.000514
0.008647	0.000527
0.018708	0.000836
0.052309	0.001447
0.104441	0.002
0.957833	0.004283
