Adsorption isotherm of Nitrogen on Activated Charcoal
DOI: 10.3327/jnst.36.818
Article source: Figure 9
Adsorbate Nitrogen: InChIKey IJGRMHOSHXDMSA-UHFFFAOYSA-N
Kind: experiment
Temperature: 159 K
Tabular data in the source: 0
pressure (bar)	uptake (mol/g)
0.000102	3.5e-05
0.000789	0.000193
0.010487	0.001157
0.048407	0.002189
0.104045	0.00307
0.991288	0.007006
