Adsorption isotherm of Krypton on MS5A
DOI: 10.3327/jnst.36.818
Article source: Figure 2
Adsorbate Krypton: InChIKey DNNSSWSSYDEUBZ-UHFFFAOYSA-N
Kind: experiment
Temperature: 159 K
Tabular data in the source: 0
pressure (bar)	uptake (mol/g)
1.1e-05	3e-06
0.000103	2.6e-05
0.001049	0.000214
0.010578	0.002258
0.103252	0.004663
0.944713	0.004982
