Adsorption isotherm of Krypton on MS5A
DOI: 10.3327/jnst.36.818
Article source: Figure 2
Adsorbate Krypton: InChIKey DNNSSWSSYDEUBZ-UHFFFAOYSA-N
Kind: experiment
Temperature: 273 K
Tabular data in the source: 0
pressure (bar)	uptake (mol/g)
0.000117	0
0.000311	0
0.00042	0
0.000655	1e-06
0.001066	1e-06
0.001235	1e-06
0.002464	2e-06
0.005006	4e-06
0.00816	7e-06
0.02262	1.9e-05
0.958297	0.000639
