Adsorption isotherm of Krypton on Activated Charcoal
DOI: 10.3327/jnst.36.818
Article source: Figure 3
Adsorbate Krypton: InChIKey DNNSSWSSYDEUBZ-UHFFFAOYSA-N
Kind: experiment
Temperature: 323 K
Tabular data in the source: 0
pressure (bar)	uptake (mol/g)
8.4e-05	0
0.001003	1e-06
0.001784	2e-06
0.002404	3e-06
0.002675	3e-06
0.002938	4e-06
0.010174	1.2e-05
0.100427	0.000115
0.92272	0.00077
