Adsorption isotherm of Xenon on Activated Charcoal
DOI: 10.3327/jnst.36.818
Article source: Figure 3
Adsorbate Xenon: InChIKey FHNFHKCVQCLJFQ-UHFFFAOYSA-N
Kind: experiment
Temperature: 159 K
Tabular data in the source: 0
pressure (bar)	uptake (mol/g)
1e-05	0.00161
9.9e-05	0.003466
0.000887	0.005604
0.009242	0.00786
0.100925	0.009041
0.964273	0.009477
