Adsorption isotherm of Nitrogen on Activated Charcoal
DOI: 10.3327/jnst.36.818
Article source: Figure 9
Adsorbate Nitrogen: InChIKey IJGRMHOSHXDMSA-UHFFFAOYSA-N
Kind: experiment
Temperature: 77 K
Tabular data in the source: 0
pressure (bar)	uptake (mol/g)
0.000105	0.004999
0.000725	0.008514
0.004142	0.010154
0.016543	0.01116
0.103774	0.01089
1.0018	0.010935
