Adsorption isotherm of Xenon on MS5A
DOI: 10.3327/jnst.36.818
Article source: Figure 2
Adsorbate Xenon: InChIKey FHNFHKCVQCLJFQ-UHFFFAOYSA-N
Kind: experiment
Temperature: 273 K
Tabular data in the source: 0
pressure (bar)	uptake (mol/g)
1.5e-05	0
0.000103	1e-06
0.000364	2e-06
0.001225	8e-06
0.002604	1.6e-05
0.008171	5.4e-05
0.102636	0.000662
0.943844	0.002155
