Adsorption isotherm of Xenon on Activated Charcoal
DOI: 10.3327/jnst.36.818
Article source: Figure 3
Adsorbate Xenon: InChIKey FHNFHKCVQCLJFQ-UHFFFAOYSA-N
Kind: experiment
Temperature: 195 K
Tabular data in the source: 0
pressure (bar)	uptake (mol/g)
1e-05	0.000156
3.3e-05	0.000359
9e-05	0.000618
0.000368	0.001443
0.000747	0.001925
0.002102	0.002848
0.004031	0.00345
0.008793	0.004393
0.020414	0.005047
0.055951	0.006324
0.95067	0.00791
