Adsorption isotherm of Xenon on MS5A
DOI: 10.3327/jnst.36.818
Article source: Figure 2
Adsorbate Xenon: InChIKey FHNFHKCVQCLJFQ-UHFFFAOYSA-N
Kind: experiment
Temperature: 195 K
Tabular data in the source: 0
pressure (bar)	uptake (mol/g)
1.1e-05	4e-06
0.000117	4.1e-05
0.000196	9e-05
0.000452	0.000163
0.000565	0.000234
0.001183	0.000518
0.001903	0.000837
0.002428	0.001059
0.010195	0.002367
0.03672	0.002638
0.102212	0.003242
0.957414	0.003512
