Adsorption isotherm of Krypton on Activated Charcoal
DOI: 10.3327/jnst.36.818
Article source: Figure 3
Adsorbate Krypton: InChIKey DNNSSWSSYDEUBZ-UHFFFAOYSA-N
Kind: experiment
Temperature: 195 K
Tabular data in the source: 0
pressure (bar)	uptake (mol/g)
1.1e-05	3e-06
0.000105	3.5e-05
0.000393	0.000119
0.001031	0.000222
0.002048	0.000444
0.010663	0.001173
0.093201	0.003649
0.935621	0.008006
