Adsorption isotherm of Nitrogen on CuBTC/GO-U3
DOI: 10.1039/C3ra40817e
Adsorbate Nitrogen: InChIKey IJGRMHOSHXDMSA-UHFFFAOYSA-N
Temperature: 77 K
Tabular data in the source: 0
pressure (bar)	uptake (cm3(STP)/g)
0.00414863	6.38312
0.00414863	136.133
0.00414863	235.133
0.00414863	254.633
0.00414863	322.133
0.00414863	376.883
0.0191486	382.133
0.0391486	386.633
0.0658153	394.883
0.0941486	401.633
0.122482	406.883
0.149149	410.633
0.192482	413.633
0.259149	416.633
0.325815	417.383
0.447482	420.383
0.602482	421.133
0.679149	421.883
0.749149	423.383
0.789149	423.383
0.842482	423.383
0.874149	424.133
0.915815	424.133
0.949149	424.133
0.962482	425.633
0.984149	426.383
0.995815	427.883
