Adsorption isotherm of Nitrogen on CuBTC/GO-U2
DOI: 10.1039/C3ra40817e
Adsorbate Nitrogen: InChIKey IJGRMHOSHXDMSA-UHFFFAOYSA-N
Temperature: 77 K
Tabular data in the source: 0
pressure (bar)	uptake (cm3(STP)/g)
0.00414863	6.38312
0.00414863	136.133
0.00414863	235.133
0.00414863	254.633
0.0158153	265.133
0.0308153	270.383
0.062482	276.383
0.0991486	280.133
0.135815	282.383
0.177482	283.883
0.224149	285.383
0.289149	286.883
0.350815	287.633
0.455815	291.383
0.529149	291.383
0.597482	291.383
0.662482	292.133
0.734149	295.133
0.812482	296.633
0.869149	296.633
0.932482	297.383
0.972482	299.633
0.992482	299.633
