Adsorption isotherm of Nitrogen on CuBTC
DOI: 10.1039/C3ra40817e
Adsorbate Nitrogen: InChIKey IJGRMHOSHXDMSA-UHFFFAOYSA-N
Temperature: 77 K
Tabular data in the source: 0
pressure (bar)	uptake (cm3(STP)/g)
0.00414863	6.38312
0.00414863	136.133
0.00414863	235.133
0.00914863	247.133
0.0191486	253.133
0.0358153	259.883
0.062482	262.883
0.0991486	265.883
0.154149	269.633
0.240815	273.383
0.300815	274.883
0.352482	274.883
0.404149	275.633
0.454149	275.633
0.504149	275.633
0.550815	276.383
0.604149	275.633
0.694149	276.383
0.785815	277.133
0.842482	277.883
0.929149	277.883
0.975815	277.883
0.997482	277.883
