Adsorption isotherm of Nitrogen on CuBTC/GO-U1
DOI: 10.1039/C3ra40817e
Adsorbate Nitrogen: InChIKey IJGRMHOSHXDMSA-UHFFFAOYSA-N
Temperature: 77 K
Tabular data in the source: 0
pressure (bar)	uptake (cm3(STP)/g)
0.00414863	6.38312
0.00414863	136.133
0.00414863	235.133
0.0108153	241.883
0.0258153	247.883
0.0608153	254.633
0.0941486	256.883
0.135815	261.383
0.180815	262.883
0.242482	265.133
0.312482	266.633
0.405815	266.633
0.505815	267.383
0.605815	268.133
0.707482	268.883
0.810815	268.883
0.900815	269.633
0.957482	271.133
0.992482	271.883
