Adsorption isotherm of Nitrogen on T-MOF-5
DOI: 10.1007/s11814-014-0315-9
Article source: Figure 3
Adsorbate Nitrogen: InChIKey IJGRMHOSHXDMSA-UHFFFAOYSA-N
Kind: experiment
Temperature: 77 K
Tabular data in the source: 0
pressure (bar)	uptake (cm3(STP)/g)
0	0
0.011321	270
0.038491	338.824
0.17434	386.471
0.287547	407.647
0.405283	426.176
0.511698	450
0.674717	481.765
0.799245	524.118
0.916981	582.353
0.950943	645.882
0.966792	709.412
0.98717	767.647
