Adsorption isotherm of Carbon Dioxide on Carbon Nitride Aerogel
DOI: 10.1021/acsnano.5b03400
Article source: Figure 3a
Adsorbate Carbon Dioxide: InChIKey CURLTUGMZLYLDI-UHFFFAOYSA-N
Kind: experiment
Temperature: 300 K
Tabular data in the source: 0
pressure (bar)	uptake (mmol/g)
0	0
0.04	0.182222
0.068571	0.291217
0.102857	0.362751
0.131429	0.508783
0.205714	0.688466
0.274286	0.942646
0.331429	1.16063
0.405714	1.41439
0.474286	1.70561
0.537143	1.92317
0.6	2.17778
0.668571	2.46899
0.737143	2.76021
0.805714	3.08847
0.868571	3.34307
0.931429	3.74582
0.994286	4.0745
