Adsorption isotherm of Carbon Dioxide on rGA
DOI: 10.1021/acsnano.5b03400
Article source: Figure 3a
Adsorbate Carbon Dioxide: InChIKey CURLTUGMZLYLDI-UHFFFAOYSA-N
Kind: experiment
Temperature: 300 K
Tabular data in the source: 0
pressure (bar)	uptake (mmol/g)
0	0
0.074587	0.109157
0.143513	0.143899
0.200901	0.216384
0.269826	0.251126
0.327214	0.323611
0.401844	0.395454
0.476474	0.467296
0.539653	0.502252
0.602788	0.574523
0.665966	0.609479
0.729101	0.68175
0.803774	0.716277
0.855458	0.751662
0.935792	0.860605
