Adsorption isotherm of Carbon Dioxide on D-rGA
DOI: 10.1021/acsnano.5b03400
Article source: Figure 3a
Adsorbate Carbon Dioxide: InChIKey CURLTUGMZLYLDI-UHFFFAOYSA-N
Kind: experiment
Temperature: 300 K
Tabular data in the source: 0
pressure (bar)	uptake (mmol/g)
0	0
0.068795	0.148148
0.137633	0.259259
0.206471	0.37037
0.269476	0.555556
0.332567	0.666667
0.401362	0.814815
0.470158	0.962963
0.538953	1.11111
0.602001	1.25926
0.670839	1.37037
0.733887	1.51852
0.802639	1.7037
0.871435	1.85185
0.934483	2
0.997573	2.11111
