Adsorption isotherm of Nitrogen on Fe/MN binary oxide (57:1)
DOI: 10.1007/s10967-015-4453-2
Article source: Figure 1(c)
Adsorbate Nitrogen: InChIKey IJGRMHOSHXDMSA-UHFFFAOYSA-N
Kind: experiment
Temperature: 77 K
Tabular data in the source: 0
pressure (bar)	uptake (cm3(STP)/g)
0.00079	42.44
0.027489	53.912
0.065274	60.137
0.102024	66.035
0.141936	70.77
0.148178	72.498
0.181848	75.923
0.190947	77.472
0.22257	79.615
0.235115	81.581
0.264164	83.933
0.283832	85.987
0.30665	88.31
0.336946	91.407
0.348102	91.853
0.391601	99.061
0.394691	96.736
0.441422	102.025
0.442081	101.799
0.491092	120.82
0.491821	120.809
0.541785	112.907
0.542362	113.058
0.592113	119.191
0.594605	135.105
0.642157	125.713
0.644123	126.397
0.688665	131.878
0.693499	147.912
0.732833	138.193
0.743026	155.508
0.776048	143.941
0.791885	161.732
0.814045	150.077
0.839356	166.318
0.848526	155.439
0.882429	161.367
0.883817	168.519
0.913384	166.639
0.92762	170.602
0.941927	170.6
0.960997	173.251
0.966944	173.251
0.986237	178.107
0.988871	179.19
0.994667	196.763
