Adsorption isotherm of Methane on IRMOF-1
DOI: 10.1038/srep12045
Article source: Figure 5b
Adsorbate Methane: InChIKey VNWKTOKETHGBQD-UHFFFAOYSA-N
Kind: experiment
Temperature: 298 K
Tabular data in the source: 0
pressure (bar)	uptake (mg/g)
0	0
10.1806	48.4642
20.1608	92.8328
30.1556	122.867
39.5458	144.027
49.9659	158.362
59.9817	167.918
69.1853	171.331
79.4134	173.379
