Adsorption isotherm of Carbon Dioxide on IRMOF-1
DOI: 10.1038/srep12045
Article source: Figure 5a
Adsorbate Carbon Dioxide: InChIKey CURLTUGMZLYLDI-UHFFFAOYSA-N
Kind: experiment
Temperature: 298 K
Tabular data in the source: 0
pressure (bar)	uptake (mg/g)
0	0
4.90655	209.359
10.1604	624.497
15.3507	855.705
20.4896	938.016
25.3357	972.204
30.4535	993.205
35.5667	1001.07
40.8119	991.391
45.6414	977.406
49.7742	946.025
