Adsorption isotherm of Methane on pmg-MOF-5
DOI: 10.1038/srep12045
Article source: Figure 5b
Adsorbate Methane: InChIKey VNWKTOKETHGBQD-UHFFFAOYSA-N
Kind: experiment
Temperature: 298 K
Tabular data in the source: 0
pressure (bar)	uptake (mg/g)
0	0
9.76162	58.0205
20.1475	105.802
30.1368	141.297
39.9305	167.918
49.5343	180.205
59.7547	189.761
69.9793	195.222
79.5929	197.952
