Adsorption isotherm of Carbon Dioxide on IRMOF-5
DOI: 10.1038/srep12045
Article source: Figure 5a
Adsorbate Carbon Dioxide: InChIKey CURLTUGMZLYLDI-UHFFFAOYSA-N
Kind: experiment
Temperature: 298 K
Tabular data in the source: 0
pressure (bar)	uptake (mg/g)
0	0
5.10364	380.128
10.4487	659.483
15.451	746.198
20.2956	776.007
25.5514	796.984
30.8043	809.202
35.6398	812.735
40.6133	816.243
45.5869	819.751
50.4164	805.766
