Adsorption isotherm of Carbon Dioxide on pmg-MOF-5
DOI: 10.1038/srep12045
Article source: Figure 5a
Adsorbate Carbon Dioxide: InChIKey CURLTUGMZLYLDI-UHFFFAOYSA-N
Kind: experiment
Temperature: 298 K
Tabular data in the source: 0
pressure (bar)	uptake (mg/g)
0	0
5.05071	226.852
10.0314	650.797
15.6572	943.243
20.5259	1043.12
25.6543	1094.78
30.6445	1146.46
35.6211	1158.72
40.5932	1157.85
45.7003	1148.2
50.6633	1121.05
