Adsorption isotherm of Hydrogen on Cr-MIL(101)
DOI: 10.1039/C3cp54898h
Adsorbate Hydrogen: InChIKey UFHFLCQGNIYNRP-UHFFFAOYSA-N
Temperature: 77 K
Tabular data in the source: 0
pressure (bar)	uptake (wt%)
0.00193498	0.0588235
0.111068	0.376471
0.115712	0.517647
0.319659	0.717647
0.52322	0.905882
0.724845	1.03529
0.82856	1.18824
0.92531	1.12941
1.03019	1.31765
1.43111	1.50588
1.83011	1.63529
2.2291	1.76471
2.6281	1.89412
3.0267	2.01176
3.42531	2.12941
4.61803	2.38824
6.00658	2.6
7.0952	2.69412
8.28212	2.77647
9.2709	2.83529
10.2593	2.88235
11.7423	2.96471
13.3235	3.03529
14.8053	3.08235
16.2875	3.14118
17.9663	3.17647
19.9412	3.21176
23.2001	3.28235
25.8657	3.31765
27.5449	3.36471
30.2101	3.38824
33.5662	3.41176
36.8231	3.42353
39.5867	3.43529
40.3762	3.43529
41.9551	3.43529
43.3359	3.41176
45.0139	3.42353
