Adsorption isotherm of Hydrogen on Pd@MIL-101(Cr)
DOI: 10.1039/C3cp54898h
Adsorbate Hydrogen: InChIKey UFHFLCQGNIYNRP-UHFFFAOYSA-N
Temperature: 298 K
Tabular data in the source: 0
pressure (bar)	uptake (wt%)
-0.00280346	-0.000172247
2.77556e-17	8.67362e-19
0.0293611	0.00849888
0.113916	0.0110245
0.174634	0.0120008
0.187206	0.0123072
