Adsorption isotherm of Hydrogen on Ni@MIL-101(Cr)
DOI: 10.1039/C3cp54898h
Adsorbate Hydrogen: InChIKey UFHFLCQGNIYNRP-UHFFFAOYSA-N
Temperature: 77 K
Tabular data in the source: 0
pressure (bar)	uptake (wt%)
-0.0936533	0.152941
0.0100619	0.305882
0.217879	0.623529
0.619969	0.847059
1.12771	1.28235
1.62693	1.45882
1.92841	1.62353
2.52515	1.76471
3.12229	1.91765
4.31308	2.11765
5.60255	2.31765
7.18576	2.44706
8.57159	2.57647
10.154	2.68235
11.7353	2.75294
13.317	2.83529
14.8974	2.88235
16.577	2.94118
18.2558	2.97647
20.8235	3.03529
23.3913	3.09412
26.0569	3.12941
28.7217	3.14118
31.387	3.16471
34.0515	3.16471
36.815	3.17647
39.4799	3.18824
42.1436	3.16471
44.8077	3.15294
