Adsorption isotherm of Hydrogen on Ni@MIL-101(Cr)
DOI: 10.1039/C3cp54898h
Adsorbate Hydrogen: InChIKey UFHFLCQGNIYNRP-UHFFFAOYSA-N
Temperature: 298 K
Tabular data in the source: 0
pressure (bar)	uptake (wt%)
0.849057	0.00757098
1.80425	0.0128707
2.75943	0.0189274
3.82075	0.0242271
4.77594	0.0287697
5.625	0.0340694
6.58019	0.0393691
7.64151	0.0431546
8.49057	0.0484543
9.33962	0.0529968
10.2948	0.0575394
11.1439	0.0635962
11.9929	0.0673817
12.7358	0.0704101
13.5849	0.0741956
14.3278	0.0787382
14.9646	0.0832808
16.0259	0.0878233
16.875	0.0916088
17.6179	0.0953943
18.3608	0.0976656
18.9976	0.100694
19.6344	0.105237
20.3774	0.108265
21.2264	0.112808
21.9693	0.116593
22.7123	0.118864
23.4552	0.121136
24.092	0.124921
25.0472	0.12795
25.5778	0.130978
26.533	0.133249
27.0637	0.137792
27.8066	0.14082
28.5495	0.143091
29.1863	0.145363
29.9292	0.149148
30.4599	0.15142
31.2028	0.154448
31.8396	0.156719
32.3703	0.161262
33.2193	0.162776
33.75	0.165804
34.3868	0.167319
35.1297	0.170347
35.5542	0.172618
36.2972	0.175647
36.934	0.178675
37.4646	0.181703
37.8892	0.183218
38.5259	0.184732
39.1627	0.187003
39.9057	0.189274
40.4363	0.19306
40.967	0.194574
41.4976	0.196088
42.1344	0.199117
42.6651	0.201388
43.3019	0.203659
43.7264	0.205931
44.3632	0.208959
44.8939	0.210473
45.4245	0.212744
45.8491	0.214259
46.2736	0.21653
46.6981	0.218044
