Adsorption isotherm of Nitrogen on Cr-MIL(101)
DOI: 10.1039/C3cp54898h
Adsorbate Nitrogen: InChIKey IJGRMHOSHXDMSA-UHFFFAOYSA-N
Temperature: 77 K
Tabular data in the source: 0
pressure (bar)	uptake (cm3(STP)/g)
0.00280862	295.818
0.00292096	275.65
0.00711517	322.738
0.020297	356.443
0.024566	390.086
0.0377853	417.068
0.0421293	437.266
0.0509296	457.495
0.0642238	471.033
0.0685677	491.231
0.0818619	504.768
0.0906622	524.997
0.103957	538.534
0.1083	558.733
0.121482	592.437
0.13032	605.944
0.139158	619.45
0.152452	632.988
0.165708	653.248
0.17904	660.062
0.19679	673.631
0.205628	687.137
0.218698	741.009
0.218848	714.119
0.227573	747.793
0.236485	747.855
0.263187	754.762
0.285431	761.639
0.307712	761.793
0.325463	775.361
0.356658	775.577
0.378938	775.731
0.405677	775.916
0.427958	776.071
0.445747	782.916
0.468028	783.071
0.49031	783.225
0.508098	790.071
0.525924	790.194
0.543749	790.317
0.56603	790.471
0.588275	797.348
0.615013	797.533
0.637295	797.687
0.664032	797.872
0.686277	804.749
0.704102	804.872
0.735297	805.088
0.76649	805.304
0.784316	805.427
0.806598	805.581
0.824423	805.705
0.837792	805.797
0.86453	805.982
0.886774	812.859
0.909056	813.013
0.931301	819.89
0.958001	826.797
0.962383	840.273
