Adsorption isotherm of Nitrogen on Ni@MIL-101(Cr)
DOI: 10.1039/C3cp54898h
Adsorbate Nitrogen: InChIKey IJGRMHOSHXDMSA-UHFFFAOYSA-N
Temperature: 77 K
Tabular data in the source: 0
pressure (bar)	uptake (cm3(STP)/g)
0.00314566	235.316
0.0118711	268.99
0.0161777	295.91
0.0249406	322.862
0.0337409	343.091
0.0469601	370.073
0.0602917	376.888
0.0646731	390.363
0.0734734	410.592
0.0823113	424.099
0.0956053	437.636
0.0999869	451.112
0.113243	471.372
0.122044	491.601
0.130919	498.385
0.144176	518.645
0.157508	525.46
0.175257	539.028
0.18859	545.843
0.201884	559.38
0.210684	579.609
0.219409	613.283
0.232741	620.098
0.250567	620.221
0.272848	620.375
0.290636	627.221
0.308424	634.067
0.326249	634.19
0.344037	641.036
0.361862	641.159
0.384144	641.314
0.401969	641.437
0.419795	641.56
0.446533	641.745
0.468815	641.9
0.495515	648.807
0.522253	648.992
0.544535	649.146
0.566817	649.3
0.589099	649.455
0.611343	656.331
0.642537	656.547
0.664819	656.701
0.687101	656.855
0.709383	657.01
0.736121	657.195
0.758402	657.349
0.780646	664.225
0.807347	671.133
0.838541	671.349
0.856367	671.472
0.874192	671.595
0.896474	671.75
0.918756	671.904
0.936505	685.472
0.954256	699.04
0.963094	712.547
