Adsorption isotherm of Nitrogen on Pd@MIL-101(Cr)
DOI: 10.1039/C3cp54898h
Adsorbate Nitrogen: InChIKey IJGRMHOSHXDMSA-UHFFFAOYSA-N
Temperature: 77 K
Tabular data in the source: 0
pressure (bar)	uptake (cm3(STP)/g)
0.00396951	87.4224
0.0262137	94.299
0.0573333	107.96
0.0885276	108.176
0.110772	115.052
0.146423	115.299
0.186492	122.299
0.208737	129.176
0.222143	122.546
0.257756	129.515
0.280038	129.669
0.302283	136.546
0.324564	136.7
0.355758	136.916
0.373583	137.039
0.400322	137.224
0.42706	137.409
0.444885	137.532
0.471623	137.717
0.493905	137.871
0.516187	138.026
0.542925	138.211
0.565206	138.365
0.591944	138.55
0.618682	138.735
0.640964	138.889
0.667702	139.074
0.689984	139.228
0.716722	139.413
0.743461	139.598
0.761286	139.722
0.788023	139.907
0.814724	146.814
0.83255	146.938
0.863743	147.153
0.881607	140.554
0.908345	140.739
0.930589	147.616
0.948377	154.462
0.970583	168.061
