Adsorption isotherm of Hydrogen on Pd@MIL-101(Cr)
DOI: 10.1039/C3cp54898h
Adsorbate Hydrogen: InChIKey UFHFLCQGNIYNRP-UHFFFAOYSA-N
Temperature: 77 K
Tabular data in the source: 0
pressure (bar)	uptake (wt%)
-0.0990712	-0.0117647
0.102554	0.117647
0.106037	0.223529
0.109907	0.341176
0.211687	0.435294
0.216331	0.576471
0.219427	0.670588
0.419505	0.752941
0.422214	0.835294
0.722136	0.952941
0.823916	1.04706
0.92531	1.12941
1.12539	1.21176
1.22717	1.30588
1.42686	1.37647
1.72485	1.43529
1.92454	1.50588
2.12423	1.57647
2.3243	1.65882
2.72098	1.71765
2.92067	1.78824
3.11958	1.83529
3.41796	1.90588
3.81463	1.96471
4.01316	2
4.70743	2.10588
5.40015	2.16471
6.09327	2.23529
6.78599	2.29412
7.38003	2.35294
8.07237	2.4
8.86339	2.44706
9.55534	2.48235
10.346	2.51765
11.1366	2.55294
11.9272	2.58824
12.6188	2.61176
13.5081	2.64706
14.2984	2.67059
14.9899	2.69412
15.7802	2.71765
16.5704	2.74118
17.3603	2.75294
18.1498	2.75294
18.9396	2.76471
19.7295	2.77647
20.5197	2.8
21.4079	2.8
22.2964	2.81176
23.1846	2.81176
23.8758	2.82353
24.6656	2.83529
25.5538	2.83529
26.4423	2.84706
27.2318	2.84706
28.12	2.84706
28.9094	2.84706
29.7972	2.83529
30.488	2.83529
31.2775	2.83529
32.1656	2.83529
32.9551	2.83529
33.8433	2.83529
34.5341	2.83529
35.4218	2.82353
36.1122	2.81176
37	2.8
37.7895	2.8
38.5786	2.78824
39.4663	2.77647
40.3541	2.76471
