Adsorption isotherm of Hydrogen on Pd@MIL-101(Cr)
DOI: 10.1039/C3cp54898h
Adsorbate Hydrogen: InChIKey UFHFLCQGNIYNRP-UHFFFAOYSA-N
Temperature: 298 K
Tabular data in the source: 0
pressure (bar)	uptake (wt%)
-0.212264	0.0015142
0.849057	0.02347
1.69811	0.0295268
2.6533	0.0348265
3.82075	0.0401262
4.66981	0.0454259
5.51887	0.0514826
6.47406	0.0560252
7.42925	0.0613249
8.38443	0.0658675
9.23349	0.0704101
10.1887	0.0749527
11.1439	0.0794953
11.9929	0.0840379
12.7358	0.0878233
13.5849	0.0923659
14.434	0.0961514
15.283	0.101451
16.1321	0.103722
16.9811	0.109022
17.6179	0.11205
18.5731	0.115836
19.2099	0.119621
19.8467	0.121893
20.6958	0.125678
21.4387	0.128707
22.2877	0.133249
23.0307	0.137035
23.7736	0.14082
24.5165	0.144606
25.3656	0.148391
25.8962	0.15142
26.7453	0.154448
27.5943	0.157476
28.2311	0.159748
28.9741	0.16429
29.6108	0.166562
30.3538	0.16959
31.0967	0.172618
31.7335	0.175647
32.3703	0.177918
33.1132	0.181703
33.75	0.184732
34.3868	0.186246
35.0236	0.190789
35.6604	0.19306
36.191	0.194574
36.934	0.19836
37.5708	0.200631
38.2075	0.202902
38.9505	0.204416
39.375	0.207445
40.0118	0.210473
40.5425	0.212744
40.967	0.215016
41.7099	0.21653
42.2406	0.220315
42.7712	0.223344
43.3019	0.225615
43.8325	0.227886
44.6816	0.229401
45	0.230158
45.5307	0.233186
46.0613	0.2347
46.592	0.236972
