Adsorption isotherm of Hydrogen on Cr-MIL(101)
DOI: 10.1039/C3cp54898h
Adsorbate Hydrogen: InChIKey UFHFLCQGNIYNRP-UHFFFAOYSA-N
Temperature: 298 K
Tabular data in the source: 0
pressure (bar)	uptake (wt%)
2.01651	0.0121136
3.92689	0.0204416
5.83726	0.0302839
7.85377	0.0401262
9.55189	0.0476972
11.4623	0.0575394
13.3726	0.0651104
15.0708	0.0741956
16.875	0.0817666
18.6792	0.0900946
20.4835	0.0969085
22.1816	0.104479
23.9858	0.11205
25.684	0.121136
27.4882	0.12795
29.0802	0.135521
30.7783	0.141577
32.3703	0.147634
34.1745	0.154448
35.6604	0.161262
37.1462	0.165804
38.8443	0.171861
40.4363	0.178675
41.9222	0.183218
43.408	0.188517
44.8939	0.193817
