Adsorption isotherm of Carbon Dioxide on C48H60N12O35Zn11
DOI: 10.1039/C1ce05429e
Adsorbate Carbon Dioxide: InChIKey CURLTUGMZLYLDI-UHFFFAOYSA-N
Temperature: 273 K
Tabular data in the source: 0
pressure (bar)	uptake (cm3(STP)/g)
0.00990631	0.499226
0.0198126	1.16512
0.0264168	1.74794
0.033021	2.24742
0.0429273	2.74665
0.0594378	3.41202
0.0726462	4.07766
0.0891568	4.82637
0.105667	5.32508
0.122178	5.99045
0.138688	6.65583
0.158501	7.23762
0.178314	7.73607
0.201428	8.23426
0.224543	8.81579
0.247658	9.31398
0.26747	9.89577
0.293887	10.3937
0.320304	10.8916
0.346721	11.3062
0.373138	11.7208
0.399554	12.2188
0.429273	12.6331
0.458992	13.0475
0.485409	13.4621
0.515128	13.8764
0.544847	14.1241
0.574566	14.5384
0.604285	14.9528
0.634004	15.2838
0.663723	15.6148
0.693441	16.0292
0.719858	16.3604
0.749577	16.6914
0.782598	17.0222
0.812317	17.3532
0.842036	17.6009
0.871755	18.0152
0.901474	18.2629
0.934495	18.5103
0.964214	18.8413
0.977422	19.007
