Adsorption isotherm of Nitrogen on UiO-66
DOI: 10.1016/j.egypro.2013.05.082
Adsorbate Nitrogen: InChIKey IJGRMHOSHXDMSA-UHFFFAOYSA-N
Temperature: 303 K
Tabular data in the source: 0
pressure (bar)	uptake (mol/g)
0.0261346	4.513e-06
0.0522594	1.3788e-05
0.0816523	2.30319e-05
0.114323	2.74826e-05
0.133931	2.72959e-05
0.16987	3.17155e-05
0.192746	3.14977e-05
0.215622	3.12798e-05
0.231963	3.11242e-05
0.267901	3.55438e-05
0.290768	4.00879e-05
0.336501	4.91762e-05
0.365903	5.36581e-05
0.421441	6.26529e-05
0.463925	6.22483e-05
0.516204	6.65123e-05
0.568493	6.60144e-05
0.643628	7.95845e-05
0.712238	8.84549e-05
0.800465	9.23765e-05
0.895219	0.000100998
0.999776	0.000109526
