Adsorption isotherm of Carbon Dioxide on UiO-66
DOI: 10.1016/j.egypro.2013.05.082
Adsorbate Carbon Dioxide: InChIKey CURLTUGMZLYLDI-UHFFFAOYSA-N
Temperature: 328 K
Tabular data in the source: 0
pressure (bar)	uptake (mol/g)
0.00326797	9.49269e-06
0.0130719	2.3685e-05
0.0261438	3.78462e-05
0.0457516	5.67071e-05
0.0588235	7.08683e-05
0.0718954	8.50296e-05
0.0882353	8.96359e-05
0.0980392	0.000122876
0.117647	0.000132213
0.130719	0.000146374
0.143791	0.000160535
0.153595	0.00017949
0.179739	0.000193526
0.22549	0.000235948
0.281046	0.000283038
0.339869	0.00033962
0.359477	0.000358481
0.418301	0.000410302
0.46732	0.000457454
0.519608	0.000499813
0.575163	0.000537379
0.650327	0.00060333
0.72549	0.000664519
0.80719	0.000716122
0.905229	0.000791379
1.00654	0.000861843
