Adsorption isotherm of Nitrogen on UiO-66
DOI: 10.1016/j.egypro.2013.05.082
Adsorbate Nitrogen: InChIKey IJGRMHOSHXDMSA-UHFFFAOYSA-N
Temperature: 328 K
Tabular data in the source: 0
pressure (bar)	uptake (mol/g)
0.0256585	1.83405e-05
0.0482047	2.2622e-05
0.0578835	2.24398e-05
0.0739771	2.68428e-05
0.0900706	3.12457e-05
0.112655	3.08206e-05
0.12556	3.05777e-05
0.138503	2.56282e-05
0.154597	3.00311e-05
0.173916	3.43733e-05
0.193274	3.4009e-05
0.21582	3.82904e-05
0.244895	3.30373e-05
0.257762	3.75009e-05
0.306194	3.18834e-05
0.344872	3.58612e-05
0.370645	4.0082e-05
0.419039	3.9171e-05
0.467357	4.76733e-05
0.51894	5.14082e-05
0.573749	5.50824e-05
0.644652	6.31595e-05
0.722083	6.1702e-05
0.799438	6.96576e-05
0.896151	7.72489e-05
0.999317	8.47187e-05
