Adsorption isotherm of Carbon Dioxide on UiO-66
DOI: 10.1016/j.egypro.2013.05.082
Adsorbate Carbon Dioxide: InChIKey CURLTUGMZLYLDI-UHFFFAOYSA-N
Temperature: 303 K
Tabular data in the source: 0
pressure (bar)	uptake (mol/g)
0.00983607	2.83932e-05
0.0163934	5.20699e-05
0.0327869	6.61575e-05
0.0393443	8.50863e-05
0.042623	0.000108794
0.0557377	0.000127661
0.0655738	0.000141811
0.0754098	0.000160708
0.0819672	0.000189133
0.0918033	0.000198535
0.104918	0.000222149
0.114754	0.00025529
0.131148	0.000278873
0.140984	0.000302519
0.160656	0.000340314
0.180328	0.00037811
0.213115	0.000439519
0.22623	0.000463134
0.268852	0.000529198
0.281967	0.00055756
0.331148	0.000637805
0.370492	0.000699153
0.416393	0.000765186
0.462295	0.000835966
0.518033	0.000916149
0.577049	0.000982058
0.64918	0.00107158
0.727869	0.00117054
0.796721	0.00125534
0.895082	0.00135411
1.00656	0.00147175
