Adsorption isotherm of Ethene on CNPrNPhPMO
DOI: 10.1016/j.micromeso.2021.110975
Article source: Figure S9 (right 3)
Adsorbate Ethene: InChIKey VGGSQFUCUMXWEO-UHFFFAOYSA-N
Kind: experiment
Temperature: 298 K
Tabular data in the source: 0
pressure (bar)	uptake (mmol/g)
0.113636	0.114441
0.295455	0.200272
0.590909	0.352861
1.29545	0.648501
2.72727	1.05858
4.86364	1.5545
9.61364	2.40327
