Adsorption isotherm of Nitrogen on NH2PhPMO
DOI: 10.1016/j.micromeso.2021.110975
Article source: Figure S4B
Adsorbate Nitrogen: InChIKey IJGRMHOSHXDMSA-UHFFFAOYSA-N
Kind: experiment
Temperature: 77 K
Tabular data in the source: 0
pressure (bar)	uptake (cm3(STP)/g)
0	73.6349
0	85.4914
0.003217	99.844
0.014475	111.076
0.027342	121.061
0.032167	126.677
0.043425	132.293
0.056292	137.285
0.064333	141.654
0.075592	146.022
0.085242	149.766
0.093283	155.382
0.143142	172.231
0.20265	195.944
0.226775	207.176
0.239642	211.544
0.249292	219.033
0.262158	223.401
0.273417	230.889
0.297542	241.498
0.3088	248.362
0.321667	253.354
0.352225	261.466
0.365092	263.339
0.374742	265.211
0.389217	265.835
0.400475	267.707
0.448725	272.699
0.503408	277.067
0.606342	284.555
0.7141	292.044
0.82025	300.78
0.865283	304.524
0.9071	310.14
0.961783	317.005
0.990733	324.493
0.966608	318.877
0.944092	317.005
0.918358	314.509
0.894233	312.012
0.8685	309.516
0.845983	307.644
0.826683	305.148
0.804167	305.772
0.755917	300.78
0.701233	297.66
0.652983	293.292
0.5983	291.42
0.556483	290.172
0.509842	284.555
0.448725	274.571
0.389217	268.331
0.340967	258.97
0.292717	240.25
0.238033	214.665
0.18335	190.952
0.098108	157.878
0.046642	135.413
0.0386	129.797
0.030558	127.925
0.014475	112.949
