Adsorption isotherm of Ethene on NH2BphPMO
DOI: 10.1016/j.micromeso.2021.110975
Article source: Figure S9 (right 2)
Adsorbate Ethene: InChIKey VGGSQFUCUMXWEO-UHFFFAOYSA-N
Kind: experiment
Temperature: 298 K
Tabular data in the source: 0
pressure (bar)	uptake (mmol/g)
0.136364	0.123978
0.272727	0.26703
0.590909	0.448229
1.20455	0.734332
2.40909	1.13488
4.75	1.68801
9.56818	2.4891
