Adsorption isotherm of Ethane on PhPMO_Me2Ph
DOI: 10.1016/j.micromeso.2021.110975
Article source: Figure S9 (left 4)
Adsorbate Ethane: InChIKey OTMSDBZUPAUEDD-UHFFFAOYSA-N
Kind: experiment
Temperature: 298 K
Tabular data in the source: 0
pressure (bar)	uptake (mmol/g)
0.136364	0.067123
0.295455	0.134247
0.590909	0.210959
1.18182	0.393151
2.38636	0.709589
4.75	1.2274
9.54545	2.15753
