Adsorption isotherm of Nitrogen on PhPMO_Me3
DOI: 10.1016/j.micromeso.2021.110975
Article source: Figure S2B
Adsorbate Nitrogen: InChIKey IJGRMHOSHXDMSA-UHFFFAOYSA-N
Kind: experiment
Temperature: 77 K
Tabular data in the source: 0
pressure (bar)	uptake (cm3(STP)/g)
0.004648	80.402
0.009296	93.8023
0.018592	107.203
0.029437	117.253
0.037183	123.953
0.051127	131.491
0.058874	136.516
0.072818	143.216
0.079015	147.404
0.082114	149.079
0.088311	152.429
0.100705	156.616
0.144086	176.717
0.204509	202.68
0.302116	262.982
0.40592	329.146
0.505076	343.384
0.60733	356.784
0.717331	365.997
0.821135	375.209
0.910995	385.26
0.993109	406.198
0.949728	396.985
0.90015	387.772
0.850572	381.072
0.808741	376.884
0.706486	369.347
0.605781	361.809
0.509724	354.271
0.395075	328.308
0.297468	258.794
0.189016	195.142
0.178171	191.792
0.103804	159.129
0.075916	144.891
