Adsorption isotherm of Ethene on NH2PhPMO
DOI: 10.1016/j.micromeso.2021.110975
Article source: Figure S9 (right 1)
Adsorbate Ethene: InChIKey VGGSQFUCUMXWEO-UHFFFAOYSA-N
Kind: experiment
Temperature: 298 K
Tabular data in the source: 0
pressure (bar)	uptake (mmol/g)
0.113636	0.122973
0.318182	0.245946
0.590909	0.435135
1.22727	0.747297
2.47727	1.22027
4.77273	1.85405
9.59091	2.83784
