Adsorption isotherm of Ethene on PhPMO
DOI: 10.1016/j.micromeso.2021.110975
Article source: Figure S9 (left 1)
Adsorbate Ethene: InChIKey VGGSQFUCUMXWEO-UHFFFAOYSA-N
Kind: experiment
Temperature: 298 K
Tabular data in the source: 0
pressure (bar)	uptake (mmol/g)
0.159453	0.189702
0.296128	0.294038
0.615034	0.48374
1.29841	0.863144
2.57403	1.38482
4.82916	2.06775
9.68109	3.21545
