Adsorption isotherm of Nitrogen on iPrNHPhPMO
DOI: 10.1016/j.micromeso.2021.110975
Article source: Figure S4C
Adsorbate Nitrogen: InChIKey IJGRMHOSHXDMSA-UHFFFAOYSA-N
Kind: experiment
Temperature: 77 K
Tabular data in the source: 0
pressure (bar)	uptake (cm3(STP)/g)
0	59.2824
0.003212	70.5148
0.014452	79.8752
0.027298	89.2356
0.035327	94.8518
0.046568	101.716
0.057808	106.084
0.064231	111.7
0.078683	115.445
0.086712	120.437
0.094741	122.933
0.142915	139.158
0.202329	161.622
0.29707	204.68
0.401446	235.257
0.504216	248.986
0.605381	262.715
0.714574	279.563
0.817344	298.284
0.908874	326.365
0.990769	380.031
0.942595	361.31
0.894422	342.59
0.846248	322.621
0.804498	312.637
0.703334	293.916
0.600563	276.443
0.509034	260.218
0.390206	235.257
0.186271	156.63
0.178242	152.886
0.099559	126.053
0.014452	82.9953
0.004817	69.8908
0.004817	61.7785
