Adsorption isotherm of Ethane on NH2PhPMO
DOI: 10.1016/j.micromeso.2021.110975
Article source: Figure S9 (right 1)
Adsorbate Ethane: InChIKey OTMSDBZUPAUEDD-UHFFFAOYSA-N
Kind: experiment
Temperature: 298 K
Tabular data in the source: 0
pressure (bar)	uptake (mmol/g)
0.113636	0.094595
0.295455	0.17027
0.590909	0.321622
1.22727	0.577027
2.52273	1.03108
4.79545	1.7027
9.54545	3.01757
