Adsorption isotherm of Ethene on PhPMO_Me2Ph
DOI: 10.1016/j.micromeso.2021.110975
Article source: Figure S9 (left 4)
Adsorbate Ethene: InChIKey VGGSQFUCUMXWEO-UHFFFAOYSA-N
Kind: experiment
Temperature: 298 K
Tabular data in the source: 0
pressure (bar)	uptake (mmol/g)
0.136364	0.057534
0.295455	0.134247
0.613636	0.258904
1.18182	0.469863
2.36364	0.776712
4.75	1.26575
9.54545	1.99452
