Adsorption isotherm of Ethane on PhPMO_Me3
DOI: 10.1016/j.micromeso.2021.110975
Article source: Figure S9 (left 3)
Adsorbate Ethane: InChIKey OTMSDBZUPAUEDD-UHFFFAOYSA-N
Kind: experiment
Temperature: 298 K
Tabular data in the source: 0
pressure (bar)	uptake (mmol/g)
0.113636	0.057692
0.318182	0.153846
0.590909	0.25
1.18182	0.432692
2.36364	0.778846
4.75	1.34615
9.52273	2.41346
