Adsorption isotherm of Nitrogen on CNPrNPhPMO
DOI: 10.1016/j.micromeso.2021.110975
Article source: Figure S4D
Adsorbate Nitrogen: InChIKey IJGRMHOSHXDMSA-UHFFFAOYSA-N
Kind: experiment
Temperature: 77 K
Tabular data in the source: 0
pressure (bar)	uptake (cm3(STP)/g)
0	56.875
0	68.125
0.003212	84.375
0.016058	96.25
0.028904	107.5
0.032116	114.375
0.046568	120.625
0.057808	126.875
0.064231	131.25
0.073866	136.875
0.089924	141.25
0.096347	145
0.142915	166.25
0.202329	190
0.228021	201.875
0.237656	208.125
0.252108	215.625
0.263349	222.5
0.272983	229.375
0.300282	241.25
0.309916	248.125
0.322763	251.25
0.353273	260.625
0.366119	263.125
0.377359	265.625
0.391811	267.5
0.401446	270
0.448014	276.25
0.504216	284.375
0.605381	295.625
0.714574	310
0.823767	328.75
0.863912	337.5
0.905662	351.25
0.961865	379.375
0.966682	394.375
0.944201	384.375
0.918509	374.375
0.896028	365
0.870335	356.25
0.846248	349.375
0.828585	342.5
0.802892	337.5
0.756324	328.75
0.703334	318.75
0.653554	311.875
0.598958	305
0.558813	298.75
0.509034	290.625
0.44962	278.75
0.391811	269.375
0.340426	257.5
0.295464	239.375
0.239262	211.25
0.186271	185
0.101164	150.625
0.040145	120
0.016058	98.75
