Adsorption isotherm of Ethene on PhPMO_Me3
DOI: 10.1016/j.micromeso.2021.110975
Article source: Figure S9 (left 3)
Adsorbate Ethene: InChIKey VGGSQFUCUMXWEO-UHFFFAOYSA-N
Kind: experiment
Temperature: 298 K
Tabular data in the source: 0
pressure (bar)	uptake (mmol/g)
9.52273	2.41346
4.75	1.54808
2.36364	0.990385
1.18182	0.605769
0.590909	0.365385
0.295455	0.211538
0.159091	0.105769
