Adsorption isotherm of Ethane on NH2BphPMO
DOI: 10.1016/j.micromeso.2021.110975
Article source: Figure S9 (right 2)
Adsorbate Ethane: InChIKey OTMSDBZUPAUEDD-UHFFFAOYSA-N
Kind: experiment
Temperature: 298 K
Tabular data in the source: 0
pressure (bar)	uptake (mmol/g)
0.113636	0.095368
0.295455	0.190736
0.590909	0.343324
1.22727	0.591281
2.40909	0.991826
4.77273	1.5545
9.56818	2.51771
