Adsorption isotherm of Ethane on CNPrNPhPMO
DOI: 10.1016/j.micromeso.2021.110975
Article source: Figure S9 (right 3)
Adsorbate Ethane: InChIKey OTMSDBZUPAUEDD-UHFFFAOYSA-N
Kind: experiment
Temperature: 298 K
Tabular data in the source: 0
pressure (bar)	uptake (mmol/g)
0.113636	0.095368
0.318182	0.162125
0.590909	0.276567
1.43182	0.56267
2.75	0.944142
4.86364	1.46867
9.59091	2.47003
