Adsorption isotherm of Nitrogen on PhPMA_Me2Ph
DOI: 10.1016/j.micromeso.2021.110975
Article source: Figure S2D
Adsorbate Nitrogen: InChIKey IJGRMHOSHXDMSA-UHFFFAOYSA-N
Kind: experiment
Temperature: 77 K
Tabular data in the source: 0
pressure (bar)	uptake (cm3(STP)/g)
0.006197	24.2484
0.007747	29.5098
0.018592	34.3137
0.027888	38.4314
0.037183	40.4902
0.051127	43.0065
0.060423	44.8366
0.071268	47.1242
0.079015	49.183
0.088311	50.3268
0.100705	52.1569
0.144086	59.0196
0.204509	68.6274
0.302116	91.0458
0.40592	106.601
0.505076	110.948
0.610429	114.15
0.718881	117.81
0.822685	121.471
0.910995	125.817
0.993109	135.882
0.94663	130.392
0.90015	127.19
0.850572	124.444
0.808741	122.614
0.706486	119.641
0.605781	117.353
0.511273	114.837
0.395075	107.288
0.297468	91.732
0.190565	67.4837
0.17972	65.6536
0.106903	54.2157
0.018592	35
0.004648	25.3922
