Adsorption isotherm of Ethane on PhPMO
DOI: 10.1016/j.micromeso.2021.110975
Article source: Figure S9 (left 1)
Adsorbate Ethane: InChIKey OTMSDBZUPAUEDD-UHFFFAOYSA-N
Kind: experiment
Temperature: 298 K
Tabular data in the source: 0
pressure (bar)	uptake (mmol/g)
0.159453	0.123306
0.318907	0.218157
0.615034	0.369919
1.5262	0.749322
3.21184	1.3374
4.94305	1.86856
9.72665	3.18699
