Adsorption isotherm of Nitrogen on PhPMA_Ph3
DOI: 10.1016/j.micromeso.2021.110975
Article source: Figure S2C
Adsorbate Nitrogen: InChIKey IJGRMHOSHXDMSA-UHFFFAOYSA-N
Kind: experiment
Temperature: 77 K
Tabular data in the source: 0
pressure (bar)	uptake (cm3(STP)/g)
0.006197	87.1022
0.010845	101.34
0.018592	115.578
0.032536	124.791
0.038733	132.328
0.051127	138.191
0.058874	142.379
0.071268	148.241
0.082114	154.104
0.08986	158.291
0.100705	160.804
0.145635	178.392
0.207608	203.518
0.305214	259.632
0.407469	325.796
0.503526	340.034
0.60888	351.759
0.717331	360.972
0.822685	371.859
0.912545	383.585
0.993109	413.735
0.948179	396.147
0.903249	387.772
0.850572	379.397
0.807192	375.209
0.709585	366.834
0.605781	360.134
0.509724	350.921
0.395075	326.633
0.297468	257.119
0.190565	198.492
0.17972	193.467
0.105353	165.829
0.074367	153.266
0.003099	90.4523
