Adsorption isotherm of Ethene on PhPMO_Ph3
DOI: 10.1016/j.micromeso.2021.110975
Article source: Figure S9 (left 2)
Adsorbate Ethene: InChIKey VGGSQFUCUMXWEO-UHFFFAOYSA-N
Kind: experiment
Temperature: 298 K
Tabular data in the source: 0
pressure (bar)	uptake (mmol/g)
0.136364	0.095628
0.295455	0.219945
0.590909	0.372951
1.18182	0.659836
2.36364	1.09016
4.75	1.70219
9.52273	2.65847
