Adsorption isotherm of Ethane on iPrNHPhPMO
DOI: 10.1016/j.micromeso.2021.110975
Article source: Figure S9 (right 4)
Adsorbate Ethane: InChIKey OTMSDBZUPAUEDD-UHFFFAOYSA-N
Kind: experiment
Temperature: 298 K
Tabular data in the source: 0
pressure (bar)	uptake (mmol/g)
0.136364	0.066757
0.295455	0.123978
0.590909	0.228883
1.22727	0.419619
2.40909	0.724796
4.79545	1.24932
9.59091	2.19346
