Adsorption isotherm of Nitrogen on NH2BphPMO
DOI: 10.1016/j.micromeso.2021.110975
Article source: Figure S4A
Adsorbate Nitrogen: InChIKey IJGRMHOSHXDMSA-UHFFFAOYSA-N
Kind: experiment
Temperature: 77 K
Tabular data in the source: 0
pressure (bar)	uptake (cm3(STP)/g)
0	65.5226
0	74.883
0.003217	86.1154
0.016083	97.9719
0.025733	104.836
0.030558	109.828
0.040208	114.197
0.043425	116.069
0.0579	121.685
0.064333	124.181
0.075592	128.549
0.085242	132.917
0.091675	135.413
0.141533	154.134
0.201042	175.351
0.225167	185.335
0.249292	194.072
0.275025	202.808
0.297542	207.8
0.321667	212.793
0.353833	214.665
0.37635	217.161
0.400475	220.281
0.448725	224.025
0.5018	229.017
0.604733	234.009
0.7141	240.25
0.821858	247.738
0.865283	252.73
0.9071	257.098
0.961783	266.459
0.990733	273.947
0.942483	261.466
0.902275	256.474
0.8492	252.73
0.805775	247.738
0.701233	242.746
0.5983	235.257
0.508233	231.513
0.389217	222.153
0.292717	207.8
0.186567	169.735
0.099717	139.782
0.036992	112.324
