Adsorption isotherm of Ethene on iPrNHPhPMO
DOI: 10.1016/j.micromeso.2021.110975
Article source: Figure S9 (right 4)
Adsorbate Ethene: InChIKey VGGSQFUCUMXWEO-UHFFFAOYSA-N
Kind: experiment
Temperature: 298 K
Tabular data in the source: 0
pressure (bar)	uptake (mmol/g)
0.136364	0.095368
0.318182	0.162125
0.590909	0.286104
1.22727	0.495913
2.40909	0.80109
4.79545	1.27793
9.59091	2.05041
