Adsorption isotherm of Nitrogen on PhPMO
DOI: 10.1016/j.micromeso.2021.110975
Article source: Figure S2A
Adsorbate Nitrogen: InChIKey IJGRMHOSHXDMSA-UHFFFAOYSA-N
Kind: experiment
Temperature: 77 K
Tabular data in the source: 0
pressure (bar)	uptake (cm3(STP)/g)
0.010829	111.577
0.026298	127.517
0.061878	151.007
0.077347	157.718
0.099005	166.107
0.119115	176.174
0.142319	184.564
0.162429	189.597
0.180993	197.987
0.201103	205.537
0.255246	230.705
0.303202	266.779
0.354251	328.02
0.4053	364.094
0.457896	371.644
0.505852	374.161
0.556901	376.678
0.606403	379.195
0.657452	382.55
0.708502	385.906
0.759551	390.101
0.809053	390.94
0.832257	392.617
0.860102	394.295
0.887947	395.973
0.914245	398.49
0.938997	399.329
0.965295	401.846
0.991593	405.201
0.86629	395.973
0.839992	394.295
0.788943	390.101
0.708502	386.745
0.658999	385.906
0.611044	382.55
0.559995	378.356
0.507398	376.678
0.140772	182.886
0.253699	228.188
