Adsorption isotherm of Ethane on PhPMO_Ph3
DOI: 10.1016/j.micromeso.2021.110975
Article source: Figure S9 (left 2)
Adsorbate Ethane: InChIKey OTMSDBZUPAUEDD-UHFFFAOYSA-N
Kind: experiment
Temperature: 298 K
Tabular data in the source: 0
pressure (bar)	uptake (mmol/g)
0.113636	0.076503
0.295455	0.162568
0.477273	0.248634
0.636364	0.306011
1.18182	0.516393
2.36364	0.898907
4.77273	1.54918
9.52273	2.73497
