Adsorption isotherm of Water, Cupric nitrate on 6:4 Cellulose/CMC bioadsorbent
DOI: 10.1016/j.biortech.2017.05.162
Article source: Figure 3
Adsorbate Water: InChIKey XLYOFNOQVPJJNP-UHFFFAOYSA-N
Adsorbate Cupric nitrate: InChIKey XTVVROIMIGLXTD-UHFFFAOYSA-N
Kind: experiment
Temperature: 303 K
Tabular data in the source: 0
pressure (bar)	Water fraction	Water uptake (mg/g)	Cupric nitrate fraction	Cupric nitrate uptake (mg/g)	total uptake (mg/g)
1.01325			36.96	61.69	
1.01325			132.61	153.92	
1.01325			264.97	206.66	
1.01325			397.33	251.22	
1.01325			532.57	295.78	
1.01325			683.29	325.44	
