Adsorption isotherm of Water, Cupric nitrate on 6:4 Cellulose/CMC bioadsorbent
DOI: 10.1016/j.biortech.2017.05.162
Article source: Figure 3
Adsorbate Water: InChIKey XLYOFNOQVPJJNP-UHFFFAOYSA-N
Adsorbate Cupric nitrate: InChIKey XTVVROIMIGLXTD-UHFFFAOYSA-N
Kind: experiment
Temperature: 323 K
Tabular data in the source: 0
pressure (bar)	Water fraction	Water uptake (mg/g)	Cupric nitrate fraction	Cupric nitrate uptake (mg/g)	total uptake (mg/g)
1.01325			40.55	57.13	
1.01325			133.04	151.31	
1.01325			252.2	217.18	
1.01325			378.97	276.17	
1.01325			503.59	330.22	
1.01325			654.31	359.69	
