Adsorption isotherm of Zinc Nitrate, Water on 6:4 Cellulose/CMC bioadsorbent
DOI: 10.1016/j.biortech.2017.05.162
Article source: Figure 3
Adsorbate Zinc Nitrate: InChIKey ONDPHDOFVYQSGI-UHFFFAOYSA-N
Adsorbate Water: InChIKey XLYOFNOQVPJJNP-UHFFFAOYSA-N
Kind: experiment
Temperature: 313 K
Tabular data in the source: 0
pressure (bar)	Zinc Nitrate fraction	Zinc Nitrate uptake (mg/g)	Water fraction	Water uptake (mg/g)	total uptake (mg/g)
1.01325	50.25	27.874			
1.01325	175.52	66.069			
1.01325	296.3	103.778			
1.01325	440.48	130.955			
1.01325	581.22	162.713			
1.01325	757.38	179.55			
