Adsorption isotherm of Water, Cupric nitrate on 6:4 Cellulose/CMC bioadsorbent
DOI: 10.1016/j.biortech.2017.05.162
Article source: Figure 3
Adsorbate Water: InChIKey XLYOFNOQVPJJNP-UHFFFAOYSA-N
Adsorbate Cupric nitrate: InChIKey XTVVROIMIGLXTD-UHFFFAOYSA-N
Kind: experiment
Temperature: 313 K
Tabular data in the source: 0
pressure (bar)	Water fraction	Water uptake (mg/g)	Cupric nitrate fraction	Cupric nitrate uptake (mg/g)	total uptake (mg/g)
1.01325			44.59	54.58	
1.01325			122.29	164.4	
1.01325			233.69	237.57	
1.01325			337.34	324.92	
1.01325			465.13	375.63	
1.01325			623.95	390.87	
