Adsorption isotherm of Lead nitrate, Water on 6:4 Cellulose/CMC bioadsorbent
DOI: 10.1016/j.biortech.2017.05.162
Article source: Figure 3
Adsorbate Lead nitrate: InChIKey RLJMLMKIBZAXJO-UHFFFAOYSA-N
Adsorbate Water: InChIKey XLYOFNOQVPJJNP-UHFFFAOYSA-N
Kind: experiment
Temperature: 303 K
Tabular data in the source: 0
pressure (bar)	Lead nitrate fraction	Lead nitrate uptake (mg/g)	Water fraction	Water uptake (mg/g)	total uptake (mg/g)
1.01325	36.44	68.59			
1.01325	121.59	181.95			
1.01325	209.32	292.07			
1.01325	352.4	353.25			
1.01325	515.84	392.32			
1.01325	691.49	413.75			
