Adsorption isotherm of Lead nitrate, Water on 6:4 Cellulose/CMC bioadsorbent
DOI: 10.1016/j.biortech.2017.05.162
Article source: Figure 3
Adsorbate Lead nitrate: InChIKey RLJMLMKIBZAXJO-UHFFFAOYSA-N
Adsorbate Water: InChIKey XLYOFNOQVPJJNP-UHFFFAOYSA-N
Kind: experiment
Temperature: 323 K
Tabular data in the source: 0
pressure (bar)	Lead nitrate fraction	Lead nitrate uptake (mg/g)	Water fraction	Water uptake (mg/g)	total uptake (mg/g)
1.01325	70.57	36.24			
1.01325	161.94	145.86			
1.01325	268.77	233.89			
1.01325	397.19	309.29			
1.01325	564.7	344.28			
1.01325	746.46	359.39			
