Adsorption isotherm of Zinc Nitrate, Water on 6:4 Cellulose/CMC bioadsorbent
DOI: 10.1016/j.biortech.2017.05.162
Article source: Figure 3
Adsorbate Zinc Nitrate: InChIKey ONDPHDOFVYQSGI-UHFFFAOYSA-N
Adsorbate Water: InChIKey XLYOFNOQVPJJNP-UHFFFAOYSA-N
Kind: experiment
Temperature: 323 K
Tabular data in the source: 0
pressure (bar)	Zinc Nitrate fraction	Zinc Nitrate uptake (mg/g)	Water fraction	Water uptake (mg/g)	total uptake (mg/g)
1.01325	59.05	23.85			
1.01325	205.98	51.063			
1.01325	335.99	83.85			
1.01325	465.45	117.875			
1.01325	646.23	131.464			
1.01325	830.83	142.886			
