Adsorption isotherm of Lead nitrate, Water on 6:4 Cellulose/CMC bioadsorbent
DOI: 10.1016/j.biortech.2017.05.162
Article source: Figure 3
Adsorbate Lead nitrate: InChIKey RLJMLMKIBZAXJO-UHFFFAOYSA-N
Adsorbate Water: InChIKey XLYOFNOQVPJJNP-UHFFFAOYSA-N
Kind: experiment
Temperature: 313 K
Tabular data in the source: 0
pressure (bar)	Lead nitrate fraction	Lead nitrate uptake (mg/g)	Water fraction	Water uptake (mg/g)	total uptake (mg/g)
1.01325	63.83	43.51			
1.01325	142.48	163.02			
1.01325	249.34	252.68			
1.01325	376.21	328.41			
1.01325	538.48	367.98			
1.01325	727.32	377.68			
