Adsorption isotherm of Zinc Nitrate, Water on 6:4 Cellulose/CMC bioadsorbent
DOI: 10.1016/j.biortech.2017.05.162
Article source: Figure 3
Adsorbate Zinc Nitrate: InChIKey ONDPHDOFVYQSGI-UHFFFAOYSA-N
Adsorbate Water: InChIKey XLYOFNOQVPJJNP-UHFFFAOYSA-N
Kind: experiment
Temperature: 303 K
Tabular data in the source: 0
pressure (bar)	Zinc Nitrate fraction	Zinc Nitrate uptake (mg/g)	Water fraction	Water uptake (mg/g)	total uptake (mg/g)
1.01325	63.97	20.6			
1.01325	146.14	78.649			
1.01325	285.09	110.255			
1.01325	400.21	151.507			
1.01325	561.26	172.915			
1.01325	726.64	194.076			
