Adsorption isotherm of Hydrogen on NaNi3(OH)(SIP)2
DOI: 10.1021/Ja0649217
Adsorbate Hydrogen: InChIKey UFHFLCQGNIYNRP-UHFFFAOYSA-N
Temperature: 77 K
Tabular data in the source: 0
pressure (bar)	uptake (cm3(STP)/g)
0.01592	41.6499
0.0322235	56.0701
0.0508561	63.4112
0.0997667	75.7339
0.174297	82.8129
0.279106	89.1054
0.416521	94.3491
0.598189	98.2818
0.768211	101.69
0.982486	105.361
