Adsorption isotherm of Hydrogen on ZSM-5
DOI: 10.1021/Ja0649217
Adsorbate Hydrogen: InChIKey UFHFLCQGNIYNRP-UHFFFAOYSA-N
Temperature: 77 K
Tabular data in the source: 0
pressure (bar)	uptake (cm3(STP)/g)
0.0205782	19.8886
0.0322235	29.065
0.0648306	40.6012
0.111412	50.5642
0.178955	59.2163
0.311713	70.2281
0.453786	77.307
0.593531	81.502
0.814793	87.2701
1.01742	90.4163
