Adsorption isotherm of Nitrogen on Carbon
DOI: 10.1016/j.carbon.2012.12.011
Adsorbate Nitrogen: InChIKey IJGRMHOSHXDMSA-UHFFFAOYSA-N
Temperature: 77 K
Tabular data in the source: 0
pressure (bar)	uptake (mmol/m2)
1.15e-06	7.12e-05
7.71e-06	7.62e-07
2.43e-05	7.62e-07
6.31e-05	0.000212
9.68e-05	0.000705
0.00013	0.00140921
0.000161	0.00288809
0.000215	0.00507119
0.000385	0.00633879
0.000962	0.00725428
0.0022638	0.00795851
0.0133	0.00894442
0.039545	0.00950781
0.0668745	0.0100712
0.11989	0.0112684
0.142836	0.0128177
0.163679	0.0159163
0.223462	0.0178177
0.416511	0.0206346
0.49623	0.0230289
0.546936	0.0266205
0.704362	0.0310571
0.807144	0.0364796
0.961628	0.0495782
