Adsorption isotherm of Nitrogen on Carbon
DOI: 10.1016/j.carbon.2012.12.011
Adsorbate Nitrogen: InChIKey IJGRMHOSHXDMSA-UHFFFAOYSA-N
Temperature: 77 K
Tabular data in the source: 0
pressure (bar)	uptake (mmol/m2)
1.08e-06	7.62e-07
3.47e-06	7.62e-07
1.01e-05	7.62e-07
3.38e-05	0.000705
9.49e-05	0.00147964
0.000293	0.00246555
0.000907	0.00380358
0.00159487	0.00478949
0.00264511	0.0060571
0.00483521	0.00746555
0.0140995	0.00852189
0.0427459	0.00971907
0.076633	0.0104233
0.124647	0.0118317
0.206729	0.0141557
0.342862	0.0176064
0.400613	0.0200712
0.536397	0.023381
0.746703	0.0310571
0.855663	0.0373247
0.943097	0.0458458
