Adsorption isotherm of Nitrogen on Carbon
DOI: 10.1016/j.carbon.2012.12.011
Adsorbate Nitrogen: InChIKey IJGRMHOSHXDMSA-UHFFFAOYSA-N
Temperature: 77 K
Tabular data in the source: 0
pressure (bar)	uptake (mmol/g)
1.65e-07	1.18371
4.58e-07	1.74709
9.04e-07	2.25413
2.35e-06	3.0992
6.52e-06	4.45131
1.15e-05	5.29638
3.27e-05	6.08512
6.91e-05	6.81751
9.49e-05	7.32455
0.000153	9.4654
0.00027	11.1555
0.000558	12.1133
0.00138273	13.0147
0.00335155	14.0851
0.00889588	15.2119
0.0206052	16.2823
0.0380343	18.0851
0.11834	21.3527
0.218439	23.3809
0.999754	26.4231
