Adsorption isotherm of Nitrogen on Carbon
DOI: 10.1016/j.carbon.2012.12.011
Adsorbate Nitrogen: InChIKey IJGRMHOSHXDMSA-UHFFFAOYSA-N
Temperature: 77 K
Tabular data in the source: 0
pressure (bar)	uptake (mmol/m2)
1.1e-06	0.000116
5.22e-06	0.000474
1.35e-05	0.000688
2.58e-05	0.00104588
6.94e-05	0.00176095
0.000277	0.00333411
0.000673	0.00462124
0.00180856	0.00583686
0.00457755	0.00698097
0.0102908	0.00791056
0.0209585	0.00869714
0.0499939	0.00955523
0.0787548	0.0101273
0.121634	0.0111284
0.177048	0.0119865
0.257708	0.0132021
0.405964	0.0160624
0.524855	0.0189227
0.705914	0.0230701
0.734368	0.0258589
0.810621	0.0297202
0.877286	0.0358699
0.912648	0.0488842
