Adsorption isotherm of Nitrogen on Carbon
DOI: 10.1016/j.carbon.2012.12.011
Adsorbate Nitrogen: InChIKey IJGRMHOSHXDMSA-UHFFFAOYSA-N
Temperature: 77 K
Tabular data in the source: 0
pressure (bar)	uptake (mmol/m2)
1.8e-06	0.000306
6.59e-05	0.00150072
0.000503	0.0030248
0.00461631	0.00566105
0.0105157	0.00664965
0.0230185	0.00726752
0.173233	0.00899756
1.04027	0.0111807
4.66441	0.0190895
6.41504	0.0228791
8.5915	0.0331357
