Adsorption isotherm of Nitrogen on Carbon
DOI: 10.1016/j.carbon.2012.12.011
Adsorbate Nitrogen: InChIKey IJGRMHOSHXDMSA-UHFFFAOYSA-N
Temperature: 77 K
Tabular data in the source: 0
pressure (bar)	uptake (mmol/m2)
5.13e-06	0.000353
1.36e-05	0.000775
2.58e-05	0.00112752
4.36e-05	0.00140921
9.49e-05	0.00197259
0.000256	0.0032402
0.000691	0.00457823
0.00179238	0.00584583
0.00465066	0.00683175
0.0107373	0.00774724
0.0200132	0.00852189
0.0509273	0.00943738
0.0796741	0.010212
0.122245	0.0109163
0.198838	0.0119726
0.329776	0.0146486
0.49623	0.0176768
0.626746	0.0205641
0.732314	0.0230289
0.807144	0.0260571
0.872476	0.0297191
0.9071	0.0359163
0.943097	0.0486627
