Adsorption isotherm of Nitrogen on Carbon
DOI: 10.1016/j.carbon.2012.12.011
Adsorbate Nitrogen: InChIKey IJGRMHOSHXDMSA-UHFFFAOYSA-N
Temperature: 77 K
Tabular data in the source: 0
pressure (bar)	uptake (mmol/m2)
2.67e-05	0.000924
0.000951	0.00384863
0.0150501	0.00685561
0.147716	0.00945066
0.294647	0.0103157
0.41614	0.0108512
0.564775	0.0110983
1.2528	0.0115926
4.42312	0.0178537
5.84564	0.0209843
8.36634	0.0302935
