Adsorption isotherm of Nitrogen on Carbon
DOI: 10.1016/j.carbon.2012.12.011
Adsorbate Nitrogen: InChIKey IJGRMHOSHXDMSA-UHFFFAOYSA-N
Temperature: 77 K
Tabular data in the source: 0
pressure (bar)	uptake (mmol/m2)
1.12e-06	0.000188
1.98e-06	0.000259
5.99e-06	0.000259
1.78e-05	0.000831
5.48e-05	0.00211849
0.000271	0.00369164
0.000837	0.00483576
0.00273861	0.00605138
0.0143987	0.00833961
0.0426845	0.00941222
0.0727702	0.00991276
0.119254	0.0109139
0.163594	0.01263
0.20331	0.0146322
0.33318	0.0177786
0.524855	0.0216399
0.614732	0.0247863
0.692104	0.0290767
0.843295	0.0345827
0.912648	0.0429491
