Adsorption isotherm of Nitrogen on Carbon
DOI: 10.1016/j.carbon.2012.12.011
Adsorbate Nitrogen: InChIKey IJGRMHOSHXDMSA-UHFFFAOYSA-N
Temperature: 77 K
Tabular data in the source: 0
pressure (bar)	uptake (mmol/g)
1.54e-07	0.620328
5.61e-07	1.80343
2.35e-06	3.43723
9.58e-06	4.733
2.32e-05	6.08512
7.39e-05	7.77526
0.000205	9.57807
0.000784	11.8879
0.00367014	14.0288
0.0097415	15.6062
0.0289644	17.4091
0.0585462	19.2682
0.11834	21.4654
0.250314	23.7753
0.955377	26.4795
