Adsorption isotherm of Nitrogen on Carbon
DOI: 10.1016/j.carbon.2012.12.011
Adsorbate Nitrogen: InChIKey IJGRMHOSHXDMSA-UHFFFAOYSA-N
Temperature: 77 K
Tabular data in the source: 0
pressure (bar)	uptake (mmol/m2)
1.14e-06	4.48e-05
5.22e-05	0.000188
0.000117	0.000259
0.000208	0.000831
0.00033	0.00204698
0.000416	0.00433521
0.00063	0.00562234
0.00141093	0.00690946
0.0046782	0.00783906
0.0186526	0.00855413
0.135421	0.00941222
0.289766	0.00976975
0.649281	0.0106278
0.983175	0.0122725
1.18228	0.0156333
1.48877	0.017421
3.25989	0.0202813
4.20072	0.0222835
4.71388	0.0255728
5.41309	0.0295057
6.36095	0.0313649
7.47479	0.0366564
9.41259	0.0495992
