Adsorption isotherm of Nitrogen on Carbon
DOI: 10.1016/j.carbon.2012.12.011
Adsorbate Nitrogen: InChIKey IJGRMHOSHXDMSA-UHFFFAOYSA-N
Temperature: 77 K
Tabular data in the source: 0
pressure (bar)	uptake (mmol/m2)
1.31e-06	0.000116
2.55e-06	0.000188
5.33e-06	0.000259
1.17e-05	0.000688
4.34e-05	0.00118889
0.000181	0.00240451
0.000524	0.00347712
0.00117333	0.00454973
0.00331065	0.00562234
0.0067648	0.00676645
0.0158731	0.00762454
0.162844	0.00962674
0.798973	0.0111999
1.15533	0.012058
2.25438	0.0137742
4.82381	0.0183506
6.97535	0.0244287
7.64909	0.0285761
8.19678	0.031937
8.9885	0.0362989
9.41259	0.0440932
