Adsorption isotherm of Nitrogen on Carbon
DOI: 10.1016/j.carbon.2012.12.011
Adsorbate Nitrogen: InChIKey IJGRMHOSHXDMSA-UHFFFAOYSA-N
Temperature: 77 K
Tabular data in the source: 0
pressure (bar)	uptake (mmol/g)
4.74e-06	3.02893
1.65e-05	5.21203
6.75e-05	7.81766
0.000235	10.2825
0.00100626	12.8881
0.00233077	14.5078
0.00450209	16.6205
0.0160519	18.9444
0.0270575	20.3529
