Adsorption isotherm of Nitrogen on Carbon
DOI: 10.1016/j.carbon.2012.12.011
Adsorbate Nitrogen: InChIKey IJGRMHOSHXDMSA-UHFFFAOYSA-N
Temperature: 77 K
Tabular data in the source: 0
pressure (bar)	uptake (mmol/g)
2.75e-06	3.15554
1.58e-05	5.35272
5.5e-05	7.60624
0.000146	9.18371
0.000444	10.6485
0.00194368	12.7893
0.00539868	14.8175
0.0215624	16.6767
