Adsorption isotherm of Nitrogen on Carbon
DOI: 10.1016/j.carbon.2012.12.011
Adsorbate Nitrogen: InChIKey IJGRMHOSHXDMSA-UHFFFAOYSA-N
Temperature: 77 K
Tabular data in the source: 0
pressure (bar)	uptake (mmol/g)
2.84e-07	0.49372
6.73e-07	1.47964
2.29e-06	2.67682
9.37e-06	3.94442
3.05e-05	5.91625
9.07e-05	8.2402
0.000282	10.4937
0.000878	13.1698
0.0039288	16.1275
0.010194	18.0994
0.0296295	20.4937
0.0686298	23.7332
0.126681	26.6205
0.208743	29.9303
0.385309	34.367
1.09479	38.7332
