Adsorption isotherm of Nitrogen on Carbon
DOI: 10.1016/j.carbon.2012.12.011
Adsorbate Nitrogen: InChIKey IJGRMHOSHXDMSA-UHFFFAOYSA-N
Temperature: 77 K
Tabular data in the source: 0
pressure (bar)	uptake (mmol/m2)
1.21e-06	0.000212
3.47e-06	0.000423
1.03e-05	0.000705
3.19e-05	0.00176133
9.87e-05	0.0026064
0.000293	0.00359231
0.000839	0.00528245
0.00269708	0.0066909
0.00786472	0.00831062
0.0247899	0.00908527
0.0695284	0.0101416
0.122245	0.0113388
0.195007	0.0147191
0.377897	0.0197191
0.505981	0.0215501
0.614668	0.0251416
0.704362	0.0290148
0.823003	0.0353529
0.9071	0.0440853
