Adsorption isotherm of Nitrogen on Carbon
DOI: 10.1016/j.carbon.2012.12.011
Adsorbate Nitrogen: InChIKey IJGRMHOSHXDMSA-UHFFFAOYSA-N
Temperature: 77 K
Tabular data in the source: 0
pressure (bar)	uptake (mmol/g)
1.8e-07	7.88793
3.11e-07	8.33864
8.07e-07	8.62033
1.79e-06	9.4654
4.96e-06	10.5358
1.48e-05	11.8879
3.92e-05	13.5781
0.000128	15.5499
0.000425	17.3527
0.00141448	19.1555
0.00430225	21.3527
0.0127919	22.5922
0.0210784	23.3246
0.0339531	24.5077
0.0921896	27.1555
0.228585	30.1978
0.37666	31.3809
0.955377	33.0147
