Adsorption isotherm of Nitrogen on Carbon
DOI: 10.1016/j.carbon.2012.12.011
Adsorbate Nitrogen: InChIKey IJGRMHOSHXDMSA-UHFFFAOYSA-N
Temperature: 77 K
Tabular data in the source: 0
pressure (bar)	uptake (mmol/g)
3.04e-07	1.19795
8.45e-07	1.47964
1.96e-06	2.11344
3.69e-06	2.81766
9.16e-06	4.43738
2.98e-05	5.14161
6.75e-05	5.91625
0.000106	6.76133
0.000179	10.7754
0.000289	12.4656
0.000521	13.5219
0.0011531	14.5078
0.00375441	15.9867
0.0116815	17.6064
0.0179814	18.5923
0.0398009	21.3388
0.0655835	23.381
0.126681	26.2684
0.182162	29.0853
0.328696	33.5219
1.02271	38.5219
