Adsorption isotherm of Nitrogen on Carbon
DOI: 10.1016/j.carbon.2012.12.011
Adsorbate Nitrogen: InChIKey IJGRMHOSHXDMSA-UHFFFAOYSA-N
Temperature: 77 K
Tabular data in the source: 0
pressure (bar)	uptake (mmol/m2)
7.53e-06	0.000116
5.1e-05	0.000259
8.67e-05	0.000474
0.000162	0.00133191
0.000256	0.00197547
0.000446	0.00383466
0.00087	0.00576535
0.00177671	0.00676645
0.00457159	0.00776755
0.0132	0.00841112
0.0295773	0.00876865
0.0408425	0.00919769
0.0854014	0.00941222
0.492381	0.00991276
1.35764	0.0106993
2.47213	0.0144892
3.92004	0.0181361
5.0514	0.0205673
6.36095	0.0247863
7.64909	0.0318655
