Adsorption isotherm of Nitrogen on Carbon
DOI: 10.1016/j.carbon.2012.12.011
Adsorbate Nitrogen: InChIKey IJGRMHOSHXDMSA-UHFFFAOYSA-N
Temperature: 77 K
Tabular data in the source: 0
pressure (bar)	uptake (mmol/m2)
1.14e-06	4.48e-05
4.14e-06	0.000331
1.06e-05	0.000545
1.94e-05	0.000831
3.53e-05	0.000974
8.09e-05	0.00140341
0.000213	0.00218999
0.000388	0.00269054
0.000953	0.00362014
0.00288302	0.00497877
0.00892045	0.00619439
0.0289033	0.007267
0.0796951	0.0082681
0.240968	0.00934071
0.85618	0.0109139
1.55902	0.0124155
2.52978	0.0143462
3.4933	0.0160624
4.93629	0.0191372
6.07435	0.0215684
6.50928	0.0229271
8.00999	0.0273605
8.38791	0.0297202
8.58351	0.0331526
9.41259	0.0396597
9.41259	0.0487411
