Adsorption isotherm of Nitrogen on Carbon
DOI: 10.1016/j.carbon.2012.12.011
Adsorbate Nitrogen: InChIKey IJGRMHOSHXDMSA-UHFFFAOYSA-N
Temperature: 77 K
Tabular data in the source: 0
pressure (bar)	uptake (mmol/m2)
1.06e-06	0.000282
4.47e-06	0.000212
1.49e-05	0.000282
3.59e-05	0.000494
7.09e-05	0.000775
0.000111	0.00126837
0.000132	0.00218386
0.000191	0.00443738
0.000228	0.0054233
0.000317	0.00626837
0.000591	0.00732471
0.00156414	0.00809935
0.00576066	0.00894442
0.0149471	0.00929654
0.0489835	0.0100712
0.0949234	0.0111275
0.127097	0.0121134
0.148504	0.0142965
0.166895	0.0165501
0.251136	0.0188036
0.385322	0.0210571
0.468092	0.0223247
0.536397	0.0273951
0.639061	0.0314796
0.746703	0.0351416
0.823003	0.0411275
0.839174	0.0495078
