Adsorption isotherm of Nitrogen on Carbon
DOI: 10.1016/j.carbon.2012.12.011
Adsorbate Nitrogen: InChIKey IJGRMHOSHXDMSA-UHFFFAOYSA-N
Temperature: 77 K
Tabular data in the source: 0
pressure (bar)	uptake (mmol/g)
2.48e-07	10.212
6.43e-07	10.4937
1.63e-06	11.0571
4.96e-06	12.1134
1.65e-05	13.4515
3.27e-05	14.8599
6.91e-05	16.8317
0.000235	18.9444
0.000858	21.3388
0.00292476	24.7191
0.00776308	26.7613
0.0192487	28.3106
0.0355302	29.9303
0.0943064	34.1557
0.204057	38.9444
0.394156	43.381
1.07021	47.3247
