Adsorption isotherm of Nitrogen on Carbon
DOI: 10.1016/j.carbon.2012.12.011
Adsorbate Nitrogen: InChIKey IJGRMHOSHXDMSA-UHFFFAOYSA-N
Temperature: 77 K
Tabular data in the source: 0
pressure (bar)	uptake (mmol/g)
2.71e-07	9.36696
3.73e-07	9.93034
8.26e-07	10.5641
2.45e-06	11.5501
5.43e-06	12.3951
1.15e-05	13.2402
3.12e-05	15.0712
6.75e-05	16.3388
0.000153	18.0994
0.000397	20.2825
0.00102936	22.4656
0.0039288	25.1416
0.00930909	26.9726
0.0196906	28.4515
0.0371806	30.2825
0.0641114	32.3247
0.11834	35.4937
0.233834	39.8599
0.403206	43.5219
0.999754	47.4655
