Adsorption isotherm of Nitrogen on Carbon
DOI: 10.1016/j.carbon.2012.12.011
Adsorbate Nitrogen: InChIKey IJGRMHOSHXDMSA-UHFFFAOYSA-N
Temperature: 77 K
Tabular data in the source: 0
pressure (bar)	uptake (mmol/m2)
1.82e-05	0.000718
6.86e-05	0.00137715
0.000412	0.00248932
0.00071	0.00310719
0.00205362	0.00417816
0.00486813	0.00504318
0.0115399	0.00607297
0.0255983	0.00702037
0.10459	0.00825611
0.319083	0.00953305
1.39321	0.0117162
4.66441	0.0181421
7.93356	0.0286047
8.70634	0.0383258
