Adsorption isotherm of Nitrogen on Carbon
DOI: 10.1016/j.carbon.2012.12.011
Adsorbate Nitrogen: InChIKey IJGRMHOSHXDMSA-UHFFFAOYSA-N
Temperature: 77 K
Tabular data in the source: 0
pressure (bar)	uptake (mmol/m2)
1.61e-07	7.26822
2.84e-07	7.8316
6.01e-07	8.39498
2.45e-06	9.97244
9.16e-06	11.2119
2.32e-05	12.6203
7.07e-05	14.3668
0.000196	16.1133
0.00057	17.9724
0.00181572	19.7189
0.00367014	20.6767
0.0097415	22.1415
0.0283143	24.0569
0.0572321	25.7471
0.121058	28.0006
0.218439	29.9161
0.403206	31.4372
0.977314	33.0147
