Adsorption isotherm of Hydrogen on CuBTC
DOI: 10.1016/j.comptc.2012.02.023
Adsorbate Hydrogen: InChIKey UFHFLCQGNIYNRP-UHFFFAOYSA-N
Temperature: 298 K
Tabular data in the source: 0
pressure (bar)	uptake (wt%)
0.315457	0.00658436
5.04732	0.0312757
8.51735	0.0510288
13.5647	0.0790123
22.3975	0.120165
28.3912	0.148148
32.4921	0.164609
36.2776	0.18107
42.5868	0.202469
50.1577	0.230453
55.5205	0.24856
58.9905	0.260082
63.7224	0.273251
66.5615	0.281481
69.4006	0.288066
72.2397	0.296296
74.7634	0.302881
77.6025	0.311111
80.4416	0.319342
83.2808	0.325926
86.1199	0.334156
88.959	0.340741
91.7981	0.348971
94.3218	0.357202
