Adsorption isotherm of Hydrogen on CuBTC
DOI: 10.1016/j.comptc.2012.02.023
Adsorbate Hydrogen: InChIKey UFHFLCQGNIYNRP-UHFFFAOYSA-N
Temperature: 298 K
Tabular data in the source: 0
pressure (bar)	uptake (wt%)
2.83912	0.018107
6.30915	0.0378601
10.0946	0.0576132
17.3502	0.0987654
24.9211	0.133333
32.1767	0.164609
39.4322	0.194239
46.6877	0.223868
47.9495	0.22716
50.4732	0.237037
52.9968	0.246914
63.7224	0.281481
66.5615	0.289712
70.0315	0.301235
77.918	0.320988
79.1798	0.325926
82.0189	0.33251
85.8044	0.340741
