Adsorption isotherm of Hydrogen on CuBTC
DOI: 10.1016/j.comptc.2012.02.023
Adsorbate Hydrogen: InChIKey UFHFLCQGNIYNRP-UHFFFAOYSA-N
Temperature: 77 K
Tabular data in the source: 0
pressure (bar)	uptake (wt%)
0.330033	0.330033
0.990099	1.56504
2.64026	2.4187
4.62046	2.8252
6.60066	3.08943
8.25083	3.29268
9.90099	3.43496
12.5413	3.51626
15.5116	3.61789
17.8218	3.71951
21.1221	3.73984
24.0924	3.78049
27.7228	3.80081
31.0231	3.80081
34.3234	3.80081
37.6238	3.78049
40.5941	3.73984
42.2442	3.71951
45.2145	3.69919
48.5149	3.67886
51.8152	3.63821
54.7855	3.59756
58.0858	3.55691
61.0561	3.51626
64.3564	3.47561
67.3267	3.41463
70.6271	3.39431
73.5974	3.33333
76.5677	3.29268
79.538	3.25203
82.5083	3.21138
85.8086	3.17073
88.7789	3.10976
92.0792	3.06911
95.0495	3.02846
98.3498	2.9878
