Adsorption isotherm of Hydrogen on CuBTC
DOI: 10.1016/j.comptc.2012.02.023
Adsorbate Hydrogen: InChIKey UFHFLCQGNIYNRP-UHFFFAOYSA-N
Temperature: 77 K
Tabular data in the source: 0
pressure (bar)	uptake (wt%)
0.660066	1.70732
2.9703	2.92683
4.62046	3.43496
6.60066	3.73984
8.25083	3.98374
10.5611	4.14634
11.5512	4.18699
14.1914	4.30894
16.8317	4.43089
17.4917	4.49187
20.7921	4.53252
23.7624	4.57317
26.7327	4.5935
29.703	4.5935
33.0033	4.5935
36.9637	4.57317
40.264	4.55285
43.2343	4.5122
45.8746	4.49187
49.1749	4.45122
52.1452	4.39024
55.1155	4.36992
58.4158	4.32927
61.3861	4.26829
64.3564	4.22764
65.0165	4.20732
67.9868	4.16667
71.2871	4.10569
74.2574	4.04472
75.5776	4.00407
78.8779	3.96341
81.8482	3.90244
87.1287	3.80081
90.429	3.76016
93.3993	3.71951
96.3696	3.67886
97.0297	3.63821
100	3.57724
103.3	3.53659
105.941	3.45528
