Adsorption isotherm of Hydrogen on CuBTC
DOI: 10.1016/j.comptc.2012.02.023
Adsorbate Hydrogen: InChIKey UFHFLCQGNIYNRP-UHFFFAOYSA-N
Temperature: 298 K
Tabular data in the source: 0
pressure (bar)	uptake (wt%)
4.10095	0.0279835
7.88644	0.0460905
9.46372	0.0559671
11.9874	0.0641975
16.4038	0.0855967
18.2965	0.0971193
23.6593	0.120165
24.9211	0.125103
26.183	0.130041
28.3912	0.139918
33.123	0.159671
35.6467	0.169547
40.3785	0.187654
42.9022	0.195885
46.6877	0.209053
49.2114	0.217284
51.735	0.22716
54.5741	0.235391
57.0978	0.243621
59.9369	0.251852
62.4606	0.258436
64.9842	0.265021
67.8233	0.273251
70.347	0.279835
72.8707	0.28642
75.7098	0.29465
78.5489	0.299588
79.1798	0.302881
82.0189	0.307819
84.858	0.316049
