Adsorption isotherm of Hydrogen on CuBTC
DOI: 10.1016/j.comptc.2012.02.023
Adsorbate Hydrogen: InChIKey UFHFLCQGNIYNRP-UHFFFAOYSA-N
Temperature: 77 K
Tabular data in the source: 0
pressure (bar)	uptake (wt%)
0.330033	0.330033
0.660066	1.30081
1.32013	1.82927
2.31023	2.47967
5.28053	3.15041
8.25083	3.41463
11.5512	3.67886
13.2013	3.73984
16.1716	3.80081
19.4719	3.84146
22.4422	3.92276
25.7426	3.94309
29.0429	3.92276
32.3432	3.90244
35.3135	3.90244
38.6139	3.88211
41.9142	3.84146
45.2145	3.84146
48.5149	3.82114
53.1353	3.78049
56.4356	3.73984
59.4059	3.69919
62.7063	3.65854
65.6766	3.59756
68.9769	3.55691
71.9472	3.51626
75.2475	3.47561
78.2178	3.43496
81.5182	3.39431
84.4884	3.35366
87.7888	3.31301
90.7591	3.27236
94.0594	3.21138
97.0297	3.17073
100.33	3.13008
103.63	3.08943
106.601	3.04878
109.241	3.00813
