Adsorption isotherm of Ethane, Ethene on Molecular sieve 13X
DOI: 10.1016/0009-2509(80)85036-6
Article source: Figure 6 & 8
Adsorbate Ethane: InChIKey OTMSDBZUPAUEDD-UHFFFAOYSA-N
Adsorbate Ethene: InChIKey VGGSQFUCUMXWEO-UHFFFAOYSA-N
Kind: experiment
Temperature: 298 K
Tabular data in the source: 0
pressure (bar)	Ethane fraction	Ethane uptake (cm3(STP)/g)	Ethene fraction	Ethene uptake (cm3(STP)/g)	total uptake (cm3(STP)/g)
1.37989	0.086	0.583641	0.914	64.2654	64.849
1.37989	0.261	3.38	0.739	61.62	65
1.37989	0.402	4.80072	0.598	55.2083	60.009
1.37989	0.513	8.36823	0.487	52.7138	61.082
1.37989	0.644	11.8094	0.356	46.9436	58.753
1.37989	0.739	15.4412	0.261	41.1198	56.561
1.37989	0.841	21.238	0.159	31.857	53.095
1.37989	0.907	26.064	0.093	26.064	52.128
1.37989	0.954	36.1193	0.046	15.4797	51.599
