Adsorption isotherm of Ethane on Molecular sieve 13X
DOI: 10.1016/0009-2509(80)85036-6
Article source: Figure 4
Adsorbate Ethane: InChIKey OTMSDBZUPAUEDD-UHFFFAOYSA-N
Kind: experiment
Temperature: 298 K
Tabular data in the source: 0
pressure (bar)	uptake (cm3(STP)/g)
0.021865	1.07
0.031731	2.6
0.051062	4.79
0.110658	15
0.12639	16
0.162653	21.4
0.175986	23
0.307975	33.2
0.339972	34.8
0.445297	38.9
0.498626	40.8
0.590618	41.7
0.657279	42.4
0.807934	44
1.00792	46.5
1.12657	47.2
1.15724	48.1
1.22523	47.6
1.27723	48.5
1.29589	49.7
1.45321	48.8
1.45321	50.7
1.66653	50.4
1.82652	53.8
2.0665	53.4
