Adsorption isotherm of Ethene on Molecular sieve 13X
DOI: 10.1016/0009-2509(80)85036-6
Article source: Figure 5
Adsorbate Ethene: InChIKey VGGSQFUCUMXWEO-UHFFFAOYSA-N
Kind: experiment
Temperature: 298 K
Tabular data in the source: 0
pressure (bar)	uptake (cm3(STP)/g)
0.025065	10.7
0.037197	29.2
0.101858	42.2
0.167986	47.1
0.23998	51
0.259979	51.8
0.28931	52.9
0.383968	55.2
0.48796	57.1
0.758604	58.2
0.8106	58.8
0.953255	59.7
1.00525	59.6
1.09591	59.7
1.22123	62.3
1.23323	60.5
1.53321	64.6
1.67986	63.3
1.81318	63.3
1.95984	63.1
2.25315	63.3
