Adsorption isotherm of Propene on MIL-100(Fe)
DOI: 10.1016/j.seppur.2013.03.009
Adsorbate Propene: InChIKey QQONPFPTGQHPMA-UHFFFAOYSA-N
Temperature: 323 K
Tabular data in the source: 0
pressure (bar)	uptake (mmol/g)
-0.0140187	-0.0351636
0.0841121	0.805981
0.280374	1.61327
0.518692	2.42105
0.742991	3.01867
0.897196	3.30047
1.30374	4.25021
2.08879	5.02937
2.78972	5.59755
3.53271	6.02621
4.90654	6.63724
