Adsorption isotherm of Nitrogen on MIL-100(Fe)
DOI: 10.1016/j.seppur.2013.03.009
Adsorbate Nitrogen: InChIKey IJGRMHOSHXDMSA-UHFFFAOYSA-N
Temperature: 373 K
Tabular data in the source: 0
pressure (bar)	uptake (mmol/g)
0.403293	0.0506283
1.03355	0.0773775
2.24134	0.158948
3.36828	0.224365
4.95126	0.312339
