Adsorption isotherm of Nitrogen on MIL-100(Fe)
DOI: 10.1016/j.seppur.2013.03.009
Adsorbate Nitrogen: InChIKey IJGRMHOSHXDMSA-UHFFFAOYSA-N
Temperature: 423 K
Tabular data in the source: 0
pressure (bar)	uptake (mmol/g)
0.496746	0.0406775
1.05974	0.0573145
2.25306	0.10271
3.58036	0.150248
4.97458	0.195845
