Adsorption isotherm of Nitrogen on MIL-100(Fe)
DOI: 10.1016/j.seppur.2013.03.009
Adsorbate Nitrogen: InChIKey IJGRMHOSHXDMSA-UHFFFAOYSA-N
Temperature: 323 K
Tabular data in the source: 0
pressure (bar)	uptake (mmol/g)
0.47531	0.107236
1.03467	0.145309
2.57284	0.293541
3.71961	0.335023
4.97806	0.481631
