Adsorption isotherm of Nitrogen on MIL-100(Fe)
DOI: 10.1016/j.seppur.2013.03.009
Adsorbate Nitrogen: InChIKey IJGRMHOSHXDMSA-UHFFFAOYSA-N
Temperature: 323 K
Tabular data in the source: 0
pressure (bar)	uptake (mmol/g)
2.56439	0.213513
3.74587	0.311129
4.99425	0.406802
