Adsorption isotherm of Carbon Dioxide on TUD-1-PEI
DOI: 10.1016/j.jcis.2011.10.038
Adsorbate Carbon Dioxide: InChIKey CURLTUGMZLYLDI-UHFFFAOYSA-N
Temperature: 328 K
Tabular data in the source: 0
pressure (bar)	uptake (mmol/g)
0.00168067	0.00168067
0.00630252	0.359073
0.0109244	2.08494
0.0201681	2.13127
0.0294118	2.16602
0.0987395	2.16602
0.186555	2.17761
0.32521	2.18919
0.505462	2.18919
0.801261	2.18919
0.916807	2.17761
1.00462	2.18919
