Adsorption isotherm of Carbon Dioxide on TUD-1-PEI
DOI: 10.1016/j.jcis.2011.10.038
Adsorbate Carbon Dioxide: InChIKey CURLTUGMZLYLDI-UHFFFAOYSA-N
Temperature: 313 K
Tabular data in the source: 0
pressure (bar)	uptake (mmol/g)
0.00630252	0.00630252
0.0155462	1.67954
0.0294118	1.72587
0.0802521	1.71429
0.144958	1.71429
0.269748	1.72587
0.556303	1.71429
1.02773	1.71429
