Adsorption isotherm of Carbon Dioxide on TUD-1-PEI
DOI: 10.1016/j.jcis.2011.10.038
Adsorbate Carbon Dioxide: InChIKey CURLTUGMZLYLDI-UHFFFAOYSA-N
Temperature: 348 K
Tabular data in the source: 0
pressure (bar)	uptake (mmol/g)
0.00168067	0.046332
0.00630252	0.498069
0.0109244	1.96911
0.0201681	2.2471
0.0386555	2.54826
0.0617647	2.64093
0.0894958	2.69884
0.131092	2.73359
0.177311	2.75676
0.223529	2.76834
0.269748	2.76834
0.315966	2.77992
0.362185	2.77992
0.403782	2.79151
0.45	2.79151
0.496218	2.79151
0.542437	2.79151
0.588655	2.79151
0.634874	2.79151
0.681092	2.79151
0.727311	2.79151
0.773529	2.80309
0.819748	2.80309
0.865966	2.80309
0.912185	2.80309
0.958403	2.80309
0.986134	2.80309
