Adsorption isotherm of Nitrogen on TUD-1
DOI: 10.1016/j.jcis.2011.10.038
Adsorbate Nitrogen: InChIKey IJGRMHOSHXDMSA-UHFFFAOYSA-N
Temperature: 77 K
Tabular data in the source: 0
pressure (bar)	uptake (cm3(STP)/g)
0.0118614	26.556
0.0318183	33.195
0.0637859	36.5145
0.10375	39.834
0.147695	46.473
0.195688	43.1535
0.243647	46.473
0.295605	49.7925
0.339567	53.112
0.387526	56.4315
0.431505	56.4315
0.483462	59.751
0.535404	66.39
0.587361	69.7095
0.635304	76.3485
0.683247	82.9876
0.731191	89.6266
0.779134	96.2656
0.795059	109.544
0.822996	119.502
0.846934	129.461
0.866808	152.697
0.894612	189.212
0.906374	235.685
0.918019	305.394
0.937014	504.564
0.967688	766.805
