Adsorption isotherm of Carbon Dioxide on TUD-1-PEI
DOI: 10.1016/j.jcis.2011.10.038
Adsorbate Carbon Dioxide: InChIKey CURLTUGMZLYLDI-UHFFFAOYSA-N
Temperature: 313 K
Tabular data in the source: 0
pressure (bar)	uptake (mmol/g)
0.00168067	0.00168067
0.00630252	1.51737
0.0201681	1.7722
0.0894958	1.7722
0.181933	1.7722
0.292857	1.78378
0.339076	1.78378
0.385294	1.78378
0.431513	1.78378
0.477731	1.78378
0.52395	1.78378
0.597899	1.78378
0.644118	1.78378
0.690336	1.78378
0.736555	1.78378
0.782773	1.78378
0.828992	1.78378
0.87521	1.78378
0.921429	1.78378
0.967647	1.78378
1.00462	1.7722
