Adsorption isotherm of Carbon Dioxide on TUD-1-PEI
DOI: 10.1016/j.jcis.2011.10.038
Adsorbate Carbon Dioxide: InChIKey CURLTUGMZLYLDI-UHFFFAOYSA-N
Temperature: 298 K
Tabular data in the source: 0
pressure (bar)	uptake (mmol/g)
0.0021097	0.372093
0.0160338	1.46512
0.0299578	1.47674
0.0624473	1.5
0.127426	1.5
0.266667	1.53488
0.540506	1.55814
1.01392	1.55814
