Adsorption isotherm of Carbon Dioxide on TUD-1-PEI
DOI: 10.1016/j.jcis.2011.10.038
Adsorbate Carbon Dioxide: InChIKey CURLTUGMZLYLDI-UHFFFAOYSA-N
Temperature: 348 K
Tabular data in the source: 0
pressure (bar)	uptake (mmol/g)
0.00168067	0.34749
0.00630252	1.19305
0.0109244	1.96911
0.0155462	2.22394
0.0340336	2.43243
0.0756303	2.67568
0.131092	2.82625
0.27437	2.87259
0.556303	2.90734
1.01387	2.91892
