Adsorption isotherm of Carbon Dioxide on TUD-1-PEI
DOI: 10.1016/j.jcis.2011.10.038
Adsorbate Carbon Dioxide: InChIKey CURLTUGMZLYLDI-UHFFFAOYSA-N
Temperature: 298 K
Tabular data in the source: 0
pressure (bar)	uptake (mmol/g)
0.113502	1.4186
0.289873	1.4186
0.443038	1.4186
0.661181	1.4186
0.856118	1.4186
0.990717	1.4186
