Adsorption isotherm of Carbon Dioxide on TUD-1-PEI
DOI: 10.1016/j.jcis.2011.10.038
Adsorbate Carbon Dioxide: InChIKey CURLTUGMZLYLDI-UHFFFAOYSA-N
Temperature: 328 K
Tabular data in the source: 0
pressure (bar)	uptake (mmol/g)
0.00630252	0.00630252
0.0109244	1.89961
0.0201681	2.07336
0.0432773	2.08494
0.0710084	2.08494
0.135714	2.08494
0.269748	2.08494
0.560924	2.09653
1.03235	2.09653
