Adsorption isotherm of Nitrogen on Ordered mesoporous carbon
DOI: 10.1007/s11356-015-5384-8
Article source: Figure 1
Adsorbate Nitrogen: InChIKey IJGRMHOSHXDMSA-UHFFFAOYSA-N
Kind: experiment
Temperature: 77 K
Tabular data in the source: 0
pressure (bar)	uptake (cm3(STP)/g)
0.051463	245.81
0.083431	271.23
0.120627	296.72
0.155696	319.7
0.20109	347.67
0.262087	385.11
0.298331	408.09
0.334291	431.52
0.369178	453.47
0.405148	475.51
0.440105	496.72
0.475863	517.36
0.512623	538.4
0.546324	557.88
0.582487	582.39
0.617515	613.43
0.652006	664.2
0.687287	750.48
0.733238	825.61
0.75934	835.76
0.796901	843.92
0.815281	842.76
0.831665	846.72
0.850715	845.23
0.867231	847.37
0.883747	850.34
0.903059	849.18
0.919362	852.42
0.937337	852.55
0.95668	855.82
0.973389	856.34
1.00764	867.34
0.050865	251.75
0.085954	280.64
0.121387	307.39
0.157074	330.99
0.195507	356.33
0.263364	399.99
0.335021	444.32
0.3548	456.45
0.400548	484.68
0.442638	514.8
0.469135	562.94
0.514538	659.53
0.552353	759.18
0.585253	812.93
0.619349	827.7
0.654448	832.73
0.690074	836.02
0.726044	839.07
0.760069	842.11
