Adsorption isotherm of Nitrogen on N-doped ordered mesoporous carbon
DOI: 10.1007/s11356-015-5384-8
Article source: Figure 1
Adsorbate Nitrogen: InChIKey IJGRMHOSHXDMSA-UHFFFAOYSA-N
Kind: experiment
Temperature: 77 K
Tabular data in the source: 0
pressure (bar)	uptake (cm3(STP)/g)
0.049548	356.07
0.083492	401.64
0.12463	447.9
0.133688	454.84
0.156324	477.63
0.193733	507.37
0.203055	515.13
0.266312	558.91
0.301999	579.39
0.335021	599.55
0.339013	600.7
0.357525	612.76
0.369107	617.39
0.39841	634.73
0.405999	637.38
0.437683	659.84
0.440622	657.2
0.476572	678.01
0.511458	700.48
0.547682	727.9
0.580967	763.91
0.617008	821.87
0.65306	902.62
0.697359	985.29
0.728436	1013.35
0.761346	1031.77
0.773849	1029.48
0.796496	1035.1
0.813447	1034.68
0.832152	1039.26
0.849884	1039.96
0.867636	1042.98
0.886239	1044.95
0.902735	1045.08
0.921764	1049.8
0.938675	1049.01
0.957906	1053.21
0.974929	1053.47
1.00865	1060.94
0.4695	726.41
0.513556	839.57
0.551036	928.85
0.587604	982.34
0.618305	1008.87
0.653708	1016.78
0.690196	1022.71
0.726531	1028.02
0.761508	1032.29
