Adsorption isotherm of Carbon Dioxide on Dry Coal
DOI: 10.1016/s0375-6742(03)00122-5
Adsorbate Carbon Dioxide: InChIKey CURLTUGMZLYLDI-UHFFFAOYSA-N
Temperature: 295 K
Tabular data in the source: 0
pressure (bar)	uptake (mmol/g)
1.57241	0.0960674
3.64138	0.166854
5.87586	0.232584
8.11034	0.293258
10.2621	0.333708
12.4138	0.379213
14.4828	0.409551
16.3862	0.45
18.2069	0.480337
20.1103	0.510674
21.7655	0.535955
23.4207	0.55618
24.9931	0.586517
26.4828	0.606742
27.8897	0.626966
29.131	0.647191
30.3724	0.66236
31.531	0.682584
32.6069	0.692697
33.7655	0.707865
34.7586	0.723034
35.669	0.738202
36.4966	0.748315
37.3241	0.758427
38.069	0.768539
38.8138	0.783708
39.5586	0.788764
40.2207	0.79382
40.9655	0.803933
41.8759	0.814045
42.5379	0.829213
43.2828	0.83427
44.0276	0.854494
45.0207	0.864607
45.6	0.874719
45.8483	0.874719
46.2621	0.879775
47.0897	0.889888
