Adsorption isotherm of Carbon Dioxide on Dry Coal
DOI: 10.1016/s0375-6742(03)00122-5
Adsorbate Carbon Dioxide: InChIKey CURLTUGMZLYLDI-UHFFFAOYSA-N
Temperature: 295 K
Tabular data in the source: 0
pressure (bar)	uptake (mmol/g)
0.413793	0.131461
0.910345	0.257865
1.48966	0.369101
2.23448	0.480337
3.06207	0.581461
4.30345	0.667416
5.62759	0.743258
7.2	0.819101
8.85517	0.869663
10.5931	0.930337
12.4138	0.96573
14.4828	1.01124
16.5517	1.05169
18.7034	1.07697
20.6897	1.1073
22.6759	1.12753
24.5793	1.14775
26.3172	1.16292
27.9724	1.18315
29.6276	1.19326
31.1172	1.20337
32.5241	1.21348
34.0138	1.21854
35.1724	1.22865
36.331	1.22865
37.4897	1.23876
38.3172	1.23876
39.3103	1.24382
40.2207	1.24888
41.0483	1.25393
41.7931	1.25899
42.5379	1.24888
43.2828	1.2691
43.7793	1.25899
44.3586	1.2691
45.0207	1.26404
45.3517	1.26404
45.7655	1.25899
46.1793	1.2691
46.6759	1.27416
46.9241	1.2691
