Adsorption isotherm of Carbon Dioxide on Dry Coal
DOI: 10.1016/s0375-6742(03)00122-5
Adsorbate Carbon Dioxide: InChIKey CURLTUGMZLYLDI-UHFFFAOYSA-N
Temperature: 295 K
Tabular data in the source: 0
pressure (bar)	uptake (mmol/g)
0.57931	0.136517
1.4069	0.252809
2.64828	0.364045
3.88966	0.45
5.37931	0.541011
7.03448	0.626966
8.68966	0.692697
10.3448	0.758427
12.0828	0.819101
13.7379	0.874719
15.3931	0.930337
17.131	0.975843
18.7034	1.01629
20.2759	1.0618
21.7655	1.10225
23.2552	1.1427
24.6621	1.17809
25.9862	1.21348
27.3103	1.24382
28.6345	1.2691
29.7103	1.29944
30.869	1.31966
31.8621	1.34494
32.9379	1.37022
33.8483	1.39045
34.7586	1.41067
35.5862	1.43596
36.4138	1.45112
37.1586	1.47135
37.9034	1.48146
38.4828	1.50169
39.2276	1.51685
39.8897	1.52697
40.3862	1.54719
40.9655	1.55225
41.4621	1.56236
41.9586	1.58258
42.5379	1.58764
42.9517	1.60281
43.2828	1.60281
43.6966	1.61292
44.1103	1.63315
44.3586	1.6382
45.0207	1.64326
