Adsorption isotherm of Argon on COF-102
DOI: 10.1126/science.1139915
Article source: Figure 4a
Adsorbate Argon: InChIKey XKRFYHLGVUSROY-UHFFFAOYSA-N
Kind: experiment
Isotherm type: excess
Temperature: 87 K
Tabular data in the source: 0
pressure (bar)	uptake (cm3(STP)/g)
0.001327	2.88231
0.001327	25.9408
0.002654	48.0384
0.003318	68.2146
0.004645	84.5476
0.005308	102.802
0.007299	122.018
0.006636	146.998
0.008626	184.468
0.008626	238.271
0.01128	251.721
0.010617	287.27
0.009953	344.916
0.012608	607.206
0.012608	755.164
0.014598	796.477
0.017252	820.496
0.021897	844.516
0.027206	874.299
0.037159	900.24
0.049103	924.259
0.059056	937.71
0.070337	952.122
0.08029	961.729
0.090907	971.337
0.151954	1017.45
0.201721	1041.47
0.256133	1059.73
0.301918	1071.26
0.354339	1084.71
0.40676	1097.2
0.463162	1105.84
0.503639	1111.61
0.564686	1121.22
0.609808	1126.98
0.657584	1130.82
0.706687	1136.59
0.761099	1142.35
0.862623	1155.8
0.911062	1159.65
0.960829	1165.41
1.00661	1185.59
0.01213	720.73
0.013085	762.235
0.014996	781.604
0.014041	794.056
0.015952	813.425
0.023596	856.314
0.054173	929.64
0.100993	980.829
0.204189	1043.09
0.29783	1074.91
0.405804	1099.81
0.503267	1115.03
0.603597	1127.48
0.702971	1139.93
0.811901	1149.62
0.904586	1157.92
0.960962	1164.84
