Adsorption isotherm of Argon on COF-103
DOI: 10.1126/science.1139915
Article source: Figure 4b
Adsorbate Argon: InChIKey XKRFYHLGVUSROY-UHFFFAOYSA-N
Kind: experiment
Isotherm type: excess
Temperature: 87 K
Tabular data in the source: 0
pressure (bar)	uptake (cm3(STP)/g)
0.000664	20.0957
0.001327	51.3557
0.003318	73.6842
0.006636	91.5471
0.007963	106.061
0.00929	120.574
0.010617	146.252
0.011944	174.163
0.015262	217.703
0.015262	238.915
0.015262	256.778
0.014598	274.641
0.014598	296.97
0.016589	337.161
0.016589	386.284
0.016589	447.687
0.016589	553.748
0.016589	603.987
0.016589	645.295
0.016589	704.466
0.016589	789.314
0.016589	822.807
0.016589	847.368
0.016589	871.93
0.017252	895.375
0.01858	919.936
0.021234	944.498
0.027869	986.922
0.037159	1034.93
0.046449	1066.19
0.057729	1097.45
0.067019	1113.08
0.077636	1132.06
0.088917	1149.92
0.099533	1159.97
0.147309	1204.63
0.201721	1233.65
0.248833	1250.4
0.303909	1268.26
0.362302	1279.43
0.403442	1287.24
0.453872	1297.29
0.508947	1302.87
0.559378	1309.57
0.612462	1315.15
0.660902	1319.62
0.71664	1326.32
0.768398	1339.71
0.817501	1338.6
0.866604	1345.3
0.917034	1348.64
0.965474	1355.34
1.00595	1391.07
0.01696	588.179
0.01696	773.059
0.016005	877.557
0.01696	895.241
0.018872	911.317
0.018872	922.571
0.019827	933.825
0.021738	943.471
0.032249	1015.82
0.05327	1089.77
0.097224	1163.72
0.197554	1232.85
0.30075	1269.82
0.398213	1289.12
0.495676	1305.19
0.599828	1314.84
0.709713	1326.09
0.801443	1338.95
0.90655	1348.6
0.959104	1355.03
