Adsorption isotherm of Nitrogen on UiO-67-Urea
DOI: 10.1039/C3cc47177b
Adsorbate Nitrogen: InChIKey IJGRMHOSHXDMSA-UHFFFAOYSA-N
Temperature: 77 K
Tabular data in the source: 0
pressure (bar)	uptake (cm3(STP)/g)
0.000865	13.2743
0.00229475	49.9575
0.00658518	67.9773
0.0108756	76.9872
0.0208866	85.9971
0.0494895	92.4327
0.0981143	97.5812
0.15675	100.799
0.228257	103.373
0.302625	105.948
0.399875	107.235
0.499985	109.809
0.547179	111.096
0.65015	111.74
0.723087	112.383
0.797454	114.314
0.848939	115.601
0.898994	116.888
0.930458	118.175
0.987663	125.254
