Adsorption isotherm of Nitrogen on UiO-67-Urea-bpdc
DOI: 10.1039/C3cc47177b
Adsorbate Nitrogen: InChIKey IJGRMHOSHXDMSA-UHFFFAOYSA-N
Temperature: 77 K
Tabular data in the source: 0
pressure (bar)	uptake (cm3(STP)/g)
0.00229475	2.3337
0.00372489	87.9278
0.00372489	138.126
0.00801532	185.75
0.0108756	209.561
0.0180263	238.522
0.0494895	280.997
0.105265	334.413
0.136728	368.522
0.15103	379.462
0.199654	396.839
0.262581	403.918
0.346959	409.066
0.447069	412.928
0.522867	416.789
0.644429	421.294
0.730238	424.512
0.800315	427.086
0.896134	430.304
0.924737	432.235
0.983373	443.819
