Adsorption isotherm of Nitrogen on Cr-MIL(101)
DOI: 10.1016/j.micromeso.2013.08.040
Adsorbate Nitrogen: InChIKey IJGRMHOSHXDMSA-UHFFFAOYSA-N
Temperature: 77 K
Tabular data in the source: 0
pressure (bar)	uptake (cm3(STP)/g)
0.00266606	-5.26316
0.00437748	421.053
0.00444733	389.474
0.00691548	473.684
0.012108	526.316
0.0172538	600
0.0356136	700
0.056686	773.684
0.0724961	826.316
0.0909257	894.737
0.114665	963.158
0.141115	1005.26
0.164958	1026.32
0.183493	1047.37
0.191398	1073.68
0.254953	1142.11
0.406221	1157.89
0.446036	1157.89
0.480532	1163.16
0.528301	1168.42
0.578734	1168.42
0.623848	1173.68
0.676937	1173.68
0.714099	1173.68
0.743286	1178.95
0.775139	1178.95
0.791066	1178.95
0.814956	1178.95
0.833524	1184.21
0.846797	1184.21
0.862723	1184.21
0.875995	1184.21
0.889267	1184.21
0.90254	1184.21
