Adsorption isotherm of P-Xylene on Cr-MIL(101)
DOI: 10.1016/j.micromeso.2013.08.040
Adsorbate P-Xylene: InChIKey URLKBWYHVLBVBO-UHFFFAOYSA-N
Temperature: 313 K
Tabular data in the source: 0
pressure (bar)	uptake (mg/g)
5.24802e-05	129.712
0.00010496	89.4569
0.00015744	559.105
0.000367361	796.166
0.000629761	894.569
0.00167937	1024.28
0.00272898	1091.37
0.00404098	1274.76
0.00671745	1292.65
0.0107584	1310.54
0.0181581	1323.96
0.0233537	1323.96
0.025243	1323.96
