Adsorption isotherm of O-Xylene on Cr-MIL(101)
DOI: 10.1016/j.micromeso.2013.08.040
Adsorbate O-Xylene: InChIKey CTQNGGLPUBDAKN-UHFFFAOYSA-N
Temperature: 313 K
Tabular data in the source: 0
pressure (bar)	uptake (mg/g)
4.01727e-05	53.6741
0.000120518	353.355
0.000200863	527.796
0.000321381	746.965
0.000482071	809.585
0.00128552	916.933
0.00208898	992.971
0.0030933	1194.25
0.00518226	1212.14
0.00823539	1230.03
0.012333	1243.45
0.0167922	1247.92
0.019323	1230.03
