Adsorption isotherm of M-Xylene on Cr-MIL(101)
DOI: 10.1016/j.micromeso.2013.08.040
Adsorbate M-Xylene: InChIKey IVSZLXZYQVIEFR-UHFFFAOYSA-N
Temperature: 313 K
Tabular data in the source: 0
pressure (bar)	uptake (mg/g)
-6.92863e-19	-2.77556e-17
9.90594e-05	120.767
0.000198119	250.479
0.000396238	554.633
0.000594357	702.236
0.00153542	849.84
0.00262508	930.351
0.00386332	1001.92
0.0063398	1207.67
0.0102031	1225.56
0.0181279	1252.4
0.0219417	1265.81
0.0237743	1247.92
