Adsorption isotherm of Carbon Dioxide on CYCU-3
DOI: 10.1039/C2ta00030j
Adsorbate Carbon Dioxide: InChIKey CURLTUGMZLYLDI-UHFFFAOYSA-N
Temperature: 293 K
Tabular data in the source: 0
pressure (bar)	uptake (wt%)
0.00595567	0.0396501
0.0611951	0.374861
0.165702	1.065
0.270209	1.79458
0.373223	2.50444
0.474744	3.23402
0.579251	3.92416
0.682266	4.6143
0.788266	5.34388
0.839026	5.71852
0.89128	6.11289
0.94204	6.46782
