Adsorption isotherm of Nitrogen on CYCU-3
DOI: 10.1039/C2ta00030j
Adsorbate Nitrogen: InChIKey IJGRMHOSHXDMSA-UHFFFAOYSA-N
Temperature: 77 K
Tabular data in the source: 0
pressure (bar)	uptake (cm3(STP)/g)
0.00229475	15.1435
0.00229475	202.349
0.00515504	373.823
0.00801532	427.311
0.0165962	498.103
0.045199	561.029
0.0723718	603.504
0.102405	642.833
0.149599	691.601
0.166761	721.491
0.191074	808.015
0.232548	831.612
0.298334	855.21
0.374132	870.941
0.530017	891.392
0.681613	907.124
0.833208	927.575
0.913296	944.88
0.990524	1058.15
