Adsorption isotherm of Hydrogen on CYCU-3
DOI: 10.1039/C2ta00030j
Adsorbate Hydrogen: InChIKey UFHFLCQGNIYNRP-UHFFFAOYSA-N
Temperature: 77 K
Tabular data in the source: 0
pressure (bar)	uptake (wt%)
0.00296976	0.00509786
0.0208852	0.0710134
0.0477585	0.164816
0.102998	0.329605
0.162716	0.474112
0.223927	0.600873
0.309026	0.768196
0.394125	0.917774
0.480716	1.04707
0.571787	1.16876
0.658378	1.28031
0.746463	1.37411
0.807674	1.43749
0.862913	1.4958
0.922632	1.55918
0.976378	1.61242
