Adsorption isotherm of Carbon Dioxide on CYCU-3
DOI: 10.1039/C2ta00030j
Adsorbate Carbon Dioxide: InChIKey CURLTUGMZLYLDI-UHFFFAOYSA-N
Temperature: 273 K
Tabular data in the source: 0
pressure (bar)	uptake (wt%)
0.00296976	0.0199317
0.0611951	0.670636
0.116435	1.34106
0.168688	1.99176
0.219449	2.66219
0.274688	3.31289
0.328435	3.96359
0.376209	4.57486
0.428463	5.22557
0.483702	5.91571
0.535956	6.58613
0.641956	7.8481
0.749449	9.09035
0.85097	10.3918
0.909195	11.1016
0.961449	11.7918
