Adsorption isotherm of Nitrogen on CYCU-3
DOI: 10.1039/C2ta00030j
Adsorbate Nitrogen: InChIKey IJGRMHOSHXDMSA-UHFFFAOYSA-N
Temperature: 77 K
Tabular data in the source: 0
pressure (bar)	uptake (cm3(STP)/g)
0.00421011	9.8744
0.00421011	197.198
0.0140693	380.297
0.0619566	500.015
0.109844	549.311
0.161957	614.1
0.226745	819.734
0.27745	832.41
0.345055	847.903
0.423928	857.762
0.530971	870.438
0.632379	881.705
0.732379	891.565
0.836604	904.241
0.888717	911.283
0.939421	928.184
