Adsorption isotherm of Nitrogen on CYCU-3
DOI: 10.1039/C2ta00030j
Adsorbate Nitrogen: InChIKey IJGRMHOSHXDMSA-UHFFFAOYSA-N
Temperature: 77 K
Tabular data in the source: 0
pressure (bar)	uptake (cm3(STP)/g)
0.00984391	214.1
0.0197031	276.072
0.0675904	350.719
0.109844	387.339
0.166182	447.903
0.225337	604.241
0.27745	616.917
0.333788	626.776
0.426745	640.86
0.530971	654.945
0.632379	667.621
0.730971	683.114
0.833788	704.241
0.883083	722.55
0.936604	749.311
