Adsorption isotherm of Nitrogen on CYCU-3
DOI: 10.1039/C2ta00030j
Adsorbate Nitrogen: InChIKey IJGRMHOSHXDMSA-UHFFFAOYSA-N
Temperature: 77 K
Tabular data in the source: 0
pressure (bar)	uptake (cm3(STP)/g)
0.00561856	12.6913
0.00561856	107.057
0.0112524	183.114
0.0647735	263.396
0.119703	309.874
0.173224	387.339
0.230971	490.156
0.27745	497.198
0.343647	504.241
0.376041	512.691
0.471816	521.142
0.57745	528.184
0.678858	536.635
0.784492	546.494
0.835196	557.762
0.8859	566.212
0.930971	583.114
