Adsorption isotherm of Nitrogen on CYCU-3
DOI: 10.1039/C2ta00030j
Adsorbate Nitrogen: InChIKey IJGRMHOSHXDMSA-UHFFFAOYSA-N
Temperature: 77 K
Tabular data in the source: 0
pressure (bar)	uptake (cm3(STP)/g)
0.00984391	222.55
0.0168862	305.649
0.0366045	361.987
0.0718157	405.649
0.114069	447.903
0.150689	484.522
0.168999	519.734
0.20421	673.255
0.254914	687.339
0.316886	698.607
0.390126	709.874
0.453506	719.734
0.532379	728.184
0.612661	736.635
0.712661	747.903
0.790126	757.762
0.86759	777.48
0.926745	790.156
0.96759	816.917
