Adsorption isotherm of Methane on Carbon
DOI: 10.1016/j.fuel.2005.05.002
Adsorbate Methane: InChIKey VNWKTOKETHGBQD-UHFFFAOYSA-N
Temperature: 328 K
Tabular data in the source: 0
pressure (bar)	uptake (mmol/g)
5.70194	0.0662124
12.885	0.126776
25.3498	0.200015
40.3498	0.267621
46.6879	0.281705
55.3498	0.311283
70.7724	0.34086
82.6033	0.35917
95.7019	0.374663
110.702	0.387339
115.35	0.381705
125.068	0.404241
136.688	0.419734
