Adsorption isotherm of Carbon Dioxide on Carbon
DOI: 10.1016/j.fuel.2005.05.002
Adsorbate Carbon Dioxide: InChIKey CURLTUGMZLYLDI-UHFFFAOYSA-N
Temperature: 328 K
Tabular data in the source: 0
pressure (bar)	uptake (mmol/g)
8.23715	0.0471907
14.7864	0.082402
27.885	0.133106
42.4625	0.17043
55.9836	0.205641
69.5048	0.232402
82.6033	0.254233
96.9695	0.271839
111.336	0.292261
125.279	0.304233
138.378	0.319726
