Adsorption isotherm of Nitrogen on Carbon
DOI: 10.1016/j.fuel.2005.05.002
Adsorbate Nitrogen: InChIKey IJGRMHOSHXDMSA-UHFFFAOYSA-N
Temperature: 328 K
Tabular data in the source: 0
pressure (bar)	uptake (mmol/g)
6.96954	0.0239589
13.3076	0.0408603
28.3076	0.0704378
41.8287	0.0943814
55.1386	0.116917
69.0822	0.138043
82.6033	0.152128
96.3357	0.166212
110.491	0.185931
125.068	0.19579
137.11	0.208466
