Adsorption isotherm of Carbon Dioxide on Carbon
DOI: 10.1016/j.fuel.2005.05.002
Adsorbate Carbon Dioxide: InChIKey CURLTUGMZLYLDI-UHFFFAOYSA-N
Temperature: 328 K
Tabular data in the source: 0
pressure (bar)	uptake (mmol/g)
43.7301	0.598322
57.04	0.636632
70.3498	0.668181
84.2935	0.679449
110.702	0.705364
123.378	0.754942
136.899	0.761702
