Adsorption isotherm of Methane on Carbon
DOI: 10.1016/j.fuel.2005.05.002
Adsorbate Methane: InChIKey VNWKTOKETHGBQD-UHFFFAOYSA-N
Temperature: 328 K
Tabular data in the source: 0
pressure (bar)	uptake (mmol/g)
17.3217	0.154945
56.6174	0.321142
83.2372	0.376072
124.012	0.416917
