Adsorption isotherm of Nitrogen on Carbon
DOI: 10.1016/j.fuel.2005.05.002
Adsorbate Nitrogen: InChIKey IJGRMHOSHXDMSA-UHFFFAOYSA-N
Temperature: 328 K
Tabular data in the source: 0
pressure (bar)	uptake (mmol/g)
7.18081	0.0225474
13.9414	0.0315615
27.4625	0.0428291
42.885	0.0507164
56.4062	0.0597305
69.2935	0.0653643
83.2372	0.0743784
97.1808	0.0777587
110.913	0.085646
124.434	0.0935333
137.955	0.101421
