Adsorption isotherm of Methane on Carbon
DOI: 10.1016/j.fuel.2005.05.002
Adsorbate Methane: InChIKey VNWKTOKETHGBQD-UHFFFAOYSA-N
Temperature: 328 K
Tabular data in the source: 0
pressure (bar)	uptake (mmol/g)
4.22307	0.0577617
9.08222	0.108466
21.547	0.197198
32.9555	0.249311
44.5752	0.291565
61.2653	0.336635
73.3076	0.364804
77.5329	0.373255
84.2935	0.384522
99.716	0.409874
118.941	0.429593
126.124	0.433818
134.998	0.450719
