Adsorption isotherm of Methane on Carbon
DOI: 10.1016/j.fuel.2005.05.002
Adsorbate Methane: InChIKey VNWKTOKETHGBQD-UHFFFAOYSA-N
Temperature: 328 K
Tabular data in the source: 0
pressure (bar)	uptake (mmol/g)
6.96954	0.0417023
14.1526	0.061984
27.885	0.0924066
41.8287	0.101421
55.9836	0.114942
69.5048	0.122829
84.0822	0.135223
97.3921	0.145364
110.702	0.157759
124.646	0.170153
140.702	0.185928
