Adsorption isotherm of Nitrogen on Carbon
DOI: 10.1016/j.fuel.2005.05.002
Adsorbate Nitrogen: InChIKey IJGRMHOSHXDMSA-UHFFFAOYSA-N
Temperature: 328 K
Tabular data in the source: 0
pressure (bar)	uptake (mmol/g)
7.85246	0.015197
14.5026	0.0294984
28.232	0.0581013
41.9614	0.0795534
55.2617	0.0995754
69.2056	0.113877
83.1495	0.126748
97.0934	0.136759
111.252	0.14963
125.196	0.156781
138.067	0.168222
