Adsorption isotherm of Methane on Carbon
DOI: 10.1016/j.fuel.2005.05.002
Adsorbate Methane: InChIKey VNWKTOKETHGBQD-UHFFFAOYSA-N
Temperature: 328 K
Tabular data in the source: 0
pressure (bar)	uptake (mmol/g)
7.81461	0.0124066
13.7301	0.0191671
27.04	0.0248009
42.2512	0.0304347
55.7724	0.0326883
69.716	0.0349418
83.0259	0.0371953
96.547	0.0371953
110.702	0.0394488
124.012	0.0428291
138.167	0.0495897
