Adsorption isotherm of Carbon Dioxide on Carbon
DOI: 10.1016/j.fuel.2005.05.002
Adsorbate Carbon Dioxide: InChIKey CURLTUGMZLYLDI-UHFFFAOYSA-N
Temperature: 328 K
Tabular data in the source: 0
pressure (bar)	uptake (mmol/g)
5.91321	0.184801
13.3076	0.305364
27.2512	0.438322
40.7724	0.512688
56.8287	0.556632
70.1386	0.57804
84.0822	0.591561
96.547	0.597195
110.702	0.593815
124.012	0.582547
138.167	0.584801
