Adsorption isotherm of Carbon Dioxide on Carbon
DOI: 10.1016/j.fuel.2005.05.002
Adsorbate Carbon Dioxide: InChIKey CURLTUGMZLYLDI-UHFFFAOYSA-N
Temperature: 328 K
Tabular data in the source: 0
pressure (bar)	uptake (mmol/g)
4.42012	0.191105
6.56533	0.226858
14.2881	0.355571
27.3739	0.478563
35.9548	0.501446
43.2485	0.532909
55.9053	0.555791
69.2056	0.555791
84.2221	0.530048
96.4498	0.492865
103.958	0.464262
108.892	0.44138
123.05	0.395615
134.635	0.367012
136.136	0.351281
