Adsorption isotherm of Methane on Carbon
DOI: 10.1016/j.fuel.2005.05.002
Adsorbate Methane: InChIKey VNWKTOKETHGBQD-UHFFFAOYSA-N
Temperature: 328 K
Tabular data in the source: 0
pressure (bar)	uptake (mmol/g)
7.81461	0.0462094
14.7864	0.0642375
27.6738	0.0935333
42.2512	0.104801
56.8287	0.121702
69.5048	0.127336
84.2935	0.143111
97.6033	0.148745
110.702	0.161139
124.646	0.176914
140.279	0.190435
