Adsorption isotherm of Methane on Carbon
DOI: 10.1016/j.fuel.2005.05.002
Adsorbate Methane: InChIKey VNWKTOKETHGBQD-UHFFFAOYSA-N
Temperature: 328 K
Tabular data in the source: 0
pressure (bar)	uptake (mmol/g)
7.81461	0.0501469
15.4202	0.0850765
27.2512	0.12902
42.2512	0.166767
56.1949	0.201133
69.5048	0.219724
83.871	0.242823
97.3921	0.255217
111.124	0.268738
125.491	0.274936
138.378	0.284513
