Adsorption isotherm of Nitrogen on Carbon
DOI: 10.1016/j.fuel.2005.05.002
Adsorbate Nitrogen: InChIKey IJGRMHOSHXDMSA-UHFFFAOYSA-N
Temperature: 328 K
Tabular data in the source: 0
pressure (bar)	uptake (mmol/g)
8.02588	0.0118371
15.6315	0.0208512
27.04	0.0293019
42.885	0.038316
56.1949	0.0377526
69.2935	0.042823
83.0259	0.0411329
97.3921	0.0405695
111.124	0.0394427
125.279	0.0450765
139.012	0.0467667
