Adsorption isotherm of Carbon Dioxide on Carbon
DOI: 10.1016/j.fuel.2005.05.002
Adsorbate Carbon Dioxide: InChIKey CURLTUGMZLYLDI-UHFFFAOYSA-N
Temperature: 328 K
Tabular data in the source: 0
pressure (bar)	uptake (mmol/g)
4.0118	0.19579
6.12447	0.228184
13.9414	0.364804
27.885	0.504241
36.3357	0.54086
43.0963	0.576072
56.4062	0.623959
69.5048	0.642269
83.871	0.657762
96.7583	0.661987
103.941	0.676072
109.857	0.67748
123.378	0.736635
135.632	0.75917
