Adsorption isotherm of Nitrogen on Carbon
DOI: 10.1016/j.fuel.2005.05.002
Adsorbate Nitrogen: InChIKey IJGRMHOSHXDMSA-UHFFFAOYSA-N
Temperature: 328 K
Tabular data in the source: 0
pressure (bar)	uptake (mmol/g)
5.70194	0.010153
13.5188	0.0157868
27.6738	0.0202939
40.7724	0.0191671
56.4062	0.0214206
69.2935	0.0371953
83.0259	0.0360685
96.3357	0.0417023
110.491	0.0439559
123.801	0.0450826
137.744	0.0495897
