Adsorption isotherm of Methane on Carbon
DOI: 10.1016/j.fuel.2005.05.002
Adsorbate Methane: InChIKey VNWKTOKETHGBQD-UHFFFAOYSA-N
Temperature: 328 K
Tabular data in the source: 0
pressure (bar)	uptake (mmol/g)
8.44842	0.0485992
15.4202	0.0838104
28.0963	0.128881
43.0963	0.172543
56.6174	0.208458
69.9273	0.23381
83.871	0.257754
97.6033	0.276064
111.336	0.292261
125.279	0.304233
138.801	0.321839
