Adsorption isotherm of Methane on Carbon
DOI: 10.1016/j.fuel.2005.05.002
Adsorbate Methane: InChIKey VNWKTOKETHGBQD-UHFFFAOYSA-N
Temperature: 328 K
Tabular data in the source: 0
pressure (bar)	uptake (mmol/g)
3.99108	0.0480903
9.99768	0.103866
20.9383	0.181094
33.166	0.228288
45.3937	0.261182
62.1264	0.304086
73.067	0.318387
77.5719	0.318387
85.7237	0.332689
99.4531	0.336979
119.189	0.34413
127.555	0.338409
