Adsorption isotherm of Carbon Dioxide on Carbon
DOI: 10.1016/j.fuel.2005.05.002
Adsorbate Carbon Dioxide: InChIKey CURLTUGMZLYLDI-UHFFFAOYSA-N
Temperature: 328 K
Tabular data in the source: 0
pressure (bar)	uptake (mmol/g)
8.02588	0.130716
14.9977	0.211843
28.5188	0.29635
41.8287	0.360576
56.1949	0.397759
69.0822	0.427054
84.9273	0.441702
96.9695	0.447336
110.702	0.446209
124.646	0.446209
140.491	0.430435
