Adsorption isotherm of Methane on Carbon
DOI: 10.1016/j.fuel.2005.05.002
Adsorbate Methane: InChIKey VNWKTOKETHGBQD-UHFFFAOYSA-N
Temperature: 328 K
Tabular data in the source: 0
pressure (bar)	uptake (mmol/g)
5.70725	0.0581013
13.001	0.119597
16.8624	0.136759
25.6577	0.188244
40.6742	0.24831
47.3244	0.259751
55.9053	0.286924
70.4927	0.301226
78.6445	0.301226
82.2914	0.308376
95.5917	0.312667
110.394	0.319817
115.113	0.309806
124.338	0.321248
135.707	0.325538
