Adsorption isotherm of Carbon Dioxide on Carbon
DOI: 10.1016/j.fuel.2005.05.002
Adsorbate Carbon Dioxide: InChIKey CURLTUGMZLYLDI-UHFFFAOYSA-N
Temperature: 328 K
Tabular data in the source: 0
pressure (bar)	uptake (mmol/g)
7.18081	0.126209
14.3639	0.208463
27.04	0.295223
40.9836	0.359449
56.6174	0.395505
69.716	0.422547
83.871	0.437195
97.6033	0.441702
111.124	0.443956
124.857	0.442829
140.913	0.429308
