Adsorption isotherm of Nitrogen on Carbon
DOI: 10.1016/j.fuel.2005.05.002
Adsorbate Nitrogen: InChIKey IJGRMHOSHXDMSA-UHFFFAOYSA-N
Temperature: 328 K
Tabular data in the source: 0
pressure (bar)	uptake (mmol/g)
8.44842	0.00986678
15.6315	0.0204302
28.0963	0.0316978
42.4625	0.0429654
55.9836	0.0464865
69.2935	0.0556414
83.4484	0.0591626
97.6033	0.0655006
111.336	0.0711344
125.279	0.0809935
139.223	0.0901485
