Adsorption isotherm of Nitrogen on Carbon
DOI: 10.1016/j.fuel.2005.05.002
Adsorbate Nitrogen: InChIKey IJGRMHOSHXDMSA-UHFFFAOYSA-N
Temperature: 328 K
Tabular data in the source: 0
pressure (bar)	uptake (mmol/g)
7.60335	0.0112752
15.4202	0.0211344
27.885	0.0302893
41.8287	0.0436696
55.9836	0.0485992
69.5048	0.0584583
83.2372	0.0570499
96.3357	0.0633879
111.336	0.0704302
125.491	0.0809935
138.378	0.0866273
