Adsorption isotherm of Methane on Carbon
DOI: 10.1016/j.fuel.2005.05.002
Adsorbate Methane: InChIKey VNWKTOKETHGBQD-UHFFFAOYSA-N
Temperature: 328 K
Tabular data in the source: 0
pressure (bar)	uptake (mmol/g)
7.39208	0.0946601
14.3639	0.170153
26.8287	0.263674
42.04	0.3279
55.3498	0.370716
69.0822	0.397759
83.2372	0.413533
96.3357	0.424801
110.491	0.427054
124.434	0.423674
138.589	0.422547
