Adsorption isotherm of Carbon Dioxide on Carbon
DOI: 10.1016/j.fuel.2005.05.002
Adsorbate Carbon Dioxide: InChIKey CURLTUGMZLYLDI-UHFFFAOYSA-N
Temperature: 328 K
Tabular data in the source: 0
pressure (bar)	uptake (mmol/g)
6.12447	0.205083
14.9977	0.377477
28.9414	0.514942
43.9414	0.596069
57.2512	0.630998
71.1949	0.652407
84.0822	0.656914
97.3921	0.6479
109.857	0.652407
123.801	0.672688
136.899	0.65804
