Adsorption isotherm of Hydrogen on IRMOF-12
DOI: 10.1080/08927022.2013.784760
Adsorbate Hydrogen: InChIKey UFHFLCQGNIYNRP-UHFFFAOYSA-N
Temperature: 298 K
Tabular data in the source: 0
pressure (bar)	uptake (wt%)
1.05646	0.227849
5.20772	0.632051
9.79595	0.916085
20.9388	1.39676
39.2918	1.81188
59.6111	2.09592
79.7119	2.30348
98.9388	2.43457
