Adsorption isotherm of Hydrogen on Li-IRMOF-12
DOI: 10.1080/08927022.2013.784760
Adsorbate Hydrogen: InChIKey UFHFLCQGNIYNRP-UHFFFAOYSA-N
Temperature: 298 K
Tabular data in the source: 0
pressure (bar)	uptake (wt%)
1.05646	0.457261
5.20772	1.0581
10.4514	1.36398
19.6279	1.76819
39.7287	2.20516
60.485	2.50012
79.2749	2.66398
98.7203	2.806
