Adsorption isotherm of Hydrogen on IRMOF-12
DOI: 10.1080/08927022.2013.784760
Adsorbate Hydrogen: InChIKey UFHFLCQGNIYNRP-UHFFFAOYSA-N
Temperature: 298 K
Tabular data in the source: 0
pressure (bar)	uptake (wt%)
1.71192	0.0421351
20.5018	0.0749082
39.7287	0.184152
59.1741	0.249698
78.838	0.326169
99.3758	0.391715
