Adsorption isotherm of Hydrogen on Li-IRMOF-14
DOI: 10.1080/08927022.2013.784760
Adsorbate Hydrogen: InChIKey UFHFLCQGNIYNRP-UHFFFAOYSA-N
Temperature: 298 K
Tabular data in the source: 0
pressure (bar)	uptake (g/l)
1.49343	2.43612
5.64469	6.33612
10.0144	8.40083
20.2833	11.0008
38.6363	13.4479
60.485	15.0538
80.1489	16.2008
98.9388	16.8891
