Adsorption isotherm of Hydrogen on Li-IRMOF-14
DOI: 10.1080/08927022.2013.784760
Adsorbate Hydrogen: InChIKey UFHFLCQGNIYNRP-UHFFFAOYSA-N
Temperature: 298 K
Tabular data in the source: 0
pressure (bar)	uptake (g/l)
1.49343	3.12436
6.08167	7.40671
10.2329	9.01259
18.7539	11.9949
39.9472	15.5126
59.6111	17.2714
80.1489	18.7244
99.3758	19.642
