Adsorption isotherm of Hydrogen on Li-IRMOF-12
DOI: 10.1080/08927022.2013.784760
Adsorbate Hydrogen: InChIKey UFHFLCQGNIYNRP-UHFFFAOYSA-N
Temperature: 298 K
Tabular data in the source: 0
pressure (bar)	uptake (wt%)
0.837971	0.577429
5.20772	1.5497
10.4514	2.15054
20.2833	2.78415
40.3842	3.53793
60.7035	3.94214
80.1489	4.17155
99.8128	4.39003
