Adsorption isotherm of Hydrogen on IRMOF-14
DOI: 10.1080/08927022.2013.784760
Adsorbate Hydrogen: InChIKey UFHFLCQGNIYNRP-UHFFFAOYSA-N
Temperature: 298 K
Tabular data in the source: 0
pressure (bar)	uptake (wt%)
0.837971	0.107681
10.8884	0.195076
20.2833	0.271547
40.1657	0.435412
60.2665	0.522807
79.4934	0.610202
99.1573	0.719446
