Adsorption isotherm of Hydrogen on Li-IRMOF-12
DOI: 10.1080/08927022.2013.784760
Adsorbate Hydrogen: InChIKey UFHFLCQGNIYNRP-UHFFFAOYSA-N
Temperature: 298 K
Tabular data in the source: 0
pressure (bar)	uptake (g/l)
1.49343	2.43612
5.64469	6.33612
10.4514	7.942
20.7203	10.4655
41.4766	12.9891
60.485	14.5185
80.3674	15.5891
99.3758	16.3538
