Adsorption isotherm of Hydrogen on IRMOF-14
DOI: 10.1080/08927022.2013.784760
Adsorbate Hydrogen: InChIKey UFHFLCQGNIYNRP-UHFFFAOYSA-N
Temperature: 298 K
Tabular data in the source: 0
pressure (bar)	uptake (wt%)
1.71192	0.0421351
20.2833	0.162303
39.0733	0.238774
60.0481	0.380791
80.1489	0.468185
99.1573	0.511883
