Adsorption isotherm of Hydrogen on Li-IRMOF-12
DOI: 10.1080/08927022.2013.784760
Adsorbate Hydrogen: InChIKey UFHFLCQGNIYNRP-UHFFFAOYSA-N
Temperature: 298 K
Tabular data in the source: 0
pressure (bar)	uptake (g/l)
1.49343	3.12436
6.08167	7.40671
10.2329	9.01259
20.2833	11.842
40.1657	14.5185
60.0481	16.5067
79.4934	17.5773
98.9388	18.6479
