Adsorption isotherm of Hydrogen on Li-IRMOF-12
DOI: 10.1080/08927022.2013.784760
Adsorbate Hydrogen: InChIKey UFHFLCQGNIYNRP-UHFFFAOYSA-N
Temperature: 298 K
Tabular data in the source: 0
pressure (bar)	uptake (g/l)
1.49343	3.88906
5.64469	10.4655
10.4514	14.442
20.5018	19.4891
40.6027	24.6891
58.9556	27.7479
80.1489	29.7361
99.5943	30.8832
