Adsorption isotherm of Hydrogen on IRMOF-14
DOI: 10.1080/08927022.2013.784760
Adsorbate Hydrogen: InChIKey UFHFLCQGNIYNRP-UHFFFAOYSA-N
Temperature: 298 K
Tabular data in the source: 0
pressure (bar)	uptake (g/l)
1.27495	0.524357
5.42621	0.90671
10.6699	1.13612
20.2833	1.74789
40.8212	2.43612
60.2665	3.20083
79.9304	3.65965
99.5943	4.11847
