Adsorption isotherm of Hydrogen on Li-IRMOF-14
DOI: 10.1080/08927022.2013.784760
Adsorbate Hydrogen: InChIKey UFHFLCQGNIYNRP-UHFFFAOYSA-N
Temperature: 298 K
Tabular data in the source: 0
pressure (bar)	uptake (g/l)
2.1489	0.0655336
20.7203	0.447887
40.8212	0.983181
60.7035	1.28906
79.0565	1.82436
99.3758	1.90083
