Adsorption isotherm of Hydrogen on Li-IRMOF-14
DOI: 10.1080/08927022.2013.784760
Adsorbate Hydrogen: InChIKey UFHFLCQGNIYNRP-UHFFFAOYSA-N
Temperature: 298 K
Tabular data in the source: 0
pressure (bar)	uptake (g/l)
1.49343	3.88906
5.64469	10.4655
10.6699	14.9008
20.0649	19.7185
40.6027	25.4538
59.6111	28.5126
79.9304	30.3479
99.1573	31.7244
