Adsorption isotherm of Hydrogen on IRMOF-12
DOI: 10.1080/08927022.2013.784760
Adsorbate Hydrogen: InChIKey UFHFLCQGNIYNRP-UHFFFAOYSA-N
Temperature: 298 K
Tabular data in the source: 0
pressure (bar)	uptake (wt%)
0.837971	0.107681
10.8884	0.195076
20.2833	0.271547
39.9472	0.358942
59.3926	0.468185
79.7119	0.544656
99.1573	0.588354
