Adsorption isotherm of Hydrogen on Li-IRMOF-12
DOI: 10.1080/08927022.2013.784760
Adsorbate Hydrogen: InChIKey UFHFLCQGNIYNRP-UHFFFAOYSA-N
Temperature: 298 K
Tabular data in the source: 0
pressure (bar)	uptake (g/l)
2.1489	0.0655336
20.5018	0.218475
40.3842	0.600828
59.6111	0.90671
80.8044	1.13612
98.9388	1.442
