Adsorption isotherm of Hydrogen on Li-IRMOF-14
DOI: 10.1080/08927022.2013.784760
Adsorbate Hydrogen: InChIKey UFHFLCQGNIYNRP-UHFFFAOYSA-N
Temperature: 298 K
Tabular data in the source: 0
pressure (bar)	uptake (wt%)
0.837971	0.577429
4.55226	1.1455
9.57747	1.49508
20.0649	1.88835
39.9472	2.3581
59.8296	2.66398
80.5859	2.86062
98.9388	3.00264
