Adsorption isotherm of Hydrogen on IRMOF-14
DOI: 10.1080/08927022.2013.784760
Adsorbate Hydrogen: InChIKey UFHFLCQGNIYNRP-UHFFFAOYSA-N
Temperature: 298 K
Tabular data in the source: 0
pressure (bar)	uptake (g/l)
1.71192	1.36553
5.42621	3.88906
10.8884	5.95377
20.5018	8.55377
39.9472	11.9949
60.485	14.1361
79.2749	15.2067
98.7203	16.0479
