Adsorption isotherm of Hydrogen on Li-IRMOF-14
DOI: 10.1080/08927022.2013.784760
Adsorbate Hydrogen: InChIKey UFHFLCQGNIYNRP-UHFFFAOYSA-N
Temperature: 298 K
Tabular data in the source: 0
pressure (bar)	uptake (wt%)
0.837971	0.577429
5.20772	1.5497
10.4514	2.15054
20.2833	2.67491
40.6027	3.33037
59.1741	3.64718
79.4934	3.93121
99.3758	4.07323
