Adsorption isotherm of Hydrogen on IRMOF-14
DOI: 10.1080/08927022.2013.784760
Adsorbate Hydrogen: InChIKey UFHFLCQGNIYNRP-UHFFFAOYSA-N
Temperature: 298 K
Tabular data in the source: 0
pressure (bar)	uptake (wt%)
1.05646	0.227849
5.20772	0.632051
9.35898	0.937933
20.5018	1.33121
39.9472	1.89928
60.7035	2.17239
79.9304	2.36903
97.6279	2.51104
