Adsorption isotherm of Hydrogen on Li-IRMOF-12
DOI: 10.1080/08927022.2013.784760
Adsorbate Hydrogen: InChIKey UFHFLCQGNIYNRP-UHFFFAOYSA-N
Temperature: 298 K
Tabular data in the source: 0
pressure (bar)	uptake (wt%)
0.837971	0.577429
4.98923	1.47323
10.2329	1.96482
20.2833	2.53289
39.7287	3.07911
59.1741	3.40684
79.4934	3.63625
99.1573	3.80012
