Adsorption isotherm of Hydrogen on IRMOF-12
DOI: 10.1080/08927022.2013.784760
Adsorbate Hydrogen: InChIKey UFHFLCQGNIYNRP-UHFFFAOYSA-N
Temperature: 298 K
Tabular data in the source: 0
pressure (bar)	uptake (g/l)
1.27495	0.524357
5.42621	0.90671
20.5018	1.36553
40.1657	2.13024
60.0481	2.66553
80.1489	3.2773
99.5943	3.81259
