Adsorption isotherm of Hydrogen on Li-IRMOF-14
DOI: 10.1080/08927022.2013.784760
Adsorbate Hydrogen: InChIKey UFHFLCQGNIYNRP-UHFFFAOYSA-N
Temperature: 298 K
Tabular data in the source: 0
pressure (bar)	uptake (wt%)
0.837971	0.577429
5.20772	1.5497
10.4514	2.23793
20.5018	2.99171
39.5102	3.7018
60.485	4.16062
78.1825	4.37911
99.8128	4.5539
