Adsorption isotherm of Hydrogen on IRMOF-12
DOI: 10.1080/08927022.2013.784760
Adsorbate Hydrogen: InChIKey UFHFLCQGNIYNRP-UHFFFAOYSA-N
Temperature: 298 K
Tabular data in the source: 0
pressure (bar)	uptake (g/l)
1.93041	1.442
6.51864	3.65965
11.1069	5.49495
20.2833	8.40083
40.6027	11.6891
60.922	13.8302
79.7119	14.9008
99.3758	15.8185
