Adsorption isotherm of Ethane on SBA-15
DOI: 10.1021/Ja4030269
Adsorbate Ethane: InChIKey OTMSDBZUPAUEDD-UHFFFAOYSA-N
Temperature: 298 K
Tabular data in the source: 0
pressure (bar)	uptake (mmol/g)
0.0619484	0.025281
0.0619484	0.1236
0.389679	0.228474
0.935898	0.333348
1.98464	0.497214
2.96783	0.64797
3.99472	0.805281
4.97791	0.936373
5.98296	1.10679
6.988	1.22478
7.94934	1.34276
9.01993	1.49352
10.0031	1.6115
