Adsorption isotherm of Ethene on SBA-15
DOI: 10.1021/Ja4030269
Adsorbate Ethene: InChIKey VGGSQFUCUMXWEO-UHFFFAOYSA-N
Temperature: 298 K
Tabular data in the source: 0
pressure (bar)	uptake (mmol/g)
0.0400996	0.516878
0.0837971	0.667634
0.21489	0.811836
1.00144	1.08713
1.98464	1.36242
2.98968	1.60494
3.97287	1.80158
4.93422	1.99822
5.98296	2.16864
6.96615	2.35217
8.01489	2.45705
8.97623	2.56192
9.93758	2.64058
