Adsorption isotherm of Ethane on SBA-15
DOI: 10.1021/Ja4030269
Adsorbate Ethane: InChIKey OTMSDBZUPAUEDD-UHFFFAOYSA-N
Temperature: 298 K
Tabular data in the source: 0
pressure (bar)	uptake (mmol/g)
0.108756	0.0112676
0.509196	0.144271
1.08125	0.255822
2.03945	0.427439
3.01195	0.577604
4.02735	0.749221
4.98554	0.895096
6.02955	1.04097
6.94484	1.16539
7.96024	1.31556
9.10436	1.45285
9.99104	1.56869
