Adsorption isotherm of Ethene on SBA-15
DOI: 10.1021/Ja4030269
Adsorbate Ethene: InChIKey VGGSQFUCUMXWEO-UHFFFAOYSA-N
Temperature: 298 K
Tabular data in the source: 0
pressure (bar)	uptake (mmol/g)
0.0837971	0.22192
0.105646	0.431668
0.171192	0.700407
0.345982	0.805281
0.914049	0.975701
2.00649	1.15923
2.96783	1.32965
3.92918	1.48696
5.02161	1.65738
5.98296	1.74259
7.0317	1.88679
7.99304	1.99822
8.99808	2.11621
9.98128	2.21452
