Adsorption isotherm of Ethene on SBA-15
DOI: 10.1021/Ja4030269
Adsorbate Ethene: InChIKey VGGSQFUCUMXWEO-UHFFFAOYSA-N
Temperature: 298 K
Tabular data in the source: 0
pressure (bar)	uptake (mmol/g)
0.0658518	0.015558
0.108756	0.144271
0.623608	0.345921
1.02405	0.457472
2.01085	0.663413
2.99764	0.843611
4.02735	0.985195
5.02845	1.12678
6.00095	1.25549
7.00205	1.37991
7.98884	1.54295
8.97564	1.64163
9.97674	1.74889
