Adsorption isotherm of Ethane on SBA-15
DOI: 10.1021/Ja4030269
Adsorbate Ethane: InChIKey OTMSDBZUPAUEDD-UHFFFAOYSA-N
Temperature: 298 K
Tabular data in the source: 0
pressure (bar)	uptake (mmol/g)
0.0400996	0.149819
0.0619484	0.0121718
0.957747	0.333348
2.02833	0.516878
3.01153	0.680743
4.01657	0.8315
4.95607	0.956037
6.00481	1.10024
7.0317	1.22478
7.94934	1.34276
8.99808	1.45419
9.52245	1.51318
9.98128	1.57873
