Adsorption isotherm of Oxygen on Aluminum formate
DOI: 10.1021/jacs.3c02100
Article source: Figure 1A
Adsorbate Oxygen: InChIKey MYMOFIZGZYHOMD-UHFFFAOYSA-N
Kind: experiment
Isotherm type: excess
Temperature: 210 K
Tabular data in the source: 1
pressure (bar)	uptake (mmol/g)
0.01248	0.061247
0.018341	0.109846
0.02234	0.14805
0.022575	0.157661
0.026797	0.182041
0.029723	0.216944
0.034418	0.250473
0.039233	0.290204
0.044197	0.339287
0.050956	0.38929
0.058306	0.449339
0.069103	0.50696
0.080611	0.580554
0.097293	0.653574
0.111142	0.767244
0.130866	0.880817
0.154637	1.00764
0.186493	1.14008
0.229194	1.28629
0.279101	1.46587
0.348702	1.65539
0.435175	1.87617
0.526377	2.07847
0.680039	2.31834
0.872674	2.61984
1.14573	2.89814
1.23687	3.0219
0.832343	2.7556
0.59703	2.48458
0.460019	2.25385
0.36183	2.06072
0.294281	1.90591
0.244994	1.75045
0.20278	1.60891
0.166235	1.4936
0.143706	1.37025
0.12084	1.26593
0.105768	1.16409
0.088536	1.08466
0.076812	1.01486
0.069838	0.936146
0.060328	0.870232
0.050799	0.816061
0.0461	0.760584
0.039161	0.717078
0.035846	0.672894
0.030869	0.637626
