Adsorption isotherm of Oxygen on Aluminum formate
DOI: 10.1021/jacs.3c02100
Article source: Figure S9
Adsorbate Oxygen: InChIKey MYMOFIZGZYHOMD-UHFFFAOYSA-N
Kind: experiment
Isotherm type: excess
Temperature: 297 K
Tabular data in the source: 1
pressure (bar)	uptake (mmol/g)
0.103694	0.039757
0.145564	0.055936
0.204638	0.078225
0.286186	0.10834
0.393836	0.147698
0.547012	0.200222
0.744565	0.26536
0.998212	0.343224
1.2234	0.408171
1.19052	0.400141
1.18189	0.397997
1.17916	0.397988
0.747115	0.271146
0.63957	0.235797
0.629099	0.231742
0.540554	0.202852
0.423118	0.162387
0.319223	0.124968
0.235773	0.094516
0.171954	0.070056
0.124448	0.051847
