Adsorption isotherm of Nitrogen on Aluminum Formate - Fe
DOI: 10.1021/jacs.3c02100
Article source: Figure S8
Adsorbate Nitrogen: InChIKey IJGRMHOSHXDMSA-UHFFFAOYSA-N
Kind: experiment
Isotherm type: excess
Temperature: 77 K
Tabular data in the source: 1
pressure (RELATIVE)	uptake (cm3(STP)/g)
0.057112	0.552276
0.067916	0.552949
0.080444	0.584546
0.095373	0.577423
0.112202	0.604498
0.133085	0.629505
0.15601	0.651012
0.183765	0.65355
0.215826	0.652122
0.25128	0.720721
0.292387	0.701377
0.342477	0.717445
0.379557	0.739969
0.412606	0.755957
0.451637	0.860163
0.486794	0.793236
0.514624	0.911112
0.538389	0.933552
0.569579	0.961928
0.607524	0.875132
0.646205	1.0386
0.68677	0.945234
0.730186	1.15638
0.838315	1.14926
0.957088	1.6988
1.01325	5.46653
1.01899	6.48896
0.599207	1.06608
0.47125	0.826038
0.397537	0.787176
0.350103	0.828583
0.312642	0.768296
0.287322	0.795434
0.265554	0.734081
0.271461	0.785139
0.252679	0.777127
0.23392	0.726294
0.216167	0.746877
0.19984	0.748728
0.184925	0.716402
0.169187	0.727698
0.154796	0.702659
0.136155	0.704518
0.117905	0.665948
0.101031	0.675314
0.086471	0.642874
0.073651	0.644203
0.062521	0.615916
