Adsorption isotherm of Oxygen on Aluminum formate
DOI: 10.1021/jacs.3c02100
Article source: Figure 1A
Adsorbate Oxygen: InChIKey MYMOFIZGZYHOMD-UHFFFAOYSA-N
Kind: experiment
Isotherm type: excess
Temperature: 225 K
Tabular data in the source: 1
pressure (bar)	uptake (mmol/g)
0.054553	0.228991
0.086573	0.375079
0.10942	0.459146
0.133261	0.553419
0.163761	0.662416
0.204153	0.786715
0.254735	0.928209
0.322952	1.08664
0.41612	1.2598
0.519527	1.434
0.675695	1.6706
0.885299	1.93
1.16468	2.19756
1.19143	2.22882
0.805026	1.94386
0.59122	1.70613
0.454919	1.48934
0.35212	1.31579
0.284739	1.16073
0.228114	1.02035
0.184643	0.89675
0.149754	0.792272
0.123238	0.697221
