Adsorption isotherm of Oxygen on Aluminum formate
DOI: 10.1021/jacs.3c02100
Article source: Figure 1A
Adsorbate Oxygen: InChIKey MYMOFIZGZYHOMD-UHFFFAOYSA-N
Kind: experiment
Isotherm type: excess
Temperature: 200 K
Tabular data in the source: 1
pressure (bar)	uptake (mmol/g)
0.036266	0.298928
0.05937	0.53654
0.081781	0.704749
0.099068	0.826333
0.116199	0.930189
0.132794	1.06434
0.151905	1.21539
0.181707	1.36076
0.216569	1.52827
0.262282	1.71041
0.319572	1.90895
0.391974	2.15565
0.500079	2.38038
0.635183	2.67426
0.817568	2.99851
1.02213	3.25148
1.20199	3.41817
1.19554	3.45895
0.789851	3.25896
0.624802	3.07173
0.506267	2.89851
0.406345	2.73834
0.322784	2.61069
0.273185	2.43606
0.227727	2.28477
0.190442	2.14884
0.158787	2.0325
0.133485	1.93463
