Adsorption isotherm of Oxygen on Aluminum formate
DOI: 10.1021/jacs.3c02100
Article source: Figure S9
Adsorbate Oxygen: InChIKey MYMOFIZGZYHOMD-UHFFFAOYSA-N
Kind: experiment
Isotherm type: excess
Temperature: 273 K
Tabular data in the source: 1
pressure (bar)	uptake (mmol/g)
0.023653	0.018882
0.025328	0.020946
0.034888	0.028414
0.047757	0.039824
0.065248	0.054379
0.089283	0.074389
0.120966	0.101191
0.165179	0.136946
0.225634	0.183914
0.307259	0.242988
0.415933	0.321112
0.540705	0.402163
0.715111	0.508647
0.968909	0.643391
1.20779	0.760009
1.19541	0.757141
0.788545	0.560537
0.588194	0.444823
0.43578	0.348595
0.329872	0.275102
0.253582	0.217675
0.190977	0.169796
0.142351	0.130136
0.105162	0.101055
0.077979	0.076951
0.057713	0.059038
0.042468	0.045568
0.031246	0.034985
