Adsorption isotherm of Nitrogen on Aluminum formate
DOI: 10.1021/jacs.3c02100
Article source: Figure S7
Adsorbate Nitrogen: InChIKey IJGRMHOSHXDMSA-UHFFFAOYSA-N
Kind: experiment
Isotherm type: excess
Temperature: 77 K
Tabular data in the source: 1
pressure (RELATIVE)	uptake (cm3(STP)/g)
0.042927	0.997888
0.063586	1.09163
0.075249	1.13303
0.089201	1.17514
0.105287	1.22035
0.124619	1.26713
0.147067	1.31831
0.173984	1.37201
0.204318	1.43189
0.239917	1.49991
0.282728	1.57278
0.331695	1.6631
0.38272	1.7589
0.425863	1.84194
0.470003	1.92853
0.508481	2.00507
0.540371	2.07814
0.56728	2.1405
0.609507	2.23287
0.651947	2.34206
0.696439	2.46686
0.743513	2.62078
0.850926	3.08729
0.964527	4.40055
1.01046	11.0942
1.01106	11.7293
1.01174	12.3225
1.01229	12.9636
1.01284	13.5223
1.01325	14.0341
0.967321	4.77821
0.646482	2.49161
0.542866	2.23583
0.496881	2.07261
0.511389	2.09682
0.472874	1.9493
0.431237	1.8461
0.390898	1.76398
0.35503	1.69548
0.322307	1.63598
0.297744	1.58894
0.275645	1.54968
0.255104	1.51676
0.236255	1.48395
0.218806	1.45309
0.202662	1.42329
0.187678	1.39698
0.171936	1.36503
0.153032	1.32808
0.131733	1.27876
0.11285	1.23433
0.096488	1.18961
0.082057	1.1535
0.069629	1.11281
0.058964	1.07302
0.049955	1.0339
0.042317	0.994067
0.035825	0.953829
0.02645	0.88283
0.03292	0.935674
0.031689	0.927653
0.029621	0.912147
0.027559	0.896687
0.033308	0.939742
0.031951	0.929393
0.029822	0.915922
0.02777	0.899677
0.033383	0.940677
0.031969	0.933407
0.029839	0.919912
0.027814	0.900509
0.033401	0.943268
0.03198	0.935513
0.029895	0.919444
0.027831	0.904055
0.033437	0.94623
0.032027	0.936642
0.029906	0.922061
0.02784	0.906514
0.033321	0.948058
0.031914	0.938282
0.029789	0.923447
0.027744	0.905225
0.033395	0.947058
0.032002	0.936821
0.029877	0.921477
0.027819	0.903537
0.033376	0.944001
0.031956	0.93602
0.029833	0.921945
0.027771	0.90623
0.033426	0.948085
0.032028	0.939708
0.029897	0.925848
0.027838	0.910309
0.033369	0.95046
0.031954	0.940696
0.02983	0.926836
0.034061	0.956717
0.032438	0.946131
0.030248	0.931124
0.028176	0.913891
0.033478	0.955041
0.032029	0.944904
0.029908	0.930218
0.02784	0.914717
0.03346	0.953446
0.032028	0.944642
0.029907	0.929951
0.027834	0.914788
0.033401	0.955386
0.031965	0.949226
0.029878	0.933219
0.027829	0.915194
0.033408	0.957933
0.032015	0.947404
0.029895	0.932546
0.027831	0.915396
0.033277	0.957794
0.031885	0.947392
0.029765	0.932901
0.034047	0.962503
0.032439	0.951268
0.030249	0.935665
0.028176	0.916852
0.033534	0.956079
0.032094	0.945585
0.029962	0.927888
0.027889	0.912693
0.033394	0.953933
0.031963	0.944394
0.029846	0.928772
0.027773	0.913259
0.033387	0.953948
0.031971	0.945315
0.029875	0.928549
0.027785	0.913639
0.033398	0.953891
0.031973	0.946239
0.029844	0.931432
0.027808	0.913085
0.033355	0.956357
0.031947	0.947325
0.029824	0.933752
0.027775	0.917456
0.033397	0.957431
0.031963	0.950191
0.029844	0.935874
0.027789	0.919412
0.033395	0.960995
0.031974	0.952983
0.029868	0.936773
0.027814	0.919893
0.033327	0.959937
0.031905	0.951081
0.029813	0.933237
0.027758	0.916267
0.033406	0.959019
0.032013	0.948835
0.029888	0.934924
0.027831	0.918844
0.033321	0.960121
0.031911	0.951535
0.029807	0.936612
0.027763	0.919245
0.033399	0.960871
0.032011	0.950659
0.029889	0.935698
0.027821	0.917708
0.033397	0.958631
0.031968	0.951607
0.029882	0.934299
0.027816	0.916081
0.033403	0.959233
0.032017	0.948469
0.02989	0.933227
0.027829	0.917258
0.033464	0.956954
0.032038	0.949054
0.029923	0.933245
0.027847	0.917741
0.033399	0.956699
0.031982	0.947501
0.029866	0.930695
0.027785	0.914434
0.033398	0.95745
0.031981	0.949911
0.029893	0.934475
0.033986	0.963157
0.032368	0.952174
0.030202	0.935921
0.028098	0.919729
0.033347	0.96183
0.031936	0.951835
0.029815	0.936291
0.027766	0.91965
0.033404	0.963704
0.032025	0.953365
0.029896	0.939785
0.027843	0.923129
0.033395	0.9645
0.031973	0.956782
0.029852	0.942561
0.027803	0.925029
0.033299	0.969248
0.031932	0.958881
0.029789	0.943117
0.027759	0.925261
0.033348	0.970542
0.032015	0.95837
0.029876	0.942268
0.027815	0.92475
0.033462	0.966718
0.032079	0.956574
0.029938	0.940508
0.027874	0.922724
0.033456	0.964059
0.032042	0.955265
0.029899	0.941814
0.027862	0.924464
0.033395	0.966276
0.032013	0.955642
0.029892	0.939123
0.034028	0.96905
0.032436	0.957237
0.030242	0.943432
0.028127	0.928155
0.033474	0.968283
0.032043	0.960628
0.029918	0.944899
0.02786	0.927659
0.033398	0.9692
0.031983	0.961268
0.029883	0.943715
0.027817	0.926809
0.033338	0.971497
0.031955	0.96114
0.029827	0.94713
0.034112	0.973283
0.032481	0.964216
0.030306	0.950045
0.028232	0.930918
0.03347	0.970274
0.032039	0.96
0.029895	0.946461
0.027835	0.928966
0.033409	0.969622
0.032024	0.959651
0.029902	0.94552
0.027886	0.925723
