Adsorption isotherm of Oxygen on Aluminum formate
DOI: 10.1021/jacs.3c02100
Article source: Figure S9
Adsorbate Oxygen: InChIKey MYMOFIZGZYHOMD-UHFFFAOYSA-N
Kind: experiment
Isotherm type: excess
Temperature: 250 K
Tabular data in the source: 1
pressure (bar)	uptake (mmol/g)
0.020203	0.031801
0.028345	0.048207
0.036824	0.064953
0.047936	0.08637
0.062573	0.113128
0.081633	0.147193
0.107147	0.189576
0.140397	0.243848
0.183159	0.314846
0.240189	0.401351
0.314131	0.503419
0.412617	0.624515
0.519964	0.74289
0.685498	0.902515
0.901708	1.07956
1.17445	1.26598
1.18576	1.27497
0.783108	1.01206
0.567992	0.822898
0.430848	0.67881
0.331633	0.560337
0.261787	0.467516
0.205057	0.385598
0.159891	0.314969
0.123875	0.255641
0.095857	0.208976
0.075001	0.167784
0.057494	0.136329
0.044972	0.109039
0.034321	0.088609
