Adsorption isotherm of Oxygen on Aluminum formate
DOI: 10.1021/jacs.3c02100
Article source: Figure S9
Adsorbate Oxygen: InChIKey MYMOFIZGZYHOMD-UHFFFAOYSA-N
Kind: experiment
Isotherm type: excess
Temperature: 150 K
Tabular data in the source: 1
pressure (bar)	uptake (mmol/g)
0.077176	0.136436
0.125276	0.150716
0.171078	0.180755
0.240309	0.197735
0.340144	0.204917
0.472568	0.229915
0.669344	0.235589
0.947151	0.240228
1.2383	0.247077
1.20831	0.252646
0.74025	0.255528
0.540454	0.258897
0.383143	0.260279
0.274369	0.261106
0.197189	0.261626
0.140792	0.261789
0.100395	0.261846
