Adsorption isotherm of Oxygen on Aluminum formate
DOI: 10.1021/jacs.3c02100
Article source: Figure S9
Adsorbate Oxygen: InChIKey MYMOFIZGZYHOMD-UHFFFAOYSA-N
Kind: experiment
Isotherm type: excess
Temperature: 125 K
Tabular data in the source: 1
pressure (bar)	uptake (mmol/g)
0.107712	0.012153
0.153969	0.014948
0.218496	0.017187
0.310497	0.020082
0.442021	0.023226
0.579675	0.026332
0.808202	0.029755
1.03711	0.032879
1.25643	0.035285
1.22019	0.036106
0.75236	0.032796
0.579783	0.030651
0.453024	0.029178
0.334534	0.027364
0.252608	0.025399
0.182739	0.023489
0.129325	0.021941
