Adsorption isotherm of Oxygen on Aluminum formate
DOI: 10.1021/jacs.3c02100
Article source: Figure 1A
Adsorbate Oxygen: InChIKey MYMOFIZGZYHOMD-UHFFFAOYSA-N
Kind: experiment
Isotherm type: excess
Temperature: 175 K
Tabular data in the source: 1
pressure (bar)	uptake (mmol/g)
0.032406	0.313396
0.054404	0.567482
0.074746	0.759084
0.090641	0.904326
0.115977	0.96521
0.120591	1.14593
0.132849	1.30467
0.151568	1.45603
0.181631	1.60035
0.216698	1.76514
0.260199	1.95877
0.326611	2.12097
0.416861	2.30481
0.520215	2.47998
0.682997	2.65571
0.902742	2.8025
1.20217	2.91597
0.734511	2.9717
0.526263	2.94574
0.399273	2.90568
0.305783	2.86925
0.25	2.81086
0.201921	2.75219
0.167685	2.68116
0.140092	2.62165
0.119048	2.56441
