Adsorption isotherm of Oxygen on Aluminum formate
DOI: 10.1021/jacs.3c02100
Article source: Figure 1A
Adsorbate Oxygen: InChIKey MYMOFIZGZYHOMD-UHFFFAOYSA-N
Kind: experiment
Isotherm type: excess
Temperature: 190 K
Tabular data in the source: 1
pressure (bar)	uptake (mmol/g)
0.015713	0.048818
0.018752	0.098703
0.022614	0.136128
0.022546	0.146451
0.025095	0.177153
0.027226	0.212899
0.028544	0.255367
0.031304	0.29439
0.033378	0.341106
0.036337	0.387881
0.040749	0.432829
0.042961	0.494603
0.047394	0.552046
0.053301	0.611158
0.05958	0.677721
0.068193	0.746656
0.077574	0.827082
0.089369	0.912505
0.098099	1.03333
0.115273	1.13546
0.132237	1.26392
0.148804	1.42508
0.17543	1.56431
0.206159	1.72754
0.239823	1.92798
0.28965	2.12603
0.34619	2.36992
0.43041	2.61083
0.504363	2.8475
0.642926	3.08142
0.840292	3.32383
1.08709	3.61746
1.22803	3.74714
1.20049	3.75235
0.767212	3.63183
0.619358	3.52864
0.502379	3.41154
0.40407	3.26029
0.33013	3.10191
0.278095	2.97009
0.231713	2.85166
0.19799	2.7322
0.165142	2.63614
0.146437	2.53291
0.126204	2.44323
0.112827	2.34764
0.096591	2.27639
0.089396	2.19348
0.075776	2.13005
0.069572	2.06535
0.063297	2.00142
0.056259	1.94431
0.04977	1.89257
0.046023	1.84027
0.042594	1.78888
0.038571	1.74307
0.034385	1.70658
