Adsorption isotherm of Nitrogen on [Cd3Na6(BTC)4(H2O)12]H2O(CEH)
DOI: 10.1039/c5dt00909j
Article source: Figure S2
Adsorbate Nitrogen: InChIKey IJGRMHOSHXDMSA-UHFFFAOYSA-N
Kind: experiment
Temperature: 77 K
Tabular data in the source: 0
pressure (bar)	uptake (cm3(STP)/g)
0	10.0621
0.00012	20.5536
0.000178	30.4022
0.000295	50.5277
0.000355	60.8045
0.000415	71.0813
0.000491	84.1414
0.000513	87.7811
0.00054	92.4913
0.002962	40.6796
0.003252	90.3509
0.003257	91.2073
0.003271	93.5624
0.016903	94.8499
0.022355	95.2793
0.033254	95.2816
0.063227	95.288
0.074126	95.2904
0.093201	95.5086
0.125896	95.0874
0.150421	95.5208
0.215817	95.5348
0.264862	95.3312
0.313908	95.3417
0.387478	95.3575
0.439249	95.3686
0.491019	95.1655
0.540067	95.3901
0.589112	95.1865
0.638159	95.4111
0.68993	95.4222
0.738977	95.4327
0.793473	95.4444
0.798922	95.4456
0.847969	95.4561
0.899741	95.6812
0.93789	95.9035
0.959689	96.1223
0.978767	96.7687
0.98422	97.4121
