Adsorption isotherm of Nitrogen on [Cd3Na6(BTC)4(H2O)12]H2O
DOI: 10.1039/c5dt00909j
Article source: Figure S2
Adsorbate Nitrogen: InChIKey IJGRMHOSHXDMSA-UHFFFAOYSA-N
Kind: experiment
Temperature: 77 K
Tabular data in the source: 0
pressure (bar)	uptake (cm3(STP)/g)
0	10.0621
0	58.4488
0	68.2974
0	86.2818
0	91.4202
0	93.9894
0	96.3445
0.00012	20.5536
0.000178	30.4022
0.000295	50.5277
0.00031	53.0969
0.000325	55.6661
0.000355	60.8045
0.000369	63.1596
0.000384	65.7288
0.000415	71.0813
0.000429	73.4364
0.000443	75.7915
0.000459	78.5748
0.000519	88.8516
0.000579	99.1284
0.000596	102.126
0.000616	105.551
0.000638	109.191
0.000659	112.831
0.002962	40.6796
0.0032	81.3587
0.003401	115.829
0.008857	116.901
0.011588	117.972
0.017043	118.829
0.033398	119.903
0.041572	119.905
0.052472	120.121
0.060647	120.123
0.082445	120.128
0.101518	119.918
0.128766	119.924
0.13694	119.925
0.156015	120.144
0.180539	120.363
0.207787	120.369
0.235035	120.375
0.24321	120.376
0.262283	120.38
0.28953	120.172
0.316778	120.178
0.354925	120.186
0.401248	120.41
0.450294	120.421
0.502063	120.004
0.551109	120.014
0.600156	120.025
0.649202	120.035
0.700973	120.046
0.75002	120.057
0.801791	120.068
0.853563	120.293
0.90261	120.303
0.940756	120.097
0.957105	120.101
0.970729	120.104
0.981629	120.32
0.992532	120.965
0.995263	122.036
0.995267	122.678
0.995272	123.535
