Adsorption isotherm of Carbon Dioxide on [Cd3Na6(BTC)4(H2O)12]H2O
DOI: 10.1039/c5dt00909j
Article source: Figure 4b
Adsorbate Carbon Dioxide: InChIKey CURLTUGMZLYLDI-UHFFFAOYSA-N
Kind: experiment
Temperature: 298 K
Tabular data in the source: 0
pressure (bar)	uptake (mmol/g)
0.010119	0.208092
0.016222	0.381503
0.016303	0.50289
0.022395	0.65896
0.024437	0.728324
0.030517	0.867052
0.03857	0.971098
0.044604	1.04046
0.050639	1.10983
0.060676	1.19653
0.068695	1.24855
0.074694	1.2659
0.086717	1.33526
0.092728	1.36994
0.098739	1.40462
0.104738	1.42197
0.112746	1.45665
0.116749	1.47399
0.122749	1.49133
0.132752	1.52601
0.154743	1.57803
0.190751	1.69942
0.230741	1.80347
0.266715	1.87283
0.302689	1.9422
0.336668	2.01156
0.37263	2.06358
0.408593	2.11561
0.44256	2.16763
0.474531	2.21965
0.498494	2.23699
0.530465	2.28902
0.56442	2.3237
0.598376	2.35838
0.632331	2.39306
0.666286	2.42775
0.698245	2.46243
0.7322	2.49711
0.764148	2.51445
0.798103	2.54913
0.830051	2.56647
0.864006	2.60116
0.899946	2.6185
0.931893	2.63584
0.965849	2.67052
0.999804	2.7052
