Adsorption isotherm of Carbon Dioxide on [Cd3Na6(BTC)4(H2O)12]H2O(CEH)
DOI: 10.1039/c5dt00909j
Article source: Figure 4a
Adsorbate Carbon Dioxide: InChIKey CURLTUGMZLYLDI-UHFFFAOYSA-N
Kind: experiment
Temperature: 273 K
Tabular data in the source: 0
pressure (bar)	uptake (mmol/g)
0.001996	1.99601
0.003992	0.284024
0.005988	0.781065
0.011976	0.923077
0.017964	1.01775
0.025948	1.15976
0.033932	1.23077
0.041916	1.27811
0.051896	1.37278
0.057884	1.42012
0.065868	1.49112
0.077844	1.53846
0.087824	1.60947
0.0998	1.6568
0.107784	1.72781
0.115768	1.75148
0.123752	1.77515
0.131737	1.79882
0.143713	1.86982
0.153693	1.89349
0.163673	1.91716
0.179641	1.9645
0.193613	2.01183
0.213573	2.05917
0.227545	2.08284
0.247505	2.15385
0.261477	2.17751
0.285429	2.24852
0.299401	2.24852
0.325349	2.29586
0.337325	2.3432
0.361277	2.3432
0.391218	2.4142
0.40519	2.4142
0.429142	2.46154
0.461078	2.48521
0.49501	2.53254
0.528942	2.57988
0.560878	2.62722
0.59481	2.65089
0.628743	2.69822
0.662675	2.72189
0.696607	2.76923
0.728543	2.7929
0.762475	2.81657
0.794411	2.86391
0.828343	2.88757
0.862275	2.88757
0.896208	2.93491
0.93014	2.95858
0.962076	3.00592
0.996008	3.02959
