Adsorption isotherm of Carbon Dioxide on [Cd3Na6(BTC)4(H2O)12]H2O
DOI: 10.1039/c5dt00909j
Article source: Figure 4a
Adsorbate Carbon Dioxide: InChIKey CURLTUGMZLYLDI-UHFFFAOYSA-N
Kind: experiment
Temperature: 273 K
Tabular data in the source: 0
pressure (bar)	uptake (mmol/g)
0.007984	0.923077
0.00998	0.899408
0.013972	1.15976
0.017964	1.23077
0.023952	1.34911
0.027944	1.42012
0.031936	1.49112
0.03992	1.56213
0.043912	1.60947
0.053892	1.70414
0.05988	1.77515
0.06986	1.84615
0.073852	1.86982
0.083832	1.94083
0.08982	1.9645
0.0998	2.0355
0.105788	2.08284
0.10978	2.08284
0.117764	2.13018
0.125749	2.15385
0.133733	2.17751
0.141717	2.22485
0.153693	2.29586
0.165669	2.31953
0.177645	2.39053
0.191617	2.43787
0.199601	2.46154
0.213573	2.48521
0.227545	2.53254
0.243513	2.57988
0.259481	2.62722
0.277445	2.67456
0.295409	2.72189
0.317365	2.76923
0.331337	2.7929
0.353293	2.84024
0.365269	2.88757
0.391218	2.91124
0.401198	2.93491
0.427146	2.98225
0.453094	3.02959
0.467066	3.05325
0.493014	3.07692
0.52495	3.12426
0.532934	3.14793
0.562874	3.1716
0.59481	3.21893
0.62475	3.26627
0.660679	3.31361
0.694611	3.36095
0.728543	3.38462
0.762475	3.43195
0.796407	3.47929
0.830339	3.50296
0.862275	3.5503
0.896208	3.57396
0.93014	3.64497
0.96008	3.64497
0.996008	3.69231
