Adsorption isotherm of Nitrogen on [Cd3Na6(BTC)4(H2O)12]H2O
DOI: 10.1039/c5dt00909j
Article source: Figure 7
Adsorbate Nitrogen: InChIKey IJGRMHOSHXDMSA-UHFFFAOYSA-N
Kind: experiment
Temperature: 298 K
Tabular data in the source: 0
pressure (bar)	uptake (mmol/g)
0.014675	0.008264
0.023061	0.016529
0.039832	0.016529
0.054507	0.024793
0.071279	0.033058
0.081761	0.033058
0.08805	0.033058
0.102725	0.033058
0.113208	0.041322
0.12369	0.041322
0.132075	0.049587
0.165618	0.049587
0.201258	0.057851
0.232704	0.066116
0.266247	0.07438
0.29979	0.082645
0.333333	0.090909
0.366876	0.099174
0.400419	0.107438
0.433962	0.115702
0.467505	0.132231
0.498952	0.132231
0.532495	0.140496
0.563941	0.14876
0.599581	0.165289
0.631027	0.165289
0.66457	0.173554
0.698113	0.173554
0.731656	0.190083
0.765199	0.198347
0.798742	0.206612
0.832285	0.206612
0.863732	0.214876
0.897275	0.231405
0.930818	0.231405
0.964361	0.239669
0.997904	0.247934
