Adsorption isotherm of Carbon Dioxide on [Cd3Na6(BTC)4(H2O)12]H2O
DOI: 10.1039/c5dt00909j
Article source: Figure 7
Adsorbate Carbon Dioxide: InChIKey CURLTUGMZLYLDI-UHFFFAOYSA-N
Kind: experiment
Temperature: 298 K
Tabular data in the source: 0
pressure (bar)	uptake (mmol/g)
0.008386	0.132231
0.010482	0.165289
0.012579	0.22314
0.018868	0.454545
0.023061	0.677686
0.025157	0.735537
0.031447	0.859504
0.039832	0.975207
0.044025	1.04132
0.052411	1.09917
0.0587	1.16529
0.067086	1.20661
0.069182	1.2314
0.073375	1.2562
0.085954	1.33058
0.092243	1.36364
0.104822	1.40496
0.111111	1.43802
0.1174	1.45455
0.121593	1.47934
0.127883	1.4876
0.132075	1.52066
0.15304	1.58678
0.190776	1.68595
0.228512	1.78512
0.264151	1.86777
0.29979	1.93388
0.33543	1.99174
0.371069	2.05785
0.406709	2.1157
0.440252	2.15702
0.471698	2.20661
0.494759	2.2314
0.528302	2.27273
0.561845	2.30579
0.595388	2.34711
0.626834	2.38843
0.660377	2.41322
0.69392	2.44628
0.72956	2.47934
0.761006	2.50413
0.794549	2.53719
0.828092	2.56198
0.861635	2.58678
0.895178	2.61157
0.928721	2.64463
0.962264	2.66942
0.997904	2.68595
