Adsorption isotherm of Carbon Dioxide on [Cd3Na6(BTC)4(H2O)12]H2O(CEH)
DOI: 10.1039/c5dt00909j
Article source: Figure 4b
Adsorbate Carbon Dioxide: InChIKey CURLTUGMZLYLDI-UHFFFAOYSA-N
Kind: experiment
Temperature: 298 K
Tabular data in the source: 0
pressure (bar)	uptake (mmol/g)
0.00405	0.086705
0.006057	0.104046
0.008088	0.156069
0.01013	0.225434
0.014203	0.346821
0.016233	0.398844
0.01628	0.468208
0.016314	0.520231
0.020341	0.572254
0.02236	0.606936
0.02439	0.65896
0.028406	0.693642
0.034428	0.745665
0.040428	0.763006
0.04645	0.815029
0.046485	0.867052
0.056511	0.936416
0.062522	0.971098
0.068533	1.00578
0.076552	1.0578
0.080556	1.07514
0.090547	1.09249
0.098554	1.12717
0.104565	1.16185
0.110565	1.17919
0.118561	1.19653
0.122564	1.21387
0.128564	1.23121
0.156554	1.30058
0.190555	1.40462
0.222526	1.45665
0.254508	1.52601
0.288487	1.59538
0.326445	1.6474
0.360412	1.69942
0.394379	1.75145
0.428334	1.78613
0.456313	1.83815
0.492264	1.87283
0.528215	1.90751
0.560174	1.9422
0.59413	1.97688
0.628073	1.99422
0.662029	2.0289
0.693988	2.06358
0.729927	2.08092
0.763883	2.11561
0.795819	2.11561
0.827778	2.15029
0.861733	2.18497
0.895677	2.20231
0.929621	2.21965
0.963564	2.23699
0.997519	2.27168
