Adsorption isotherm of N-Heptane on Zeolite 5A
DOI: 10.1021/Jp064971y
Adsorbate N-Heptane: InChIKey IMNFDUFMRHMDMM-UHFFFAOYSA-N
Temperature: 462 K
Tabular data in the source: 0
pressure (bar)	uptake (molecules/cavity)
0.000298	0.385069
0.000691	0.679679
0.0013898	0.962847
0.00258119	1.23457
0.00539724	1.4634
0.00780454	1.58639
0.0102915	1.69508
0.0132181	1.71796
0.0206857	1.80377
0.0399667	1.90388
0.0548267	1.9239
