Adsorption isotherm of N-Butane on Zeolite 5A
DOI: 10.1021/Jp064971y
Adsorbate N-Butane: InChIKey IJDNQMDRQITEOD-UHFFFAOYSA-N
Temperature: 423 K
Tabular data in the source: 0
pressure (bar)	uptake (molecules/cavity)
0.0301181	1.23949
0.0419266	1.40217
0.070902	1.65357
0.0861322	1.72259
0.101624	1.7916
0.122258	1.90991
0.155924	1.98879
0.198859	2.0578
0.239237	2.20569
0.279533	2.20569
0.346251	2.33386
