Adsorption isotherm of N-decane on Zeolite 5A
DOI: 10.1021/Jp064971y
Adsorbate N-decane: InChIKey DIOQZVSQGTUSAI-UHFFFAOYSA-N
Temperature: 622 K
Tabular data in the source: 0
pressure (bar)	uptake (molecules/cavity)
0.0169641	0.70989
0.0411186	0.808481
0.0958615	0.884538
0.271492	0.971861
0.563195	1.07045
