Adsorption isotherm of N-Hexane on Zeolite 5A
DOI: 10.1021/Jp064971y
Adsorbate N-Hexane: InChIKey VLKZOEOYAKHREP-UHFFFAOYSA-N
Temperature: 423 K
Tabular data in the source: 0
pressure (bar)	uptake (molecules/cavity)
0.0144592	2.76662
0.0277532	2.94968
0.0508698	3.1785
0.0657674	3.19566
0.0914166	3.33296
0.119756	3.31007
0.143062	3.45881
