Adsorption isotherm of N-Butane on Zeolite 5A
DOI: 10.1021/Jp064971y
Adsorbate N-Butane: InChIKey IJDNQMDRQITEOD-UHFFFAOYSA-N
Temperature: 423 K
Tabular data in the source: 0
pressure (bar)	uptake (molecules/cavity)
0.0304126	1.15569
0.0411186	1.37752
0.0534716	1.58949
0.070902	1.78667
0.0852983	1.93456
0.10064	1.98879
0.123454	2.11695
0.137399	2.14653
0.158987	2.25005
0.193139	2.37329
0.234626	2.45217
0.263682	2.50146
0.339579	2.58526
