Adsorption isotherm of N-octadecane on Zeolite 5A
DOI: 10.1021/Jp064971y
Adsorbate N-octadecane: InChIKey RZJRJXONCZWCBN-UHFFFAOYSA-N
Temperature: 622 K
Tabular data in the source: 0
pressure (bar)	uptake (molecules/cavity)
1.52e-05	0.0479026
4.98e-05	0.202832
8.93e-05	0.457762
0.00016	0.626776
0.000244	0.702832
0.000321	0.752128
0.000667	0.809874
0.00149962	0.831001
