Adsorption isotherm of N-Pentane on Zeolite 5A
DOI: 10.1021/Jp064971y
Adsorbate N-Pentane: InChIKey OFBQJSOFQDEBGM-UHFFFAOYSA-N
Temperature: 573 K
Tabular data in the source: 0
pressure (bar)	uptake (molecules/cavity)
0.0260284	0.152158
0.0376713	0.23244
0.0600935	0.325398
0.075899	0.409905
0.103621	0.507088
0.118741	0.570468
0.145658	0.663426
0.232355	0.862018
0.285026	1.0099
0.377937	1.13244
0.454675	1.22117
0.496282	1.2761
0.574261	1.34793
