Adsorption isotherm of N-Dodecane on Zeolite 5A
DOI: 10.1021/Jp064971y
Adsorbate N-Dodecane: InChIKey SNRUBQQJIBEYMU-UHFFFAOYSA-N
Temperature: 612 K
Tabular data in the source: 0
pressure (bar)	uptake (molecules/cavity)
0.000509	0.24259
0.00088	0.474273
0.00161313	0.64446
0.00500771	0.786044
0.0191928	0.84611
0.0721199	0.861842
