Adsorption isotherm of N-Tetradecane on Zeolite 5A
DOI: 10.1021/Jp064971y
Adsorbate N-Tetradecane: InChIKey BGHCVCJVXZWKCC-UHFFFAOYSA-N
Temperature: 621 K
Tabular data in the source: 0
pressure (bar)	uptake (molecules/cavity)
0.00025	0.523959
0.000749	0.838043
0.00114952	0.897198
0.00471187	0.971846
0.010669	0.988748
0.0221322	0.99579
0.0645377	0.998607
