Adsorption isotherm of N-decane on Zeolite 5A
DOI: 10.1021/Jp064971y
Adsorbate N-decane: InChIKey DIOQZVSQGTUSAI-UHFFFAOYSA-N
Temperature: 589 K
Tabular data in the source: 0
pressure (bar)	uptake (molecules/cavity)
0.00706724	0.735242
0.0152424	0.8282
0.0643287	0.946509
0.180423	1.08172
0.416555	1.23383
