Adsorption isotherm of N-Hexane on Zeolite 5A
DOI: 10.1021/Jp064971y
Adsorbate N-Hexane: InChIKey VLKZOEOYAKHREP-UHFFFAOYSA-N
Temperature: 523 K
Tabular data in the source: 0
pressure (bar)	uptake (molecules/cavity)
0.0122642	0.78158
0.0266779	1.31931
0.0466956	1.68543
0.0657674	1.87993
0.0822736	1.98862
0.112123	2.15452
0.143062	2.24033
