Adsorption isotherm of N-Dodecane on Zeolite 5A
DOI: 10.1021/Jp064971y
Adsorbate N-Dodecane: InChIKey SNRUBQQJIBEYMU-UHFFFAOYSA-N
Temperature: 665 K
Tabular data in the source: 0
pressure (bar)	uptake (molecules/cavity)
0.00139554	0.262612
0.00362648	0.467122
0.00961186	0.74457
0.0403971	0.917617
0.100909	0.960522
