Adsorption isotherm of N-Pentane on Zeolite 5A
DOI: 10.1021/Jp064971y
Adsorbate N-Pentane: InChIKey OFBQJSOFQDEBGM-UHFFFAOYSA-N
Temperature: 423 K
Tabular data in the source: 0
pressure (bar)	uptake (molecules/cavity)
0.00883961	1.58033
0.0198215	1.93948
0.0313133	2.11695
0.0391663	2.2099
0.0572401	2.36202
0.0722952	2.45075
0.0852983	2.49723
0.129608	2.62821
0.217057	2.73807
0.311109	2.8099
0.374277	2.82258
0.552342	2.88596
