Adsorption isotherm of Ethane on Zeolite 5A
DOI: 10.1021/Jp064971y
Adsorbate Ethane: InChIKey OTMSDBZUPAUEDD-UHFFFAOYSA-N
Temperature: 345 K
Tabular data in the source: 0
pressure (bar)	uptake (molecules/cavity)
0.031112	0.143753
0.0456168	0.245162
0.059901	0.329669
0.0756559	0.397275
0.0901362	0.45643
0.104638	0.532486
0.122263	0.650796
0.220613	1.13249
0.257773	1.21699
