Adsorption isotherm of N-decane on Zeolite 5A
DOI: 10.1021/Jp064971y
Adsorbate N-decane: InChIKey DIOQZVSQGTUSAI-UHFFFAOYSA-N
Temperature: 589 K
Tabular data in the source: 0
pressure (bar)	uptake (molecules/cavity)
0.0176373	0.915523
0.0751641	1.05919
0.210813	1.15778
0.47734	1.38031
