Adsorption isotherm of N-Pentane on Zeolite 5A
DOI: 10.1021/Jp064971y
Adsorbate N-Pentane: InChIKey OFBQJSOFQDEBGM-UHFFFAOYSA-N
Temperature: 473 K
Tabular data in the source: 0
pressure (bar)	uptake (molecules/cavity)
0.0145548	1.43945
0.0316606	1.71403
0.0502041	1.89137
0.074045	2.00578
0.0976401	2.07443
0.122953	2.19456
0.142123	2.25749
