Adsorption isotherm of N-decane on Zeolite 5A
DOI: 10.1021/Jp064971y
Adsorbate N-decane: InChIKey DIOQZVSQGTUSAI-UHFFFAOYSA-N
Temperature: 677 K
Tabular data in the source: 0
pressure (bar)	uptake (molecules/cavity)
0.0153914	0.447918
0.0236153	0.546509
0.0480446	0.723974
0.121075	0.870453
0.308096	0.95496
0.664492	1.00848
