Adsorption isotherm of N-Butane on Zeolite 5A
DOI: 10.1021/Jp064971y
Adsorbate N-Butane: InChIKey IJDNQMDRQITEOD-UHFFFAOYSA-N
Temperature: 398 K
Tabular data in the source: 0
pressure (bar)	uptake (molecules/cavity)
0.0391663	1.85569
0.0589355	1.96907
0.0695357	2.14653
0.078911	2.14653
0.10669	2.16625
0.12711	2.26484
0.155924	2.40287
0.183968	2.47188
0.239237	2.53597
0.274146	2.53104
0.326617	2.58034
0.38913	2.67893
0.45912	2.74301
