Adsorption isotherm of N-Pentane on Zeolite 5A
DOI: 10.1021/Jp064971y
Adsorbate N-Pentane: InChIKey OFBQJSOFQDEBGM-UHFFFAOYSA-N
Temperature: 523 K
Tabular data in the source: 0
pressure (bar)	uptake (molecules/cavity)
0.0186976	0.367651
0.0415206	0.545116
0.0637059	0.659201
0.0869743	0.735257
0.104634	0.845116
0.121075	0.933849
0.14852	1.0099
0.230105	1.20005
0.293467	1.28878
0.32981	1.31413
0.381632	1.39441
0.43732	1.44934
0.510981	1.51695
0.568701	1.55498
