Adsorption isotherm of N-Octane on Zeolite 5A
DOI: 10.1021/Jp064971y
Adsorbate N-Octane: InChIKey TVMXDCGIABBOFY-UHFFFAOYSA-N
Temperature: 523 K
Tabular data in the source: 0
pressure (bar)	uptake (molecules/cavity)
0.00128988	0.466503
0.00259039	0.696362
0.00396161	0.894672
0.00770202	1.10425
0.00988679	1.262
0.0131096	1.38369
0.0155682	1.38819
0.0181316	1.38819
