Adsorption isotherm of N-Butane on Zeolite 5A
DOI: 10.1021/Jp064971y
Adsorbate N-Butane: InChIKey IJDNQMDRQITEOD-UHFFFAOYSA-N
Temperature: 398 K
Tabular data in the source: 0
pressure (bar)	uptake (molecules/cavity)
0.0384115	2.03315
0.0612743	2.22541
0.0681957	2.31907
0.0796825	2.37822
0.10985	2.53104
0.124661	2.57541
0.152919	2.65428
0.187583	2.74794
0.232355	2.81695
0.263682	2.85146
0.32981	2.94019
0.454675	3.01907
