Adsorption isotherm of N-propane on Zeolite 5A
DOI: 10.1021/Jp064971y
Adsorbate N-propane: InChIKey ATUOYWHBWRKTHZ-UHFFFAOYSA-N
Temperature: 323 K
Tabular data in the source: 0
pressure (bar)	uptake (molecules/cavity)
0.0304126	2.5353
0.0509327	3.00854
0.149972	3.80291
0.206751	3.99727
0.251162	4.10713
0.31415	4.27615
0.441596	4.52967
0.608781	4.77474
0.807229	5.02826
0.999895	5.16347
