Adsorption isotherm of N-Octane on Zeolite 5A
DOI: 10.1021/Jp064971y
Adsorbate N-Octane: InChIKey TVMXDCGIABBOFY-UHFFFAOYSA-N
Temperature: 623 K
Tabular data in the source: 0
pressure (bar)	uptake (molecules/cavity)
0.00139428	0.0315737
0.00218839	0.0450948
0.002791	0.0608695
0.00493909	0.0946723
0.00669948	0.135236
0.00972776	0.180306
0.0120887	0.209602
0.0155682	0.247912
0.0189738	0.274954
