Adsorption isotherm of Methane on Zeolite 5A
DOI: 10.1021/Jp064971y
Adsorbate Methane: InChIKey VNWKTOKETHGBQD-UHFFFAOYSA-N
Temperature: 185 K
Tabular data in the source: 0
pressure (bar)	uptake (molecules/cavity)
0.0824614	5.3273
0.113869	5.94512
0.14625	6.37988
0.171294	6.58582
0.208714	6.92906
0.24285	7.14644
0.269837	7.26085
0.311909	7.46679
0.362923	7.69561
0.445127	7.92444
