Adsorption isotherm of N-Octane on Zeolite 5A
DOI: 10.1021/Jp064971y
Adsorbate N-Octane: InChIKey TVMXDCGIABBOFY-UHFFFAOYSA-N
Temperature: 568 K
Tabular data in the source: 0
pressure (bar)	uptake (molecules/cavity)
0.00130672	0.148757
0.00252405	0.252419
0.00518529	0.430447
0.00885458	0.628757
0.0128988	0.727912
0.0181905	0.842841
