Adsorption isotherm of N-Hexane on Zeolite 5A
DOI: 10.1021/Jp064971y
Adsorbate N-Hexane: InChIKey VLKZOEOYAKHREP-UHFFFAOYSA-N
Temperature: 423 K
Tabular data in the source: 0
pressure (bar)	uptake (molecules/cavity)
0.0143643	2.04583
0.0277532	2.25177
0.0515443	2.46343
0.0653357	2.5378
0.0914166	2.63505
0.121344	2.70941
0.138428	2.77234
