Adsorption isotherm of N-propane on Zeolite 5A
DOI: 10.1021/Jp064971y
Adsorbate N-propane: InChIKey ATUOYWHBWRKTHZ-UHFFFAOYSA-N
Temperature: 323 K
Tabular data in the source: 0
pressure (bar)	uptake (molecules/cavity)
0.0407205	2.87333
0.0612743	3.16911
0.0695357	3.24516
0.101624	3.43108
0.129608	3.56629
0.144248	3.56629
0.178676	3.6677
0.230105	3.78601
0.271492	3.81981
0.311109	3.82826
0.346251	3.89587
0.370654	3.89587
0.47734	3.92967
