Adsorption isotherm of N-Tetradecane on Zeolite 5A
DOI: 10.1021/Jp064971y
Adsorbate N-Tetradecane: InChIKey BGHCVCJVXZWKCC-UHFFFAOYSA-N
Temperature: 667 K
Tabular data in the source: 0
pressure (bar)	uptake (molecules/cavity)
0.000893	0.115508
0.00111646	0.288748
0.00166372	0.508466
0.00310101	0.684522
0.00804615	0.790156
0.0274146	0.842269
0.0602887	0.85917
