Adsorption isotherm of N-octadecane on Zeolite 5A
DOI: 10.1021/Jp064971y
Adsorbate N-octadecane: InChIKey RZJRJXONCZWCBN-UHFFFAOYSA-N
Temperature: 596 K
Tabular data in the source: 0
pressure (bar)	uptake (molecules/cavity)
2.01e-05	0.45917
4.23e-05	0.636635
7.97e-05	0.735227
0.000191	0.79579
0.000836	0.829593
