Adsorption isotherm of N-Dodecane on Zeolite 5A
DOI: 10.1021/Jp064971y
Adsorbate N-Dodecane: InChIKey SNRUBQQJIBEYMU-UHFFFAOYSA-N
Temperature: 612 K
Tabular data in the source: 0
pressure (bar)	uptake (molecules/cavity)
0.000605	0.479993
0.00107234	0.665912
0.00190185	0.781754
0.005904	0.916187
0.0229279	0.973393
0.0867247	0.986264
