Adsorption isotherm of N-Pentane on Zeolite 5A
DOI: 10.1021/Jp064971y
Adsorbate N-Pentane: InChIKey OFBQJSOFQDEBGM-UHFFFAOYSA-N
Temperature: 473 K
Tabular data in the source: 0
pressure (bar)	uptake (molecules/cavity)
0.0118357	0.654975
0.0270613	1.09019
0.0341788	1.29723
0.0489886	1.43244
0.0643287	1.58878
0.0828446	1.71131
0.0967988	1.80427
0.112008	1.88455
0.141468	1.95638
0.221322	2.1085
0.276827	2.20568
0.317222	2.22681
0.420628	2.30709
0.486719	2.3916
0.552342	2.41695
