Adsorption isotherm of N-Hexane on Zeolite 5A
DOI: 10.1021/Jp064971y
Adsorbate N-Hexane: InChIKey VLKZOEOYAKHREP-UHFFFAOYSA-N
Temperature: 523 K
Tabular data in the source: 0
pressure (bar)	uptake (molecules/cavity)
0.0121837	0.850227
0.0265028	1.07333
0.0466956	1.32503
0.0653357	1.45089
0.0828173	1.54814
0.112123	1.67971
0.14119	1.77124
