Adsorption isotherm of N-decane on Zeolite 5A
DOI: 10.1021/Jp064971y
Adsorbate N-decane: InChIKey DIOQZVSQGTUSAI-UHFFFAOYSA-N
Temperature: 668 K
Tabular data in the source: 0
pressure (bar)	uptake (molecules/cavity)
0.0150948	0.267636
0.0233867	0.467636
0.0457633	0.645101
0.118741	0.788763
0.311109	0.881721
0.658058	0.952143
