Adsorption isotherm of N-propane on Zeolite 5A
DOI: 10.1021/Jp064971y
Adsorbate N-propane: InChIKey ATUOYWHBWRKTHZ-UHFFFAOYSA-N
Temperature: 398 K
Tabular data in the source: 0
pressure (bar)	uptake (molecules/cavity)
0.0301181	0.46488
0.0391663	0.659246
0.0524412	0.912768
0.0702155	1.09868
0.078911	1.19164
0.0922026	1.21699
0.10985	1.39446
0.125879	1.50432
0.145658	1.59727
0.176946	1.70713
0.232355	1.81699
0.305113	2.00291
0.374277	2.19727
0.445913	2.30713
