Adsorption isotherm of N-Octane on Zeolite 5A
DOI: 10.1021/Jp064971y
Adsorbate N-Octane: InChIKey TVMXDCGIABBOFY-UHFFFAOYSA-N
Temperature: 668 K
Tabular data in the source: 0
pressure (bar)	uptake (molecules/cavity)
0.00257364	0.00903848
0.0105493	0.0924188
0.018428	0.153264
