Adsorption isotherm of Ethane on Zeolite 5A
DOI: 10.1021/Jp064971y
Adsorbate Ethane: InChIKey OTMSDBZUPAUEDD-UHFFFAOYSA-N
Temperature: 345 K
Tabular data in the source: 0
pressure (bar)	uptake (molecules/cavity)
0.030711	0.186007
0.0459136	0.287415
0.059129	0.363472
0.0756559	0.498683
0.0907227	0.566289
0.105319	0.650796
0.119907	0.726852
0.222049	1.24234
0.251171	1.34375
