Adsorption isotherm of N-Tetradecane on Zeolite 5A
DOI: 10.1021/Jp064971y
Adsorbate N-Tetradecane: InChIKey BGHCVCJVXZWKCC-UHFFFAOYSA-N
Temperature: 667 K
Tabular data in the source: 0
pressure (bar)	uptake (molecules/cavity)
0.000893	0.44086
0.00120683	0.535227
0.0019065	0.646494
0.00341788	0.769029
0.00878246	0.921142
0.0317222	0.978889
0.0677548	0.990156
