Adsorption isotherm of Methane on Zeolite 5A
DOI: 10.1021/Jp064971y
Adsorbate Methane: InChIKey VNWKTOKETHGBQD-UHFFFAOYSA-N
Temperature: 230 K
Tabular data in the source: 0
pressure (bar)	uptake (molecules/cavity)
0.0642037	0.979662
0.0880752	1.31146
0.0953185	1.3229
0.108025	1.50595
0.118459	1.64325
0.143389	2.02081
0.167943	1.98648
0.175867	2.34116
0.201953	2.59286
0.230386	2.67295
0.239672	2.86745
0.293958	3.23357
0.309862	3.24501
0.358174	3.53104
0.433554	3.82851
