Adsorption isotherm of N-Heptane on Zeolite 5A
DOI: 10.1021/Jp064971y
Adsorbate N-Heptane: InChIKey IMNFDUFMRHMDMM-UHFFFAOYSA-N
Temperature: 491 K
Tabular data in the source: 0
pressure (bar)	uptake (molecules/cavity)
0.000298	0.147666
0.00071	0.325003
0.00144582	0.528084
0.00258119	0.762627
0.00518811	1.01433
0.00822677	1.16021
0.0115868	1.26032
0.0139333	1.3404
0.0188636	1.47198
0.0245492	1.5349
0.032372	1.60927
0.0399667	1.6579
0.0548267	1.73798
0.0704179	1.77517
