Adsorption isotherm of N-Octane on Zeolite 5A
DOI: 10.1021/Jp064971y
Adsorbate N-Octane: InChIKey TVMXDCGIABBOFY-UHFFFAOYSA-N
Temperature: 593 K
Tabular data in the source: 0
pressure (bar)	uptake (molecules/cavity)
0.000801	0.0360807
0.00100484	0.0541089
0.00199196	0.0946723
0.00340154	0.146503
0.00400034	0.173546
0.00573371	0.211855
0.00719494	0.250165
0.00932616	0.283968
0.0120887	0.335799
0.0138527	0.358334
