Adsorption isotherm of Methane on Zeolite 5A
DOI: 10.1021/Jp064971y
Adsorbate Methane: InChIKey VNWKTOKETHGBQD-UHFFFAOYSA-N
Temperature: 275 K
Tabular data in the source: 0
pressure (bar)	uptake (molecules/cavity)
0.377552	0.76228
0.734287	1.33434
1.1046	1.80342
1.69481	2.39836
2.17677	2.75304
2.85157	3.22213
3.47451	3.47383
4.06949	3.79418
4.99124	4.01157
5.69396	4.13742
8.73641	4.7438
