Adsorption isotherm of N-Pentane on Zeolite 5A
DOI: 10.1021/Jp064971y
Adsorbate N-Pentane: InChIKey OFBQJSOFQDEBGM-UHFFFAOYSA-N
Temperature: 373 K
Tabular data in the source: 0
pressure (bar)	uptake (molecules/cavity)
0.00964853	2.64089
0.0247925	2.83103
0.0355352	2.88596
0.0514306	2.91131
0.075899	2.93667
0.128353	2.95357
0.202767	2.98737
0.323455	2.98737
0.526115	3.00005
