Adsorption isotherm of N-Dodecane on Zeolite 5A
DOI: 10.1021/Jp064971y
Adsorbate N-Dodecane: InChIKey SNRUBQQJIBEYMU-UHFFFAOYSA-N
Temperature: 665 K
Tabular data in the source: 0
pressure (bar)	uptake (molecules/cavity)
0.0012895	0.24116
0.0033509	0.481424
0.00917879	0.681644
0.0378222	0.810356
0.0944771	0.84754
