Adsorption isotherm of Methane on Zeolite 5A
DOI: 10.1021/Jp064971y
Adsorbate Methane: InChIKey VNWKTOKETHGBQD-UHFFFAOYSA-N
Temperature: 273 K
Tabular data in the source: 0
pressure (bar)	uptake (molecules/cavity)
0.065055	0.190223
0.0846626	0.281752
0.0953185	0.304634
0.116908	0.384722
0.138744	0.487693
0.171294	0.556339
0.201953	0.693633
0.24607	0.819486
0.297856	0.968221
0.358174	1.15128
0.445127	1.41443
