Adsorption isotherm of N-Heptane on Zeolite 5A
DOI: 10.1021/Jp064971y
Adsorbate N-Heptane: InChIKey IMNFDUFMRHMDMM-UHFFFAOYSA-N
Temperature: 462 K
Tabular data in the source: 0
pressure (bar)	uptake (molecules/cavity)
1.95e-05	0.050416
5.97e-05	0.116203
9.97e-05	0.164827
0.000195	0.327864
0.000497	0.631054
0.000682	0.842715
0.000961	1.00289
0.00140823	1.08012
0.00198339	1.30894
0.00388291	1.62929
