Adsorption isotherm of N-Pentane on Zeolite 5A
DOI: 10.1021/Jp064971y
Adsorbate N-Pentane: InChIKey OFBQJSOFQDEBGM-UHFFFAOYSA-N
Temperature: 573 K
Tabular data in the source: 0
pressure (bar)	uptake (molecules/cavity)
0.0262829	0.194412
0.0376713	0.274694
0.118741	0.519764
0.149972	0.604271
0.232355	0.743708
0.282266	0.819764
0.323455	0.908496
0.374277	0.976102
0.450272	1.08174
0.501134	1.12821
0.563195	1.17892
