Adsorption isotherm of Methane on Zeolite 5A
DOI: 10.1021/Jp064971y
Adsorbate Methane: InChIKey VNWKTOKETHGBQD-UHFFFAOYSA-N
Temperature: 273 K
Tabular data in the source: 0
pressure (bar)	uptake (molecules/cavity)
0.065055	0.350399
0.0846626	0.396163
0.0959483	0.46481
0.117681	0.579222
0.13966	0.636427
0.17017	0.647869
0.200627	0.842368
0.25098	0.979662
0.295901	1.07119
0.360541	1.25425
0.448068	1.48307
