Adsorption isotherm of N-Hexane on Zeolite 5A
DOI: 10.1021/Jp064971y
Adsorbate N-Hexane: InChIKey VLKZOEOYAKHREP-UHFFFAOYSA-N
Temperature: 373 K
Tabular data in the source: 0
pressure (bar)	uptake (molecules/cavity)
0.0141763	3.73912
0.0290627	3.85925
0.0539762	3.91645
0.0755226	3.91073
0.100246	3.94506
0.128754	3.95078
0.176626	3.93934
