Adsorption isotherm of N-propane on Zeolite 5A
DOI: 10.1021/Jp064971y
Adsorbate N-propane: InChIKey ATUOYWHBWRKTHZ-UHFFFAOYSA-N
Temperature: 273 K
Tabular data in the source: 0
pressure (bar)	uptake (molecules/cavity)
0.0539944	4.17474
0.0688624	4.24234
0.103621	4.36911
0.123454	4.38601
0.144248	4.39446
0.165297	4.47896
0.221322	4.59727
0.243937	4.59727
0.302159	4.68178
0.356506	4.71558
0.463609	4.76629
