Adsorption isotherm of N-Hexane on Zeolite 5A
DOI: 10.1021/Jp064971y
Adsorbate N-Hexane: InChIKey VLKZOEOYAKHREP-UHFFFAOYSA-N
Temperature: 573 K
Tabular data in the source: 0
pressure (bar)	uptake (molecules/cavity)
0.00826077	0.312493
0.0227774	0.604242
0.0619824	0.924594
0.0790859	1.0104
0.103603	1.14198
0.139342	1.22778
