Adsorption isotherm of N-Octane on Zeolite 5A
DOI: 10.1021/Jp064971y
Adsorbate N-Octane: InChIKey TVMXDCGIABBOFY-UHFFFAOYSA-N
Temperature: 568 K
Tabular data in the source: 0
pressure (bar)	uptake (molecules/cavity)
0.00131522	0.178053
0.00249961	0.301996
0.00515177	0.439461
0.0089122	0.612982
0.0127739	0.712137
0.0181905	0.79101
