Adsorption isotherm of N-propane on Zeolite 5A
DOI: 10.1021/Jp064971y
Adsorbate N-propane: InChIKey ATUOYWHBWRKTHZ-UHFFFAOYSA-N
Temperature: 358 K
Tabular data in the source: 0
pressure (bar)	uptake (molecules/cavity)
0.0252797	1.09868
0.0358826	1.41136
0.0457633	1.60573
0.0600935	1.81699
0.0781469	2.08742
0.0895503	2.20573
0.110924	2.40009
0.144248	2.50995
0.168545	2.60291
0.196934	2.70432
0.234626	2.82263
0.333035	3.00009
0.412522	3.1184
0.482006	3.12685
