Adsorption isotherm of N-Butane on Zeolite 5A
DOI: 10.1021/Jp064971y
Adsorbate N-Butane: InChIKey IJDNQMDRQITEOD-UHFFFAOYSA-N
Temperature: 498 K
Tabular data in the source: 0
pressure (bar)	uptake (molecules/cavity)
0.0399358	0.293011
0.0509327	0.386673
0.0630891	0.450758
0.0744364	0.504983
0.0958615	0.603575
0.108786	0.697236
0.134751	0.77118
0.162111	0.899349
0.202767	1.03738
0.232355	1.1409
0.285026	1.23949
