Adsorption isotherm of N-Tetradecane on Zeolite 5A
DOI: 10.1021/Jp064971y
Adsorbate N-Tetradecane: InChIKey BGHCVCJVXZWKCC-UHFFFAOYSA-N
Temperature: 622 K
Tabular data in the source: 0
pressure (bar)	uptake (molecules/cavity)
0.000229	0.409874
0.000647	0.607058
0.00091	0.752128
0.0038787	0.823959
0.00836545	0.842269
0.0175233	0.847903
0.0521022	0.864804
