Adsorption isotherm of N-propane on Zeolite 5A
DOI: 10.1021/Jp064971y
Adsorbate N-propane: InChIKey ATUOYWHBWRKTHZ-UHFFFAOYSA-N
Temperature: 323 K
Tabular data in the source: 0
pressure (bar)	uptake (molecules/cavity)
0.0231602	2.92404
0.0577998	3.44798
0.107733	3.93812
0.162111	4.15784
0.243937	4.36911
0.342898	4.64798
0.531259	4.9184
0.620743	5.06206
0.761455	5.22263
0.898412	5.38319
1.02951	5.5184
