Adsorption isotherm of N-Pentane on Zeolite 5A
DOI: 10.1021/Jp064971y
Adsorbate N-Pentane: InChIKey OFBQJSOFQDEBGM-UHFFFAOYSA-N
Temperature: 423 K
Tabular data in the source: 0
pressure (bar)	uptake (molecules/cavity)
0.00883961	1.31836
0.020211	1.50427
0.0313133	1.58878
0.0384115	1.66483
0.0572401	1.78314
0.0737157	1.84652
0.0869743	1.88878
0.125879	1.99864
0.212874	2.12962
0.367065	2.26906
0.468141	2.35357
0.563195	2.38314
