Adsorption isotherm of N-Heptane on Zeolite 5A
DOI: 10.1021/Jp064971y
Adsorbate N-Heptane: InChIKey IMNFDUFMRHMDMM-UHFFFAOYSA-N
Temperature: 439 K
Tabular data in the source: 0
pressure (bar)	uptake (molecules/cavity)
0.000101	0.447996
0.000682	1.12874
0.00137161	1.42621
0.00261541	1.60355
0.00532661	1.77803
0.00867185	1.83809
0.0105662	1.8667
0.0133934	1.881
0.0209599	1.92676
