Adsorption isotherm of N-octadecane on Zeolite 5A
DOI: 10.1021/Jp064971y
Adsorbate N-octadecane: InChIKey RZJRJXONCZWCBN-UHFFFAOYSA-N
Temperature: 621 K
Tabular data in the source: 0
pressure (bar)	uptake (molecules/cavity)
1.43e-05	0.145086
7.23e-05	0.712691
0.000132	0.84086
0.000232	0.909874
0.000316	0.921142
0.00043	0.942269
0.000864	0.969029
0.00217747	0.984522
