Adsorption isotherm of N-propane on Zeolite 5A
DOI: 10.1021/Jp064971y
Adsorbate N-propane: InChIKey ATUOYWHBWRKTHZ-UHFFFAOYSA-N
Temperature: 423 K
Tabular data in the source: 0
pressure (bar)	uptake (molecules/cavity)
0.0304126	0.287415
0.0577998	0.532486
0.102618	0.81981
0.147082	1.09868
0.208772	1.32685
0.296337	1.60573
0.381632	1.84234
0.472718	2.03671
0.557742	2.23108
0.761455	2.5184
0.889713	2.80573
0.980626	2.97474
