Adsorption isotherm of N-octadecane on Zeolite 5A
DOI: 10.1021/Jp064971y
Adsorbate N-octadecane: InChIKey RZJRJXONCZWCBN-UHFFFAOYSA-N
Temperature: 659 K
Tabular data in the source: 0
pressure (bar)	uptake (molecules/cavity)
0.0001	0.2141
0.000296	0.373255
0.0007	0.690156
0.00131717	0.846494
0.00232338	0.912691
