Adsorption isotherm of N-octadecane on Zeolite 5A
DOI: 10.1021/Jp064971y
Adsorbate N-octadecane: InChIKey RZJRJXONCZWCBN-UHFFFAOYSA-N
Temperature: 596 K
Tabular data in the source: 0
pressure (bar)	uptake (molecules/cavity)
3.32e-05	0.828184
6.45e-05	0.898607
0.000134	0.943677
0.000316	0.980297
0.00129598	0.992973
0.00170733	0.992973
0.00236136	0.99579
0.00337359	0.997198
