Adsorption isotherm of N-Heptane on Zeolite 5A
DOI: 10.1021/Jp064971y
Adsorbate N-Heptane: InChIKey IMNFDUFMRHMDMM-UHFFFAOYSA-N
Temperature: 439 K
Tabular data in the source: 0
pressure (bar)	uptake (molecules/cavity)
0.000101	0.427974
0.000583	1.27748
0.0012508	1.64932
0.00261541	1.78089
0.00532661	1.90102
0.00833586	1.92962
0.0101568	1.94679
0.0123756	1.95537
0.0198842	1.97825
