Adsorption isotherm of N-Octane on Zeolite 5A
DOI: 10.1021/Jp064971y
Adsorbate N-Octane: InChIKey TVMXDCGIABBOFY-UHFFFAOYSA-N
Temperature: 617 K
Tabular data in the source: 0
pressure (bar)	uptake (molecules/cavity)
0.00249152	0.0991793
0.00515177	0.187067
0.0116273	0.30425
0.0178979	0.42594
