Adsorption isotherm of Ethane on Zeolite 5A
DOI: 10.1021/Jp064971y
Adsorbate Ethane: InChIKey OTMSDBZUPAUEDD-UHFFFAOYSA-N
Temperature: 324 K
Tabular data in the source: 0
pressure (bar)	uptake (molecules/cavity)
0.0345142	0.304317
0.0626834	0.625444
0.0807257	0.760655
0.0931073	0.870514
0.105319	0.980373
0.117596	1.06488
0.133884	1.25925
0.170198	1.41136
0.191276	1.59727
0.202774	1.70713
0.232363	1.8677
0.251171	1.96065
