Adsorption isotherm of Ethane on Zeolite 5A
DOI: 10.1021/Jp064971y
Adsorbate Ethane: InChIKey OTMSDBZUPAUEDD-UHFFFAOYSA-N
Temperature: 230 K
Tabular data in the source: 0
pressure (bar)	uptake (molecules/cavity)
0.0435919	5.10432
0.0595138	5.31558
0.0756559	5.41699
0.0925053	5.54375
0.105319	5.61136
0.123859	5.66206
0.144721	5.75502
0.178104	5.69587
0.202774	5.78882
0.229368	5.79727
0.254451	5.83108
0.305124	5.87333
0.363524	5.89023
0.435919	5.94094
