Adsorption isotherm of N-propane on Zeolite 5A
DOI: 10.1021/Jp064971y
Adsorbate N-propane: InChIKey ATUOYWHBWRKTHZ-UHFFFAOYSA-N
Temperature: 423 K
Tabular data in the source: 0
pressure (bar)	uptake (molecules/cavity)
0.0233867	0.532486
0.113103	1.27615
0.178676	1.56347
0.258601	1.85925
0.381632	2.19727
0.501134	2.58601
0.614733	2.85643
0.7689	3.1184
0.855753	3.22826
0.916065	3.33812
1.01954	3.51558
