Adsorption isotherm of N-Hexane on Zeolite 5A
DOI: 10.1021/Jp064971y
Adsorbate N-Hexane: InChIKey VLKZOEOYAKHREP-UHFFFAOYSA-N
Temperature: 373 K
Tabular data in the source: 0
pressure (bar)	uptake (molecules/cavity)
0.0292547	2.89247
0.0536219	3.05265
0.073559	3.12129
0.0976401	3.17278
0.127069	3.23571
0.169782	3.31007
