Adsorption isotherm of N-Octane on Zeolite 5A
DOI: 10.1021/Jp064971y
Adsorbate N-Octane: InChIKey TVMXDCGIABBOFY-UHFFFAOYSA-N
Temperature: 668 K
Tabular data in the source: 0
pressure (bar)	uptake (molecules/cavity)
0.00264129	0.0450948
0.010346	0.1127
0.0181905	0.184813
