Adsorption isotherm of N-Pentane on Zeolite 5A
DOI: 10.1021/Jp064971y
Adsorbate N-Pentane: InChIKey OFBQJSOFQDEBGM-UHFFFAOYSA-N
Temperature: 373 K
Tabular data in the source: 0
pressure (bar)	uptake (molecules/cavity)
0.00964853	1.93948
0.0240793	2.16343
0.0358826	2.27329
0.0509327	2.35357
0.0751641	2.46343
0.12711	2.59864
0.200803	2.68737
0.339579	2.85216
0.531259	2.93667
