Adsorption isotherm of N-Hexane on Zeolite 5A
DOI: 10.1021/Jp064971y
Adsorbate N-Hexane: InChIKey VLKZOEOYAKHREP-UHFFFAOYSA-N
Temperature: 573 K
Tabular data in the source: 0
pressure (bar)	uptake (molecules/cavity)
0.00837031	0.18092
0.0226279	0.48411
0.0448863	0.787301
0.0619824	0.947477
0.0790859	1.11337
0.103603	1.27355
