Adsorption isotherm of Methane on Zeolite 5A
DOI: 10.1021/Jp064971y
Adsorbate Methane: InChIKey VNWKTOKETHGBQD-UHFFFAOYSA-N
Temperature: 185 K
Tabular data in the source: 0
pressure (bar)	uptake (molecules/cavity)
0.0813823	5.35018
0.115379	5.89935
0.148189	6.21971
0.172426	6.44853
0.210093	6.6087
0.236536	6.91762
0.269837	6.86041
0.307828	7.08923
0.365322	7.22653
0.445127	7.39814
