Adsorption isotherm of N-propane on Zeolite 5A
DOI: 10.1021/Jp064971y
Adsorbate N-propane: InChIKey ATUOYWHBWRKTHZ-UHFFFAOYSA-N
Temperature: 273 K
Tabular data in the source: 0
pressure (bar)	uptake (molecules/cavity)
0.0545223	3.99727
0.0695357	4.09868
0.102618	4.20009
0.124661	4.38601
0.142851	4.41981
0.162111	4.50432
0.217057	4.59727
0.24873	4.61418
0.305113	4.69023
0.370654	4.70713
0.45912	4.80009
