Adsorption isotherm of N-Butane on Zeolite 5A
DOI: 10.1021/Jp064971y
Adsorbate N-Butane: InChIKey IJDNQMDRQITEOD-UHFFFAOYSA-N
Temperature: 323 K
Tabular data in the source: 0
pressure (bar)	uptake (molecules/cavity)
0.0298265	3.38879
0.0373066	3.40357
0.0471187	3.47259
0.075899	3.64019
0.0913099	3.69442
0.110924	3.69935
0.152919	3.77822
0.173537	3.81273
0.223486	3.80287
0.317222	3.8571
0.359992	3.88174
0.43732	3.8916
