Adsorption isotherm of N-Octane on Zeolite 5A
DOI: 10.1021/Jp064971y
Adsorbate N-Octane: InChIKey TVMXDCGIABBOFY-UHFFFAOYSA-N
Temperature: 617 K
Tabular data in the source: 0
pressure (bar)	uptake (molecules/cavity)
0.00246739	0.0811512
0.00518529	0.139743
0.0118173	0.292982
0.0180143	0.423686
