Adsorption isotherm of N-Dodecane on Zeolite 5A
DOI: 10.1021/Jp064971y
Adsorbate N-Dodecane: InChIKey SNRUBQQJIBEYMU-UHFFFAOYSA-N
Temperature: 590 K
Tabular data in the source: 0
pressure (bar)	uptake (molecules/cavity)
0.000685	0.338409
0.000803	0.419927
0.000971	0.520037
0.00153034	0.725978
0.0151414	0.851831
