Adsorption isotherm of N-Butane on Zeolite 5A
DOI: 10.1021/Jp064971y
Adsorbate N-Butane: InChIKey IJDNQMDRQITEOD-UHFFFAOYSA-N
Temperature: 498 K
Tabular data in the source: 0
pressure (bar)	uptake (molecules/cavity)
0.0407205	0.411321
0.0519335	0.495124
0.060681	0.554279
0.0744364	0.618363
0.0922026	0.77118
0.112008	0.751462
0.132154	0.923997
0.168545	0.993011
0.191269	1.10639
0.230105	1.13597
0.285026	1.27893
