Adsorption isotherm of N-propane on Zeolite 5A
DOI: 10.1021/Jp064971y
Adsorbate N-propane: InChIKey ATUOYWHBWRKTHZ-UHFFFAOYSA-N
Temperature: 358 K
Tabular data in the source: 0
pressure (bar)	uptake (molecules/cavity)
0.0252797	1.03108
0.0358826	1.30995
0.0466625	1.55502
0.0612743	1.89305
0.0796825	2.16347
0.112008	2.42544
0.137399	2.60291
0.171856	2.78882
0.234626	3.01699
0.282266	3.1353
0.339579	3.25361
0.408528	3.32122
0.482006	3.45643
