Adsorption isotherm of N-Hexane on Zeolite 5A
DOI: 10.1021/Jp064971y
Adsorbate N-Hexane: InChIKey VLKZOEOYAKHREP-UHFFFAOYSA-N
Temperature: 473 K
Tabular data in the source: 0
pressure (bar)	uptake (molecules/cavity)
0.0143643	1.99434
0.0316606	2.38334
0.0495471	2.46915
0.0730761	2.58356
0.0989347	2.64077
0.127069	2.70941
0.140263	2.74374
