Adsorption isotherm of N-octadecane on Zeolite 5A
DOI: 10.1021/Jp064971y
Adsorbate N-octadecane: InChIKey RZJRJXONCZWCBN-UHFFFAOYSA-N
Temperature: 659 K
Tabular data in the source: 0
pressure (bar)	uptake (molecules/cavity)
8.23e-05	0.147903
0.000198	0.32255
0.00039	0.511283
0.000759	0.671846
0.00149962	0.746494
