Adsorption isotherm of N-propane on Zeolite 5A
DOI: 10.1021/Jp064971y
Adsorbate N-propane: InChIKey ATUOYWHBWRKTHZ-UHFFFAOYSA-N
Temperature: 398 K
Tabular data in the source: 0
pressure (bar)	uptake (molecules/cavity)
0.0292517	0.380373
0.0395492	0.515584
0.0529539	0.659246
0.0715952	0.81981
0.0949334	1.03108
0.125879	1.32685
0.176946	1.58037
0.210813	1.78319
0.256097	1.94375
0.302159	2.13812
0.339579	2.22263
0.363511	2.31558
0.433086	2.40009
0.445913	2.45925
