Adsorption isotherm of Ethane on Zeolite 5A
DOI: 10.1021/Jp064971y
Adsorbate Ethane: InChIKey OTMSDBZUPAUEDD-UHFFFAOYSA-N
Temperature: 324 K
Tabular data in the source: 0
pressure (bar)	uptake (molecules/cavity)
0.0345142	0.422627
0.0635019	0.726852
0.081251	0.895866
0.0913131	0.988824
0.104638	1.13249
0.116836	1.25925
0.133884	1.3522
0.172421	1.57192
0.191276	1.82544
0.220613	1.97756
0.252805	2.20573
