Adsorption isotherm of Ethane on Zeolite 5A
DOI: 10.1021/Jp064971y
Adsorbate Ethane: InChIKey OTMSDBZUPAUEDD-UHFFFAOYSA-N
Temperature: 230 K
Tabular data in the source: 0
pressure (bar)	uptake (molecules/cavity)
0.0441611	4.89305
0.0587467	5.06206
0.074198	5.20573
0.0919073	5.29023
0.104638	5.34094
0.123859	5.42544
0.142856	5.47615
0.173543	5.56911
0.201463	5.67896
0.229368	5.72122
0.252805	5.68742
0.453218	5.94094
