Adsorption isotherm of N-Pentane on Zeolite 5A
DOI: 10.1021/Jp064971y
Adsorbate N-Pentane: InChIKey OFBQJSOFQDEBGM-UHFFFAOYSA-N
Temperature: 523 K
Tabular data in the source: 0
pressure (bar)	uptake (molecules/cavity)
0.0185165	0.321173
0.0304126	0.46906
0.0423365	0.58737
0.0637059	0.794412
0.0861322	0.988778
0.118741	1.12821
0.151438	1.28878
0.230105	1.52117
0.290626	1.57188
0.323455	1.65216
0.385363	1.70709
0.468141	1.80427
0.574261	1.86765
