Adsorption isotherm of N-Butane on Zeolite 5A
DOI: 10.1021/Jp064971y
Adsorbate N-Butane: InChIKey IJDNQMDRQITEOD-UHFFFAOYSA-N
Temperature: 358 K
Tabular data in the source: 0
pressure (bar)	uptake (molecules/cavity)
0.00964853	1.42188
0.0331956	2.01836
0.0861322	2.29442
0.133446	2.42752
0.180423	2.50146
0.23692	2.55569
0.31415	2.65921
