Adsorption isotherm of N-octadecane on Zeolite 5A
DOI: 10.1021/Jp064971y
Adsorbate N-octadecane: InChIKey RZJRJXONCZWCBN-UHFFFAOYSA-N
Temperature: 671 K
Tabular data in the source: 0
pressure (bar)	uptake (molecules/cavity)
3.78e-05	0.0479026
9.84e-05	0.107057
0.000179	0.211283
0.000306	0.350719
0.000549	0.484522
0.000667	0.528184
0.000922	0.590156
0.00154905	0.673255
0.00239997	0.725367
