Adsorption isotherm of N-propane on Zeolite 5A
DOI: 10.1021/Jp064971y
Adsorbate N-propane: InChIKey ATUOYWHBWRKTHZ-UHFFFAOYSA-N
Temperature: 323 K
Tabular data in the source: 0
pressure (bar)	uptake (molecules/cavity)
0.0415206	2.40854
0.0595117	2.59446
0.0681957	2.81418
0.101624	3.00009
0.12711	2.98319
0.147082	3.09305
0.182187	3.19446
0.204749	3.32122
0.239237	3.28742
0.268863	3.39727
0.308096	3.39727
0.381632	3.41418
0.45912	3.51558
