Adsorption isotherm of N-decane on Zeolite 5A
DOI: 10.1021/Jp064971y
Adsorbate N-decane: InChIKey DIOQZVSQGTUSAI-UHFFFAOYSA-N
Temperature: 622 K
Tabular data in the source: 0
pressure (bar)	uptake (molecules/cavity)
0.0185165	0.785946
0.0444469	0.907073
0.105657	0.977495
0.293467	1.05355
0.620743	1.14651
