Adsorption isotherm of N-Heptane on Zeolite 5A
DOI: 10.1021/Jp064971y
Adsorbate N-Heptane: InChIKey IMNFDUFMRHMDMM-UHFFFAOYSA-N
Temperature: 491 K
Tabular data in the source: 0
pressure (bar)	uptake (molecules/cavity)
1.95e-05	0.0160926
5.81e-05	0.0418351
9.71e-05	0.0732983
0.000195	0.113342
0.000497	0.276379
0.00081	0.376489
0.000987	0.479459
0.00123443	0.562407
0.00198339	0.673958
0.00241666	0.839855
0.0034037	0.937105
0.00525691	1.20311
0.00657627	1.34613
