Adsorption isotherm of N-Octane on Zeolite 5A
DOI: 10.1021/Jp064971y
Adsorbate N-Octane: InChIKey TVMXDCGIABBOFY-UHFFFAOYSA-N
Temperature: 523 K
Tabular data in the source: 0
pressure (bar)	uptake (molecules/cavity)
0.00129827	0.498053
0.00262421	0.689602
0.00397448	0.79101
0.00772704	0.98256
0.010346	1.10425
0.0130249	1.11777
0.0157204	1.20115
0.017956	1.22143
