Adsorption isotherm of N-Butane on Zeolite 5A
DOI: 10.1021/Jp064971y
Adsorbate N-Butane: InChIKey IJDNQMDRQITEOD-UHFFFAOYSA-N
Temperature: 323 K
Tabular data in the source: 0
pressure (bar)	uptake (molecules/cavity)
0.0304126	2.93526
0.0369454	3.01414
0.0457633	3.06343
0.0744364	3.16695
0.0904258	3.25076
0.113103	3.23104
0.152919	3.30498
0.176946	3.33949
0.210813	3.35428
0.308096	3.44794
0.367065	3.42822
0.433086	3.53667
