Adsorption isotherm of N-Pentane on Zeolite 5A
DOI: 10.1021/Jp064971y
Adsorbate N-Pentane: InChIKey OFBQJSOFQDEBGM-UHFFFAOYSA-N
Temperature: 473 K
Tabular data in the source: 0
pressure (bar)	uptake (molecules/cavity)
0.0116076	0.600046
0.0267993	0.88737
0.034513	0.984553
0.0499512	1.12399
0.0643287	1.23385
0.0828446	1.31413
0.110924	1.44512
0.140098	1.56765
0.217057	1.69864
0.274146	1.74512
0.367065	1.83385
0.482006	1.91413
0.557742	1.99864
