Adsorption isotherm of N-Tetradecane on Zeolite 5A
DOI: 10.1021/Jp064971y
Adsorbate N-Tetradecane: InChIKey BGHCVCJVXZWKCC-UHFFFAOYSA-N
Temperature: 590 K
Tabular data in the source: 0
pressure (bar)	uptake (molecules/cavity)
0.000181	0.338043
0.000192	0.657762
0.000402	0.757762
0.000617	0.804241
0.00186976	0.84086
0.00462108	0.852128
0.0151438	0.863396
