Adsorption isotherm of Methane on Zeolite 5A
DOI: 10.1021/Jp064971y
Adsorbate Methane: InChIKey VNWKTOKETHGBQD-UHFFFAOYSA-N
Temperature: 230 K
Tabular data in the source: 0
pressure (bar)	uptake (molecules/cavity)
0.065055	1.04831
0.0880752	1.25425
0.0953185	1.47163
0.108738	1.62037
0.173565	2.1581
0.228873	2.7988
0.3038	3.21069
0.309862	3.3823
0.370165	3.54248
0.42788	3.9658
