Adsorption isotherm of N-Tetradecane on Zeolite 5A
DOI: 10.1021/Jp064971y
Adsorbate N-Tetradecane: InChIKey BGHCVCJVXZWKCC-UHFFFAOYSA-N
Temperature: 591 K
Tabular data in the source: 0
pressure (bar)	uptake (molecules/cavity)
0.00024	0.866212
0.000265	0.87748
0.000565	0.947903
0.000818	0.960579
0.00247925	0.984522
0.00649576	0.997198
0.0208772	0.997198
