Adsorption isotherm of Carbon Dioxide on ZIF-79
DOI: 10.1080/08927022.2011.583648
Adsorbate Carbon Dioxide: InChIKey CURLTUGMZLYLDI-UHFFFAOYSA-N
Temperature: 298 K
Tabular data in the source: 0
pressure (bar)	uptake (mmol/g)
0.0313725	0.132171
0.141176	0.48366
0.196078	0.659405
0.27451	0.878722
0.337255	0.987509
0.482353	1.29325
0.603922	1.48874
0.717647	1.68453
0.890196	1.94481
0.94902	2.05374
1.10196	2.20363
