Adsorption isotherm of Methane on ZIF-78
DOI: 10.1080/08927022.2011.583648
Adsorbate Methane: InChIKey VNWKTOKETHGBQD-UHFFFAOYSA-N
Temperature: 298 K
Tabular data in the source: 0
pressure (bar)	uptake (mmol/g)
0.549932	0.235294
2.48044	0.894118
7.31984	2.16471
9.96279	2.4
15.1075	2.91765
19.9149	3.10588
25.0014	3.29412
27.3021	3.34118
29.6741	3.34118
