Adsorption isotherm of Methane on ZIF-78
DOI: 10.1080/08927022.2011.583648
Adsorbate Methane: InChIKey VNWKTOKETHGBQD-UHFFFAOYSA-N
Temperature: 298 K
Tabular data in the source: 0
pressure (bar)	uptake (mmol/g)
0.0393943	0.0254519
0.13002	0.0936399
0.279643	0.151762
0.330823	0.168184
0.48048	0.243849
0.602528	0.285032
0.724611	0.343759
0.893904	0.401449
0.960821	0.417526
1.09471	0.475993
