Adsorption isotherm of Methane on ZIF-79
DOI: 10.1080/08927022.2011.583648
Adsorbate Methane: InChIKey VNWKTOKETHGBQD-UHFFFAOYSA-N
Temperature: 298 K
Tabular data in the source: 0
pressure (bar)	uptake (mmol/g)
0.731668	0.976744
2.50094	2.13953
4.97275	3.11628
7.31992	3.67442
10.0248	3.95349
15.0219	4.37209
19.7518	4.46512
24.6193	4.60465
29.6989	4.65116
