Adsorption isotherm of Carbon Dioxide on ZIF-79
DOI: 10.1080/08927022.2011.583648
Adsorbate Carbon Dioxide: InChIKey CURLTUGMZLYLDI-UHFFFAOYSA-N
Temperature: 298 K
Tabular data in the source: 0
pressure (bar)	uptake (mmol/g)
-0.00730158	0.625015
0.383333	3.1867
0.862317	4.1857
2.38981	5.43252
7.4958	6.35938
12.5368	6.84888
17.5851	6.71336
22.4188	6.95329
27.3262	6.88057
29.9204	6.81267
