Adsorption isotherm of Nitrogen on ZIF-78
DOI: 10.1080/08927022.2011.583648
Adsorbate Nitrogen: InChIKey IJGRMHOSHXDMSA-UHFFFAOYSA-N
Temperature: 298 K
Tabular data in the source: 0
pressure (bar)	uptake (mmol/g)
0.90462	0.141134
2.44014	0.281066
5.08924	0.590306
10.1217	0.895006
14.8765	1.14309
19.9858	1.30479
25.0249	1.46662
27.4784	1.46195
29.8591	1.51455
