Adsorption isotherm of Methane on ZIF-79
DOI: 10.1080/08927022.2011.583648
Adsorbate Methane: InChIKey VNWKTOKETHGBQD-UHFFFAOYSA-N
Temperature: 298 K
Tabular data in the source: 0
pressure (bar)	uptake (mmol/g)
0.403065	0.418605
1.11693	1.90698
2.39735	3.11628
5.0116	4
9.93093	4.65116
14.9992	5.02326
20.0739	5.2093
24.9447	5.25581
29.6779	5.25581
