Adsorption isotherm of Methane on ZIF-78
DOI: 10.1080/08927022.2011.583648
Adsorbate Methane: InChIKey VNWKTOKETHGBQD-UHFFFAOYSA-N
Temperature: 298 K
Tabular data in the source: 0
pressure (bar)	uptake (mmol/g)
0.259371	0.564706
2.42298	2.54118
7.47004	3.85882
10.0449	4.04706
14.9852	4.42353
19.7228	4.61176
24.8109	4.75294
27.1166	4.65882
29.693	4.8
