Adsorption isotherm of Carbon Dioxide on ZIF-79
DOI: 10.1080/08927022.2011.583648
Adsorbate Carbon Dioxide: InChIKey CURLTUGMZLYLDI-UHFFFAOYSA-N
Temperature: 298 K
Tabular data in the source: 0
pressure (bar)	uptake (mmol/g)
0.338063	1.0618
1.2347	2.30993
2.48181	3.55733
4.92346	4.55224
7.57904	5.23421
12.6208	5.66121
17.3172	5.65142
22.2216	5.8287
27.2692	5.75569
29.8627	5.75029
