Adsorption isotherm of Methane on ZIF-79
DOI: 10.1080/08927022.2011.583648
Adsorbate Methane: InChIKey VNWKTOKETHGBQD-UHFFFAOYSA-N
Temperature: 298 K
Tabular data in the source: 0
pressure (bar)	uptake (mmol/g)
0.0588235	0.0553097
0.203922	0.154867
0.282353	0.199115
0.333333	0.243363
0.478431	0.309735
0.592157	0.387168
0.713725	0.45354
0.886275	0.553097
0.941176	0.586283
1.09412	0.652655
