Adsorption isotherm of Carbon Dioxide on ZIF-79
DOI: 10.1080/08927022.2011.583648
Adsorbate Carbon Dioxide: InChIKey CURLTUGMZLYLDI-UHFFFAOYSA-N
Temperature: 298 K
Tabular data in the source: 0
pressure (bar)	uptake (mmol/g)
0.0117647	0.244009
0.0705882	0.886275
0.12549	1.35091
0.196078	1.81496
0.329412	2.41002
0.486275	2.91532
0.603922	3.22208
0.72549	3.55091
0.882353	3.76732
0.945098	3.87611
1.0902	4.11518
