Adsorption isotherm of Nitrogen on ZIF-79
DOI: 10.1080/08927022.2011.583648
Adsorbate Nitrogen: InChIKey IJGRMHOSHXDMSA-UHFFFAOYSA-N
Temperature: 298 K
Tabular data in the source: 0
pressure (bar)	uptake (mmol/g)
0.0947198	0.0298507
0.193315	0.0537313
0.280108	0.0776119
0.335327	0.0915423
0.485246	0.133333
0.595645	0.157214
0.713971	0.187065
0.891471	0.232836
0.954519	0.242786
1.09653	0.280597
