Adsorption isotherm of Nitrogen on ZIF-78
DOI: 10.1080/08927022.2011.583648
Adsorbate Nitrogen: InChIKey IJGRMHOSHXDMSA-UHFFFAOYSA-N
Temperature: 298 K
Tabular data in the source: 0
pressure (bar)	uptake (mmol/g)
0.200952	0.199617
2.35268	0.652662
4.99911	1.01905
10.0883	1.60936
14.9092	1.94303
19.8756	2.16214
24.846	2.29553
27.2942	2.40515
29.749	2.37191
