Adsorption isotherm of Methane on ZIF-79
DOI: 10.1080/08927022.2011.583648
Adsorbate Methane: InChIKey VNWKTOKETHGBQD-UHFFFAOYSA-N
Temperature: 298 K
Tabular data in the source: 0
pressure (bar)	uptake (mmol/g)
0.0156863	0.0884956
0.133333	0.331858
0.196078	0.475664
0.329412	0.763274
0.478431	1.02876
0.592157	1.22788
0.717647	1.41593
0.886275	1.63717
0.94902	1.69248
1.09412	1.88053
