Adsorption isotherm of Nitrogen on ZIF-79
DOI: 10.1080/08927022.2011.583648
Adsorbate Nitrogen: InChIKey IJGRMHOSHXDMSA-UHFFFAOYSA-N
Temperature: 298 K
Tabular data in the source: 0
pressure (bar)	uptake (mmol/g)
0.0748911	0.0139303
0.193139	0.0358209
0.268011	0.0477612
0.331059	0.0577114
0.484737	0.081592
0.599011	0.0995025
0.713306	0.119403
0.890609	0.145274
0.949724	0.155224
1.09158	0.177114
