Adsorption isotherm of Methane on ZIF-78
DOI: 10.1080/08927022.2011.583648
Adsorbate Methane: InChIKey VNWKTOKETHGBQD-UHFFFAOYSA-N
Temperature: 298 K
Tabular data in the source: 0
pressure (bar)	uptake (mmol/g)
0.0156507	0.00884956
0.133405	0.0371681
0.204016	0.0584071
0.329621	0.0884956
0.482646	0.130973
0.608269	0.159292
0.718155	0.187611
0.890869	0.228319
0.949764	0.240708
1.09105	0.276106
