Adsorption isotherm of Carbon Dioxide on ZIF-78
DOI: 10.1080/08927022.2011.583648
Adsorbate Carbon Dioxide: InChIKey CURLTUGMZLYLDI-UHFFFAOYSA-N
Temperature: 298 K
Tabular data in the source: 0
pressure (bar)	uptake (mmol/g)
-0.0604728	0.411765
0.336723	2.41176
1.27405	3.52941
2.62644	4.41176
7.62369	5.29412
12.6072	5.58824
17.5179	5.76471
22.6374	5.88235
27.5426	5.82353
29.9986	5.94118
