Adsorption isotherm of Nitrogen on ZIF-79
DOI: 10.1080/08927022.2011.583648
Adsorbate Nitrogen: InChIKey IJGRMHOSHXDMSA-UHFFFAOYSA-N
Temperature: 298 K
Tabular data in the source: 0
pressure (bar)	uptake (mmol/g)
0.0119207	0.0119403
0.12643	0.0537313
0.201419	0.0776119
0.331764	0.129353
0.485794	0.189055
0.612048	0.224876
0.71863	0.260697
0.896266	0.320398
0.951563	0.342289
1.10152	0.38806
