Adsorption isotherm of Carbon Dioxide on ZIF-78
DOI: 10.1080/08927022.2011.583648
Adsorbate Carbon Dioxide: InChIKey CURLTUGMZLYLDI-UHFFFAOYSA-N
Temperature: 298 K
Tabular data in the source: 0
pressure (bar)	uptake (mmol/g)
0.0158079	0.176758
0.0552066	0.494761
0.137861	1.07761
0.20469	1.46601
0.338054	1.94192
0.487036	2.3999
0.608466	2.66359
0.722062	2.9097
0.952937	3.17179
1.09773	3.34664
