Adsorption isotherm of Methane on ZIF-79
DOI: 10.1080/08927022.2011.583648
Adsorbate Methane: InChIKey VNWKTOKETHGBQD-UHFFFAOYSA-N
Temperature: 298 K
Tabular data in the source: 0
pressure (bar)	uptake (mmol/g)
0.686343	0.27907
2.52037	1.5814
4.8562	2.46512
7.41056	3.06977
9.97464	3.39535
14.8325	3.81395
19.6968	4.04651
24.7731	4.18605
29.7799	4.32558
