Adsorption isotherm of Methane on ZIF-78
DOI: 10.1080/08927022.2011.583648
Adsorbate Methane: InChIKey VNWKTOKETHGBQD-UHFFFAOYSA-N
Temperature: 298 K
Tabular data in the source: 0
pressure (bar)	uptake (mmol/g)
0.0432265	0.00530973
0.133579	0.019469
0.204329	0.0265487
0.334026	0.040708
0.487277	0.060177
0.605205	0.0707965
0.719164	0.0849558
0.892105	0.102655
0.951069	0.107965
1.10044	0.122124
