Adsorption isotherm of Carbon Dioxide on ZIF-78
DOI: 10.1080/08927022.2011.583648
Adsorbate Carbon Dioxide: InChIKey CURLTUGMZLYLDI-UHFFFAOYSA-N
Temperature: 298 K
Tabular data in the source: 0
pressure (bar)	uptake (mmol/g)
0.224024	0.588235
1.1641	1.82353
2.73227	2.94118
5.20753	3.88235
7.6718	4.35294
12.5165	4.70588
17.6361	4.82353
22.6842	4.88235
27.5907	4.88235
29.978	5.05882
