Adsorption isotherm of Methane on ZIF-78
DOI: 10.1080/08927022.2011.583648
Adsorbate Methane: InChIKey VNWKTOKETHGBQD-UHFFFAOYSA-N
Temperature: 298 K
Tabular data in the source: 0
pressure (bar)	uptake (mmol/g)
0.259371	0.564706
2.37127	2.02353
7.48482	3.43529
9.98659	3.71765
15.0698	4
19.736	4.23529
24.8257	4.32941
27.128	4.32941
29.6364	4.42353
