Adsorption isotherm of Carbon Dioxide on ZIF-78
DOI: 10.1080/08927022.2011.583648
Adsorbate Carbon Dioxide: InChIKey CURLTUGMZLYLDI-UHFFFAOYSA-N
Temperature: 298 K
Tabular data in the source: 0
pressure (bar)	uptake (mmol/g)
0.0195734	-0.0175659
0.126159	0.341163
0.197135	0.538648
0.338805	0.790756
0.488355	1.06084
0.602469	1.25897
0.724426	1.45721
0.897365	1.65621
0.95633	1.72852
1.09786	1.90919
