Adsorption isotherm of Methane on ZIF-78
DOI: 10.1080/08927022.2011.583648
Adsorbate Methane: InChIKey VNWKTOKETHGBQD-UHFFFAOYSA-N
Temperature: 298 K
Tabular data in the source: 0
pressure (bar)	uptake (mmol/g)
0.0119408	0.0699136
0.1304	0.286614
0.201458	0.407863
0.335689	0.641761
0.48167	0.849086
0.611846	1.02167
0.718347	1.15969
0.895785	1.35755
0.962788	1.41748
1.10073	1.53726
