Adsorption isotherm of Nitrogen on ZIF-79
DOI: 10.1080/08927022.2011.583648
Adsorbate Nitrogen: InChIKey IJGRMHOSHXDMSA-UHFFFAOYSA-N
Temperature: 298 K
Tabular data in the source: 0
pressure (bar)	uptake (mmol/g)
0.979021	0.190818
2.72727	0.517677
7.34266	1.00058
12.5874	1.39782
17.6923	1.62892
22.4476	1.86131
27.4126	1.92625
30	1.94444
