Adsorption isotherm of Carbon Dioxide on ZIF-79
DOI: 10.1080/08927022.2011.583648
Adsorbate Carbon Dioxide: InChIKey CURLTUGMZLYLDI-UHFFFAOYSA-N
Temperature: 298 K
Tabular data in the source: 0
pressure (bar)	uptake (mmol/g)
0.0470588	0.353813
0.137255	0.817139
0.196078	1.08163
0.27451	1.34539
0.329412	1.54336
0.47451	1.89354
0.6	2.17778
0.713725	2.39579
0.886275	2.74495
0.941176	2.76514
1.0902	3.07073
