Adsorption isotherm of Nitrogen on ZIF-79
DOI: 10.1080/08927022.2011.583648
Adsorbate Nitrogen: InChIKey IJGRMHOSHXDMSA-UHFFFAOYSA-N
Temperature: 298 K
Tabular data in the source: 0
pressure (bar)	uptake (mmol/g)
0.20979	0.249223
2.30769	0.963675
7.69231	1.83262
12.4476	2.34279
17.4825	2.57414
22.7273	2.74916
27.6224	2.89769
29.9301	2.9447
