Adsorption isotherm of Nitrogen on ZIF-79
DOI: 10.1080/08927022.2011.583648
Adsorbate Nitrogen: InChIKey IJGRMHOSHXDMSA-UHFFFAOYSA-N
Temperature: 298 K
Tabular data in the source: 0
pressure (bar)	uptake (mmol/g)
2.23776	0.602823
4.75524	1.06572
7.76224	1.38792
12.5175	1.87031
17.5524	2.10166
22.6573	2.2772
27.4825	2.39821
30.0699	2.41641
