Adsorption isotherm of Methane on ZIF-78
DOI: 10.1080/08927022.2011.583648
Adsorbate Methane: InChIKey VNWKTOKETHGBQD-UHFFFAOYSA-N
Temperature: 298 K
Tabular data in the source: 0
pressure (bar)	uptake (mmol/g)
0.0947328	0.155817
0.205185	0.302518
0.264372	0.388939
0.331427	0.475188
0.481256	0.638569
0.607377	0.749838
0.721694	0.861366
0.895095	1.00669
0.958181	1.07548
1.10007	1.20395
