Adsorption isotherm of Carbon Dioxide on ZIF-79
DOI: 10.1080/08927022.2011.583648
Adsorbate Carbon Dioxide: InChIKey CURLTUGMZLYLDI-UHFFFAOYSA-N
Temperature: 298 K
Tabular data in the source: 0
pressure (bar)	uptake (mmol/g)
0.125587	1.24974
1.01565	3.06038
2.33285	4.30764
4.77742	5.05255
7.50383	5.67187
12.4769	5.97401
17.6633	6.0257
22.2172	6.20371
27.1955	6.06834
29.8591	6.06279
