Adsorption isotherm of Methane on ZIF-79
DOI: 10.1080/08927022.2011.583648
Adsorbate Methane: InChIKey VNWKTOKETHGBQD-UHFFFAOYSA-N
Temperature: 298 K
Tabular data in the source: 0
pressure (bar)	uptake (mmol/g)
0.0941176	0.165929
0.196078	0.34292
0.27451	0.431416
0.333333	0.50885
0.478431	0.685841
0.596078	0.829646
0.721569	0.940265
0.886275	1.11726
0.941176	1.1615
1.0902	1.30531
