Adsorption isotherm of Nitrogen on PPN-6-SO3Li
DOI: 10.1021/Ja2087773
Adsorbate Nitrogen: InChIKey IJGRMHOSHXDMSA-UHFFFAOYSA-N
Temperature: 77 K
Tabular data in the source: 0
pressure (bar)	uptake (cm3(STP)/g)
0.000123705	21.2388
0.000350497	60.1767
0.000474201	81.4155
0.00256687	40.7056
0.00303592	121.236
0.0060203	233.623
0.00846346	253.09
0.0108448	261.937
0.0295448	272.539
0.0459202	284.029
0.0739239	291.968
0.0972422	295.487
0.13223	302.534
0.171862	306.923
0.204479	306.893
0.232451	309.523
0.274392	310.37
0.311679	312.105
0.341971	312.963
0.386252	315.577
0.418874	316.433
0.453831	318.171
0.491118	319.907
0.521415	321.649
0.556367	322.502
0.609952	322.453
0.642579	324.193
0.679871	326.814
0.707828	326.789
0.740445	326.759
0.773072	328.499
0.805689	328.47
0.847635	330.201
0.891901	330.161
0.919873	332.79
