Adsorption isotherm of Nitrogen on PPN-6-SO3H
DOI: 10.1021/Ja2087773
Adsorbate Nitrogen: InChIKey IJGRMHOSHXDMSA-UHFFFAOYSA-N
Temperature: 77 K
Tabular data in the source: 0
pressure (bar)	uptake (cm3(STP)/g)
0	216.342
0.00649846	255.263
0.0129969	272.394
0.0227446	283.305
0.0454892	295.793
0.0682338	302.055
0.0812308	306.745
0.110474	313.017
0.136468	316.172
0.207951	324.069
0.25344	327.254
0.321674	333.589
0.347668	335.187
0.38016	336.796
0.4224	339.976
0.461391	343.152
0.493883	343.204
0.536123	344.828
0.568615	347.993
0.604357	351.163
0.630351	351.204
0.662843	352.813
0.701834	357.545
0.737575	359.158
0.766818	359.205
0.815557	362.396
0.870794	367.154
0.903286	373.432
0.926031	371.912
