Adsorption isotherm of Methane on PPN-6
DOI: 10.1021/Ja2087773
Adsorbate Methane: InChIKey VNWKTOKETHGBQD-UHFFFAOYSA-N
Temperature: 295 K
Tabular data in the source: 0
pressure (bar)	uptake (wt%)
0.0552114	0.0541353
0.0699179	0.0631579
0.0919914	0.081203
0.121418	0.103759
0.143492	0.121805
0.172932	0.148872
0.253887	0.221053
0.275961	0.239098
0.305387	0.261654
0.331144	0.284211
0.415769	0.356391
0.441526	0.378947
0.49671	0.42406
0.54454	0.464662
0.577651	0.491729
0.599724	0.509774
0.684335	0.577444
0.706408	0.595489
0.735849	0.622556
0.765276	0.645113
0.783693	0.667669
0.81679	0.690226
0.838877	0.712782
0.894047	0.753383
0.949231	0.798496
0.997061	0.839098
1.05589	0.875188
1.08166	0.902256
