Adsorption isotherm of Carbon Dioxide on PPN-6-SO3H
DOI: 10.1021/Ja2087773
Adsorbate Carbon Dioxide: InChIKey CURLTUGMZLYLDI-UHFFFAOYSA-N
Temperature: 273 K
Tabular data in the source: 0
pressure (bar)	uptake (wt%)
0.0323642	2.53623
0.0612528	4.13043
0.101123	5.50725
0.122849	6.37681
0.148223	7.24638
0.177283	7.89855
0.202709	8.47826
0.228109	9.2029
0.249901	9.71014
0.282622	10.2899
0.304414	10.7971
0.337161	11.2319
0.35898	11.5942
0.384432	12.029
0.409898	12.3913
0.438998	12.8261
0.493604	13.4058
0.544549	14.058
0.602788	14.7101
0.65742	15.1449
0.704744	15.6522
0.755716	16.1594
0.813982	16.6667
0.864993	16.9565
0.919625	17.3913
0.974257	17.8261
0.999762	17.971
1.01797	18.1159
1.05077	18.2609
1.07627	18.4783
