Adsorption isotherm of Nitrogen on PPN-6
DOI: 10.1021/Ja2087773
Adsorbate Nitrogen: InChIKey IJGRMHOSHXDMSA-UHFFFAOYSA-N
Temperature: 295 K
Tabular data in the source: 0
pressure (bar)	uptake (wt%)
0.0471299	0.0242424
0.0688822	0.034632
0.0942598	0.0467532
0.123263	0.0588745
0.152266	0.0709957
0.177644	0.0831169
0.203021	0.0969697
0.232024	0.109091
0.257402	0.119481
0.282779	0.12987
0.311782	0.141991
0.333535	0.150649
0.362538	0.155844
0.387915	0.166234
0.420544	0.176623
0.471299	0.193939
0.500302	0.200866
0.522054	0.209524
0.551057	0.21645
0.576435	0.221645
0.601813	0.228571
0.630816	0.235498
0.656193	0.238961
0.681571	0.245887
0.735952	0.252814
0.812085	0.264935
0.841088	0.268398
0.899094	0.271861
0.920846	0.275325
0.978852	0.277056
1.02961	0.277056
