Adsorption isotherm of Nitrogen on PPN-6-SO3H
DOI: 10.1021/Ja2087773
Adsorbate Nitrogen: InChIKey IJGRMHOSHXDMSA-UHFFFAOYSA-N
Temperature: 295 K
Tabular data in the source: 0
pressure (bar)	uptake (wt%)
0.0543807	0.025974
0.0978852	0.0519481
0.308157	0.145455
0.33716	0.155844
0.362538	0.167965
0.391541	0.176623
0.416918	0.188745
0.449547	0.197403
0.496677	0.21645
0.522054	0.223377
0.547432	0.233766
0.576435	0.242424
0.601813	0.249351
0.62719	0.258009
0.656193	0.266667
0.685196	0.273593
0.735952	0.285714
0.790332	0.297835
0.841088	0.309957
0.866465	0.31342
0.895468	0.316883
0.924471	0.322078
0.949849	0.329004
1.00423	0.335931
1.05498	0.341126
1.08036	0.344589
