Adsorption isotherm of Carbon Dioxide on PPN-6-SO3H
DOI: 10.1021/Ja2087773
Adsorbate Carbon Dioxide: InChIKey CURLTUGMZLYLDI-UHFFFAOYSA-N
Temperature: 273 K
Tabular data in the source: 0
pressure (bar)	uptake (wt%)
0.010603	1.50685
0.0357075	3.0137
0.0644622	4.38356
0.0896412	5.47945
0.114833	6.50685
0.143699	7.26027
0.168953	7.94521
0.197831	8.63014
0.226723	9.24658
0.252001	9.79452
0.277292	10.274
0.306208	10.7534
0.331499	11.2329
0.356802	11.6438
0.385718	12.1233
0.411033	12.4658
0.436337	12.8767
0.490618	13.4247
0.548512	14.0411
0.602781	14.6575
0.649824	15.137
0.707731	15.6849
0.758424	16.0274
0.812718	16.5068
0.867024	16.9178
0.917692	17.3973
0.968398	17.6712
1.02632	18.1507
1.0553	18.2877
1.08064	18.4932
