Adsorption isotherm of Nitrogen on PPN-6-SO3H
DOI: 10.1021/Ja2087773
Adsorbate Nitrogen: InChIKey IJGRMHOSHXDMSA-UHFFFAOYSA-N
Temperature: 77 K
Tabular data in the source: 0
pressure (bar)	uptake (cm3(STP)/g)
0	216.342
0.00324923	197.671
0.00649846	255.263
0.0129969	270.838
0.0227446	286.418
0.0389908	294.226
0.0552369	300.478
0.0812308	306.745
0.107225	313.012
0.149465	319.306
0.185206	324.032
0.224197	328.764
0.25344	331.924
0.311926	336.686
0.360665	341.434
0.428898	346.212
0.474388	349.398
0.523126	352.589
0.568615	355.775
0.617354	357.409
0.643348	360.564
0.666092	362.157
0.692086	363.755
0.727828	366.925
0.766818	368.544
0.783065	370.126
0.799311	368.596
0.831803	373.317
0.864295	374.925
0.896788	376.534
0.922782	382.801
