Adsorption isotherm of Carbon Dioxide on PPN-6-SO3Li
DOI: 10.1021/Ja2087773
Adsorbate Carbon Dioxide: InChIKey CURLTUGMZLYLDI-UHFFFAOYSA-N
Temperature: 273 K
Tabular data in the source: 0
pressure (bar)	uptake (cm3(STP)/g)
0.0106571	7.88983
0.0186372	14.3706
0.050882	25.9274
0.0696846	32.9741
0.0939047	40.022
0.120859	45.9439
0.150548	50.7396
0.174831	54.9706
0.199128	58.6383
0.226133	62.3066
0.255866	65.1305
0.274758	68.2335
0.309915	70.777
0.331528	73.3173
0.361261	76.1411
0.388304	78.1193
0.412639	80.0969
0.493763	86.3131
0.547875	89.1427
0.626328	93.6682
0.68044	96.4978
0.699376	97.629
0.783272	101.029
0.810335	102.162
0.859049	104.145
0.913167	106.693
0.972729	108.116
1.02144	110.099
1.05121	111.233
1.07557	112.083
