Adsorption isotherm of Hydrogen on PPN-6
DOI: 10.1021/Ja2087773
Adsorbate Hydrogen: InChIKey UFHFLCQGNIYNRP-UHFFFAOYSA-N
Temperature: 273 K
Tabular data in the source: 0
pressure (bar)	uptake (wt%)
0.0256098	0.0207792
0.0512195	0.034632
0.0878049	0.0658009
0.128049	0.0831169
0.157317	0.110823
0.197561	0.135065
0.237805	0.159307
0.270732	0.176623
0.3	0.197403
0.329268	0.214719
0.362195	0.232035
0.395122	0.249351
0.413415	0.25974
0.442683	0.27013
0.479268	0.294372
0.523171	0.311688
0.54878	0.322078
0.62561	0.35671
0.654878	0.370563
0.680488	0.377489
0.706098	0.391342
0.739024	0.405195
0.760976	0.408658
0.782927	0.419048
0.819512	0.425974
0.845122	0.439827
0.870732	0.446753
0.95122	0.467532
1.00244	0.481385
1.02439	0.484848
1.05732	0.495238
1.08293	0.502165
