Adsorption isotherm of Carbon Dioxide on PPN-6-SO3H
DOI: 10.1021/Ja2087773
Adsorbate Carbon Dioxide: InChIKey CURLTUGMZLYLDI-UHFFFAOYSA-N
Temperature: 295 K
Tabular data in the source: 0
pressure (bar)	uptake (mmol/g)
0.0255571	0.306818
0.0510642	0.511474
0.0765484	0.668979
0.107903	0.842278
0.127524	0.999706
0.15691	1.14154
0.186291	1.27552
0.209809	1.40943
0.237221	1.51195
0.266598	1.63807
0.29009	1.71696
0.317505	1.82734
0.346871	1.92989
0.368401	1.99304
0.399729	2.11133
0.42322	2.19022
0.456476	2.25352
0.48388	2.34033
0.513234	2.4193
0.532813	2.49028
0.558247	2.54562
0.585643	2.61671
0.614994	2.68782
0.634561	2.73523
0.663908	2.79848
0.716742	2.93277
0.775425	3.0357
0.82043	3.14631
0.85564	3.20964
0.906501	3.3046
0.931931	3.35209
0.955403	3.39169
0.988647	3.43142
1.01018	3.49457
1.03952	3.5421
1.06884	3.55034
1.09036	3.60564
