Adsorption isotherm of Carbon Dioxide on PPN-6-SO3H
DOI: 10.1021/Ja2087773
Adsorbate Carbon Dioxide: InChIKey CURLTUGMZLYLDI-UHFFFAOYSA-N
Temperature: 273 K
Tabular data in the source: 0
pressure (bar)	uptake (wt%)
0.0249058	2.60274
0.0572611	4.10959
0.0968919	5.47945
0.122108	6.36986
0.140086	7.19178
0.172603	7.80822
0.194218	8.56164
0.230373	9.10959
0.255626	9.79452
0.306233	10.6164
0.331511	11.1644
0.353189	11.5753
0.38213	11.9178
0.411058	12.3288
0.440012	12.6027
0.494256	13.3562
0.523197	13.6986
0.5485	14.1096
0.577453	14.3836
0.628109	14.9315
0.67879	15.3425
0.758412	16.0959
0.787377	16.3014
0.816343	16.5068
0.870625	17.0548
0.917692	17.3973
0.975636	17.7397
1.01908	18.0822
1.05168	18.2192
1.08064	18.4932
