Adsorption isotherm of Nitrogen on PPN-6-SO3Li
DOI: 10.1021/Ja2087773
Adsorbate Nitrogen: InChIKey IJGRMHOSHXDMSA-UHFFFAOYSA-N
Temperature: 295 K
Tabular data in the source: 0
pressure (bar)	uptake (wt%)
0.0326284	0.017316
0.0725076	0.0398268
0.0978852	0.0554113
0.123263	0.0709957
0.155891	0.0848485
0.177644	0.0987013
0.203021	0.114286
0.228399	0.126407
0.257402	0.138528
0.282779	0.152381
0.311782	0.166234
0.33716	0.176623
0.362538	0.188745
0.391541	0.202597
0.416918	0.214719
0.445921	0.223377
0.467674	0.235498
0.496677	0.244156
0.522054	0.254545
0.576435	0.275325
0.630816	0.292641
0.681571	0.308225
0.739577	0.32381
0.786707	0.335931
0.841088	0.349784
0.891843	0.361905
0.920846	0.3671
0.975227	0.377489
1.00423	0.382684
1.05136	0.38961
1.07674	0.393074
