Adsorption isotherm of Methane on PPN-6-SO3H
DOI: 10.1021/Ja2087773
Adsorbate Methane: InChIKey VNWKTOKETHGBQD-UHFFFAOYSA-N
Temperature: 295 K
Tabular data in the source: 0
pressure (bar)	uptake (wt%)
0.0368076	0.0360902
0.092019	0.0902256
0.121473	0.121805
0.169359	0.180451
0.202483	0.21203
0.309223	0.315789
0.360751	0.365414
0.408581	0.406015
0.445347	0.428571
0.467435	0.451128
0.496875	0.478195
0.548362	0.514286
0.603546	0.559398
0.629289	0.577444
0.658716	0.6
0.680762	0.609023
0.710188	0.631579
0.732276	0.654135
0.761689	0.67218
0.805781	0.690226
0.897703	0.748872
0.952859	0.784962
0.996979	0.81203
1.03374	0.834586
1.05943	0.834586
