Adsorption isotherm of Methane on PPN-6-SO3Li
DOI: 10.1021/Ja2087773
Adsorbate Methane: InChIKey VNWKTOKETHGBQD-UHFFFAOYSA-N
Temperature: 295 K
Tabular data in the source: 0
pressure (bar)	uptake (wt%)
0.0221011	0.0270677
0.0700007	0.0902256
0.092088	0.112782
0.121556	0.148872
0.143657	0.17594
0.173125	0.21203
0.198869	0.230075
0.228337	0.266165
0.257764	0.288722
0.283548	0.320301
0.309305	0.342857
0.335062	0.365414
0.360833	0.392481
0.386604	0.419549
0.416017	0.437594
0.441802	0.469173
0.463861	0.482707
0.500628	0.505263
0.526385	0.52782
0.548458	0.545865
0.577899	0.572932
0.599959	0.586466
0.633041	0.604511
0.655115	0.622556
0.680844	0.63609
0.706588	0.654135
0.73967	0.67218
0.761744	0.690226
0.791143	0.703759
0.816886	0.721805
0.838946	0.735338
0.872015	0.748872
0.901428	0.766917
0.952845	0.780451
