Adsorption isotherm of Nitrogen on PPN-6-SO3Li
DOI: 10.1021/Ja2087773
Adsorbate Nitrogen: InChIKey IJGRMHOSHXDMSA-UHFFFAOYSA-N
Temperature: 77 K
Tabular data in the source: 0
pressure (bar)	uptake (cm3(STP)/g)
0.000151699	67.9546
0.000496469	222.397
0.00772284	259.509
0.0220377	271.955
0.0756425	284.651
0.125648	284.969
0.172095	291.442
0.229258	297.983
0.297136	304.592
0.336426	304.842
0.393575	305.205
0.432879	311.633
0.490042	318.174
0.536476	318.469
0.579351	324.919
0.632915	319.082
0.682934	325.578
0.750798	326.01
0.82582	332.664
0.872254	332.96
0.9044	333.164
0.925845	339.478
