Adsorption isotherm of Carbon Dioxide on PPN-6-SO3Li
DOI: 10.1021/Ja2087773
Adsorbate Carbon Dioxide: InChIKey CURLTUGMZLYLDI-UHFFFAOYSA-N
Temperature: 273 K
Tabular data in the source: 0
pressure (bar)	uptake (cm3(STP)/g)
0.00801191	5.0723
0.0213079	16.0613
0.0427556	25.9255
0.0669376	34.6636
0.0938729	41.4305
0.120821	47.634
0.145092	52.4284
0.174787	56.9424
0.199083	60.6101
0.223386	63.9961
0.253113	67.1017
0.282846	69.9256
0.307168	72.4665
0.334198	75.008
0.358527	77.2673
0.388273	79.5278
0.412607	81.5053
0.434239	83.2005
0.466707	84.8983
0.496465	86.5954
0.520793	88.8546
0.545153	89.7054
0.572203	91.4019
0.599266	92.535
0.626328	93.6682
0.650682	94.8006
0.677731	96.4971
0.707509	97.3492
0.731856	98.7633
0.758925	99.6148
0.783285	100.466
0.810341	101.88
0.840119	102.732
0.867188	103.584
0.894257	104.435
0.918604	105.849
0.945679	106.419
0.975457	107.271
0.997114	107.84
1.02689	108.692
1.05396	109.543
1.07832	110.394
