Adsorption isotherm of Nitrogen on PPN-6
DOI: 10.1021/Ja2087773
Adsorbate Nitrogen: InChIKey IJGRMHOSHXDMSA-UHFFFAOYSA-N
Temperature: 77 K
Tabular data in the source: 0
pressure (bar)	uptake (cm3(STP)/g)
0.000634376	284.174
0.00433031	339.796
0.00452338	426.284
0.00828827	512.794
0.0083848	556.038
0.0156663	617.86
0.0193623	673.482
0.02663	729.127
0.044627	791.017
0.0482954	834.284
0.066251	877.641
0.0842204	927.176
0.105762	976.734
0.127289	1020.11
0.170275	1075.99
0.206117	1131.81
0.231161	1150.5
0.249048	1162.97
0.274106	1187.84
0.302735	1212.74
0.334937	1237.65
0.367138	1262.57
0.402912	1287.5
0.438685	1312.44
0.467301	1331.16
0.503047	1343.74
0.535248	1368.65
0.567436	1387.39
0.603209	1412.33
0.642541	1431.11
0.692601	1456.14
0.749819	1487.39
0.810609	1518.67
0.860656	1537.52
0.91073	1568.73
