Adsorption isotherm of Carbon Dioxide on PPN-6
DOI: 10.1021/Ja2087773
Adsorbate Carbon Dioxide: InChIKey CURLTUGMZLYLDI-UHFFFAOYSA-N
Temperature: 273 K
Tabular data in the source: 0
pressure (bar)	uptake (wt%)
0.0509713	0.507246
0.0837584	0.724638
0.120167	1.08696
0.149306	1.30435
0.18208	1.5942
0.229404	2.10145
0.284049	2.46377
0.331399	2.82609
0.360539	3.04348
0.418805	3.55072
0.469803	3.91304
0.517153	4.27536
0.571785	4.71014
0.630052	5.21739
0.681049	5.57971
0.732034	6.01449
0.815819	6.5942
0.870451	7.02899
0.943293	7.6087
0.997952	7.89855
1.05624	8.26087
