Adsorption isotherm of Hydrogen on PPN-6-SO3Li
DOI: 10.1021/Ja2087773
Adsorbate Hydrogen: InChIKey UFHFLCQGNIYNRP-UHFFFAOYSA-N
Temperature: 273 K
Tabular data in the source: 0
pressure (bar)	uptake (wt%)
0.0658537	0.0658009
0.120732	0.121212
0.171951	0.166234
0.20122	0.193939
0.24878	0.238961
0.303659	0.287446
0.332927	0.308225
0.387805	0.360173
0.439024	0.401732
0.493902	0.44329
0.545122	0.481385
0.6	0.522944
0.65122	0.561039
0.706098	0.599134
0.757317	0.637229
0.815854	0.671861
0.867073	0.706494
0.92561	0.737662
0.965854	0.761905
1.00244	0.786147
1.03171	0.8
1.06098	0.817316
1.08293	0.838095
