Adsorption isotherm of Carbon Dioxide on PPN-6-SO3Li
DOI: 10.1021/Ja2087773
Adsorbate Carbon Dioxide: InChIKey CURLTUGMZLYLDI-UHFFFAOYSA-N
Temperature: 295 K
Tabular data in the source: 0
pressure (bar)	uptake (mmol/g)
0.0118647	0.283063
0.0236987	0.503257
0.0394146	0.668493
0.0610283	0.904532
0.0963113	1.11718
0.11202	1.26669
0.147283	1.44004
0.170809	1.58966
0.198232	1.71576
0.229568	1.84977
0.255022	1.9444
0.280483	2.05475
0.307883	2.1337
0.329443	2.25972
0.356839	2.3308
0.382277	2.394
0.413586	2.473
0.43904	2.56764
0.468386	2.63089
0.493824	2.69409
0.519263	2.75729
0.546659	2.82838
0.572093	2.88372
0.60144	2.94697
0.628829	3.00234
0.654263	3.05769
0.683602	3.10522
0.705131	3.16837
0.732512	3.20802
0.761855	3.26342
0.785323	3.29516
0.814666	3.35055
0.842047	3.3902
0.867478	3.43769
0.894855	3.46948
0.920281	3.50911
0.945704	3.54087
0.969172	3.57262
0.998504	3.60443
1.02393	3.64406
1.05131	3.68371
