Adsorption isotherm of Hydrogen on PPN-6-SO3H
DOI: 10.1021/Ja2087773
Adsorbate Hydrogen: InChIKey UFHFLCQGNIYNRP-UHFFFAOYSA-N
Temperature: 273 K
Tabular data in the source: 0
pressure (bar)	uptake (wt%)
0.142683	0.114286
0.182927	0.155844
0.226829	0.187013
0.24878	0.207792
0.27439	0.228571
0.303659	0.252814
0.332927	0.273593
0.354878	0.294372
0.387805	0.311688
0.406098	0.332468
0.439024	0.353247
0.460976	0.370563
0.493902	0.391342
0.545122	0.425974
0.6	0.460606
0.629268	0.477922
0.680488	0.505628
0.731707	0.543723
0.753659	0.557576
0.786585	0.571429
0.815854	0.592208
0.863415	0.619913
0.896341	0.637229
0.92561	0.654545
0.976829	0.675325
0.99878	0.689177
1.02805	0.706494
1.05732	0.716883
1.08659	0.730736
