Adsorption isotherm of Carbon Dioxide on PPN-6
DOI: 10.1021/Ja2087773
Adsorbate Carbon Dioxide: InChIKey CURLTUGMZLYLDI-UHFFFAOYSA-N
Temperature: 295 K
Tabular data in the source: 0
pressure (bar)	uptake (mmol/g)
0.037176	0.0869309
0.0704164	0.1188
0.121266	0.190193
0.152575	0.269189
0.179952	0.300982
0.226888	0.364465
0.260136	0.412052
0.291426	0.451754
0.328575	0.483675
0.357918	0.539069
0.385295	0.570862
0.436141	0.634396
0.467427	0.66624
0.514367	0.737582
0.557395	0.801014
0.602377	0.864471
0.65518	0.93589
0.704068	0.99154
0.743186	1.05492
0.78426	1.11833
0.811641	1.15798
0.837063	1.18975
0.891814	1.24547
0.942663	1.31687
0.997421	1.38831
1.05022	1.45973
1.08151	1.49157
