Adsorption isotherm of Nitrogen on PPN-6-SO3Li
DOI: 10.1021/Ja2087773
Adsorbate Nitrogen: InChIKey IJGRMHOSHXDMSA-UHFFFAOYSA-N
Temperature: 77 K
Tabular data in the source: 0
pressure (bar)	uptake (cm3(STP)/g)
0.000407195	69.9111
0.00068553	117.698
0.000824698	141.592
0.00246379	23.0066
0.00260811	47.7852
0.00328333	163.714
0.00341734	186.723
0.00353589	207.076
0.00366991	230.085
0.00377299	247.784
0.00850985	261.054
0.024875	270.774
0.0412349	279.608
0.0645584	284.012
0.0948763	289.294
0.129849	293.687
0.167156	298.963
0.209107	301.579
0.251059	304.196
0.283686	305.936
0.318638	306.789
0.365243	308.517
0.418838	310.238
0.45612	311.089
0.498066	312.821
0.551661	314.542
0.591267	314.506
0.635543	316.235
0.686808	317.958
0.731084	319.688
0.773031	321.42
0.814967	321.382
0.842929	322.241
0.873231	324.868
0.903529	326.611
0.929161	327.472
