Adsorption isotherm of Nitrogen on PPN-6-SO3H
DOI: 10.1021/Ja2087773
Adsorbate Nitrogen: InChIKey IJGRMHOSHXDMSA-UHFFFAOYSA-N
Temperature: 77 K
Tabular data in the source: 0
pressure (bar)	uptake (cm3(STP)/g)
0.00391659	154.465
0.00769526	247.153
0.0220377	271.955
0.0399381	290.601
0.179308	322.376
0.243601	322.785
0.297192	329.303
0.382929	336.026
0.454365	336.48
0.511542	349.199
0.590136	355.876
0.636583	362.349
0.672287	356.398
0.743737	363.03
0.80803	363.439
0.904497	376.408
0.925928	376.544
