Adsorption isotherm of Carbon Dioxide on PPN-6-SO3Li
DOI: 10.1021/Ja2087773
Adsorbate Carbon Dioxide: InChIKey CURLTUGMZLYLDI-UHFFFAOYSA-N
Temperature: 273 K
Tabular data in the source: 0
pressure (bar)	uptake (wt%)
0.00710982	1.01449
0.0105987	1.88406
0.0213691	2.82609
0.039289	4.56522
0.0682173	5.94203
0.0899167	6.95652
0.115264	7.97101
0.144271	8.91304
0.173332	9.56522
0.202379	10.2899
0.231439	10.942
0.275063	11.7391
0.30415	12.2464
0.325968	12.6087
0.362376	12.971
0.387842	13.3333
0.406013	13.6957
0.467887	14.4203
0.522519	14.8551
0.548011	15.0725
0.620827	15.7971
0.751962	16.7391
0.810242	17.1739
0.864913	17.3913
0.97057	18.0435
1.03252	18.3333
