Adsorption isotherm of Nitrogen on LZU-192
DOI: 10.1021/jacs.8b05830
Article source: Figure 1 (f)
Adsorbate Nitrogen: InChIKey IJGRMHOSHXDMSA-UHFFFAOYSA-N
Kind: experiment
Temperature: 77 K
Tabular data in the source: 0
pressure (bar)	uptake (cm3(STP)/g)
0	149.944
0	157.127
0.008086	263.075
0.020204	297.194
0.029293	332.211
0.048494	403.143
0.054553	415.713
0.062629	435.466
0.068698	439.057
0.082833	446.24
0.103037	448.036
0.121225	457.015
0.141429	462.402
0.161634	465.993
0.183864	466.891
0.200026	473.176
0.224273	473.176
0.244477	474.972
0.254579	476.768
0.266698	480.359
0.280843	480.359
0.30509	482.155
0.359643	487.542
0.406111	489.338
0.452578	493.827
0.506118	494.725
0.555616	498.316
0.607139	501.908
0.656647	505.499
0.71119	509.091
0.757668	510.887
0.810195	514.478
0.870807	519.865
0.917275	525.253
0.967785	536.925
1.01325	573.737
0.092935	453.423
0.148502	465.993
0.172749	470.483
0.195983	474.074
0.218203	476.768
0.236391	478.563
0.297004	484.848
0.399038	492.929
0.428331	494.725
0.454595	496.521
0.480868	500.112
0.503089	504.602
0.60108	512.682
0.702101	518.07
0.799079	524.355
0.895054	532.435
1.01224	572.84
