Adsorption isotherm of Nitrogen on COF-921
DOI: 10.1021/jacs.8b05830
Article source: Figure 1 (f)
Adsorbate Nitrogen: InChIKey IJGRMHOSHXDMSA-UHFFFAOYSA-N
Kind: experiment
Temperature: 77 K
Tabular data in the source: 0
pressure (bar)	uptake (cm3(STP)/g)
0	142.761
0	171.493
0.002016	191.246
0.004043	202.02
0.006059	221.773
0.008086	237.935
0.010102	254.097
0.016161	279.237
0.026263	307.969
0.036366	340.292
0.060613	374.411
0.066672	379.798
0.072731	383.389
0.086876	386.981
0.100008	390.572
0.119209	394.164
0.139413	399.551
0.159617	401.347
0.181838	403.143
0.202042	406.734
0.224273	408.53
0.243464	412.121
0.258612	413.917
0.268714	413.917
0.282859	415.713
0.307106	417.508
0.353574	421.1
0.402068	424.691
0.453591	427.385
0.507132	430.079
0.556629	432.772
0.608153	435.466
0.658663	439.057
0.70816	442.649
0.759684	445.342
0.810195	449.832
0.860705	452.525
0.921318	460.606
0.965769	473.176
1.01022	527.048
0.044451	361.841
0.085873	388.777
0.143456	401.347
0.168706	404.938
0.193966	408.53
0.219217	411.223
0.24851	413.917
0.286902	417.508
0.393982	426.487
0.420256	426.487
0.447522	429.181
0.473796	430.976
0.49703	433.67
0.590978	444.444
0.693012	451.627
0.791004	457.912
0.892025	469.585
1.01123	526.15
