Adsorption isotherm of Nitrogen on ILCOF-1
DOI: 10.1021/jacs.8b05830
Article source: Figure 1(f)
Adsorbate Nitrogen: InChIKey IJGRMHOSHXDMSA-UHFFFAOYSA-N
Kind: experiment
Temperature: 77 K
Tabular data in the source: 0
pressure (bar)	uptake (cm3(STP)/g)
0	31.4254
0	52.9742
0	69.1358
0	79.9102
0	92.4804
0	106.846
0	121.212
0	133.782
0.001013	186.756
0.002016	212.795
0.004043	227.16
0.004043	243.322
0.006059	257.688
0.006059	273.85
0.008086	282.828
0.018188	320.539
0.027277	350.168
0.038392	378.002
0.048494	422.896
0.058596	491.134
0.068698	528.844
0.08486	545.006
0.125268	560.269
0.136383	565.657
0.167693	573.737
0.181838	577.329
0.202042	579.125
0.221233	583.614
0.240434	586.307
0.253566	589.001
0.264681	590.797
0.283872	592.593
0.306093	594.388
0.362673	600.673
0.406111	605.163
0.505105	612.346
0.555616	616.835
0.606136	620.427
0.656647	624.018
0.70816	627.609
0.756655	631.201
0.820297	637.486
0.869794	642.873
0.920315	649.158
0.964756	663.524
1.01325	702.132
0.010102	290.909
0.052527	463.3
0.094962	552.189
0.149515	570.146
0.173762	576.431
0.196996	580.92
0.218203	584.512
0.236391	587.205
0.298017	595.286
0.400051	606.061
0.426315	607.856
0.454595	611.448
0.478842	613.244
0.501072	619.529
0.600067	629.405
0.702101	636.588
0.800093	644.669
0.898084	656.341
1.01325	702.132
