Adsorption isotherm of Methane on [Co2(ndc)2(bpy)]
DOI: 10.1039/c5sc01796c
Article source: Figure 6
Adsorbate Methane: InChIKey VNWKTOKETHGBQD-UHFFFAOYSA-N
Kind: experiment
Temperature: 298 K
Tabular data in the source: 0
pressure (bar)	uptake (mmol/g)
0	0.073469
0.09901	0.155223
0.19802	0.057385
0.39604	0.196403
0.693069	0.131461
1.18812	0.295332
1.68317	0.214306
2.27723	0.378299
2.9703	0.338331
4.05941	0.50293
4.85149	0.487573
6.43564	0.644615
6.93069	0.596242
8.51485	0.72063
10	0.722449
11.4851	0.822227
12.9703	0.832209
14.4554	0.91566
16.0396	0.9176
18.0198	0.993494
20.099	1.02053
