Adsorption isotherm of Carbon Dioxide on [Co2(ndc)2(bpy)]
DOI: 10.1039/c5sc01796c
Article source: Figure S11
Adsorbate Carbon Dioxide: InChIKey CURLTUGMZLYLDI-UHFFFAOYSA-N
Kind: experiment
Temperature: 298 K
Tabular data in the source: 0
pressure (bar)	uptake (mmol/g)
0	0.017361
0	0.041667
0.096089	0.111094
0.192812	0.170105
0.38609	0.302016
0.774252	0.433893
1.11361	0.572723
1.50266	0.631684
2.20687	0.815589
2.96104	0.898791
4.00668	1.05139
4.93167	1.11025
6.46452	1.26277
6.97618	1.25573
8.46061	1.38395
9.89738	1.42537
11.4552	1.52579
12.9651	1.56372
14.4257	1.6468
15.9357	1.67779
17.9566	1.76077
19.9293	1.80557
