Adsorption isotherm of N-propane on [Co2(ndc)2(bpy)]
DOI: 10.1039/c5sc01796c
Article source: Figure 6c
Adsorbate N-propane: InChIKey ATUOYWHBWRKTHZ-UHFFFAOYSA-N
Kind: experiment
Temperature: 298 K
Tabular data in the source: 0
pressure (bar)	uptake (mmol/g)
0.000506	0.015825
0.045069	0.158406
0.129637	0.301146
0.249652	0.30162
0.413217	0.413027
0.453222	0.413185
0.816306	0.509558
1.01633	0.510349
1.78098	0.655779
2.46107	0.658469
3.22421	0.756425
4.02329	0.72794
4.78643	0.825896
5.54501	0.781428
6.50817	0.880175
7.46879	0.899797
7.98987	0.933504
