Adsorption isotherm of N-propane on [Co2(ndc)2(bpy)]
DOI: 10.1039/c5sc01796c
Article source: Figure 6c
Adsorbate N-propane: InChIKey ATUOYWHBWRKTHZ-UHFFFAOYSA-N
Kind: experiment
Temperature: 298 K
Tabular data in the source: 0
pressure (bar)	uptake (mmol/g)
0	-0.12659
0.173322	0.886762
0.199018	0.000787
0.335811	1.0931
0.43809	0.017556
0.615695	1.17332
0.757274	0.066287
0.974934	1.23803
1.07595	0.08337
1.41454	1.35053
1.59416	0.132888
1.97934	1.82745
2.23227	0.214526
2.61746	1.90909
2.91372	0.517855
3.41403	1.94388
3.79468	0.853618
4.45043	2.04292
5.08452	1.87138
5.80501	2.12739
6.52072	2.08276
7.31906	2.22832
8.03577	2.24698
