Adsorption isotherm of Methane on [Co2(ndc)2(bpy)]
DOI: 10.1039/c5sc01796c
Article source: Figure 6
Adsorbate Methane: InChIKey VNWKTOKETHGBQD-UHFFFAOYSA-N
Kind: experiment
Temperature: 298 K
Tabular data in the source: 0
pressure (bar)	uptake (mmol/g)
0.19802	0.106365
0.39604	0.13926
1.08911	0.221742
1.38614	0.05884
2.17822	0.321035
2.9703	0.199555
4.05941	0.445787
4.9505	0.414225
6.43564	0.579309
6.93069	0.530936
8.41584	0.679693
10	0.673469
12.8713	0.840251
12.9703	0.799555
18.0198	1.01798
20.099	1.05318
