Adsorption isotherm of N-Butane on [Co2(ndc)2(bpy)]
DOI: 10.1039/c5sc01796c
Article source: Figure 6d
Adsorbate N-Butane: InChIKey IJDNQMDRQITEOD-UHFFFAOYSA-N
Kind: experiment
Temperature: 298 K
Tabular data in the source: 0
pressure (bar)	uptake (mmol/g)
0	-0.040888
0.030441	0.023713
0.061753	0.082473
0.130553	0.04824
0.192016	0.119031
0.240619	0.072883
0.381997	0.156286
0.520324	0.117026
0.65342	0.667485
0.798358	0.493995
1.16423	0.801918
1.5221	0.788579
1.78263	0.861695
2.0215	0.864485
