Adsorption isotherm of Carbon Dioxide on [Co2(ndc)2(bpy)]
DOI: 10.1039/c5sc01796c
Article source: Figure S11
Adsorbate Carbon Dioxide: InChIKey CURLTUGMZLYLDI-UHFFFAOYSA-N
Kind: experiment
Temperature: 298 K
Tabular data in the source: 0
pressure (bar)	uptake (mmol/g)
0	-0.059024
0.169721	0.065943
0.484294	0.239499
0.79967	0.347083
1.52753	0.590013
1.96483	0.687159
3.93411	1.00973
6.00205	1.2316
7.97374	1.35625
9.79905	1.4983
11.9418	1.58126
13.9624	1.68508
15.9592	1.74723
17.9072	1.81981
19.9528	1.87501
