Adsorption isotherm of N-Butane on [Co2(ndc)2(bpy)]
DOI: 10.1039/c5sc01796c
Article source: Figure 6d
Adsorbate N-Butane: InChIKey IJDNQMDRQITEOD-UHFFFAOYSA-N
Kind: experiment
Temperature: 298 K
Tabular data in the source: 0
pressure (bar)	uptake (mmol/g)
0.000727	0.029206
0.002034	0.081776
0.043736	0.158175
0.133605	0.170903
0.184678	0.224055
0.243961	0.207229
0.375241	0.284674
0.504486	0.280344
0.665044	0.334774
0.814341	0.336518
1.16415	0.398997
1.5128	0.414748
1.5131	0.42643
1.77246	0.452817
2.01148	0.461448
