Adsorption isotherm of Ethane on [Co2(ndc)2(bpy)]
DOI: 10.1039/c5sc01796c
Article source: Figure 6b
Adsorbate Ethane: InChIKey OTMSDBZUPAUEDD-UHFFFAOYSA-N
Kind: experiment
Temperature: 298 K
Tabular data in the source: 0
pressure (bar)	uptake (mmol/g)
0.095383	-0.059508
0.273998	0.02014
0.450182	0.13952
0.452612	0.099787
0.903402	0.229374
1.17254	0.328979
1.6294	0.359235
2.23755	0.91613
2.87849	0.936634
3.96841	1.11652
4.97874	1.09766
6.53038	1.22834
6.99332	1.15926
8.54557	1.28001
9.92345	1.25158
11.4781	1.33259
12.949	1.28439
14.5036	1.3654
15.9745	1.31719
17.9872	1.4086
19.7309	1.40039
