Adsorption isotherm of Ethane on [Co2(ndc)2(bpy)]
DOI: 10.1039/c5sc01796c
Article source: Figure 6b
Adsorbate Ethane: InChIKey OTMSDBZUPAUEDD-UHFFFAOYSA-N
Kind: experiment
Temperature: 298 K
Tabular data in the source: 0
pressure (bar)	uptake (mmol/g)
0.088723	0.049386
0.08993	0.02965
0.17141	0.197453
0.264961	0.167894
0.529318	0.345656
0.893865	0.385309
1.43586	0.523735
2.16918	0.533965
3.07632	0.702176
3.99131	0.742101
5.99571	0.970064
8.01098	1.0204
10.0196	1.17929
12.0373	1.19015
14.0496	1.28983
16.0678	1.29082
18.0837	1.33129
20.0072	1.38158
