Adsorption isotherm of Water on [Cu3(bpac)3(CO3)2](ClO4)2 H2O
DOI: 10.1039/C4dt02205j
Adsorbate Water: InChIKey XLYOFNOQVPJJNP-UHFFFAOYSA-N
Temperature: 298 K
Tabular data in the source: 0
pressure (bar)	uptake (mol/mol)
-2.0706e-07	0.00305808
0.000539804	0.0275755
0.00101066	0.0734929
0.0016159	0.134714
0.00201966	0.17145
0.00310114	0.199079
0.0045193	0.254263
0.00593725	0.312505
0.0074233	0.364637
0.0109384	0.450606
0.015333	0.545835
0.0208116	0.631995
0.0247304	0.754701
0.0286474	0.904929
