Adsorption isotherm of Carbon Dioxide on [Zn4(dmf)(ur)2(ndc)4]
DOI: 10.1039/c5cc05779e
Article source: Figure 2a
Adsorbate Carbon Dioxide: InChIKey CURLTUGMZLYLDI-UHFFFAOYSA-N
Kind: experiment
Temperature: 273 K
Tabular data in the source: 0
pressure (bar)	uptake (ml/g)
0.016736	1.05882
0.020921	1.41176
0.033473	1.76471
0.046025	2.47059
0.062761	3.52941
0.079498	4.23529
0.100418	5.29412
0.129707	7.05882
0.154812	8.11765
0.175732	9.88235
0.200837	10.5882
0.221757	11.6471
0.225941	12.3529
0.25523	13.7647
0.271967	13.7647
0.276151	15.1765
0.301255	15.1765
0.32636	16.9412
0.372385	18.7059
0.376569	19.4118
0.426778	21.1765
0.476987	23.6471
0.518828	25.7647
0.531381	25.0588
0.573222	27.5294
0.58159	27.1765
0.610879	29.6471
0.631799	29.6471
0.665272	32.1176
0.677824	31.7647
0.715481	34.2353
0.732218	33.8824
0.769874	36
0.786611	36
0.83682	38.1176
0.866109	39.5294
0.887029	39.8824
0.941423	42.3529
0.949791	43.0588
0.987448	44.1176
