Adsorption isotherm of Carbon Dioxide on [Zn11(H2O)2(ur)4(bpdc)11]
DOI: 10.1039/c5cc05779e
Article source: Figure 2b
Adsorbate Carbon Dioxide: InChIKey CURLTUGMZLYLDI-UHFFFAOYSA-N
Kind: experiment
Temperature: 273 K
Tabular data in the source: 0
pressure (bar)	uptake (ml/g)
0.012713	0.173938
0.038034	0.867484
0.0591	1.56066
0.084447	2.16779
0.109821	2.6885
0.130887	3.38168
0.164797	3.81671
0.17751	3.99065
0.198708	4.25174
0.21565	4.51246
0.224134	4.59962
0.253789	5.03428
0.274986	5.29537
0.291876	5.72893
0.330094	5.99149
0.376743	6.51404
0.427596	7.20979
0.478448	7.90554
0.520895	8.25489
0.529458	8.08279
0.576082	8.69176
0.584566	8.77891
0.622757	9.12789
0.631242	9.21505
0.673689	9.56439
0.682199	9.56513
0.728875	10.0013
0.775577	10.351
0.784061	10.4381
0.826456	10.9603
0.860445	11.1361
0.881668	11.3108
0.932626	11.6608
0.945365	11.7484
0.987865	11.9249
