Adsorption isotherm of Ethene on [Zn11(H2O)2(ur)4(bpdc)11]
DOI: 10.1039/c5cc05779e
Article source: Figure 2b
Adsorbate Ethene: InChIKey VGGSQFUCUMXWEO-UHFFFAOYSA-N
Kind: experiment
Temperature: 273 K
Tabular data in the source: 0
pressure (bar)	uptake (ml/g)
0.008327	0.605658
0.016364	2.16191
0.021066	0.693179
0.037378	3.02792
0.03785	1.47241
0.058365	3.98035
0.058916	2.16559
0.079483	4.5007
0.092721	2.94628
0.109059	5.19461
0.118121	3.38058
0.130178	5.71495
0.143495	3.90129
0.151349	6.06246
0.168895	4.33558
0.176749	6.49676
0.19855	4.77025
0.219695	5.20417
0.231777	7.45213
0.249402	5.466
0.270573	5.81351
0.28263	8.14788
0.295973	6.2478
0.325051	8.58365
0.325655	6.59604
0.3717	9.1062
0.372331	7.03218
0.422605	9.62911
0.423157	7.81435
0.469281	10.0652
0.478291	8.42405
0.515957	10.5014
0.524967	8.86018
0.562686	10.7647
0.580074	9.5563
0.613564	11.374
0.626724	10.0789
0.664495	11.8105
0.681831	10.775
0.728507	11.2111
0.762155	12.5103
0.779438	11.6476
0.834572	12.2573
0.859841	13.1237
0.881169	12.9527
0.936382	13.3031
0.949043	13.6499
0.991568	13.74
