Adsorption isotherm of Ethene on [Zn4(dmf)(ur)2(ndc)4]
DOI: 10.1039/c5cc05779e
Article source: Figure 2c
Adsorbate Ethene: InChIKey VGGSQFUCUMXWEO-UHFFFAOYSA-N
Kind: experiment
Temperature: 298 K
Tabular data in the source: 0
pressure (bar)	uptake (ml/g)
0.012658	0.4375
0.016878	1.09375
0.029536	1.75
0.042194	2.1875
0.059072	2.84375
0.075949	3.28125
0.101266	4.59375
0.105485	5.03125
0.122363	5.6875
0.126582	6.34375
0.147679	6.78125
0.177215	7.65625
0.198312	8.96875
0.227848	10.0625
0.253165	10.9375
0.274262	12.0312
0.324895	13.5625
0.375527	15.0938
0.421941	16.625
0.472574	18.5938
0.476793	18.5938
0.518987	19.9062
0.527426	20.125
0.565401	21.2188
0.578059	21.6562
0.611814	22.75
0.628692	23.1875
0.666667	24.2812
0.683544	24.5
0.734177	25.5938
0.767932	27.125
0.78481	27.3438
0.835443	28.875
0.864979	29.3125
0.890295	30.1875
0.940928	31.5
0.949367	31.9375
0.987342	33.0312
