Adsorption isotherm of Nitrogen on [Zn11(H2O)2(ur)4(bpdc)11]
DOI: 10.1039/c5cc05779e
Article source: Figure S3
Adsorbate Nitrogen: InChIKey IJGRMHOSHXDMSA-UHFFFAOYSA-N
Kind: experiment
Temperature: 77 K
Tabular data in the source: 0
pressure (bar)	uptake (ml/g)
0.002548	148.958
0.005096	152.778
0.006369	145.139
0.007643	155.208
0.015287	154.514
0.01656	160.417
0.021656	162.847
0.031847	160.417
0.034395	165.625
0.056051	163.889
0.057325	169.097
0.087898	170.833
0.092994	167.014
0.110828	171.875
0.121019	168.056
0.135032	172.569
0.141401	168.75
0.159236	173.611
0.165605	169.792
0.182166	173.958
0.192357	170.139
0.206369	174.653
0.217834	170.833
0.231847	175
0.243312	171.181
0.256051	175.347
0.270064	171.875
0.280255	175.694
0.295541	172.222
0.321019	172.569
0.329936	176.042
0.371975	173.264
0.379618	176.736
0.42293	174.306
0.428025	177.083
0.473885	174.306
0.477707	177.083
0.524841	178.125
0.574522	178.472
0.57707	175.347
0.624204	178.472
0.628025	176.042
0.673885	178.819
0.678981	176.389
0.722293	179.167
0.728662	176.389
0.770701	179.514
0.780892	177.083
0.817834	179.167
0.830573	177.431
0.871338	179.514
0.881529	178.125
0.932484	178.819
0.963057	180.208
0.984713	179.167
