Adsorption isotherm of Carbon Dioxide on [Zn4(dmf)(ur)2(ndc)4]
DOI: 10.1039/c5cc05779e
Article source: Figure 2c
Adsorbate Carbon Dioxide: InChIKey CURLTUGMZLYLDI-UHFFFAOYSA-N
Kind: experiment
Temperature: 298 K
Tabular data in the source: 0
pressure (bar)	uptake (ml/g)
0.033755	0.4375
0.059072	1.3125
0.07173	1.75
0.105485	2.40625
0.151899	3.71875
0.156118	3.5
0.181435	4.375
0.227848	5.46875
0.278481	6.5625
0.324895	7.65625
0.375527	8.75
0.421941	10.0625
0.476793	11.1563
0.481013	11.1563
0.518987	12.4688
0.527426	12.4688
0.56962	13.125
0.582278	13.5625
0.616034	14.4375
0.632911	14.875
0.670886	15.5313
0.683544	15.9688
0.734177	17.0625
0.763713	17.7188
0.78903	18.1563
0.835443	19.4688
0.860759	19.9063
0.890295	20.5625
0.940928	21.6563
0.949367	21.875
0.991561	22.9688
