Adsorption isotherm of Carbon monoxide on [Zn4(dmf)(ur)2(ndc)4]
DOI: 10.1039/c5cc05779e
Article source: Figure 2c
Adsorbate Carbon monoxide: InChIKey UGFAIRIUMAVXCW-UHFFFAOYSA-N
Kind: experiment
Temperature: 298 K
Tabular data in the source: 0
pressure (bar)	uptake (ml/g)
0.080169	0.21875
0.113924	0.21875
0.126582	0.21875
0.151899	0.4375
0.172996	0.4375
0.223629	0.4375
0.274262	0.65625
0.278481	0.875
0.320675	0.65625
0.329114	0.875
0.367089	0.65625
0.379747	1.09375
0.413502	1.09375
0.43038	1.09375
0.468354	1.09375
0.485232	1.53125
0.514768	1.09375
0.535865	1.75
0.565401	1.3125
0.586498	1.75
0.616034	1.75
0.637131	1.96875
0.679325	2.1875
0.708861	1.96875
0.738397	2.1875
0.793249	2.40625
0.805907	2.40625
0.835443	2.625
0.890295	2.84375
0.902954	2.625
0.945148	2.84375
0.995781	3.28125
