Adsorption isotherm of Carbon monoxide on [Zn11(H2O)2(ur)4(bpdc)11]
DOI: 10.1039/c5cc05779e
Article source: Figure 2d
Adsorbate Carbon monoxide: InChIKey UGFAIRIUMAVXCW-UHFFFAOYSA-N
Kind: experiment
Temperature: 298 K
Tabular data in the source: 0
pressure (bar)	uptake (ml/g)
0.030837	0.075472
0.057269	0.075472
0.079295	0.075472
0.105727	0.075472
0.136564	0
0.15859	0
0.180617	0.150943
0.202643	0.075472
0.229075	0.150943
0.273128	0.226415
0.299559	0.150943
0.321586	0.226415
0.374449	0.226415
0.422907	0.377358
0.471366	0.377358
0.480176	0.301887
0.519824	0.528302
0.528634	0.377358
0.568282	0.377358
0.581498	0.377358
0.61674	0.603774
0.629956	0.603774
0.669604	0.754717
0.682819	0.679245
0.735683	0.90566
0.762115	0.90566
0.784141	0.981132
0.837004	1.13208
0.863436	1.0566
0.885463	1.13208
0.938326	1.35849
0.951542	1.28302
0.986784	1.43396
