Adsorption isotherm of Ethene on [Zn11(H2O)2(ur)4(bpdc)11]
DOI: 10.1039/c5cc05779e
Article source: Figure 2d
Adsorbate Ethene: InChIKey VGGSQFUCUMXWEO-UHFFFAOYSA-N
Kind: experiment
Temperature: 298 K
Tabular data in the source: 0
pressure (bar)	uptake (ml/g)
0.013216	1.13208
0.017621	0.377358
0.030837	1.81132
0.039648	0.754717
0.052863	1.20755
0.057269	2.41509
0.0837	2.86792
0.092511	1.73585
0.110132	3.32075
0.118943	1.96226
0.127753	3.77358
0.140969	2.33962
0.154185	4.07547
0.162996	2.56604
0.176211	4.45283
0.193833	2.9434
0.215859	3.39623
0.229075	5.0566
0.242291	3.62264
0.273128	3.84906
0.277533	5.35849
0.295154	4.15094
0.321586	4.37736
0.325991	5.88679
0.374449	6.33962
0.422907	5.28302
0.427313	6.71698
0.471366	7.16981
0.475771	5.81132
0.519824	7.54717
0.524229	6.33962
0.568282	7.84906
0.577093	6.86792
0.61674	8.22642
0.629956	7.24528
0.669604	8.67925
0.682819	7.69811
0.735683	8.22642
0.76652	9.35849
0.784141	8.67925
0.837004	9.13208
0.867841	9.96226
0.889868	9.73585
0.942731	10.0377
0.951542	10.4151
0.991189	10.2642
