Adsorption isotherm of Carbon monoxide on [Zn11(H2O)2(ur)4(bpdc)11]
DOI: 10.1039/c5cc05779e
Article source: Figure 2b
Adsorbate Carbon monoxide: InChIKey UGFAIRIUMAVXCW-UHFFFAOYSA-N
Kind: experiment
Temperature: 273 K
Tabular data in the source: 0
pressure (bar)	uptake (ml/g)
0.046781	0.090463
0.055291	0.091198
0.089333	0.09414
0.110609	0.095979
0.144625	0.185338
0.170182	0.101127
0.191432	0.189383
0.216937	0.278007
0.233958	0.279478
0.259489	0.281684
0.27651	0.283155
0.302041	0.285362
0.310551	0.286097
0.323343	0.200783
0.374379	0.291613
0.425337	0.641696
0.425363	0.555278
0.47217	0.559323
0.476373	0.732526
0.523233	0.563736
0.531665	0.823724
0.574269	0.654566
0.58278	0.655302
0.621076	0.658612
0.633789	0.83255
0.667831	0.835492
0.680571	0.923012
0.735888	0.927793
0.761472	0.757164
0.782669	1.01826
0.837961	1.10945
0.863492	1.11166
0.888971	1.2867
0.931523	1.29038
0.94857	1.20543
0.986814	1.38158
