Adsorption isotherm of Carbon monoxide on [Zn4(dmf)(ur)2(ndc)4]
DOI: 10.1039/c5cc05779e
Article source: Figure 2a
Adsorbate Carbon monoxide: InChIKey UGFAIRIUMAVXCW-UHFFFAOYSA-N
Kind: experiment
Temperature: 273 K
Tabular data in the source: 0
pressure (bar)	uptake (ml/g)
0.058577	0.375826
0.087866	0.386225
0.112971	0.395138
0.146444	0.407021
0.167364	0.414449
0.196653	0.424847
0.209205	0.429304
0.25523	0.800673
0.259414	0.802159
0.297071	1.17056
0.309623	0.464955
0.355649	0.836325
0.384937	1.55678
0.410042	1.21067
0.430962	1.92815
0.476987	1.94449
0.51046	1.60135
0.531381	1.9638
0.585774	2.33814
0.606695	2.7006
0.635983	2.711
0.694561	3.08683
0.715481	2.38419
0.736402	3.45671
0.794979	3.47751
0.807531	3.12693
0.832636	3.49088
0.891213	3.8667
0.912134	3.87413
0.941423	3.88453
0.995816	3.90384
