Adsorption isotherm of Ethene on [Zn4(dmf)(ur)2(ndc)4]
DOI: 10.1039/c5cc05779e
Article source: Figure 2a
Adsorbate Ethene: InChIKey VGGSQFUCUMXWEO-UHFFFAOYSA-N
Kind: experiment
Temperature: 273 K
Tabular data in the source: 0
pressure (bar)	uptake (ml/g)
0.029289	4.58824
0.058577	7.05882
0.079498	9.17647
0.09205	9.17647
0.104603	11.2941
0.108787	11.2941
0.125523	13.4118
0.138075	13.7647
0.158996	15.1765
0.171548	15.1765
0.196653	16.9412
0.200837	18.7059
0.217573	18.3529
0.230126	20.4706
0.242678	20.1176
0.276151	22.9412
0.301255	23.2941
0.322176	24
0.32636	26.4706
0.372385	27.1765
0.376569	29.2941
0.422594	30
0.426778	31.7647
0.472803	34.5882
0.476987	32.1176
0.523013	36.7059
0.569038	38.8235
0.577406	37.0588
0.619247	41.2941
0.627615	39.8824
0.665272	43.4118
0.677824	42
0.715481	45.5294
0.769874	48
0.782427	46.5882
0.83682	49.0588
0.866109	51.5294
0.882845	51.1765
0.937238	53.6471
0.953975	54.7059
0.991632	55.4118
