Adsorption isotherm of Carbon Dioxide on [Zn11(H2O)2(ur)4(bpdc)11]
DOI: 10.1039/c5cc05779e
Article source: Figure 2d
Adsorbate Carbon Dioxide: InChIKey CURLTUGMZLYLDI-UHFFFAOYSA-N
Kind: experiment
Temperature: 298 K
Tabular data in the source: 0
pressure (bar)	uptake (ml/g)
0.039648	0.377358
0.061674	0.679245
0.07489	0.90566
0.101322	1.13208
0.123348	1.13208
0.145374	1.35849
0.162996	1.58491
0.171806	1.81132
0.202643	1.88679
0.220264	2.26415
0.22467	2.03774
0.273128	2.49057
0.321586	3.01887
0.365639	3.32075
0.374449	3.16981
0.414097	3.77358
0.427313	3.62264
0.462555	4
0.475771	3.92453
0.511013	4.37736
0.528634	4.22642
0.563877	4.5283
0.581498	4.60377
0.638767	5.0566
0.660793	5.13208
0.682819	5.28302
0.735683	5.58491
0.757709	5.81132
0.788546	5.81132
0.828194	6.18868
0.854626	6.33962
0.889868	6.41509
0.942731	6.79245
0.951542	7.16981
0.986784	7.24528
