Adsorption isotherm of Methane on NPC-7-Cu
DOI: 10.1021/acsami.5b07953
Article source: Figure 6c
Adsorbate Methane: InChIKey VNWKTOKETHGBQD-UHFFFAOYSA-N
Kind: experiment
Temperature: 293 K
Tabular data in the source: 0
pressure (bar)	uptake (mmol/g)
0	0
0.465116	0.344828
0.863787	0.625
1.39535	0.862069
1.86047	1.05603
2.99003	1.42241
3.85382	1.72414
4.8505	1.98276
5.98007	2.26293
7.04319	2.4569
7.90698	2.65086
8.9701	2.86638
9.96678	3.01724
10.9635	3.18966
11.9601	3.31897
12.9568	3.46983
14.0199	3.59914
14.9502	3.75
15.9468	3.85776
16.9435	3.98707
17.9402	4.09483
19.0033	4.20259
20	4.28879
