Adsorption isotherm of Nitrogen on NPC-7-Cu
DOI: 10.1021/acsami.5b07953
Article source: Figure 5a
Adsorbate Nitrogen: InChIKey IJGRMHOSHXDMSA-UHFFFAOYSA-N
Kind: experiment
Temperature: 77 K
Tabular data in the source: 0
pressure (bar)	uptake (mmol/g)
0	0
0.001689	5.5677
0.001889	6.22704
0.005056	6.66648
0.011246	7.06919
0.020447	7.39853
0.032659	7.6545
0.038749	7.72754
0.057006	7.91003
0.078286	8.05578
0.1026	8.20142
0.151193	8.38281
0.202799	8.49084
0.302954	8.63374
0.400064	8.74012
0.503231	8.80965
0.600329	8.8794
0.703495	8.94893
0.803628	9.01857
0.90375	9.05158
0.99477	9.08492
