Adsorption isotherm of Carbon Dioxide on NPC-7-Cu
DOI: 10.1021/acsami.5b07953
Article source: Figure 6b
Adsorbate Carbon Dioxide: InChIKey CURLTUGMZLYLDI-UHFFFAOYSA-N
Kind: experiment
Temperature: 273 K
Tabular data in the source: 0
pressure (bar)	uptake (mmol/g)
0	0
0.13245	0.692927
0.198675	1.16926
0.331126	1.68903
0.397351	2.03549
0.529801	2.55526
0.728477	2.81543
0.794702	3.07531
0.860927	3.20533
0.993377	3.42206
1.52318	4.07256
2.11921	4.67991
3.04636	5.24469
3.97351	5.59302
4.96689	6.02807
6.02649	6.20352
7.01987	6.42212
8.01325	6.68401
9.07285	6.85947
10	6.99134
10.9934	7.20994
12.053	7.29882
13.0464	7.47413
13.9735	7.606
15.0331	7.73817
15.9603	7.87004
17.0199	8.00221
18.0132	8.17752
19.0728	8.35297
20	8.48485
