Adsorption isotherm of Methane on NPC-7-Cu
DOI: 10.1021/acsami.5b07953
Article source: Figure 6c
Adsorbate Methane: InChIKey VNWKTOKETHGBQD-UHFFFAOYSA-N
Kind: experiment
Temperature: 303 K
Tabular data in the source: 0
pressure (bar)	uptake (mmol/g)
0	0
0.265781	0.193966
0.465116	0.280172
0.598007	0.387931
0.797342	0.517241
1.46179	0.689655
1.92691	0.883621
2.92359	1.2069
3.92027	1.46552
4.98339	1.74569
5.98007	1.93966
6.97674	2.15517
7.90698	2.34914
8.9701	2.5431
9.96678	2.69397
10.9635	2.88793
11.9601	3.01724
13.0233	3.1681
13.9535	3.29741
15.0166	3.42672
16.0797	3.55603
17.0764	3.66379
18.0066	3.7931
19.0033	3.87931
20.0664	4.00862
