Adsorption isotherm of Nitrogen on NPC-7-Zn
DOI: 10.1021/acsami.5b07953
Article source: Figure 5a
Adsorbate Nitrogen: InChIKey IJGRMHOSHXDMSA-UHFFFAOYSA-N
Kind: experiment
Temperature: 77 K
Tabular data in the source: 0
pressure (bar)	uptake (mmol/g)
0	0
4.5e-05	0.147059
0.018258	0.183824
0.03646	0.183824
0.048628	0.294118
0.057707	0.220588
0.078954	0.257353
0.100201	0.294118
0.14874	0.294118
0.197279	0.294118
0.297401	0.330882
0.397524	0.367647
0.497635	0.367647
0.597758	0.404412
0.700926	0.477941
0.798003	0.477941
0.90116	0.514706
1.00132	0.661765
