Adsorption isotherm of Carbon Dioxide on NPC-7-Zn
DOI: 10.1021/acsami.5b07953
Article source: Figure 6b
Adsorbate Carbon Dioxide: InChIKey CURLTUGMZLYLDI-UHFFFAOYSA-N
Kind: experiment
Temperature: 293 K
Tabular data in the source: 0
pressure (bar)	uptake (mmol/g)
0	0
0.066225	0.12931
0.13245	0.258621
0.264901	0.344828
0.463576	0.474138
0.728477	0.560345
1.0596	0.646552
1.52318	0.775862
2.05298	0.862069
2.98013	0.991379
3.97351	1.07759
5.03311	1.12069
6.02649	1.2069
7.01987	1.25
8.01325	1.2931
9.00662	1.33621
10	1.42241
10.9934	1.46552
12.053	1.50862
13.0464	1.55172
14.0397	1.59483
15.0331	1.59483
16.0927	1.63793
17.0199	1.72414
18.0132	1.72414
19.0728	1.76724
20.0662	1.81034
