Adsorption isotherm of Carbon Dioxide on NPC-7-Cu
DOI: 10.1021/acsami.5b07953
Article source: Figure 6b
Adsorbate Carbon Dioxide: InChIKey CURLTUGMZLYLDI-UHFFFAOYSA-N
Kind: experiment
Temperature: 303 K
Tabular data in the source: 0
pressure (bar)	uptake (mmol/g)
0	0
0.331126	0.779938
0.662252	1.34342
0.927152	1.82019
1.65563	2.47112
2.05298	2.86159
3.04636	3.51309
4.03974	3.99143
4.96689	4.42634
6.02649	4.68837
7.01987	4.95026
8.01325	5.16886
9.00662	5.38746
10.0662	5.6062
11.0596	5.73822
11.9868	5.91339
13.0464	6.08884
14.106	6.2643
15.0993	6.35303
15.9603	6.52805
17.0199	6.61693
18.0795	6.74909
19.0728	6.88111
20.0662	7.01313
