Adsorption isotherm of Carbon Dioxide on NPC-7-Cu
DOI: 10.1021/acsami.5b07953
Article source: Figure 6b
Adsorbate Carbon Dioxide: InChIKey CURLTUGMZLYLDI-UHFFFAOYSA-N
Kind: experiment
Temperature: 293 K
Tabular data in the source: 0
pressure (bar)	uptake (mmol/g)
0	0
0.331126	0.996388
0.529801	1.38643
0.728477	1.99292
1.0596	2.25338
1.5894	2.99045
1.98675	3.33763
2.98013	4.07571
4.03974	4.59749
5.03311	4.90267
6.02649	5.20785
7.01987	5.51303
7.94702	5.64491
8.87417	5.86336
10.0662	6.08239
10.9272	6.21413
11.9868	6.43287
12.9801	6.5216
13.9073	6.69677
15.0331	6.82908
16.0927	6.96124
16.9536	7.09297
18.0132	7.22514
19.0066	7.31387
20	7.48918
