Adsorption isotherm of Methane on NPC-7-Zn
DOI: 10.1021/acsami.5b07953
Article source: Figure 6c
Adsorbate Methane: InChIKey VNWKTOKETHGBQD-UHFFFAOYSA-N
Kind: experiment
Temperature: 273 K
Tabular data in the source: 0
pressure (bar)	uptake (mmol/g)
0.398671	0.021552
0.730897	0.086207
0.930233	0.107759
1.46179	0.172414
2.0598	0.237069
2.99003	0.301724
3.92027	0.387931
4.91694	0.474138
5.91362	0.517241
6.9103	0.581897
7.90698	0.668103
9.90033	0.775862
10.9635	0.818966
11.9601	0.862069
12.8904	0.905172
14.0199	0.948276
14.9502	0.991379
16.0133	1.03448
17.01	1.07759
18.0731	1.12069
19.0033	1.16379
20	1.2069
