Adsorption isotherm of Hydrogen on NPC-7-Zn
DOI: 10.1021/acsami.5b07953
Article source: Figure 6a
Adsorbate Hydrogen: InChIKey UFHFLCQGNIYNRP-UHFFFAOYSA-N
Kind: experiment
Temperature: 77 K
Tabular data in the source: 0
pressure (bar)	uptake (mmol/g)
0	0
0.13245	0.046729
0.331126	0.093458
0.596026	0.128505
0.794702	0.175234
1.0596	0.175234
1.5894	0.186916
1.92053	0.221963
3.04636	0.257009
4.10596	0.268692
5.03311	0.303738
6.02649	0.315421
7.08609	0.36215
8.01325	0.373832
9.00662	0.397196
10.1325	0.432243
10.9272	0.443925
12.053	0.46729
12.9801	0.502336
13.9073	0.514019
15.0331	0.537383
16.0265	0.549065
16.9536	0.57243
18.0795	0.584112
19.0066	0.607477
20.0662	0.630841
