Adsorption isotherm of Hydrogen on NPC-7-Cu
DOI: 10.1021/acsami.5b07953
Article source: Figure 6a
Adsorbate Hydrogen: InChIKey UFHFLCQGNIYNRP-UHFFFAOYSA-N
Kind: experiment
Temperature: 77 K
Tabular data in the source: 0
pressure (bar)	uptake (mmol/g)
0	0
0.13245	0.420561
0.198675	0.619159
0.264901	0.700935
0.331126	0.829439
0.463576	0.911215
0.596026	1.02804
0.728477	1.10981
0.860927	1.16822
1.0596	1.21495
1.52318	1.36682
2.05298	1.47196
2.98013	1.58879
3.97351	1.70561
4.96689	1.78738
6.02649	1.86916
7.01987	1.93925
8.01325	1.99766
9.00662	2.05607
10.0662	2.11449
11.0596	2.1729
12.053	2.20794
13.0464	2.23131
13.9735	2.28972
15.0331	2.32477
16.0265	2.35981
17.0199	2.39486
17.947	2.42991
19.0066	2.46495
20	2.48832
