Adsorption isotherm of Methane on NPC-7-Cu
DOI: 10.1021/acsami.5b07953
Article source: Figure 6c
Adsorbate Methane: InChIKey VNWKTOKETHGBQD-UHFFFAOYSA-N
Kind: experiment
Temperature: 273 K
Tabular data in the source: 0
pressure (bar)	uptake (mmol/g)
0	0
0.199336	0.323061
0.332226	0.47378
0.531561	0.602875
0.797342	0.775003
0.996678	0.882547
1.52824	1.20525
1.86047	1.48506
2.92359	1.91495
3.98671	2.30174
4.91694	2.60246
6.04651	2.85986
6.97674	3.11748
8.03987	3.3103
8.9701	3.48171
9.96678	3.65305
11.0299	3.82432
12.0266	3.97411
13.0233	4.10235
13.9535	4.23065
15.0166	4.33727
15.9468	4.42247
17.01	4.57219
18.0731	4.6788
19.0698	4.76393
20.0664	4.87062
