Adsorption isotherm of Carbon Dioxide on NPC-7-Zn
DOI: 10.1021/acsami.5b07953
Article source: Figure 6b
Adsorbate Carbon Dioxide: InChIKey CURLTUGMZLYLDI-UHFFFAOYSA-N
Kind: experiment
Temperature: 273 K
Tabular data in the source: 0
pressure (bar)	uptake (mmol/g)
0	0
0.198675	0.476621
0.397351	0.563631
0.596026	0.650641
0.927152	0.737938
1.52318	0.869098
2.05298	1.00011
2.91391	1.08856
4.03974	1.13429
5.03311	1.22302
6.09272	1.35518
6.95364	1.40033
8.01325	1.44592
9.00662	1.49136
10	1.5368
10.9934	1.62553
11.9205	1.62753
13.1126	1.71669
14.106	1.80542
15.0993	1.80757
16.0927	1.85301
17.0199	1.89831
18.0132	1.98704
19.0066	1.98919
20.0662	2.07807
