Adsorption isotherm of Methane on NPC-7-Cu
DOI: 10.1021/acsami.5b07953
Article source: Figure 6c
Adsorbate Methane: InChIKey VNWKTOKETHGBQD-UHFFFAOYSA-N
Kind: experiment
Temperature: 283 K
Tabular data in the source: 0
pressure (bar)	uptake (mmol/g)
0	0
0.199336	0.237069
0.398671	0.366379
0.531561	0.49569
0.730897	0.603448
0.996678	0.75431
1.46179	1.01293
1.99336	1.25
3.12292	1.76724
4.98339	2.26293
5.98007	2.5431
7.04319	2.73707
7.90698	2.93103
8.90365	3.125
10.0332	3.34052
11.0299	3.49138
11.9601	3.64224
12.9568	3.75
13.9535	3.90086
15.0166	4.03017
15.9468	4.13793
17.01	4.26724
17.9402	4.375
19.0033	4.46121
20.0664	4.54741
