Adsorption isotherm of Carbon Dioxide on NPC-7-Cu
DOI: 10.1021/acsami.5b07953
Article source: Figure 6b
Adsorbate Carbon Dioxide: InChIKey CURLTUGMZLYLDI-UHFFFAOYSA-N
Kind: experiment
Temperature: 283 K
Tabular data in the source: 0
pressure (bar)	uptake (mmol/g)
0	0
0.198675	1.16926
0.529801	1.99249
0.794702	2.38267
0.993377	2.816
1.52318	3.50979
2.05298	3.98713
2.91391	4.55176
3.90728	5.07339
4.96689	5.42201
6.02649	5.77062
6.88742	5.94564
7.94702	6.16439
9.00662	6.33984
10	6.55844
10.9934	6.69046
11.9868	6.86577
13.0464	6.99794
14.0397	7.17325
14.9669	7.30512
16.0265	7.43729
16.9536	7.56916
17.947	7.70118
19.0066	7.83335
20.0662	7.96551
