Adsorption isotherm of Hydrogen on MOF-5-NP
DOI: 10.1016/j.matchemphys.2013.10.038
Adsorbate Hydrogen: InChIKey UFHFLCQGNIYNRP-UHFFFAOYSA-N
Temperature: 77 K
Tabular data in the source: 0
pressure (bar)	uptake (wt%)
0.0989209	0.164884
0.124101	0.204971
0.152878	0.235984
0.17446	0.258118
0.203237	0.289131
0.226619	0.320241
0.251799	0.346814
0.273381	0.368948
0.296763	0.395554
0.32554	0.422062
0.350719	0.444131
0.374101	0.457223
0.399281	0.474788
0.422662	0.492384
0.44964	0.509916
0.478417	0.53192
0.498201	0.545077
0.52518	0.562609
0.55036	0.575669
0.577338	0.588697
0.602518	0.601756
0.627698	0.619321
0.652878	0.632381
0.679856	0.640903
0.694245	0.640644
0.72482	0.653607
0.748201	0.666699
0.77518	0.675222
0.803957	0.683712
0.829137	0.701277
0.848921	0.705425
0.877698	0.713915
0.899281	0.718031
0.926259	0.726554
0.94964	0.735142
0.973022	0.743729
1.0018	0.75222
