Adsorption isotherm of Nitrogen on MOF-5-BPO
DOI: 10.1016/j.matchemphys.2013.10.038
Adsorbate Nitrogen: InChIKey IJGRMHOSHXDMSA-UHFFFAOYSA-N
Temperature: 77 K
Tabular data in the source: 0
pressure (bar)	uptake (cm3(STP)/g)
3.72706e-05	17.4757
7.45411e-05	46.6019
0.000149083	75.7282
0.000335436	93.2039
0.00059633	101.942
0.000745411	107.767
0.000969035	116.505
0.00290711	206.796
0.00491972	460.194
0.00685778	541.748
0.00875859	576.699
0.00980215	585.437
