Adsorption isotherm of Nitrogen on MOF-5-NP
DOI: 10.1016/j.matchemphys.2013.10.038
Adsorbate Nitrogen: InChIKey IJGRMHOSHXDMSA-UHFFFAOYSA-N
Temperature: 77 K
Tabular data in the source: 0
pressure (bar)	uptake (cm3(STP)/g)
0.000186353	58.2524
0.000335436	69.9029
0.000559059	75.7282
0.000782683	81.5534
0.00100631	87.3786
0.00286983	157.282
0.00488245	329.126
0.00685778	387.379
0.00872132	410.68
0.00980215	416.505
