Adsorption isotherm of Nitrogen on MOF-5-H2O2
DOI: 10.1016/j.matchemphys.2013.10.038
Adsorbate Nitrogen: InChIKey IJGRMHOSHXDMSA-UHFFFAOYSA-N
Temperature: 77 K
Tabular data in the source: 0
pressure (bar)	uptake (cm3(STP)/g)
0.000186353	64.0777
0.000372706	78.6408
0.0006336	87.3786
0.000819953	90.2913
0.00100631	96.1165
0.00290711	177.67
0.00484517	396.117
0.00689506	466.019
0.00875859	492.233
0.00976494	500.971
