Adsorption isotherm of Hydrogen on MOF-5-BPO (cBPO = .04 M)
DOI: 10.1016/j.matchemphys.2013.10.038
Adsorbate Hydrogen: InChIKey UFHFLCQGNIYNRP-UHFFFAOYSA-N
Temperature: 77 K
Tabular data in the source: 0
pressure (bar)	uptake (wt%)
0.0233813	0.0581373
0.0503597	0.120714
0.0755396	0.174315
0.100719	0.22341
0.122302	0.272571
0.149281	0.31713
0.176259	0.361689
0.197842	0.397336
0.22482	0.432886
0.255396	0.468371
0.27518	0.504051
0.302158	0.535096
0.323741	0.561734
0.350719	0.59278
0.375899	0.619353
0.399281	0.654968
0.426259	0.6725
0.453237	0.703545
0.476619	0.721142
0.501799	0.747715
0.528777	0.769752
0.553957	0.791821
0.577338	0.813922
0.604317	0.835958
0.625899	0.853587
0.651079	0.875656
0.678058	0.893188
0.701439	0.90628
0.730216	0.937293
0.751799	0.950418
0.778777	0.972454
0.805755	0.985482
0.830935	0.994037
0.850719	1.0162
0.875899	1.03377
0.902878	1.04679
0.92446	1.05992
0.953237	1.07742
0.976619	1.08601
0.998201	1.09463
