Adsorption isotherm of Hydrogen on MOF-5-BPO (cBPO = .06 M)
DOI: 10.1016/j.matchemphys.2013.10.038
Adsorbate Hydrogen: InChIKey UFHFLCQGNIYNRP-UHFFFAOYSA-N
Temperature: 77 K
Tabular data in the source: 0
pressure (bar)	uptake (wt%)
0.0233813	0.0941733
0.0485612	0.161287
0.0755396	0.223864
0.100719	0.281969
0.125899	0.32656
0.151079	0.375656
0.17446	0.424784
0.197842	0.464904
0.22482	0.509463
0.25	0.545045
0.27518	0.580627
0.302158	0.611673
0.32554	0.651792
0.350719	0.678365
0.374101	0.709476
0.399281	0.740554
0.426259	0.767094
0.451439	0.793668
0.473022	0.815801
0.501799	0.84231
0.523381	0.873453
0.552158	0.895457
0.577338	0.917525
0.600719	0.944131
0.624101	0.961728
0.651079	0.988269
0.67446	1.00587
0.703237	1.02337
0.72482	1.04099
0.75	1.06306
0.776978	1.0851
0.80036	1.09819
0.82554	1.12026
0.848921	1.13335
0.875899	1.15088
0.897482	1.16401
0.928058	1.18148
0.956835	1.20348
0.976619	1.22114
0.994604	1.22532
