Adsorption isotherm of Hydrogen on MOF-5-H2O2
DOI: 10.1016/j.matchemphys.2013.10.038
Adsorbate Hydrogen: InChIKey UFHFLCQGNIYNRP-UHFFFAOYSA-N
Temperature: 77 K
Tabular data in the source: 0
pressure (bar)	uptake (wt%)
0.0467626	0.093752
0.073741	0.142815
0.0971223	0.182935
0.122302	0.227526
0.147482	0.263108
0.17446	0.303163
0.197842	0.334273
0.223022	0.369855
0.25	0.391892
0.27518	0.413961
0.298561	0.445071
0.32554	0.471612
0.352518	0.498153
0.375899	0.51575
0.401079	0.533314
0.428058	0.55535
0.44964	0.577484
0.478417	0.594983
0.5	0.617117
0.526978	0.639154
0.55036	0.652246
0.577338	0.669778
0.602518	0.687342
0.625899	0.709443
0.652878	0.722471
0.678058	0.73553
0.703237	0.74859
0.726619	0.766187
0.751799	0.783751
0.77518	0.792339
0.803957	0.805334
0.829137	0.813889
0.850719	0.827014
0.879496	0.840009
0.904676	0.853069
0.928058	0.861657
0.955036	0.874684
0.976619	0.887809
0.996403	0.891957
