Adsorption isotherm of Nitrogen on Zn4O*H2O*DEF2
DOI: 10.1021/Ja808853q
Adsorbate Nitrogen: InChIKey IJGRMHOSHXDMSA-UHFFFAOYSA-N
Temperature: 77 K
Tabular data in the source: 0
pressure (bar)	uptake (cm3(STP)/g)
0.0104184	5.02681
0.0292902	7.01846
0.0355752	8.01837
0.0565815	7.99113
0.0733696	8.97742
0.0922414	10.9691
0.113231	11.9499
0.13422	12.9308
0.153109	13.9143
0.171998	14.8979
0.192987	15.8787
0.213976	16.8596
0.230764	17.8459
0.251754	18.8267
0.270625	20.8183
0.274827	20.8129
0.295816	21.7937
0.314705	22.7773
0.333577	24.769
0.354566	25.7498
0.375538	27.7387
0.394427	28.7223
0.415416	29.7031
0.436406	30.684
0.455295	31.6675
0.476267	33.6565
0.495122	36.6562
0.514011	37.6398
0.532899	38.6233
0.553889	39.6042
0.572743	42.6039
0.593716	44.5928
0.612605	45.5764
0.633577	47.5653
0.652449	49.557
0.673421	51.5459
0.69231	52.5295
0.711165	55.5292
0.732137	57.5181
0.748925	58.5044
0.769881	61.5014
0.788769	62.485
0.807624	65.4848
0.828597	67.4737
0.834899	67.4655
0.847469	69.4653
0.868407	73.4704
0.868424	72.4623
