Adsorption isotherm of Nitrogen on IRMOF-3
DOI: 10.1021/Ja808853q
Adsorbate Nitrogen: InChIKey IJGRMHOSHXDMSA-UHFFFAOYSA-N
Temperature: 77 K
Tabular data in the source: 0
pressure (bar)	uptake (cm3(STP)/g)
0.0020346	470.085
0.0122076	487.179
0.020346	517.094
0.0467957	534.188
0.0671417	547.009
0.0915569	555.556
0.146491	559.829
0.191252	568.376
0.240082	572.65
0.292982	572.65
0.343847	581.197
0.390643	585.47
0.439473	585.47
0.488303	589.744
0.537134	589.744
0.590033	589.744
0.638863	589.744
0.657175	594.017
0.677521	594.017
0.687694	594.017
0.736524	598.291
0.779251	594.017
0.826046	598.291
0.872842	602.564
