Adsorption isotherm of Nitrogen on Zn4O*H2O*DMF
DOI: 10.1021/Ja808853q
Adsorbate Nitrogen: InChIKey IJGRMHOSHXDMSA-UHFFFAOYSA-N
Temperature: 77 K
Tabular data in the source: 0
pressure (bar)	uptake (cm3(STP)/g)
0.107948	0.122912
0.138183	1.04229
0.194325	1.99117
0.24616	3.82011
0.285002	2.09442
0.332537	5.68837
0.384352	5.74737
0.397315	6.64708
0.438336	6.69379
0.462094	7.6058
0.500955	7.65004
0.535508	8.57434
0.557107	9.48389
0.580875	11.2809
0.59167	11.2932
0.626213	11.3325
0.678047	13.1614
0.719077	14.0931
0.757948	15.0223
0.798968	15.069
0.827063	17.7559
0.850831	19.5528
0.876748	20.4673
