Adsorption isotherm of Nitrogen on IRMOF-3
DOI: 10.1021/Ja808853q
Adsorbate Nitrogen: InChIKey IJGRMHOSHXDMSA-UHFFFAOYSA-N
Temperature: 77 K
Tabular data in the source: 0
pressure (bar)	uptake (cm3(STP)/g)
0.0020346	388.889
0.00406919	747.863
0.010173	820.513
0.0223806	858.974
0.030519	871.795
0.0488303	888.889
0.0834185	914.53
0.10173	918.803
0.120041	923.077
0.140387	927.35
0.154629	935.897
0.174975	940.171
0.205494	944.444
0.22584	948.718
0.244152	948.718
0.260428	957.265
0.280774	957.265
0.299086	957.265
0.315363	961.538
0.335708	961.538
0.341812	957.265
0.358089	965.812
0.378435	965.812
0.394712	970.085
0.413023	970.085
0.433369	974.359
0.447611	965.812
0.465923	974.359
0.486269	978.632
0.498476	978.632
0.518822	978.632
0.547307	982.906
0.567653	987.179
0.587998	982.906
0.60631	987.179
0.626656	991.453
0.636829	987.179
0.65514	991.453
0.673452	995.726
0.691763	991.453
0.70804	995.726
0.728386	995.726
0.734489	995.726
0.752801	1000
0.773147	1004.27
0.791458	1004.27
0.811804	1008.55
0.830116	1008.55
0.850461	1012.82
0.870807	1012.82
