Adsorption isotherm of Nitrogen on Zn4O*H2O*DEF2
DOI: 10.1021/Ja808853q
Adsorbate Nitrogen: InChIKey IJGRMHOSHXDMSA-UHFFFAOYSA-N
Temperature: 77 K
Tabular data in the source: 0
pressure (bar)	uptake (cm3(STP)/g)
0.0101305	22.1643
0.041606	24.1396
0.0625784	26.1285
0.0793496	28.1229
0.0919364	29.1146
0.108741	29.0928
0.12763	30.0764
0.154904	32.0572
0.18433	31.0109
0.201101	33.0053
0.230493	33.9752
0.251466	35.9642
0.280875	35.926
0.301847	37.915
0.322853	37.8877
0.34801	40.8793
0.398408	41.822
0.421498	42.8001
0.444588	43.7782
0.471862	45.759
0.494935	47.7452
0.515908	49.7341
0.543182	51.7148
0.56839	51.6821
0.591446	54.6764
0.618669	59.6814
0.63749	64.6974
0.66058	65.6755
0.687821	69.6724
0.70881	70.6532
0.736067	73.6421
0.75914	75.6283
0.786398	78.6171
0.803186	79.6034
0.830426	83.6003
0.851416	84.5812
0.876555	88.5808
