Adsorption isotherm of Nitrogen on Zn4O*H2O*DMF
DOI: 10.1021/Ja808853q
Adsorbate Nitrogen: InChIKey IJGRMHOSHXDMSA-UHFFFAOYSA-N
Temperature: 77 K
Tabular data in the source: 0
pressure (bar)	uptake (cm3(STP)/g)
0.0129633	0.899716
0.0474971	0.0540813
0.0841994	0.0958714
0.125229	1.02754
0.146819	1.05213
0.159782	1.95184
0.192167	1.98872
0.207279	2.00592
0.246141	2.05017
0.272048	2.07967
0.295797	2.10671
0.319545	2.13375
0.341144	3.0433
0.358426	3.94793
0.384324	3.09247
0.405923	4.00202
0.436167	5.80636
0.455598	5.82849
0.487982	5.86536
0.507422	6.77245
0.53334	7.68692
0.561406	7.71888
0.576528	8.62105
0.608913	8.65792
0.630512	9.56747
0.660747	10.4869
0.680197	12.2789
0.699627	12.301
0.729872	14.1054
0.749302	14.1275
0.77521	14.157
0.79465	15.0641
0.824895	16.8684
0.846484	16.893
0.872401	17.8075
