Adsorption isotherm of Nitrogen on IRMOF-16
DOI: 10.1021/Ja808853q
Adsorbate Nitrogen: InChIKey IJGRMHOSHXDMSA-UHFFFAOYSA-N
Temperature: 77 K
Tabular data in the source: 0
pressure (bar)	uptake (cm3(STP)/g)
0.00200313	332.308
0.00400627	364.615
0.0120188	413.077
0.030047	438.462
0.0440689	452.308
0.0620972	461.538
0.0801254	466.154
0.0981536	473.077
0.118185	475.385
0.138216	482.308
0.156244	484.615
0.176276	489.231
0.196307	491.538
0.212332	493.846
0.23036	496.154
0.250392	500.769
0.270423	503.077
0.288451	507.692
0.308483	507.692
0.326511	512.308
0.346542	512.308
0.366574	514.615
0.386605	519.231
0.404633	519.231
0.424664	521.538
0.442693	526.154
0.460721	528.462
0.480752	533.077
0.500784	535.385
0.518812	537.692
0.53684	537.692
0.556871	542.308
0.574899	544.615
0.592928	546.923
0.610956	551.538
0.630987	551.538
0.649015	553.846
0.669047	558.462
0.689078	560.769
0.707106	563.077
0.727138	567.692
0.745166	570
0.763194	574.615
0.781222	579.231
0.79925	581.538
0.819282	588.462
0.83731	590.769
0.857341	600
