Adsorption isotherm of Nitrogen on IRMOF-3
DOI: 10.1021/Ja808853q
Adsorbate Nitrogen: InChIKey IJGRMHOSHXDMSA-UHFFFAOYSA-N
Temperature: 77 K
Tabular data in the source: 0
pressure (bar)	uptake (cm3(STP)/g)
0.0590033	4.2735
0.103764	4.2735
0.15056	4.2735
0.201425	12.8205
0.254325	8.54701
0.297051	8.54701
0.341812	8.54701
0.388608	8.54701
0.441508	8.54701
0.492372	4.2735
0.541203	8.54701
0.590033	8.54701
0.638863	8.54701
0.687694	12.8205
0.734489	8.54701
0.785354	12.8205
0.836219	17.094
