Adsorption isotherm of Nitrogen on Zn4O*H2O*DEF2
DOI: 10.1021/Ja808853q
Adsorbate Nitrogen: InChIKey IJGRMHOSHXDMSA-UHFFFAOYSA-N
Temperature: 77 K
Tabular data in the source: 0
pressure (bar)	uptake (cm3(STP)/g)
0.00362528	34.2695
0.00708115	78.6198
0.0154498	80.6251
0.021667	85.6574
0.0383873	90.676
0.053024	94.6893
0.0676775	97.6945
0.0823142	101.708
0.0969678	104.713
0.113739	106.707
0.132577	110.715
0.149331	113.718
0.166102	115.712
0.184957	118.712
0.205913	121.709
0.212181	123.717
0.233136	126.714
0.249907	128.708
0.260376	130.711
0.279231	133.71
0.300187	136.707
0.356751	145.707
0.375589	149.714
0.396562	151.703
0.404913	154.717
0.423768	157.716
0.444741	159.705
0.453092	162.719
0.47193	166.727
0.490802	168.718
0.501254	171.729
0.52221	174.726
0.541048	178.734
0.549416	180.739
0.568271	183.739
0.587092	188.755
0.595461	190.76
0.614299	194.768
0.633153	197.767
0.64779	201.781
0.666611	206.797
0.683382	208.791
0.693818	212.81
0.712656	216.818
0.731476	221.834
0.739845	223.839
0.758666	228.855
0.777504	232.863
0.79004	236.879
0.808861	241.894
0.825581	246.913
0.836017	250.932
0.852737	255.95
0.871541	261.974
