Adsorption isotherm of Nitrogen on Zn4O*H2O*DMF
DOI: 10.1021/Ja808853q
Adsorbate Nitrogen: InChIKey IJGRMHOSHXDMSA-UHFFFAOYSA-N
Temperature: 77 K
Tabular data in the source: 0
pressure (bar)	uptake (cm3(STP)/g)
0.000210164	19.4693
0.000334352	30.9738
0.00254108	35.4011
0.00264616	45.1358
0.0049102	54.8728
0.00493886	57.5277
0.00934276	65.4974
0.0158674	69.9296
0.0245892	77.9041
0.0332919	84.1087
0.0463221	91.2032
0.0550057	95.6379
0.0723347	100.967
0.0982709	103.652
0.115571	106.326
0.135031	109.003
0.154471	109.91
0.17393	112.587
0.204184	115.277
0.223643	117.954
0.245233	117.978
0.262524	119.768
0.281983	122.445
0.301433	124.237
0.323042	126.032
0.342472	126.054
0.351127	127.833
0.372726	128.743
0.392176	130.535
0.400821	131.43
0.42243	133.224
0.44187	134.131
0.448357	135.024
0.469965	136.818
0.489415	138.61
0.495902	139.503
0.51751	141.297
0.545615	144.869
0.567224	146.664
0.586664	147.571
0.59316	149.348
0.61261	151.14
0.632059	152.932
0.642873	154.714
0.664482	156.509
0.683941	159.186
0.690428	160.078
0.709887	162.755
0.731505	165.435
0.742329	168.102
0.761798	171.664
0.781266	175.226
0.787762	177.003
0.807241	181.45
0.824551	185.01
0.837533	187.679
0.854862	193.009
0.872191	198.338
