Adsorption isotherm of Nitrogen on IRMOF-16
DOI: 10.1021/Ja808853q
Adsorbate Nitrogen: InChIKey IJGRMHOSHXDMSA-UHFFFAOYSA-N
Temperature: 77 K
Tabular data in the source: 0
pressure (bar)	uptake (cm3(STP)/g)
0.00400627	73.8462
0.00801254	92.3077
0.0240376	106.154
0.0420658	108.462
0.0580909	110.769
0.0701097	110.769
0.0821285	117.692
0.100157	120
0.146229	122.308
0.19831	126.923
0.246385	129.231
0.294461	136.154
0.342536	140.769
0.388608	147.692
0.438686	152.308
0.486762	159.231
0.534837	166.154
0.580909	175.385
0.630987	182.308
0.681066	193.846
0.729141	210
0.775213	230.769
0.827294	258.462
0.873366	290.769
