Adsorption isotherm of Nitrogen on {[Zn-(C10H2O8)0.5(C10S2N2H8)]*5H2O]}n
DOI: 10.1021/Ic402095u
Adsorbate Nitrogen: InChIKey IJGRMHOSHXDMSA-UHFFFAOYSA-N
Temperature: 77 K
Tabular data in the source: 0
pressure (bar)	uptake (wt%)
0.0105646	0.187264
0.135102	0.318357
0.283674	0.580541
0.458464	0.973819
0.666027	1.49819
0.816783	2.02256
0.910733	2.41584
0.95443	2.80911
0.982834	3.26794
