Adsorption isotherm of Carbon Dioxide on {[Zn-(C10H2O8)0.5(C10S2N2H8)]*5H2O]}n
DOI: 10.1021/Ic402095u
Adsorbate Carbon Dioxide: InChIKey CURLTUGMZLYLDI-UHFFFAOYSA-N
Temperature: 195 K
Tabular data in the source: 0
pressure (bar)	uptake (wt%)
0.00627537	1.95701
0.00627537	8.11836
0.0129152	9.69147
0.0483276	10.4125
0.139072	10.8713
0.287362	11.1335
0.451144	11.6579
0.515329	12.51
0.535249	15.6562
0.566235	19.2612
0.619353	22.4074
0.676898	24.1772
0.75215	25.0293
0.853961	25.7503
0.929212	26.078
1.00004	26.1436
