Adsorption isotherm of Acetonitrile on {[Zn-(C10H2O8)0.5(C10S2N2H8)]*5H2O]}n
DOI: 10.1021/Ic402095u
Adsorbate Acetonitrile: InChIKey WEVYAHXRMPXWCK-UHFFFAOYSA-N
Temperature: 298 K
Tabular data in the source: 0
pressure (bar)	uptake (ml/g)
0.0208866	20.4978
0.025177	43.6662
0.0938239	51.9038
0.162471	52.4186
0.246849	53.9632
0.278312	56.28
0.326937	64.0028
0.366981	71.7256
0.419897	76.6166
0.497124	80.478
0.55576	81.7652
0.675892	83.8246
0.808895	85.884
0.921877	88.4582
0.964781	90.0028
0.991954	93.3493
