Adsorption isotherm of Methanol on {[Zn-(C10H2O8)0.5(C10S2N2H8)]*5H2O]}n
DOI: 10.1021/Ic402095u
Adsorbate Methanol: InChIKey OKKJLVBELUTLKV-UHFFFAOYSA-N
Temperature: 298 K
Tabular data in the source: 0
pressure (bar)	uptake (ml/g)
0.00141198	0.0543094
0.00362089	0.167923
0.00619795	0.285906
0.00987946	0.364561
0.0109839	0.408259
0.0231329	0.419183
0.0463264	0.467251
0.0551621	0.506578
0.0603162	0.559015
0.0603162	0.64204
0.0632614	0.729435
0.0728333	0.784057
0.0875594	0.797167
0.125847	0.8212
0.149041	0.840864
0.156404	0.871452
0.161558	0.912965
0.164871	0.967587
