Adsorption isotherm of Methanol on {[Zn-(C10H2O8)0.5(C10S2N2H8)]*5H2O]}n
DOI: 10.1021/Ic402095u
Adsorbate Methanol: InChIKey OKKJLVBELUTLKV-UHFFFAOYSA-N
Temperature: 298 K
Tabular data in the source: 0
pressure (bar)	uptake (ml/g)
0.0126608	9.89007
0.02252	27.8901
0.0239284	40.0591
0.0577312	62.1154
0.0661819	72.5098
0.125337	76.8196
0.176041	79.3549
0.216886	81.8901
0.25914	85.1858
0.314069	88.7351
0.35914	95.5802
0.36759	119.918
0.373224	132.341
0.415478	139.439
0.457731	140.453
0.515478	142.735
0.599985	144.763
0.702802	146.031
0.77745	147.552
0.860548	150.087
0.912661	152.622
0.954914	160.228
0.973224	167.327
0.978858	174.679
