Adsorption isotherm of Ethanol on {[Zn-(C10H2O8)0.5(C10S2N2H8)]*5H2O]}n
DOI: 10.1021/Ic402095u
Adsorbate Ethanol: InChIKey LFQSCWFLJHTTHZ-UHFFFAOYSA-N
Temperature: 298 K
Tabular data in the source: 0
pressure (bar)	uptake (ml/g)
0.0108756	0.418628
0.0466292	2.22061
0.0895335	3.25031
0.168191	4.28001
0.264011	5.05229
0.3584	5.82457
0.471382	6.59685
0.568631	7.62655
0.661591	7.88397
0.75741	8.91368
0.85037	10.4582
0.906145	12.0028
0.95191	16.1216
0.967641	21.2701
0.973362	32.8543
0.977652	50.3592
0.984803	65.8048
