Adsorption isotherm of Water on {[Zn-(C10H2O8)0.5(C10S2N2H8)]*5H2O]}n
DOI: 10.1021/Ic402095u
Adsorbate Water: InChIKey XLYOFNOQVPJJNP-UHFFFAOYSA-N
Temperature: 298 K
Tabular data in the source: 0
pressure (bar)	uptake (ml/g)
0.0366182	7.1117
0.0437689	18.181
0.0580703	41.0919
0.0637909	50.8741
0.085243	58.082
0.148169	61.4285
0.235408	64.0028
0.419897	68.1216
0.479963	69.6662
0.520007	76.6166
0.575782	90.2602
0.625837	93.8642
0.720227	97.983
0.833208	100.042
0.917586	102.102
0.95477	105.706
0.994814	109.825
