Adsorption isotherm of N-propane on Silica Gel
DOI: 10.1021/ja01159a024
Article source: Table II
Adsorbate N-propane: InChIKey ATUOYWHBWRKTHZ-UHFFFAOYSA-N
Kind: experiment
Temperature: 313 K
Tabular data in the source: 0
pressure (bar)	uptake (mmol/g)
0.013466	0.0418
0.037197	0.09
0.062262	0.1407
0.128256	0.258
0.182518	0.3352
0.271978	0.447
0.375969	0.568
0.497292	0.6871
0.616749	0.7876
0.739806	0.904
0.857263	0.9908
1.02512	1.128
