Adsorption isotherm of Propene, Ethene on Silica Gel
DOI: 10.1021/ja01159a024
Article source: Table V
Adsorbate Propene: InChIKey QQONPFPTGQHPMA-UHFFFAOYSA-N
Adsorbate Ethene: InChIKey VGGSQFUCUMXWEO-UHFFFAOYSA-N
Kind: experiment
Temperature: 273 K
Tabular data in the source: 0
pressure (bar)	Propene fraction	Propene uptake (mmol/g)	Ethene fraction	Ethene uptake (mmol/g)	total uptake (mmol/g)
1.01325	0.636	2.69868	0.364	0.191318	2.89
1.01325	0.421	2.2324	0.579	0.378595	2.611
1.01325	0.289	1.98567	0.711	0.518328	2.504
1.01325	0.318	1.80746	0.682	0.564536	2.372
1.01325	0.186	1.42146	0.814	0.806536	2.228
1.01325	0.097	0.909279	0.903	1.07172	1.981
1.01325	0.052	0.460785	0.948	1.34622	1.807
1.01325	0.011	0.19113	0.989	1.47087	1.662
