Adsorption isotherm of Propene, Ethene on Silica Gel
DOI: 10.1021/ja01159a024
Article source: Table V
Adsorbate Propene: InChIKey QQONPFPTGQHPMA-UHFFFAOYSA-N
Adsorbate Ethene: InChIKey VGGSQFUCUMXWEO-UHFFFAOYSA-N
Kind: experiment
Temperature: 313 K
Tabular data in the source: 0
pressure (bar)	Propene fraction	Propene uptake (mmol/g)	Ethene fraction	Ethene uptake (mmol/g)	total uptake (mmol/g)
1.01325	0.679	1.39184	0.321	0.089156	1.481
1.01325	0.437	1.16276	0.563	0.142245	1.305
1.01325	0.297	0.83439	0.703	0.30861	1.143
1.01325	0.148	0.498318	0.852	0.443682	0.942
1.01325	0.065	0.24308	0.935	0.58092	0.824
