Adsorption isotherm of Ethene on Silica Gel
DOI: 10.1021/ja01159a024
Article source: Figure 1
Adsorbate Ethene: InChIKey VGGSQFUCUMXWEO-UHFFFAOYSA-N
Kind: experiment
Temperature: 298 K
Tabular data in the source: 0
pressure (bar)	uptake (mmol/g)
0.040663	0.0647
0.090259	0.155
0.126523	0.201
0.221315	0.331
0.330639	0.453
0.466628	0.568
0.729273	0.774
0.883927	0.889
1.01058	0.958
