Adsorption isotherm of N-propane on Silica Gel
DOI: 10.1021/ja01159a024
Article source: Table II
Adsorbate N-propane: InChIKey ATUOYWHBWRKTHZ-UHFFFAOYSA-N
Kind: experiment
Temperature: 273 K
Tabular data in the source: 0
pressure (bar)	uptake (mmol/g)
0.022132	0.2137
0.050263	0.396
0.08586	0.5678
0.124256	0.7307
0.172386	0.901
0.291176	1.259
0.398367	1.52
0.572486	1.881
0.782736	2.241
1.01672	2.582
