Adsorption isotherm of Propene on Silica Gel
DOI: 10.1021/ja01159a024
Article source: Table III
Adsorbate Propene: InChIKey QQONPFPTGQHPMA-UHFFFAOYSA-N
Kind: experiment
Temperature: 273 K
Tabular data in the source: 0
pressure (bar)	uptake (mmol/g)
0.068128	1.052
0.126923	1.468
0.285043	2.065
0.571153	2.64
1.01605	3.179
