Adsorption isotherm of N-propane, Ethene on Silica Gel
DOI: 10.1021/ja01159a024
Article source: Table IV
Adsorbate N-propane: InChIKey ATUOYWHBWRKTHZ-UHFFFAOYSA-N
Adsorbate Ethene: InChIKey VGGSQFUCUMXWEO-UHFFFAOYSA-N
Kind: experiment
Temperature: 313 K
Tabular data in the source: 0
pressure (bar)	N-propane fraction	N-propane uptake (mmol/g)	Ethene fraction	Ethene uptake (mmol/g)	total uptake (mmol/g)
1.01325	0.841	0.908661	0.159	0.104339	1.013
1.01325	0.506	0.594	0.494	0.306	0.9
1.01325	0.508	0.5886	0.492	0.3114	0.9
1.01325	0.352	0.424028	0.648	0.413972	0.838
1.01325	0.225	0.286525	0.775	0.498475	0.785
1.01325	0.069	0.083056	0.931	0.632944	0.716
