Adsorption isotherm of Propene on Silica Gel
DOI: 10.1021/ja01159a024
Article source: Figure 3
Adsorbate Propene: InChIKey QQONPFPTGQHPMA-UHFFFAOYSA-N
Kind: experiment
Temperature: 298 K
Tabular data in the source: 0
pressure (bar)	uptake (mmol/g)
0.098792	0.713
0.122123	0.735
0.262645	1.13
0.271978	1.17
0.365303	1.4
0.473294	1.55
0.725274	1.91
0.747938	1.93
1.00925	2.18
1.02792	2.2
