Adsorption isotherm of N-propane, Ethene on Silica Gel
DOI: 10.1021/ja01159a024
Article source: Table IV
Adsorbate N-propane: InChIKey ATUOYWHBWRKTHZ-UHFFFAOYSA-N
Adsorbate Ethene: InChIKey VGGSQFUCUMXWEO-UHFFFAOYSA-N
Kind: experiment
Temperature: 273 K
Tabular data in the source: 0
pressure (bar)	N-propane fraction	N-propane uptake (mmol/g)	Ethene fraction	Ethene uptake (mmol/g)	total uptake (mmol/g)
1.01325	0.9571	2.50256	0.0429	0.069444	2.572
1.01325	0.901	2.3793	0.099	0.1957	2.575
1.01325	0.796	2.1504	0.204	0.301596	2.452
1.01325	0.678	1.86675	0.322	0.50825	2.375
1.01325	0.599	1.70248	0.401	0.570523	2.273
1.01325	0.455	1.35212	0.545	0.763876	2.116
1.01325	0.458	1.29431	0.542	0.813688	2.108
1.01325	0.316	0.98505	0.684	1.00495	1.99
1.01325	0.21	0.708	0.79	1.18	1.888
1.01325	0.175	0.543004	0.825	1.261	1.804
1.01325	0.083	0.312713	0.917	1.43429	1.747
1.01325	0.022	0.0729	0.978	1.5471	1.62
