Adsorption isotherm of Propene on Silica Gel
DOI: 10.1021/ja01159a024
Article source: Table III
Adsorbate Propene: InChIKey QQONPFPTGQHPMA-UHFFFAOYSA-N
Kind: experiment
Temperature: 313 K
Tabular data in the source: 0
pressure (bar)	uptake (mmol/g)
0.070528	0.4586
0.125323	0.63
0.332506	1.059
0.670878	1.499
1.01978	1.791
