Adsorption isotherm of N-propane, Ethene on Silica Gel
DOI: 10.1021/ja01159a024
Article source: Table IV
Adsorbate N-propane: InChIKey ATUOYWHBWRKTHZ-UHFFFAOYSA-N
Adsorbate Ethene: InChIKey VGGSQFUCUMXWEO-UHFFFAOYSA-N
Kind: experiment
Temperature: 298 K
Tabular data in the source: 0
pressure (bar)	N-propane fraction	N-propane uptake (mmol/g)	Ethene fraction	Ethene uptake (mmol/g)	total uptake (mmol/g)
1.01325	0.919	1.3971	0.081	0.068902	1.466
1.01325	0.763	1.17206	0.237	0.219936	1.392
1.01325	0.619	1.01474	0.381	0.308259	1.323
1.01325	0.599	0.976815	0.401	0.352185	1.329
1.01325	0.512	0.822824	0.488	0.439176	1.262
1.01325	0.339	0.596039	0.661	0.574961	1.171
1.01325	0.238	0.415888	0.762	0.696112	1.112
1.01325	0.132	0.249018	0.868	0.828982	1.078
1.01325	0.047	0.08019	0.953	0.90981	0.99
