Adsorption isotherm of Ethene on Silica Gel
DOI: 10.1021/ja01159a024
Article source: Table I
Adsorbate Ethene: InChIKey VGGSQFUCUMXWEO-UHFFFAOYSA-N
Kind: experiment
Temperature: 273 K
Tabular data in the source: 0
pressure (bar)	uptake (mmol/g)
0.002533	0.012
0.010132	0.0597
0.031197	0.171
0.090526	0.3839
0.177719	0.6038
0.301842	0.8338
0.467162	1.068
0.634748	1.256
0.842064	1.449
0.993918	1.576
