Adsorption isotherm of N-propane on Silica Gel
DOI: 10.1021/ja01159a024
Article source: Figure 2
Adsorbate N-propane: InChIKey ATUOYWHBWRKTHZ-UHFFFAOYSA-N
Kind: experiment
Temperature: 298 K
Tabular data in the source: 0
pressure (bar)	uptake (mmol/g)
0.009359	0.0213
0.028264	0.121
0.061062	0.192
0.093859	0.292
0.131323	0.37
0.215982	0.526
0.303975	0.682
0.397301	0.83
0.513291	0.979
0.625282	1.12
0.76527	1.25
0.909259	1.39
1.03592	1.52
