Adsorption isotherm of Ethene on Silica Gel
DOI: 10.1021/ja01159a024
Article source: Table I
Adsorbate Ethene: InChIKey VGGSQFUCUMXWEO-UHFFFAOYSA-N
Kind: experiment
Temperature: 313 K
Tabular data in the source: 0
pressure (bar)	uptake (mmol/g)
0.026664	0.0386
0.134522	0.1588
0.200384	0.2186
0.285443	0.2894
0.456629	0.4092
0.591951	0.494
0.826999	0.621
1.01818	0.717
