Adsorption isotherm of Propene, Ethene on Silica Gel
DOI: 10.1021/ja01159a024
Article source: Table V
Adsorbate Propene: InChIKey QQONPFPTGQHPMA-UHFFFAOYSA-N
Adsorbate Ethene: InChIKey VGGSQFUCUMXWEO-UHFFFAOYSA-N
Kind: experiment
Temperature: 298 K
Tabular data in the source: 0
pressure (bar)	Propene fraction	Propene uptake (mmol/g)	Ethene fraction	Ethene uptake (mmol/g)	total uptake (mmol/g)
1.01325	0.752	1.95028	0.248	0.074722	2.025
1.01325	0.474	1.54615	0.526	0.216849	1.763
1.01325	0.372	1.3524	0.628	0.3276	1.68
1.01325	0.183	0.847215	0.817	0.557785	1.405
1.01325	0.092	0.486824	0.908	0.721176	1.208
1.01325	0.032	0.202457	0.968	0.846543	1.049
