Adsorption isotherm of Nitrogen on DArE@PAF-1 5wt%
DOI: 10.1002/adfm.201502069
Article source: Figure 2a
Adsorbate Nitrogen: InChIKey IJGRMHOSHXDMSA-UHFFFAOYSA-N
Kind: experiment
Temperature: 77 K
Tabular data in the source: 0
pressure (bar)	uptake (mmol/g)
0	0
0.002322	5.62706
0.007627	8.50851
0.015666	11.8013
0.034924	13.1706
0.054204	14.2653
0.065226	14.8125
0.08456	15.221
0.120471	15.9012
0.153627	16.4446
0.186805	16.7135
0.219972	17.1196
0.269737	17.523
0.302914	17.7918
0.338869	17.923
0.372036	18.3292
0.405224	18.4608
0.438412	18.5924
0.474356	18.8609
0.5103	19.1293
0.562854	19.2576
0.596032	19.5265
0.615398	19.5232
0.643032	19.9303
0.678976	20.1988
0.701097	20.3323
0.712153	20.4676
0.731508	20.6016
0.764697	20.7333
0.78403	21.1418
0.797862	21.1394
0.833785	21.6823
0.866941	22.2258
0.886286	22.497
0.905619	22.9055
