Adsorption isotherm of Carbon Dioxide on DArE@PAF-1 5wt%(Photoswitched)
DOI: 10.1002/adfm.201502069
Article source: Figure 3a
Adsorbate Carbon Dioxide: InChIKey CURLTUGMZLYLDI-UHFFFAOYSA-N
Kind: experiment
Temperature: 303 K
Tabular data in the source: 0
pressure (bar)	uptake (mmol/g)
0	0
0.019311	0.015798
0.046364	0.031528
0.069561	0.041968
0.0966	0.063021
0.119812	0.068139
0.142994	0.083903
0.154504	0.121063
0.185384	0.152728
0.204695	0.168526
0.231734	0.189579
0.243303	0.205446
0.262644	0.210598
0.28977	0.199711
0.320724	0.204759
0.34005	0.215234
0.363262	0.220351
0.378702	0.236184
0.421195	0.267746
0.467368	0.368477
0.482749	0.405603
0.498145	0.437406
0.521298	0.463816
0.540595	0.484938
0.559876	0.511383
0.579423	0.442008
0.625876	0.441596
0.664557	0.451899
0.687769	0.457016
0.703209	0.472849
0.718634	0.494005
0.74922	0.632136
0.772299	0.685163
0.80315	0.727475
0.845614	0.769684
0.864895	0.796129
0.880321	0.817285
0.911613	0.699897
0.950339	0.69423
0.98902	0.704533
1.00836	0.709685
1.02767	0.725483
1.04313	0.735993
1.06968	0.932715
1.08884	1.00175
1.12354	1.05467
1.14282	1.08112
1.16594	1.11817
1.18522	1.14462
