Adsorption isotherm of Nitrogen on PAF-1
DOI: 10.1002/adfm.201502069
Article source: Figure 2a
Adsorbate Nitrogen: InChIKey IJGRMHOSHXDMSA-UHFFFAOYSA-N
Kind: experiment
Temperature: 77 K
Tabular data in the source: 0
pressure (bar)	uptake (mmol/g)
0	0
0.001562	7.65599
0.003709	11.6205
0.004077	9.29619
0.008871	14.0805
0.019606	16.4029
0.035872	18.8611
0.052356	19.9521
0.06333	20.7706
0.08543	21.4504
0.102022	21.8578
0.115794	22.5391
0.154529	23.3528
0.187755	23.8941
0.22378	24.2982
0.254252	24.7032
0.268111	24.8376
0.304135	25.2417
0.318016	25.2393
0.354018	25.7801
0.387287	26.048
0.420536	26.4525
0.453828	26.5836
0.473217	26.8538
0.487054	27.1249
0.506465	27.2583
0.525898	27.2551
0.542511	27.5257
0.561922	27.6591
0.575781	27.7935
0.595192	27.927
0.625686	28.1953
0.653425	28.3273
0.670038	28.5979
0.694958	29.0039
0.714391	29.0006
0.747639	29.4052
0.764295	29.4023
0.78093	29.5363
0.80032	29.8064
0.814157	30.0775
0.83077	30.3482
0.850182	30.4816
0.866773	30.889
0.883386	31.1596
0.899978	31.567
0.908262	31.839
