Adsorption isotherm of Carbon Dioxide on PAF-1(Photoswitched)
DOI: 10.1002/adfm.201502069
Article source: Figure 3a
Adsorbate Carbon Dioxide: InChIKey CURLTUGMZLYLDI-UHFFFAOYSA-N
Kind: experiment
Temperature: 303 K
Tabular data in the source: 0
pressure (bar)	uptake (mmol/g)
0	0
0.050381	0.026616
0.081601	0.069201
0.108699	0.079848
0.128167	0.101141
0.143734	0.11711
0.167149	0.149049
0.186705	0.180989
0.202228	0.191635
0.225643	0.223574
0.245067	0.239544
0.276112	0.260837
0.291502	0.255513
0.314697	0.260837
0.330219	0.271483
0.349732	0.298099
0.369156	0.314068
0.388537	0.324715
0.412172	0.38327
0.447339	0.436502
0.490179	0.484411
0.509692	0.511027
0.529204	0.537643
0.556566	0.580228
0.571824	0.558935
0.606551	0.558935
0.629834	0.574905
0.649258	0.590875
0.672586	0.612167
0.688196	0.63346
0.719856	0.729278
0.739501	0.771863
0.77458	0.814449
0.809747	0.867681
0.833074	0.888973
0.852586	0.915589
0.875385	0.873004
0.914059	0.88365
0.929581	0.894297
0.95681	0.920913
0.99965	0.968821
1.0082	1.06996
1.0396	1.13384
1.07863	1.18707
1.09827	1.22966
1.11384	1.24563
1.13725	1.27757
1.15681	1.30951
1.1871	1.2403
1.22569	1.2403
