Adsorption isotherm of Carbon Dioxide on DArE@PAF-1 20wt%(Photoswitched)
DOI: 10.1002/adfm.201502069
Article source: Figure 3a
Adsorbate Carbon Dioxide: InChIKey CURLTUGMZLYLDI-UHFFFAOYSA-N
Kind: experiment
Temperature: 303 K
Tabular data in the source: 0
pressure (bar)	uptake (mmol/g)
0	0
0.023344	0.015659
0.050543	0.02062
0.101041	0.025271
0.139889	0.030078
0.159336	0.040465
0.174898	0.050904
0.198302	0.087855
0.241078	0.108579
0.276087	0.129406
0.295548	0.145116
0.322791	0.166047
0.33447	0.176537
0.365419	0.13354
0.377084	0.138708
0.392632	0.143824
0.40818	0.148941
0.427626	0.159328
0.450927	0.159018
0.466489	0.169457
0.474492	0.254522
0.50175	0.280775
0.540672	0.312196
0.579579	0.338295
0.599025	0.348682
0.62237	0.364341
0.649347	0.289457
0.684312	0.294315
0.703728	0.294057
0.727073	0.309716
0.742636	0.320155
0.762067	0.32522
0.781853	0.458036
0.813038	0.500207
0.848077	0.53168
0.883116	0.563152
0.910358	0.584083
0.925951	0.605168
0.948941	0.493075
0.987745	0.481912
1.02661	0.492041
1.04995	0.5077
1.0655	0.512817
1.09271	0.523101
1.11262	0.698501
1.13605	0.746098
1.17112	0.788217
1.20616	0.81969
