Adsorption isotherm of Nitrogen on DArE@PAF-1 50wt%
DOI: 10.1002/adfm.201502069
Article source: Figure 2a
Adsorbate Nitrogen: InChIKey IJGRMHOSHXDMSA-UHFFFAOYSA-N
Kind: experiment
Temperature: 77 K
Tabular data in the source: 0
pressure (bar)	uptake (mmol/g)
0	0
0.005552	0.271318
0.01388	0.949612
0.030536	1.08527
0.055521	1.22093
0.091609	1.35659
0.136026	1.35659
0.169337	1.49225
0.197098	1.62791
0.235963	1.62791
0.297035	1.49225
0.349779	1.62791
0.383092	1.62791
0.438613	1.76357
0.474701	1.76357
0.513565	1.76357
0.532997	1.89922
0.552429	1.89922
0.591294	2.03488
0.646814	2.03488
0.685678	2.03488
0.710663	2.3062
0.768959	2.3062
0.821704	2.3062
0.849464	2.44186
0.880001	2.57752
0.896657	2.84884
0.910537	2.9845
