Adsorption isotherm of Nitrogen on DArE@PAF-1 20wt%
DOI: 10.1002/adfm.201502069
Article source: Figure 2a
Adsorbate Nitrogen: InChIKey IJGRMHOSHXDMSA-UHFFFAOYSA-N
Kind: experiment
Temperature: 77 K
Tabular data in the source: 0
pressure (bar)	uptake (mmol/g)
0	0
0.005714	2.04088
0.008598	3.40178
0.008706	4.76361
0.019896	5.84935
0.036606	6.52466
0.058857	7.06194
0.086649	7.46116
0.103326	7.72793
0.139435	7.98817
0.189424	8.24374
0.222746	8.36873
0.256079	8.62991
0.286615	8.61965
0.325478	8.60659
0.364363	8.8659
0.389358	8.99368
0.428231	9.11681
0.486537	9.2334
0.542067	9.35093
0.586493	9.47219
0.633695	9.59252
0.675345	9.71471
0.71422	9.83783
0.736438	9.96655
0.76976	10.0915
0.803093	10.3527
0.822525	10.3462
0.839191	10.4768
0.855858	10.6074
0.872535	10.8741
0.889202	11.0047
0.914218	11.4049
