Adsorption isotherm of Carbon Dioxide on DArE@PAF-1 50wt%(Photoswitched)
DOI: 10.1002/adfm.201502069
Article source: Figure 3a
Adsorbate Carbon Dioxide: InChIKey CURLTUGMZLYLDI-UHFFFAOYSA-N
Kind: experiment
Temperature: 303 K
Tabular data in the source: 0
pressure (bar)	uptake (mmol/g)
0	0
0.058064	0.000776
0.096774	0.004051
0.123871	0.009032
0.143226	0.008774
0.166452	0.024494
0.193548	0.029476
0.220645	0.039801
0.263226	0.044575
0.27871	0.033681
0.301935	0.033371
0.340645	0.038198
0.356129	0.037991
0.375484	0.037732
0.421935	0.037111
0.468387	0.079239
0.48	0.089771
0.495484	0.100251
0.51871	0.110628
0.534194	0.105078
0.565161	0.120694
0.592258	0.088271
0.623226	0.082514
0.665806	0.081945
0.708387	0.081377
0.731613	0.08641
0.743226	0.086255
0.766452	0.144723
0.774194	0.16065
0.824516	0.181352
0.867097	0.196814
0.886452	0.201899
0.901935	0.201692
0.932903	0.15853
0.963871	0.147429
1.00645	0.14686
1.04903	0.146292
1.07226	0.151325
1.08774	0.161805
1.11097	0.23096
1.12645	0.252128
1.16903	0.272933
1.18452	0.278069
