Adsorption isotherm of Carbon Dioxide on DArE@PAF-1 1wt%(Photoswitched)
DOI: 10.1002/adfm.201502069
Article source: Figure 3a
Adsorbate Carbon Dioxide: InChIKey CURLTUGMZLYLDI-UHFFFAOYSA-N
Kind: experiment
Temperature: 303 K
Tabular data in the source: 0
pressure (bar)	uptake (mmol/g)
0	-0.005323
0.038812	0.036918
0.065937	0.047324
0.08535	0.068444
0.104734	0.078919
0.120262	0.094751
0.147417	0.115802
0.162989	0.147603
0.182446	0.184693
0.205716	0.200456
0.244527	0.237374
0.260099	0.269175
0.291066	0.268901
0.318192	0.279306
0.337634	0.311073
0.364745	0.316156
0.384158	0.337276
0.419202	0.41149
0.446401	0.448511
0.489128	0.501364
0.504671	0.522519
0.527984	0.554251
0.543497	0.56476
0.555154	0.580626
0.574435	0.553839
0.609317	0.569499
0.632586	0.585262
0.648114	0.601094
0.671383	0.616857
0.694682	0.643266
0.710386	0.722975
0.737615	0.770642
0.768729	0.823598
0.811426	0.865805
0.83471	0.886891
0.854153	0.918658
0.877231	0.865221
0.908242	0.880915
0.935368	0.891321
0.950895	0.907153
0.970294	0.92295
0.993607	0.954683
1.01717	1.07691
1.03279	1.12468
1.07164	1.17756
1.0911	1.21465
1.1144	1.24106
1.12611	1.27822
1.15688	1.20342
1.1956	1.2084
