Adsorption isotherm of Nitrogen on DArE@PAF-1 1wt%
DOI: 10.1002/adfm.201502069
Article source: Figure 2a
Adsorbate Nitrogen: InChIKey IJGRMHOSHXDMSA-UHFFFAOYSA-N
Kind: experiment
Temperature: 77 K
Tabular data in the source: 0
pressure (bar)	uptake (mmol/g)
0	0
0.001485	8.13953
0.001743	6.51163
0.006434	11.938
0.017194	14.1085
0.033571	15.8721
0.063806	17.7713
0.096967	18.7209
0.132949	19.3992
0.166196	19.8062
0.185585	20.0775
0.218854	20.3488
0.252102	20.7558
0.285372	21.0271
0.321417	21.2984
0.354665	21.7054
0.387955	21.8411
0.424001	22.1124
0.454493	22.3837
0.493315	22.655
0.509949	22.7907
0.523809	22.9264
0.54322	23.062
0.559875	23.062
0.579264	23.3333
0.593123	23.469
0.612534	23.6047
0.626392	23.7403
0.656907	23.876
0.68187	24.0116
0.695729	24.1473
0.715117	24.4186
0.731752	24.5543
0.765	24.9612
0.778859	25.0969
0.801045	25.2326
0.81768	25.3682
0.831495	25.7752
0.848108	26.0465
0.8647	26.4535
0.884089	26.7248
0.903457	27.1318
