Adsorption isotherm of Carbon monoxide on Na-X
DOI: 10.1007/s10450-007-9032-6
Article source: Table 4
Adsorbate Carbon monoxide: InChIKey UGFAIRIUMAVXCW-UHFFFAOYSA-N
Kind: experiment
Temperature: 373 K
Tabular data in the source: 0
pressure (bar)	uptake (mmol/g)
0.2137	0.058
0.5046	0.13
1.129	0.28
2.017	0.488
4.041	0.826
6.176	1.105
8.168	1.313
10.14	1.501
