Adsorption isotherm of Carbon Dioxide on Na-X
DOI: 10.1007/s10450-007-9032-6
Article source: Table 4
Adsorbate Carbon Dioxide: InChIKey CURLTUGMZLYLDI-UHFFFAOYSA-N
Kind: experiment
Temperature: 373 K
Tabular data in the source: 0
pressure (bar)	uptake (mmol/g)
0.209	0.945
0.4821	1.856
0.7855	2.346
1.119	2.769
1.655	3.213
2.393	3.638
3.091	3.932
4.072	4.248
5.609	4.562
7.126	4.77
8.653	4.909
10.13	5.043
12.071	5.176
0.1125	0.032
