Adsorption isotherm of Carbon monoxide on Na-X
DOI: 10.1007/s10450-007-9032-6
Article source: Table 3
Adsorbate Carbon monoxide: InChIKey UGFAIRIUMAVXCW-UHFFFAOYSA-N
Kind: experiment
Temperature: 323 K
Tabular data in the source: 0
pressure (bar)	uptake (mmol/g)
0.061	0.032
0.1089	0.069
0.2047	0.143
0.4018	0.28
0.6074	0.406
0.8071	0.515
1.002	0.613
1.554	0.848
2.05	1.057
3.071	1.439
6.125	2.194
10.14	2.746
