Adsorption isotherm of Carbon Dioxide, Carbon monoxide on Na-X
DOI: 10.1007/s10450-007-9032-6
Article source: Table 6
Adsorbate Carbon Dioxide: InChIKey CURLTUGMZLYLDI-UHFFFAOYSA-N
Adsorbate Carbon monoxide: InChIKey UGFAIRIUMAVXCW-UHFFFAOYSA-N
Kind: experiment
Temperature: 323 K
Tabular data in the source: 0
pressure (bar)	Carbon Dioxide fraction	Carbon Dioxide uptake (mmol/g)	Carbon monoxide fraction	Carbon monoxide uptake (mmol/g)	total uptake (mmol/g)
1	0.174	2.51	0.826	0.183	
1	0.484	3.39	0.516	0.056	
1	0.804	3.85	0.196	0.014	
