Adsorption isotherm of Carbon Dioxide on Na-X
DOI: 10.1007/s10450-007-9032-6
Article source: Table 3
Adsorbate Carbon Dioxide: InChIKey CURLTUGMZLYLDI-UHFFFAOYSA-N
Kind: experiment
Temperature: 323 K
Tabular data in the source: 0
pressure (bar)	uptake (mmol/g)
0.1116	1.49
0.2097	2.25
0.6503	3.506
1.109	3.972
1.696	4.274
2.525	4.589
3.294	4.803
4.335	5.017
5.387	5.147
6.317	5.259
7.298	5.337
8.492	5.43
