Adsorption isotherm of Carbon Dioxide, Carbon monoxide on Na-X
DOI: 10.1007/s10450-007-9032-6
Article source: Table 6
Adsorbate Carbon Dioxide: InChIKey CURLTUGMZLYLDI-UHFFFAOYSA-N
Adsorbate Carbon monoxide: InChIKey UGFAIRIUMAVXCW-UHFFFAOYSA-N
Kind: experiment
Temperature: 373 K
Tabular data in the source: 0
pressure (bar)	Carbon Dioxide fraction	Carbon Dioxide uptake (mmol/g)	Carbon monoxide fraction	Carbon monoxide uptake (mmol/g)	total uptake (mmol/g)
1	0.174	1.22	0.826	0.114	
1	0.484	1.87	0.516	0.047	
1	0.804	2.35	0.196	0.017	
