Adsorption isotherm of Carbon Dioxide on Opt-Cu3(BTC)2
DOI: 10.1007/s11705-019-1893-1
Article source: Figure 6a
Adsorbate Carbon Dioxide: InChIKey CURLTUGMZLYLDI-UHFFFAOYSA-N
Kind: experiment
Temperature: 298 K
Tabular data in the source: 0
pressure (bar)	uptake (mmol/g)
0.21	1.51
0.611	3.23
1.05	4.42
1.52	5.37
2.31	6.5
3.2	7.18
4.21	7.82
5.21	8.22
6.81	8.71
8.65	9.16
10.6	9.53
12.6	9.86
