Adsorption isotherm of Carbon Dioxide, Nitrogen on Opt-Cu3(BTC)2
DOI: 10.1007/s11705-019-1893-1
Article source: Figure 10
Adsorbate Carbon Dioxide: InChIKey CURLTUGMZLYLDI-UHFFFAOYSA-N
Adsorbate Nitrogen: InChIKey IJGRMHOSHXDMSA-UHFFFAOYSA-N
Kind: experiment
Temperature: 298 K
Tabular data in the source: 0
pressure (bar)	Carbon Dioxide fraction	Carbon Dioxide uptake (mmol/g)	Nitrogen fraction	Nitrogen uptake (mmol/g)	total uptake (mmol/g)
1.5392	0.15	0.6811	0.85	0.1833	
2.0511	0.15	1.4749	0.85	0.3899	
3.0631	0.15	2.4472	0.85	0.6519	
4.0033	0.15	3.0225	0.85	0.8022	
5.1195	0.15	3.7487	0.85	0.9858	
6.0318	0.15	3.9493	0.85	1.0355	
