Adsorption isotherm of Nitrogen on Opt-Cu3(BTC)2
DOI: 10.1007/s11705-019-1893-1
Article source: Figure 6b
Adsorbate Nitrogen: InChIKey IJGRMHOSHXDMSA-UHFFFAOYSA-N
Kind: experiment
Temperature: 298 K
Tabular data in the source: 0
pressure (bar)	uptake (mmol/g)
0.269	0.0912
0.699	0.265
1.18	0.395
1.67	0.45
2.45	0.622
3.34	0.769
4.34	0.924
5.3	1.05
6.86	1.18
8.69	1.37
10.6	1.49
12.6	1.66
