Adsorption isotherm of Carbon Dioxide on [Co3(tcpt)2(H2O)2]
DOI: 10.1016/j.inoche.2015.03.015
Article source: Figure  3
Adsorbate Carbon Dioxide: InChIKey CURLTUGMZLYLDI-UHFFFAOYSA-N
Kind: experiment
Temperature: 195 K
Tabular data in the source: 0
pressure (bar)	uptake (cm3(STP)/g)
0.002986	0.242
0.00424	7.615
0.004986	2.337
0.005773	4.17
0.006946	19.58
0.008319	33.157
0.011452	38.204
0.013239	44.861
0.051836	69.247
0.052409	69.398
0.102805	77.457
0.102885	77.454
0.153854	82.676
0.155161	76.653
0.203317	87.971
0.20457	87.976
0.254472	83.405
0.255512	83.533
0.304362	105.203
0.305842	104.453
0.355224	110.161
0.356077	110.825
0.406567	114.271
0.406713	114.17
0.456709	116.67
0.458202	101.401
0.507145	105.654
0.507198	105.682
0.557447	120.058
0.559621	110.571
0.607377	113.156
0.609003	113.01
0.657519	122.741
0.657933	122.764
0.707995	123.791
0.708195	117.123
0.757244	124.702
0.758591	124.699
0.808494	120.974
0.80884	120.984
0.858756	122.971
0.860756	123.067
0.910445	127.497
0.910565	127.505
0.958721	126.278
0.961494	128.051
1.00444	128.354
1.00986	128.212
