Adsorption isotherm of Methane on NJU-Bai11
DOI: 10.1021/Cg400096e
Adsorbate Methane: InChIKey VNWKTOKETHGBQD-UHFFFAOYSA-N
Temperature: 273 K
Tabular data in the source: 0
pressure (bar)	uptake (cm3(STP)/g)
0.0236738	0.608589
0.0935898	3.23044
0.167876	6.50775
0.250901	9.1296
0.329556	11.7514
0.403842	13.7178
0.491237	16.6674
0.565523	19.2893
0.639808	21.5834
0.722834	23.8775
0.829892	25.8439
0.904178	27.4825
0.96317	28.7935
1.05712	31.4153
