Adsorption isotherm of Hydrogen on NJU-Bai11
DOI: 10.1021/Cg400096e
Adsorbate Hydrogen: InChIKey UFHFLCQGNIYNRP-UHFFFAOYSA-N
Temperature: 77 K
Tabular data in the source: 0
pressure (bar)	uptake (wt%)
0.00400996	0.0159178
0.00619484	0.101128
0.0149343	0.192893
0.0236738	0.28138
0.0542621	0.464909
0.100144	0.63533
0.154766	0.786086
0.209388	0.884405
0.288044	1.00239
0.362329	1.0876
0.44317	1.15314
0.521825	1.20886
0.628884	1.27113
0.764346	1.33012
0.87796	1.36945
0.969724	1.4055
1.05056	1.42516
