Adsorption isotherm of Nitrogen on NJU-Bai11
DOI: 10.1021/Cg400096e
Adsorbate Nitrogen: InChIKey IJGRMHOSHXDMSA-UHFFFAOYSA-N
Temperature: 77 K
Tabular data in the source: 0
pressure (bar)	uptake (cm3(STP)/g)
0.00619484	19.5701
0.00837971	60.8642
0.00837971	180.158
0.0105646	100.192
0.0105646	120.511
0.0105646	240.461
0.0127495	257.503
0.0324133	273.234
0.0782957	279.789
0.202833	289.621
0.34922	292.242
0.497791	295.52
0.646363	296.831
0.746867	296.175
0.847371	296.175
0.989388	297.486
