Adsorption isotherm of Carbon Dioxide on NJU-Bai11
DOI: 10.1021/Cg400096e
Adsorbate Carbon Dioxide: InChIKey CURLTUGMZLYLDI-UHFFFAOYSA-N
Temperature: 273 K
Tabular data in the source: 0
pressure (bar)	uptake (cm3(STP)/g)
0.00837971	2.24724
0.0455226	13.3901
0.0761108	20.2725
0.128548	32.7262
0.1788	43.5414
0.231237	53.3733
0.288044	62.5498
0.340481	70.0876
0.412581	80.2472
0.493422	88.4405
0.578632	97.617
0.681321	106.466
0.759976	113.02
0.838632	119.575
0.915102	123.508
0.969724	126.785
1.05056	130.39
