Adsorption isotherm of Nitrogen on NJU-Bai11
DOI: 10.1021/Cg400096e
Adsorbate Nitrogen: InChIKey IJGRMHOSHXDMSA-UHFFFAOYSA-N
Temperature: 273 K
Tabular data in the source: 0
pressure (bar)	uptake (cm3(STP)/g)
0.0149343	0.93632
0.113254	0.608589
0.222497	0.93632
0.327371	1.59178
0.432245	2.57498
0.532749	2.90271
0.641993	3.23044
0.720649	3.55817
0.773086	4.21363
0.851741	3.8859
0.930396	4.21363
1.05493	3.8859
