Adsorption isotherm of Carbon Dioxide on ZIF-7
DOI: 10.1002/chem.201100958
Adsorbate Carbon Dioxide: InChIKey CURLTUGMZLYLDI-UHFFFAOYSA-N
Temperature: 298 K
Tabular data in the source: 0
pressure (bar)	uptake (mmol/g)
0.0613847	0.0348432
0.0754414	0.0261324
0.11395	0.043554
0.136247	0.0696864
0.165162	0.087108
0.197479	0.0783972
0.236121	0.0958188
0.274667	0.11324
0.298282	0.121951
0.332957	0.148084
0.361584	0.165505
0.398107	0.174216
0.463097	0.21777
0.496046	0.270035
0.538695	0.357143
0.569146	0.522648
0.601318	0.731707
0.635309	0.940767
0.671222	1.14983
0.699481	1.3676
0.739021	1.51568
0.791602	1.75958
0.83635	1.84669
0.871562	1.90767
0.959599	1.97735
1.08598	2.02962
1.16325	2.09059
