Adsorption isotherm of 1-butene on ZIF-7
DOI: 10.1002/chem.201100958
Adsorbate 1-butene: InChIKey VXNZUUAINFGPBY-UHFFFAOYSA-N
Temperature: 338 K
Tabular data in the source: 0
pressure (bar)	uptake (mmol/g)
0.14022	0.0566038
0.225872	0.622642
0.243437	0.973585
0.25754	1.21132
0.261042	1.29057
0.303936	1.51698
0.364884	1.68679
0.404371	1.75472
0.533759	1.84528
0.670381	1.90189
0.796213	1.95849
0.932863	1.99245
1.0623	2.03774
1.20258	2.04906
