Adsorption isotherm of Ethene on ZIF-7
DOI: 10.1002/chem.201100958
Adsorbate Ethene: InChIKey VGGSQFUCUMXWEO-UHFFFAOYSA-N
Temperature: 298 K
Tabular data in the source: 0
pressure (bar)	uptake (mmol/g)
0.0102787	0.330958
0.0114736	0.383015
0.0124601	0.408992
0.0139085	0.452338
0.0157402	0.495658
0.0178135	0.547688
0.0198843	0.599745
0.0251189	0.686411
0.0280388	0.738468
0.0312982	0.790525
0.0349365	0.842582
0.0384654	0.894664
0.0605466	1.14642
0.0666623	1.20721
0.0744115	1.26798
0.0819276	1.32006
0.0902028	1.38086
0.0993139	1.44165
0.11086	1.49371
0.122058	1.54579
0.136247	1.60656
0.15001	1.65864
0.167448	1.71941
0.186914	1.77146
0.202985	1.79744
0.226581	1.8495
0.256422	1.89282
0.286231	1.93616
0.323928	1.96206
0.346976	2.00549
0.392672	2.03138
0.432336	2.06605
0.489274	2.10066
0.553712	2.12655
0.626635	2.14374
0.699481	2.17838
0.780795	2.19559
