Adsorption isotherm of 1-butene on ZIF-7
DOI: 10.1002/chem.201100958
Adsorbate 1-butene: InChIKey VXNZUUAINFGPBY-UHFFFAOYSA-N
Temperature: 373 K
Tabular data in the source: 0
pressure (bar)	uptake (mmol/g)
0.173077	0.0338346
0.237981	0.0338346
0.302885	0.0338346
0.364183	0.0451128
0.436298	0.0451128
0.497596	0.056391
0.5625	0.0676692
0.602163	0.0789474
0.638221	0.0902256
0.670673	0.0902256
0.703125	0.0902256
0.764423	0.112782
0.789663	0.146617
0.832933	0.191729
0.86899	0.293233
0.894231	0.451128
0.930288	0.609023
0.96274	0.744361
0.998798	0.93609
1.03125	1.07143
1.0601	1.18421
1.10337	1.27444
1.13582	1.34211
1.16466	1.40977
1.20072	1.45489
