Adsorption isotherm of N-propane on ZIF-7
DOI: 10.1002/chem.201100958
Adsorbate N-propane: InChIKey ATUOYWHBWRKTHZ-UHFFFAOYSA-N
Temperature: 338 K
Tabular data in the source: 0
pressure (bar)	uptake (mmol/g)
0.0652456	0.0101432
0.0693058	0.113925
0.0869138	0.474429
0.0937264	1.20636
0.136687	1.72527
0.176667	1.84544
0.214964	1.88367
0.242551	1.92191
0.273678	1.94376
0.411353	2.01477
0.531671	2.0967
0.666749	2.13493
0.763755	2.18409
0.94345	2.21687
1.16542	2.24964
