Adsorption isotherm of Cis-2-Butene on ZIF-7
DOI: 10.1002/chem.201100958
Adsorbate Cis-2-Butene: InChIKey IAQRGUVFOMOMEM-ARJAWSKDSA-N
Temperature: 298 K
Tabular data in the source: 0
pressure (bar)	uptake (mmol/g)
0.0170168	0.267802
0.0178948	0.857718
0.0180757	0.661079
0.0190083	1.21822
0.0192006	1.40831
0.02081	1.58528
0.023718	1.89335
0.0290051	2.07032
0.0388326	2.23419
0.0710201	2.34562
0.119842	2.38494
0.139365	2.3915
0.281862	2.41772
0.662926	2.48326
0.763206	2.50293
0.952305	2.54226
