Adsorption isotherm of 1-butene on ZIF-7
DOI: 10.1002/chem.201100958
Adsorbate 1-butene: InChIKey VXNZUUAINFGPBY-UHFFFAOYSA-N
Temperature: 298 K
Tabular data in the source: 0
pressure (bar)	uptake (mmol/g)
0.0264939	0.667634
0.0284272	0.366121
0.0292984	0.91671
0.0317542	1.16579
0.0388326	1.36242
0.0479691	1.55251
0.0586619	1.63772
0.0746844	1.6836
0.110573	1.78192
0.139365	1.78847
0.173896	1.82125
0.208422	1.85402
0.237548	1.84747
0.296405	1.88679
0.358848	1.91957
0.452288	1.93923
0.558701	1.972
0.690151	2.00478
0.818898	2.02444
1.00144	2.06377
1.17636	2.10965
1.2622	2.13587
