Adsorption isotherm of Trans-2-Butene on ZIF-7
DOI: 10.1002/chem.201100958
Adsorbate Trans-2-Butene: InChIKey IAQRGUVFOMOMEM-ONEGZZNKSA-N
Temperature: 338 K
Tabular data in the source: 0
pressure (bar)	uptake (mmol/g)
0.0647211	0.0226415
0.093498	0.0226415
0.13665	0.0339623
0.251514	0.237736
0.265766	0.350943
0.279924	0.543396
0.308457	0.74717
0.340654	0.89434
0.398072	1.00755
0.52742	1.13208
0.660405	1.22264
0.789711	1.38113
0.804031	1.43774
0.847007	1.59623
0.875567	1.77736
0.904167	1.92453
0.932822	2.02642
0.979395	2.18491
1.02595	2.35472
1.06906	2.4
1.1948	2.53585
