Adsorption isotherm of Cis-2-Butene on ZIF-7
DOI: 10.1002/chem.201100958
Adsorbate Cis-2-Butene: InChIKey IAQRGUVFOMOMEM-ARJAWSKDSA-N
Temperature: 338 K
Tabular data in the source: 0
pressure (bar)	uptake (mmol/g)
0.115054	0.045283
0.207534	0.916981
0.210737	1.24528
0.224773	1.53962
0.246057	1.78868
0.260323	1.89057
0.314008	2.11698
0.385774	2.26415
0.407344	2.27547
0.529551	2.35472
0.669771	2.41132
0.806434	2.43396
0.93589	2.46792
1.06894	2.50189
1.20202	2.51321
