Adsorption isotherm of N-propane on ZIF-7
DOI: 10.1002/chem.201100958
Adsorbate N-propane: InChIKey ATUOYWHBWRKTHZ-UHFFFAOYSA-N
Temperature: 373 K
Tabular data in the source: 0
pressure (bar)	uptake (mmol/g)
0.067245	0.00468097
0.138766	0.0156053
0.202371	0.0483785
0.231814	0.354261
0.246239	0.709303
0.261563	1.01519
0.286354	1.26645
0.313496	1.4467
0.353727	1.55048
0.393143	1.63241
0.436952	1.70888
0.500524	1.75804
0.590916	1.82359
0.697632	1.85636
0.823621	1.90552
0.957797	1.94376
1.08071	1.96014
1.20114	2.00384
