Adsorption isotherm of Trans-2-Butene on ZIF-7
DOI: 10.1002/chem.201100958
Adsorbate Trans-2-Butene: InChIKey IAQRGUVFOMOMEM-ONEGZZNKSA-N
Temperature: 298 K
Tabular data in the source: 0
pressure (bar)	uptake (mmol/g)
0.0178948	0.529987
0.0225543	0.870827
0.0388326	0.942928
0.0769731	1.0478
0.0834252	1.25755
0.085121	1.35587
0.0886167	1.57873
0.0960448	1.7557
0.0999891	1.88679
0.110573	2.05721
0.128587	2.14898
0.177431	2.2473
0.265349	2.3194
0.377363	2.41772
0.400846	2.42427
0.553108	2.47671
0.942772	2.65368
1.06376	2.76511
1.11864	2.87654
1.14138	2.98797
1.22467	3.09284
