Adsorption isotherm of Ethane on ZIF-7
DOI: 10.1002/chem.201100958
Adsorbate Ethane: InChIKey OTMSDBZUPAUEDD-UHFFFAOYSA-N
Temperature: 298 K
Tabular data in the source: 0
pressure (bar)	uptake (mmol/g)
0.0101384	0.661995
0.0116324	0.72271
0.0133466	0.792137
0.0153133	0.870274
0.0170939	0.931042
0.0193451	1.00049
0.022503	1.07861
0.0247759	1.14811
0.027656	1.20888
0.0304495	1.26967
0.0321707	1.28699
0.0466294	1.47792
0.0527704	1.55609
0.05972	1.61683
0.0666623	1.66017
0.0733956	1.71226
0.0830615	1.76429
0.102083	1.8423
0.12546	1.91159
0.156326	1.98086
0.184362	2.0241
0.214458	2.06737
0.259971	2.11056
0.323928	2.14499
0.398107	2.17944
0.489274	2.18776
0.61808	2.20474
0.80256	2.20425
