Adsorption isotherm of Cis-2-Butene on ZIF-7
DOI: 10.1002/chem.201100958
Adsorbate Cis-2-Butene: InChIKey IAQRGUVFOMOMEM-ARJAWSKDSA-N
Temperature: 373 K
Tabular data in the source: 0
pressure (bar)	uptake (mmol/g)
0.0685096	0.0225564
0.115385	0.0338346
0.53726	0.0789474
0.659856	0.191729
0.77524	0.755639
0.825721	1.1391
0.858173	1.34211
0.883413	1.54511
0.930288	1.69173
0.980769	1.8609
1.04207	2.0188
1.06731	2.05263
1.20072	2.16541
