Adsorption isotherm of N-propane on ZIF-7
DOI: 10.1002/chem.201100958
Adsorbate N-propane: InChIKey ATUOYWHBWRKTHZ-UHFFFAOYSA-N
Temperature: 338 K
Tabular data in the source: 0
pressure (bar)	uptake (mmol/g)
0.0689084	0.0156053
0.0950832	0.0265297
0.121054	0.0538406
0.202225	0.971488
0.219176	1.15174
0.232815	1.37569
0.247303	1.55594
0.268033	1.69796
0.30243	1.83998
0.355256	1.99838
0.392861	2.08031
0.536662	2.23871
0.676402	2.30972
0.8107	2.35342
0.942772	2.36981
1.06376	2.39712
