Adsorption isotherm of Ethane on ZIF-7
DOI: 10.1002/chem.201100958
Adsorbate Ethane: InChIKey OTMSDBZUPAUEDD-UHFFFAOYSA-N
Temperature: 298 K
Tabular data in the source: 0
pressure (bar)	uptake (mmol/g)
0.0304495	0.0153154
0.0417734	0.0234282
0.0527704	0.0316969
0.0902028	0.100369
0.104929	0.413672
0.109347	0.69234
0.117127	1.15388
0.132553	1.46724
0.160683	1.77175
0.208643	1.91063
0.282323	2.05814
0.403618	2.14457
0.524087	2.17892
0.653018	2.19593
0.80256	2.23038
0.920829	2.25625
1.0421	2.27344
1.19567	2.28189
