Adsorption isotherm of Propene on ZIF-7
DOI: 10.1002/chem.201100958
Adsorbate Propene: InChIKey QQONPFPTGQHPMA-UHFFFAOYSA-N
Temperature: 298 K
Tabular data in the source: 0
pressure (bar)	uptake (mmol/g)
0.0232455	0.239555
0.0246921	0.479891
0.025194	0.632832
0.0264939	0.785773
0.0270325	0.987874
0.0278609	1.17905
0.0292984	1.34838
0.0311216	1.57779
0.0354706	1.75804
0.0404274	1.86729
0.0519899	2.053
0.0668594	2.15678
0.0941313	2.23325
0.112821	2.2551
0.136589	2.28241
0.273481	2.3425
0.408994	2.37527
0.547571	2.39166
0.662926	2.39712
0.8107	2.4135
0.971663	2.42443
1.06376	2.43535
1.18826	2.44082
