Adsorption isotherm of N-propane on ZIF-7
DOI: 10.1002/chem.201100958
Adsorbate N-propane: InChIKey ATUOYWHBWRKTHZ-UHFFFAOYSA-N
Temperature: 298 K
Tabular data in the source: 0
pressure (bar)	uptake (mmol/g)
0.00668041	0.539975
0.0139952	0.998799
0.0293195	1.91645
0.0396505	1.96561
0.051248	2.0093
0.0544372	2.02569
0.0623573	2.06392
0.0736187	2.0967
0.0843295	2.11855
0.0951517	2.1404
0.132623	2.18955
0.168847	2.21687
0.196353	2.22779
0.242551	2.24418
0.273678	2.26056
0.393143	2.26056
0.531671	2.27695
0.646924	2.28241
0.799131	2.29334
1.0174	2.30426
1.18315	2.30972
