Adsorption isotherm of Carbon Dioxide on ZIF-7
DOI: 10.1002/chem.201100958
Adsorbate Carbon Dioxide: InChIKey CURLTUGMZLYLDI-UHFFFAOYSA-N
Temperature: 298 K
Tabular data in the source: 0
pressure (bar)	uptake (mmol/g)
0.0101384	0.139373
0.0117934	0.165505
0.0129846	0.182927
0.0146947	0.209059
0.0166303	0.243902
0.0190809	0.261324
0.021299	0.296167
0.0247759	0.3223
0.0272785	0.348432
0.0300338	0.383275
0.0492652	0.557491
0.0549921	0.601045
0.0613847	0.65331
0.0694688	0.696864
0.0764857	0.749129
0.0853768	0.801394
0.0940005	0.862369
0.104929	0.923345
0.115528	0.97561
0.130743	1.0453
0.145942	1.10627
0.158489	1.15854
0.174498	1.21951
0.194783	1.28049
0.214458	1.34146
0.236121	1.39373
0.259971	1.4547
0.286231	1.50697
0.319505	1.56794
0.356647	1.62021
0.392672	1.67247
0.43832	1.73345
0.516931	1.81185
0.626635	1.88153
0.699481	1.92509
0.791602	1.96864
0.883626	2.0122
