Adsorption isotherm of N-Butane on ZIF-7
DOI: 10.1002/chem.201100958
Adsorbate N-Butane: InChIKey IJDNQMDRQITEOD-UHFFFAOYSA-N
Temperature: 373 K
Tabular data in the source: 0
pressure (bar)	uptake (mmol/g)
0.133413	0.0225564
0.266827	0.056391
0.346154	0.789474
0.393029	1.19549
0.414663	1.28571
0.483173	1.56767
0.526442	1.66917
0.663462	1.88346
0.796875	1.99624
0.926683	2.06391
1.06731	2.1203
1.19712	2.15414
