Adsorption isotherm of N-propane on ZIF-7
DOI: 10.1002/chem.201100958
Adsorbate N-propane: InChIKey ATUOYWHBWRKTHZ-UHFFFAOYSA-N
Temperature: 373 K
Tabular data in the source: 0
pressure (bar)	uptake (mmol/g)
0.262693	0.0156053
0.408994	0.0156053
0.536662	0.0265297
0.66963	0.0319919
0.794549	0.239555
0.914739	0.938715
0.942772	1.08619
1.08538	1.53955
1.10745	1.59418
1.21241	1.77443
