Adsorption isotherm of N-Butane on ZIF-7
DOI: 10.1002/chem.201100958
Adsorbate N-Butane: InChIKey IJDNQMDRQITEOD-UHFFFAOYSA-N
Temperature: 298 K
Tabular data in the source: 0
pressure (bar)	uptake (mmol/g)
0.00694975	0.444777
0.00738224	0.798726
0.00792093	1.11335
0.00893744	1.44108
0.0110402	1.74915
0.0161819	2.07688
0.0388326	2.40461
0.0598543	2.45049
0.107285	2.4636
0.136589	2.48982
0.27904	2.52259
0.4049	2.52259
0.553108	2.5357
0.683242	2.54226
0.786595	2.54226
0.961936	2.56192
1.08538	2.57503
1.22467	2.58158
