Adsorption isotherm of Carbon Dioxide on ZIF-7
DOI: 10.1002/chem.201100958
Adsorbate Carbon Dioxide: InChIKey CURLTUGMZLYLDI-UHFFFAOYSA-N
Temperature: 195 K
Tabular data in the source: 0
pressure (bar)	uptake (mmol/g)
0.00104974	0.220982
0.00116086	0.43073
0.00120853	0.640478
0.00125816	0.863335
0.00125816	1.07308
0.00128374	1.82031
0.00130983	1.59745
0.00130983	2.08249
0.00133646	1.36149
0.00160181	2.26602
0.00351117	2.44955
0.0064215	2.5151
0.00868418	2.55443
0.012475	2.60686
0.0182848	2.6593
0.027901	2.67241
0.0327745	2.71174
0.0718416	2.79039
0.101146	2.82972
0.163944	4.20619
0.200489	4.27174
0.29386	4.40283
0.422135	4.4946
0.505949	4.54703
0.618731	4.6388
0.698134	4.69123
0.787727	4.73056
0.888818	4.82233
