Adsorption isotherm of Trans-2-Butene on ZIF-7
DOI: 10.1002/chem.201100958
Adsorbate Trans-2-Butene: InChIKey IAQRGUVFOMOMEM-ONEGZZNKSA-N
Temperature: 373 K
Tabular data in the source: 0
pressure (bar)	uptake (mmol/g)
0.266827	0.0451128
0.40024	0.0676692
0.53726	0.0902256
0.667067	0.135338
0.804087	0.203008
0.933894	0.281955
1.0637	0.473684
1.125	0.642857
1.16827	0.81203
1.19712	0.958647
