Adsorption isotherm of Ethene on ZIF-7
DOI: 10.1002/chem.201100958
Adsorbate Ethene: InChIKey VGGSQFUCUMXWEO-UHFFFAOYSA-N
Temperature: 298 K
Tabular data in the source: 0
pressure (bar)	uptake (mmol/g)
0.0666623	0.0399657
0.0775443	0.0396797
0.0953016	0.0480004
0.118748	0.0562952
0.140045	0.0734048
0.167448	0.0904883
0.200213	0.0901503
0.232897	0.107286
0.26357	0.141895
0.302411	0.176478
0.328411	0.228587
0.361584	0.620391
0.392672	1.01222
0.432336	1.32563
0.476006	1.56935
0.496046	1.71735
0.524087	1.79565
0.569146	1.8826
0.653018	2.00429
0.739021	2.09116
0.895857	2.1692
1.17935	2.24707
