Adsorption isotherm of Propene on ZIF-7
DOI: 10.1002/chem.201100958
Adsorbate Propene: InChIKey QQONPFPTGQHPMA-UHFFFAOYSA-N
Temperature: 298 K
Tabular data in the source: 0
pressure (bar)	uptake (mmol/g)
0.0102787	1.42852
0.011317	1.48931
0.0124601	1.55011
0.0139085	1.61087
0.0153133	1.66296
0.0170939	1.72372
0.0188204	1.77581
0.0210083	1.82786
0.0234504	1.87121
0.0265387	1.92324
0.0296237	1.96659
0.0330674	2.01864
0.0364074	2.06202
0.0412031	2.08791
0.0466294	2.13123
0.0527704	2.16584
0.0605466	2.19172
0.0657522	2.21769
0.0744115	2.23488
0.0853768	2.26075
0.0953016	2.27797
0.11395	2.31247
0.130743	2.32963
0.147962	2.34682
0.169766	2.35527
0.192124	2.37246
0.217427	2.38094
0.246062	2.39812
0.270917	2.38923
0.306596	2.40642
0.351778	2.41487
0.392672	2.41466
0.489274	2.42295
0.609642	2.44867
0.74925	2.43957
0.871562	2.43928
1.01384	2.44771
1.16325	2.45616
