Adsorption isotherm of Methane on [Cu2(glu)2(mu-bpp)]*2H2O
DOI: 10.1039/C3cc44193h
Adsorbate Methane: InChIKey VNWKTOKETHGBQD-UHFFFAOYSA-N
Temperature: 273 K
Tabular data in the source: 0
pressure (bar)	uptake (wt%)
0.251391	0.0811453
1.89005	0.124843
3.46316	0.16854
5.82282	0.124843
7.52702	0.124843
9.29677	0.0811453
13.0329	0.0811453
14.9993	0.0811453
16.9657	0.0811453
19.5875	0.0811453
22.6027	0.212238
25.4867	0.387028
29.3539	0.387028
