Adsorption isotherm of Carbon Dioxide on [Cu2(glu)2(mu-bpp)]*2H2O
DOI: 10.1039/C3cc44193h
Adsorbate Carbon Dioxide: InChIKey CURLTUGMZLYLDI-UHFFFAOYSA-N
Temperature: 273 K
Tabular data in the source: 0
pressure (bar)	uptake (wt%)
0.120299	0.0811453
1.36568	0.605515
2.6766	0.955095
4.57744	1.04249
7.26484	1.08619
9.16568	1.17358
10.8699	1.39207
13.0985	1.69795
14.9993	2.17862
16.9657	3.00888
19.5875	4.3635
22.5371	6.19879
25.3556	9.43241
28.9606	15.7685
