Adsorption isotherm of Hydrogen on [Cu2(glu)2(mu-bpp)]*2H2O
DOI: 10.1039/C3cc44193h
Adsorbate Hydrogen: InChIKey UFHFLCQGNIYNRP-UHFFFAOYSA-N
Temperature: 77 K
Tabular data in the source: 0
pressure (bar)	uptake (wt%)
0.44803	0.0374478
2.34887	0.255935
3.92198	0.430725
6.28164	0.649212
7.65811	0.824002
9.36232	0.955095
11.3942	1.17358
13.4917	1.34837
15.2615	1.56686
17.8178	1.69795
20.4396	1.87274
23.0615	2.00383
28.1085	2.17862
