Adsorption isotherm of Nitrogen on DTP-ANDI-COF
DOI: 10.1039/c3sc52034j
Article source: Figure 2A
Adsorbate Nitrogen: InChIKey IJGRMHOSHXDMSA-UHFFFAOYSA-N
Kind: experiment
Temperature: 77 K
Tabular data in the source: 0
pressure (bar)	uptake ()
0	14.5455
0	130.909
0.004606	247.273
0.018423	305.455
0.018423	327.273
0.046057	349.091
0.069085	363.636
0.092114	385.455
0.124353	414.545
0.147382	429.091
0.165805	458.182
0.193439	487.273
0.230284	509.091
0.248707	530.909
0.276341	560
0.294764	581.818
0.350032	632.727
0.400694	683.636
0.455962	741.818
0.460568	916.364
0.465174	1076.36
0.478991	1178.18
0.506625	1221.82
0.566499	1229.09
0.617161	1236.36
0.667824	1258.18
0.718486	1272.73
0.769149	1287.27
0.819811	1301.82
0.865868	1316.36
0.914228	1341.82
0.957982	1381.82
0.98101	1440
0.999433	1534.55
0.994827	1476.36
0.971799	1403.64
0.805994	1309.09
0.755332	1301.82
0.704669	1280
0.658613	1265.45
0.589527	1250.91
0.534259	1229.09
0.460568	1141.82
0.455962	974.545
0.460568	880
0.455962	800
0.386877	683.636
0.013817	305.455
