Adsorption isotherm of Nitrogen on DTP-APyrDI-COF
DOI: 10.1039/c3sc52034j
Article source: Figure 2A
Adsorbate Nitrogen: InChIKey IJGRMHOSHXDMSA-UHFFFAOYSA-N
Kind: experiment
Temperature: 77 K
Tabular data in the source: 0
pressure (bar)	uptake (cm3(STP)/g)
0	25.4545
0	70
0	140
0	197.273
0	254.545
0.009296	292.727
0.02324	305.455
0.041831	330.909
0.074367	337.273
0.097607	356.364
0.125494	369.091
0.144086	381.818
0.167326	400.909
0.190565	400.909
0.199861	407.273
0.218453	426.364
0.239369	439.091
0.255636	451.818
0.276552	474.091
0.311412	496.364
0.348595	560
0.409018	598.182
0.460146	661.818
0.469442	871.818
0.483385	1018.18
0.515921	1037.27
0.557752	1062.73
0.60888	1081.82
0.669303	1094.55
0.72043	1107.27
0.766909	1120
0.813389	1145.45
0.873812	1170.91
0.924939	1196.36
0.962123	1209.09
0.994658	1240.91
1.01325	1279.09
0.813389	1145.45
0.757614	1126.36
0.701838	1104.09
0.646063	1081.82
0.604232	1075.45
0.501977	1050
0.469442	960.909
0.460146	833.636
0.432258	687.273
0.413666	610.909
