Adsorption isotherm of Hydrogen on Carbon
DOI: 10.1002/Er.1933
Adsorbate Hydrogen: InChIKey UFHFLCQGNIYNRP-UHFFFAOYSA-N
Temperature: 77 K
Tabular data in the source: 0
pressure (bar)	uptake (wt%)
0.739521	1.12614
2.11599	1.77505
5.32776	2.03942
11.5983	2.47202
25.8219	2.90463
40.6572	3.36127
60.2336	3.72177
