Adsorption isotherm of Nitrogen on MIL-101
DOI: 10.1002/Er.1933
Adsorbate Nitrogen: InChIKey IJGRMHOSHXDMSA-UHFFFAOYSA-N
Temperature: 77 K
Tabular data in the source: 0
pressure (bar)	uptake (cm3(STP)/g)
0.00400996	264.432
0.0127495	358.818
0.0345982	453.205
0.0651864	537.104
0.08922	579.054
0.115439	676.062
0.148212	744.23
0.200649	775.692
0.250901	864.835
0.329556	885.81
0.423506	898.919
0.633254	912.028
0.731573	927.759
0.856111	922.516
0.971909	935.625
