Adsorption isotherm of Nitrogen on MIL-101
DOI: 10.1002/Er.1933
Adsorbate Nitrogen: InChIKey IJGRMHOSHXDMSA-UHFFFAOYSA-N
Temperature: 77 K
Tabular data in the source: 0
pressure (bar)	uptake (cm3(STP)/g)
0.00837971	314.247
0.0302285	421.743
0.0630016	500.398
0.0979595	560.701
0.130733	623.625
0.150397	670.818
0.18317	699.659
0.213758	720.633
0.26401	815.02
0.360144	820.264
0.436615	833.373
0.565523	835.995
0.707539	851.726
0.818968	849.104
0.895439	856.97
0.943506	867.457
0.987203	880.566
