Adsorption isotherm of Hydrogen on MIL-101
DOI: 10.1002/Er.1933
Adsorbate Hydrogen: InChIKey UFHFLCQGNIYNRP-UHFFFAOYSA-N
Temperature: 77 K
Tabular data in the source: 0
pressure (bar)	uptake (wt%)
0.58658	1.00597
2.26893	2.25572
5.63364	3.74581
8.0807	4.46681
11.9042	5.23589
18.1748	5.9569
23.9866	6.58177
29.7983	7.01438
39.5866	7.56715
45.5513	7.83152
54.116	8.19203
61.6101	8.40833
