Adsorption isotherm of Nitrogen on MIL-101
DOI: 10.1002/Er.1933
Adsorbate Nitrogen: InChIKey IJGRMHOSHXDMSA-UHFFFAOYSA-N
Temperature: 77 K
Tabular data in the source: 0
pressure (bar)	uptake (cm3(STP)/g)
0.0105646	416.499
0.0302285	518.751
0.0651864	615.759
0.104514	707.524
0.124178	770.449
0.137287	817.642
0.165691	862.213
0.213758	912.028
0.239976	1016.9
0.381993	1037.88
0.539304	1056.23
0.705355	1077.2
0.856111	1087.69
0.932581	1100.8
0.976279	1124.4
0.987203	1171.59
