Adsorption isotherm of Nitrogen on MIL-101
DOI: 10.1002/Er.1933
Adsorbate Nitrogen: InChIKey IJGRMHOSHXDMSA-UHFFFAOYSA-N
Temperature: 77 K
Tabular data in the source: 0
pressure (bar)	uptake (cm3(STP)/g)
0.0105646	240.835
0.0324133	311.625
0.0782957	374.549
0.135102	442.717
0.167876	471.558
0.215943	495.154
0.257455	534.482
0.403842	552.835
0.548044	555.457
0.755607	563.323
0.851741	573.81
0.912918	573.81
0.9588	579.054
0.993758	592.163
