Adsorption isotherm of Hydrogen on MIL-101
DOI: 10.1002/Er.1933
Adsorbate Hydrogen: InChIKey UFHFLCQGNIYNRP-UHFFFAOYSA-N
Temperature: 77 K
Tabular data in the source: 0
pressure (bar)	uptake (wt%)
0.433639	0.525302
0.739521	1.65488
2.26893	2.64026
5.17482	3.40934
9.76305	4.05824
15.2689	4.65908
21.9983	5.16379
31.3278	5.57236
44.1748	5.98093
50.2925	6.19724
61.1513	6.3895
