Adsorption isotherm of Hydrogen on MIL-101
DOI: 10.1002/Er.1933
Adsorbate Hydrogen: InChIKey UFHFLCQGNIYNRP-UHFFFAOYSA-N
Temperature: 77 K
Tabular data in the source: 0
pressure (bar)	uptake (wt%)
0.433639	0.741605
0.739521	2.15959
1.50423	2.97673
3.49246	3.84194
6.09246	4.61102
10.2219	5.54833
16.3395	6.50967
22.1513	7.20665
27.1983	7.75942
33.9278	8.38429
39.7395	8.76883
48.6101	9.3216
56.4101	9.75421
62.2219	10.0666
