Adsorption isotherm of Hydrogen on MIL-101
DOI: 10.1002/Er.1933
Adsorbate Hydrogen: InChIKey UFHFLCQGNIYNRP-UHFFFAOYSA-N
Temperature: 77 K
Tabular data in the source: 0
pressure (bar)	uptake (wt%)
1.0454	1.43858
2.11599	2.25572
3.18658	2.8806
6.55129	3.62564
12.0572	4.25051
17.8689	4.73118
28.116	5.23589
36.3748	5.57236
45.7042	5.93287
56.2572	6.12513
60.2336	6.14917
