Adsorption isotherm of Hydrogen on MIL-101
DOI: 10.1002/Er.1933
Adsorbate Hydrogen: InChIKey UFHFLCQGNIYNRP-UHFFFAOYSA-N
Temperature: 77 K
Tabular data in the source: 0
pressure (bar)	uptake (wt%)
0.433639	1.27034
3.33952	2.20766
7.92776	3.0248
12.9748	3.74581
19.3983	4.25051
27.0454	4.89942
33.7748	5.38009
38.9748	5.86076
44.7866	6.26934
52.1278	6.62984
60.8454	7.18261
