Adsorption isotherm of Nitrogen on MIL-101
DOI: 10.1002/Er.1933
Adsorbate Nitrogen: InChIKey IJGRMHOSHXDMSA-UHFFFAOYSA-N
Temperature: 77 K
Tabular data in the source: 0
pressure (bar)	uptake (cm3(STP)/g)
0.00837971	319.491
0.0389679	416.499
0.0782957	495.154
0.130733	592.163
0.167876	655.087
0.207203	676.062
0.248716	749.474
0.35796	767.827
0.414766	767.827
0.556783	775.692
0.711909	783.558
0.843002	788.802
0.947875	799.289
0.987203	801.911
0.989388	815.02
