Adsorption isotherm of Nitrogen on Carbon
DOI: 10.1002/Er.1933
Adsorbate Nitrogen: InChIKey IJGRMHOSHXDMSA-UHFFFAOYSA-N
Temperature: 77 K
Tabular data in the source: 0
pressure (bar)	uptake (cm3(STP)/g)
0.0171192	204.129
0.0586318	235.591
0.113254	251.322
0.220312	280.163
0.395102	274.919
0.534934	282.785
0.641993	282.785
0.735943	288.028
0.821153	277.541
0.875775	290.65
0.952245	288.028
0.989388	303.759
