Adsorption isotherm of Au(III) on AS-5BA functionalized copolymer
DOI: 10.1016/j.psep.2017.01.002
Article source: Table 4
Adsorbate Au(III): InChIKey CBMIPXHVOVTTTL-UHFFFAOYSA-N
Kind: experiment
Temperature: 298 K
Tabular data in the source: 1
pressure (bar)	uptake (mg/g)
1.01325	8.66
1.01325	17.19
1.01325	30.2
1.01325	34.8
1.01325	45.3
1.01325	57
1.01325	67.2
1.01325	80.5
1.01325	91
1.01325	115
1.01325	128
1.01325	135
