Adsorption isotherm of Nitrogen on Np-MgO-500
DOI: 10.1021/Ja401869h
Adsorbate Nitrogen: InChIKey IJGRMHOSHXDMSA-UHFFFAOYSA-N
Temperature: 77 K
Tabular data in the source: 0
pressure (bar)	uptake (cm3(STP)/g)
0.00400996	296.83
0.0171192	333.973
0.0717411	342.713
0.244346	355.822
0.362329	364.561
0.465018	366.746
0.561153	373.301
0.663842	379.856
0.768716	386.41
0.829892	392.965
0.901993	412.629
0.9588	443.217
0.976279	478.175
0.993758	515.318
