Adsorption isotherm of Nitrogen on Np-MgO-500
DOI: 10.1021/Ja401869h
Adsorbate Nitrogen: InChIKey IJGRMHOSHXDMSA-UHFFFAOYSA-N
Temperature: 77 K
Tabular data in the source: 0
pressure (bar)	uptake (cm3(STP)/g)
0.00400996	6.24214
0.0149343	34.6455
0.0761108	45.5699
0.412581	67.4186
0.502161	71.7884
0.615775	84.8976
0.707539	95.822
0.786195	108.931
0.849556	126.41
0.906363	146.074
0.95443	200.696
0.976279	240.024
0.982834	270.612
0.985018	303.385
