Adsorption isotherm of Nitrogen on Np-MgO-500
DOI: 10.1021/Ja401869h
Adsorbate Nitrogen: InChIKey IJGRMHOSHXDMSA-UHFFFAOYSA-N
Temperature: 77 K
Tabular data in the source: 0
pressure (bar)	uptake (cm3(STP)/g)
0.00182509	602.713
0.00400996	650.78
0.0280436	672.629
0.0870352	687.923
0.399472	709.772
0.495607	714.141
0.587371	722.881
0.679136	731.62
0.766531	744.73
0.86922	773.133
0.901993	792.797
0.943506	825.57
0.967539	867.082
0.980649	921.704
