Adsorption isotherm of Nitrogen on Np-MgO-500
DOI: 10.1021/Ja401869h
Adsorbate Nitrogen: InChIKey IJGRMHOSHXDMSA-UHFFFAOYSA-N
Temperature: 77 K
Tabular data in the source: 0
pressure (bar)	uptake (cm3(STP)/g)
0.00400996	3.18357
0.00400996	13.0155
0.00837971	32.0239
0.0302285	39.234
0.0935898	47.0995
0.242161	58.2424
0.388548	66.7634
0.504346	72.0071
0.596111	76.5953
0.696615	83.1499
0.768716	91.0155
0.832077	100.192
0.904178	117.889
0.943506	142.142
0.956615	159.184
0.971909	184.091
0.980649	214.242
