Adsorption isotherm of 1-Butanol on Zn-bpdc-bpee
DOI: 10.1007/s10450-010-9260-z
Adsorbate 1-Butanol: InChIKey LRHPLDYGYMQRHN-UHFFFAOYSA-N
Temperature: 373 K
Tabular data in the source: 0
pressure (bar)	uptake (molecules/unitcell)
4.99e-05	0
0.000209384	0.0186047
0.000368916	0.0186047
0.000518476	0.0186047
0.000687978	0.0186047
0.000837538	0.0186047
0.000987098	0.0372093
0.00114663	0.0372093
0.00130616	0.0186047
0.00144575	0.0372093
0.00160528	0.0372093
0.00175484	0.055814
0.00191437	0.0372093
0.00205396	0.055814
0.00220352	0.055814
0.00235308	0.055814
0.00250264	0.0744186
0.00266217	0.0930233
0.00281173	0.0930233
0.00311086	0.111628
0.00340001	0.111628
0.00399825	0.111628
0.00413784	0.130233
