Adsorption isotherm of 1-Propanol on Zn-bpdc-bpee
DOI: 10.1007/s10450-010-9260-z
Adsorbate 1-Propanol: InChIKey BDERNNFJNOPAEC-UHFFFAOYSA-N
Temperature: 353 K
Tabular data in the source: 0
pressure (bar)	uptake (molecules/unitcell)
0.00101456	0.0370638
0.002773	0.130654
0.00368617	0.1487
0.00459942	0.147608
0.00537729	0.165816
0.00622281	0.183943
0.00710207	0.221169
0.00794768	0.220158
0.00875937	0.238325
0.00960465	0.313869
0.0104491	0.580801
0.0112253	1.00093
0.0121031	1.38265
0.01288	1.63053
0.0137252	1.72521
0.0145703	1.83903
0.0153819	1.87634
0.0157537	1.93331
