Adsorption isotherm of 1-Propanol on Zn-bpdc-bpee
DOI: 10.1007/s10450-010-9260-z
Adsorbate 1-Propanol: InChIKey BDERNNFJNOPAEC-UHFFFAOYSA-N
Temperature: 363 K
Tabular data in the source: 0
pressure (bar)	uptake (molecules/unitcell)
0.00578334	0.127053
0.00639209	0.145463
0.00750829	0.144128
0.0091316	0.199602
0.00967278	0.198955
0.010214	0.198308
0.010789	0.19762
0.0118712	0.234603
0.0124124	0.214816
0.0129874	0.233267
0.0140358	0.270291
0.0145769	0.288782
0.015152	0.268956
0.0156931	0.287447
