Adsorption isotherm of Cyclohexane on Ni-bodc-ted
DOI: 10.1007/s10450-010-9260-z
Adsorbate Cyclohexane: InChIKey XDTMQSROBMDMFD-UHFFFAOYSA-N
Temperature: 363 K
Tabular data in the source: 0
pressure (bar)	uptake (mmol/g)
0.00504463	1.05492
0.00868797	1.20004
0.0103695	1.25191
0.0156944	1.33519
0.0263442	1.41907
0.0364334	1.48221
0.0465227	1.504
0.0560514	1.53606
0.0658604	1.56816
0.0756695	1.57958
0.0849179	1.59095
0.0950072	1.62307
