Adsorption isotherm of 1-Propanol on Zn-bpdc-bpee
DOI: 10.1007/s10450-010-9260-z
Adsorbate 1-Propanol: InChIKey BDERNNFJNOPAEC-UHFFFAOYSA-N
Temperature: 338 K
Tabular data in the source: 0
pressure (bar)	uptake (molecules/unitcell)
0.00304327	0.206886
0.00355023	0.301973
0.0041576	0.645744
0.00466238	1.25758
0.00523504	1.81192
0.0058433	1.94516
0.00631635	2.05943
0.00692478	2.1544
0.00746491	2.40255
0.00803806	2.84206
0.00854243	3.54959
0.00914778	4.37183
0.00965158	5.21333
0.0101559	5.92087
0.0107631	6.32205
0.0113031	6.58935
0.0118096	6.79927
0.0124178	6.95165
0.0129923	7.0658
0.0135329	7.19912
0.0139723	7.27515
0.014547	7.35102
0.0151895	7.38853
0.0157644	7.40698
