Adsorption isotherm of 1-Propanol on Zn-bpdc-bpee
DOI: 10.1007/s10450-010-9260-z
Adsorbate 1-Propanol: InChIKey BDERNNFJNOPAEC-UHFFFAOYSA-N
Temperature: 358 K
Tabular data in the source: 0
pressure (bar)	uptake (molecules/unitcell)
0.00415979	0.128995
0.00970661	0.198915
0.01133	0.23525
0.011871	0.27288
0.0123446	0.272314
0.0129192	0.348181
0.0134935	0.519743
0.014034	0.691346
0.0145744	0.882087
0.0151146	1.11111
0.0156889	1.26353
0.01579	1.3591
