Adsorption isotherm of 1-Butanol on Zn-bpdc-bpee
DOI: 10.1007/s10450-010-9260-z
Adsorbate 1-Butanol: InChIKey LRHPLDYGYMQRHN-UHFFFAOYSA-N
Temperature: 323 K
Tabular data in the source: 0
pressure (bar)	uptake (molecules/unitcell)
0.000169502	0.186047
0.000339003	0.52093
0.000498534	1.09767
0.000658066	1.87907
0.000817597	2.77209
0.000967157	3.72093
0.00111672	4.61395
0.00127625	5.15349
0.00142581	5.1907
0.00158534	5.2093
0.0017349	5.26512
0.00188446	5.26512
0.00203402	5.26512
0.00218358	5.32093
0.00234311	5.33953
0.00250264	5.35814
0.0026522	5.35814
0.00280176	5.39535
0.00295132	5.39535
0.00309091	5.43256
0.00325044	5.45116
0.00340001	5.45116
0.00354957	5.45116
0.00369913	5.45116
0.00383872	5.50698
0.00398828	5.50698
0.00414781	5.50698
