Adsorption isotherm of 1-Butanol on Zn-bpdc-bpee
DOI: 10.1007/s10450-010-9260-z
Adsorbate 1-Butanol: InChIKey LRHPLDYGYMQRHN-UHFFFAOYSA-N
Temperature: 363 K
Tabular data in the source: 0
pressure (bar)	uptake (molecules/unitcell)
0.000827567	0.055814
0.00143578	0.055814
0.00158534	0.055814
0.00187449	0.111628
0.00205396	0.111628
0.00219355	0.111628
0.00235308	0.130233
0.00249267	0.111628
0.0026522	0.130233
0.00280176	0.130233
0.00295132	0.148837
0.00310088	0.223256
0.00326042	0.334884
0.00340001	0.483721
0.00354957	0.706977
0.00369913	0.893023
0.00383872	1.04186
0.00397831	1.17209
0.00413784	1.26512
