Adsorption isotherm of Cyclohexane on Ni-bodc-ted
DOI: 10.1007/s10450-010-9260-z
Adsorbate Cyclohexane: InChIKey XDTMQSROBMDMFD-UHFFFAOYSA-N
Temperature: 373 K
Tabular data in the source: 0
pressure (bar)	uptake (mmol/g)
0.00504463	0.899866
0.00952875	1.11744
0.0156944	1.2525
0.0263442	1.34671
0.0364334	1.40985
0.0465227	1.44198
0.0563317	1.47407
0.0658604	1.4958
0.0756695	1.51756
0.0854785	1.53932
0.0950072	1.56105
