Adsorption isotherm of 1-Propanol on Zn-bpdc-bpee
DOI: 10.1007/s10450-010-9260-z
Adsorbate 1-Propanol: InChIKey BDERNNFJNOPAEC-UHFFFAOYSA-N
Temperature: 373 K
Tabular data in the source: 0
pressure (bar)	uptake (molecules/unitcell)
0.00125125	0.0559194
0.0018939	0.0551506
0.00297619	0.0729947
0.00358494	0.0914052
0.00412613	0.0907578
0.00470114	0.0900699
0.00527606	0.108521
0.00581725	0.107874
0.00639217	0.126325
0.00693336	0.125677
0.00747454	0.12503
0.00804947	0.143481
0.00859066	0.142833
0.00913192	0.123047
0.00967302	0.141538
0.0107892	0.140203
0.0145774	0.15481
0.01522	0.17318
0.0156935	0.191753
