Adsorption isotherm of 1-Butanol on Zn-bpdc-bpee
DOI: 10.1007/s10450-010-9260-z
Adsorbate 1-Butanol: InChIKey LRHPLDYGYMQRHN-UHFFFAOYSA-N
Temperature: 298 K
Tabular data in the source: 0
pressure (bar)	uptake (molecules/unitcell)
0.000189443	0.372093
0.000348974	0.874419
0.000498534	1.5814
0.00113666	5.06047
0.00128622	5.80465
0.00143578	6.53023
0.00159531	7.16279
0.00174487	7.49767
0.00188446	7.55349
0.00204399	7.57209
0.00219355	7.6093
0.00234311	7.62791
0.00250264	7.62791
0.0026522	7.64651
0.00281173	7.68372
0.00294135	7.66512
0.00311086	7.68372
0.00326042	7.68372
0.00340001	7.68372
0.00354957	7.72093
0.00368916	7.73953
0.00383872	7.73953
0.00398828	7.75814
0.00413784	7.75814
