Adsorption isotherm of 1-Propanol on Zn-bpdc-bpee
DOI: 10.1007/s10450-010-9260-z
Adsorbate 1-Propanol: InChIKey BDERNNFJNOPAEC-UHFFFAOYSA-N
Temperature: 323 K
Tabular data in the source: 0
pressure (bar)	uptake (molecules/unitcell)
0.000675671	0.190579
0.00125028	0.285586
0.00185611	0.992995
0.00212452	1.50942
0.00242675	2.02581
0.00296591	2.50363
0.00323481	2.90522
0.00357086	3.42157
0.00387196	4.20589
0.00413988	4.83715
0.00444074	5.6789
0.00467451	6.38675
0.00497658	6.94142
0.00517758	7.4005
0.00578569	7.57203
0.00636045	7.62875
0.00690148	7.66639
0.00747649	7.6657
0.00801775	7.64591
0.00855869	7.70268
0.00909988	7.70203
0.00964098	7.72052
0.0102161	7.7007
0.0107571	7.73833
0.0112645	7.73772
0.0129556	7.75484
0.0156615	7.7516
