Adsorption isotherm of Cyclohexane on Ni-bodc-ted
DOI: 10.1007/s10450-010-9260-z
Adsorbate Cyclohexane: InChIKey XDTMQSROBMDMFD-UHFFFAOYSA-N
Temperature: 343 K
Tabular data in the source: 0
pressure (bar)	uptake (mmol/g)
0.0156944	1.51092
0.0263442	1.58446
0.0361532	1.64757
0.0462424	1.69003
0.0560514	1.73247
0.0655802	1.82655
0.0751089	2.024
0.0849179	2.1388
0.0944467	2.22255
