Adsorption isotherm of 1-Propanol on Zn-bpdc-bpee
DOI: 10.1007/s10450-010-9260-z
Adsorbate 1-Propanol: InChIKey BDERNNFJNOPAEC-UHFFFAOYSA-N
Temperature: 348 K
Tabular data in the source: 0
pressure (bar)	uptake (molecules/unitcell)
0.00470057	0.224042
0.00520801	0.204296
0.00574895	0.261065
0.00632396	0.260377
0.00689848	0.374523
0.0074722	0.680056
0.00801152	1.1196
0.00858491	1.50169
0.00912537	1.67329
0.00966598	1.80662
0.010207	1.84425
0.0107816	1.93926
0.0113226	1.97689
0.0118635	2.05279
0.0123705	2.12874
0.012979	2.20457
0.0134859	2.3188
0.0140262	2.52868
0.0145662	2.81511
0.0151393	3.25462
0.015645	3.65593
0.0157112	4.00034
