Adsorption isotherm of 1-Butanol on Zn-bpdc-bpee
DOI: 10.1007/s10450-010-9260-z
Adsorbate 1-Butanol: InChIKey LRHPLDYGYMQRHN-UHFFFAOYSA-N
Temperature: 303 K
Tabular data in the source: 0
pressure (bar)	uptake (molecules/unitcell)
0.000179472	0.27907
0.000668036	2.28837
0.00113666	5.11628
0.00127625	5.6
0.00143578	5.82326
0.00158534	6.04651
0.0017349	6.4
0.00189443	6.67907
0.00205396	6.97674
0.00219355	7.1814
0.00235308	7.2
0.00249267	7.27442
0.0026522	7.27442
0.00280176	7.33023
0.00295132	7.36744
0.00310088	7.40465
0.00325044	7.42326
0.00354957	7.46047
0.00369913	7.47907
0.00383872	7.47907
0.00399825	7.51628
0.00412787	7.51628
