Adsorption isotherm of O-Xylene on Zn-bpdc-apy
DOI: 10.1007/s10450-010-9260-z
Adsorbate O-Xylene: InChIKey CTQNGGLPUBDAKN-UHFFFAOYSA-N
Temperature: 393 K
Tabular data in the source: 0
pressure (bar)	uptake (mmol/g)
0.000408983	0.255012
0.000979073	0.520813
0.00151905	0.953545
0.00204448	1.36406
0.0026149	1.56311
0.00312757	1.58429
0.0036842	1.60538
0.00424083	1.62647
0.00476821	1.63649
0.00514908	1.64682
