Adsorption isotherm of 1-Butanol on Zn-bpdc-bpee
DOI: 10.1007/s10450-010-9260-z
Adsorbate 1-Butanol: InChIKey LRHPLDYGYMQRHN-UHFFFAOYSA-N
Temperature: 328 K
Tabular data in the source: 0
pressure (bar)	uptake (molecules/unitcell)
0.000169502	0.130233
0.000348974	0.353488
0.000508505	0.818605
0.000658066	1.50698
0.000817597	2.26977
0.000967157	3.23721
0.00111672	4.18605
0.00127625	4.94884
0.00142581	5.13488
0.00158534	5.13488
0.0017349	5.17209
0.00188446	5.2093
0.00205396	5.22791
0.00218358	5.24651
0.00234311	5.26512
0.0024827	5.26512
0.0026522	5.30233
0.00280176	5.30233
0.00295132	5.33953
0.00311086	5.35814
0.00325044	5.33953
0.00340001	5.33953
0.00352962	5.33953
0.00369913	5.33953
0.00384869	5.37674
0.00399825	5.39535
0.00413784	5.39535
