Adsorption isotherm of 1-Butanol on Zn-bpdc-bpee
DOI: 10.1007/s10450-010-9260-z
Adsorbate 1-Butanol: InChIKey LRHPLDYGYMQRHN-UHFFFAOYSA-N
Temperature: 313 K
Tabular data in the source: 0
pressure (bar)	uptake (molecules/unitcell)
0.000179472	0.297674
0.000329033	0.8
0.000508505	1.46977
0.000658066	2.32558
0.000817597	3.23721
0.000987098	4.14884
0.00117654	5.13488
0.00128622	5.41395
0.00143578	5.48837
0.00158534	5.52558
0.0017349	5.56279
0.00189443	5.56279
0.00205396	5.6
0.00219355	5.65581
0.00234311	5.65581
0.00250264	5.67442
0.0026522	5.71163
0.00280176	5.76744
0.00295132	5.80465
0.00310088	5.87907
0.00324047	5.95349
0.00340001	6.06512
0.00354957	6.19535
0.00368916	6.47442
0.00384869	6.8093
