Adsorption isotherm of O-Xylene on Zn-bpdc-apy
DOI: 10.1007/s10450-010-9260-z
Adsorbate O-Xylene: InChIKey CTQNGGLPUBDAKN-UHFFFAOYSA-N
Temperature: 333 K
Tabular data in the source: 0
pressure (bar)	uptake (mmol/g)
0.000437637	0.388447
0.000962854	0.843459
0.00150207	1.43194
0.00202627	2.09832
0.00256603	2.57555
0.00310768	2.66342
0.00363506	2.67344
0.00417704	2.69456
0.00471912	2.69343
0.00507069	2.70382
