Adsorption isotherm of 1-Propanol on Zn-bpdc-bpee
DOI: 10.1007/s10450-010-9260-z
Adsorbate 1-Propanol: InChIKey BDERNNFJNOPAEC-UHFFFAOYSA-N
Temperature: 303 K
Tabular data in the source: 0
pressure (bar)	uptake (molecules/unitcell)
0.000168633	0.115108
0.000706732	0.844125
0.00100798	1.59233
0.00124183	2.28297
0.00144242	2.83933
0.00160854	3.54916
0.0018758	4.33573
0.00194159	4.77698
0.00207526	5.16067
0.00224162	5.81295
0.00244148	6.54197
0.00267573	7.13669
0.00294389	7.71223
0.0030113	7.76978
0.00318033	7.78897
0.00412724	7.82734
0.00632563	7.86571
0.00747572	7.84652
0.0101815	7.86571
