Adsorption isotherm of 1-Butanol on Zn-bpdc-bpee
DOI: 10.1007/s10450-010-9260-z
Adsorbate 1-Butanol: InChIKey LRHPLDYGYMQRHN-UHFFFAOYSA-N
Temperature: 353 K
Tabular data in the source: 0
pressure (bar)	uptake (molecules/unitcell)
0.000668036	0.111628
0.000817597	0.111628
0.00129619	0.204651
0.00144575	0.260465
0.00160528	0.390698
0.00175484	0.595349
0.0019044	0.855814
0.00204399	1.15349
0.00221349	1.39535
0.00234311	1.6186
0.00250264	1.87907
0.00266217	2.19535
0.00281173	2.4186
0.00296129	2.77209
0.00309091	3.16279
0.00325044	3.51628
0.00340001	3.70233
0.00354957	3.86977
0.00369913	4
0.00383872	4.09302
0.00400822	4.26047
0.00414781	4.31628
