Adsorption isotherm of O-Xylene on Zn-bpdc-apy
DOI: 10.1007/s10450-010-9260-z
Adsorbate O-Xylene: InChIKey CTQNGGLPUBDAKN-UHFFFAOYSA-N
Temperature: 408 K
Tabular data in the source: 0
pressure (bar)	uptake (mmol/g)
0.000102286	0.0554095
0.000423905	0.199358
0.000979452	0.44294
0.00152002	0.7533
0.00204562	1.13044
0.00260127	1.35177
0.00312839	1.41742
0.00367025	1.46079
0.00422688	1.48188
0.00476886	1.50299
0.00512037	1.52451
