Adsorption isotherm of Cyclohexane on Ni-bodc-ted
DOI: 10.1007/s10450-010-9260-z
Adsorbate Cyclohexane: InChIKey XDTMQSROBMDMFD-UHFFFAOYSA-N
Temperature: 323 K
Tabular data in the source: 0
pressure (bar)	uptake (mmol/g)
0.00532489	1.53817
0.0162549	1.97871
0.0263442	2.34593
0.0367137	2.50398
0.0462424	2.59918
0.0560514	2.66304
0.0658604	2.71644
0.0753892	2.74889
0.0849179	2.77087
0.0947269	2.80336
