Adsorption isotherm of Cyclohexane on Ni-bodc-ted
DOI: 10.1007/s10450-010-9260-z
Adsorbate Cyclohexane: InChIKey XDTMQSROBMDMFD-UHFFFAOYSA-N
Temperature: 393 K
Tabular data in the source: 0
pressure (bar)	uptake (mmol/g)
0.00168154	0.237934
0.00504463	0.548413
0.00952875	0.796994
0.01093	0.859171
0.0159747	0.994109
0.0263442	1.17098
0.0364334	1.24446
0.0465227	1.3076
0.0560514	1.35
0.0661407	1.37179
0.0753892	1.38315
0.0851982	1.41525
0.0947269	1.41631
