Adsorption isotherm of 1-Butanol on Zn-bpdc-bpee
DOI: 10.1007/s10450-010-9260-z
Adsorbate 1-Butanol: InChIKey LRHPLDYGYMQRHN-UHFFFAOYSA-N
Temperature: 368 K
Tabular data in the source: 0
pressure (bar)	uptake (molecules/unitcell)
0.000358945	0.0372093
0.000668036	0.055814
0.000817597	0.0372093
0.00144575	0.0930233
0.00159531	0.055814
0.00188446	0.0930233
0.00205396	0.111628
0.00235308	0.130233
0.0026522	0.130233
0.00310088	0.148837
0.00325044	0.148837
0.00338006	0.186047
0.00353959	0.186047
0.00367918	0.24186
0.00382874	0.334884
0.00399825	0.446512
0.00413784	0.576744
