Adsorption isotherm of 1-Propanol on Zn-bpdc-bpee
DOI: 10.1007/s10450-010-9260-z
Adsorbate 1-Propanol: InChIKey BDERNNFJNOPAEC-UHFFFAOYSA-N
Temperature: 341 K
Tabular data in the source: 0
pressure (bar)	uptake (molecules/unitcell)
0.000710062	0.0565668
0.00128483	0.113296
0.00185992	0.0934688
0.00243484	0.11192
0.00304352	0.149469
0.00351681	0.206319
0.00415947	0.20555
0.00469952	0.472847
0.00523852	0.988949
0.00581118	1.54329
0.00638489	1.84882
0.00692583	1.90559
0.00750052	1.98146
0.0080413	2.0765
0.00861582	2.19065
0.00908831	2.43889
0.00969552	2.82094
0.0102341	3.43273
0.0107723	4.14022
0.0112766	4.86689
0.0118487	5.5552
0.0123881	5.97561
0.0129277	6.3386
0.013468	6.56762
0.0140085	6.72008
0.0145492	6.83427
0.0151235	6.98669
0.015698	7.11998
