Adsorption isotherm of Cyclohexane on Ni-bodc-ted
DOI: 10.1007/s10450-010-9260-z
Adsorbate Cyclohexane: InChIKey XDTMQSROBMDMFD-UHFFFAOYSA-N
Temperature: 338 K
Tabular data in the source: 0
pressure (bar)	uptake (mmol/g)
0.0162549	1.59368
0.0260639	1.66712
0.0361532	1.73026
0.0465227	1.84511
0.0560514	2.09426
0.0658604	2.21939
0.0753892	2.3238
0.0851982	2.38691
0.0944467	2.43962
