Adsorption isotherm of 1-Butanol on Zn-bpdc-bpee
DOI: 10.1007/s10450-010-9260-z
Adsorbate 1-Butanol: InChIKey LRHPLDYGYMQRHN-UHFFFAOYSA-N
Temperature: 343 K
Tabular data in the source: 0
pressure (bar)	uptake (molecules/unitcell)
0.000339003	0.0744186
0.000508505	0.0930233
0.000827567	0.130233
0.000977128	0.186047
0.00112669	0.27907
0.00128622	0.55814
0.00143578	0.967442
0.00158534	1.35814
0.00174487	1.67442
0.0019044	2.02791
0.00205396	2.43721
0.00220352	2.92093
0.00235308	3.44186
0.00250264	3.88837
0.0026522	4.22326
0.00280176	4.46512
0.00295132	4.59535
0.00310088	4.66977
0.00325044	4.74419
0.00340001	4.8
0.00353959	4.85581
0.00368916	4.85581
0.00383872	4.91163
0.00398828	4.94884
0.00413784	4.93023
