Adsorption isotherm of 1-Butanol on Zn-bpdc-bpee
DOI: 10.1007/s10450-010-9260-z
Adsorbate 1-Butanol: InChIKey LRHPLDYGYMQRHN-UHFFFAOYSA-N
Temperature: 343 K
Tabular data in the source: 0
pressure (bar)	uptake (molecules/unitcell)
0.000508505	0.111628
0.000658066	0.186047
0.000817597	0.372093
0.000967157	0.744186
0.00111672	1.22791
0.00127625	1.69302
0.00143578	2.21395
0.00157537	2.7907
0.00174487	3.40465
0.00188446	3.94419
0.00204399	4.33488
0.00219355	4.55814
0.00234311	4.70698
0.00250264	4.8
0.00264223	4.83721
0.00281173	4.89302
0.00296129	4.93023
0.00310088	4.96744
0.00325044	4.98605
0.00340001	5.02326
0.00353959	5.00465
0.00369913	5.02326
0.00383872	5.07907
0.00398828	5.07907
0.00414781	5.06047
