Adsorption isotherm of O-Xylene on Zn-bpdc-apy
DOI: 10.1007/s10450-010-9260-z
Adsorbate O-Xylene: InChIKey CTQNGGLPUBDAKN-UHFFFAOYSA-N
Temperature: 363 K
Tabular data in the source: 0
pressure (bar)	uptake (mmol/g)
0.000423526	0.277231
0.000963395	0.732212
0.00148807	1.29847
0.00204281	1.70892
0.00259922	1.77451
0.00309708	1.82909
0.00362425	1.88362
0.00418028	2.02708
0.00470701	2.1706
0.00511691	2.23649
