Adsorption isotherm of Cyclohexane on Ni-bodc-ted
DOI: 10.1007/s10450-010-9260-z
Adsorbate Cyclohexane: InChIKey XDTMQSROBMDMFD-UHFFFAOYSA-N
Temperature: 413 K
Tabular data in the source: 0
pressure (bar)	uptake (mmol/g)
0.00504463	0.300328
0.00952875	0.517899
0.0162549	0.704707
0.0260639	0.912531
0.0364334	1.03772
0.0459622	1.11114
0.0563317	1.17431
0.0661407	1.2064
0.0753892	1.24877
0.0851982	1.27053
0.0950072	1.30263
