Adsorption isotherm of 1-Propanol on Zn-bpdc-bpee
DOI: 10.1007/s10450-010-9260-z
Adsorbate 1-Propanol: InChIKey BDERNNFJNOPAEC-UHFFFAOYSA-N
Temperature: 333 K
Tabular data in the source: 0
pressure (bar)	uptake (molecules/unitcell)
0.00185967	0.150885
0.00246818	0.226712
0.00300815	0.513148
0.00327713	0.895601
0.0035461	1.27805
0.0038154	1.58395
0.00411852	1.88981
0.00469264	2.09965
0.00519935	2.25215
0.0057729	2.59596
0.0063789	3.2651
0.00684839	4.22147
0.00745205	5.44563
0.00802333	6.32533
0.00856242	6.82229
0.00910271	7.03217
0.00964325	7.18464
0.0101839	7.31796
0.0107247	7.39387
0.0112994	7.46974
0.0118405	7.48823
0.0124493	7.4875
0.0129565	7.52517
0.0134637	7.58198
0.0140049	7.56219
0.0145124	7.54245
0.0150872	7.58004
0.0155946	7.57943
