Adsorption isotherm of O-Xylene on Zn-bpdc-apy
DOI: 10.1007/s10450-010-9260-z
Adsorbate O-Xylene: InChIKey CTQNGGLPUBDAKN-UHFFFAOYSA-N
Temperature: 318 K
Tabular data in the source: 0
pressure (bar)	uptake (mmol/g)
0.000467101	0.355012
0.000613016	0.477078
0.0010353	1.01018
0.00150099	1.65443
0.00167551	1.92106
0.00203919	2.45428
0.0025797	2.77576
0.00310714	2.77466
0.00364912	2.79578
0.00419109	2.8169
0.00471853	2.8158
0.0050555	2.8151
