Adsorption isotherm of 1-Propanol on Zn-bpdc-bpee
DOI: 10.1007/s10450-010-9260-z
Adsorbate 1-Propanol: InChIKey BDERNNFJNOPAEC-UHFFFAOYSA-N
Temperature: 313 K
Tabular data in the source: 0
pressure (bar)	uptake (molecules/unitcell)
0.000644015	0.238278
0.000949074	0.707658
0.00125413	1.21597
0.00155919	1.88
0.00183036	2.48538
0.00199984	2.9927
0.002271	3.65648
0.00240658	4.18302
0.00264385	4.84655
0.00277943	5.47041
0.0030167	6.17287
0.00318618	6.69966
0.00345734	7.3829
0.00352513	7.69483
0.00416915	7.73846
0.00508433	7.74514
0.00542328	7.78655
0.00640625	7.83265
0.00789766	7.84354
