Adsorption isotherm of Cyclohexane on Ni-bodc-ted
DOI: 10.1007/s10450-010-9260-z
Adsorbate Cyclohexane: InChIKey XDTMQSROBMDMFD-UHFFFAOYSA-N
Temperature: 328 K
Tabular data in the source: 0
pressure (bar)	uptake (mmol/g)
0.00532489	1.49634
0.0159747	1.66487
0.0263442	2.05305
0.0364334	2.28429
0.0462424	2.42137
0.0563317	2.51664
0.0658604	2.58047
0.0756695	2.6234
0.0849179	2.66628
0.0950072	2.69879
