Adsorption isotherm of 1-Butanol on Zn-bpdc-bpee
DOI: 10.1007/s10450-010-9260-z
Adsorbate 1-Butanol: InChIKey LRHPLDYGYMQRHN-UHFFFAOYSA-N
Temperature: 358 K
Tabular data in the source: 0
pressure (bar)	uptake (molecules/unitcell)
0.00113666	0.111628
0.00143578	0.111628
0.00160528	0.130233
0.00174487	0.148837
0.00189443	0.148837
0.00204399	0.186047
0.00220352	0.334884
0.00235308	0.55814
0.0024827	0.837209
0.0026522	1.13488
0.00279179	1.32093
0.00295132	1.52558
0.00310088	1.71163
0.00325044	1.93488
0.00339003	2.13953
0.00354957	2.3814
0.00369913	2.62326
0.00384869	2.88372
0.00399825	3.10698
0.00412787	3.29302
