Adsorption isotherm of Cyclohexane on Ni-bodc-ted
DOI: 10.1007/s10450-010-9260-z
Adsorbate Cyclohexane: InChIKey XDTMQSROBMDMFD-UHFFFAOYSA-N
Temperature: 423 K
Tabular data in the source: 0
pressure (bar)	uptake (mmol/g)
0.00532489	0.228001
0.00924849	0.414499
0.0159747	0.55996
0.0260639	0.757478
0.0364334	0.893006
0.0462424	0.976787
0.0560514	1.06057
0.0658604	1.103
0.0753892	1.14541
0.0851982	1.18784
0.0950072	1.21994
