Adsorption isotherm of 1-Propanol on Zn-bpdc-bpee
DOI: 10.1007/s10450-010-9260-z
Adsorbate 1-Propanol: InChIKey BDERNNFJNOPAEC-UHFFFAOYSA-N
Temperature: 308 K
Tabular data in the source: 0
pressure (bar)	uptake (molecules/unitcell)
0.000169478	0.0401666
0.00067791	0.549961
0.000949074	1.09695
0.00108466	1.44831
0.00125413	1.72205
0.00145751	2.26855
0.00159309	2.71723
0.00176257	3.08829
0.00183036	3.38076
0.00199984	3.96594
0.00213542	4.41462
0.00220321	4.8044
0.00233879	5.25308
0.00244048	5.66258
0.00257606	6.05287
0.00274554	6.54072
0.00288112	7.02833
0.00294891	7.39866
0.00335566	7.67413
0.00355903	7.7924
0.00416915	7.81632
0.00467758	7.85896
0.00525381	7.86317
0.00579613	7.88659
0.00864336	7.92684
0.00962633	7.95348
0.0145412	8.02829
0.0151174	8.05196
