Adsorption isotherm of 1-Butanol on Zn-bpdc-bpee
DOI: 10.1007/s10450-010-9260-z
Adsorbate 1-Butanol: InChIKey LRHPLDYGYMQRHN-UHFFFAOYSA-N
Temperature: 308 K
Tabular data in the source: 0
pressure (bar)	uptake (molecules/unitcell)
0.000179472	0.334884
0.000348974	0.874419
0.000498534	1.56279
0.000658066	2.4
0.000827567	3.33023
0.000977128	4.24186
0.00112669	5.04186
0.00128622	5.54419
0.00143578	5.6186
0.00159531	5.65581
0.00174487	5.69302
0.00189443	5.74884
0.00205396	5.76744
0.00219355	5.82326
0.00234311	5.87907
0.00249267	5.95349
0.0026522	6.02791
0.00280176	6.13953
0.00295132	6.25116
0.00310088	6.4
0.00326042	6.64186
0.00340001	6.88372
0.00354957	7.08837
0.00368916	7.14419
0.00383872	7.2
0.00398828	7.23721
0.00414781	7.27442
