Adsorption isotherm of O-Xylene on Zn-bpdc-apy
DOI: 10.1007/s10450-010-9260-z
Adsorbate O-Xylene: InChIKey CTQNGGLPUBDAKN-UHFFFAOYSA-N
Temperature: 438 K
Tabular data in the source: 0
pressure (bar)	uptake (mmol/g)
0.000439529	-0.00091687
0.00111293	0.108924
0.00181537	0.274328
0.00251759	0.48423
0.00319067	0.660819
0.0038785	0.815128
0.00455185	0.936094
0.00512286	1.01277
