Adsorption isotherm of O-Xylene on Zn-bpdc-apy
DOI: 10.1007/s10450-010-9260-z
Adsorbate O-Xylene: InChIKey CTQNGGLPUBDAKN-UHFFFAOYSA-N
Temperature: 423 K
Tabular data in the source: 0
pressure (bar)	uptake (mmol/g)
0.000409902	0.0658924
0.000805046	0.154065
0.00111234	0.231296
0.00181434	0.485697
0.00250148	0.784627
0.00320348	1.03903
0.00387667	1.19337
0.00455028	1.25871
0.00512151	1.29089
