Adsorption isotherm of Cyclohexane on Ni-bodc-ted
DOI: 10.1007/s10450-010-9260-z
Adsorbate Cyclohexane: InChIKey XDTMQSROBMDMFD-UHFFFAOYSA-N
Temperature: 353 K
Tabular data in the source: 0
pressure (bar)	uptake (mmol/g)
0.00364334	1.07544
0.00868797	1.32408
0.0162549	1.42829
0.0260639	1.4914
0.0364334	1.55457
0.0459622	1.58663
0.0560514	1.60842
0.0655802	1.65083
0.0756695	1.66228
0.0849179	1.69431
0.0950072	1.71611
