Adsorption isotherm of 1-Propanol on Zn-bpdc-bpee
DOI: 10.1007/s10450-010-9260-z
Adsorbate 1-Propanol: InChIKey BDERNNFJNOPAEC-UHFFFAOYSA-N
Temperature: 343 K
Tabular data in the source: 0
pressure (bar)	uptake (molecules/unitcell)
0.00101424	0.113619
0.00449771	0.205146
0.005376	0.472038
0.00578051	0.796913
0.00621909	1.06433
0.00658994	1.35097
0.0070621	1.67576
0.00794064	1.88524
0.00871802	2.01828
0.00959712	2.09378
0.0104078	2.34162
0.011218	2.72342
0.0117239	3.06731
0.012095	3.29654
0.012499	3.73624
0.0129033	4.11854
0.0133075	4.51997
0.0137116	4.94054
0.0141497	5.32279
0.014554	5.68594
0.0149587	5.97254
0.0153636	6.22086
0.0157682	6.50745
