Adsorption isotherm of Cyclohexane on Ni-bodc-ted
DOI: 10.1007/s10450-010-9260-z
Adsorbate Cyclohexane: InChIKey XDTMQSROBMDMFD-UHFFFAOYSA-N
Temperature: 333 K
Tabular data in the source: 0
pressure (bar)	uptake (mmol/g)
0.00532489	1.41674
0.0159747	1.61432
0.0263442	1.69817
0.0364334	2.03006
0.0465227	2.21724
0.0563317	2.33204
0.0658604	2.40545
0.0756695	2.47889
0.0851982	2.53163
0.0952875	2.5741
