Adsorption isotherm of 1-Butanol on Zn-bpdc-bpee
DOI: 10.1007/s10450-010-9260-z
Adsorbate 1-Butanol: InChIKey LRHPLDYGYMQRHN-UHFFFAOYSA-N
Temperature: 318 K
Tabular data in the source: 0
pressure (bar)	uptake (molecules/unitcell)
0.000169502	0.27907
0.000339003	0.781395
0.000498534	1.45116
0.000678007	2.32558
0.000817597	3.2186
0.000987098	4.16744
0.00111672	4.98605
0.00127625	5.30233
0.00142581	5.35814
0.00159531	5.39535
0.00187449	5.43256
0.00203402	5.45116
0.00218358	5.48837
0.00233314	5.50698
0.00249267	5.52558
0.0026522	5.52558
0.00279179	5.52558
0.00294135	5.56279
0.00310088	5.5814
0.00326042	5.6186
0.00339003	5.6186
0.00353959	5.63721
0.00367918	5.69302
0.00383872	5.69302
0.00397831	5.69302
0.00413784	5.69302
