Adsorption isotherm of 1-Propanol on Zn-bpdc-bpee
DOI: 10.1007/s10450-010-9260-z
Adsorbate 1-Propanol: InChIKey BDERNNFJNOPAEC-UHFFFAOYSA-N
Temperature: 336 K
Tabular data in the source: 0
pressure (bar)	uptake (molecules/unitcell)
0.00128475	0.132434
0.00185967	0.150885
0.0024346	0.169336
0.00304319	0.226025
0.00358235	0.703849
0.0041203	1.46876
0.00469369	1.85084
0.00523407	2.04159
0.00580867	2.13659
0.00638303	2.28901
0.00688885	2.65205
0.00746103	3.32122
0.00799841	4.2201
0.00856913	5.23377
0.00910684	6.05609
0.00964584	6.57219
0.0101519	6.87781
0.01076	7.04933
0.0113008	7.14438
0.0118414	7.2777
0.0123822	7.37275
0.0129571	7.3912
0.0134642	7.44801
0.0140054	7.44736
0.0145466	7.44671
0.0150875	7.52262
0.0156625	7.52193
