Adsorption isotherm of O-Xylene on Zn-bpdc-apy
DOI: 10.1007/s10450-010-9260-z
Adsorbate O-Xylene: InChIKey CTQNGGLPUBDAKN-UHFFFAOYSA-N
Temperature: 378 K
Tabular data in the source: 0
pressure (bar)	uptake (mmol/g)
0.000452882	0.266045
0.000978587	0.620935
0.00151883	0.998044
0.00205897	1.3974
0.00230728	1.55263
0.00259971	1.67439
0.00314163	1.70663
0.00368355	1.73887
0.00424024	1.74884
0.00476762	1.75886
0.00491402	1.78081
0.00513384	1.76922
