Adsorption isotherm of 1-Propanol on Zn-bpdc-bpee
DOI: 10.1007/s10450-010-9260-z
Adsorbate 1-Propanol: InChIKey BDERNNFJNOPAEC-UHFFFAOYSA-N
Temperature: 328 K
Tabular data in the source: 0
pressure (bar)	uptake (molecules/unitcell)
0.000709819	0.113983
0.0018252	0.304037
0.00212808	0.667311
0.0023973	0.992347
0.00276693	1.56607
0.00300217	1.92942
0.0035423	2.17758
0.00411528	2.65536
0.00465299	3.47769
0.00498832	4.16628
0.00522314	4.62533
0.00552465	5.31397
0.00579257	5.94522
0.00602739	6.40427
0.00632954	6.9398
0.00690301	7.30275
0.00744371	7.41693
0.00798466	7.4737
0.00859325	7.53039
0.00910052	7.54892
0.0107576	7.62349
0.0113326	7.62281
0.0118399	7.64134
0.0129561	7.64
0.0139706	7.67707
0.0146133	7.6763
0.0151545	7.65651
0.0156618	7.67504
