Adsorption isotherm of 1-Butanol on Zn-bpdc-bpee
DOI: 10.1007/s10450-010-9260-z
Adsorbate 1-Butanol: InChIKey LRHPLDYGYMQRHN-UHFFFAOYSA-N
Temperature: 333 K
Tabular data in the source: 0
pressure (bar)	uptake (molecules/unitcell)
0.000189443	0.0744186
0.000348974	0.167442
0.000508505	0.483721
0.000668036	1.02326
0.000817597	1.6186
0.000967157	2.32558
0.00113666	3.10698
0.00128622	3.94419
0.00143578	4.70698
0.00159531	5.00465
0.00175484	5.02326
0.00188446	5.04186
0.00205396	5.07907
0.00219355	5.07907
0.00235308	5.13488
0.00250264	5.13488
0.00266217	5.13488
0.00280176	5.17209
0.00295132	5.1907
0.00310088	5.24651
0.00325044	5.2093
0.00340001	5.22791
0.00354957	5.28372
0.00369913	5.30233
0.00384869	5.32093
0.00399825	5.30233
0.00414781	5.32093
