Adsorption isotherm of Cyclohexane on Ni-bodc-ted
DOI: 10.1007/s10450-010-9260-z
Adsorbate Cyclohexane: InChIKey XDTMQSROBMDMFD-UHFFFAOYSA-N
Temperature: 313 K
Tabular data in the source: 0
pressure (bar)	uptake (mmol/g)
0.0011763	0.585874
0.00548284	1.67417
0.01649	2.49126
0.0263168	2.68062
0.0364141	2.76544
0.0465074	2.80841
0.0565997	2.84092
0.0658513	2.87333
0.0756624	2.89535
0.0854715	2.89645
0.0950033	2.9289
