Adsorption isotherm of 1-Propanol on Zn-bpdc-bpee
DOI: 10.1007/s10450-010-9260-z
Adsorbate 1-Propanol: InChIKey BDERNNFJNOPAEC-UHFFFAOYSA-N
Temperature: 318 K
Tabular data in the source: 0
pressure (bar)	uptake (molecules/unitcell)
0.000337755	0.114428
0.000709414	0.209678
0.00128143	0.917127
0.00161716	1.51003
0.00185183	2.00735
0.00218756	2.60025
0.00245613	3.0784
0.00275674	3.97756
0.00299059	4.66628
0.00322421	5.41241
0.0033909	5.98637
0.00355783	6.50292
0.0038599	7.05758
0.00412807	7.63143
0.00470292	7.66902
0.00524402	7.68751
0.00578512	7.706
0.00639396	7.70527
0.00690123	7.7238
0.00747624	7.72311
0.0079836	7.72251
0.00855853	7.74096
0.00913346	7.75941
0.00967464	7.75876
0.0101819	7.77729
0.0107231	7.77665
0.011298	7.7951
0.0123467	7.7747
