Adsorption isotherm of O-Xylene on Zn-bpdc-apy
DOI: 10.1007/s10450-010-9260-z
Adsorbate O-Xylene: InChIKey CTQNGGLPUBDAKN-UHFFFAOYSA-N
Temperature: 303 K
Tabular data in the source: 0
pressure (bar)	uptake (mmol/g)
5.82e-05	0.0777506
0.000422067	0.577598
0.000960097	1.41082
0.00149753	2.36641
0.00203713	2.87702
0.00257911	2.89813
0.00310644	2.91928
0.0036483	2.96265
0.00419012	3.01714
0.00471728	3.07167
0.00506864	3.12656
