Adsorption isotherm of Carbon Dioxide on YO-MOF
DOI: 10.1002/chem.200902104
Adsorbate Carbon Dioxide: InChIKey CURLTUGMZLYLDI-UHFFFAOYSA-N
Temperature: 298 K
Tabular data in the source: 0
pressure (bar)	uptake (cm3(STP)/g)
0.0488178	0.373239
0.0651134	1.09113
0.0744369	1.80657
0.0837467	2.16593
0.0930703	2.88137
0.111704	3.95617
0.162901	5.75458
0.21176	7.19608
0.265281	8.9953
0.316464	10.4376
0.363013	12.2344
0.421154	13.3231
0.463055	15.1182
0.514197	15.4923
0.565394	17.2907
0.614239	18.3761
0.667733	19.4631
0.72355	20.551
0.770058	21.2795
0.821241	22.7218
0.870072	23.4512
0.921228	24.1813
0.972383	24.9115
