Adsorption isotherm of Carbon Dioxide on YO-MOF
DOI: 10.1002/chem.200902104
Adsorbate Carbon Dioxide: InChIKey CURLTUGMZLYLDI-UHFFFAOYSA-N
Temperature: 288 K
Tabular data in the source: 0
pressure (bar)	uptake (cm3(STP)/g)
0.157668	7.40038
0.210997	9.8669
0.259689	10.9149
0.315336	13.0256
0.364028	15.1387
0.417357	16.5402
0.468367	17.5874
0.517059	18.6354
0.565751	19.6834
0.61908	21.0849
0.67009	22.4871
0.718781	23.5351
0.765154	24.584
0.820802	25.6296
0.867175	26.3234
0.922823	27.369
0.971514	28.417
