Adsorption isotherm of Carbon Dioxide on YO-MOF
DOI: 10.1002/chem.200902104
Adsorbate Carbon Dioxide: InChIKey CURLTUGMZLYLDI-UHFFFAOYSA-N
Temperature: 278 K
Tabular data in the source: 0
pressure (bar)	uptake (cm3(STP)/g)
0.159987	11.6599
0.210997	14.1273
0.262007	16.2396
0.315336	18.351
0.361709	20.465
0.415038	21.5114
0.466049	22.9136
0.517059	24.6709
0.568069	25.7181
0.621398	27.4746
0.67009	27.8125
0.723419	29.214
0.769792	30.2628
0.820802	31.6651
0.871812	32.7123
0.922823	33.7595
0.973833	34.8067
