Adsorption isotherm of Carbon Dioxide on YO-MOF
DOI: 10.1002/chem.200902104
Adsorbate Carbon Dioxide: InChIKey CURLTUGMZLYLDI-UHFFFAOYSA-N
Temperature: 273 K
Tabular data in the source: 0
pressure (bar)	uptake (cm3(STP)/g)
0.162305	12.3692
0.213316	15.5466
0.262007	17.6597
0.313018	19.772
0.364028	21.8843
0.419676	23.2849
0.46373	24.6896
0.517059	26.091
0.570388	27.8475
0.621398	29.2497
0.667771	29.9435
0.718781	31.7008
0.767473	33.1039
0.816165	36.6371
0.823121	38.4098
0.839351	40.8893
0.860219	45.1424
0.864856	47.626
0.87645	50.8172
0.888043	54.0084
0.897318	57.2004
0.908911	60.0366
0.913548	62.1651
0.918185	63.9386
0.929779	67.1298
0.941372	69.966
0.952965	73.1572
0.964558	76.7035
0.971514	78.8312
0.985426	81.6666
