Adsorption isotherm of Carbon Dioxide on YO-MOF
DOI: 10.1002/chem.200902104
Adsorbate Carbon Dioxide: InChIKey CURLTUGMZLYLDI-UHFFFAOYSA-N
Temperature: 268 K
Tabular data in the source: 0
pressure (bar)	uptake (cm3(STP)/g)
0.111295	12.387
0.162305	15.9195
0.208678	18.7434
0.262007	21.21
0.315336	22.9664
0.361709	25.0804
0.415038	27.1919
0.466049	28.5941
0.51474	29.6421
0.568069	31.3986
0.616761	33.1567
0.639947	34.5687
0.665453	36.3349
0.684002	40.9438
0.70487	46.2619
0.723419	53.001
0.741968	59.74
0.758199	65.4148
0.774429	70.7346
0.79066	75.6993
0.813846	81.7267
0.837033	86.3339
0.862538	90.9404
0.87645	94.1308
0.908911	99.0898
0.939053	102.63
0.964558	105.816
0.990064	107.582
