Adsorption isotherm of Carbon Dioxide on YO-MOF
DOI: 10.1002/chem.200902104
Adsorbate Carbon Dioxide: InChIKey CURLTUGMZLYLDI-UHFFFAOYSA-N
Temperature: 263 K
Tabular data in the source: 0
pressure (bar)	uptake (cm3(STP)/g)
0.111295	16.2924
0.159987	19.1155
0.210997	22.2929
0.262007	25.1153
0.315336	27.2268
0.336204	27.9295
0.366347	29.3391
0.384896	30.0427
0.415038	31.0972
0.435906	31.4449
0.468367	32.4986
0.510103	35.3242
0.535608	39.9307
0.551839	45.2504
0.563432	48.4416
0.572707	51.6337
0.579662	55.1815
0.637629	74.6878
0.663134	82.1345
0.68632	86.0317
0.707188	90.6398
0.730375	94.537
0.760517	99.1418
0.786022	103.038
0.811527	105.869
0.834714	107.992
0.864856	111.531
0.888043	113.653
0.920504	115.772
0.939053	117.541
0.966877	119.661
