Adsorption isotherm of Nitrogen on YO-MOF
DOI: 10.1002/chem.200902104
Adsorbate Nitrogen: InChIKey IJGRMHOSHXDMSA-UHFFFAOYSA-N
Temperature: 77 K
Tabular data in the source: 0
pressure (bar)	uptake (cm3(STP)/g)
0.00264719	0.00264719
0.00529439	69.2308
0.0105888	124.615
0.0185304	140.769
0.0317663	155.769
0.0450023	166.154
0.0582383	171.923
0.0661798	175.385
0.0767686	177.692
0.0873574	180
0.095299	182.308
0.108535	185.769
0.15089	190.385
0.201187	197.308
0.248836	203.077
0.299133	206.538
0.34943	211.154
0.397079	215.769
0.444729	220.385
0.497672	226.154
0.542675	231.923
0.592971	238.846
0.643268	242.308
0.68827	249.231
0.738567	255
0.786216	261.923
0.831219	268.846
0.884163	276.923
0.931812	291.923
