Adsorption isotherm of Nitrogen on [Zn2(TBC)2]2.3(H2O)
DOI: 10.1039/c2jm15860d
Adsorbate Nitrogen: InChIKey IJGRMHOSHXDMSA-UHFFFAOYSA-N
Temperature: 473 K
Tabular data in the source: 0
pressure (bar)	uptake (cm3(STP)/g)
0.616246	75.0733
0.92437	77.4194
1.23249	82.1114
2.15686	85.9238
2.46499	80.0587
4.0056	87.9765
4.31373	81.2317
6.47059	89.1496
7.39496	82.6979
9.55182	83.2845
10.7843	90.0293
13.5574	84.7507
14.1737	90.0293
16.3305	85.044
18.4874	85.6305
18.4874	90.6158
21.2605	85.9238
22.1849	91.2023
24.0336	86.5103
26.4986	91.4956
27.423	86.8035
29.5798	91.7889
30.1961	87.39
32.9692	92.0821
34.2017	87.39
36.6667	92.3754
37.8992	87.9765
38.5154	92.3754
41.9048	92.6686
42.8291	88.563
46.5266	93.5484
47.451	88.8563
50.5322	89.4428
50.8403	93.8416
53.9216	89.7361
54.5378	94.1349
58.2353	90.0293
58.8515	94.4282
61.6246	90.6158
63.4734	95.0147
66.2465	90.6158
67.479	95.6012
70.8683	91.2023
71.7927	96.1877
74.8739	91.4956
75.4902	96.1877
78.8796	92.3754
80.112	96.7742
82.8852	92.3754
84.7339	97.3607
85.9664	92.6686
87.507	96.7742
88.4314	93.2551
89.0476	94.7214
91.2045	93.8416
93.6695	94.1349
95.8263	94.4282
100.448	95.0147
102.913	95.3079
104.762	95.8944
106.303	97.3607
106.919	97.9472
108.768	101.173
109.076	103.226
