Adsorption isotherm of Nitrogen on [Zn2(TBC)2]2.3(H2O)
DOI: 10.1039/c2jm15860d
Adsorbate Nitrogen: InChIKey IJGRMHOSHXDMSA-UHFFFAOYSA-N
Temperature: 323 K
Tabular data in the source: 0
pressure (bar)	uptake (cm3(STP)/g)
1.23249	2.05279
3.69748	2.34604
6.47059	2.34604
11.0924	2.34604
15.098	2.6393
16.9468	2.6393
22.1849	2.6393
27.423	2.93255
33.2773	2.93255
38.5154	3.22581
44.0616	3.51906
49.2997	3.51906
55.7703	3.81232
57.0028	4.69208
59.7759	5.8651
62.8571	6.15836
67.1709	6.74487
73.0252	6.74487
77.0308	7.03812
83.1933	7.62463
88.7395	7.91789
91.5126	8.21114
95.8263	8.21114
98.9076	8.5044
103.221	8.79765
106.611	9.67742
107.535	10.8504
108.768	12.61
109.384	13.783
