Adsorption isotherm of Hydrogen on [Zn2(TBC)2]2.3(H2O)
DOI: 10.1039/c2jm15860d
Adsorbate Hydrogen: InChIKey UFHFLCQGNIYNRP-UHFFFAOYSA-N
Temperature: 77 K
Tabular data in the source: 0
pressure (bar)	uptake (wt%)
0	0.228777
0.00276111	0.306475
0.00552223	0.444604
0.00828334	0.384173
0.0552223	0.716547
0.102161	0.807194
0.135295	0.833094
0.140817	0.858993
0.17395	0.889209
0.182234	0.906475
0.22365	0.910791
0.265067	0.941007
0.2982	0.96259
0.345139	0.984173
0.383795	1.00576
0.427973	1.01871
0.466628	1.02734
0.510806	1.04029
0.554984	1.04892
0.590878	1.05755
0.632295	1.06187
0.657145	1.0705
0.673712	1.07482
0.698562	1.07914
0.715129	1.08345
0.737217	1.08345
0.759306	1.08777
0.800723	1.08777
