Adsorption isotherm of Nitrogen on [Zn2(TBC)2]2.3(H2O)
DOI: 10.1039/c2jm15860d
Adsorbate Nitrogen: InChIKey IJGRMHOSHXDMSA-UHFFFAOYSA-N
Temperature: 423 K
Tabular data in the source: 0
pressure (bar)	uptake (cm3(STP)/g)
0.308123	65.1026
0.92437	61.2903
1.23249	67.7419
1.54062	63.0499
2.46499	69.2082
2.77311	64.2229
4.62185	70.9677
5.2381	65.6891
7.39496	72.434
8.0112	67.1554
10.1681	67.7419
11.4006	68.3284
11.4006	73.607
15.4062	73.9003
16.6387	69.2082
18.4874	74.7801
21.8768	75.3666
22.8011	70.088
25.5742	75.9531
27.423	70.9677
29.888	77.1261
30.5042	73.0205
32.6611	73.9003
35.1261	77.7126
35.4342	74.7801
38.8235	75.9531
40.6723	78.5924
42.2129	75.9531
44.0616	76.8328
44.6779	79.4721
47.7591	77.7126
48.0672	80.0587
49.916	78.0059
52.0728	80.9384
52.6891	78.8856
55.4622	79.4721
56.0784	81.5249
58.5434	79.7654
60.3922	82.4047
61.0084	80.6452
62.8571	82.6979
64.3978	80.9384
65.6303	82.9912
67.479	81.8182
68.4034	83.5777
70.5602	82.6979
71.1765	83.871
73.9496	83.2845
73.9496	84.7507
76.4146	83.871
76.7227	85.044
79.4958	85.6305
80.112	84.4575
82.8852	86.5103
83.5014	85.3372
85.042	86.8035
85.9664	85.9238
87.507	87.39
89.972	87.0968
90.2801	87.6833
93.0532	88.2698
93.6695	87.6833
96.4426	89.1496
97.0588	88.8563
98.5994	89.1496
99.5238	89.7361
102.297	90.0293
102.297	90.3226
104.146	90.9091
105.686	91.2023
107.227	92.3754
107.843	93.5484
109.384	95.6012
