Adsorption isotherm of Nitrogen on [Zn2(TBC)2]2.3(H2O)
DOI: 10.1039/c2jm15860d
Adsorbate Nitrogen: InChIKey IJGRMHOSHXDMSA-UHFFFAOYSA-N
Temperature: 373 K
Tabular data in the source: 0
pressure (bar)	uptake (cm3(STP)/g)
0.308123	46.9208
0.308123	56.8915
0.92437	53.0792
1.54062	54.8387
1.54062	59.2375
3.08123	56.0117
4.31373	60.4106
5.85434	56.5982
7.70308	57.7713
9.85994	58.9443
10.7843	62.4633
11.4006	58.651
16.0224	63.3431
16.6387	60.4106
21.5686	64.8094
22.1849	61.8768
27.1148	65.6891
28.0392	63.3431
32.6611	66.5689
32.9692	64.5161
38.2073	67.7419
38.8235	65.6891
43.7535	68.6217
44.0616	66.8622
49.2997	70.088
49.916	68.6217
55.1541	70.9677
55.4622	69.7947
57.3109	71.261
60.084	72.434
61.0084	70.9677
63.1653	72.7273
65.6303	72.434
65.9384	73.3138
69.0196	73.0205
69.3277	74.4868
71.1765	74.1935
71.7927	73.607
73.9496	75.3666
76.7227	75.9531
77.3389	74.7801
79.1877	75.9531
80.112	75.6598
82.577	75.9531
82.8852	76.8328
85.042	77.7126
85.3501	76.8328
88.4314	77.7126
90.5882	78.2991
90.5882	78.8856
93.3613	78.5924
93.6695	79.1789
96.1345	79.7654
96.4426	79.4721
99.2157	79.7654
99.5238	80.3519
101.681	81.2317
101.989	80.6452
104.146	82.1114
104.762	81.5249
106.919	82.9912
107.535	82.9912
109.076	85.9238
109.384	86.217
