Adsorption isotherm of Hydrogen on [Zn2(TBC)2]2.3(H2O)
DOI: 10.1039/c2jm15860d
Adsorbate Hydrogen: InChIKey UFHFLCQGNIYNRP-UHFFFAOYSA-N
Temperature: 84 K
Tabular data in the source: 0
pressure (bar)	uptake (wt%)
0.00828334	0.00828334
0.0110445	0.332374
0.0165667	0.366906
0.0331334	0.444604
0.0552223	0.556835
0.0773112	0.604317
0.096639	0.638849
0.104922	0.651799
0.140817	0.703597
0.179472	0.746763
0.220889	0.781295
0.262306	0.815827
0.303723	0.83741
0.345139	0.867626
0.383795	0.889209
0.425212	0.906475
0.469389	0.919424
0.510806	0.945324
0.552223	0.958273
0.59364	0.971223
0.635056	0.984173
0.654384	0.997122
0.673712	0.997122
0.698562	1.00144
0.715129	1.01439
0.737217	1.01871
0.756545	1.02302
0.797962	1.03597
