Adsorption isotherm of Nitrogen on [Zn2(TBC)2]2.3(H2O)
DOI: 10.1039/c2jm15860d
Adsorbate Nitrogen: InChIKey IJGRMHOSHXDMSA-UHFFFAOYSA-N
Temperature: 523 K
Tabular data in the source: 0
pressure (bar)	uptake (cm3(STP)/g)
0.308123	75.9531
0.308123	82.4047
1.23249	78.2991
2.15686	85.6305
3.69748	88.8563
4.31373	80.6452
6.47059	82.4047
7.39496	90.0293
8.31933	83.2845
11.0924	84.4575
11.0924	90.6158
14.1737	85.044
14.7899	91.4956
16.9468	85.9238
18.7955	91.7889
19.4118	86.217
21.5686	92.0821
23.1092	86.8035
25.5742	87.0968
27.1148	92.3754
28.3473	87.6833
30.5042	87.9765
31.1204	92.9619
33.5854	93.5484
33.8936	88.2698
36.3585	88.563
37.591	93.2551
39.4398	89.4428
41.2885	89.7361
42.521	94.1349
44.6779	89.7361
46.2185	94.4282
49.6078	95.0147
50.2241	90.3226
54.5378	95.0147
55.7703	90.6158
58.5434	95.6012
60.7003	91.2023
61.0084	96.1877
63.1653	96.1877
65.9384	96.1877
66.2465	91.7889
69.6359	96.4809
71.7927	96.4809
72.409	92.0821
75.1821	97.0674
76.7227	97.3607
77.9552	92.6686
79.4958	97.654
82.577	97.3607
83.1933	93.5484
85.6583	98.2405
88.4314	94.4282
88.4314	97.9472
90.5882	98.2405
93.9776	98.827
94.5938	95.0147
97.6751	99.4135
99.8319	95.3079
100.448	97.654
104.762	97.3607
105.07	97.0674
107.535	98.827
107.843	99.1202
109.076	103.226
109.384	102.053
