Adsorption isotherm of Methylene blue on F-ZnO-I
DOI: 10.1016/j.cej.2017.07.035
Article source: Figure 6a
Adsorbate Methylene blue: InChIKey CXKWCBBOMKCUKX-UHFFFAOYSA-M
Kind: experiment
Temperature: 292 K
Tabular data in the source: 0
pressure (bar)	uptake (mg/g)
1.01325	4.783
1.01325	9.73
1.01325	14.864
1.01325	19.978
1.01325	24.804
1.01325	29.693
1.01325	34.85
1.01325	39.637
1.01325	44.302
1.01325	49.132
