Adsorption isotherm of Acid Orange 7, Methylene blue on F-ZnO-I
DOI: 10.1016/j.cej.2017.07.035
Article source: Figure 7
Adsorbate Acid Orange 7: InChIKey CQPFMGBJSMSXLP-UHFFFAOYSA-M
Adsorbate Methylene blue: InChIKey CXKWCBBOMKCUKX-UHFFFAOYSA-M
Kind: experiment
Temperature: 292 K
Tabular data in the source: 0
pressure (bar)	Acid Orange 7 fraction	Acid Orange 7 uptake (mg/g)	Methylene blue fraction	Methylene blue uptake (mg/g)	total uptake (mg/g)
1.01325	0.1053	4.839	0.01621	4.991	
1.01325	0.2184	9.945	0.08106	9.907	
1.01325	0.7281	14.804	0.35096	14.92	
1.01325	1.892	19.482	1.10504	19.776	
1.01325	3.1026	24.442	2.06209	24.503	
1.01325	4.723	28.916	2.95929	29.236	
1.01325	5.8302	33.588	4.44535	33.94	
1.01325	6.7908	38.501	5.21653	38.972	
1.01325	7.5272	43.417	6.36027	43.64	
1.01325	8.1631	48.187	7.2825	48.471	
