Adsorption isotherm of Acid Orange 7 on F-ZnO-I
DOI: 10.1016/j.cej.2017.07.035
Article source: Figure 6b
Adsorbate Acid Orange 7: InChIKey CQPFMGBJSMSXLP-UHFFFAOYSA-M
Kind: experiment
Temperature: 292 K
Tabular data in the source: 0
pressure (bar)	uptake (mg/g)
1.01325	4.791
1.01325	9.984
1.01325	14.919
1.01325	19.757
1.01325	24.854
1.01325	29.726
1.01325	34.504
1.01325	39.382
1.01325	44.04
1.01325	48.89
