Adsorption isotherm of Carbon Dioxide on Graphite Nanofibers - water washed
DOI: 10.1016/j.jcis.2010.08.048
Article source: Figure 5b
Adsorbate Carbon Dioxide: InChIKey CURLTUGMZLYLDI-UHFFFAOYSA-N
Kind: experiment
Temperature: 298 K
Tabular data in the source: 0
pressure (bar)	uptake (mg/g)
2.11041	3.65019
3.66996	4.3346
5.32136	5.70342
9.08268	7.64259
10.0001	8.09886
12.7523	9.35361
14.4953	10.038
17.3391	10.7224
19.2656	11.635
20.4582	11.9772
25.3202	13.346
31.65	15.1711
37.5211	16.654
38.3467	16.654
43.6674	18.0228
47.7955	18.5932
49.9054	19.2776
51.3732	19.7338
57.6112	20.9886
64.2159	22.3574
