Adsorption isotherm of Carbon Dioxide on Graphite Nanofibers etched at 973K
DOI: 10.1016/j.jcis.2010.08.048
Article source: Figure 5a
Adsorbate Carbon Dioxide: InChIKey CURLTUGMZLYLDI-UHFFFAOYSA-N
Kind: experiment
Temperature: 298 K
Tabular data in the source: 0
pressure (bar)	uptake (mg/g)
0.972485	5.85086
3.33502	10.2103
6.16729	15.0287
7.40674	18.9293
9.7378	18.5851
10.5083	22.1415
13.2126	21.7973
13.5088	24.2065
16.6829	24.3212
16.6983	26.6157
19.8832	28.3365
19.9635	26.3862
22.6947	30.0574
24.9302	29.369
25.9722	31.6635
28.0217	31.0899
31.58	32.8107
32.0604	34.8757
34.5774	34.4168
37.9467	35.7935
41.2219	37.0554
44.507	39.8088
44.5934	38.7763
47.8693	40.153
50.8699	42.218
54.233	42.6769
58.5386	44.5124
60.6876	44.8566
65.6452	46.4627
