Adsorption isotherm of Carbon Dioxide on Graphite Nanofibers etched at 1073K - water washed
DOI: 10.1016/j.jcis.2010.08.048
Article source: Figure 5b
Adsorbate Carbon Dioxide: InChIKey CURLTUGMZLYLDI-UHFFFAOYSA-N
Kind: experiment
Temperature: 298 K
Tabular data in the source: 0
pressure (bar)	uptake (mg/g)
6.88134	9.12548
7.70702	9.69582
9.45009	10.9506
10.2758	11.635
11.2849	12.0913
12.5693	13.0038
14.2206	13.6882
14.8629	14.3726
15.7802	14.4867
17.615	15.6274
18.2572	15.9696
20.8259	16.9962
22.0185	17.6806
24.2202	18.365
25.0459	18.9354
26.9724	19.6198
28.7154	20.7605
30.1832	21.1027
31.4676	21.673
33.4857	22.0152
35.0453	23.0418
36.9718	23.384
38.2561	23.9544
39.9074	24.4106
41.6504	25.2091
43.1182	25.7795
44.7695	26.4639
46.4207	26.692
48.072	27.7186
49.6315	27.6046
51.0994	28.5171
52.7505	28.6312
54.8605	29.4297
55.9613	29.5437
57.6127	30.3422
59.3556	30.6844
60.8234	31.3688
62.4746	31.3688
65.2264	32.2814
