Adsorption isotherm of Nitrogen on Graphite Nanofibers etched at 973K
DOI: 10.1016/j.jcis.2010.08.048
Article source: Figure 3
Adsorbate Nitrogen: InChIKey IJGRMHOSHXDMSA-UHFFFAOYSA-N
Kind: experiment
Temperature: 77 K
Tabular data in the source: 0
pressure (bar)	uptake (cm3(STP)/g)
0.352094	98.8562
0.357985	90.6863
0.405978	107.026
0.40749	99.6732
0.458457	107.843
0.461301	117.647
0.502069	125
0.50358	117.647
0.554554	125
0.555964	131.536
0.604003	141.34
0.606991	131.536
0.65349	152.778
0.653573	141.34
0.705927	159.314
0.707427	153.595
0.755431	168.301
0.755508	157.68
0.804922	178.922
0.807867	174.837
0.857359	185.458
0.858722	198.529
0.883471	203.431
0.908232	206.699
0.913944	223.039
0.953266	228.758
0.961769	262.255
0.977902	249.183
0.983483	283.497
1.00375	303.105
