Adsorption isotherm of Nitrogen on Graphite Nanofibers
DOI: 10.1016/j.jcis.2010.08.048
Article source: Figure 3
Adsorbate Nitrogen: InChIKey IJGRMHOSHXDMSA-UHFFFAOYSA-N
Kind: experiment
Temperature: 77 K
Tabular data in the source: 0
pressure (bar)	uptake (cm3(STP)/g)
0	23.621
0.049333	37.4713
0.074199	40.721
0.100527	43.1527
0.106378	43.1484
0.125393	46.4024
0.131244	45.5812
0.150259	47.2012
0.175125	48.817
0.198528	50.4338
0.202915	49.6136
0.223393	52.0496
0.229245	50.4113
0.248259	53.6653
0.25411	52.844
0.273126	55.2811
0.280439	53.6417
0.297991	56.0798
0.306768	56.0734
0.349185	59.3103
0.40038	61.7237
0.404768	61.7205
0.453037	64.9531
0.457426	62.4989
0.495455	68.19
0.507157	66.5474
0.545187	72.2385
0.559814	68.9598
0.596382	75.469
0.609546	72.1913
0.647576	76.2484
0.659277	75.4229
0.701696	81.1107
0.70901	77.8374
0.755816	85.973
0.805547	86.7536
0.808472	90.8364
0.847966	97.3434
0.86113	94.0658
0.871369	99.7772
0.902085	107.108
0.906473	99.7515
0.962056	120.136
0.973758	128.297
0.982533	149.532
0.992772	158.512
0.997161	151.156
1.00594	166.672
