Adsorption isotherm of Carbon Dioxide on Graphite Nanofibers etched at 973K - water washed
DOI: 10.1016/j.jcis.2010.08.048
Article source: Figure 5b
Adsorbate Carbon Dioxide: InChIKey CURLTUGMZLYLDI-UHFFFAOYSA-N
Kind: experiment
Temperature: 298 K
Tabular data in the source: 0
pressure (bar)	uptake (mg/g)
1.19294	2.73764
5.68869	8.327
22.3852	16.3118
28.073	18.7072
29.7242	18.9354
31.559	19.7338
32.935	19.962
44.3102	22.5856
45.9614	22.5856
47.154	22.9278
49.1721	23.1559
51.1903	23.4981
52.4746	23.8403
54.2176	24.1825
55.7771	24.1825
57.52	24.4106
59.0795	24.5247
59.5382	24.8669
60.7307	24.5247
62.1984	24.8669
63.391	25.2091
64.859	25.2091
