Adsorption isotherm of Carbon Dioxide on Graphite Nanofibers etched at 1173K
DOI: 10.1016/j.jcis.2010.08.048
Article source: Figure 5a
Adsorbate Carbon Dioxide: InChIKey CURLTUGMZLYLDI-UHFFFAOYSA-N
Kind: experiment
Temperature: 298 K
Tabular data in the source: 0
pressure (bar)	uptake (mg/g)
1.81634	6.42447
3.63957	13.8815
4.92631	10.8987
6.65313	17.8967
8.5045	15.6023
9.94286	21.3384
12.1684	19.1587
14.5447	25.5832
15.644	22.4857
19.0225	25.239
19.2344	29.0249
22.4942	27.9924
25.4237	33.3843
28.5879	32.0076
31.515	37.0554
32.0566	34.3021
37.7914	40.4971
38.5213	37.9732
43.7825	43.1358
44.8926	41.6444
49.9641	46.348
51.4513	45.4302
57.6383	49.4455
58.1004	48.7572
64.5634	52.1989
