Adsorption isotherm of Carbon Dioxide on Graphite Nanofibers etched at 1273K - water washed
DOI: 10.1016/j.jcis.2010.08.048
Article source: Figure 5b
Adsorbate Carbon Dioxide: InChIKey CURLTUGMZLYLDI-UHFFFAOYSA-N
Kind: experiment
Temperature: 298 K
Tabular data in the source: 0
pressure (bar)	uptake (mg/g)
1.00939	2.1673
2.29389	3.76426
4.12882	5.58935
4.95453	6.38783
6.51412	7.30038
7.98197	8.21293
8.89942	9.01141
11.2847	10.3802
12.569	10.8365
13.4864	11.5209
15.8716	12.3194
16.6973	12.8897
19.0825	13.8023
20.642	14.4867
21.7429	14.943
23.5777	15.8555
24.6785	16.1977
26.1463	16.7681
27.1554	17.1103
28.6232	17.5665
30.091	18.251
31.7424	19.1635
33.5771	19.5057
35.0449	20.1901
36.7879	20.5323
38.1639	21.2167
39.9986	21.4449
41.4665	22.3574
43.3012	22.4715
44.2186	23.384
46.4203	23.6122
48.1633	24.4106
49.4476	24.4106
51.1906	25.2091
52.9335	25.3232
54.2179	26.0076
56.0526	26.4639
57.9791	27.1483
59.5385	27.2624
61.5567	27.9468
62.6576	28.0608
65.3181	28.7452
