Adsorption isotherm of Carbon Dioxide on Graphite Nanofibers etched at 1273K
DOI: 10.1016/j.jcis.2010.08.048
Article source: Figure 5a
Adsorbate Carbon Dioxide: InChIKey CURLTUGMZLYLDI-UHFFFAOYSA-N
Kind: experiment
Temperature: 298 K
Tabular data in the source: 0
pressure (bar)	uptake (mg/g)
1.60818	3.21224
4.051	5.62141
6.86332	7.45698
7.71254	8.83365
10.3489	12.2753
10.518	9.63671
13.7029	11.3576
13.7243	14.5698
16.8167	16.4054
16.9811	13.0784
19.5341	18.0115
20.0719	14.6845
22.7175	19.5029
24.9391	16.7495
25.9949	21.109
28.2173	18.4704
31.4917	19.6176
32.3563	23.2887
34.7684	21.109
38.0436	22.3709
38.5302	25.3537
41.3187	23.6329
44.4233	27.304
44.5939	24.8948
47.8713	26.501
50.8749	29.0249
51.0524	27.6482
57.4122	29.5985
58.3525	30.631
64.052	31.5488
