Adsorption isotherm of Nitrogen on Graphite Nanofibers etched at 1273K
DOI: 10.1016/j.jcis.2010.08.048
Article source: Figure 3
Adsorbate Nitrogen: InChIKey IJGRMHOSHXDMSA-UHFFFAOYSA-N
Kind: experiment
Temperature: 77 K
Tabular data in the source: 0
pressure (bar)	uptake (cm3(STP)/g)
0.001064	23.6178
0.006915	35.0514
0.039094	44.0147
0.052258	46.456
0.075661	48.8899
0.100527	56.2246
0.106378	52.1353
0.123931	57.8414
0.129781	55.3862
0.150259	61.9071
0.153184	58.637
0.176587	63.5218
0.17805	61.8867
0.19999	66.7726
0.205842	63.5003
0.224856	69.2054
0.227782	65.9352
0.249723	71.6381
0.252648	67.551
0.273126	74.0719
0.278976	69.9827
0.300917	77.3195
0.303842	72.4154
0.349185	80.5521
0.357962	75.6437
0.40038	85.4166
0.407693	82.9602
0.447187	89.4672
0.460351	87.0066
0.495455	98.4188
0.510082	88.6041
0.545187	102.467
0.559814	92.6526
0.596382	105.698
0.612471	97.516
0.64465	111.381
0.66074	101.566
0.698771	113.793
0.711935	107.247
0.751427	119.473
0.760203	112.114
0.80701	128.419
0.809935	118.613
0.858205	136.552
0.902085	147.957
0.909399	135.697
0.924025	148.758
0.960592	162.62
0.962056	152.815
0.98107	164.239
0.985459	173.223
1.00886	191.18
