Adsorption isotherm of Nitrogen on Graphite Nanofibers etched at 1073K
DOI: 10.1016/j.jcis.2010.08.048
Article source: Figure 3
Adsorbate Nitrogen: InChIKey IJGRMHOSHXDMSA-UHFFFAOYSA-N
Kind: experiment
Temperature: 77 K
Tabular data in the source: 0
pressure (bar)	uptake (cm3(STP)/g)
0.059429	47.3856
0.07981	51.4706
0.100149	61.2745
0.127819	65.3595
0.154032	69.4444
0.177335	72.7124
0.202091	76.7974
0.225387	80.8824
0.248684	84.9673
0.274897	89.0523
0.280788	80.8824
0.299658	92.3203
0.30847	83.3333
0.346269	98.0392
0.353618	89.8693
0.398695	106.209
0.408953	98.8562
0.451113	115.196
0.459914	107.843
0.496243	124.183
0.50943	115.196
0.545735	134.804
0.560421	120.098
0.595227	145.425
0.609913	130.719
0.646217	150.327
0.659452	134.804
0.700125	155.229
0.710414	143.791
0.752485	172.386
0.757025	149.51
0.807808	183.007
0.807981	159.314
0.854479	180.556
0.861668	194.444
0.900858	218.137
0.911225	196.078
0.940085	236.928
0.941692	216.503
0.959056	234.477
0.964631	269.608
0.977658	282.68
0.983621	264.706
0.990618	304.739
0.995111	288.399
1.00514	312.092
