Adsorption isotherm of Carbon Dioxide on Graphite Nanofibers
DOI: 10.1016/j.jcis.2010.08.048
Article source: Figure 5a
Adsorbate Carbon Dioxide: InChIKey CURLTUGMZLYLDI-UHFFFAOYSA-N
Kind: experiment
Temperature: 298 K
Tabular data in the source: 0
pressure (bar)	uptake (mg/g)
1.98305	3.44168
3.48639	4.93308
3.86356	5.50669
4.79767	5.62141
6.76541	6.76864
8.91667	7.45698
9.94799	8.14532
12.569	9.29254
14.4411	10.0956
17.2457	10.7839
19.3052	11.7017
20.5209	12.0459
25.4769	13.4226
31.6477	15.0287
37.82	16.8642
38.2867	16.8642
44.173	17.782
45.0153	18.1262
50.2512	19.5029
51.1846	19.5029
57.8221	21.109
58.1013	20.9943
64.6423	22.1415
