Adsorption isotherm of Carbon Dioxide on Graphite Nanofibers etched at 1073K
DOI: 10.1016/j.jcis.2010.08.048
Article source: Figure 5a
Adsorbate Carbon Dioxide: InChIKey CURLTUGMZLYLDI-UHFFFAOYSA-N
Kind: experiment
Temperature: 298 K
Tabular data in the source: 0
pressure (bar)	uptake (mg/g)
1.70995	4.47419
4.07402	9.0631
6.98047	11.0134
7.36378	12.5048
10.362	14.2256
10.4607	15.0287
13.4574	16.5201
13.465	17.6673
16.7487	20.1912
17.021	19.044
20.1141	20.9943
22.6556	24.2065
24.8933	23.8623
26.1221	26.1568
28.4539	25.9273
31.5454	27.6482
32.3051	29.5985
34.8244	29.4837
38.1026	31.2046
38.2985	32.5813
41.3809	32.9254
42.5124	34.6463
44.6607	34.8757
47.753	36.7113
51.0227	37.1702
54.2092	39.1205
58.6097	41.1855
60.8528	41.6444
66.0017	43.9388
