Adsorption isotherm of Carbon Dioxide on Graphite Nanofibers etched at 1173K - water washed
DOI: 10.1016/j.jcis.2010.08.048
Article source: Figure 5b
Adsorbate Carbon Dioxide: InChIKey CURLTUGMZLYLDI-UHFFFAOYSA-N
Kind: experiment
Temperature: 298 K
Tabular data in the source: 0
pressure (bar)	uptake (mg/g)
1.28488	4.10646
2.20244	5.58935
3.30354	7.64259
5.78098	11.9772
5.87268	11.749
7.24907	14.2586
8.90044	15.8555
8.90057	16.3118
10.3686	18.4791
10.6437	17.7947
12.0199	19.5057
12.2036	20.4183
13.3962	21.673
14.2218	21.4449
15.3228	22.9278
15.5064	23.7262
17.5247	24.6388
17.9836	26.0076
18.2588	26.692
20.1853	27.1483
20.1855	28.1749
22.6625	30.2281
23.5799	30
25.4149	32.5095
26.9744	33.1939
28.7177	35.3612
29.9102	35.3612
31.6535	37.5285
33.2129	37.6426
34.9562	40.2662
36.4239	40.038
37.9837	42.2053
39.635	42.7757
41.0112	44.2586
42.9377	44.8289
44.1304	46.5399
46.1487	47.1103
47.4331	48.4791
49.3596	49.1635
50.644	50.4183
52.2953	51.1027
55.7815	53.384
56.8824	54.4106
58.9925	55.4373
60.9191	57.1483
62.2952	57.3764
64.7725	59.3156
