Adsorption isotherm of Nitrogen on Graphite Nanofibers etched at 1173K
DOI: 10.1016/j.jcis.2010.08.048
Article source: Figure 3
Adsorbate Nitrogen: InChIKey IJGRMHOSHXDMSA-UHFFFAOYSA-N
Kind: experiment
Temperature: 77 K
Tabular data in the source: 0
pressure (bar)	uptake (cm3(STP)/g)
0	-0.001837
0.001064	62.8334
0.002526	83.2572
0.014228	99.5885
0.037631	112.643
0.042019	115.091
0.052258	118.351
0.075661	126.504
0.100527	134.656
0.125393	149.344
0.129781	141.987
0.150259	155.861
0.151722	147.69
0.175125	162.379
0.179512	155.84
0.19999	168.897
0.201453	159.909
0.224856	174.598
0.22632	166.427
0.249723	178.664
0.252648	172.126
0.273126	186
0.278976	177.826
0.299454	193.334
0.303842	183.527
0.350648	202.283
0.355037	195.744
0.398918	215.32
0.407693	203.875
0.43841	222.644
0.458888	215.276
0.498381	243.841
0.510082	225.042
0.548113	253.609
0.559814	238.077
0.596382	264.194
0.609546	244.577
0.649038	274.777
0.66074	260.879
0.701696	285.359
0.710472	272.281
0.754352	300.843
0.757278	290.22
0.80701	319.596
0.849428	335.087
0.862592	317.921
0.906473	357.921
0.907936	345.665
0.92695	375.063
0.950355	374.229
0.95913	389.746
0.967906	416.7
0.983996	410.152
0.991309	445.278
0.997161	436.286
1.00594	460.79
