Adsorption isotherm of Hydrogen on IRMOF-1
DOI: 10.1002/chem.201001700
Adsorbate Hydrogen: InChIKey UFHFLCQGNIYNRP-UHFFFAOYSA-N
Temperature: 298 K
Tabular data in the source: 0
pressure (bar)	uptake (mmol/g)
0.0836516	0.146669
0.181124	0.186156
0.194217	0.0846165
0.898345	0.191797
1.8156	0.236926
2.93799	0.282055
3.95999	0.31026
4.88016	0.332825
5.90289	0.355389
6.92562	0.377953
7.84434	0.4118
8.86561	0.445647
9.88834	0.468211
10.9096	0.502058
11.9324	0.524622
12.8511	0.558469
13.7698	0.592315
14.7918	0.620521
15.8152	0.637444
16.8394	0.648726
17.7581	0.682573
18.7787	0.72206
