Adsorption isotherm of Nitrogen on IRMOF-1
DOI: 10.1002/chem.201001700
Adsorbate Nitrogen: InChIKey IJGRMHOSHXDMSA-UHFFFAOYSA-N
Temperature: 77 K
Tabular data in the source: 0
pressure (bar)	uptake (cm3(STP)/g)
0.0100436	925.804
0.0279923	914.503
0.0685487	886.095
0.0866119	872.807
0.104675	859.518
0.159056	816.342
0.218134	766.698
0.268046	726.016
0.31815	682.022
0.372874	632.885
0.432334	576.618
0.496415	515.206
0.551292	463.42
0.587953	427.571
0.661313	355.21
0.716305	301.437
0.771297	247.663
0.803337	216.958
0.858329	163.184
0.885825	136.297
0.908623	115.879
0.935928	92.3035
0.953991	79.0153
0.958345	78.5083
