Adsorption isotherm of Nitrogen on IRMOF-1
DOI: 10.1002/chem.201001700
Adsorbate Nitrogen: InChIKey IJGRMHOSHXDMSA-UHFFFAOYSA-N
Temperature: 77 K
Tabular data in the source: 0
pressure (bar)	uptake (cm3(STP)/g)
0.00294182	99.1861
0.0155496	809.983
0.0613248	913.484
0.0827691	925.972
0.101526	934.316
0.122948	938.539
0.139018	942.74
0.160451	951.096
0.176531	959.429
0.246151	972.121
0.299712	984.746
0.347898	989.083
0.390731	993.397
0.441594	997.746
0.48978	1002.08
0.537977	1010.55
0.57277	1010.7
0.602189	1002.56
0.636993	1006.84
0.701215	1002.98
0.74939	1003.19
0.786882	1011.61
0.82434	1007.64
0.856446	1003.64
0.888563	1003.78
0.928709	1003.95
0.947466	1012.29
0.971564	1016.53
