Adsorption isotherm of Hydrogen on IRMOF-1
DOI: 10.1002/chem.201001700
Adsorbate Hydrogen: InChIKey UFHFLCQGNIYNRP-UHFFFAOYSA-N
Temperature: 77 K
Tabular data in the source: 0
pressure (bar)	uptake (mmol/g)
0.115274	0.115274
0.345821	4.48163
0.576369	7.90875
0.806916	8.96325
0.92219	10.0178
1.95965	13.9721
2.88184	16.7402
3.86167	18.981
4.95677	20.8264
5.99424	22.2763
6.97406	23.7263
8.01153	24.9126
8.99135	25.7034
9.97118	26.758
10.951	27.6806
11.9885	28.2079
13.0259	28.9988
13.9481	29.526
15.1009	30.0533
16.1383	30.5805
16.9452	30.976
18.3285	31.3714
19.3084	31.7668
