Adsorption isotherm of Nitrogen on MSG10
DOI: 10.1007/s10450-019-00064-y
Article source: Figure 3
Adsorbate Nitrogen: InChIKey IJGRMHOSHXDMSA-UHFFFAOYSA-N
Kind: experiment
Temperature: 77 K
Tabular data in the source: 0
pressure (bar)	uptake (mmol/g)
0.011714	1.15533
0.027332	1.54291
0.046855	1.93123
0.070283	2.03183
0.097616	2.22932
0.111282	2.32807
0.156185	2.62506
0.20304	3.11472
0.265514	3.7035
0.308465	3.71165
0.357273	4.10553
0.400224	4.30599
0.460746	4.70209
0.503697	4.9987
0.554457	5.20064
0.618883	5.40518
0.657929	6.08567
0.710642	7.15336
0.769211	8.41448
0.812162	10.6342
0.851208	14.1031
0.898064	18.6312
0.964442	21.8169
0.985918	24.321
0.019523	1.44527
0.040999	2.21858
0.064426	2.22303
0.095663	2.51742
0.103473	2.71121
0.146423	3.10397
0.199136	3.21013
0.253801	3.60512
0.306513	4.09589
0.36313	4.49125
0.406081	4.21095
0.449032	4.98833
0.503697	5.19101
0.560314	5.77868
0.607169	6.36449
0.654025	6.95031
0.708689	8.21069
0.755545	10.6234
0.798496	14.3816
0.857065	18.1427
0.909777	20.5565
0.98787	23.7444
0.968347	23.5484
