Adsorption isotherm of Nitrogen on MSG40
DOI: 10.1007/s10450-019-00064-y
Article source: Figure 3
Adsorbate Nitrogen: InChIKey IJGRMHOSHXDMSA-UHFFFAOYSA-N
Kind: experiment
Temperature: 77 K
Tabular data in the source: 0
pressure (bar)	uptake (mmol/g)
0.023428	1.25371
0.040999	1.73781
0.066379	2.2234
0.113234	2.52075
0.138614	2.81403
0.195231	3.30554
0.244039	3.60327
0.31237	3.80855
0.361178	4.10627
0.409986	4.50015
0.462698	5.18323
0.507601	5.28791
0.558361	5.77831
0.609121	5.8841
0.724308	7.25211
0.759449	8.98955
0.81021	11.0184
0.855113	14.3923
0.909777	18.4412
0.968347	22.3946
0.021475	1.5418
0.042951	1.83433
0.042951	1.83433
0.058569	2.12576
0.064426	2.22303
0.080045	2.22599
0.095663	2.32511
0.146423	2.6232
0.20304	3.30702
0.255753	3.60549
0.302608	3.71054
0.359225	4.29821
0.406081	4.01864
0.449032	4.50756
0.507601	5.19175
0.564218	5.58711
0.607169	6.07603
0.657929	6.08567
0.70088	7.53613
0.747736	10.6219
0.796543	14.7658
0.872684	18.8187
0.900016	20.747
0.952728	23.1608
0.98787	24.0329
