Adsorption isotherm of Carbon Dioxide on MSG60
DOI: 10.1007/s10450-019-00064-y
Article source: Figure 10B
Adsorbate Carbon Dioxide: InChIKey CURLTUGMZLYLDI-UHFFFAOYSA-N
Kind: experiment
Temperature: 298 K
Tabular data in the source: 0
pressure (bar)	uptake (mmol/g)
0.019122	0.651196
0.106131	0.970127
0.235657	1.06295
0.354348	1.10698
0.461962	1.15487
0.54208	1.16916
0.630407	1.20219
0.710474	1.22777
0.807166	1.24567
1.03646	1.28865
