Adsorption isotherm of Carbon Dioxide on MSG60
DOI: 10.1007/s10450-019-00064-y
Article source: Figure 10B
Adsorbate Carbon Dioxide: InChIKey CURLTUGMZLYLDI-UHFFFAOYSA-N
Kind: experiment
Temperature: 298 K
Tabular data in the source: 0
pressure (bar)	uptake (mmol/g)
0.033641	0.500589
0.13809	0.63503
0.265007	0.694025
0.367073	0.74573
0.469208	0.782387
0.543727	0.81178
0.626645	0.818524
0.726085	0.840159
0.819994	0.861846
1.03553	0.889913
