Adsorption isotherm of Carbon Dioxide on MSG
DOI: 10.1007/s10450-019-00064-y
Article source: Figure 12
Adsorbate Carbon Dioxide: InChIKey CURLTUGMZLYLDI-UHFFFAOYSA-N
Kind: experiment
Temperature: 298 K
Tabular data in the source: 0
pressure (bar)	uptake (mmol/g)
0.108403	0.075105
0.196639	0.117257
0.305042	0.159186
0.393277	0.211291
0.491597	0.253331
0.622689	0.304962
0.784034	0.362894
0.978151	0.43705
