Adsorption isotherm of Carbon Dioxide on MSG10
DOI: 10.1007/s10450-019-00064-y
Article source: Figure 12
Adsorbate Carbon Dioxide: InChIKey CURLTUGMZLYLDI-UHFFFAOYSA-N
Kind: experiment
Temperature: 298 K
Tabular data in the source: 0
pressure (bar)	uptake (mmol/g)
0.015126	0.112629
0.017647	0.241985
0.032773	0.328074
0.052941	0.394201
0.065546	0.404014
0.085714	0.433649
0.141176	0.492752
0.184034	0.532088
0.196639	0.538584
0.259664	0.56111
0.289916	0.590633
0.327731	0.603485
0.388235	0.632674
0.484034	0.688012
0.589916	0.716699
0.688235	0.752105
0.781513	0.777614
0.864706	0.799916
