Adsorption isotherm of Carbon Dioxide on MSG60
DOI: 10.1007/s10450-019-00064-y
Article source: Figure 11B
Adsorbate Carbon Dioxide: InChIKey CURLTUGMZLYLDI-UHFFFAOYSA-N
Kind: experiment
Temperature: 323 K
Tabular data in the source: 0
pressure (bar)	uptake (mmol/g)
0.02555	0.687178
0.062684	0.757592
0.086752	0.794258
0.143861	0.830413
0.271283	0.905608
0.429626	0.961806
0.618767	1.02679
0.832261	1.06362
0.006527	0.505372
0.005507	0.23687
0.006445	0.023892
