Adsorption isotherm of Nitrogen on MSS
DOI: 10.1007/s10450-019-00064-y
Article source: Figure 3
Adsorbate Nitrogen: InChIKey IJGRMHOSHXDMSA-UHFFFAOYSA-N
Kind: experiment
Temperature: 77 K
Tabular data in the source: 0
pressure (bar)	uptake (mmol/g)
0.011714	1.34764
0.011714	1.82841
0.019523	2.50296
0.02538	2.60023
0.037094	2.89091
0.046855	3.56584
0.064426	3.66533
0.078092	3.86023
0.103473	3.96121
0.156185	4.64429
0.21085	5.42389
0.263562	5.72236
0.31237	5.82778
0.36313	6.41433
0.411938	6.90437
0.460746	7.29824
0.517363	7.88591
0.564218	8.27942
0.607169	9.15296
0.657929	9.93182
0.720403	11.0014
0.759449	12.7396
0.812162	16.1149
0.864874	21.0288
0.907825	28.7292
0.966395	33.4519
0.982013	36.1472
0.019523	2.69527
0.029285	3.17789
0.046855	3.56584
0.072236	3.85912
0.099568	4.15277
0.163994	4.93423
0.206945	5.42315
0.257705	5.8174
0.306513	6.49974
0.357273	6.60553
0.404129	7.2875
0.450984	7.58485
0.509553	8.3652
0.556409	8.75871
0.607169	9.15296
0.655977	10.3161
0.706737	11.768
0.761402	15.0476
0.81021	21.3069
0.862922	27.8553
0.915634	32.673
0.96249	35.5665
