Adsorption isotherm of Carbon Dioxide on MSG60
DOI: 10.1007/s10450-019-00064-y
Article source: Figure 11B
Adsorbate Carbon Dioxide: InChIKey CURLTUGMZLYLDI-UHFFFAOYSA-N
Kind: experiment
Temperature: 323 K
Tabular data in the source: 0
pressure (bar)	uptake (mmol/g)
0.008648	0.023858
0.014277	0.245994
0.017514	0.511376
0.025563	0.684091
0.06055	0.742193
0.095618	0.781775
0.137335	0.811996
0.264811	0.874843
0.425343	0.934094
0.64758	0.98622
0.843466	1.02023
