Adsorption isotherm of Carbon Dioxide on MSG20
DOI: 10.1007/s10450-019-00064-y
Article source: Figure 12
Adsorbate Carbon Dioxide: InChIKey CURLTUGMZLYLDI-UHFFFAOYSA-N
Kind: experiment
Temperature: 298 K
Tabular data in the source: 0
pressure (bar)	uptake (mmol/g)
0.015126	0.109311
0.012605	0.255311
0.017647	0.374686
0.045378	0.457318
0.068067	0.48029
0.080672	0.496738
0.138655	0.54586
0.168908	0.562113
0.206723	0.591553
0.257143	0.614218
0.282353	0.630527
0.320168	0.646696
0.398319	0.67569
0.494118	0.697853
0.584874	0.733343
0.695798	0.775244
0.77395	0.784332
0.862185	0.806579
1.14202	0.886423
