Adsorption isotherm of Nitrogen on MSG60
DOI: 10.1007/s10450-019-00064-y
Article source: Figure 3
Adsorbate Nitrogen: InChIKey IJGRMHOSHXDMSA-UHFFFAOYSA-N
Kind: experiment
Temperature: 77 K
Tabular data in the source: 0
pressure (bar)	uptake (mmol/g)
0.015618	0.6753
0.021475	1.06103
0.040999	1.35319
0.062474	1.45342
0.103473	1.46121
0.109329	1.46232
0.13471	1.46713
0.16009	1.47195
0.197184	1.95976
0.232325	2.15874
0.285038	2.36105
0.351416	2.75826
0.415842	3.05895
0.468555	3.35742
0.5486	4.04569
0.513458	3.46209
0.603264	3.95991
0.655977	4.35453
0.720403	5.03983
0.775068	5.81944
0.806305	6.69075
0.862922	9.29765
0.909777	13.0565
0.970299	15.7603
0.983965	16.5322
0.023428	0.772936
0.029285	1.06251
0.037094	1.35245
0.052712	1.45157
0.074188	1.74411
0.087854	1.93901
0.099568	1.94123
0.163994	2.24192
0.20304	2.05702
0.263562	2.64544
0.304561	2.65322
0.353368	2.85479
0.419747	3.63662
0.456841	3.5475
0.507601	3.65329
0.5486	3.85338
0.607169	4.0568
0.655977	4.25837
0.714546	5.80795
0.759449	7.35494
0.812162	10.2496
0.859017	13.2392
0.913682	14.7881
0.966395	16.3365
0.982013	16.9164
