Adsorption isotherm of Carbon Dioxide on MSG60
DOI: 10.1007/s10450-019-00064-y
Article source: Figure 11B
Adsorbate Carbon Dioxide: InChIKey CURLTUGMZLYLDI-UHFFFAOYSA-N
Kind: experiment
Temperature: 323 K
Tabular data in the source: 0
pressure (bar)	uptake (mmol/g)
0.008675	0.017685
0.012088	0.242941
0.013162	0.499097
0.023496	0.653259
0.060672	0.714413
0.100118	0.760101
0.133051	0.784284
0.280339	0.849912
0.432087	0.903126
0.643311	0.955422
0.841399	0.989402
