Adsorption isotherm of Carbon Dioxide on MSG60
DOI: 10.1007/s10450-019-00064-y
Article source: Figure 12
Adsorbate Carbon Dioxide: InChIKey CURLTUGMZLYLDI-UHFFFAOYSA-N
Kind: experiment
Temperature: 298 K
Tabular data in the source: 0
pressure (bar)	uptake (mmol/g)
0.010084	0.112685
0.015126	0.265236
0.017647	0.570421
0.02521	0.756119
0.027731	0.789267
0.055462	0.875216
0.10084	0.944382
0.156303	0.98358
0.27479	1.05194
0.393277	1.10703
0.52437	1.14539
0.607563	1.18428
0.688235	1.19334
0.784034	1.2155
0.877311	1.23769
1.12185	1.30134
