Adsorption isotherm of Carbon Dioxide on MSG40
DOI: 10.1007/s10450-019-00064-y
Article source: Figure 12
Adsorbate Carbon Dioxide: InChIKey CURLTUGMZLYLDI-UHFFFAOYSA-N
Kind: experiment
Temperature: 298 K
Tabular data in the source: 0
pressure (bar)	uptake (mmol/g)
0.012605	0.125927
0.032773	0.464093
0.042857	0.490521
0.052941	0.51695
0.093277	0.596125
0.166387	0.645079
0.221849	0.684277
0.264706	0.71366
0.337815	0.74271
0.471429	0.814218
0.577311	0.852858
0.688235	0.878171
0.771429	0.903791
0.867227	0.929272
1.11429	0.986256
