Adsorption isotherm of Carbon Dioxide on MSG60
DOI: 10.1007/s10450-019-00064-y
Article source: Figure 10B
Adsorbate Carbon Dioxide: InChIKey CURLTUGMZLYLDI-UHFFFAOYSA-N
Kind: experiment
Temperature: 298 K
Tabular data in the source: 0
pressure (bar)	uptake (mmol/g)
0.03091	0.493092
0.132577	0.63132
0.242869	0.697995
0.361578	0.738258
0.455435	0.771231
0.549257	0.811728
0.632141	0.825995
0.706764	0.832817
0.781283	0.86221
1.04649	0.912381
