Adsorption isotherm of Carbon Dioxide on MSG60
DOI: 10.1007/s10450-019-00064-y
Article source: Figure 10B
Adsorbate Carbon Dioxide: InChIKey CURLTUGMZLYLDI-UHFFFAOYSA-N
Kind: experiment
Temperature: 298 K
Tabular data in the source: 0
pressure (bar)	uptake (mmol/g)
0.019763	0.512005
0.138107	0.631268
0.267755	0.697761
0.36436	0.73447
0.463713	0.774915
0.560405	0.792814
0.654314	0.814502
0.73158	0.847631
0.82829	0.861768
1.05212	0.889757
