Adsorption isotherm of Nitrogen on MSG20
DOI: 10.1007/s10450-019-00064-y
Article source: Figure 3
Adsorbate Nitrogen: InChIKey IJGRMHOSHXDMSA-UHFFFAOYSA-N
Kind: experiment
Temperature: 77 K
Tabular data in the source: 0
pressure (bar)	uptake (mmol/g)
0.019523	1.25296
0.031237	1.6398
0.044903	1.93086
0.058569	1.93345
0.07614	2.22525
0.093711	2.22858
0.115186	2.52112
0.158137	2.72158
0.193279	3.20902
0.245991	3.50748
0.304561	3.71091
0.333845	3.90877
0.378749	4.01345
0.433413	4.40844
0.499792	4.80565
0.558361	5.29754
0.611074	6.07678
0.665738	6.76023
0.708689	7.82607
0.747736	9.75656
0.81021	14.3838
0.857065	18.5273
0.909777	20.2681
0.968347	22.7792
0.013666	1.25185
0.029285	1.83174
0.052712	1.93234
0.081997	2.13021
0.115186	2.1365
0.146423	2.52705
0.20304	3.01856
0.271371	3.60846
0.310418	4.00048
0.36313	4.20279
0.417795	4.59778
0.466603	4.60705
0.519315	5.38628
0.566171	5.87595
0.620835	6.36709
0.661834	7.52872
0.710642	8.59567
0.755545	10.8157
0.804353	15.0558
0.859017	18.4315
0.898064	20.5543
0.964442	23.0669
