Adsorption isotherm of Carbon Dioxide on TAF-1a
DOI: 10.1002/chem.201204458
Adsorbate Carbon Dioxide: InChIKey CURLTUGMZLYLDI-UHFFFAOYSA-N
Temperature: 273 K
Tabular data in the source: 0
pressure (bar)	uptake (cm3(STP)/g)
0.196337	1.46018
0.394456	2.38938
0.890865	4.38053
1.78752	7.0354
2.48472	9.15929
3.38404	11.0177
4.38443	12.7434
5.08474	13.9381
5.98584	15.2655
6.88739	16.4602
7.78939	17.5221
8.59032	18.7168
9.49276	19.646
10.3952	20.5752
11.1979	21.2389
11.9997	22.1681
13.0037	22.8319
13.8068	23.3628
14.7097	24.1593
15.6135	24.6903
16.5168	25.354
17.32	25.885
18.1236	26.2832
19.1275	26.9469
20.1315	27.6106
20.7339	28.0088
21.7387	28.4071
22.5423	28.8053
23.4456	29.469
24.2501	29.6018
25.1539	30.1327
25.9571	30.6637
26.9623	30.9292
27.7659	31.3274
28.6706	31.5929
29.5748	31.9912
30.3784	32.3894
31.1825	32.6549
31.9861	33.0531
33.092	33.3186
33.8965	33.4513
34.4993	33.7168
