Adsorption isotherm of Carbon Dioxide on TAF-1a
DOI: 10.1002/chem.201204458
Adsorbate Carbon Dioxide: InChIKey CURLTUGMZLYLDI-UHFFFAOYSA-N
Temperature: 298 K
Tabular data in the source: 0
pressure (bar)	uptake (cm3(STP)/g)
0.731096	1.99115
1.46548	3.45133
3.31502	4.9115
4.60698	6.37168
6.2723	7.56637
7.93679	8.89381
9.60211	10.0885
11.2699	10.885
12.7502	11.9469
14.418	12.7434
16.0849	13.6726
17.566	14.6018
19.0472	15.531
20.7158	16.1947
22.3835	16.9912
24.0522	17.6549
25.7216	18.1858
27.3894	18.9823
28.8721	19.646
30.5407	20.3097
32.0235	20.9735
33.6921	21.6372
35.1749	22.3009
37.031	22.6991
38.7012	23.0973
40.1848	23.6283
41.8542	24.1593
43.1519	24.6903
45.0081	25.0885
46.6767	25.7522
47.9744	26.2832
49.6455	26.5487
51.3157	26.9469
53.1718	27.3451
54.6562	27.7434
56.1398	28.2743
57.8092	28.8053
59.4787	29.3363
61.1473	30
62.6358	29.7345
63.9335	30.2655
