Adsorption isotherm of Methanol on TAF-1a
DOI: 10.1002/chem.201204458
Adsorbate Methanol: InChIKey OKKJLVBELUTLKV-UHFFFAOYSA-N
Temperature: 298 K
Tabular data in the source: 0
pressure (bar)	uptake (mmol/g)
0.00128735	1.67982
0.00173982	1.94375
0.00219418	2.18369
0.00312183	2.42356
0.00357619	2.66349
0.00403055	2.90343
0.00447166	3.31136
0.00634968	3.5031
0.00822581	3.71883
0.00962297	4.00663
0.0119819	4.10229
0.0157568	4.24576
0.0195299	4.41322
0.0237858	4.46061
0.0280378	4.55601
0.0289806	4.60387
0.0304005	4.60367
0.0332383	4.62727
0.0374904	4.72266
0.0422176	4.79399
0.0459983	4.86545
0.0497789	4.93691
0.0521416	4.98457
0.0563956	5.05597
0.0611228	5.12729
0.0653749	5.22269
0.0691517	5.34215
0.0738827	5.36548
0.07861	5.4368
0.0828658	5.4842
0.0875931	5.55552
0.0918489	5.60292
0.096578	5.65024
0.0994121	5.72184
0.100832	5.72164
0.105088	5.76903
0.109819	5.79236
0.114548	5.83968
0.118804	5.88708
0.123535	5.9104
0.127791	5.9578
0.129209	5.9816
0.132522	5.98112
0.136778	6.02852
0.141509	6.05184
0.145764	6.09924
0.150495	6.12256
0.155225	6.16989
0.159482	6.19328
