Adsorption isotherm of Methanol on TAF-1a
DOI: 10.1002/chem.201204458
Adsorbate Methanol: InChIKey OKKJLVBELUTLKV-UHFFFAOYSA-N
Temperature: 298 K
Tabular data in the source: 0
pressure (bar)	uptake (mmol/g)
0.000513689	0.165289
0.00256845	0.231405
0.00565058	0.429752
0.0102738	0.694215
0.0154107	0.909091
0.0205476	1.10744
0.0251708	1.27273
0.029794	1.43802
0.0344172	1.60331
0.0410951	1.78512
0.0467457	1.95041
0.0534237	2.13223
0.061129	2.31405
0.0667796	2.41322
0.0714028	2.52893
0.0765397	2.6281
0.0811629	2.72727
0.0862998	2.82645
0.0919503	2.92562
0.100683	3.04132
0.107361	3.12397
0.114553	3.22314
0.120717	3.28926
0.130477	3.45455
0.137669	3.53719
0.143833	3.61983
0.150511	3.68595
0.155134	3.70248
