Adsorption isotherm of Nitrogen on TAF-1a
DOI: 10.1002/chem.201204458
Adsorbate Nitrogen: InChIKey IJGRMHOSHXDMSA-UHFFFAOYSA-N
Temperature: 77 K
Tabular data in the source: 0
pressure (bar)	uptake (cm3(STP)/g)
6.12e-07	19.4592
5.37035e-06	10.8083
6.0728e-06	33.1503
6.52599e-06	47.5645
7.00184e-06	62.6995
1.73573e-05	72.064
3.79097e-05	85.7482
5.82581e-05	92.946
8.35689e-05	97.9793
0.000134032	103.001
0.000189458	105.858
0.000249914	108.713
0.000330469	110.838
0.000405993	112.965
0.000466404	114.378
0.000567059	115.773
0.00064256	117.18
0.000748223	117.851
0.000828755	119.255
0.000914296	119.936
0.00100486	120.615
0.00113566	120.555
0.00122122	121.956
0.00128161	122.649
