Adsorption isotherm of Water on TAF-1a
DOI: 10.1002/chem.201204458
Adsorbate Water: InChIKey XLYOFNOQVPJJNP-UHFFFAOYSA-N
Temperature: 298 K
Tabular data in the source: 0
pressure (bar)	uptake (mmol/g)
0.000478918	0.0661157
0.00210724	0.115702
0.00344821	0.181818
0.00498074	0.214876
0.00651328	0.264463
0.00795003	0.31405
0.009291	0.347107
0.0108235	0.396694
0.0122603	0.429752
0.013697	0.46281
0.0153254	0.479339
0.0166663	0.528926
0.0182947	0.528926
0.0196356	0.561983
0.0211682	0.595041
0.0226049	0.61157
0.0241375	0.628099
0.0255742	0.661157
0.0272025	0.677686
0.0286393	0.710744
