Adsorption isotherm of Nitrogen on TAF-1a
DOI: 10.1002/chem.201204458
Adsorbate Nitrogen: InChIKey IJGRMHOSHXDMSA-UHFFFAOYSA-N
Temperature: 77 K
Tabular data in the source: 0
pressure (bar)	uptake (cm3(STP)/g)
0.0014041	113.868
0.00245601	118.908
0.00454117	123.223
0.00869284	126.087
0.0128398	127.51
0.0169892	129.653
0.024756	129.618
0.0283876	131.764
0.0320121	131.748
0.0361591	133.17
0.0413347	132.426
0.0465173	133.845
0.0511774	133.824
0.0542842	133.81
0.0599845	135.225
0.0682692	135.188
0.0729317	135.888
0.0791475	136.58
0.0889856	136.536
0.0946836	137.231
0.104006	137.91
0.109702	137.884
0.117471	138.57
0.128865	139.239
0.140256	139.188
0.148541	139.151
