Adsorption isotherm of Propene on CuBTC
DOI: 10.1016/j.colsurfa.2009.08.025
Article source: Figure 4
Adsorbate Propene: InChIKey QQONPFPTGQHPMA-UHFFFAOYSA-N
Kind: experiment
Temperature: 373 K
Tabular data in the source: 0
pressure (bar)	uptake (mmol/g)
0.01589	0.5145
0.03291	0.9848
0.07145	1.8666
0.12809	2.8805
0.19486	3.6295
0.28084	4.3488
0.35321	4.7595
0.41653	5.0674
0.47759	5.3018
0.53863	5.4921
0.6008	5.697
0.69914	5.9015
0.7986	6.1059
0.90484	6.2808
0.99412	6.353
