Adsorption isotherm of N-propane on Cu-BTC
DOI: 10.1016/j.colsurfa.2009.08.025
Article source: Figure 2
Adsorbate N-propane: InChIKey ATUOYWHBWRKTHZ-UHFFFAOYSA-N
Kind: experiment
Temperature: 323 K
Tabular data in the source: 0
pressure (bar)	uptake (mmol/g)
0.01748	0
0.03901	0
0.06458	0
0.09145	0
0.13041	0
0.18157	0
0.24905	0
0.33546	0
0.40976	0
0.49757	0
0.60025	0
0.69483	0
0.80698	0
0.89751	0
0.9894	0
