Adsorption isotherm of Propene on CuBTC
DOI: 10.1016/j.colsurfa.2009.08.025
Article source: Figure 4
Adsorbate Propene: InChIKey QQONPFPTGQHPMA-UHFFFAOYSA-N
Kind: experiment
Temperature: 423 K
Tabular data in the source: 0
pressure (bar)	uptake (mmol/g)
0.03053	0.176
0.05543	0.4404
0.10179	0.6603
0.14816	0.9537
0.19791	1.203
0.26801	1.5402
0.35281	1.9066
0.40256	2.1264
0.50091	2.4632
0.59587	2.7706
0.71005	3.1513
0.80273	3.3558
0.92367	3.5894
0.98923	3.7355
