Adsorption isotherm of N-propane on Cu-BTC
DOI: 10.1016/j.colsurfa.2009.08.025
Article source: Figure 2
Adsorbate N-propane: InChIKey ATUOYWHBWRKTHZ-UHFFFAOYSA-N
Kind: experiment
Temperature: 348 K
Tabular data in the source: 0
pressure (bar)	uptake (mmol/g)
0.02019	0
0.03773	0
0.05928	0
0.08355	0
0.10646	0
0.13341	0
0.18461	0
0.31545	0
0.39106	0
0.45319	0
0.54773	0
0.64771	0
0.77875	0
0.86659	0
0.9936	0
