Adsorption isotherm of Propene on CuBTC
DOI: 10.1016/j.colsurfa.2009.08.025
Article source: Figure 6
Adsorbate Propene: InChIKey QQONPFPTGQHPMA-UHFFFAOYSA-N
Kind: experiment
Temperature: 373 K
Tabular data in the source: 0
pressure (bar)	uptake (mmol/g)
0.06088	0.6684
0.10147	0.8508
0.15445	1.1367
0.2018	1.4146
0.30214	1.9226
0.40248	2.4864
0.50056	3.0662
0.59977	3.5343
0.80045	4.3748
