Adsorption isotherm of N-propane on CuBTC
DOI: 10.1016/j.colsurfa.2009.08.025
Article source: Figure 2
Adsorbate N-propane: InChIKey ATUOYWHBWRKTHZ-UHFFFAOYSA-N
Kind: experiment
Temperature: 423 K
Tabular data in the source: 0
pressure (bar)	uptake (mmol/g)
0.02026	0.053
0.05539	0.1057
0.09186	0.1939
0.20669	0.4052
0.28909	0.5993
0.34042	0.7051
0.40121	0.8462
0.49577	1.0401
0.58763	1.234
0.69705	1.4632
0.80512	1.6746
0.9051	1.8328
0.99154	2.0802
