Adsorption isotherm of Propene on CuBTC
DOI: 10.1016/j.colsurfa.2009.08.025
Article source: Figure 4
Adsorbate Propene: InChIKey QQONPFPTGQHPMA-UHFFFAOYSA-N
Kind: experiment
Temperature: 348 K
Tabular data in the source: 0
pressure (bar)	uptake (mmol/g)
0.01252	0.6469
0.02618	1.3231
0.05005	2.3228
0.08184	3.4547
0.12831	4.4099
0.17586	5.0856
0.23582	5.6289
0.33534	6.2304
0.39865	6.4647
0.50943	6.7719
0.59985	6.9471
0.70495	7.0779
0.80101	7.15
0.90497	7.1926
0.98973	7.2649
