Adsorption isotherm of Propene on CuBTC
DOI: 10.1016/j.colsurfa.2009.08.025
Article source: Figure 4
Adsorbate Propene: InChIKey QQONPFPTGQHPMA-UHFFFAOYSA-N
Kind: experiment
Temperature: 323 K
Tabular data in the source: 0
pressure (bar)	uptake (mmol/g)
0.00464	0.8235
0.01498	2.0292
0.02875	3.529
0.05721	5.0139
0.09237	6.0133
0.14331	6.6597
0.18969	7.0119
0.25866	7.3344
0.34343	7.4949
0.40333	7.5823
0.52199	7.6982
0.6429	7.7553
0.76042	7.7829
0.88133	7.8106
0.99206	7.8089
