Adsorption isotherm of N-propane on CuBTC
DOI: 10.1016/j.colsurfa.2009.08.025
Article source: Figure 2
Adsorbate N-propane: InChIKey ATUOYWHBWRKTHZ-UHFFFAOYSA-N
Kind: experiment
Temperature: 373 K
Tabular data in the source: 0
pressure (bar)	uptake (mmol/g)
0.04183	0.3726
0.09311	0.7628
0.16329	1.2949
0.24832	1.9334
0.32256	2.4654
0.39679	3.0152
0.48994	3.5824
0.60742	4.0781
0.69927	4.3253
0.80733	4.6256
0.90054	4.784
0.98566	4.9069
