Adsorption isotherm of Propene on Cu-BTC
DOI: 10.1016/j.colsurfa.2009.08.025
Article source: Fig. 4
Adsorbate Propene: InChIKey QQONPFPTGQHPMA-UHFFFAOYSA-N
Kind: experiment
Temperature: 348 K
Tabular data in the source: 0
pressure (bar)	uptake (mmol/g)
0.01252	0
0.02618	0
0.05005	0
0.08184	0
0.12831	0
0.17586	0
0.23582	0
0.33534	0
0.39865	0
0.50943	0
0.59985	0
0.70495	0
0.80101	0
0.90497	0
0.98973	0
