Adsorption isotherm of Carbon Dioxide on [Zn2(BME-bdc)x(DB-bdc)2-xdabco]
DOI: 10.1016/j.micromeso.2015.02.042
Article source: Figure 2
Adsorbate Carbon Dioxide: InChIKey CURLTUGMZLYLDI-UHFFFAOYSA-N
Kind: experiment
Temperature: 195 K
Tabular data in the source: 0
pressure (bar)	uptake (cm3(STP)/g)
0.002781	7.42704
0.008342	10.2811
0.013904	12.5638
0.052834	16.5424
0.108449	19.369
0.161283	23.34
0.216898	25.5951
0.264171	38.712
0.269732	43.2804
0.272513	46.7074
0.303102	80.9763
0.322566	88.3942
0.325347	92.3927
0.378181	104.935
0.431017	108.335
0.483851	110.591
0.542246	113.416
0.595081	115.673
0.650695	117.357
0.70353	120.185
0.756364	121.299
0.811979	122.982
0.864813	124.668
0.917647	126.353
0.973262	128.037
