Adsorption isotherm of Carbon Dioxide on [Zn2(BME-bdc)x(DB-bdc)2-xdabco]
DOI: 10.1016/j.micromeso.2015.02.042
Article source: Figure 3
Adsorbate Carbon Dioxide: InChIKey CURLTUGMZLYLDI-UHFFFAOYSA-N
Kind: experiment
Temperature: 195 K
Tabular data in the source: 0
pressure (bar)	uptake (cm3(STP)/g)
3.3e-05	1.86916
0.006394	2.99065
0.010642	4.11215
0.052957	6.35514
0.105829	7.85047
0.158708	9.71963
0.209473	11.5888
0.264465	13.4579
0.310988	14.5794
0.363853	15.7009
0.414625	17.9439
0.469617	19.8131
0.514205	31.028
0.527	37.3832
0.565312	52.3364
0.60612	88.972
0.621062	97.1963
0.62745	99.8131
0.682442	101.682
0.733212	103.925
0.786091	105.794
0.83685	107.29
0.8876	108.411
0.940493	111.028
