Adsorption isotherm of Carbon monoxide on UTSA-16
DOI: 10.1016/j.ces.2014.08.039
Article source: Figure 6c
Adsorbate Carbon monoxide: InChIKey UGFAIRIUMAVXCW-UHFFFAOYSA-N
Kind: experiment
Temperature: 313 K
Tabular data in the source: 0
pressure (bar)	uptake (mmol/g)
0.292683	0.045892
0.347561	0.055731
0.402439	0.065569
0.457317	0.072118
0.493902	0.078677
0.530488	0.085236
0.585366	0.091784
0.621951	0.098343
0.676829	0.111471
0.713415	0.11474
0.768293	0.121289
0.786585	0.127858
0.804878	0.131138
0.841463	0.137697
0.859756	0.140976
0.896341	0.147535
0.932927	0.150804
0.95122	0.160663
1.28049	0.213114
1.64634	0.268834
2.03049	0.331124
2.41463	0.386834
2.81707	0.435956
3.20122	0.491666
3.76829	0.563724
4.33537	0.629202
4.90244	0.694681
5.46951	0.760159
