Adsorption isotherm of Nitrogen on UTSA-16
DOI: 10.1016/j.ces.2014.08.039
Article source: Figure 6b
Adsorbate Nitrogen: InChIKey IJGRMHOSHXDMSA-UHFFFAOYSA-N
Kind: experiment
Temperature: 298 K
Tabular data in the source: 0
pressure (bar)	uptake (mmol/g)
0.56295	0.123278
2.98236	0.386104
3.17062	0.435421
3.72749	0.476463
4.10036	0.525754
4.65785	0.575019
5.21472	0.616062
5.77342	0.681774
6.70135	0.747437
7.44405	0.804901
8.00275	0.870614
8.92946	0.919829
9.67156	0.969069
10.5983	1.01828
12.4529	1.13316
14.4909	1.23157
16.5296	1.33819
18.1966	1.41198
20.0476	1.47752
22.0838	1.55125
23.9342	1.60856
25.9698	1.67407
27.8189	1.71494
29.6687	1.76403
31.5179	1.80489
33.5523	1.85395
35.4015	1.89482
37.4352	1.93566
39.2838	1.9683
41.317	2.00092
43.1656	2.03356
45.3833	2.06615
47.0473	2.09881
49.0805	2.13143
50.9278	2.14763
