Adsorption isotherm of Hydrogen on UTSA-16
DOI: 10.1016/j.ces.2014.08.039
Article source: Figure 6a
Adsorbate Hydrogen: InChIKey UFHFLCQGNIYNRP-UHFFFAOYSA-N
Kind: experiment
Temperature: 298 K
Tabular data in the source: 0
pressure (bar)	uptake (mmol/g)
6.06897	0.089701
7.72414	0.112957
8.55172	0.13289
10.2069	0.149502
13.2414	0.196013
15.7241	0.229236
18.2069	0.262458
20.6897	0.295681
22.8966	0.322259
28.4138	0.392027
30.069	0.415282
31.4483	0.435216
37.5172	0.511628
38.3448	0.518272
44.1379	0.584718
44.6897	0.581395
50.7586	0.647841
57.3793	0.72093
62.8966	0.780731
68.6897	0.830565
75.3103	0.887043
80.5517	0.923588
