Adsorption isotherm of Carbon Dioxide on BPL Carbon
DOI: 10.1016/j.ces.2014.08.039
Article source: Figure 6f
Adsorbate Carbon Dioxide: InChIKey CURLTUGMZLYLDI-UHFFFAOYSA-N
Kind: experiment
Temperature: 298 K
Tabular data in the source: 0
pressure (bar)	uptake (mol/l)
0.076453	0.185785
0.122324	0.278713
0.198777	0.464498
0.30581	0.627245
0.412844	0.813172
0.489297	0.975778
0.59633	1.13853
0.718654	1.25499
0.825688	1.41773
0.948012	1.55737
1.07034	1.67384
1.20795	1.83673
1.37615	1.99976
1.51376	2.11629
1.72783	2.27953
1.92661	2.44271
2.17125	2.60609
2.38532	2.76934
2.62997	2.90954
2.78287	2.97979
2.96636	3.07335
3.19572	3.16713
3.3945	3.28395
3.65443	3.40105
3.85321	3.4715
4.00612	3.54175
4.17431	3.61207
4.46483	3.70613
4.66361	3.77659
4.8318	3.87008
4.95413	3.91701
