Adsorption isotherm of Hydrogen on UTSA-16
DOI: 10.1016/j.ces.2014.08.039
Article source: Figure 6a
Adsorbate Hydrogen: InChIKey UFHFLCQGNIYNRP-UHFFFAOYSA-N
Kind: experiment
Temperature: 338 K
Tabular data in the source: 0
pressure (bar)	uptake (mmol/g)
3.31034	0.033223
4.13793	0.046512
4.96552	0.049834
5.7931	0.056478
8	0.076412
10.4828	0.106312
14.8966	0.152824
19.3103	0.192691
23.4483	0.232558
27.8621	0.275748
32.2759	0.312292
36.4138	0.355482
40.8276	0.388704
44.9655	0.428571
49.6552	0.468439
53.7931	0.504983
58.4828	0.534884
62.6207	0.574751
67.0345	0.607973
71.1724	0.641196
75.5862	0.671096
79.1724	0.700997
