Adsorption isotherm of Methane on UTSA-16
DOI: 10.1016/j.ces.2014.08.039
Article source: Figure 6d
Adsorbate Methane: InChIKey VNWKTOKETHGBQD-UHFFFAOYSA-N
Kind: experiment
Temperature: 298 K
Tabular data in the source: 0
pressure (bar)	uptake (mmol/g)
1.067	0.554632
1.25472	0.485356
1.25593	0.465554
1.43154	0.594296
1.79488	0.653762
3.4202	1.07977
3.59642	1.19861
4.50839	1.28787
4.87051	1.36714
6.51037	1.55553
7.96976	1.69438
10.3442	1.87299
14.0011	2.08152
18.3963	2.22086
22.2434	2.3205
26.0917	2.40035
29.9413	2.46039
33.9749	2.51056
38.1914	2.57066
42.0434	2.5911
45.7112	2.6214
49.9289	2.6617
