Adsorption isotherm of Carbon monoxide on UTSA-16
DOI: 10.1016/j.ces.2014.08.039
Article source: Figure 6c
Adsorbate Carbon monoxide: InChIKey UGFAIRIUMAVXCW-UHFFFAOYSA-N
Kind: experiment
Temperature: 338 K
Tabular data in the source: 0
pressure (bar)	uptake (mmol/g)
0.219512	0.019616
0.329268	0.032714
0.439024	0.045812
0.567073	0.062189
0.676829	0.071997
0.768293	0.081816
0.859756	0.091634
0.932927	0.101462
1.31707	0.140725
1.71951	0.183268
2.12195	0.222521
2.52439	0.258484
2.96341	0.297717
3.38415	0.33696
3.96951	0.389271
4.57317	0.438282
5.15854	0.484014
