Adsorption isotherm of Methane on UTSA-16
DOI: 10.1016/j.ces.2014.08.039
Article source: Figure 6d
Adsorbate Methane: InChIKey VNWKTOKETHGBQD-UHFFFAOYSA-N
Kind: experiment
Temperature: 338 K
Tabular data in the source: 0
pressure (bar)	uptake (mmol/g)
1.45092	0.277467
1.63077	0.336903
4.72578	0.733453
5.08851	0.80282
6.73079	0.951606
8.92049	1.14999
11.2961	1.30879
15.1372	1.50745
18.9806	1.6665
23.3764	1.79594
27.5917	1.87584
31.6235	1.95571
35.6571	2.00588
39.6902	2.06596
43.5409	2.10619
47.5739	2.16627
51.6094	2.18673
