Adsorption isotherm of Carbon monoxide on UTSA-16
DOI: 10.1016/j.ces.2014.08.039
Article source: Figure 6c
Adsorbate Carbon monoxide: InChIKey UGFAIRIUMAVXCW-UHFFFAOYSA-N
Kind: experiment
Temperature: 298 K
Tabular data in the source: 0
pressure (bar)	uptake (mmol/g)
0.072991	0.009828
0.218792	0.039354
0.291482	0.06563
0.382586	0.085317
0.455456	0.101724
0.528327	0.118131
0.601197	0.134539
0.637542	0.147677
0.710473	0.160795
0.765051	0.177212
0.819749	0.187051
0.874447	0.196889
0.910852	0.206737
1.2388	0.278926
1.60327	0.354384
1.94957	0.423273
2.31417	0.492152
2.66059	0.554462
3.04342	0.626621
3.59064	0.711847
4.13792	0.793784
4.66703	0.869152
5.21443	0.94451
