Adsorption isotherm of Hydrogen on UTSA-16
DOI: 10.1016/j.ces.2014.08.039
Article source: Figure 6a
Adsorbate Hydrogen: InChIKey UFHFLCQGNIYNRP-UHFFFAOYSA-N
Kind: experiment
Temperature: 313 K
Tabular data in the source: 0
pressure (bar)	uptake (mmol/g)
3.31034	0.039867
4.13793	0.053156
5.24138	0.066445
6.89655	0.089701
8.55172	0.10299
10.2069	0.119601
12.6897	0.152824
17.1034	0.209302
21.5172	0.252492
25.931	0.302326
30.3448	0.348837
35.0345	0.392027
39.1724	0.448505
43.5862	0.481728
47.7241	0.524917
52.1379	0.564784
56.5517	0.607973
60.4138	0.644518
64.8276	0.681063
68.4138	0.714286
71.7241	0.737542
76.1379	0.76412
80.2759	0.787375
84.1379	0.830565
