Adsorption isotherm of Carbon Dioxide on Zeolite 13X
DOI: 10.1016/j.ces.2014.08.039
Article source: Figure 6f
Adsorbate Carbon Dioxide: InChIKey CURLTUGMZLYLDI-UHFFFAOYSA-N
Kind: experiment
Temperature: 298 K
Tabular data in the source: 0
pressure (bar)	uptake (mol/l)
0	0
0.015291	0.231859
0.030581	1.83127
0.045872	2.2022
0.061162	2.57313
0.076453	2.82817
0.091743	3.03685
0.122324	3.26878
0.137615	3.50064
0.168196	3.77893
0.183486	3.94125
0.214067	4.10364
0.244648	4.28921
0.275229	4.42843
0.321101	4.61407
0.382263	4.77661
0.397554	4.86939
0.458716	4.98557
0.504587	5.12486
0.59633	5.26435
0.703364	5.38074
0.764526	5.45056
0.902141	5.5671
1.05505	5.6837
1.23853	5.80044
1.43731	5.8709
1.59021	5.91797
1.75841	5.96511
1.95719	5.98921
2.15596	6.03648
2.32416	6.08362
2.5841	6.13118
2.75229	6.15514
3.08869	6.17988
3.45566	6.20476
3.62385	6.22872
3.79205	6.2295
4.05199	6.30024
4.25076	6.30116
4.44954	6.30208
4.78593	6.32682
4.98471	6.32774
