Adsorption isotherm of Nitrogen on UTSA-16
DOI: 10.1016/j.ces.2014.08.039
Article source: Figure 6b
Adsorbate Nitrogen: InChIKey IJGRMHOSHXDMSA-UHFFFAOYSA-N
Kind: experiment
Temperature: 338 K
Tabular data in the source: 0
pressure (bar)	uptake (mmol/g)
0.372871	0.049291
0.927926	0.065662
1.48541	0.114928
2.22629	0.147721
4.26615	0.270797
4.82424	0.328286
7.04628	0.418442
9.45416	0.52502
11.4916	0.615201
15.3788	0.754471
19.079	0.860872
23.1483	0.967222
27.0319	1.05715
30.7296	1.13066
34.612	1.20414
38.4931	1.26117
42.3737	1.30998
46.2536	1.35057
49.9489	1.39118
54.1986	1.43994
