Adsorption isotherm of Nitrogen on UTSA-16
DOI: 10.1016/j.ces.2014.08.039
Article source: Figure 6b
Adsorbate Nitrogen: InChIKey IJGRMHOSHXDMSA-UHFFFAOYSA-N
Kind: experiment
Temperature: 313 K
Tabular data in the source: 0
pressure (bar)	uptake (mmol/g)
0.558092	0.057489
0.561128	0.098607
0.933391	0.139675
1.48966	0.172493
1.67731	0.213586
4.27465	0.385927
4.83396	0.459864
5.57666	0.517328
7.61834	0.665074
10.0274	0.788099
11.8821	0.902977
15.5865	1.06694
19.6583	1.20619
23.1751	1.32906
27.0598	1.43544
30.9428	1.51714
34.6405	1.59065
38.5229	1.66413
42.22	1.72941
46.2846	1.76997
49.9805	1.81881
