Adsorption isotherm of Carbon Dioxide on UTSA-16
DOI: 10.1016/j.ces.2014.08.039
Article source: Figure 6e
Adsorbate Carbon Dioxide: InChIKey CURLTUGMZLYLDI-UHFFFAOYSA-N
Kind: experiment
Temperature: 338 K
Tabular data in the source: 0
pressure (bar)	uptake (mmol/g)
0	-0.019867
0.152439	0.81463
0.457317	1.828
0.914634	2.06659
1.21951	2.34486
1.37195	2.60319
1.67683	2.74239
1.98171	2.92132
3.04878	3.21975
4.42073	3.45871
5.4878	3.57834
8.23171	3.77811
10.8232	3.91821
16.7683	4.07951
22.561	4.20102
28.2012	4.3026
33.9939	4.3645
39.6341	4.44621
