Adsorption isotherm of Carbon Dioxide on UTSA-16
DOI: 10.1016/j.ces.2014.08.039
Article source: Figure 6e
Adsorbate Carbon Dioxide: InChIKey CURLTUGMZLYLDI-UHFFFAOYSA-N
Kind: experiment
Temperature: 313 K
Tabular data in the source: 0
pressure (bar)	uptake (mmol/g)
0.290911	0.514851
0.30345	0.019802
0.398247	2.27723
0.409281	1.84158
0.419814	1.42574
0.430849	0.990099
0.833108	3.10891
0.847152	2.55446
0.991604	2.85149
1.13305	3.26733
1.73644	3.44554
2.03688	3.58416
3.09519	3.80198
4.45896	3.9604
5.82373	4.07921
8.55528	4.23762
11.2883	4.33663
16.9084	4.45545
22.6805	4.57426
28.1501	4.63366
33.7717	4.69307
39.5448	4.77228
