Adsorption isotherm of Methane on UTSA-16
DOI: 10.1016/j.ces.2014.08.039
Article source: Figure 6d
Adsorbate Methane: InChIKey VNWKTOKETHGBQD-UHFFFAOYSA-N
Kind: experiment
Temperature: 313 K
Tabular data in the source: 0
pressure (bar)	uptake (mmol/g)
1.2632	0.346743
1.44365	0.396278
1.80457	0.495347
1.80759	0.445843
3.6164	0.871884
4.16019	0.980885
4.7064	1.05028
5.43489	1.13951
6.70778	1.32784
8.89687	1.53612
11.2731	1.68503
15.1135	1.89358
19.3252	2.03289
23.3564	2.12267
27.2035	2.22231
31.2372	2.27248
35.0867	2.33252
38.9368	2.38266
42.9711	2.42293
47.1894	2.45333
51.0408	2.48367
