Adsorption isotherm of Carbon Dioxide on UTSA-16
DOI: 10.1016/j.ces.2014.08.039
Article source: Figure 6e
Adsorbate Carbon Dioxide: InChIKey CURLTUGMZLYLDI-UHFFFAOYSA-N
Kind: experiment
Temperature: 298 K
Tabular data in the source: 0
pressure (bar)	uptake (mmol/g)
0.152439	0.152439
0.304878	3.12871
0.457317	3.38614
0.914634	3.58416
1.06707	3.70297
1.52439	3.84158
1.98171	3.92079
2.59146	4.0396
3.65854	4.17822
4.57317	4.25743
5.4878	4.33663
7.46951	4.45545
9.29878	4.53465
11.2805	4.59406
15.0915	4.69307
19.0549	4.77228
22.7134	4.81188
26.5244	4.89109
30.1829	4.93069
33.8415	4.9703
37.5	5.0099
