Adsorption isotherm of Carbon Dioxide on UTSA-16
DOI: 10.1016/j.ces.2014.08.039
Article source: Figure 6f
Adsorbate Carbon Dioxide: InChIKey CURLTUGMZLYLDI-UHFFFAOYSA-N
Kind: experiment
Temperature: 298 K
Tabular data in the source: 0
pressure (bar)	uptake (mol/l)
0.015291	0.015291
0.030581	0.62597
0.045872	0.83465
0.061162	1.11287
0.091743	1.59976
0.107034	1.83162
0.122324	2.0403
0.152905	2.2027
0.168196	2.3882
0.198777	2.57377
0.214067	2.78245
0.229358	2.92159
0.275229	3.10724
0.30581	3.17691
0.366972	3.33945
0.397554	3.43231
0.428135	3.52516
0.489297	3.64134
0.550459	3.7807
0.626911	3.87377
0.703364	3.96684
0.810398	4.08323
0.948012	4.1534
1.11621	4.27008
1.29969	4.38682
1.46789	4.43396
1.66667	4.50442
1.81957	4.55148
2.01835	4.62194
2.20183	4.64597
2.4159	4.69332
2.56881	4.71721
2.84404	4.78802
3.07339	4.81226
3.42508	4.83707
3.70031	4.8847
3.94495	4.9322
4.14373	4.93312
4.38838	4.95743
4.66361	4.98188
4.81651	5.02895
4.96942	5.02966
