Adsorption isotherm of Benzene on Cu2L
DOI: 10.1002/chem.201403501
Adsorbate Benzene: InChIKey UHOVQNZJYSORNB-UHFFFAOYSA-N
Temperature: 298 K
Tabular data in the source: 0
pressure (bar)	uptake (mg/g)
0.00030802	-0.638601
0.000808552	32.0737
0.000840637	22.6322
0.00198288	46.514
0.00457966	92.3802
0.00693258	120.002
0.00963417	135.026
0.0144791	149.356
0.0193474	156.763
0.0294138	164.643
0.0391913	167.497
0.0495805	170.332
0.0593643	171.298
0.0688381	173.531
0.0786242	173.868
0.0890199	174.815
0.0997236	175.123
