Adsorption isotherm of Water on Cu2L
DOI: 10.1002/chem.201403501
Adsorbate Water: InChIKey XLYOFNOQVPJJNP-UHFFFAOYSA-N
Temperature: 298 K
Tabular data in the source: 0
pressure (bar)	uptake (mg/g)
0.00396991	-5.51214
0.00594956	-1.97386
0.00800703	-0.33305
0.00983735	-0.553047
0.0118954	0.458326
0.0138014	0.858598
0.0157832	1.87914
0.0176903	1.02054
0.01952	1.42998
0.0215786	1.81192
0.0237145	0.925819
0.0256968	1.31692
0.0276028	1.7172
