Adsorption isotherm of Nitrogen on Cu2L
DOI: 10.1002/chem.201403501
Adsorbate Nitrogen: InChIKey IJGRMHOSHXDMSA-UHFFFAOYSA-N
Temperature: 77 K
Tabular data in the source: 0
pressure (bar)	uptake (mmol/g)
-0.00234101	3.1875
2.69651e-17	3.1875
2.69651e-17	4.65625
0.00234101	4.40625
0.00234101	4.65625
0.00468203	6.3125
0.00702304	6.5625
0.0117051	6.84375
0.0421382	7.5
0.0632073	7.71875
0.0936404	7.96875
0.119392	8.125
0.145143	8.21875
0.173235	8.34375
0.203668	8.46875
0.22942	8.53125
0.259852	8.625
0.280922	8.6875
0.306673	8.78125
0.337106	8.78125
0.36988	8.875
0.397972	8.90625
0.419041	9.03125
0.444792	9.0625
0.472884	9.0625
0.500977	9.09375
0.526728	9.15625
0.550138	9.1875
0.580571	9.1875
0.611004	9.21875
0.634414	9.25
0.662507	9.25
0.685916	9.28125
0.709326	9.28125
0.746783	9.3125
0.772534	9.3125
0.798285	9.3125
0.828718	9.375
0.854469	9.40625
0.88022	9.40625
0.905972	9.4375
0.931723	9.4375
0.964497	9.53125
