Adsorption isotherm of N-Hexane on Cu2L
DOI: 10.1002/chem.201403501
Adsorbate N-Hexane: InChIKey VLKZOEOYAKHREP-UHFFFAOYSA-N
Temperature: 298 K
Tabular data in the source: 0
pressure (bar)	uptake (mg/g)
0.000473345	2.50857
0.000878584	17.6058
0.00127701	33.962
0.00162436	59.7596
0.00387189	94.3327
0.00622842	108.764
0.0100935	114.355
0.0139722	117.429
0.0188317	119.226
0.0236842	122.281
0.0285438	124.078
0.0392265	129.541
0.0591547	136.089
0.0790997	139.49
0.0975944	141.03
0.118524	142.524
0.148705	143.844
