Adsorption isotherm of Hydrogen on Cr-MIL(101)
DOI: 10.1016/j.ijhydene.2011.03.102
Adsorbate Hydrogen: InChIKey UFHFLCQGNIYNRP-UHFFFAOYSA-N
Temperature: 77 K
Tabular data in the source: 0
pressure (bar)	uptake (wt%)
0.00667087	0.256382
0.0343699	0.407553
0.0620513	0.5738
0.0828168	0.694716
0.12447	0.831022
0.16264	0.967276
0.204311	1.08851
0.259919	1.20995
0.305057	1.34631
0.350229	1.45252
0.405855	1.55888
0.468484	1.6352
0.517159	1.72639
0.569335	1.80255
0.614543	1.87861
0.663235	1.95472
0.718896	2.03094
0.76757	2.12212
0.816315	2.15301
0.868474	2.24425
0.913716	2.29016
0.955493	2.32094
1.00767	2.3971
