Adsorption isotherm of Nitrogen on Li-MIL-101(Cr)
DOI: 10.1016/j.ijhydene.2011.03.102
Adsorbate Nitrogen: InChIKey IJGRMHOSHXDMSA-UHFFFAOYSA-N
Temperature: 77 K
Tabular data in the source: 0
pressure (bar)	uptake (cm3(STP)/g)
0.00640359	253.778
0.0312293	333.203
0.0526167	365.032
0.0811174	412.758
0.0954072	423.405
0.123924	465.845
0.156021	508.303
0.184632	519.025
0.206066	534.996
0.2525	572.242
0.320495	583.17
0.370604	588.718
0.420713	594.265
0.553154	605.529
0.603278	605.791
0.674869	611.45
0.828823	612.254
0.85387	617.671
0.878901	628.374
0.911108	633.828
0.939719	644.55
0.957558	665.789
0.986058	713.515
0.99303	776.987
1.00697	903.932
1.00713	851.069
