Adsorption isotherm of Hydrogen on CuBTC
DOI: 10.1016/j.ijhydene.2011.03.102
Adsorbate Hydrogen: InChIKey UFHFLCQGNIYNRP-UHFFFAOYSA-N
Temperature: 77 K
Tabular data in the source: 0
pressure (bar)	uptake (wt%)
0.00363636	0.157564
0.0109091	0.350191
0.0327273	0.438073
0.0472727	0.630827
0.0872727	0.859027
0.123636	1.03466
0.167273	1.19293
0.221818	1.36888
0.272727	1.49227
0.309091	1.58041
0.363636	1.66886
0.414545	1.77475
0.465455	1.86315
0.530909	1.93429
0.581818	2.00518
0.625455	2.05845
0.676364	2.14684
0.727273	2.16523
0.770909	2.23599
0.836364	2.27214
0.887273	2.34303
0.927273	2.34373
0.981818	2.43218
1.01091	2.46769
