Adsorption isotherm of Hydrogen on Li-CuBTC
DOI: 10.1016/j.ijhydene.2011.03.102
Adsorbate Hydrogen: InChIKey UFHFLCQGNIYNRP-UHFFFAOYSA-N
Temperature: 77 K
Tabular data in the source: 0
pressure (bar)	uptake (wt%)
0.00727273	0.577627
0.0254545	0.822945
0.0327273	1.10307
0.0581818	1.34852
0.08	1.5064
0.116364	1.73454
0.156364	1.91024
0.203636	2.10356
0.258182	2.26202
0.301818	2.38528
0.349091	2.54361
0.403636	2.66706
0.469091	2.75571
0.512727	2.84397
0.570909	2.96749
0.621818	3.03838
0.665455	3.14415
0.709091	3.17991
0.767273	3.23343
0.814545	3.30425
0.872727	3.35777
0.92	3.4461
0.963636	3.48186
1.00364	3.53506
