Adsorption isotherm of Hydrogen on Li-MIL-101(Cr)
DOI: 10.1016/j.ijhydene.2011.03.102
Adsorbate Hydrogen: InChIKey UFHFLCQGNIYNRP-UHFFFAOYSA-N
Temperature: 77 K
Tabular data in the source: 0
pressure (bar)	uptake (wt%)
0.00668838	0.241307
0.0203453	0.482719
0.030623	0.633627
0.0513534	0.784694
0.0685996	0.935708
0.0823966	1.05652
0.110061	1.23784
0.134275	1.38896
0.162027	1.4949
0.186277	1.61587
0.21746	1.7671
0.252145	1.9033
0.304216	2.06991
0.332003	2.14571
0.397976	2.34268
0.460518	2.49438
0.509175	2.60064
0.564783	2.72208
0.609973	2.81322
0.65863	2.91948
0.717775	2.99575
0.766485	3.05678
0.815142	3.16304
0.8569	3.2089
0.902143	3.25481
0.957769	3.36117
1.00303	3.39201
