Adsorption isotherm of Nitrogen on Cr-MIL(101)
DOI: 10.1016/j.ijhydene.2011.03.102
Adsorbate Nitrogen: InChIKey IJGRMHOSHXDMSA-UHFFFAOYSA-N
Temperature: 77 K
Tabular data in the source: 0
pressure (bar)	uptake (cm3(STP)/g)
0.00345415	42.3088
0.00652977	211.488
0.00979466	317.232
0.0310716	386.065
0.0452352	439.003
0.0880257	497.376
0.0915272	523.826
0.116511	550.388
0.134318	582.199
0.16632	656.374
0.177014	672.289
0.209189	688.316
0.24116	773.064
0.327025	794.658
0.369973	800.168
0.420082	805.716
0.799487	844.7
0.83529	844.887
0.863917	850.322
0.885383	855.721
0.906849	861.119
0.931896	866.536
0.956879	893.098
0.981721	967.236
0.992304	1020.16
0.999102	1141.78
0.999276	1083.63
