Adsorption isotherm of Nitrogen on IRMOF-1
DOI: 10.1002/ejic.201201009
Adsorbate Nitrogen: InChIKey IJGRMHOSHXDMSA-UHFFFAOYSA-N
Temperature: 77 K
Tabular data in the source: 0
pressure (bar)	uptake (cm3(STP)/g)
0.00229475	10.6379
0.00229475	72.7061
0.00372489	129.769
0.00515504	180.825
0.00658518	283.938
0.00944547	384.048
0.0280373	435.104
0.100975	469.142
0.15961	479.153
0.35554	504.18
0.45708	511.188
0.55147	517.195
0.65301	523.201
0.741679	528.207
0.826057	537.217
0.876112	545.225
0.924737	562.244
0.966211	606.292
0.986233	678.372
