Adsorption isotherm of Nitrogen on IRMOF-1
DOI: 10.1002/ejic.201201009
Adsorbate Nitrogen: InChIKey IJGRMHOSHXDMSA-UHFFFAOYSA-N
Temperature: 77 K
Tabular data in the source: 0
pressure (bar)	uptake (cm3(STP)/g)
0.00229475	41.672
0.00372489	92.7281
0.0108756	144.785
0.0595005	157.8
0.120997	160.803
0.198224	165.808
0.299764	166.81
0.401305	164.807
0.504275	166.81
0.620117	163.806
0.760271	166.81
0.838928	165.808
0.95048	164.807
0.993384	174.818
