Adsorption isotherm of Nitrogen on MIL-53(Al)
DOI: 10.1016/j.matlet.2012.02.056
Adsorbate Nitrogen: InChIKey IJGRMHOSHXDMSA-UHFFFAOYSA-N
Temperature: 77 K
Tabular data in the source: 0
pressure (bar)	uptake (cm3(STP)/g)
0.0424863	38.7417
0.0793078	43.2119
0.116129	46.1921
0.155783	49.1722
0.192605	53.6424
0.232258	56.6225
0.271912	62.5828
0.303069	65.5629
0.345555	68.543
0.382377	74.5033
0.422031	78.9735
0.478679	86.4238
0.507003	92.3841
0.540992	98.3444
0.580646	104.305
0.6203	110.265
0.654289	120.695
0.699608	134.106
0.736429	147.517
0.773251	163.907
0.812904	189.238
0.849726	220.53
0.892212	265.232
0.929034	329.305
0.954525	411.258
