Adsorption isotherm of Water on C12H12N4O4
DOI: 10.1039/c4ce02519a
Article source: Figure 5
Adsorbate Water: InChIKey XLYOFNOQVPJJNP-UHFFFAOYSA-N
Kind: experiment
Temperature: 323 K
Tabular data in the source: 0
pressure (bar)	uptake (mol/mol)
0.003059	0.00347
0.019913	0.00423
0.036556	0.00334
0.062248	0.00576
0.090771	0.01076
0.098591	1.0152
0.101364	1.04811
0.105132	0.0135
0.107783	1.06747
0.110555	1.09747
0.111664	1.1236
0.111827	0.01931
0.112259	1.1478
0.112733	1.19135
0.112932	1.24168
0.112971	1.28232
0.113328	1.32878
0.113525	1.3704
0.113763	1.41298
0.113925	0.60194
0.113964	0.66001
0.114046	0.02705
0.114119	1.46041
0.114163	0.28647
0.114164	0.29901
0.114241	0.75679
0.114282	0.35805
0.114356	0.86073
0.114356	0.8576
0.114356	0.85467
0.114359	0.8197
0.11444	0.49258
0.11444	0.43644
0.114554	1.65591
0.114673	1.69656
0.114712	1.83205
0.114712	1.83289
0.114712	1.83359
0.114795	0.87584
0.11487	1.87657
0.115027	2.10304
0.115028	2.10359
0.115072	0.92713
0.115146	2.20079
0.115147	2.22405
0.115186	2.06336
0.115226	2.15531
0.115227	1.91916
0.115273	0.22352
0.115384	2.2366
0.115551	0.13351
0.11562	2.28306
0.115705	1.1207
0.115745	0.97843
0.115819	2.38662
0.115819	2.3905
0.115858	2.4263
0.115977	2.49308
0.115982	2.42119
0.116026	0.08512
0.116062	1.05682
0.116295	2.14369
0.116303	2.05211
0.116336	1.74591
0.116457	1.29781
0.116495	1.38678
0.116496	1.38782
0.116534	1.57427
0.116535	1.58332
0.116572	2.33339
0.116572	2.3421
0.116573	2.35336
0.116573	2.35775
0.116611	2.28209
0.116612	2.27192
0.11665	2.36823
0.11673	2.42727
0.116773	1.48073
0.116967	2.49501
0.117204	2.52792
