Adsorption isotherm of Methylene blue, Water on Fe3O4 beads
DOI: 10.1177/0263617416667508
Article source: Figure 4
Adsorbate Methylene blue: InChIKey CXKWCBBOMKCUKX-UHFFFAOYSA-M
Adsorbate Water: InChIKey XLYOFNOQVPJJNP-UHFFFAOYSA-N
Kind: experiment
Temperature: 293 K
Tabular data in the source: 0
pressure (bar)	Methylene blue fraction	Methylene blue uptake (mg/g)	Water fraction	Water uptake (mg/g)	total uptake (mg/g)
1.01325	5.459	2.8692			
1.01325	8.684	4.14643			
1.01325	14.13	7.14105			
1.01325	24.919	14.9776			
1.01325	70.316	25.8804			
1.01325	105.808	38.7198			
