Adsorption isotherm of Nitrogen on Carbon
DOI: 10.1016/j.carbon.2012.09.017
Adsorbate Nitrogen: InChIKey IJGRMHOSHXDMSA-UHFFFAOYSA-N
Temperature: 74 K
Tabular data in the source: 0
pressure (bar)	uptake (micromoles/m2)
0.0042879	10.3125
0.0527814	11.25
0.0679383	11.4375
0.0891645	11.4375
0.104317	11.8125
0.122496	12.375
0.137639	13.125
0.15734	13.5
0.170961	14.4375
0.189132	15.375
0.205781	16.5
0.223942	17.8125
0.245149	18.5625
0.267873	19.3125
0.284531	20.0625
0.3012	20.4375
0.319375	21.1875
0.33908	21.375
0.354228	21.9375
0.372403	22.6875
0.389066	23.25
0.408757	24
0.426932	24.75
0.443586	25.6875
0.461752	26.8125
0.479913	28.125
0.49959	29.4375
0.516229	30.9375
0.532879	32.0625
0.551035	33.5625
0.567665	35.4375
0.585788	38.25
0.603897	41.625
0.620451	46.5
0.632391	54
