Adsorption isotherm of Nitrogen on Carbon
DOI: 10.1016/j.carbon.2012.09.017
Adsorbate Nitrogen: InChIKey IJGRMHOSHXDMSA-UHFFFAOYSA-N
Temperature: 77 K
Tabular data in the source: 0
pressure (bar)	uptake (micromoles/m2)
0.0686039	10.566
0.0863082	10.7547
0.104012	11.1321
0.128356	11.3208
0.154912	11.3208
0.179255	11.8868
0.205812	12.4528
0.232368	13.2075
0.256711	13.9623
0.285481	14.9057
0.31425	15.8491
0.338594	16.7925
0.367363	17.5472
0.391706	18.3019
0.418263	19.0566
0.451458	19.6226
0.473588	20
0.502358	20.7547
0.526701	21.3208
0.55547	21.6981
0.575388	22.4528
0.60637	23.0189
0.632926	23.7736
0.65727	24.717
0.686039	25.6604
0.714809	26.7925
0.739152	28.1132
0.767921	29.434
0.794478	30.7547
0.849803	34.3396
0.87636	36.7925
0.89849	40.1887
0.922833	45.4717
0.947177	55.6604
