Adsorption isotherm of Nitrogen on Carbon
DOI: 10.1016/j.carbon.2012.09.017
Adsorbate Nitrogen: InChIKey IJGRMHOSHXDMSA-UHFFFAOYSA-N
Temperature: 70 K
Tabular data in the source: 0
pressure (bar)	uptake (micromoles/m2)
0.0851256	12.75
0.0956605	14.0625
0.101809	14.625
0.113218	16.3125
0.126388	17.8125
0.13517	18.75
0.150987	19.6875
0.179107	21.375
0.195812	21.75
0.221298	23.0625
0.238869	24.375
0.251169	25.3125
0.260824	26.625
0.269603	27.75
0.282771	29.4375
0.294182	30.9375
0.310866	32.8125
0.319641	34.125
0.328415	35.625
0.341563	38.625
0.350317	41.4375
0.357331	42.9375
0.366063	47.25
0.371282	51.1875
0.373891	53.25
