Adsorption isotherm of Nitrogen on Carbon
DOI: 10.1016/j.carbon.2012.09.017
Adsorbate Nitrogen: InChIKey IJGRMHOSHXDMSA-UHFFFAOYSA-N
Temperature: 77 K
Tabular data in the source: 0
pressure (bar)	uptake (micromoles/m2)
0.00737863	9.78885
0.0368932	10.8591
0.0737863	11.5055
0.100841	11.937
0.142654	13.2227
0.177087	14.7196
0.211521	16.2165
0.243495	17.5001
0.285307	18.7859
0.327119	19.4333
0.349255	20.0765
0.391068	20.9367
0.43042	21.3709
0.459935	22.4412
0.501747	23.0886
0.5411	24.1611
0.570614	25.4441
0.605048	26.5155
0.639482	27.7996
0.676375	29.5098
0.710808	31.0067
0.742782	32.2903
0.774756	33.7867
0.801811	35.282
0.823947	37.6273
0.853462	39.7614
0.868219	41.254
