Adsorption isotherm of Nitrogen on Carbon
DOI: 10.1016/j.carbon.2012.09.017
Adsorbate Nitrogen: InChIKey IJGRMHOSHXDMSA-UHFFFAOYSA-N
Temperature: 65 K
Tabular data in the source: 0
pressure (bar)	uptake (micromoles/m2)
0.018263	11.0625
0.0229419	11.4375
0.0276207	11.8125
0.0408721	13.6875
0.0467115	15.5625
0.0506028	17.0625
0.0552755	18.375
0.0618988	19.6875
0.0638481	19.875
0.0693071	20.25
0.073986	20.625
0.0794438	21.1875
0.0841226	21.5625
0.0880225	21.75
0.0930914	22.125
0.102057	23.25
0.106732	24.1875
0.111019	24.75
0.115691	26.25
0.121138	28.5
0.1262	29.8125
0.129315	30.75
0.135159	31.875
0.139054	32.8125
0.14373	33.75
0.1484	35.4375
0.153845	37.875
0.157732	40.125
0.163171	43.5
0.166659	47.0625
0.170909	53.4375
