Adsorption isotherm of Nitrogen on Carbon
DOI: 10.1016/j.carbon.2012.09.017
Adsorbate Nitrogen: InChIKey IJGRMHOSHXDMSA-UHFFFAOYSA-N
Temperature: 65 K
Tabular data in the source: 0
pressure (bar)	uptake (micromoles/m2)
0.000967961	10.8115
0.00852025	11.4384
0.0200699	12.2724
0.0249646	13.7505
0.0276473	16.2914
0.0289933	18.1979
0.0334472	20.1006
0.0401147	21.1525
0.0472199	21.3559
0.0543297	22.1953
0.0601046	22.6123
0.0654417	23.8779
0.0698846	24.2965
0.0747746	25.1386
0.0783311	25.7703
0.0818876	26.402
0.0858944	27.8812
0.0903435	29.1479
0.0925728	30.4173
0.0956963	32.5336
0.101026	32.7391
0.103694	33.3719
0.109027	34.0015
0.114364	35.267
0.117916	35.2627
0.122368	36.9534
0.125035	37.3742
0.127702	37.795
0.130378	39.4878
0.133059	41.8167
0.13529	43.2981
0.138398	43.2943
0.141518	44.9866
0.144192	46.2554
0.146856	46.2522
0.149977	48.1565
0.153104	50.6969
0.1571	50.692
0.161549	51.9587
