Adsorption isotherm of Nitrogen on Carbon
DOI: 10.1016/j.carbon.2012.09.017
Adsorbate Nitrogen: InChIKey IJGRMHOSHXDMSA-UHFFFAOYSA-N
Temperature: 60 K
Tabular data in the source: 0
pressure (bar)	uptake (micromoles/m2)
0.0116249	12.75
0.013756	13.125
0.015459	14.25
0.0219839	19.875
0.023972	20.625
0.0278078	21.375
0.031502	21.9375
0.0387456	24.1875
0.0431478	25.875
0.0454161	28.3125
0.0468339	29.8125
0.0498152	31.3125
0.0513778	31.6875
0.0529386	32.8125
0.0543587	33.375
0.0566302	34.5
0.0574799	35.8125
0.058895	38.4375
0.0600267	40.6875
0.060876	42.1875
