Adsorption isotherm of Nitrogen on Carbon
DOI: 10.1016/j.carbon.2012.09.017
Adsorbate Nitrogen: InChIKey IJGRMHOSHXDMSA-UHFFFAOYSA-N
Temperature: 80 K
Tabular data in the source: 0
pressure (bar)	uptake (micromoles/m2)
-0.000144175	2.8125
0.00267204	7.875
0.00281622	5.0625
0.0118512	8.8125
0.0302287	10.3125
0.0640521	10.5
0.104027	10.6875
0.134775	10.875
0.156295	11.0625
0.180891	11.25
0.214715	11.4375
0.236226	11.8125
0.260832	11.8125
0.288494	12.1875
0.319203	13.125
0.34379	13.5
0.371442	14.0625
0.399095	14.625
0.426738	15.375
0.451315	15.9375
0.48512	16.5
0.50663	16.875
0.534283	17.4375
0.561946	17.8125
0.586523	18.375
0.6111	18.9375
0.638772	19.125
0.666434	19.5
0.694087	20.0625
0.721759	20.25
0.743269	20.625
0.774008	21
0.798585	21.5625
0.826247	21.9375
0.850824	22.5
0.884618	23.25
0.906129	23.625
0.933773	24.375
0.964491	25.125
