Adsorption isotherm of Nitrogen on Carbon
DOI: 10.1016/j.carbon.2012.09.017
Adsorbate Nitrogen: InChIKey IJGRMHOSHXDMSA-UHFFFAOYSA-N
Temperature: 77 K
Tabular data in the source: 0
pressure (bar)	uptake (micromoles/m2)
0.140759	11.4375
0.188527	11.8125
0.21239	12.5625
0.255781	13.875
0.273115	15
0.301323	15.75
0.331688	16.875
0.353387	17.4375
0.383766	18.1875
0.411967	19.125
0.438016	19.5
0.470574	20.0625
0.492272	20.625
0.520487	21.1875
0.553038	21.9375
0.581245	22.6875
0.637653	24.375
0.672356	25.6875
0.694041	26.625
0.717891	27.75
0.739576	28.6875
0.774258	30.5625
0.795923	32.0625
0.821918	33.9375
0.843562	36
0.865179	38.8125
0.882466	41.25
0.888887	43.875
0.899678	45.75
0.903961	47.4375
0.908203	50.25
0.912472	52.3125
0.918872	55.5
