Adsorption isotherm of Nitrogen on Carbon
DOI: 10.1016/j.carbon.2012.09.017
Adsorbate Nitrogen: InChIKey IJGRMHOSHXDMSA-UHFFFAOYSA-N
Temperature: 70 K
Tabular data in the source: 0
pressure (bar)	uptake (micromoles/m2)
0	5.9364
0.00294987	10.5991
0.0157327	10.8041
0.0285154	11.0091
0.0403149	11.2146
0.0501478	11.6332
0.060964	12.0513
0.0707969	12.4699
0.0806298	13.1005
0.0894795	13.7317
0.0983291	14.5749
0.108162	15.6296
0.131761	18.5848
0.147494	19.8482
0.166176	20.686
0.176009	21.1046
0.187809	21.7342
0.196658	22.1533
0.208458	22.7829
0.219274	23.2009
0.229107	23.8316
0.237956	24.6748
0.249756	25.5163
0.259589	26.783
0.271388	28.0486
0.280238	29.3158
0.292037	30.7934
0.300887	32.0606
0.311703	33.3268
0.322519	35.0169
0.332352	36.9197
0.343168	39.8819
0.353001	43.0567
0.362834	47.2916
0.369717	53.4362
