Adsorption isotherm of Nitrogen on Carbon
DOI: 10.1016/j.carbon.2012.09.017
Adsorbate Nitrogen: InChIKey IJGRMHOSHXDMSA-UHFFFAOYSA-N
Temperature: 70 K
Tabular data in the source: 0
pressure (bar)	uptake (micromoles/m2)
0	0
0.000983291	9.96412
0.00884962	10.8079
0.0167159	11.2276
0.0363818	11.8528
0.0511311	13.5408
0.0619473	14.5949
0.0737468	16.4965
0.0865296	18.3976
0.103246	19.6605
0.127828	20.4951
0.148477	21.3318
0.169126	22.5925
0.183875	22.7964
0.195675	24.274
0.202558	25.1183
0.212391	25.3249
0.220257	26.5926
0.229107	27.4358
0.236973	28.2795
0.246806	29.9703
0.254672	30.39
0.269422	31.0179
0.281221	31.6474
0.286138	33.7649
0.288104	34.8239
0.294004	35.6687
0.30187	35.8764
0.30777	35.6611
0.314653	37.1414
0.317603	37.9878
