Adsorption isotherm of Nitrogen on Carbon
DOI: 10.1016/j.carbon.2012.09.017
Adsorbate Nitrogen: InChIKey IJGRMHOSHXDMSA-UHFFFAOYSA-N
Temperature: 65 K
Tabular data in the source: 0
pressure (bar)	uptake (micromoles/m2)
0.000520848	10.3881
0.00274229	10.5974
0.00718205	10.592
0.0125145	11.2215
0.0182893	11.6385
0.0231746	11.8446
0.0271719	12.0517
0.0325028	12.4692
0.0365033	13.1004
0.0405022	13.5196
0.0471775	15.6316
0.0511843	17.1108
0.0556366	18.8015
0.0623025	19.6414
0.0645239	19.8507
0.0694092	20.0568
0.0747432	20.8983
0.0796285	21.1044
0.084517	21.7345
0.0933996	22.1477
0.0978441	22.7783
0.103176	23.4079
0.108065	24.038
0.112511	24.8806
0.116516	26.1478
0.122747	28.2604
0.127642	29.7385
0.1312	30.5822
0.136983	32.0593
0.140092	32.2675
0.144542	33.5342
0.148995	35.4369
0.154783	37.55
0.159241	40.0887
0.164594	43.4744
0.168171	46.8623
0.172659	53.4292
