Adsorption isotherm of Nitrogen on Carbon
DOI: 10.1016/j.carbon.2012.09.017
Adsorbate Nitrogen: InChIKey IJGRMHOSHXDMSA-UHFFFAOYSA-N
Temperature: 77 K
Tabular data in the source: 0
pressure (bar)	uptake (micromoles/m2)
0	2.12766
0.00245954	7.02182
0.00737863	9.36332
0.0196764	10.4298
0.0491909	10.4363
0.0762459	10.8678
0.10576	10.8742
0.125437	11.3041
0.15987	11.5244
0.182006	11.9548
0.201683	12.3846
0.233657	13.2427
0.260712	14.0996
0.285307	14.9561
0.312362	16.0259
0.339417	16.8828
0.368932	17.7404
0.393527	18.5968
0.420582	19.241
0.452556	19.6736
0.474692	20.3167
0.501747	20.7482
0.526342	21.1791
0.553397	21.8233
0.577993	22.467
0.605048	23.324
0.634562	24.1815
0.661617	25.0385
0.686213	25.895
0.713268	27.1775
0.740323	28.2472
0.764918	29.5292
0.789514	31.024
0.819028	32.7326
0.846083	34.6534
0.868219	36.9987
0.895274	40.6216
0.922329	45.9467
0.944465	56.1643
