Adsorption isotherm of Nitrogen on Carbon
DOI: 10.1016/j.carbon.2012.09.017
Adsorbate Nitrogen: InChIKey IJGRMHOSHXDMSA-UHFFFAOYSA-N
Temperature: 77 K
Tabular data in the source: 0
pressure (bar)	uptake (micromoles/m2)
0.00442606	10
0.0221303	10.566
0.0486867	10.9434
0.077456	11.1321
0.14606	12.2642
0.190321	13.0189
0.216877	13.3962
0.400558	19.6226
0.475801	20.566
0.508997	21.5094
0.56211	22.6415
0.58424	23.3962
0.608583	23.5849
0.632926	24.717
0.659483	25.8491
0.6794	26.2264
0.705956	27.9245
0.7303	28.1132
0.75243	29.2453
0.805543	31.6981
0.827673	32.8302
0.852016	36.0377
0.878573	36.0377
0.900703	38.3019
0.925046	39.2453
0.94939	42.8302
