Adsorption isotherm of Nitrogen on Carbon
DOI: 10.1016/j.carbon.2012.09.017
Adsorbate Nitrogen: InChIKey IJGRMHOSHXDMSA-UHFFFAOYSA-N
Temperature: 77 K
Tabular data in the source: 0
pressure (bar)	uptake (micromoles/m2)
0.00491909	10.2138
0.0319741	11.2836
0.05411	11.714
0.081165	11.9327
0.103301	12.5758
0.135275	13.0083
0.164789	14.9297
0.191844	16.6378
0.21398	17.7064
0.243495	18.7767
0.26809	19.6332
0.295145	20.0646
0.314822	20.4945
0.332038	20.9238
0.346796	21.1398
0.366472	21.5696
0.386148	22.2122
0.413203	22.6437
0.43288	23.0735
0.467313	23.5066
0.499287	24.5774
0.523883	25.6466
0.546019	26.7153
0.558317	27.7818
0.577993	27.9989
0.597669	29.4926
0.627184	30.1374
0.64686	31.2055
0.676375	31.8503
0.70097	32.4939
0.710808	33.7727
0.720646	34.4131
0.732944	35.4797
0.747701	35.4829
0.767378	35.4872
0.784595	37.1931
0.799352	39.324
0.826407	41.6703
0.853462	43.1656
0.878057	44.6604
0.897734	47.2179
0.91495	48.4982
0.939546	49.5675
