Adsorption isotherm of Nitrogen on Carbon
DOI: 10.1016/j.carbon.2012.09.017
Adsorbate Nitrogen: InChIKey IJGRMHOSHXDMSA-UHFFFAOYSA-N
Temperature: 77 K
Tabular data in the source: 0
pressure (bar)	uptake (micromoles/m2)
0	0
0.00221303	9.0566
0.0177042	10
0.0442606	10.3774
0.075243	10.7547
0.0973733	11.1321
0.121717	11.6981
0.143847	12.0755
0.165977	12.4528
0.192534	13.5849
0.216877	14.1509
0.24122	15.0943
0.265564	15.8491
0.29212	16.7925
0.316463	17.5472
0.338594	18.4906
0.362937	18.8679
0.38728	19.6226
0.413837	20
0.43818	20.1887
0.462523	20.7547
0.484653	21.3208
0.508997	21.8868
0.53334	22.4528
0.557683	23.3962
0.58424	24.1509
0.60637	24.9057
0.632926	26.0377
0.65727	26.7925
0.677187	27.7358
0.708169	28.8679
0.7303	30
0.754643	31.3208
0.778986	31.3208
0.801117	34.1509
0.827673	34.9057
0.849803	38.1132
0.878573	40.9434
