Adsorption isotherm of Nitrogen on Carbon
DOI: 10.1016/j.carbon.2012.09.017
Adsorbate Nitrogen: InChIKey IJGRMHOSHXDMSA-UHFFFAOYSA-N
Temperature: 70 K
Tabular data in the source: 0
pressure (bar)	uptake (micromoles/m2)
0.0147494	11.2286
0.0403149	12.0626
0.0511311	12.9047
0.0629306	13.9583
0.0698136	15.8627
0.07768	18.1905
0.0875129	19.2452
0.100296	19.8742
0.110129	20.5048
0.121928	20.9223
0.134711	21.5513
0.144544	21.97
0.154377	22.3886
0.165193	23.0187
0.176009	23.8608
0.187809	25.1264
0.196658	26.3936
0.210424	27.8701
0.219274	29.9854
0.23009	30.8275
0.239923	31.2461
0.250739	31.6642
0.263522	32.9293
0.275321	34.1949
0.285154	35.0375
0.296954	36.5151
0.302854	38.208
0.31367	40.3222
0.321536	42.65
0.330386	44.5533
0.338252	47.0931
0.348085	49.6319
0.355951	51.9597
0.365784	53.8624
