Adsorption isotherm of Nitrogen on Carbon
DOI: 10.1016/j.carbon.2012.09.017
Adsorbate Nitrogen: InChIKey IJGRMHOSHXDMSA-UHFFFAOYSA-N
Temperature: 65 K
Tabular data in the source: 0
pressure (bar)	uptake (micromoles/m2)
4.71e-05	6.36037
7.37e-05	9.96457
0.00363495	11.2323
0.00852025	11.4384
0.0120736	11.6461
0.016071	11.8532
0.0240751	13.5396
0.0267499	15.0204
0.0298687	16.5007
0.0343226	18.4034
0.0396582	19.457
0.0441026	20.0876
0.0525413	20.5014
0.0609815	21.1271
0.0712024	22.3868
0.0756437	22.5934
0.0831944	23.0082
0.0867619	25.124
0.0934341	26.812
0.0987697	27.8655
0.104995	29.13
0.108556	30.3978
0.112116	31.4535
0.116565	32.7202
0.123226	32.9241
0.126343	34.1924
0.129013	35.0372
0.132575	36.3049
0.136581	37.7841
0.137926	39.4786
0.139714	41.1726
