Adsorption isotherm of Ethanol on Zn2(pbc)2*Hdma*H3O*2H2O
DOI: 10.1002/asia.200700209
Adsorbate Ethanol: InChIKey LFQSCWFLJHTTHZ-UHFFFAOYSA-N
Temperature: 298 K
Tabular data in the source: 0
pressure (bar)	uptake (wt%)
0.0193041	0.0895773
0.0630016	0.120166
0.126363	0.21193
0.191909	0.257813
0.320817	1.19075
0.445354	1.94017
0.572077	2.50605
0.700985	2.78134
0.825523	2.93428
0.978464	3.19428
