Adsorption isotherm of Water on Zn2(pbc)2*Hdma*H3O*2H2O
DOI: 10.1002/asia.200700209
Adsorbate Water: InChIKey XLYOFNOQVPJJNP-UHFFFAOYSA-N
Temperature: 298 K
Tabular data in the source: 0
pressure (bar)	uptake (wt%)
0.0193041	0.288401
0.0236738	0.548401
0.0302285	0.808401
0.0651864	1.83311
0.126363	2.81193
0.194094	3.4084
0.314262	4.28017
0.4388	4.89193
0.569892	5.42722
0.755607	6.08487
0.936951	6.57428
