Adsorption isotherm of Methanol on Zn2(pbc)2*Hdma*H3O*2H2O
DOI: 10.1002/asia.200700209
Adsorbate Methanol: InChIKey OKKJLVBELUTLKV-UHFFFAOYSA-N
Temperature: 298 K
Tabular data in the source: 0
pressure (bar)	uptake (wt%)
0.00837971	0.578989
0.00837971	1.95546
0.0149343	3.25546
0.0302285	3.89781
0.0608167	4.49428
0.124178	5.07546
0.244346	5.39664
0.534934	5.71781
0.558968	5.91664
0.777455	5.99311
0.991573	6.28369
