Adsorption isotherm of Nitrous oxide on (Cu(db))
DOI: 10.1016/j.jcis.2011.06.047
Adsorbate Nitrous oxide: InChIKey GQPLMRYTRLFLPF-UHFFFAOYSA-N
Temperature: 252 K
Tabular data in the source: 0
pressure (bar)	uptake (mmol/g)
0.0118799	0.18371
0.0260183	0.254165
0.0519592	0.409274
0.0944743	0.747994
0.132749	1.66699
0.201448	2.47214
0.269661	2.65465
0.401302	2.90658
0.537539	3.03104
0.673753	3.12721
