Adsorption isotherm of Nitrogen on (Cu(db))
DOI: 10.1016/j.jcis.2011.06.047
Adsorbate Nitrogen: InChIKey IJGRMHOSHXDMSA-UHFFFAOYSA-N
Temperature: 125 K
Tabular data in the source: 0
pressure (bar)	uptake (mmol/g)
0.00939504	0.179592
0.0164105	0.261224
0.0280808	0.359184
0.0560953	0.604082
0.0982071	1.12653
0.133465	1.8449
0.161602	2.30204
0.20378	2.93878
0.231766	3.13469
0.271338	3.28163
0.3388	3.46122
0.40156	3.54286
0.540959	3.60816
0.671087	3.70612
