Adsorption isotherm of Xenon on (Cu(db))
DOI: 10.1016/j.jcis.2011.06.047
Adsorbate Xenon: InChIKey FHNFHKCVQCLJFQ-UHFFFAOYSA-N
Temperature: 252 K
Tabular data in the source: 0
pressure (bar)	uptake (mmol/g)
0.0510992	0.171429
0.0743261	0.214286
0.0952303	0.3
0.113812	0.342857
0.134716	0.428571
0.162588	0.514286
0.202074	0.685714
0.21601	0.857143
0.239237	1.11429
0.264787	1.37143
0.271755	1.51429
0.285691	1.62857
0.30195	1.8
0.320531	1.97143
0.332145	2.11429
0.348403	2.2
0.364662	2.3
0.380921	2.4
0.411116	2.57143
0.427375	2.58571
0.448279	2.64286
0.471506	2.7
0.49241	2.74286
0.513314	2.78571
0.550477	2.84286
0.571382	2.9
0.594608	2.92857
0.615513	2.95714
0.63874	2.98571
