Adsorption isotherm of Oxygen on (Cu(db))
DOI: 10.1016/j.jcis.2011.06.047
Adsorbate Oxygen: InChIKey MYMOFIZGZYHOMD-UHFFFAOYSA-N
Temperature: 196 K
Tabular data in the source: 0
pressure (bar)	uptake (mmol/g)
0.0516575	0.0395578
0.0939263	0.0794053
0.136195	0.119253
0.199598	0.179024
0.270033	0.218002
0.335774	0.257125
0.406199	0.275528
0.532986	0.353919
0.67149	0.390796
