Adsorption isotherm of Oxygen on (Cu(db))
DOI: 10.1016/j.jcis.2011.06.047
Adsorbate Oxygen: InChIKey MYMOFIZGZYHOMD-UHFFFAOYSA-N
Temperature: 156 K
Tabular data in the source: 0
pressure (bar)	uptake (mmol/g)
0.0423654	0.245606
0.0917916	0.532146
0.136417	0.592497
0.202264	0.857954
0.26813	1.16456
0.336315	1.40937
0.404499	1.65418
0.539236	3.66648
0.673209	4.05329
