Adsorption isotherm of Oxygen on (Cu(db))
DOI: 10.1016/j.jcis.2011.06.047
Adsorbate Oxygen: InChIKey MYMOFIZGZYHOMD-UHFFFAOYSA-N
Temperature: 137 K
Tabular data in the source: 0
pressure (bar)	uptake (mmol/g)
0.00715748	0.246693
0.0213082	0.390289
0.0284174	0.534102
0.0567673	0.924174
0.0946411	1.60202
0.135229	3.06167
0.199057	4.02678
0.288366	4.27093
0.347075	4.33085
0.403456	4.43199
0.539699	4.65412
0.673528	4.7323
