Adsorption isotherm of Argon on (Cu(db))
DOI: 10.1016/j.jcis.2011.06.047
Adsorbate Argon: InChIKey XKRFYHLGVUSROY-UHFFFAOYSA-N
Temperature: 148 K
Tabular data in the source: 0
pressure (bar)	uptake (mmol/g)
0.0949074	0.147541
0.136034	0.172131
0.202469	0.295082
0.268904	0.442623
0.319522	1.45082
0.33534	1.86885
0.354321	2.33607
0.366975	2.80328
0.37963	3.34426
0.398611	3.7623
0.414429	4.15574
0.427084	4.45082
0.455556	4.72131
0.496682	4.86885
0.559954	4.96721
0.575772	4.9918
0.607408	4.9918
0.639043	4.9918
0.670679	4.94262
