Adsorption isotherm of Nitrogen on (Cu(db))
DOI: 10.1016/j.jcis.2011.06.047
Adsorbate Nitrogen: InChIKey IJGRMHOSHXDMSA-UHFFFAOYSA-N
Temperature: 196 K
Tabular data in the source: 0
pressure (bar)	uptake (mmol/g)
0.0580767	0.0163265
0.0952492	0.0326531
0.132431	0.0653061
0.20214	0.114286
0.269498	0.114286
0.334553	0.146939
0.406565	0.163265
0.534342	0.212245
0.666745	0.228571
