Adsorption isotherm of Carbon Dioxide on (Cu(db))
DOI: 10.1016/j.jcis.2011.06.047
Adsorbate Carbon Dioxide: InChIKey CURLTUGMZLYLDI-UHFFFAOYSA-N
Temperature: 252 K
Tabular data in the source: 0
pressure (bar)	uptake (mmol/g)
0.0140339	0.17258
0.0257289	0.221746
0.0537967	0.2953
0.0771866	0.356595
0.0912206	0.492138
0.102916	0.627724
0.107593	0.751094
0.112271	0.874464
0.116949	0.985488
0.121627	1.10886
0.123966	1.23227
0.130983	1.47906
0.140339	1.63938
0.147356	1.7627
0.152034	1.87373
0.16139	1.99701
0.173085	2.09556
0.182441	2.19415
0.198814	2.24323
0.210509	2.30474
0.23156	2.36608
0.252611	2.41507
0.266645	2.45185
0.280679	2.47628
0.30173	2.51293
0.334475	2.57405
0.348509	2.58614
0.36956	2.62279
0.414001	2.68369
0.437391	2.70795
0.458442	2.73225
0.481832	2.75651
0.502883	2.76846
0.53095	2.78029
0.544984	2.79238
0.568374	2.81663
0.589425	2.82859
0.612815	2.8405
0.636205	2.85241
0.664273	2.86424
