Adsorption isotherm of Xenon on (Cu(db))
DOI: 10.1016/j.jcis.2011.06.047
Adsorbate Xenon: InChIKey FHNFHKCVQCLJFQ-UHFFFAOYSA-N
Temperature: 262 K
Tabular data in the source: 0
pressure (bar)	uptake (mmol/g)
0.0929076	0.214286
0.111489	0.285714
0.137039	0.357143
0.178847	0.457143
0.202074	0.557143
0.243882	0.671429
0.269432	0.814286
0.294982	1.02857
0.315886	1.21429
0.33679	1.41429
0.355371	1.62857
0.36234	1.77143
0.383244	1.92857
0.404148	2.04286
0.436666	2.22857
0.473829	2.35714
0.510992	2.44286
0.534219	2.48571
0.580672	2.58571
0.617835	2.64286
0.666612	2.67143
