Adsorption isotherm of Nitrogen on (Cu(db))
DOI: 10.1016/j.jcis.2011.06.047
Adsorbate Nitrogen: InChIKey IJGRMHOSHXDMSA-UHFFFAOYSA-N
Temperature: 144 K
Tabular data in the source: 0
pressure (bar)	uptake (mmol/g)
0.0279671	0.163265
0.0559057	0.277551
0.097752	0.342857
0.134962	0.42449
0.200112	0.620408
0.269963	0.914286
0.335283	1.40408
0.405333	2.04082
0.538115	2.7102
0.675324	3.00408
