Adsorption isotherm of Ethene on (Cu(db))
DOI: 10.1016/j.jcis.2011.06.047
Adsorbate Ethene: InChIKey VGGSQFUCUMXWEO-UHFFFAOYSA-N
Temperature: 273 K
Tabular data in the source: 0
pressure (bar)	uptake (mmol/g)
0.0531478	0.183436
0.106423	0.238296
0.147846	0.293663
0.207032	0.362555
0.269139	0.474179
0.328001	0.871656
0.3953	1.72591
0.468793	2.30848
0.530787	2.53439
0.666908	2.69999
0.800151	2.77999
