Adsorption isotherm of Nitrogen on (Cu(db))
DOI: 10.1016/j.jcis.2011.06.047
Adsorbate Nitrogen: InChIKey IJGRMHOSHXDMSA-UHFFFAOYSA-N
Temperature: 137 K
Tabular data in the source: 0
pressure (bar)	uptake (mmol/g)
0.00939504	0.179592
0.0164105	0.261224
0.0304035	0.359184
0.0536494	0.391837
0.0957327	0.865306
0.135361	1.1102
0.200605	1.46939
0.268541	2.46531
0.338496	2.93878
0.403816	3.42857
0.538608	3.55918
0.671068	3.67347
