Adsorption isotherm of Carbon Dioxide on (Cu(db))
DOI: 10.1016/j.jcis.2011.06.047
Adsorbate Carbon Dioxide: InChIKey CURLTUGMZLYLDI-UHFFFAOYSA-N
Temperature: 273 K
Tabular data in the source: 0
pressure (bar)	uptake (mmol/g)
0.0514578	0.208924
0.0912206	0.25757
0.130983	0.330908
0.168407	0.367251
0.198814	0.490145
0.219865	0.711977
0.240916	0.970847
0.266645	1.31605
0.280679	1.48863
0.294713	1.71059
0.308747	1.85848
0.332136	1.95681
0.371899	2.06719
0.399967	2.14074
0.435052	2.17713
0.484171	2.25029
0.53095	2.29881
0.594103	2.37171
0.629188	2.39575
0.666612	2.39506
