Adsorption isotherm of Xenon on (Cu(db))
DOI: 10.1016/j.jcis.2011.06.047
Adsorbate Xenon: InChIKey FHNFHKCVQCLJFQ-UHFFFAOYSA-N
Temperature: 243 K
Tabular data in the source: 0
pressure (bar)	uptake (mmol/g)
0.0278723	0.171429
0.0534219	0.3
0.0696807	0.371429
0.0859395	0.471429
0.106844	0.628571
0.118457	0.757143
0.127748	0.885714
0.134716	1.07143
0.137039	1.01429
0.144007	1.2
0.150975	1.32857
0.157943	1.47143
0.164911	1.61429
0.169556	1.74286
0.176524	1.88571
0.18117	2.02857
0.188138	2.15714
0.209042	2.44286
0.222978	2.55714
0.24156	2.64286
0.285691	2.82857
0.306595	2.88571
0.325177	2.94286
0.341435	2.97143
0.37163	3.02857
0.406471	3.07143
0.413439	3.11429
0.427375	3.11429
0.450602	3.12857
0.473829	3.14286
0.497056	3.15714
0.51796	3.18571
0.534219	3.18571
0.557445	3.21429
0.562091	3.24286
0.585318	3.25714
0.608545	3.27143
0.629449	3.28571
0.652676	3.3
