Adsorption isotherm of Nitrous oxide on (Cu(db))
DOI: 10.1016/j.jcis.2011.06.047
Adsorbate Nitrous oxide: InChIKey GQPLMRYTRLFLPF-UHFFFAOYSA-N
Temperature: 273 K
Tabular data in the source: 0
pressure (bar)	uptake (mmol/g)
0.0541514	0.211115
0.0917617	0.281071
0.134077	0.365078
0.200109	0.759903
0.26676	1.94717
0.33505	2.22874
0.400871	2.3547
0.534771	2.49336
0.66866	2.61788
