Adsorption isotherm of Argon on (Cu(db))
DOI: 10.1016/j.jcis.2011.06.047
Adsorbate Argon: InChIKey XKRFYHLGVUSROY-UHFFFAOYSA-N
Temperature: 173 K
Tabular data in the source: 0
pressure (bar)	uptake (mmol/g)
0.136034	0.0491803
0.202469	0.122951
0.272068	0.0983607
0.338503	0.122951
0.404938	0.147541
0.534645	0.172131
0.670679	0.270492
