Adsorption isotherm of Carbon monoxide on (Cu(db))
DOI: 10.1016/j.jcis.2011.06.047
Adsorbate Carbon monoxide: InChIKey UGFAIRIUMAVXCW-UHFFFAOYSA-N
Temperature: 173 K
Tabular data in the source: 0
pressure (bar)	uptake (mmol/g)
0.0270976	0.121125
0.057149	0.160859
0.0961841	0.159669
0.135244	0.199128
0.20433	0.237672
0.270451	0.337282
0.336535	0.375918
0.399652	0.475619
0.531954	0.776463
0.668052	2.39833
0.776479	2.9438
0.88476	3.24538
