Adsorption isotherm of Ethene on (Cu(db))
DOI: 10.1016/j.jcis.2011.06.047
Adsorbate Ethene: InChIKey VGGSQFUCUMXWEO-UHFFFAOYSA-N
Temperature: 262 K
Tabular data in the source: 0
pressure (bar)	uptake (mmol/g)
0.0235899	0.113275
0.0531478	0.183436
0.0945289	0.281663
0.135938	0.351316
0.200669	0.805685
0.25005	1.80357
0.308757	2.3582
0.358871	2.61319
0.426904	2.72456
0.533453	2.83428
0.66372	2.9287
