Adsorption isotherm of Argon on (Cu(db))
DOI: 10.1016/j.jcis.2011.06.047
Adsorbate Argon: InChIKey XKRFYHLGVUSROY-UHFFFAOYSA-N
Temperature: 223 K
Tabular data in the source: 0
pressure (bar)	uptake (mmol/g)
0.0316358	8.88e-16
0.0569445	-0.0245902
0.110725	-0.0491803
0.13287	8.88e-16
0.202469	0.0245902
0.268904	0.0245902
0.332176	0.0245902
0.404938	0.0245902
0.537809	0.0491803
0.670679	0.0491803
