Adsorption isotherm of Nitrous oxide on (Cu(db))
DOI: 10.1016/j.jcis.2011.06.047
Adsorbate Nitrous oxide: InChIKey GQPLMRYTRLFLPF-UHFFFAOYSA-N
Temperature: 303 K
Tabular data in the source: 0
pressure (bar)	uptake (mmol/g)
0.0540517	0.0837582
0.0916178	0.0971117
0.1339	0.138667
0.199644	0.165573
0.265398	0.20663
0.333489	0.233487
0.399265	0.302845
0.533121	0.384909
0.669336	0.481074
