Adsorption isotherm of Xenon on (Cu(db))
DOI: 10.1016/j.jcis.2011.06.047
Adsorbate Xenon: InChIKey FHNFHKCVQCLJFQ-UHFFFAOYSA-N
Temperature: 273 K
Tabular data in the source: 0
pressure (bar)	uptake (mmol/g)
0.0557445	0.0857143
0.0929076	0.142857
0.134716	0.185714
0.150975	0.214286
0.169556	0.228571
0.185815	0.242857
0.204397	0.257143
0.234592	0.3
0.274077	0.357143
0.304272	0.385714
0.33679	0.442857
0.357694	0.471429
0.383244	0.5
0.404148	0.585714
0.43202	0.671429
0.452924	0.814286
0.476151	0.957143
0.497056	1.11429
0.513314	1.28571
0.536541	1.52857
0.559768	1.77143
0.589963	2.04286
0.615513	2.24286
0.636417	2.32857
0.668935	2.41429
