Adsorption isotherm of Nitrous oxide on (Cu(db))
DOI: 10.1016/j.jcis.2011.06.047
Adsorbate Nitrous oxide: InChIKey GQPLMRYTRLFLPF-UHFFFAOYSA-N
Temperature: 262 K
Tabular data in the source: 0
pressure (bar)	uptake (mmol/g)
0.025963	0.183411
0.0518485	0.267767
0.0918613	0.408427
0.13214	0.888704
0.198791	2.07597
0.269461	2.39994
0.332957	2.55425
0.403439	2.63766
0.537329	2.76218
0.671196	2.85839
