Adsorption isotherm of Carbon Dioxide on (Cu(db))
DOI: 10.1016/j.jcis.2011.06.047
Adsorbate Carbon Dioxide: InChIKey CURLTUGMZLYLDI-UHFFFAOYSA-N
Temperature: 262 K
Tabular data in the source: 0
pressure (bar)	uptake (mmol/g)
0.0304069	0.172276
0.0514578	0.245961
0.0935596	0.368638
0.112271	0.405328
0.130983	0.503747
0.147356	0.738012
0.16139	1.16985
0.170746	1.40425
0.177763	1.56461
0.196475	1.90994
0.215187	2.05774
0.240916	2.18072
0.268984	2.26662
0.306408	2.35235
0.334475	2.40121
0.371899	2.4499
0.404645	2.49868
0.430374	2.53524
0.474815	2.5838
0.5099	2.62019
0.53095	2.63214
0.542645	2.63193
0.591764	2.6804
0.62451	2.70448
0.652578	2.72865
0.666612	2.7284
