Adsorption isotherm of Xenon on (Cu(db))
DOI: 10.1016/j.jcis.2011.06.047
Adsorbate Xenon: InChIKey FHNFHKCVQCLJFQ-UHFFFAOYSA-N
Temperature: 224 K
Tabular data in the source: 0
pressure (bar)	uptake (mmol/g)
0.00929076	0.171429
0.0162588	0.228571
0.0255496	0.342857
0.0441311	0.514286
0.0510992	0.8
0.0627126	0.971429
0.0650353	1.11429
0.0696807	1.25714
0.0720034	1.4
0.0766487	1.54286
0.0789714	1.67143
0.0836168	1.81429
0.0882622	1.95714
0.0929076	2.17143
0.102198	2.37143
0.109166	2.5
0.118457	2.62857
0.134716	2.78571
0.148652	2.81429
0.169556	2.88571
0.199751	2.91429
0.213687	2.98571
0.234592	3.02857
0.257819	3.05714
0.283368	3.08571
0.306595	3.11429
0.327499	3.12857
0.334467	3.12857
0.401825	3.17143
0.418084	3.2
0.441311	3.2
0.464538	3.21429
0.487765	3.22857
0.508669	3.24286
0.550477	3.25714
0.594608	3.28571
0.63874	3.3
0.668935	3.32857
