Adsorption isotherm of Carbon Dioxide on (Cu(db))
DOI: 10.1016/j.jcis.2011.06.047
Adsorbate Carbon Dioxide: InChIKey CURLTUGMZLYLDI-UHFFFAOYSA-N
Temperature: 288 K
Tabular data in the source: 0
pressure (bar)	uptake (mmol/g)
0.0514578	0.122504
0.0888816	0.158848
0.130983	0.182759
0.163729	0.21919
0.196475	0.255621
0.226882	0.279749
0.266645	0.340741
0.297052	0.340178
0.334475	0.401213
0.367221	0.425298
0.397628	0.511154
0.437391	0.707949
0.474815	0.929478
0.502883	1.15118
0.528611	1.43465
0.549662	1.58241
0.570713	1.75486
0.617493	1.93918
0.664273	2.02473
