Adsorption isotherm of Carbon Dioxide on (Cu(db))
DOI: 10.1016/j.jcis.2011.06.047
Adsorbate Carbon Dioxide: InChIKey CURLTUGMZLYLDI-UHFFFAOYSA-N
Temperature: 303 K
Tabular data in the source: 0
pressure (bar)	uptake (mmol/g)
0.0280679	0.0488629
0.0514578	0.0484297
0.0935596	0.084687
0.130983	0.121031
0.198814	0.144466
0.264306	0.18029
0.332136	0.203725
0.397628	0.239549
0.453764	0.287893
0.53095	0.311154
0.591764	0.359411
0.664273	0.444488
