Adsorption isotherm of Hydrogen on (Cu(db))
DOI: 10.1016/j.jcis.2011.06.047
Adsorbate Hydrogen: InChIKey UFHFLCQGNIYNRP-UHFFFAOYSA-N
Temperature: 156 K
Tabular data in the source: 0
pressure (bar)	uptake (mmol/g)
0.0276794	0.0314194
0.059972	0.0145995
0.0968778	0.0137113
0.138397	0.0127121
0.205289	0.0431878
0.269874	0.0416335
0.336766	0.0400237
0.401351	0.0545121
0.539748	0.0993098
0.666612	0.144385
