Adsorption isotherm of Carbon monoxide on (Cu(db))
DOI: 10.1016/j.jcis.2011.06.047
Adsorbate Carbon monoxide: InChIKey UGFAIRIUMAVXCW-UHFFFAOYSA-N
Temperature: 156 K
Tabular data in the source: 0
pressure (bar)	uptake (mmol/g)
0.0541951	0.24225
0.0962451	0.261293
0.135341	0.361727
0.201486	0.501987
0.246893	1.11036
0.292458	1.98295
0.352756	2.38762
0.419036	2.75145
0.536519	3.37795
0.671836	3.69903
0.80398	3.73565
