Adsorption isotherm of Oxygen on (Cu(db))
DOI: 10.1016/j.jcis.2011.06.047
Adsorbate Oxygen: InChIKey MYMOFIZGZYHOMD-UHFFFAOYSA-N
Temperature: 174 K
Tabular data in the source: 0
pressure (bar)	uptake (mmol/g)
0.0282049	0.0814339
0.0540434	0.121789
0.0939842	0.20286
0.133906	0.24278
0.202013	0.322983
0.267744	0.34153
0.338179	0.380508
0.40392	0.419631
0.537739	0.477229
0.66921	0.534899
