Adsorption isotherm of Nitrogen on (Cu(db))
DOI: 10.1016/j.jcis.2011.06.047
Adsorbate Nitrogen: InChIKey IJGRMHOSHXDMSA-UHFFFAOYSA-N
Temperature: 174 K
Tabular data in the source: 0
pressure (bar)	uptake (mmol/g)
0.0302234	0.0489796
0.0558109	0.114286
0.0930119	0.179592
0.134858	0.244898
0.199922	0.293878
0.269622	0.326531
0.337008	0.37551
0.402062	0.408163
0.534484	0.457143
0.666906	0.506122
