Adsorption isotherm of Carbon monoxide on (Cu(db))
DOI: 10.1016/j.jcis.2011.06.047
Adsorbate Carbon monoxide: InChIKey UGFAIRIUMAVXCW-UHFFFAOYSA-N
Temperature: 148 K
Tabular data in the source: 0
pressure (bar)	uptake (mmol/g)
0.0542073	0.262575
0.0963184	0.383242
0.132632	0.849615
0.172472	2.18986
0.217867	2.77791
0.275382	3.54851
0.341515	3.66845
0.407647	3.78838
0.539815	3.86565
0.67197	3.9226
