Adsorption isotherm of Ethene on (Cu(db))
DOI: 10.1016/j.jcis.2011.06.047
Adsorbate Ethene: InChIKey VGGSQFUCUMXWEO-UHFFFAOYSA-N
Temperature: 288 K
Tabular data in the source: 0
pressure (bar)	uptake (mmol/g)
0.0798698	0.125148
0.133159	0.165721
0.201234	0.234232
0.269337	0.27417
0.334477	0.314236
0.402552	0.382746
0.526427	0.948866
0.593853	1.67455
0.664453	2.18581
0.80049	2.43712
