Adsorption isotherm of Argon on (Cu(db))
DOI: 10.1016/j.jcis.2011.06.047
Adsorbate Argon: InChIKey XKRFYHLGVUSROY-UHFFFAOYSA-N
Temperature: 159 K
Tabular data in the source: 0
pressure (bar)	uptake (mmol/g)
0.136034	0.122951
0.199306	0.122951
0.272068	0.221311
0.341667	0.319672
0.404938	0.319672
0.537809	0.467213
0.664352	1.67213
0.72446	2.38525
0.800386	3.34426
0.876312	3.90984
0.93642	4.2541
