Adsorption isotherm of Methane on (Cu(db))
DOI: 10.1016/j.jcis.2011.06.047
Adsorbate Methane: InChIKey VNWKTOKETHGBQD-UHFFFAOYSA-N
Temperature: 224 K
Tabular data in the source: 0
pressure (bar)	uptake (mmol/g)
0.0472774	0.146397
0.0945549	0.169337
0.141832	0.192277
0.205657	0.189913
0.269481	0.261623
0.333306	0.283951
0.397131	0.330969
0.534235	0.424656
0.664248	0.469223
