Adsorption isotherm of Carbon monoxide on (Cu(db))
DOI: 10.1016/j.jcis.2011.06.047
Adsorbate Carbon monoxide: InChIKey UGFAIRIUMAVXCW-UHFFFAOYSA-N
Temperature: 139 K
Tabular data in the source: 0
pressure (bar)	uptake (mmol/g)
0.0272074	0.304048
0.0574419	0.648655
0.091619	2.55818
0.137221	3.49175
0.206503	3.85549
0.272587	3.89413
0.33568	3.95318
0.404779	4.01205
0.539949	4.08923
0.666099	4.14636
