Adsorption isotherm of Argon on (Cu(db))
DOI: 10.1016/j.jcis.2011.06.047
Adsorbate Argon: InChIKey XKRFYHLGVUSROY-UHFFFAOYSA-N
Temperature: 132 K
Tabular data in the source: 0
pressure (bar)	uptake (mmol/g)
0.0316358	0.221311
0.0569445	0.442623
0.098071	1.0082
0.136034	2.18852
0.202469	5.01639
0.272068	5.21311
0.338503	5.2623
0.414429	5.31148
0.534645	5.40984
0.667516	5.5082
