Adsorption isotherm of Methane on (Cu(db))
DOI: 10.1016/j.jcis.2011.06.047
Adsorbate Methane: InChIKey VNWKTOKETHGBQD-UHFFFAOYSA-N
Temperature: 156 K
Tabular data in the source: 0
pressure (bar)	uptake (mmol/g)
0.00472774	0.246738
0.00945549	0.444094
0.0212749	0.962175
0.0236387	1.43122
0.0283665	1.70265
0.0307303	2.468
0.0330942	3.18396
0.0354581	3.6777
0.0496413	4.171
0.0709162	4.51589
0.0898271	4.61396
0.106374	4.7368
0.130013	4.76062
0.160743	4.83355
0.198565	4.90623
0.236387	4.95421
0.267118	4.95307
0.295484	4.97671
0.333306	4.97531
0.364036	5.02355
0.399494	5.04693
0.413678	5.04641
0.456227	5.04483
0.505869	5.09237
0.534235	5.06663
0.55551	5.09053
0.612243	5.11312
0.654793	5.11155
0.668976	5.11102
