Adsorption isotherm of Hydrogen on (Cu(db))
DOI: 10.1016/j.jcis.2011.06.047
Adsorbate Hydrogen: InChIKey UFHFLCQGNIYNRP-UHFFFAOYSA-N
Temperature: 128 K
Tabular data in the source: 0
pressure (bar)	uptake (mmol/g)
0.0276794	0.0314194
0.0553588	0.0628389
0.0968778	0.0778824
0.131477	0.0770498
0.200676	0.10747
0.281407	0.137613
0.336766	0.13628
0.405964	0.166701
0.537441	0.211665
0.668918	0.272672
