Adsorption isotherm of Methane on (Cu(db))
DOI: 10.1016/j.jcis.2011.06.047
Adsorbate Methane: InChIKey VNWKTOKETHGBQD-UHFFFAOYSA-N
Temperature: 196 K
Tabular data in the source: 0
pressure (bar)	uptake (mmol/g)
0.0236387	0.196655
0.0520052	0.269679
0.092191	0.366956
0.132377	0.488924
0.198565	0.708695
0.234023	0.756764
0.264754	1.00254
0.297848	1.49514
0.330942	2.08651
0.3664	2.6284
0.397131	3.07171
0.458591	3.51388
0.531871	3.90623
0.574421	4.00341
0.614607	4.10069
0.668976	4.14806
