Adsorption isotherm of Nitrous oxide on (Cu(db))
DOI: 10.1016/j.jcis.2011.06.047
Adsorbate Nitrous oxide: InChIKey GQPLMRYTRLFLPF-UHFFFAOYSA-N
Temperature: 281 K
Tabular data in the source: 0
pressure (bar)	uptake (mmol/g)
0.0282659	0.126758
0.0541403	0.196964
0.0893924	0.252819
0.134055	0.336777
0.202223	0.462688
0.265719	0.617001
0.336666	1.29474
0.400505	1.88772
0.537007	2.35181
0.670963	2.56123
