Adsorption isotherm of Argon on (Cu(db))
DOI: 10.1016/j.jcis.2011.06.047
Adsorbate Argon: InChIKey XKRFYHLGVUSROY-UHFFFAOYSA-N
Temperature: 138 K
Tabular data in the source: 0
pressure (bar)	uptake (mmol/g)
0.0537809	0.172131
0.0949074	0.295082
0.136034	0.737705
0.202469	3.78689
0.272068	4.81967
0.34483	4.89344
0.404938	4.91803
0.540972	5.38525
0.673843	5.40984
