Adsorption isotherm of Methane on (Cu(db))
DOI: 10.1016/j.jcis.2011.06.047
Adsorbate Methane: InChIKey VNWKTOKETHGBQD-UHFFFAOYSA-N
Temperature: 252 K
Tabular data in the source: 0
pressure (bar)	uptake (mmol/g)
0.0496413	0.0722354
0.0874633	0.0461431
0.125285	0.0694335
0.191474	0.0916732
0.264754	0.138342
0.333306	0.160494
0.399494	0.182734
0.534235	0.177743
0.666612	0.222222
