Adsorption isotherm of Methane on (Cu(db))
DOI: 10.1016/j.jcis.2011.06.047
Adsorbate Methane: InChIKey VNWKTOKETHGBQD-UHFFFAOYSA-N
Temperature: 213 K
Tabular data in the source: 0
pressure (bar)	uptake (mmol/g)
0.0283665	0.171789
0.0496413	0.171001
0.092191	0.243499
0.125285	0.291656
0.198565	0.412398
0.264754	0.434638
0.330942	0.555643
0.399494	0.651869
0.529507	0.844585
0.668976	1.11102
