Adsorption isotherm of Ethene on (Cu(db))
DOI: 10.1016/j.jcis.2011.06.047
Adsorbate Ethene: InChIKey VGGSQFUCUMXWEO-UHFFFAOYSA-N
Temperature: 298 K
Tabular data in the source: 0
pressure (bar)	uptake (mmol/g)
0.00292052	0.042732
0.029572	0.0558754
0.0562094	0.0833051
0.0946982	0.110227
0.136164	0.122735
0.204239	0.191246
0.272384	0.188325
0.331585	0.242931
0.402665	0.268456
0.535908	0.348459
0.666146	0.471449
0.79922	0.722888
0.93489	1.34564
