Adsorption isotherm of Ethene on (Cu(db))
DOI: 10.1016/j.jcis.2011.06.047
Adsorbate Ethene: InChIKey VGGSQFUCUMXWEO-UHFFFAOYSA-N
Temperature: 252 K
Tabular data in the source: 0
pressure (bar)	uptake (mmol/g)
0.0265104	0.156007
0.056026	0.269027
0.094416	0.395953
0.126528	0.880291
0.172635	2.1926
0.213706	2.60513
0.266825	2.81714
0.334872	2.91422
0.402933	2.99702
0.533171	3.12001
0.666428	3.18572
