Adsorption isotherm of Hydrogen on (Cu(db))
DOI: 10.1016/j.jcis.2011.06.047
Adsorbate Hydrogen: InChIKey UFHFLCQGNIYNRP-UHFFFAOYSA-N
Temperature: 108 K
Tabular data in the source: 0
pressure (bar)	uptake (mmol/g)
0.0161463	0.0156542
0.0322926	0.0313084
0.0553588	0.0788816
0.0968778	0.0778824
0.13609	0.173195
0.202982	0.235757
0.269874	0.298318
0.336766	0.392965
0.401351	0.423496
0.532828	0.548674
0.668918	0.593527
