Adsorption isotherm of Nitrogen on (Cu(db))
DOI: 10.1016/j.jcis.2011.06.047
Adsorbate Nitrogen: InChIKey IJGRMHOSHXDMSA-UHFFFAOYSA-N
Temperature: 156 K
Tabular data in the source: 0
pressure (bar)	uptake (mmol/g)
0.0558962	0.261224
0.0954104	0.310204
0.134953	0.408163
0.200055	0.522449
0.267555	0.767347
0.339634	0.897959
0.400138	1.09388
0.530512	1.61633
0.667873	2.17143
