Adsorption isotherm of Hydrogen on (Cu(db))
DOI: 10.1016/j.jcis.2011.06.047
Adsorbate Hydrogen: InChIKey UFHFLCQGNIYNRP-UHFFFAOYSA-N
Temperature: 77 K
Tabular data in the source: 0
pressure (bar)	uptake (mmol/g)
0.0115331	0.368706
0.0207595	0.496827
0.029986	0.673075
0.059972	0.929038
0.0968778	1.18483
0.13609	1.45662
0.202982	1.80795
0.269874	2.1272
0.336766	2.46248
0.403658	2.8459
0.532828	3.11552
0.668918	3.44914
