Adsorption isotherm of Nitrous oxide on (Cu(db))
DOI: 10.1016/j.jcis.2011.06.047
Adsorbate Nitrous oxide: InChIKey GQPLMRYTRLFLPF-UHFFFAOYSA-N
Temperature: 288 K
Tabular data in the source: 0
pressure (bar)	uptake (mmol/g)
0.0493795	0.112159
0.0916621	0.153715
0.129239	0.181219
0.199677	0.208025
0.267801	0.277334
0.33123	0.346742
0.401723	0.444302
0.535889	0.922586
0.670465	1.92445
