Adsorption isotherm of Carbon monoxide on (Cu(db))
DOI: 10.1016/j.jcis.2011.06.047
Adsorbate Carbon monoxide: InChIKey UGFAIRIUMAVXCW-UHFFFAOYSA-N
Temperature: 163 K
Tabular data in the source: 0
pressure (bar)	uptake (mmol/g)
0.0511558	0.181367
0.0511802	0.222017
0.09926	0.281526
0.138283	0.260011
0.204379	0.318972
0.267485	0.398348
0.333617	0.518283
0.399884	0.861791
0.51771	2.05739
0.535653	1.93489
0.668248	2.72353
0.797706	3.28869
0.942043	3.62981
