Adsorption isotherm of Methane on (Cu(db))
DOI: 10.1016/j.jcis.2011.06.047
Adsorbate Methane: InChIKey VNWKTOKETHGBQD-UHFFFAOYSA-N
Temperature: 203 K
Tabular data in the source: 0
pressure (bar)	uptake (mmol/g)
0.0236387	0.171964
0.0520052	0.195605
0.092191	0.26819
0.130013	0.266789
0.196201	0.412486
0.264754	0.582786
0.300212	0.655547
0.333306	0.753086
0.375856	0.874967
0.399494	1.12101
0.442044	1.73671
0.486958	2.32764
0.534235	2.84441
0.557874	3.06576
0.590968	3.23737
0.626426	3.35951
0.664248	3.40749
