Adsorption isotherm of Oxygen on (Cu(db))
DOI: 10.1016/j.jcis.2011.06.047
Adsorbate Oxygen: InChIKey MYMOFIZGZYHOMD-UHFFFAOYSA-N
Temperature: 144 K
Tabular data in the source: 0
pressure (bar)	uptake (mmol/g)
0.0283015	0.287192
0.0518411	0.430499
0.0918302	0.614449
0.134215	0.901207
0.202718	1.82502
0.268836	2.6666
0.337571	4.08423
0.403437	4.39084
0.537285	4.51016
0.694585	4.58761
