Adsorption isotherm of Methane on (Cu(db))
DOI: 10.1016/j.jcis.2011.06.047
Adsorbate Methane: InChIKey VNWKTOKETHGBQD-UHFFFAOYSA-N
Temperature: 174 K
Tabular data in the source: 0
pressure (bar)	uptake (mmol/g)
0.00709162	0.22196
0.0212749	0.3202
0.0520052	0.516592
0.0780078	0.737851
0.092191	1.20646
0.130013	3.20506
0.156016	3.64854
0.198565	3.81981
0.26239	4.13843
0.330942	4.45688
0.404222	4.52824
0.531871	4.67166
0.666612	4.71605
