Adsorption isotherm of Carbon Dioxide on MIL-53(Al)
DOI: 10.1021/La4027128
Adsorbate Carbon Dioxide: InChIKey CURLTUGMZLYLDI-UHFFFAOYSA-N
Temperature: 293 K
Tabular data in the source: 0
pressure (bar)	uptake (mmol/g)
0.0495587	0.0842701
0.311744	0.95822
1.25561	2.72797
1.95477	3.64561
2.54905	4.67251
3.23074	5.74309
3.91242	6.5078
4.54166	6.90108
5.03107	7.29435
5.85258	7.81872
6.41191	8.212
7.0062	8.2994
7.77527	8.49603
