Adsorption isotherm of Carbon Dioxide on MIL-53(Al)
DOI: 10.1021/La4027128
Adsorbate Carbon Dioxide: InChIKey CURLTUGMZLYLDI-UHFFFAOYSA-N
Temperature: 293 K
Tabular data in the source: 0
pressure (bar)	uptake (mmol/g)
0.125696	0.60864
0.191242	1.46074
0.4862	2.05066
1.07612	2.37839
1.8299	2.68427
3.14082	2.92461
4.25511	3.07755
5.30385	3.33973
5.86099	3.79856
6.28704	4.65066
6.74586	5.59015
7.30301	6.87923
7.69628	7.75318
7.99124	8.23385
8.84334	8.58343
9.95763	8.82377
