Adsorption isotherm of Nitrogen on MIL-53(Al)
DOI: 10.1021/La4027128
Adsorbate Nitrogen: InChIKey IJGRMHOSHXDMSA-UHFFFAOYSA-N
Temperature: 293 K
Tabular data in the source: 0
pressure (bar)	uptake (mmol/g)
0.00481196	0.000937
0.0598708	0.0121718
0.149014	0.0187264
0.277484	0.0187264
0.424308	0.0318357
0.544913	0.0318357
0.681249	0.025281
0.901484	0.0383903
1.05093	0.077718
