Adsorption isotherm of Methane on MIL-53(Al)
DOI: 10.1021/La4027128
Adsorbate Methane: InChIKey VNWKTOKETHGBQD-UHFFFAOYSA-N
Temperature: 293 K
Tabular data in the source: 0
pressure (bar)	uptake (mmol/g)
0.662896	0.025281
1.02471	0.117046
