Adsorption isotherm of Oxygen on MIL-53(Al)
DOI: 10.1021/La4027128
Adsorbate Oxygen: InChIKey MYMOFIZGZYHOMD-UHFFFAOYSA-N
Temperature: 293 K
Tabular data in the source: 0
pressure (bar)	uptake (mmol/g)
0.134075	0.00468097
0.728361	0.0920759
1.07794	0.20132
2.05676	0.414345
4.08433	0.80216
6.14685	1.16813
7.99962	1.46855
10.3768	1.83451
11.9848	2.08577
