Adsorption isotherm of Carbon monoxide on MIL-53(Al)
DOI: 10.1021/La4027128
Adsorbate Carbon monoxide: InChIKey UGFAIRIUMAVXCW-UHFFFAOYSA-N
Temperature: 293 K
Tabular data in the source: 0
pressure (bar)	uptake (mmol/g)
0.00503697	0.0101432
0.331434	0.0101432
1.03496	0.0265297
2.04437	0.0975381
3.14555	0.266866
4.12437	0.523589
5.1032	0.944177
6.11261	1.3593
8.00908	1.76897
9.99732	2.06939
12.0467	2.31519
