Adsorption isotherm of Carbon Dioxide on MIL-53(Al)
DOI: 10.1021/La4027128
Adsorbate Carbon Dioxide: InChIKey CURLTUGMZLYLDI-UHFFFAOYSA-N
Temperature: 293 K
Tabular data in the source: 0
pressure (bar)	uptake (mmol/g)
0.00619484	0.00561717
0.0630016	0.110491
0.148212	0.353012
0.340481	1.35587
0.681321	2.29973
1.00905	2.54881
