Adsorption isotherm of Carbon Dioxide on MIL-53(Al)
DOI: 10.1021/La4027128
Adsorbate Carbon Dioxide: InChIKey CURLTUGMZLYLDI-UHFFFAOYSA-N
Temperature: 293 K
Tabular data in the source: 0
pressure (bar)	uptake (mmol/g)
0.101996	0.346455
0.311744	1.39519
0.678802	2.26914
0.993424	2.61872
1.65763	2.92461
2.68889	3.36158
3.30065	3.49267
3.98233	3.60192
4.5941	3.71116
5.11847	4.14814
5.43309	4.89099
5.80015	5.96158
6.09729	6.96662
6.49931	7.68763
7.70536	8.60528
