Adsorption isotherm of Carbon Dioxide on MIL-53(Al)
DOI: 10.1021/La4027128
Adsorbate Carbon Dioxide: InChIKey CURLTUGMZLYLDI-UHFFFAOYSA-N
Temperature: 293 K
Tabular data in the source: 0
pressure (bar)	uptake (mmol/g)
0.0929226	0.0624214
0.125696	0.630489
0.158469	1.41704
0.420654	2.09435
1.07612	2.64057
1.66603	2.92461
2.71477	3.23049
4.09124	3.44898
4.68116	3.55822
5.53326	4.16998
5.66435	4.86914
6.02486	5.85234
6.28704	6.83553
6.71309	7.64393
8.02402	8.49603
12.0551	9.23889
