Adsorption isotherm of Nitrogen on MIL-53(Al)
DOI: 10.1021/La4027128
Adsorbate Nitrogen: InChIKey IJGRMHOSHXDMSA-UHFFFAOYSA-N
Temperature: 293 K
Tabular data in the source: 0
pressure (bar)	uptake (mmol/g)
0.123897	0.00468097
2.04659	0.0374541
3.00793	0.103
4.18776	0.212244
5.2365	0.40342
6.06675	0.643757
7.11549	0.916866
7.90205	1.18998
11.9659	1.88913
15.8987	2.27695
16.0735	2.30972
