Adsorption isotherm of Carbon Dioxide on MIL-53(Al)
DOI: 10.1021/La4027128
Adsorbate Carbon Dioxide: InChIKey CURLTUGMZLYLDI-UHFFFAOYSA-N
Temperature: 293 K
Tabular data in the source: 0
pressure (bar)	uptake (mmol/g)
0.00619484	0.0121718
0.0477074	0.713516
0.17006	1.70982
0.26401	1.92612
0.371069	2.07032
0.550228	2.26041
0.812413	2.40461
