Adsorption isotherm of Carbon monoxide on MIL-53(Al)
DOI: 10.1021/La4027128
Adsorbate Carbon monoxide: InChIKey UGFAIRIUMAVXCW-UHFFFAOYSA-N
Temperature: 293 K
Tabular data in the source: 0
pressure (bar)	uptake (mmol/g)
0.0561395	0.0319919
0.973787	0.288715
2.07496	0.556362
4.0632	1.02065
6.1432	1.403
8.10085	1.77989
10.2114	2.07485
12.0161	2.31519
