Adsorption isotherm of Oxygen on MIL-53(Al)
DOI: 10.1021/La4027128
Adsorbate Oxygen: InChIKey MYMOFIZGZYHOMD-UHFFFAOYSA-N
Temperature: 293 K
Tabular data in the source: 0
pressure (bar)	uptake (mmol/g)
0.0641594	0.0156053
2.09172	0.0265297
4.01441	0.245017
6.07693	0.714765
7.99962	1.30468
10.3418	1.84544
11.9848	2.05846
