Adsorption isotherm of Carbon Dioxide on MIL-53(Al)
DOI: 10.1021/La4027128
Adsorbate Carbon Dioxide: InChIKey CURLTUGMZLYLDI-UHFFFAOYSA-N
Temperature: 293 K
Tabular data in the source: 0
pressure (bar)	uptake (mmol/g)
0.0637473	0.119853
0.172991	0.382038
0.347781	1.30842
0.675512	2.30473
0.981394	2.56691
1.27635	2.75918
1.65871	2.91649
2.65282	3.26607
3.33013	3.47582
3.93097	3.58069
4.55366	3.70305
