Adsorption isotherm of Nitrogen on MIL-53(Al)
DOI: 10.1021/La4027128
Adsorbate Nitrogen: InChIKey IJGRMHOSHXDMSA-UHFFFAOYSA-N
Temperature: 293 K
Tabular data in the source: 0
pressure (bar)	uptake (mmol/g)
0.0801993	0.0265297
0.866754	0.239555
2.04659	0.441656
2.96423	0.638294
4.01297	0.829471
5.10541	1.02611
6.32894	1.17905
8.12054	1.45762
12.1407	1.93283
16.0298	2.32065
