Adsorption isotherm of Methane on MIL-53(Al)
DOI: 10.1021/La4027128
Adsorbate Methane: InChIKey VNWKTOKETHGBQD-UHFFFAOYSA-N
Temperature: 293 K
Tabular data in the source: 0
pressure (bar)	uptake (mmol/g)
0.0278768	0.0101432
0.165524	0.119387
0.391658	0.266866
0.70628	0.50174
1.10939	0.725689
1.36502	0.92779
2.05325	1.32107
3.03645	1.83998
4.02947	2.24964
