Adsorption isotherm of Methane on MIL-53(Al)
DOI: 10.1021/La4027128
Adsorbate Methane: InChIKey VNWKTOKETHGBQD-UHFFFAOYSA-N
Temperature: 293 K
Tabular data in the source: 0
pressure (bar)	uptake (mmol/g)
0.00821291	0.0101432
0.666952	0.0265297
1.09956	0.124849
1.33552	0.288715
2.0041	1.17905
3.10527	1.82359
4.00981	2.2114
