Adsorption isotherm of Carbon monoxide on MIL-53(Al)
DOI: 10.1021/La4027128
Adsorbate Carbon monoxide: InChIKey UGFAIRIUMAVXCW-UHFFFAOYSA-N
Temperature: 293 K
Tabular data in the source: 0
pressure (bar)	uptake (mmol/g)
0.00219011	0.0187264
0.364005	0.025281
0.854291	0.025281
1.06666	0.0383903
