Adsorption isotherm of Oxygen on MIL-53(Al)
DOI: 10.1021/La4027128
Adsorbate Oxygen: InChIKey MYMOFIZGZYHOMD-UHFFFAOYSA-N
Temperature: 293 K
Tabular data in the source: 0
pressure (bar)	uptake (mmol/g)
0.00219011	0.0121718
0.710089	0.00561717
1.02995	0.025281
