Adsorption isotherm of Carbon Dioxide on MIL-53(Al)
DOI: 10.1021/La4027128
Adsorbate Carbon Dioxide: InChIKey CURLTUGMZLYLDI-UHFFFAOYSA-N
Temperature: 293 K
Tabular data in the source: 0
pressure (bar)	uptake (mmol/g)
0.00743381	0.0187264
0.0441397	0.720071
0.162123	1.71637
0.272241	1.93268
0.361383	2.07032
0.558022	2.23419
0.807098	2.40461
1.11648	2.55537
