Adsorption isotherm of Methane on MOF-74-Ni
DOI: 10.1007/s10934-010-9378-0
Adsorbate Methane: InChIKey VNWKTOKETHGBQD-UHFFFAOYSA-N
Temperature: 303 K
Tabular data in the source: 0
pressure (bar)	uptake (cm3(STP)/g)
4.90421	61.7647
15.0192	102.353
24.9042	117.647
34.7893	123.529
