Adsorption isotherm of Nitrogen on MOF-74-Ni
DOI: 10.1007/s10934-010-9378-0
Adsorbate Nitrogen: InChIKey IJGRMHOSHXDMSA-UHFFFAOYSA-N
Temperature: 77 K
Tabular data in the source: 0
pressure (bar)	uptake (cm3(STP)/g)
0.100696	0.188451
0.747757	0.490322
0.779457	0.549649
0.803705	1.50412
0.827935	-0.268717
0.87643	1.64022
0.900684	3.5038
0.924932	4.45827
0.947315	5.40925
0.964128	9.98617
0.971865	51.8188
0.973639	38.1858
0.976485	185.464
