Adsorption isotherm of Methane on MOF-74-Ni
DOI: 10.1007/s10934-010-9378-0
Adsorbate Methane: InChIKey VNWKTOKETHGBQD-UHFFFAOYSA-N
Temperature: 303 K
Tabular data in the source: 0
pressure (bar)	uptake (cm3(STP)/g)
0.14	3.88
0.27	7.73
0.4	11
0.53	14.53
0.67	17.99
0.8	21.26
0.93	24.4
1.07	27.61
1.2	30.7
34.2	156.99
