Adsorption isotherm of Methane on MOF-74-Ni
DOI: 10.1007/s10934-010-9378-0
Adsorbate Methane: InChIKey VNWKTOKETHGBQD-UHFFFAOYSA-N
Temperature: 303 K
Tabular data in the source: 0
pressure (bar)	uptake (cm3(STP)/g)
0.14	3.35
0.26	5.94123
0.4	9.08695
0.54	11.6491
0.67	14.3278
0.8	17.2399
0.93	19.5681
1.07	22.2463
1.2	24.6916
4.91	61.11
14.93	106.41
24.89	121.22
34.18	128.66
