Adsorption isotherm of Nitrogen on MOF-74-Ni
DOI: 10.1007/s10934-010-9378-0
Adsorbate Nitrogen: InChIKey IJGRMHOSHXDMSA-UHFFFAOYSA-N
Temperature: 77 K
Tabular data in the source: 0
pressure (bar)	uptake (cm3(STP)/g)
0.00389296	24.5527
0.00404432	47.2803
0.00510989	207.282
0.00605437	69.1022
0.0407641	240.985
0.0687594	244.674
0.106054	244.744
0.299988	245.107
0.449161	244.477
0.521862	240.977
0.594575	239.295
0.639329	239.378
0.689665	237.654
0.769843	236.895
0.822086	241.539
0.857516	241.605
0.902288	244.416
0.945208	249.042
0.969486	254.542
0.977011	264.556
