Adsorption isotherm of Nitrogen on MOF-74-Ni
DOI: 10.1007/s10934-010-9378-0
Adsorbate Nitrogen: InChIKey IJGRMHOSHXDMSA-UHFFFAOYSA-N
Temperature: 77 K
Tabular data in the source: 0
pressure (bar)	uptake (cm3(STP)/g)
0.00389296	24.5527
0.00472846	150.009
0.00615729	84.557
0.00889992	216.38
0.0127384	232.751
0.0276927	238.234
0.0426348	241.898
0.0650239	243.758
0.10419	244.74
0.150808	244.828
0.201168	246.74
0.253381	246.838
0.288811	246.904
0.344754	247.009
0.389508	247.093
0.441727	248.099
0.482745	247.267
0.521905	247.34
0.551734	246.487
0.596488	246.571
0.635642	245.735
0.672943	246.714
0.708361	244.962
0.74192	244.116
0.78108	244.189
0.809069	246.969
0.835176	247.018
0.851958	247.049
0.883671	248.927
0.906054	249.877
0.932167	250.835
0.950832	253.598
0.963922	259.077
0.977054	270.919
