Adsorption isotherm of Methane on CPO-27-Ni
DOI: 10.1007/s10934-010-9378-0
Adsorbate Methane: InChIKey VNWKTOKETHGBQD-UHFFFAOYSA-N
Temperature: 303 K
Tabular data in the source: 0
pressure (bar)	uptake (cm3(STP)/g)
4.90421	65.8824
14.8659	105.882
24.9042	119.412
34.7893	125.294
