Adsorption isotherm of Nitrogen on COF-18A
DOI: 10.1021/Cm061177g
Adsorbate Nitrogen: InChIKey IJGRMHOSHXDMSA-UHFFFAOYSA-N
Temperature: 77 K
Tabular data in the source: 0
pressure (bar)	uptake (cm3(STP)/g)
0.000362619	82.6772
0.00075632	172.441
0.00311852	111.024
0.00645462	271.654
0.00923125	304.724
0.0252279	351.969
0.0490572	385.039
0.104403	403.937
0.204465	418.11
0.301886	429.921
0.399295	439.37
0.499327	446.457
0.704652	460.63
0.904766	486.614
0.94972	536.22
0.978937	597.638
0.997513	633.071
