Adsorption isotherm of N-propane, Propene on ZIF-8
DOI: 10.1016/j.cej.2019.04.094
Article source: Table 1
Adsorbate N-propane: InChIKey ATUOYWHBWRKTHZ-UHFFFAOYSA-N
Adsorbate Propene: InChIKey QQONPFPTGQHPMA-UHFFFAOYSA-N
Kind: experiment
Temperature: 298 K
Tabular data in the source: 0
pressure (bar)	N-propane fraction	N-propane uptake (mmol/g)	Propene fraction	Propene uptake (mmol/g)	total uptake (mmol/g)
1.75	0.5	0.5	0.5	0.41	
1.75	0.875	0.67	0.125	0.07	
1.75	0.125	0.13	0.875	0.75	
