Adsorption isotherm of Propene on MUV-3
DOI: 10.1016/j.cej.2019.04.094
Article source: Figure 3c
Adsorbate Propene: InChIKey QQONPFPTGQHPMA-UHFFFAOYSA-N
Kind: experiment
Temperature: 298 K
Tabular data in the source: 0
pressure (bar)	uptake (mmol/g)
0.0256	0.118
0.0524	0.184
0.0786	0.242
0.104	0.308
0.129	0.398
0.199	0.59
0.28	0.727
0.336	0.791
0.415	0.862
0.481	0.907
0.538	0.943
0.595	0.974
0.661	1.01
0.727	1.03
0.796	1.06
0.863	1.08
0.931	1.1
0.993	1.12
1.06	1.14
1.13	1.15
1.2	1.17
