Adsorption isotherm of N-propane on MUV-3
DOI: 10.1016/j.cej.2019.04.094
Article source: Figure 3c
Adsorbate N-propane: InChIKey ATUOYWHBWRKTHZ-UHFFFAOYSA-N
Kind: experiment
Temperature: 298 K
Tabular data in the source: 0
pressure (bar)	uptake (mmol/g)
0.0256	0.105
0.0505	0.169
0.0793	0.223
0.102	0.267
0.127	0.314
0.196	0.434
0.265	0.565
0.327	0.665
0.404	0.751
0.482	0.818
0.53	0.853
0.597	0.892
0.663	0.927
0.729	0.955
0.796	0.981
0.859	1
0.926	1.03
0.996	1.04
1.08	1.07
1.13	1.08
1.19	1.09
