Adsorption isotherm of Propene on ZIF-67
DOI: 10.1016/j.cej.2019.04.094
Article source: Figure 3b
Adsorbate Propene: InChIKey QQONPFPTGQHPMA-UHFFFAOYSA-N
Kind: experiment
Temperature: 298 K
Tabular data in the source: 0
pressure (bar)	uptake (mmol/g)
0.026	0.106
0.0513	0.203
0.0792	0.293
0.105	0.362
0.128	0.429
0.195	0.608
0.266	0.824
0.316	1.05
0.329	1.13
0.365	1.39
0.394	1.54
0.439	1.78
0.463	1.95
0.501	2.18
0.528	2.32
0.579	2.55
0.6	2.63
0.66	2.81
0.731	2.98
0.805	3.11
0.875	3.22
0.928	3.28
0.997	3.36
1.06	3.42
1.13	3.48
1.19	3.52
