Adsorption isotherm of N-propane on ZIF-8
DOI: 10.1016/j.cej.2019.04.094
Article source: Figure 3a
Adsorbate N-propane: InChIKey ATUOYWHBWRKTHZ-UHFFFAOYSA-N
Kind: experiment
Temperature: 298 K
Tabular data in the source: 0
pressure (bar)	uptake (mmol/g)
0.0255	0.177
0.053	0.345
0.0805	0.468
0.107	0.589
0.128	0.673
0.18	0.893
0.194	0.95
0.242	1.18
0.261	1.29
0.296	1.52
0.327	1.73
0.365	1.96
0.399	2.14
0.452	2.35
0.471	2.42
0.529	2.58
0.595	2.72
0.662	2.82
0.727	2.91
0.796	2.98
0.862	3.03
0.94	3.09
0.998	3.14
1.06	3.18
1.13	3.23
1.19	3.26
