Adsorption isotherm of N-propane on ZIF-67
DOI: 10.1016/j.cej.2019.04.094
Article source: Figure 3b
Adsorbate N-propane: InChIKey ATUOYWHBWRKTHZ-UHFFFAOYSA-N
Kind: experiment
Temperature: 298 K
Tabular data in the source: 0
pressure (bar)	uptake (mmol/g)
0.0184	0.229
0.0266	0.309
0.0425	0.532
0.052	0.625
0.071	0.855
0.0773	0.931
0.0926	1.15
0.105	1.31
0.12	1.52
0.132	1.65
0.155	1.89
0.181	2.11
0.2	2.24
0.241	2.47
0.268	2.59
0.33	2.79
0.399	2.95
0.479	3.09
0.542	3.17
0.614	3.24
0.662	3.28
0.728	3.33
0.795	3.37
0.862	3.41
0.929	3.45
0.997	3.47
1.06	3.51
1.13	3.53
