Adsorption isotherm of Propene on ZIF-8
DOI: 10.1016/j.cej.2019.04.094
Article source: Figure 3a
Adsorbate Propene: InChIKey QQONPFPTGQHPMA-UHFFFAOYSA-N
Kind: experiment
Temperature: 298 K
Tabular data in the source: 0
pressure (bar)	uptake (mmol/g)
0.0255	0.161
0.0511	0.271
0.0766	0.378
0.105	0.492
0.129	0.605
0.165	0.843
0.194	1.07
0.225	1.32
0.253	1.53
0.262	1.6
0.299	1.83
0.331	1.98
0.38	2.21
0.402	2.31
0.459	2.51
0.485	2.58
0.529	2.69
0.598	2.82
0.662	2.92
0.735	3.02
0.794	3.09
0.862	3.17
0.929	3.23
0.998	3.3
1.06	3.35
1.13	3.39
1.2	3.42
