Adsorption isotherm of Methane on Coking Coal
DOI: 10.1111/j.1755-6724.2010.00347.x
Adsorbate Methane: InChIKey VNWKTOKETHGBQD-UHFFFAOYSA-N
Temperature: 303 K
Tabular data in the source: 0
pressure (bar)	uptake (cm3(STP)/g)
12.2605	8.22997
28.479	11.3953
53.3431	13.6563
78.1922	15.0129
103.602	15.3747
127.855	15.5556
149.22	15.7364
171.162	15.8269
186.748	15.646
200.024	15.4651
215.613	15.4651
