Adsorption isotherm of Methane on Anthracite
DOI: 10.1111/j.1755-6724.2010.00347.x
Adsorbate Methane: InChIKey VNWKTOKETHGBQD-UHFFFAOYSA-N
Temperature: 293 K
Tabular data in the source: 0
pressure (bar)	uptake (cm3(STP)/g)
10.2041	21.2634
27.7778	28.8844
53.8549	32.0833
79.3651	32.6478
103.741	32.3656
129.819	31.3306
151.361	30.2957
170.635	29.3548
191.043	28.6022
