Adsorption isotherm of Methane on Anthracite
DOI: 10.1111/j.1755-6724.2010.00347.x
Adsorbate Methane: InChIKey VNWKTOKETHGBQD-UHFFFAOYSA-N
Temperature: 303 K
Tabular data in the source: 0
pressure (bar)	uptake (cm3(STP)/g)
10.6776	17.2739
28.1015	23.5142
41.4227	26.0465
59.9328	28.1266
81.3208	29.6641
100.963	30.3876
121.18	30.9302
140.809	30.8398
155.819	30.7494
170.825	30.3876
185.833	30.2067
200.842	30.0258
222.2	29.7545
