Adsorption isotherm of Methane on Long Flame Coal
DOI: 10.1111/j.1755-6724.2010.00347.x
Adsorbate Methane: InChIKey VNWKTOKETHGBQD-UHFFFAOYSA-N
Temperature: 303 K
Tabular data in the source: 0
pressure (bar)	uptake (cm3(STP)/g)
14.4789	2.71318
27.7882	4.52196
53.8026	6.51163
78.0729	7.77778
104.069	8.68217
127.747	9.04393
150.274	9.58656
169.333	9.94832
186.657	10.1292
201.097	10.491
214.954	10.491
