Adsorption isotherm of Methane on Activated Carbon
DOI: 10.1111/j.1755-6724.2010.00347.x
Adsorbate Methane: InChIKey VNWKTOKETHGBQD-UHFFFAOYSA-N
Temperature: 303 K
Tabular data in the source: 0
pressure (bar)	uptake (cm3(STP)/g)
8.14788	49.1478
27.9523	78.1635
44.5697	87.6317
59.7602	91.2365
74.2359	92.3285
90.8916	91.1821
107.189	88.919
120.586	88.0576
127.83	86.9277
