Adsorption isotherm of Methane on Long Flame Coal
DOI: 10.1111/j.1755-6724.2010.00347.x
Adsorbate Methane: InChIKey VNWKTOKETHGBQD-UHFFFAOYSA-N
Temperature: 293 K
Tabular data in the source: 0
pressure (bar)	uptake (cm3(STP)/g)
15.3061	4.51613
28.9116	6.20968
54.4218	8.56183
79.3651	9.87903
103.741	10.7258
129.819	10.8199
150.794	11.0081
171.769	10.914
191.61	11.0081
210.884	10.8199
