Adsorption isotherm of Methane on Meager Coal
DOI: 10.1111/j.1755-6724.2010.00347.x
Adsorbate Methane: InChIKey VNWKTOKETHGBQD-UHFFFAOYSA-N
Temperature: 303 K
Tabular data in the source: 0
pressure (bar)	uptake (cm3(STP)/g)
10.5925	12.1189
27.9941	17.0026
53.4535	20.3488
79.4514	21.3437
103.129	21.7054
127.374	21.4341
151.043	21.2532
170.092	20.9819
189.138	20.5297
201.834	20.168
215.686	19.8966
