Adsorption isotherm of Hydrogen on CuBTC
DOI: 10.1016/j.ijhydene.2012.04.105
Adsorbate Hydrogen: InChIKey UFHFLCQGNIYNRP-UHFFFAOYSA-N
Temperature: 77 K
Tabular data in the source: 0
pressure (bar)	uptake (wt%)
0.0078313	0.186395
0.0185118	0.234769
0.0211387	0.283097
0.0396917	0.483357
0.0503558	0.545535
0.0849832	0.773495
0.109029	0.870259
0.135759	0.967038
0.16519	1.05003
0.189277	1.11228
0.245521	1.22304
0.272308	1.2715
0.333946	1.36158
0.400944	1.45859
0.47066	1.52801
0.535007	1.5974
0.602046	1.6599
0.669094	1.7155
0.73615	1.7642
0.797845	1.80597
0.87027	1.8547
0.931974	1.88956
0.999046	1.92446
1.06073	1.97313
1.09294	1.98021
1.13587	2.00116
