Adsorption isotherm of Hydrogen on CuBTC
DOI: 10.1016/j.ijhydene.2012.04.105
Adsorbate Hydrogen: InChIKey UFHFLCQGNIYNRP-UHFFFAOYSA-N
Temperature: 303 K
Tabular data in the source: 0
pressure (bar)	uptake (wt%)
0.897558	0.0252353
1.19261	0.0473605
2.53035	0.113695
3.278	0.13578
3.87	0.173701
5.07311	0.18625
5.81885	0.214664
6.87014	0.230391
7.92143	0.246119
8.8209	0.265025
10.1739	0.280726
11.3761	0.29644
12.731	0.305811
13.7813	0.324703
14.9844	0.337253
16.3384	0.349789
17.3907	0.362352
18.5947	0.371736
20.1005	0.381094
20.853	0.387355
22.2069	0.399891
25.2176	0.421771
26.5735	0.427977
31.8442	0.459146
33.351	0.465339
34.556	0.471559
