Adsorption isotherm of Hydrogen on CuBTC
DOI: 10.1016/j.ijhydene.2012.04.105
Adsorbate Hydrogen: InChIKey UFHFLCQGNIYNRP-UHFFFAOYSA-N
Temperature: 353 K
Tabular data in the source: 0
pressure (bar)	uptake (wt%)
0.75472	0.00942543
1.35696	0.0220292
2.71296	0.0472231
4.22144	0.0692386
6.18448	0.091213
7.69296	0.113228
9.20048	0.138409
11.9192	0.166644
14.7894	0.194865
17.2051	0.223128
19.6227	0.245061
22.6473	0.263775
23.2505	0.273214
24.6113	0.282585
28.0896	0.304422
30.6596	0.323177
31.4163	0.326273
32.9296	0.332466
34.7449	0.341795
