Adsorption isotherm of Hydrogen on CuBTC
DOI: 10.1016/j.ijhydene.2012.04.105
Adsorbate Hydrogen: InChIKey UFHFLCQGNIYNRP-UHFFFAOYSA-N
Temperature: 77 K
Tabular data in the source: 0
pressure (bar)	uptake (wt%)
0.0239056	0.214095
0.0477866	0.448894
0.0904181	0.718311
0.114464	0.815076
0.138501	0.918741
0.16524	1.00862
0.192003	1.07779
0.218774	1.14006
0.245562	1.18853
0.275018	1.25081
0.336639	1.3547
0.406346	1.43102
0.470677	1.51421
0.535032	1.5767
0.599387	1.63918
0.666434	1.69478
0.736175	1.7435
0.803231	1.7922
0.867619	1.82708
0.932007	1.86196
0.999079	1.89685
1.06615	1.93175
1.0903	1.94569
1.13055	1.95972
