Adsorption isotherm of Hydrogen on CuBTC
DOI: 10.1016/j.ijhydene.2012.04.105
Adsorbate Hydrogen: InChIKey UFHFLCQGNIYNRP-UHFFFAOYSA-N
Temperature: 77 K
Tabular data in the source: 0
pressure (bar)	uptake (wt%)
0.0109439	0.110769
0.0137464	0.193846
0.0192183	0.249231
0.0356757	0.45
0.0438669	0.519231
0.0846736	0.740769
0.109139	0.858462
0.136274	0.948462
0.166121	1.04538
0.190528	1.11462
0.21763	1.17692
0.244732	1.23923
0.271817	1.28769
0.336807	1.39154
0.404482	1.48154
0.47215	1.56462
0.537098	1.63385
0.607435	1.68923
0.672374	1.75154
0.739992	1.79308
0.807617	1.84154
0.86983	1.88308
0.94015	1.92462
1.00506	1.95923
1.07267	1.99385
1.09971	2.00769
1.14027	2.02154
