Adsorption isotherm of Hydrogen on Filtrasorb 400
DOI: 10.1007/s10450-020-00289-2
Article source: Figure 3
Adsorbate Hydrogen: InChIKey UFHFLCQGNIYNRP-UHFFFAOYSA-N
Kind: experiment
Isotherm type: absolute
Temperature: 296 K
Tabular data in the source: 0
pressure (bar)	uptake (wt%)
0	0.02308
46.7365	0.87692
96.6962	1.61538
196.616	2.64231
296.535	3.42692
396.454	4.02692
499.597	4.51154
704.271	4.89231
907.333	5.11154
1053.99	5.26154
1152.3	5.36538
1253.83	5.44615
1352.14	5.49231
1453.67	5.53846
1555.2	5.55
1653.51	5.53846
1740.53	5.52692
1805	5.51538
1854.96	5.51538
1892.02	5.51538
