Adsorption isotherm of Hydrogen on Filtrasorb 400
DOI: 10.1007/s10450-020-00289-2
Article source: Figure 3
Adsorbate Hydrogen: InChIKey UFHFLCQGNIYNRP-UHFFFAOYSA-N
Kind: experiment
Isotherm type: excess
Temperature: 296 K
Tabular data in the source: 0
pressure (bar)	uptake (wt%)
0	0.02308
45.1249	0.40385
96.6962	0.66923
196.616	0.83077
296.535	0.84231
398.066	0.78462
497.986	0.65769
704.271	-0.08077
905.721	-0.76154
1053.99	-1.18846
1152.3	-1.43077
1253.83	-1.69615
1352.14	-1.98462
1453.67	-2.26154
1553.59	-2.55
1655.12	-2.86154
1740.53	-3.11538
1805	-3.3
1854.96	-3.42692
1892.02	-3.53077
