Adsorption isotherm of Nitrogen on Pc-PBBA COF
DOI: 10.1038/nchem.695
Article source: Figure 5
Adsorbate Nitrogen: InChIKey IJGRMHOSHXDMSA-UHFFFAOYSA-N
Kind: experiment
Temperature: 77 K
Tabular data in the source: 0
pressure (bar)	uptake (cm3(STP)/g)
0.012372	56.4706
0.021653	63.0588
0.029394	70.5882
0.035575	75.2941
0.043316	81.8823
0.049497	84.7059
0.058789	87.5294
0.06497	88.4706
0.072711	89.4118
0.080442	91.2941
0.088953	92.2353
0.095914	94.1177
0.103645	94.1177
0.112927	95.0588
0.119118	96.9412
0.126849	96.9412
0.13458	96.9412
0.142321	97.8823
0.150052	99.2941
0.157793	100.235
0.165525	100.706
0.173256	101.647
0.179447	101.647
0.187178	102.118
0.194919	102.588
0.20265	103.529
0.215022	103.529
0.227404	104.471
0.240546	104.941
0.252927	105.882
0.266079	106.353
0.278451	107.294
0.290823	107.765
0.303205	108.235
0.316347	108.235
0.329499	110.118
0.341871	110.118
0.354252	110.118
0.365854	112
0.380546	112
0.392928	112.941
0.4053	113.882
0.417672	114.824
0.431594	114.824
0.443976	115.765
0.455577	116.235
0.467949	117.647
0.480331	118.118
0.493473	118.588
0.506625	119.529
0.519777	120
0.532149	120
0.544521	121.412
0.556902	121.412
0.569274	122.353
0.581656	122.824
0.594798	123.765
0.60795	124.706
0.619552	125.176
0.631153	126.118
0.645075	126.118
0.657447	127.059
0.671379	128.941
0.683751	128.941
0.696123	130.824
0.710045	130.824
0.719326	131.765
0.728608	132.706
0.739439	134.588
0.754912	135.529
0.764193	136.941
0.773475	137.412
0.781206	138.353
0.790487	139.294
0.799768	140.235
0.80905	141.176
0.816791	142.118
0.824522	144
0.836124	144.941
0.847725	146.824
0.858557	148.706
0.866288	149.647
0.87867	152.471
0.887952	154.353
0.901874	157.176
0.909605	159.059
0.917336	160.941
0.923527	162.824
0.929718	165.647
0.937449	169.412
0.94364	172.235
0.951371	176.941
0.959102	181.647
0.964523	186.824
0.968393	192.471
0.973034	195.765
0.976125	202.353
0.980765	208.941
0.985406	212.706
0.985406	216.471
0.988496	222.118
0.988496	225.882
0.993137	233.412
0.996238	242.824
0.997778	255.059
0.999328	272.941
1.00242	297.412
1.00397	318.118
1.00552	335.059
1.00552	357.176
0.009281	68.2353
0.019333	79.5294
0.027844	84.7059
0.035575	91.2941
0.044087	97.8823
0.052598	100.706
0.063429	104
0.078892	106.353
0.088173	107.294
0.099775	109.176
0.116017	110.118
0.128399	112
0.140771	112.941
0.153153	114.824
0.166295	114.824
0.177896	116.235
0.190278	117.647
0.20574	117.647
0.215022	117.647
0.228944	118.588
0.239775	119.529
0.255248	120.471
0.266079	121.412
0.280002	121.412
0.289283	123.294
0.301655	123.294
0.317897	123.765
0.329499	124.235
0.3411	124.706
0.355803	124.706
0.367404	125.647
0.378226	126.118
0.392928	127.529
0.40375	127.059
0.419222	128.941
0.430054	129.882
0.442425	130.824
0.456348	132.706
0.467179	135.529
0.481101	137.412
0.491933	137.412
0.507395	138.353
0.515136	139.294
0.519777	139.294
0.527508	139.294
0.544521	140.235
0.553802	140.235
0.570825	142.118
0.583196	141.176
0.596348	142.118
0.60718	143.059
0.621872	143.059
0.631153	144
0.643525	144
0.657447	145.882
0.669829	145.882
0.686842	145.882
0.697673	146.824
0.706955	146.824
0.714686	147.765
0.720877	148.235
0.730158	147.765
0.739439	150.588
0.747951	150.588
0.762643	151.529
0.773475	152.471
0.784306	152.471
0.792037	152.471
0.799768	153.882
0.80905	154.824
0.816791	155.294
0.827612	156.235
0.835354	156.235
0.846175	158.118
0.855457	159.059
0.863198	160
0.872479	160.941
0.87867	161.882
0.887952	162.824
0.892592	164.706
0.901874	166.588
0.909605	169.412
0.917336	171.294
0.923527	172.235
0.934358	175.059
0.938999	176.941
0.94518	178.824
0.951371	182.588
0.959102	188.235
0.965293	192
0.969934	197.647
0.974574	204.235
0.977675	208.941
0.980765	213.647
0.980765	217.412
0.982315	221.176
0.985406	226.824
0.988496	239.059
0.990817	245.647
0.993137	261.647
0.997778	286.118
0.999328	301.176
1.00088	314.353
1.00242	336
1.00474	350.588
1.00552	366.118
1.00706	377.412
