Adsorption isotherm of Nitrogen on CH3CO2-
DOI: 10.1021/Ic200560b
Adsorbate Nitrogen: InChIKey IJGRMHOSHXDMSA-UHFFFAOYSA-N
Temperature: 77 K
Tabular data in the source: 0
pressure (bar)	uptake (cm3(STP)/g)
0.00266901	96.0366
0.00533802	105.64
0.00800703	112.043
0.0133451	116.616
0.0160141	119.817
0.0266901	121.189
0.0507112	125.305
0.0827393	126.677
0.117436	128.049
0.157472	128.963
0.186831	129.421
0.208183	129.878
0.234873	129.878
0.282915	130.793
0.341633	130.793
0.395014	130.793
0.419035	131.25
0.445725	131.25
0.472415	131.25
0.499105	131.25
0.525795	131.25
0.552485	131.25
0.579175	131.25
0.605865	131.25
0.632556	131.25
0.64857	130.335
0.795365	130.335
0.870098	130.793
0.894119	131.25
0.920809	131.25
0.934154	131.707
0.947499	138.11
0.960844	144.055
0.968851	147.713
