Adsorption isotherm of Nitrogen on C2H5COO-
DOI: 10.1021/Ic200560b
Adsorbate Nitrogen: InChIKey IJGRMHOSHXDMSA-UHFFFAOYSA-N
Temperature: 77 K
Tabular data in the source: 0
pressure (bar)	uptake (cm3(STP)/g)
0.00266901	0.00266901
0.010676	66.311
0.0160141	68.5976
0.0266901	71.3415
0.0533802	73.628
0.0640563	75
0.0800703	75.9146
0.0960844	76.8293
0.122775	77.2866
0.149465	78.2012
0.176155	78.6585
0.202845	79.1159
0.226866	79.5732
0.253556	79.5732
0.280246	80.0305
0.306936	80.0305
0.333626	80.0305
0.365655	80.4878
0.392345	80.4878
0.416366	80.9451
0.443056	80.9451
0.469746	80.9451
0.496436	80.9451
0.581844	80.9451
0.600527	81.4024
0.608535	81.8598
0.635225	81.8598
0.661915	81.8598
0.688605	81.8598
0.715295	81.8598
0.741985	81.8598
0.8354	82.3171
0.870098	82.7744
0.896788	83.689
0.928816	84.1463
0.952837	85.5183
0.960844	88.7195
0.966182	91.9207
