Adsorption isotherm of Nitrogen on C4H7O2-
DOI: 10.1021/Ic200560b
Adsorbate Nitrogen: InChIKey IJGRMHOSHXDMSA-UHFFFAOYSA-N
Temperature: 77 K
Tabular data in the source: 0
pressure (bar)	uptake (cm3(STP)/g)
0.00266901	43.4451
0.00533802	47.1037
0.010676	49.3902
0.0346971	49.8476
0.0560492	50.7622
0.0854084	51.2195
0.112098	51.6768
0.138789	52.1341
0.165479	52.1341
0.1895	52.5915
0.21619	52.5915
0.24288	53.0488
0.26957	53.0488
0.29626	53.0488
0.32295	53.0488
0.34964	53.5061
0.376331	53.5061
0.403021	53.5061
0.429711	53.5061
0.456401	53.5061
0.475084	53.9634
0.501774	53.9634
0.528464	53.9634
0.555154	53.9634
0.581844	54.4207
0.608535	54.4207
0.635225	54.4207
0.661915	54.4207
0.688605	54.4207
0.717964	54.878
0.744654	54.878
0.771344	54.878
0.798034	54.878
0.862091	56.25
0.888781	56.7073
0.915471	57.1646
0.928816	58.0793
0.947499	59.4512
0.958175	60.3659
0.966182	61.7378
