Adsorption isotherm of Nitrogen on C5H9O2-
DOI: 10.1021/Ic200560b
Adsorbate Nitrogen: InChIKey IJGRMHOSHXDMSA-UHFFFAOYSA-N
Temperature: 77 K
Tabular data in the source: 0
pressure (bar)	uptake (cm3(STP)/g)
0.010676	1.37195
0.0373662	1.82927
0.0640563	2.28659
0.0880774	2.28659
0.114767	2.7439
0.141458	2.7439
0.168148	3.20122
0.194838	3.20122
0.221528	3.20122
0.248218	3.20122
0.274908	3.20122
0.301598	3.20122
0.328288	3.20122
0.354978	3.20122
0.381669	3.20122
0.408359	3.20122
0.435049	3.20122
0.461739	3.20122
0.488429	3.20122
0.515119	3.20122
0.541809	3.20122
0.568499	3.20122
0.595189	3.20122
0.62188	3.20122
0.64857	2.7439
0.67526	2.7439
0.70195	2.7439
0.72864	2.7439
0.75533	2.7439
0.78202	2.7439
0.80871	3.20122
0.8354	3.20122
0.862091	3.20122
0.886112	4.11585
0.912802	4.57317
0.934154	6.40244
0.950168	9.14634
0.958175	11.8902
