Adsorption isotherm of Nitrogen on [PF6âˆ’]100-TPB-BPTA-COF
DOI: 10.1021/jacs.1c03268
Article source: Figure 1F
Adsorbate Nitrogen: InChIKey IJGRMHOSHXDMSA-UHFFFAOYSA-N
Kind: experiment
Temperature: 77 K
Tabular data in the source: 0
pressure (bar)	uptake (cm3(STP)/g)
0.021831	39.2571
0.029007	41.1812
0.058048	50.8552
0.092234	50.5879
0.122662	48.3699
0.163685	48.0492
0.204708	47.7285
0.249826	51.3362
0.284689	55.0241
0.32605	56.6809
0.34998	56.4939
0.397502	54.1422
0.42793	51.9241
0.468953	51.6034
0.49972	51.3629
0.520232	51.2026
0.578347	50.7483
0.622789	50.4009
0.653556	50.1603
0.694917	51.8172
0.729103	51.55
0.781735	59.0593
0.823096	60.7162
0.858297	66.3816
0.903416	69.9893
0.93178	75.7082
0.953645	83.458
0.968673	91.2614
0.995311	106.895
1.01714	134.447
1.01572	166.141
1.03552	181.828
1.02293	148.263
0.029684	45.1363
0.040955	50.9888
0.068981	54.7301
0.110003	54.4094
0.154445	54.062
0.229653	53.4741
0.312376	56.7878
0.384166	56.2266
0.46039	61.5714
0.536614	66.9161
0.601566	66.4083
0.638832	64.1368
0.707204	63.6024
0.765658	65.1256
0.796763	66.8626
0.828207	70.5772
0.870922	80.1443
0.895529	83.9123
0.931069	91.5553
0.967962	107.108
0.983668	118.867
1.01064	136.478
1.02117	177.98
