Adsorption isotherm of Water on [OHâ€“]50-TPB-BPTA-COF
DOI: 10.1021/jacs.1c03268
Article source: Figure S18a
Adsorbate Water: InChIKey XLYOFNOQVPJJNP-UHFFFAOYSA-N
Kind: experiment
Temperature: 298 K
Tabular data in the source: 0
pressure (bar)	uptake (g/g)
0.00035	0.018037
0.000785	0.021237
0.001917	0.027568
0.002788	0.032311
0.003484	0.035442
0.004268	0.03855
0.005138	0.041635
0.007401	0.047668
0.008359	0.055703
0.009056	0.058834
0.010449	0.065096
0.012015	0.071313
0.01306	0.079325
0.014366	0.087267
0.014889	0.093759
0.015673	0.100183
0.016543	0.106583
0.016979	0.113098
0.018286	0.130985
0.018895	0.137454
0.020028	0.1471
0.020811	0.153523
0.022466	0.166346
0.024033	0.175878
0.025077	0.178917
0.025339	0.180506
0.027342	0.206497
0.028126	0.221207
0.028475	0.226087
0.028301	0.232763
0.02717	0.228089
0.026125	0.220077
0.02508	0.217038
0.024209	0.20898
0.02299	0.202672
0.022294	0.197883
0.021336	0.191506
0.02064	0.188375
0.02003	0.185221
0.01916	0.182136
0.018289	0.180708
0.01768	0.175896
0.016984	0.174422
0.016548	0.169565
0.015677	0.164822
0.015155	0.159988
0.01411	0.151976
0.013675	0.147118
0.01289	0.135723
0.011584	0.117836
0.010451	0.104875
0.009145	0.09196
0.008187	0.08061
0.006794	0.069375
0.005575	0.059752
0.003833	0.051924
0.003572	0.050336
0.002702	0.045593
0.002179	0.040758
0.001134	0.027775
