Adsorption isotherm of Water on [PF6â€“]100-TPB-BPTA-COF
DOI: 10.1021/jacs.1c03268
Article source: Figure S18b
Adsorbate Water: InChIKey XLYOFNOQVPJJNP-UHFFFAOYSA-N
Kind: experiment
Temperature: 298 K
Tabular data in the source: 0
pressure (bar)	uptake (g/g)
0.001182	0.015414
0.001604	0.02005
0.00236	0.019937
0.003116	0.019824
0.003704	0.019736
0.004712	0.021152
0.00547	0.024172
0.007237	0.03174
0.008832	0.029935
0.010516	0.039082
0.011696	0.048305
0.012963	0.063782
0.013892	0.076175
0.014402	0.091765
0.015082	0.108896
0.015759	0.121327
0.016605	0.136866
0.01762	0.15238
0.018631	0.158495
0.019724	0.163031
0.020567	0.169172
0.021915	0.178369
0.02242	0.179861
0.02385	0.185913
0.025197	0.191978
0.026376	0.199634
0.027385	0.202616
0.028479	0.207152
0.026885	0.212091
0.025289	0.212329
0.02411	0.204673
0.022848	0.200162
0.022176	0.198696
0.021586	0.195651
0.020576	0.191102
0.020071	0.188045
0.019061	0.183496
0.018472	0.182018
0.017546	0.17589
0.016788	0.171304
0.015776	0.162055
0.014681	0.155953
0.014091	0.151341
0.0135	0.143597
0.012993	0.137406
0.011466	0.100037
0.009775	0.075225
0.00834	0.058207
0.006318	0.04441
0.004298	0.035313
0.003204	0.030777
0.002027	0.02782
