Adsorption isotherm of Nitrogen on [HCîƒ‰C]100-TPB-BPTA-COF
DOI: 10.1021/jacs.1c03268
Article source: Figure 1F
Adsorbate Nitrogen: InChIKey IJGRMHOSHXDMSA-UHFFFAOYSA-N
Kind: experiment
Temperature: 77 K
Tabular data in the source: 0
pressure (bar)	uptake (cm3(STP)/g)
0.031715	57.0016
0.034423	72.822
0.04258	100.481
0.040143	126.243
0.046946	145.991
0.060587	165.687
0.07047	183.431
0.08411	203.127
0.097074	218.867
0.10936	230.652
0.130176	252.272
0.157491	271.86
0.187547	287.467
0.206671	299.198
0.241838	324.666
0.251045	338.455
0.268442	360.102
0.311428	411.251
0.36335	434.607
0.414628	434.206
0.470341	439.711
0.515121	441.342
0.55682	444.976
0.60468	444.602
0.646042	446.259
0.683646	445.965
0.724669	445.644
0.7838	451.122
0.835755	454.677
0.867199	458.391
0.905819	464.03
0.955033	471.566
0.997748	481.133
1.02645	488.829
1.05478	514.351
1.06944	539.979
1.07962	579.503
1.09973	616.97
1.11232	650.534
1.11946	672.261
0.283437	387.707
0.330518	442.785
0.388972	444.308
0.462116	451.657
0.503477	453.314
0.537663	453.047
0.58928	454.623
0.655587	462.026
0.710622	463.576
0.745485	467.263
0.804616	472.742
0.849396	474.372
0.887338	476.056
0.90169	479.904
0.947146	485.489
0.998391	504.89
1.04073	532.282
1.07516	593.399
1.10755	642.651
