Adsorption isotherm of Nitrogen on [OHâˆ’]50-TPB-BPTA-COF
DOI: 10.1021/jacs.1c03268
Article source: Figure 1F
Adsorbate Nitrogen: InChIKey IJGRMHOSHXDMSA-UHFFFAOYSA-N
Kind: experiment
Temperature: 77 K
Tabular data in the source: 0
pressure (bar)	uptake (cm3(STP)/g)
0.026232	64.9653
0.033035	84.7141
0.045321	96.4992
0.057608	108.284
0.069894	120.069
0.082181	131.855
0.086953	139.738
0.098225	145.591
0.114268	159.327
0.140906	174.96
0.170624	188.589
0.193166	200.294
0.208871	212.052
0.23209	227.712
0.240281	235.569
0.248134	241.448
0.257002	253.26
0.265531	263.095
0.280898	272.875
0.30652	282.576
0.334884	288.295
0.359491	292.063
0.393677	291.796
0.441537	291.422
0.472981	295.136
0.520841	294.762
0.555365	296.472
0.592969	296.179
0.654503	295.697
0.702363	295.323
0.716376	297.194
0.785763	302.592
0.83738	304.169
0.882837	309.754
0.917361	311.464
0.962479	315.072
0.994262	320.764
1.01098	338.455
1.02259	346.285
1.04239	361.972
1.05603	381.668
1.06317	403.394
1.07407	427.071
0.077679	165.553
0.108413	185.115
0.163753	208.445
0.197566	226.002
0.228638	247.541
0.278495	278.835
0.297957	292.544
0.355362	307.937
0.414154	311.438
0.476704	316.889
0.538577	318.386
0.600111	317.905
0.631555	321.619
0.690009	323.143
0.751543	322.662
0.817512	328.087
0.862291	329.717
0.900911	335.355
0.939192	339.017
0.974732	346.66
1.00787	360.262
1.0451	377.793
1.06043	407.376
1.0737	444.896
