Adsorption isotherm of Water on [HCoC]50-TPB-BPTA-COF
DOI: 10.1021/jacs.1c03268
Article source: Figure S18a
Adsorbate Water: InChIKey XLYOFNOQVPJJNP-UHFFFAOYSA-N
Kind: experiment
Temperature: 298 K
Tabular data in the source: 0
pressure (bar)	uptake (g/g)
0.000698	0.02126
0.002004	0.020915
0.002613	0.020755
0.003048	0.02064
0.004005	0.01873
0.004615	0.021884
0.006007	0.021517
0.00766	0.021081
0.009401	0.022279
0.011229	0.020139
0.013057	0.026287
0.013753	0.022788
0.014884	0.025805
0.015493	0.025644
0.016451	0.025392
0.017147	0.025208
0.018278	0.02491
0.019497	0.027903
0.020367	0.034303
0.021238	0.039046
0.022109	0.047104
0.022894	0.066786
0.023765	0.088103
0.025173	0.294914
0.027014	0.478406
0.028763	0.598939
0.027806	0.599192
0.026848	0.59613
0.025978	0.591387
0.025107	0.581672
0.023713	0.558835
0.023189	0.542399
0.022317	0.517767
0.021356	0.470783
0.020745	0.445253
0.019785	0.409042
0.019	0.372786
0.018126	0.326607
0.01751	0.232295
0.016545	0.123157
0.016105	0.063604
0.014973	0.047328
0.014102	0.039271
0.013492	0.036117
0.012883	0.03462
0.012187	0.031489
0.011229	0.028426
