Adsorption isotherm of Water on [HCoC]100-TPB-BPTA-COF
DOI: 10.1021/jacs.1c03268
Article source: Figure S18b
Adsorbate Water: InChIKey XLYOFNOQVPJJNP-UHFFFAOYSA-N
Kind: experiment
Temperature: 298 K
Tabular data in the source: 0
pressure (bar)	uptake (g/g)
0.001101	0.021692
0.00236	0.021504
0.003411	0.022913
0.004124	0.02124
0.004965	0.02268
0.005553	0.022593
0.006814	0.023971
0.008326	0.023744
0.009754	0.023531
0.011182	0.023317
0.012359	0.026274
0.013114	0.024595
0.014039	0.027589
0.014879	0.027464
0.015551	0.027363
0.016307	0.02725
0.017567	0.027062
0.018241	0.030094
0.019419	0.034618
0.020008	0.039229
0.020766	0.043815
0.021274	0.051572
0.022204	0.065533
0.023069	0.1265
0.023765	0.182792
0.023607	0.206315
0.025468	0.43789
0.027168	0.4862
0.02861	0.517316
0.02693	0.517567
0.02575	0.508344
0.023976	0.485111
0.023129	0.468005
0.022108	0.436826
0.021336	0.40091
0.02072	0.332073
0.020016	0.256982
0.018981	0.192908
0.018629	0.153796
0.01752	0.114797
0.016923	0.092954
0.01624	0.067991
0.015395	0.055585
0.014635	0.046299
0.01413	0.043242
0.013204	0.03868
0.011018	0.034308
0.00959	0.032955
0.008328	0.03001
0.006814	0.023971
0.005384	0.019485
