Adsorption isotherm of Nitrogen on [PF6âˆ’]50-TPB-BPTA-COF
DOI: 10.1021/jacs.1c03268
Article source: Figure 1F
Adsorbate Nitrogen: InChIKey IJGRMHOSHXDMSA-UHFFFAOYSA-N
Kind: experiment
Temperature: 77 K
Tabular data in the source: 0
pressure (bar)	uptake (cm3(STP)/g)
0.025555	61.0102
0.038518	76.7504
0.049078	98.45
0.065799	116.141
0.080793	143.747
0.094434	163.442
0.106686	195.029
0.11657	212.774
0.132952	228.487
0.167442	250
0.187243	265.687
0.217638	283.271
0.237777	300.935
0.249386	308.765
0.268171	318.52
0.300969	330.144
0.358374	345.537
0.389818	349.252
0.444515	348.824
0.479378	352.512
0.513902	354.222
0.555263	355.879
0.613718	357.402
0.634229	357.242
0.675929	360.877
0.72037	360.529
0.769584	368.065
0.810607	367.745
0.845131	369.455
0.910084	368.947
0.969892	378.381
0.991419	384.153
1.0143	397.835
1.03684	409.54
1.05698	427.205
1.05901	439.07
1.0648	452.886
1.06785	470.684
1.07942	498.316
1.08386	504.222
0.153734	269.909
0.18071	287.52
0.214862	307.055
0.25619	328.514
0.286246	344.121
0.328961	353.688
0.360405	357.402
0.384335	357.215
0.419536	362.881
0.457817	366.542
0.485166	366.328
0.52277	366.034
0.578144	369.562
0.615748	369.268
0.650611	372.956
0.685474	376.643
0.729915	376.296
0.767519	376.002
0.812638	379.61
0.84442	385.302
0.913468	388.723
0.955845	396.312
1.01735	415.633
1.03677	449.145
1.06747	488.509
