Adsorption isotherm of Nitrogen on [OHâˆ’]100-TPB-BPTA-COF
DOI: 10.1021/jacs.1c03268
Article source: Figure 1F
Adsorbate Nitrogen: InChIKey IJGRMHOSHXDMSA-UHFFFAOYSA-N
Kind: experiment
Temperature: 77 K
Tabular data in the source: 0
pressure (bar)	uptake (cm3(STP)/g)
0.035844	41.1277
0.035844	41.1277
0.063531	42.8915
0.101135	42.5975
0.138401	40.326
0.183181	41.9562
0.196855	41.8493
0.23446	41.5553
0.262147	43.3191
0.299751	43.0251
0.316844	42.8915
0.354448	42.5975
0.423158	44.0406
0.467599	43.6932
0.512041	43.3458
0.553063	43.0251
0.604342	42.6243
0.651863	40.2726
0.72125	45.6708
0.800216	47.0337
0.85867	48.5569
0.87952	50.3741
0.911302	56.0663
0.929072	59.8878
0.95026	63.6825
0.981332	85.2218
0.995649	108.872
1.00452	120.684
1.00997	132.523
1.01129	160.235
1.01569	185.943
0.331533	48.7173
0.422819	42.0631
0.488111	43.5329
0.546226	43.0786
0.6016	46.6061
0.660393	50.1069
0.725684	51.5767
0.75987	51.3095
0.818324	52.8327
0.853525	58.4981
0.881551	62.2394
0.924604	73.7841
0.939294	79.6098
0.966609	99.1983
0.982652	112.934
0.997308	138.562
1.00719	156.307
1.02835	179.904
