Adsorption isotherm of Nitrogen on [HCîƒ‰C]50-TPB-BPTA-COF
DOI: 10.1021/jacs.1c03268
Article source: Figure 1F
Adsorbate Nitrogen: InChIKey IJGRMHOSHXDMSA-UHFFFAOYSA-N
Kind: experiment
Temperature: 77 K
Tabular data in the source: 0
pressure (bar)	uptake (cm3(STP)/g)
0.026942	49.1181
0.029312	62.961
0.031681	76.8038
0.03405	90.6467
0.0395	102.485
0.049045	118.252
0.058928	135.997
0.065054	151.79
0.066747	161.678
0.079372	175.441
0.087901	185.275
0.093351	197.114
0.095381	208.979
0.097412	220.844
0.106957	236.611
0.116502	252.378
0.132207	264.137
0.148251	277.873
0.163956	289.631
0.187852	309.246
0.203219	319.027
0.230533	338.616
0.253414	352.298
0.273215	367.985
0.307603	448.904
0.346494	496.125
0.367682	499.92
0.411074	513.442
0.45995	519.001
0.526256	526.403
0.505745	526.563
0.591548	527.873
0.657516	533.298
0.691702	533.03
0.743657	536.585
0.795951	542.117
0.834571	547.755
0.890283	553.26
0.93882	556.841
0.992129	568.306
1.0362	585.783
1.07478	611.224
1.08362	642.838
1.1003	680.331
1.11632	713.87
1.13229	767.21
0.245189	364.244
0.311327	470.657
0.355023	505.959
0.39124	517.557
0.429183	519.241
0.481477	524.773
0.519758	528.434
0.568295	532.015
0.628103	541.448
0.683138	542.998
0.732352	550.534
0.784307	554.089
0.849937	557.536
0.901893	561.09
0.934352	570.738
0.985258	588.161
1.05424	631.187
1.06067	668.76
1.08931	716.061
1.10839	747.595
