Adsorption isotherm of Water on [OHâ€“]100-TPB-BPTA-COF
DOI: 10.1021/jacs.1c03268
Article source: Figure S18b
Adsorbate Water: InChIKey XLYOFNOQVPJJNP-UHFFFAOYSA-N
Kind: experiment
Temperature: 298 K
Tabular data in the source: 0
pressure (bar)	uptake (g/g)
0.000428	0.020226
0.000682	0.024888
0.001524	0.029462
0.002787	0.037106
0.003881	0.041642
0.004386	0.044699
0.005059	0.046165
0.006575	0.055338
0.008425	0.061327
0.010279	0.075149
0.011625	0.079648
0.01255	0.082642
0.013644	0.085612
0.014653	0.088594
0.01558	0.094722
0.016338	0.099308
0.017264	0.105436
0.018274	0.109985
0.018863	0.11303
0.0192	0.114546
0.020465	0.125323
0.021309	0.134596
0.02232	0.142278
0.023584	0.151488
0.024258	0.156087
0.025437	0.163743
0.026536	0.179245
0.027467	0.197904
0.028316	0.218143
0.028655	0.225925
0.027139	0.215186
0.025957	0.20283
0.024861	0.192028
0.023767	0.187492
0.022589	0.182968
0.02141	0.175312
0.020231	0.169222
0.019725	0.164598
0.018799	0.15847
0.01821	0.156992
0.0172	0.152443
0.016694	0.147819
0.015348	0.14332
0.014506	0.138747
0.013496	0.132632
0.01299	0.129574
0.012822	0.128033
0.010882	0.109524
0.009958	0.109662
0.00861	0.100464
0.007093	0.089725
0.00524	0.07747
0.003973	0.060427
0.003382	0.054249
0.002539	0.046542
0.001612	0.038848
