Adsorption isotherm of Water on [PF6â€“]50-TPB-BPTA-COF
DOI: 10.1021/jacs.1c03268
Article source: Figure S18a
Adsorbate Water: InChIKey XLYOFNOQVPJJNP-UHFFFAOYSA-N
Kind: experiment
Temperature: 298 K
Tabular data in the source: 0
pressure (bar)	uptake (g/g)
0.000872	0.019556
0.00183	0.022619
0.0027	0.022389
0.003396	0.022205
0.003918	0.023725
0.004963	0.026764
0.006095	0.031438
0.008184	0.034202
0.009054	0.037288
0.010185	0.036989
0.012187	0.041433
0.013145	0.049468
0.013755	0.052622
0.0148	0.060634
0.015409	0.065445
0.015932	0.071937
0.016541	0.078406
0.017064	0.089871
0.017587	0.101335
0.019688	0.266527
0.020389	0.33264
0.021523	0.363833
0.022307	0.381858
0.023265	0.383263
0.023613	0.386486
0.025615	0.39756
0.026748	0.407206
0.027879	0.41188
0.026748	0.410521
0.025442	0.405893
0.023527	0.401426
0.022482	0.395071
0.021351	0.392055
0.02048	0.385655
0.020306	0.384043
0.019609	0.377597
0.018913	0.374466
0.018738	0.371197
0.017955	0.364774
0.017519	0.361574
0.016648	0.353516
0.016387	0.35027
0.015864	0.342121
0.015429	0.335606
0.014293	0.281209
0.013763	0.162012
0.012714	0.097648
0.011058	0.063278
0.009229	0.048844
0.007575	0.039335
0.00653	0.037953
