Adsorption isotherm of Carbon Dioxide on CPL-2
DOI: 10.1021/Jp9103068
Adsorbate Carbon Dioxide: InChIKey CURLTUGMZLYLDI-UHFFFAOYSA-N
Temperature: 323 K
Tabular data in the source: 0
pressure (bar)	uptake (mmol/g)
0.00702701	0.00453144
0.0309707	0.0270666
0.129562	0.103686
0.163365	0.128475
0.20421	0.160024
0.254914	0.202841
0.350689	0.26594
0.453506	0.34256
0.549281	0.412419
0.650689	0.486785
0.742238	0.556644
0.843647	0.621996
0.912661	0.66256
0.991534	0.70763
