Adsorption isotherm of Carbon Dioxide on CPL-2
DOI: 10.1021/Jp9103068
Adsorbate Carbon Dioxide: InChIKey CURLTUGMZLYLDI-UHFFFAOYSA-N
Temperature: 348 K
Tabular data in the source: 0
pressure (bar)	uptake (mmol/g)
0.0126608	2.44e-05
0.0943509	0.0360807
0.176041	0.0721371
0.260548	0.110447
0.350689	0.153264
0.447872	0.202841
0.546464	0.247912
0.647872	0.292982
0.739421	0.333546
0.84083	0.385377
0.909844	0.407912
0.94083	0.421433
0.988717	0.441715
