Adsorption isotherm of Carbon Dioxide on CPL-2
DOI: 10.1021/Jp9103068
Adsorbate Carbon Dioxide: InChIKey CURLTUGMZLYLDI-UHFFFAOYSA-N
Temperature: 348 K
Tabular data in the source: 0
pressure (bar)	uptake (mmol/g)
0.00888184	0.00454763
0.0333116	0.0137017
0.0666231	0.0274034
0.0888246	0.041007
0.11547	0.0546499
0.13545	0.068234
0.15322	0.07286
0.177649	0.0820141
0.195407	0.0955786
0.213177	0.100205
0.26203	0.122982
0.301995	0.145681
0.355305	0.159559
0.404152	0.186806
0.455221	0.214072
0.508506	0.245827
0.555149	0.259646
0.606218	0.286912
0.657287	0.314178
0.706147	0.332486
0.750562	0.350755
0.806069	0.38253
0.850478	0.405268
0.88824	0.41454
0.917108	0.428202
0.950425	0.437435
0.990403	0.451195
1.0015	0.460232
