Adsorption isotherm of Nitrogen on CPL-2
DOI: 10.1021/Jp9103068
Adsorbate Nitrogen: InChIKey IJGRMHOSHXDMSA-UHFFFAOYSA-N
Temperature: 77 K
Tabular data in the source: 0
pressure (bar)	uptake (mmol/g)
0.00229475	3.17171
0.00372489	2.76841
0.0108756	3.78953
0.0237469	4.28722
0.0323278	4.46742
0.0580703	4.6562
0.102405	4.79349
0.15961	4.86214
0.202515	4.90504
0.302625	4.95653
0.404165	5.00801
0.504275	5.0595
0.601525	5.11957
0.704495	5.17105
0.803175	5.2397
0.903285	5.36841
0.941899	5.5057
0.963351	5.69448
0.984803	6.01197
0.994814	6.38095
