Adsorption isotherm of Oxygen on CPL-2
DOI: 10.1021/Jp9103068
Adsorbate Oxygen: InChIKey MYMOFIZGZYHOMD-UHFFFAOYSA-N
Temperature: 298 K
Tabular data in the source: 0
pressure (bar)	uptake (mmol/g)
0.0492805	0.00678496
0.199985	0.0338272
0.253506	0.0383343
0.354914	0.0608695
0.452097	0.0721371
0.554914	0.0901652
0.647872	0.103686
0.74083	0.117207
0.801393	0.126222
0.843647	0.132982
0.908435	0.139743
0.942238	0.14425
0.997168	0.157771
