Adsorption isotherm of Carbon Dioxide on CPL-2
DOI: 10.1021/Jp9103068
Adsorbate Carbon Dioxide: InChIKey CURLTUGMZLYLDI-UHFFFAOYSA-N
Temperature: 348 K
Tabular data in the source: 0
pressure (bar)	uptake (mmol/g)
0.0830833	0.0293202
0.199985	0.0924188
0.250689	0.117207
0.350689	0.169038
0.450689	0.220869
0.547872	0.270447
0.650689	0.317771
0.738013	0.365095
0.836604	0.412419
0.905619	0.443968
0.939421	0.459743
0.991534	0.484531
