Adsorption isotherm of Carbon Dioxide on CPL-2
DOI: 10.1021/Jp9103068
Adsorbate Carbon Dioxide: InChIKey CURLTUGMZLYLDI-UHFFFAOYSA-N
Temperature: 298 K
Tabular data in the source: 0
pressure (bar)	uptake (mmol/g)
0.0126608	0.0225596
0.0380129	0.0608695
0.0802664	0.130729
0.126745	0.205095
0.163365	0.268193
0.245055	0.407912
0.349281	0.594954
0.452097	0.777489
0.546464	0.930729
0.602802	1.01862
0.650689	1.09524
0.736604	1.21918
0.802802	1.32059
0.842238	1.37017
0.908435	1.46256
0.947872	1.50988
0.988717	1.57749
