Adsorption isotherm of Carbon Dioxide on CPL-2
DOI: 10.1021/Jp9103068
Adsorbate Carbon Dioxide: InChIKey CURLTUGMZLYLDI-UHFFFAOYSA-N
Temperature: 323 K
Tabular data in the source: 0
pressure (bar)	uptake (mmol/g)
0.0605481	0.0608695
0.0802664	0.0766441
0.121112	0.110447
0.163365	0.15101
0.250689	0.232137
0.305619	0.277207
0.353506	0.322278
0.452097	0.407912
0.499985	0.450729
0.60421	0.538616
0.701393	0.62425
0.802802	0.709884
0.909844	0.800024
0.945055	0.833827
0.991534	0.874391
