Adsorption isotherm of Nitrogen on CPL-2
DOI: 10.1021/Jp9103068
Adsorbate Nitrogen: InChIKey IJGRMHOSHXDMSA-UHFFFAOYSA-N
Temperature: 77 K
Tabular data in the source: 0
pressure (bar)	uptake (mmol/g)
0.000865	0.623195
0.00229475	0.314284
0.00944547	0.76907
0.0223168	0.854878
0.0337579	0.897783
0.0523498	0.932106
0.102405	1.01791
0.15818	1.04366
0.199654	1.06082
0.302625	1.09514
0.401305	1.12947
0.499985	1.15521
0.598664	1.17237
0.701635	1.20669
0.838928	1.26676
0.898994	1.36115
0.936178	1.44696
0.963351	1.61857
0.977652	1.79877
0.990524	2.17633
