Adsorption isotherm of Nitrogen on CPL-2
DOI: 10.1021/Jp9103068
Adsorbate Nitrogen: InChIKey IJGRMHOSHXDMSA-UHFFFAOYSA-N
Temperature: 298 K
Tabular data in the source: 0
pressure (bar)	uptake (mmol/g)
0.205619	0.00903848
0.250689	0.0203061
0.309844	0.0315737
0.405619	0.0405878
0.507027	0.0518554
0.60421	0.063123
0.70421	0.0743906
0.80421	0.0856582
0.90421	0.0991793
0.963365	0.103686
0.991534	0.10594
