Adsorption isotherm of Carbon Dioxide on CPL-2
DOI: 10.1021/Jp9103068
Adsorbate Carbon Dioxide: InChIKey CURLTUGMZLYLDI-UHFFFAOYSA-N
Temperature: 298 K
Tabular data in the source: 0
pressure (bar)	uptake (mmol/g)
0.00561856	2.44e-05
0.157731	0.26594
0.181675	0.308757
0.250689	0.421433
0.401393	0.673827
0.454914	0.766222
0.501393	0.849602
0.550689	0.917207
0.598576	1.00059
0.661957	1.09073
0.702802	1.15608
0.752097	1.2327
0.846464	1.36566
0.905619	1.44904
0.990126	1.56397
