Adsorption isotherm of Nitrogen on CPL-2
DOI: 10.1021/Jp9103068
Adsorbate Nitrogen: InChIKey IJGRMHOSHXDMSA-UHFFFAOYSA-N
Temperature: 77 K
Tabular data in the source: 0
pressure (bar)	uptake (mmol/g)
0.00229475	0.0396968
0.0323278	0.108344
0.0995445	0.151248
0.138158	0.159829
0.202515	0.176991
0.25114	0.202733
0.35268	0.219895
0.448499	0.237057
0.55004	0.254218
0.65015	0.279961
0.741679	0.305703
0.796024	0.331446
0.900425	0.408674
0.940469	0.520225
0.960491	0.657519
0.981943	0.854878
0.990524	1.23244
