Adsorption isotherm of Carbon Dioxide on CPL-2
DOI: 10.1021/Jp9103068
Adsorbate Carbon Dioxide: InChIKey CURLTUGMZLYLDI-UHFFFAOYSA-N
Temperature: 298 K
Tabular data in the source: 0
pressure (bar)	uptake (mmol/g)
0.00702701	2.44e-05
0.0323791	0.0383343
0.0802664	0.119461
0.125337	0.200588
0.184492	0.297489
0.249281	0.416926
0.357731	0.594954
0.505619	0.842841
0.660548	1.09073
0.754914	1.22594
0.846464	1.37242
0.909844	1.4558
0.990126	1.56622
