Adsorption isotherm of Nitrogen on CPL-2
DOI: 10.1021/Jp9103068
Adsorbate Nitrogen: InChIKey IJGRMHOSHXDMSA-UHFFFAOYSA-N
Temperature: 77 K
Tabular data in the source: 0
pressure (bar)	uptake (mmol/g)
0.000865	2.36511
0.00229475	1.74729
0.00229475	2.11626
0.00372489	0.992172
0.00372489	2.67402
0.0123058	3.35191
0.0237469	3.65224
0.0323278	3.86676
0.05521	4.02121
0.0995445	4.12419
0.202515	4.20999
0.249709	4.22716
0.399875	4.27006
0.504275	4.27006
0.65158	4.31296
0.800315	4.34729
0.900425	4.44168
0.943329	4.59613
0.963351	4.78491
0.981943	5.01659
0.994814	5.51428
