Adsorption isotherm of Carbon Dioxide on CPL-2
DOI: 10.1021/Jp9103068
Adsorbate Carbon Dioxide: InChIKey CURLTUGMZLYLDI-UHFFFAOYSA-N
Temperature: 298 K
Tabular data in the source: 0
pressure (bar)	uptake (mmol/g)
0.00561856	0.00903848
0.0309707	0.0450948
0.0647735	0.0901652
0.111252	0.157771
0.152097	0.218616
0.201393	0.295236
0.252097	0.367348
0.301393	0.437207
0.394351	0.563405
0.495759	0.700869
0.597168	0.824813
0.695759	0.946503
0.795759	1.06819
0.905619	1.17186
0.943647	1.21017
0.988717	1.25749
