Adsorption isotherm of Carbon Dioxide on CPL-2
DOI: 10.1021/Jp9103068
Adsorbate Carbon Dioxide: InChIKey CURLTUGMZLYLDI-UHFFFAOYSA-N
Temperature: 323 K
Tabular data in the source: 0
pressure (bar)	uptake (mmol/g)
0.063365	0.0270666
0.105619	0.0473483
0.20421	0.103686
0.253506	0.128475
0.352097	0.173546
0.452097	0.232137
0.552097	0.279461
0.646464	0.331292
0.74083	0.374109
0.798576	0.410165
0.843647	0.434954
0.907027	0.461996
0.94083	0.475517
0.991534	0.504813
