Adsorption isotherm of Nitrogen on C34H30N4O8Zn2
DOI: 10.1021/Ja2115713
Adsorbate Nitrogen: InChIKey IJGRMHOSHXDMSA-UHFFFAOYSA-N
Temperature: 77 K
Tabular data in the source: 0
pressure (bar)	uptake (cm3(STP)/g)
0.00218705	26.9755
0.00278253	17.9837
0.00338884	8.82834
0.00361079	35.4768
0.00377861	2.94278
0.0132306	40.218
0.0390041	41.0354
0.0608367	41.3624
0.0846669	41.5259
0.108497	41.6894
0.136312	41.6894
0.18598	41.6894
0.261477	41.6894
0.307161	41.8529
0.356841	41.6894
0.404512	41.8529
0.448231	41.6894
0.499876	41.8529
0.547558	41.8529
0.595229	42.0163
0.644897	42.0163
0.690582	42.1798
0.738264	42.1798
0.787922	42.3433
0.835582	42.6703
0.883221	43.3243
0.928862	44.1417
0.952616	45.4496
