Adsorption isotherm of Nitrogen on C34H30N4O8Zn2
DOI: 10.1021/Ja2115713
Adsorbate Nitrogen: InChIKey IJGRMHOSHXDMSA-UHFFFAOYSA-N
Temperature: 77 K
Tabular data in the source: 0
pressure (bar)	uptake (cm3(STP)/g)
0.0118447	1.14441
0.0336773	1.47139
0.0654544	1.63488
0.0872978	1.79837
0.10913	2.12534
0.142894	2.28883
0.18859	2.28883
0.262088	2.45232
0.313733	2.6158
0.361404	2.77929
0.40711	2.6158
0.458733	3.10627
0.508402	3.10627
0.556084	3.10627
0.605731	3.43324
0.655389	3.59673
0.70306	3.76022
0.754715	3.76022
0.800389	4.08719
0.852023	4.41417
0.897707	4.57766
0.945335	5.3951
