Adsorption isotherm of Cadmium(II) Ion on Chili Seeds (Capsicum annuum)
DOI: 10.1016/j.serj.2017.01.004
Article source: Figure 5
Adsorbate Cadmium(II) Ion: InChIKey WLZRMCYVCSSEQC-UHFFFAOYSA-N
Kind: experiment
Temperature: 298 K
Tabular data in the source: 0
pressure (bar)	uptake (mEq/g)
1	0.072289
1	0.145577
1	0.190973
1	0.220426
