Adsorption isotherm of Cadmium(II) Ion on Chili Seeds (Capsicum annuum)
DOI: 10.1016/j.serj.2017.01.004
Article source: Figure 5
Adsorbate Cadmium(II) Ion: InChIKey WLZRMCYVCSSEQC-UHFFFAOYSA-N
Kind: experiment
Temperature: 298 K
Tabular data in the source: 0
pressure (bar)	uptake (mEq/g)
1	0.06955
1	0.145877
1	0.15982
1	0.178962
1	0.18333
