Adsorption isotherm of Lead(II) Ion on Chili Seeds (Capsicum annuum)
DOI: 10.1016/j.serj.2017.01.004
Article source: Figure 7
Adsorbate Lead(II) Ion: InChIKey RVPVRDXYQKGNMQ-UHFFFAOYSA-N
Kind: experiment
Temperature: 298 K
Tabular data in the source: 0
pressure (bar)	uptake (mEq/g)
1	0.03302
1	0.100988
1	0.15436
1	0.170314
1	0.198407
1	0.219647
