Adsorption isotherm of Nitrogen on AMP
DOI: 10.1016/S1387-1811(03)00393-7
Adsorbate Nitrogen: InChIKey IJGRMHOSHXDMSA-UHFFFAOYSA-N
Temperature: 77 K
Tabular data in the source: 0
pressure (bar)	uptake (cm3(STP)/g)
0.0393527	12.8617
0.0590291	14.791
0.10822	18.0064
0.150032	19.9357
0.199223	22.508
0.248414	25.7235
0.290226	27.6527
0.391068	32.1543
0.48453	37.299
0.582912	44.373
0.688672	58.5209
0.779676	86.1736
0.823947	113.826
0.875598	163.344
0.902653	180.064
0.927248	185.852
0.951844	193.569
0.966601	204.502
