Adsorption isotherm of Nitrogen on ZrO[O2C-C10H6-CO2]
DOI: 10.1002/anie.201204806
Adsorbate Nitrogen: InChIKey IJGRMHOSHXDMSA-UHFFFAOYSA-N
Temperature: 77 K
Tabular data in the source: 0
pressure (bar)	uptake (cm3(STP)/g)
0.005665	97.7465
0.0154624	104.477
0.0276773	108.958
0.0447361	110.063
0.054488	111.176
0.0837434	114.514
0.105674	115.613
0.13492	117.828
0.320059	120.993
0.344425	122.09
0.36391	122.068
0.385831	122.044
0.417504	123.133
0.441861	123.106
0.468662	124.199
0.493019	124.172
0.519821	125.266
0.544177	125.239
0.566098	125.215
0.585593	126.317
0.607505	125.169
0.619701	127.403
0.644058	127.376
0.67086	128.47
0.695217	128.443
0.717138	128.418
0.722018	129.536
0.746375	129.509
0.770741	130.606
0.795107	131.703
0.821908	132.796
0.846274	133.893
0.87064	134.99
0.895015	137.21
0.91939	139.43
0.941347	143.9
0.968213	152.859
0.9829	161.831
