Adsorption isotherm of Water on ZrO[O2C-C12N2H6Cl2-CO2]
DOI: 10.1002/anie.201204806
Adsorbate Water: InChIKey XLYOFNOQVPJJNP-UHFFFAOYSA-N
Temperature: 295 K
Tabular data in the source: 0
pressure (bar)	uptake (a.u./g)
0.000100752	16.3309
0.000416725	26.7091
0.000841362	31.1404
0.00115892	37.063
0.00275302	48.8539
0.00392143	59.1838
0.00519693	68.0224
0.00647295	75.3758
0.00955777	90.0525
0.0121098	104.759
0.0152991	125.371
0.0184905	140.041
0.0228497	166.527
