Adsorption isotherm of Nitrogen on UiO-66
DOI: 10.1002/anie.201204806
Adsorbate Nitrogen: InChIKey IJGRMHOSHXDMSA-UHFFFAOYSA-N
Temperature: 77 K
Tabular data in the source: 0
pressure (bar)	uptake (cm3(STP)/g)
0.0140404	264.495
0.0280808	282.736
0.0491415	287.296
0.0795624	289.577
0.109983	289.577
0.138064	294.137
0.163805	296.417
0.191886	296.417
0.215286	298.697
0.241027	298.697
0.264428	300.977
0.297189	300.977
0.32293	300.977
0.367391	300.977
0.409512	303.257
0.460994	303.257
0.514815	305.537
0.566297	305.537
0.617778	307.818
0.66224	307.818
0.716061	310.098
0.767543	310.098
0.814344	312.378
0.865826	316.938
0.914967	314.658
0.961768	321.498
0.987509	326.059
