Adsorption isotherm of Nitrogen on Zr6-Cl2AzoBDC
DOI: 10.1002/anie.201204806
Adsorbate Nitrogen: InChIKey IJGRMHOSHXDMSA-UHFFFAOYSA-N
Temperature: 77 K
Tabular data in the source: 0
pressure (bar)	uptake (cm3(STP)/g)
0	27.2727
0.00234007	306.813
0.00468014	397.717
0.0117003	440.883
0.0163805	479.509
0.0234007	506.766
0.0304209	527.204
0.0468014	538.531
0.0772223	552.1
0.107643	558.849
0.135724	563.332
0.163805	570.087
0.189546	574.575
0.219967	576.779
0.269108	581.215
0.292509	583.435
0.318249	585.65
0.367391	585.54
0.414192	587.707
0.463334	589.87
0.517155	589.749
0.568637	591.906
0.617778	594.069
0.6716	596.221
0.720741	598.383
0.772223	598.268
0.826044	600.42
0.872846	600.315
0.919647	602.483
0.971129	606.913
