Adsorption isotherm of Nitrogen on Zr6-AzoBDC
DOI: 10.1002/anie.201204806
Adsorbate Nitrogen: InChIKey IJGRMHOSHXDMSA-UHFFFAOYSA-N
Temperature: 77 K
Tabular data in the source: 0
pressure (bar)	uptake (cm3(STP)/g)
0.0117003	0.0117003
0.0234007	266.775
0.0397812	282.736
0.0491415	291.857
0.0748822	298.697
0.102963	310.098
0.131044	323.779
0.152105	332.899
0.180185	339.739
0.205926	342.02
0.236347	342.02
0.259748	342.02
0.285488	346.58
0.311229	346.58
0.362711	348.86
0.414192	348.86
0.463334	351.14
0.514815	348.86
0.561617	353.42
0.615438	353.42
0.66692	351.14
0.713721	355.7
0.769883	355.7
0.819024	355.7
0.870506	353.42
0.919647	357.98
0.964109	364.821
0.989849	371.661
1.00389	380.782
