Adsorption isotherm of Water on ZrO[O2C-C12H8-CO2]
DOI: 10.1002/anie.201204806
Adsorbate Water: InChIKey XLYOFNOQVPJJNP-UHFFFAOYSA-N
Temperature: 295 K
Tabular data in the source: 0
pressure (bar)	uptake (a.u./g)
0.000199922	37.1174
0.000303312	46.0224
0.000406175	56.4126
0.00082923	65.2996
0.00114573	74.1925
0.00220495	91.9543
0.00401322	100.763
0.00879764	130.195
0.0154985	163.973
0.0188866	224.672
0.024082	297.15
