Adsorption isotherm of Nitrogen on Zr6-Muco
DOI: 10.1002/anie.201204806
Adsorbate Nitrogen: InChIKey IJGRMHOSHXDMSA-UHFFFAOYSA-N
Temperature: 77 K
Tabular data in the source: 0
pressure (bar)	uptake (cm3(STP)/g)
0.00234007	157.329
0.0140404	171.01
0.035101	180.13
0.0561617	186.971
0.0772223	189.251
0.0959428	191.531
0.119344	193.811
0.142744	193.811
0.166145	196.091
0.187206	198.371
0.210606	200.651
0.234007	200.651
0.257408	200.651
0.280808	202.932
0.304209	202.932
0.32761	205.212
0.34867	205.212
0.372071	205.212
0.395472	207.492
0.418872	207.492
0.439933	209.772
0.460994	209.772
0.484394	209.772
0.507795	209.772
0.528856	212.052
0.552256	212.052
0.575657	214.332
0.596718	214.332
0.617778	214.332
0.641179	214.332
0.66458	216.612
0.68798	214.332
0.709041	216.612
0.732442	216.612
0.753502	218.893
0.776903	218.893
0.800304	221.173
0.823704	221.173
0.847105	221.173
0.870506	221.173
0.893906	221.173
0.914967	221.173
0.954748	223.453
0.978149	225.733
1.00155	225.733
