Adsorption isotherm of Nitrogen on ZrO[O2C-C12H8-CO2]
DOI: 10.1002/anie.201204806
Adsorbate Nitrogen: InChIKey IJGRMHOSHXDMSA-UHFFFAOYSA-N
Temperature: 77 K
Tabular data in the source: 0
pressure (bar)	uptake (cm3(STP)/g)
0.000793647	97.7519
0.000994339	122.471
0.00119503	147.19
0.0159003	158.409
0.0402935	162.877
0.0695399	165.091
0.101222	167.303
0.157261	169.489
0.205992	171.682
0.31318	173.81
0.415488	174.82
0.515369	176.957
0.620103	176.84
0.727291	178.969
0.83447	179.974
0.927062	184.365
0.97583	191.053
1.00777	224.725
