Adsorption isotherm of Nitrogen on UiO-67
DOI: 10.1002/anie.201204806
Adsorbate Nitrogen: InChIKey IJGRMHOSHXDMSA-UHFFFAOYSA-N
Temperature: 77 K
Tabular data in the source: 0
pressure (bar)	uptake (cm3(STP)/g)
0.0163805	437.785
0.0304209	446.906
0.0585017	458.306
0.0842425	460.586
0.126364	467.427
0.182525	474.267
0.201246	474.267
0.226987	476.547
0.250387	476.547
0.276128	478.827
0.299529	481.107
0.35335	483.388
0.404832	485.668
0.456314	485.668
0.505455	487.948
0.554596	487.948
0.608418	487.948
0.6599	487.948
0.709041	490.228
0.758182	487.948
0.814344	490.228
0.830725	490.228
0.861145	490.228
0.884546	492.508
0.912627	490.228
0.938368	492.508
0.961768	492.508
0.987509	494.788
0.99687	501.629
