Adsorption isotherm of Water on ZrO[O2C-C10H6-CO2]
DOI: 10.1002/anie.201204806
Adsorbate Water: InChIKey XLYOFNOQVPJJNP-UHFFFAOYSA-N
Temperature: 295 K
Tabular data in the source: 0
pressure (bar)	uptake (a.u./g)
0.000424637	4.43139
0.00116894	8.84466
0.00244654	11.7426
0.00361654	17.6169
0.00489414	20.5148
0.00617122	24.8979
0.00936471	33.6278
0.0127708	43.8309
0.0157522	49.6025
0.0193714	59.7935
0.0242666	77.3379
