Adsorption isotherm of Nitrogen on ZrO[O2C-C12N2H6Cl2-CO2]
DOI: 10.1002/anie.201204806
Adsorbate Nitrogen: InChIKey IJGRMHOSHXDMSA-UHFFFAOYSA-N
Temperature: 77 K
Tabular data in the source: 0
pressure (bar)	uptake (cm3(STP)/g)
0.000665934	82.0217
0.00110381	135.954
0.0085203	149.429
0.0183542	160.654
0.0378944	167.374
0.0501092	171.855
0.0793556	174.069
0.108611	177.408
0.137848	178.499
0.162223	180.719
0.181727	182.945
0.213391	182.909
0.237766	185.13
0.264576	187.347
0.29624	187.312
0.315726	187.29
0.323051	189.529
0.344963	188.382
0.362022	189.486
0.386378	189.459
0.405891	192.808
0.425358	190.54
0.449724	191.636
0.457049	193.875
0.476526	192.73
0.500892	193.827
0.520368	192.681
0.544743	194.902
0.561802	196.006
0.615405	198.194
0.676306	199.25
0.700672	200.347
0.725038	201.443
0.749403	202.54
0.776214	204.757
0.80058	205.854
0.873687	210.267
0.898062	212.487
0.907814	213.6
0.937078	218.062
0.959036	222.532
0.985901	231.491
