Adsorption isotherm of Water on ZrO[O2C-C6H4-CO2]
DOI: 10.1002/anie.201204806
Adsorbate Water: InChIKey XLYOFNOQVPJJNP-UHFFFAOYSA-N
Temperature: 295 K
Tabular data in the source: 0
pressure (bar)	uptake (a.u./g)
0.000954247	13.3123
0.00148544	17.7376
0.00265754	17.6712
0.00404118	22.0483
0.00521275	23.467
0.00659691	26.3589
0.00957623	38.0713
0.0123424	49.7957
0.015106	68.9461
0.0181914	82.1376
0.0234031	108.575
