Adsorption isotherm of Nitrogen on ZrO[O2C-C6H4-CO2]
DOI: 10.1002/anie.201204806
Adsorbate Nitrogen: InChIKey IJGRMHOSHXDMSA-UHFFFAOYSA-N
Temperature: 77 K
Tabular data in the source: 0
pressure (bar)	uptake (cm3(STP)/g)
0.00804594	91.0023
0.0422184	99.9532
0.0787717	102.16
0.108018	104.375
0.156741	105.444
0.31267	110.889
0.414986	113.023
0.517303	115.157
0.619628	118.414
0.719519	121.674
0.821872	128.302
0.863296	130.503
0.912055	136.067
0.960878	149.496
0.982918	164.079
0.990353	179.801
0.995361	196.649
0.998043	226.983
1.00061	242.711
1.0056	257.312
1.00572	273.042
