Adsorption isotherm of Nitrogen on Zr6-NDC
DOI: 10.1002/anie.201204806
Adsorbate Nitrogen: InChIKey IJGRMHOSHXDMSA-UHFFFAOYSA-N
Temperature: 77 K
Tabular data in the source: 0
pressure (bar)	uptake (cm3(STP)/g)
0.0140404	314.658
0.0304209	323.779
0.0444613	330.619
0.0561617	330.619
0.0842425	337.459
0.107643	342.02
0.133384	342.02
0.163805	346.58
0.184865	346.58
0.313569	353.42
0.365051	353.42
0.411852	355.7
0.463334	357.98
0.512475	355.7
0.563957	360.261
0.610758	360.261
0.6599	362.541
0.709041	364.821
0.786263	364.821
0.856465	364.821
0.891566	369.381
0.954748	369.381
1.00389	367.101
