Adsorption isotherm of Nitrogen on CeO2-1
DOI: 10.1016/j.cej.2015.10.057
Article source: Figure  6a
Adsorbate Nitrogen: InChIKey IJGRMHOSHXDMSA-UHFFFAOYSA-N
Kind: experiment
Temperature: 77 K
Tabular data in the source: 0
pressure (bar)	uptake (cm3(STP)/g)
0.002746	10.169
0.003344	10.24
0.030965	12.938
0.031441	14.259
0.055465	13.993
0.063602	16.193
0.072559	15.518
0.082002	16.809
0.092044	15.928
0.107465	17.775
0.115835	16.572
0.131621	18.097
0.142017	17.509
0.158513	19.504
0.167956	18.183
0.184574	19.854
0.209206	19.882
0.235256	20.732
0.262037	21.229
0.287976	22.225
0.312841	22.987
0.340097	23.631
0.364486	25.096
0.390192	25.711
0.417084	26.326
0.442425	27.234
0.467888	28.201
0.49324	29.138
0.52001	29.929
0.545473	31.189
0.569984	32.097
0.597118	33.24
0.622338	34.354
0.64697	35.673
0.67446	36.639
0.699811	38.222
0.726227	39.864
0.752044	42.151
0.779777	44.262
0.805838	47.371
0.831422	51.067
0.852346	52.181
0.858557	56.552
0.875174	60.571
0.878407	56.052
0.903505	69.851
0.90387	70.311
0.927174	82.399
0.928613	70.926
0.953357	83.865
0.958383	113.53
0.980856	116.082
0.988983	173.094
0.989337	140.318
0.995082	169.749
1.00704	195.1
