Adsorption isotherm of Nitrogen on CeO2
DOI: 10.1016/j.cej.2015.10.057
Article source: Figure  6a
Adsorbate Nitrogen: InChIKey IJGRMHOSHXDMSA-UHFFFAOYSA-N
Kind: experiment
Temperature: 77 K
Tabular data in the source: 0
pressure (bar)	uptake (cm3(STP)/g)
0.00383	14.436
0.030965	16.782
0.055942	17.69
0.062284	17.925
0.082489	18.422
0.107465	18.949
0.132452	19.681
0.157439	20.208
0.184219	19.59
0.208243	19.882
0.234426	20.116
0.260486	20.29
0.287378	20.758
0.314037	21.461
0.338547	21.342
0.362936	22.015
0.388034	22.161
0.390192	22.571
0.417327	22.452
0.43968	22.275
0.442425	22.744
0.46574	22.831
0.468132	23.242
0.491325	22.771
0.493595	23.68
0.515471	23.268
0.520253	23.796
0.543203	23.208
0.546436	23.941
0.567349	23.764
0.572253	24.116
0.594849	23.821
0.59724	24.202
0.620312	24.054
0.622338	24.817
0.645298	24.288
0.648885	24.64
0.671238	24.521
0.674825	25.196
0.697531	24.93
0.700166	25.693
0.722518	25.046
0.727179	25.691
0.74942	25.309
0.751811	26.336
0.77464	25.894
0.778105	26.774
0.799981	26.362
0.802018	26.388
0.809313	27.301
0.816963	27.447
0.826883	26.537
0.83812	28.414
0.850785	27.416
0.862985	28.471
0.875651	28.617
0.889765	29.731
0.902907	29.261
0.917731	31.549
0.930407	31.167
0.950368	34.745
0.955272	33.542
0.98038	38.118
0.980978	38.404
0.987909	42.05
0.99568	46.098
1.00297	56.573
