Adsorption isotherm of Nitrogen on MnO2
DOI: 10.1016/j.cej.2015.10.057
Article source: Figure  6a
Adsorbate Nitrogen: InChIKey IJGRMHOSHXDMSA-UHFFFAOYSA-N
Kind: experiment
Temperature: 77 K
Tabular data in the source: 0
pressure (bar)	uptake (cm3(STP)/g)
0.002989	2.259
0.031563	3.05
0.03287	3.813
0.052122	3.782
0.061443	4.779
0.070532	3.84
0.080574	4.866
0.092287	4.103
0.10556	5.217
0.114639	4.571
0.131256	5.186
0.13998	4.54
0.157439	5.595
0.16593	4.832
0.182659	6.181
0.191504	5.3
0.208608	6.033
0.21793	5.445
0.233706	6.413
0.243028	5.825
0.260365	6.558
0.268136	5.912
0.286304	6.556
0.295038	6.086
0.31201	6.819
0.320258	6.378
0.337828	6.964
0.346319	6.758
0.363291	7.051
0.371903	6.874
0.389595	7.372
0.397366	7.019
0.415179	7.576
0.42366	7.311
0.440399	7.574
0.467412	7.807
0.493351	7.835
0.519058	8.215
0.545118	8.419
0.569862	8.652
0.595325	8.798
0.622703	8.943
0.648885	9.235
0.673031	9.497
0.699923	9.789
0.725153	10.199
0.750139	10.579
0.7762	10.9
0.801065	11.632
0.811704	11.866
0.825566	12.217
0.837877	12.51
0.851626	12.92
0.863218	13.477
0.87793	13.975
0.890839	14.884
0.902309	15.147
0.917731	16.878
0.928015	16.906
0.945585	20.514
0.954198	19.428
0.975709	26.499
0.979063	24.004
0.987665	26.821
1.0056	35.887
