Adsorption isotherm of Nitrogen on MnO2/CeO2-2
DOI: 10.1016/j.cej.2015.10.057
Article source: Figure  6a
Adsorbate Nitrogen: InChIKey IJGRMHOSHXDMSA-UHFFFAOYSA-N
Kind: experiment
Temperature: 77 K
Tabular data in the source: 0
pressure (bar)	uptake (cm3(STP)/g)
0.004904	10.358
0.028928	14.259
0.054989	15.46
0.060491	16.194
0.082246	16.867
0.107587	17.599
0.132695	18.449
0.159354	19.298
0.184574	19.766
0.209804	20.44
0.236097	21.201
0.260719	22.021
0.2875	22.372
0.312608	23.104
0.339145	23.953
0.364486	24.715
0.391023	25.007
0.405493	26.268
0.416486	26.296
0.442425	27.116
0.46646	27.966
0.492997	28.786
0.519058	29.723
0.544044	30.485
0.570227	31.481
0.59569	32.624
0.621862	33.473
0.647092	34.646
0.671957	36.082
0.698727	37.342
0.723359	38.867
0.74942	40.596
0.774164	42.238
0.777274	43.324
0.799981	44.379
0.804531	45.669
0.82437	46.725
0.829629	48.837
0.840035	50.421
0.851029	49.804
0.867889	54.85
0.875772	53.5
0.895257	60.776
0.902674	58.017
0.92682	64.706
0.934713	76.325
0.951928	74.651
0.957906	93.724
0.981687	99.327
0.985872	118.078
0.98958	114.086
0.994485	128.845
1.00763	148.621
