Adsorption isotherm of Carbon Dioxide on HNUST-2
DOI: 10.1039/C3dt50704a
Adsorbate Carbon Dioxide: InChIKey CURLTUGMZLYLDI-UHFFFAOYSA-N
Temperature: 273 K
Tabular data in the source: 0
pressure (bar)	uptake (wt%)
0.176289	0.210411
0.626895	11.025
1.34787	24.3179
2.51944	40.765
3.46572	54.5085
4.90766	66.9002
6.39466	75.9123
8.91806	83.122
11.3513	87.4028
13.5593	89.6558
15.9475	92.5848
18.1104	93.9366
20.0931	95.2884
