Adsorption isotherm of Carbon Dioxide on HNUST-2
DOI: 10.1039/C3dt50704a
Adsorbate Carbon Dioxide: InChIKey CURLTUGMZLYLDI-UHFFFAOYSA-N
Temperature: 298 K
Tabular data in the source: 0
pressure (bar)	uptake (mmol/g)
0.000806	0.000842
0.0147091	0.0386926
0.0260847	0.0666302
0.051785	0.132419
0.0804346	0.207219
0.107399	0.27481
0.131835	0.3415
0.1588	0.411795
