Adsorption isotherm of Nitrogen on HNUST-2
DOI: 10.1039/C3dt50704a
Adsorbate Nitrogen: InChIKey IJGRMHOSHXDMSA-UHFFFAOYSA-N
Temperature: 298 K
Tabular data in the source: 0
pressure (bar)	uptake (wt%)
-0.00395394	0.210411
2.69969	1.33693
6.75515	3.13935
10.4952	4.71648
14.055	6.0683
16.9389	7.42012
19.1919	7.64542
20.048	7.64542
