Adsorption isotherm of Methane on HNUST-2
DOI: 10.1039/C3dt50704a
Adsorbate Methane: InChIKey VNWKTOKETHGBQD-UHFFFAOYSA-N
Temperature: 273 K
Tabular data in the source: 0
pressure (bar)	uptake (wt%)
0.131228	0.358103
1.16762	1.6198
3.06017	3.56642
5.22308	5.90958
8.01684	8.32483
10.3149	9.98306
12.2525	11.2808
14.8661	12.6507
17.5246	14.0565
20.003	14.9938
