Adsorption isotherm of Hydrogen on HNUST-2
DOI: 10.1039/C3dt50704a
Adsorbate Hydrogen: InChIKey UFHFLCQGNIYNRP-UHFFFAOYSA-N
Temperature: 87 K
Tabular data in the source: 0
pressure (bar)	uptake (wt%)
0.0411067	0.0105205
0.536774	1.05818
1.0775	1.61017
1.79847	2.11711
2.97005	2.69163
4.8626	3.24362
7.6113	3.71676
10.4051	4.04345
13.4692	4.28002
16.9389	4.449
19.4172	4.55038
