Adsorption isotherm of Nitrogen on HNUST-2
DOI: 10.1039/C3dt50704a
Adsorbate Nitrogen: InChIKey IJGRMHOSHXDMSA-UHFFFAOYSA-N
Temperature: 273 K
Tabular data in the source: 0
pressure (bar)	uptake (wt%)
0.221349	0.435714
2.97005	2.01284
5.53851	3.36466
7.6113	4.71648
10.2248	6.0683
12.0272	7.42012
14.9562	8.77194
17.8401	10.1238
20.003	10.7997
