Adsorption isotherm of Nitrogen on HNUST-2
DOI: 10.1039/C3dt50704a
Adsorbate Nitrogen: InChIKey IJGRMHOSHXDMSA-UHFFFAOYSA-N
Temperature: 77 K
Tabular data in the source: 0
pressure (bar)	uptake (cm3(STP)/g)
0.00208205	18.8212
0.00208205	203.345
0.00208205	402.062
0.00208205	512.461
0.0112113	556.62
0.0431639	589.74
0.125327	608.665
0.246291	618.128
0.447135	626.014
0.597768	627.591
0.782636	627.591
0.910446	627.591
0.99261	627.591
1.01315	630.745
