Adsorption isotherm of Carbon Dioxide on HNUST-2
DOI: 10.1039/C3dt50704a
Adsorbate Carbon Dioxide: InChIKey CURLTUGMZLYLDI-UHFFFAOYSA-N
Temperature: 298 K
Tabular data in the source: 0
pressure (bar)	uptake (wt%)
0.176289	0.886321
1.0775	10.1238
2.47438	21.6142
3.64596	29.7251
5.0879	38.0614
6.61996	47.9747
8.19709	55.4097
9.95445	62.1688
12.0723	68.4773
14.6858	73.2087
16.9839	76.1376
19.0567	78.3907
20.0931	79.7425
