Adsorption isotherm of Methane on HNUST-2
DOI: 10.1039/C3dt50704a
Adsorbate Methane: InChIKey VNWKTOKETHGBQD-UHFFFAOYSA-N
Temperature: 298 K
Tabular data in the source: 0
pressure (bar)	uptake (mmol/g)
0.00291225	0.00264407
0.0214502	0.00985378
0.0509424	0.0242732
0.0804346	0.0413962
0.10782	0.0558156
0.134363	0.0693338
0.161327	0.0846545
