Adsorption isotherm of Nitrogen on HNUST-2
DOI: 10.1039/C3dt50704a
Adsorbate Nitrogen: InChIKey IJGRMHOSHXDMSA-UHFFFAOYSA-N
Temperature: 298 K
Tabular data in the source: 0
pressure (bar)	uptake (mmol/g)
0.00333357	0.00264407
0.02777	0.0044465
0.053049	0.00624892
0.079592	0.00715014
0.109927	0.0116562
0.133942	0.0143598
0.16217	0.0179647
