Adsorption isotherm of Hydrogen on HNUST-2
DOI: 10.1039/C3dt50704a
Adsorbate Hydrogen: InChIKey UFHFLCQGNIYNRP-UHFFFAOYSA-N
Temperature: 77 K
Tabular data in the source: 0
pressure (bar)	uptake (wt%)
0.0411067	0.0105205
0.536774	1.05818
0.897259	1.62144
1.93365	2.29735
3.06017	2.82681
4.90766	3.42387
7.07057	3.86321
9.00818	4.1899
12.2075	4.58418
15.0914	4.84328
17.8401	5.07984
19.9129	5.21503
