Adsorption isotherm of Hydrogen on HNUST-2
DOI: 10.1039/C3dt50704a
Adsorbate Hydrogen: InChIKey UFHFLCQGNIYNRP-UHFFFAOYSA-N
Temperature: 87 K
Tabular data in the source: 0
pressure (bar)	uptake (wt%)
0.0200796	0.0213908
0.101189	0.194424
0.171033	0.298965
0.267913	0.410715
0.376059	0.508046
0.531518	0.637821
0.691483	0.756781
0.835678	0.839692
0.955088	0.911789
1.06098	0.980282
