Adsorption isotherm of Methane on HNUST-2
DOI: 10.1039/C3dt50704a
Adsorbate Methane: InChIKey VNWKTOKETHGBQD-UHFFFAOYSA-N
Temperature: 298 K
Tabular data in the source: 0
pressure (bar)	uptake (wt%)
0.26641	0.141811
1.70835	1.36746
3.78114	2.8094
5.71875	4.10715
7.70142	5.29675
10.3149	6.70264
12.2976	7.7841
14.7759	8.82951
16.8037	9.65862
18.516	10.2714
20.0931	10.8482
