Adsorption isotherm of Nitrogen on ZIF-8LT-HT
DOI: 10.1039/c4ta05116e
Article source: Figure 4b- ZIF 8LT HT
Adsorbate Nitrogen: InChIKey IJGRMHOSHXDMSA-UHFFFAOYSA-N
Kind: experiment
Isotherm type: excess
Temperature: 77 K
Tabular data in the source: 0
pressure (bar)	uptake (cm3(STP)/g)
2.2e-05	13.452
5.6e-05	26.514
8.6e-05	38.839
0.000112	51.36
0.000137	64.272
0.000156	76.009
0.000176	88.823
0.000195	100.511
0.000219	113.178
0.000241	126.236
0.00027	139.49
0.000301	152.303
0.000341	165.166
0.000401	176.903
0.000483	190.451
0.000595	203.069
0.000756	215.883
0.001009	228.11
0.001411	240.582
0.002114	252.566
0.003452	264.305
0.004861	275.652
0.005693	288.368
0.007374	299.519
0.010402	310.965
0.03242	364.764
0.074828	368.534
0.081187	369.219
0.102562	369.904
0.121576	370.247
0.164005	370.64
0.205341	371.179
0.274263	370.642
0.324457	371.23
0.376657	371.475
0.423142	371.475
0.480581	371.72
0.524538	371.77
0.574231	371.183
0.624262	371.868
0.667278	371.575
0.725415	371.673
0.779268	371.331
0.836289	371.282
0.921906	371.527
1.01225	371.626
