Adsorption isotherm of Nitrogen on ZIF-8LT-HT
DOI: 10.1039/c4ta05116e
Article source: Figure 4a- ZIF 8LT HT
Adsorbate Nitrogen: InChIKey IJGRMHOSHXDMSA-UHFFFAOYSA-N
Kind: experiment
Temperature: 77 K
Tabular data in the source: 0
pressure (bar)	uptake (cm3(STP)/g)
2.2e-05	12.991
5.6e-05	24.685
8.7e-05	36.866
0.000112	48.644
0.000132	59.78
0.000156	72.44
0.000179	84.456
0.000196	95.829
0.000218	107.67
0.000243	119.453
0.00027	132.819
0.000302	144.601
0.000344	156.911
0.000404	169.513
0.000483	181.528
0.000598	192.896
0.000764	205.26
0.001015	217.154
0.001414	229.163
0.002123	240.701
0.003469	251.473
0.004859	262.192
0.005703	274.207
0.007431	284.929
0.010307	295.472
0.032437	346.683
0.075049	350.992
0.083477	351.105
0.103081	351.802
0.122289	351.737
0.163756	353.017
0.204789	352.891
0.275034	352.763
0.325969	352.64
0.379976	352.811
0.430989	352.865
0.483155	353.623
0.53636	352.974
0.581081	352.795
0.630749	352.968
0.682663	352.555
0.729536	353.022
0.788818	353.136
0.828279	353.135
0.905267	353.483
0.999095	353.949
