Adsorption isotherm of Nitrogen on ZIF-8LT
DOI: 10.1039/c4ta05116e
Article source: Figure 4b- ZIF 8LT
Adsorbate Nitrogen: InChIKey IJGRMHOSHXDMSA-UHFFFAOYSA-N
Kind: experiment
Isotherm type: excess
Temperature: 77 K
Tabular data in the source: 0
pressure (bar)	uptake (cm3(STP)/g)
2.3e-05	13.932
5.8e-05	28.89
8.9e-05	41.647
0.000117	55.626
0.000139	69.457
0.000162	83.532
0.000182	96.582
0.000206	110.266
0.000232	124.244
0.000258	138.368
0.000283	152.003
0.000323	165.297
0.000359	180.203
0.000423	194.718
0.000507	207.914
0.000631	221.257
0.000825	235.235
0.001119	249.165
0.001581	262.459
0.002491	275.803
0.004148	288.023
0.005255	301.463
0.006386	314.904
0.008918	328.931
0.013286	340.466
0.030649	386.702
0.098002	391.692
0.124789	392.328
0.162733	392.622
0.185745	392.476
0.227739	393.943
0.28091	392.967
0.343397	393.017
0.418125	393.115
0.52297	392.97
0.600477	392.921
0.767656	392.922
0.852995	393.411
0.900029	393.705
0.931894	395.122
1.00204	399.374
