Adsorption isotherm of Nitrogen on ZIF-8ER
DOI: 10.1039/c4ta05116e
Article source: Figure 4b- ZIF 8ER
Adsorbate Nitrogen: InChIKey IJGRMHOSHXDMSA-UHFFFAOYSA-N
Kind: experiment
Isotherm type: excess
Temperature: 77 K
Tabular data in the source: 0
pressure (bar)	uptake (cm3(STP)/g)
2.7e-05	13.012
5e-05	22.305
6.2e-05	29.396
9e-05	41.378
0.000104	48.127
0.000118	55.512
0.000126	62.113
0.000166	80.843
0.000179	92.042
0.000191	103.093
0.000212	114.292
0.000224	127.495
0.000239	137.373
0.000257	149.766
0.000278	158.449
0.000536	219.186
0.001079	259.58
0.00216	286.38
0.003232	298.557
0.004348	317.679
0.006616	346.384
0.026695	399.936
0.041155	427.224
0.062376	427.47
0.086528	427.618
0.112069	427.472
0.137695	427.522
0.181743	427.572
0.207657	427.573
0.231215	427.573
0.260271	427.134
0.282109	427.378
0.310997	427.281
0.337098	427.135
0.363569	427.086
0.387469	427.086
0.416243	427.478
0.442289	427.527
0.481312	427.674
0.515509	427.625
0.541797	427.626
0.569425	427.577
0.596097	427.577
0.649975	427.48
0.705223	427.333
0.728763	427.48
0.783658	427.529
0.83103	427.823
0.898973	427.823
0.944815	427.824
0.999946	429.291
