Adsorption isotherm of Nitrogen on ZIF-8HT
DOI: 10.1039/c4ta05116e
Article source: Figure 4b- ZIF 8HT
Adsorbate Nitrogen: InChIKey IJGRMHOSHXDMSA-UHFFFAOYSA-N
Kind: experiment
Isotherm type: excess
Temperature: 77 K
Tabular data in the source: 0
pressure (bar)	uptake (cm3(STP)/g)
1.5e-05	2.595
4.2e-05	6.614
7.3e-05	10.921
0.000101	15.276
0.000127	19.973
0.00015	24.326
0.000174	29.168
0.000196	33.619
0.000221	37.435
0.000247	42.277
0.000275	45.798
0.000316	50.445
0.000369	55.385
0.000439	59.69
0.000537	63.506
0.000682	66.833
0.000893	71.481
0.001242	75.2
0.001801	79.213
0.002846	83.226
0.004578	87.68
0.005953	91.643
0.007641	95.362
0.010598	99.277
0.02949	117.721
0.091001	123.892
0.103974	124.219
0.124482	125.41
0.14422	126.389
0.165275	126.879
0.184747	127.418
0.202851	127.615
0.252718	128.546
0.305581	129.379
0.355809	130.798
0.404517	131.386
0.461718	131.827
0.515616	133.295
0.556643	133.785
0.617926	134.177
0.665774	135.106
0.74127	136.917
0.780597	138.922
0.831068	140.438
0.883053	142.444
0.934559	146.405
0.944815	153.594
0.972449	163.667
0.98312	172.958
0.988978	186.21
0.995879	198.435
