Adsorption isotherm of Nitrogen on ZIF-8HT
DOI: 10.1039/c4ta05116e
Article source: Figure 4a- ZIF 8HT
Adsorbate Nitrogen: InChIKey IJGRMHOSHXDMSA-UHFFFAOYSA-N
Kind: experiment
Temperature: 77 K
Tabular data in the source: 0
pressure (bar)	uptake (cm3(STP)/g)
1.5e-05	10.323
4.2e-05	22.698
7.3e-05	35.015
0.000102	47.625
0.000131	62.522
0.00044	168.387
0.000527	183.551
0.000657	191.613
0.000888	204.516
0.001175	217.595
0.001753	229.15
0.002755	239.941
0.00444	250.381
0.005739	260.059
0.007191	273.571
0.010289	284.575
0.090036	354.839
0.10222	358.874
0.122814	356.246
0.143716	359.179
0.161892	361.29
0.18326	363.284
0.20344	362.698
0.256399	365.161
0.313514	368.152
0.358729	370.44
0.420191	372.727
0.473333	375.191
0.540538	378.416
0.591911	380.938
0.62762	382.874
0.675953	386.452
0.706995	388.387
0.743801	392.669
0.833809	398.886
0.855237	404.633
0.876348	410.381
0.906811	417.595
0.926481	426.921
0.95679	443.167
0.979415	471.085
0.990915	495.894
0.994733	533.9
1.00248	567.331
