Adsorption isotherm of Nitrogen on ZIF-8LT
DOI: 10.1039/c4ta05116e
Article source: Figure 4a- ZIF 8LT
Adsorbate Nitrogen: InChIKey IJGRMHOSHXDMSA-UHFFFAOYSA-N
Kind: experiment
Temperature: 77 K
Tabular data in the source: 0
pressure (bar)	uptake (cm3(STP)/g)
2.3e-05	12.181
5.8e-05	25.181
9.1e-05	35.552
0.000118	48.569
0.00014	60.062
0.000164	72.084
0.000183	85.222
0.000207	97.068
0.000231	108.798
0.000259	121.583
0.000286	132.903
0.000324	146.157
0.000365	158.415
0.000433	170.847
0.000515	182.927
0.000646	194.83
0.000836	206.145
0.001125	218.398
0.001611	230.238
0.002496	242.077
0.004183	253.151
0.005339	264.936
0.006522	275.608
0.009046	288.27
0.013459	299.406
0.030773	339.745
0.100969	343.821
0.141686	344.986
0.191019	346.151
0.260817	346.554
0.356465	347.25
0.467172	347.419
0.60393	347.53
0.768629	348.052
1.05462	350.566
