Adsorption isotherm of Nitrogen on ZIF-8ER
DOI: 10.1039/c4ta05116e
Article source: Figure 4a- ZIF 8ER
Adsorbate Nitrogen: InChIKey IJGRMHOSHXDMSA-UHFFFAOYSA-N
Kind: experiment
Temperature: 77 K
Tabular data in the source: 0
pressure (bar)	uptake (cm3(STP)/g)
2.7e-05	10.674
4.9e-05	18.71
6.2e-05	23.871
8.4e-05	30.733
0.000101	39.883
0.000113	45.806
0.000149	62.933
0.000164	68.68
0.000183	78.534
0.000194	87.977
0.000206	95.543
0.000221	107.214
0.000245	121.278
0.000276	130.968
0.001087	219.648
0.003223	250.792
0.004354	267.859
0.006599	291.613
0.026867	336.129
0.040963	358.944
0.062274	359.296
0.086705	358.768
0.111871	358.123
0.137327	359.12
0.183163	359.003
0.21793	359.765
0.251314	359.003
0.301361	359.472
0.351631	359.355
0.398434	359.413
0.471288	359.296
0.567906	358.886
0.638494	359.589
0.693069	359.648
0.78227	359.003
0.84498	359.12
0.967802	359.413
