Adsorption isotherm of Ethene on ZIF-4
DOI: 10.3390/molecules23040889
Article source: Figure 1
Adsorbate Ethene: InChIKey VGGSQFUCUMXWEO-UHFFFAOYSA-N
Kind: experiment
Temperature: 293 K
Tabular data in the source: 0
pressure (bar)	uptake (mmol/g)
0.019	0.549
0.052	1.01
0.093	1.33
0.149	1.56
0.266	1.82
0.559	2.06
0.887	2.17
1.69	2.27
2.38	2.33
3.86	2.38
5.39	2.45
8.15	2.43
12.1	2.46
16	2.49
23.6	2.51
27.7	2.51
31.5	2.51
