Adsorption isotherm of Ethane, Ethene on ZIF-4
DOI: 10.3390/molecules23040889
Article source: Figure 2, 3
Adsorbate Ethane: InChIKey OTMSDBZUPAUEDD-UHFFFAOYSA-N
Adsorbate Ethene: InChIKey VGGSQFUCUMXWEO-UHFFFAOYSA-N
Kind: experiment
Temperature: 293 K
Tabular data in the source: 0
pressure (bar)	Ethane fraction	Ethane uptake (mmol/g)	Ethene fraction	Ethene uptake (mmol/g)	total uptake (mmol/g)
1	0.0706	0.258	0.9294	2.02	
1	0.134	0.529	0.866	1.77	
1	0.59	1.55	0.41	0.809	
1	0.612	1.8	0.388	0.324	
1	0.685	1.8	0.315	0.332	
1	0.747	1.92	0.253	0.227	
