Adsorption isotherm of Ethane on ZIF-4
DOI: 10.3390/molecules23040889
Article source: Figure 1
Adsorbate Ethane: InChIKey OTMSDBZUPAUEDD-UHFFFAOYSA-N
Kind: experiment
Temperature: 293 K
Tabular data in the source: 0
pressure (bar)	uptake (mmol/g)
0.00894	0.617
0.0301	1.21
0.075	1.68
0.134	1.96
0.388	2.28
0.656	2.34
0.868	2.36
2.05	2.43
2.49	2.45
3.66	2.48
5	2.49
7.68	2.47
