Adsorption isotherm of Benzene on MIP-P
DOI: 10.1007/s10450-019-00074-w
Article source: Figure 3b
Adsorbate Benzene: InChIKey UHOVQNZJYSORNB-UHFFFAOYSA-N
Kind: experiment
Temperature: 303 K
Tabular data in the source: 0
pressure (bar)	uptake (mg/g)
0	0
0.000494	0.771429
0.000868	1.43809
0.001201	2.00952
0.001552	2.52381
0.002017	3.33333
