Adsorption isotherm of Benzene on MIP-A
DOI: 10.1007/s10450-019-00074-w
Article source: Figure 3b
Adsorbate Benzene: InChIKey UHOVQNZJYSORNB-UHFFFAOYSA-N
Kind: experiment
Temperature: 303 K
Tabular data in the source: 0
pressure (bar)	uptake (mg/g)
0	0
0.000494	0.647619
0.000862	1.16191
0.001201	1.65714
0.001552	2.03809
0.002017	2.77143
