Adsorption isotherm of Nitrogen on MIP-P
DOI: 10.1007/s10450-019-00074-w
Article source: Figure S1
Adsorbate Nitrogen: InChIKey IJGRMHOSHXDMSA-UHFFFAOYSA-N
Kind: experiment
Temperature: 77 K
Tabular data in the source: 0
pressure (bar)	uptake (cm3(STP)/g)
0.021257	0.958333
0.041097	1.20833
0.060937	1.375
0.086445	1.45833
0.106285	1.625
0.148799	1.79167
0.189896	2.25
0.233827	2.54167
0.276341	2.91667
0.318855	3.29167
0.361369	3.66667
0.403883	4.04167
0.446397	4.54167
0.488911	5.125
0.530008	5.375
0.572522	6
0.615036	6.70833
0.65755	7.33333
0.698647	8
0.738326	8.58333
0.78084	9.29167
0.823354	10.125
0.8602	11.125
0.908382	12.7083
0.945228	15.625
0.977822	27.125
0.072274	6.95833
0.113371	7.625
0.154467	8.25
0.19273	8.83333
0.233827	9.375
0.279175	10.0417
0.321689	10.75
0.367037	11.5417
0.412386	12.2917
0.460568	13.125
0.513002	13.9583
0.565436	14.75
0.610784	15.5417
0.658967	16.625
0.715652	17.625
0.763835	18.7083
0.817686	20.125
0.872954	21.9167
0.929639	27.7917
