Adsorption isotherm of Benzene on MIP-N
DOI: 10.1007/s10450-019-00074-w
Article source: Figure 3b
Adsorbate Benzene: InChIKey UHOVQNZJYSORNB-UHFFFAOYSA-N
Kind: experiment
Temperature: 303 K
Tabular data in the source: 0
pressure (bar)	uptake (mg/g)
0	0
0.000494	0.371429
0.000868	0.704762
0.001201	0.904762
0.001552	1.26667
0.002017	1.65714
