Adsorption isotherm of 3-methyl-2-Butanone on MIP-A
DOI: 10.1007/s10450-019-00074-w
Article source: Figure 3a
Adsorbate 3-methyl-2-Butanone: InChIKey SYBYTAAJFKOIEJ-UHFFFAOYSA-N
Kind: experiment
Temperature: 303 K
Tabular data in the source: 0
pressure (bar)	uptake (mg/g)
0.000269	0.342857
0.00044	0.485714
0.000703	0.87619
0.000903	1.10476
0.0012	1.49524
0.001371	1.71429
0.001611	2.00952
0.001863	2.38095
