Adsorption isotherm of 3-methyl-2-Butanone on MIP-N
DOI: 10.1007/s10450-019-00074-w
Article source: Figure 3a
Adsorbate 3-methyl-2-Butanone: InChIKey SYBYTAAJFKOIEJ-UHFFFAOYSA-N
Kind: experiment
Temperature: 303 K
Tabular data in the source: 0
pressure (bar)	uptake (mg/g)
0	0
0.000263	0.104762
0.00044	0.142857
0.000703	0.285714
0.000903	0.342857
0.0012	0.514286
0.001371	0.552381
0.001611	0.72381
0.001863	0.904762
