Adsorption isotherm of Nitrogen on MIP-N
DOI: 10.1007/s10450-019-00074-w
Article source: Figure S1
Adsorbate Nitrogen: InChIKey IJGRMHOSHXDMSA-UHFFFAOYSA-N
Kind: experiment
Temperature: 77 K
Tabular data in the source: 0
pressure (bar)	uptake (cm3(STP)/g)
0.018423	0.291667
0.042514	0.375
0.066605	0.541667
0.089279	0.625
0.109119	0.625
0.151633	0.791667
0.196981	0.958333
0.233827	1.125
0.276341	1.45833
0.318855	1.70833
0.361369	1.79167
0.406717	2.125
0.446397	2.45833
0.483242	2.95833
0.532842	3.29167
0.571105	3.625
0.60795	4.125
0.658967	4.625
0.692978	4.95833
0.743995	5.70833
0.785092	6.20833
0.826188	6.95833
0.865868	7.625
0.911216	8.375
0.948062	8.41667
0.986324	11.25
0.035428	0.291667
0.072274	0.458333
0.120456	0.541667
0.160136	0.791667
0.205484	0.875
0.245164	1.29167
0.290512	1.41667
0.333026	1.625
0.372706	1.875
0.41522	2.29167
0.4549	2.625
0.497414	2.95833
0.534259	3.29167
0.576773	3.625
0.619287	4.125
0.658967	4.70833
0.698647	5.04167
0.743995	5.625
0.782257	6.20833
0.823354	7.04167
0.868702	7.70833
0.914051	8.29167
0.95373	9.125
0.976405	11.4583
0.997662	29.5833
