Adsorption isotherm of Nitrogen on MIP-A
DOI: 10.1007/s10450-019-00074-w
Article source: Figure S1
Adsorbate Nitrogen: InChIKey IJGRMHOSHXDMSA-UHFFFAOYSA-N
Kind: experiment
Temperature: 77 K
Tabular data in the source: 0
pressure (bar)	uptake (cm3(STP)/g)
0.018423	0.458333
0.052434	0.791667
0.086445	1.125
0.111953	1.125
0.157302	1.45833
0.194147	1.70833
0.236661	1.875
0.282009	2.20833
0.327358	2.45833
0.364203	2.79167
0.409551	3.20833
0.4549	3.45833
0.494579	3.79167
0.539928	4.29167
0.585276	4.625
0.622121	5.04167
0.670304	5.45833
0.712818	6.08333
0.749663	6.625
0.792177	7.125
0.84036	7.83333
0.88004	8.625
0.923971	9.75
0.96365	11.9583
0.989159	17.375
0.06944	1.95833
0.109119	2.45833
0.150216	2.83333
0.191313	3.29167
0.233827	3.79167
0.282009	4.29167
0.324523	4.70833
0.371289	5.25
0.416637	5.875
0.463402	6.45833
0.503082	6.95833
0.559767	7.45833
0.596613	7.875
0.641961	8.375
0.698647	9.20833
0.761	10.2917
0.812017	11.0417
0.874371	12.2917
0.936725	14.4583
0.976405	20.5417
