Adsorption isotherm of 3-methyl-2-Butanone on MIP-P
DOI: 10.1007/s10450-019-00074-w
Article source: Figure 3a
Adsorbate 3-methyl-2-Butanone: InChIKey SYBYTAAJFKOIEJ-UHFFFAOYSA-N
Kind: experiment
Temperature: 303 K
Tabular data in the source: 0
pressure (bar)	uptake (mg/g)
0.000263	0.238095
0.00044	0.342857
0.000703	0.638095
0.000903	0.8
0.0012	1.10476
0.001366	1.2381
0.001611	1.46667
0.001863	1.74286
