Adsorption isotherm of Carbon Dioxide on [Zn2(TRZ)2(DOBDC)]n
DOI: 10.1016/j.inoche.2015.11.001
Article source: Figure 2
Adsorbate Carbon Dioxide: InChIKey CURLTUGMZLYLDI-UHFFFAOYSA-N
Kind: experiment
Temperature: 273 K
Tabular data in the source: 0
pressure (bar)	uptake (cm3(STP)/g)
0.001237	0.3212
0.025865	8.6219
0.035846	10.9534
0.03637	11.0449
0.067901	16.2713
0.06987	16.267
0.104282	21.5543
0.10779	20.2332
0.142812	23.0254
0.151593	25.2184
0.180024	25.2269
0.200783	27.9574
0.215716	27.031
0.250713	30.2096
0.251929	28.5728
0.287515	29.9103
0.300754	32.0798
0.324147	31.2019
0.349489	33.6401
0.36078	32.3179
0.39725	33.3719
0.39937	35.0454
0.432902	34.3019
0.44974	36.2855
0.468391	35.2629
0.49995	37.4739
0.504371	36.0896
0.540841	36.8647
0.549014	38.4557
0.577803	37.6605
0.598568	39.4168
0.611983	38.4149
0.648777	39.1143
0.649109	39.0866
0.684272	39.7274
0.698168	41.2254
0.720906	40.4405
0.74936	41.887
0.757868	41.0709
0.792377	41.691
0.796625	42.6415
0.828521	42.3008
0.847162	43.334
0.866629	42.859
0.877748	43.6339
0.902446	43.4068
0.928448	44.3677
0.938917	44.0062
0.9731	44.492
0.976696	44.9156
1.01072	45.1845
1.04588	45.7013
