Adsorption isotherm of Hydrogen on [Zn4(TRZ)4(TTBDC)2]n
DOI: 10.1016/j.inoche.2015.11.001
Article source: Figure 2
Adsorbate Hydrogen: InChIKey UFHFLCQGNIYNRP-UHFFFAOYSA-N
Kind: experiment
Temperature: 77 K
Tabular data in the source: 0
pressure (bar)	uptake (cm3(STP)/g)
0.001928	7.969
0.004544	14.052
0.007682	19.22
0.009775	23.753
0.012131	25.422
0.016059	27.649
0.036746	39.696
0.052278	46.899
0.057559	47.839
0.080329	53.888
0.090806	57.37
0.103513	58.824
0.127028	62.895
0.129255	64.198
0.151946	66.591
0.167293	69.635
0.172904	69.422
0.196997	72.028
0.205908	73.832
0.220431	74.297
0.242957	76.264
0.244691	77.228
0.264824	78.219
0.283719	80.524
0.289083	80.111
0.311445	81.528
0.320522	83.119
0.333642	83.07
0.356416	84.424
0.359881	85.501
0.379026	85.778
0.400644	87.945
0.40312	87.257
0.424968	88.324
0.438261	89.825
0.44907	89.359
0.471692	90.429
0.477385	91.607
0.493725	91.608
0.517984	93.425
0.54076	93.727
0.556272	94.906
0.566423	94.343
0.585886	95.53
0.59309	96.385
0.608219	96.605
0.632316	97.931
0.651342	97.838
0.672209	99.309
0.700596	99.123
0.709998	100.488
0.746544	100.51
0.801298	102.263
0.839678	103.757
0.859457	103.937
0.864106	104.911
0.902355	106.196
0.914866	105.58
0.938116	106.198
0.940081	106.944
0.953442	106.776
0.973091	107.135
0.97905	108.02
1.00466	108.21
1.01756	108.768
1.04998	109.108
1.05915	109.784
