Adsorption isotherm of Carbon Dioxide on [Zn4(TRZ)4(TTBDC)2]n
DOI: 10.1016/j.inoche.2015.11.001
Article source: Figure 2
Adsorbate Carbon Dioxide: InChIKey CURLTUGMZLYLDI-UHFFFAOYSA-N
Kind: experiment
Temperature: 273 K
Tabular data in the source: 0
pressure (bar)	uptake (cm3(STP)/g)
0.006239	0.3201
0.022883	1.6251
0.03718	2.2572
0.069316	5.786
0.070193	5.7618
0.103234	7.2226
0.107226	5.1879
0.142699	6.3456
0.151312	8.8154
0.179339	7.3967
0.200165	10.2278
0.215716	8.2836
0.250715	11.5242
0.251809	9.1603
0.287796	10.0273
0.300417	12.7041
0.323371	10.8552
0.350018	13.8096
0.360289	11.6907
0.396626	12.4358
0.399939	14.8548
0.432143	13.1809
0.448386	15.7863
0.468152	13.9157
0.499451	16.7592
0.504978	14.6298
0.540002	15.2624
0.549215	17.5744
0.576709	15.96
0.598499	18.383
0.613518	16.5991
0.648997	19.165
0.649096	19.1707
0.684949	17.9351
0.697969	19.9045
0.720933	18.5759
0.74772	20.6113
0.757046	19.1839
0.792816	19.7941
0.797582	21.253
0.829109	20.4657
0.847218	21.9099
0.864865	21.0488
0.877223	22.2716
0.901497	21.665
0.926244	22.7928
0.937059	22.3177
0.973761	22.833
0.976862	23.367
1.01047	23.4655
1.04556	24.019
