Adsorption isotherm of Carbon Dioxide on [Zn2(TRZ)2(DOBDC)]n
DOI: 10.1016/j.inoche.2015.11.001
Article source: Figure 2
Adsorbate Carbon Dioxide: InChIKey CURLTUGMZLYLDI-UHFFFAOYSA-N
Kind: experiment
Temperature: 298 K
Tabular data in the source: 0
pressure (bar)	uptake (cm3(STP)/g)
0.002202	0.1899
0.0215	2.9175
0.032784	4.1263
0.033931	5.454
0.043822	5.2886
0.053226	7.4377
0.08544	8.7135
0.10256	11.2608
0.130989	11.5535
0.152418	14.1569
0.174872	13.8313
0.201554	16.4281
0.217313	15.686
0.250106	18.3719
0.260227	17.2483
0.300331	19.9952
0.305002	18.6421
0.348998	21.3851
0.349649	21.389
0.391177	20.9868
0.399226	22.6843
0.435692	22.0772
0.449582	23.7828
0.479559	22.9625
0.499676	24.8485
0.522646	23.8889
0.549383	25.7174
0.566383	24.725
0.598829	26.5617
0.609599	25.512
0.648347	27.3124
0.653577	26.1552
0.696255	26.8574
0.698381	27.11
0.740894	27.539
0.747763	28.6549
0.783897	28.1896
0.797797	29.2538
0.827392	28.8196
0.847177	29.7803
0.871496	29.3725
0.876299	30.0449
0.914063	29.9708
0.926004	30.4956
0.957929	30.5363
0.975969	30.9216
1.00102	31.0445
1.04579	31.6264
