Adsorption isotherm of Nitrogen on [Zn2(TRZ)2(DOBDC)]n
DOI: 10.1016/j.inoche.2015.11.001
Article source: Figure 2
Adsorbate Nitrogen: InChIKey IJGRMHOSHXDMSA-UHFFFAOYSA-N
Kind: experiment
Temperature: 77 K
Tabular data in the source: 0
pressure (bar)	uptake (cm3(STP)/g)
0.000397	14
0.000595	28.13
0.00086	53.933
0.000925	56.35
0.001587	85.233
0.001653	85.925
0.006281	96.002
0.017255	100.273
0.030544	100.93
0.046741	101.438
0.060068	101.856
0.073397	101.855
0.087669	102.013
0.097087	108.937
0.101626	102.107
0.115164	102.218
0.131904	108.76
0.134685	102.328
0.149062	108.634
0.154727	102.486
0.166388	108.533
0.173718	102.561
0.184213	108.357
0.192376	102.561
0.203705	108.356
0.213033	102.535
0.219531	108.155
0.233358	102.685
0.238522	107.979
0.251517	102.684
0.25618	108.054
0.271507	102.634
0.275839	107.878
0.290832	102.608
0.294664	107.551
0.310989	102.607
0.311156	102.578
0.328814	107.199
0.330479	102.532
0.34564	107.123
0.349971	102.581
0.363465	106.972
0.368963	102.48
0.38079	106.721
0.387393	102.51
0.399282	106.569
0.406913	102.415
0.41744	106.443
0.426853	102.383
0.435099	106.192
0.445953	102.414
0.453615	105.923
0.466103	102.35
0.471036	105.733
0.486043	102.128
0.491185	105.495
0.49874	105.4
0.505772	104.973
0.506822	105.368
0.524001	101.903
0.524033	101.906
0.543041	105.038
0.543763	104.967
0.559966	104.699
0.564332	101.905
0.577815	104.46
0.581963	101.746
0.595666	104.24
0.600643	101.682
0.614044	104.021
0.620582	101.524
0.631101	103.801
0.641362	101.46
0.648423	103.502
0.660163	101.393
0.665876	103.362
0.679821	101.317
0.684124	102.983
0.700478	101.216
0.702634	102.704
0.718804	101.065
0.719823	102.743
0.737409	102.404
0.737462	102.393
0.755391	102.145
0.756952	100.713
0.772316	101.766
0.775944	100.562
0.790959	101.566
0.795768	100.561
0.808016	101.566
0.81626	100.46
0.826263	101.306
0.834858	100.171
0.843981	101.087
0.855484	100.25
0.861039	100.867
0.873203	99.921
0.893367	99.86
0.897333	100.418
0.912274	99.86
0.915382	100.587
0.93191	100.228
0.951016	100.695
