Adsorption isotherm of Carbon Dioxide on [Zn4(TRZ)4(TTBDC)2]n
DOI: 10.1016/j.inoche.2015.11.001
Article source: Figure 2
Adsorbate Carbon Dioxide: InChIKey CURLTUGMZLYLDI-UHFFFAOYSA-N
Kind: experiment
Temperature: 298 K
Tabular data in the source: 0
pressure (bar)	uptake (cm3(STP)/g)
0.008829	0.2995
0.028776	1.0742
0.034007	2.0762
0.042349	1.1569
0.05232	2.51
0.084861	2.1691
0.10268	3.9251
0.130809	2.9644
0.152387	4.896
0.173814	3.6978
0.200787	5.7017
0.217799	4.3588
0.250006	6.5383
0.261131	4.9166
0.300533	7.251
0.305116	5.4846
0.346977	6.0114
0.34975	7.9017
0.391126	6.6001
0.399296	8.4801
0.434786	7.1269
0.449987	9.0378
0.477895	7.6786
0.499434	9.597
0.52384	8.1049
0.548492	10.1053
0.566149	8.6131
0.598849	10.4988
0.609497	9.0886
0.648427	10.9742
0.653364	9.4821
0.696452	11.4355
0.698005	11.4497
0.741358	10.4658
0.747842	11.7776
0.783733	10.8761
0.797464	12.2602
0.826084	11.3306
0.848482	12.5184
0.871378	11.7953
0.876281	12.663
0.913893	12.2291
0.925991	12.9419
0.957388	12.6732
0.976028	13.3033
1.00088	13.1484
1.04602	13.5821
