Adsorption isotherm of Methane on [Zn2(TRZ)2(DOBDC)]n
DOI: 10.1016/j.inoche.2015.11.001
Article source: Figure 2
Adsorbate Methane: InChIKey VNWKTOKETHGBQD-UHFFFAOYSA-N
Kind: experiment
Temperature: 273 K
Tabular data in the source: 0
pressure (bar)	uptake (cm3(STP)/g)
0.018252	0.509
0.050467	1.1658
0.080601	1.6256
0.104242	2.1346
0.129441	2.6108
0.150484	2.9064
0.172306	3.2676
0.194688	3.6754
0.217369	3.9296
0.23675	4.1447
0.263141	4.5488
0.282319	4.6144
0.288686	4.8771
0.310246	5.066
0.322066	5.0907
0.334796	5.4437
0.351292	5.649
0.359342	5.5259
0.379475	5.8462
0.398567	5.8709
0.402724	6.0269
0.426234	6.2815
0.439092	6.2898
0.448574	6.4704
0.469115	6.6608
0.478082	6.6804
0.494679	6.8499
0.516122	6.9999
0.540864	7.2281
0.55447	7.2347
0.563646	7.3846
0.586014	7.4759
0.594055	7.5151
0.609003	7.6324
0.631165	7.7499
0.633433	7.7564
0.654566	7.9064
0.67075	7.9586
0.678071	8.0694
0.700322	8.1677
0.709159	8.1988
0.744095	8.3594
0.747613	8.3852
0.787869	8.5768
0.790159	8.6079
0.826323	8.7788
0.837206	8.9029
0.859541	8.8979
0.863929	8.9151
0.882242	8.985
0.905944	9.1042
0.922309	9.1659
0.928413	9.2316
0.951855	9.2359
0.960428	9.3057
0.97348	9.314
0.998482	9.4127
1.01238	9.4743
