Adsorption isotherm of Methane on [Zn2(TRZ)2(DOBDC)]n
DOI: 10.1016/j.inoche.2015.11.001
Article source: Figure 2
Adsorbate Methane: InChIKey VNWKTOKETHGBQD-UHFFFAOYSA-N
Kind: experiment
Temperature: 298 K
Tabular data in the source: 0
pressure (bar)	uptake (cm3(STP)/g)
0.012618	0.4341
0.038901	0.7013
0.051478	1.2418
0.05972	0.9555
0.080647	1.3529
0.089203	1.7761
0.104455	1.6461
0.12641	1.8352
0.128989	2.1998
0.149292	2.1675
0.167333	2.7146
0.173719	2.3566
0.194437	2.5977
0.2065	3.1187
0.217627	2.7672
0.241127	3.0019
0.244325	3.3209
0.265142	3.1649
0.281533	3.6208
0.289259	3.2889
0.308741	3.5205
0.320032	3.8152
0.331401	3.6603
0.355532	3.6864
0.359134	3.9655
0.378356	3.8778
0.397665	4.2398
0.403469	3.966
0.42441	4.0541
0.438075	4.3953
0.448134	4.1939
0.470876	4.3698
0.476767	4.6231
0.493862	4.4269
0.516523	4.6649
0.517257	4.5615
0.539181	4.6135
0.554561	4.8255
0.560735	4.6918
0.583512	4.679
0.593407	4.907
0.607526	4.7835
0.63154	4.9921
0.631541	4.9921
0.653389	4.9272
0.670086	5.0316
0.676063	4.9405
0.699088	5.0569
0.709347	5.18
0.744145	5.1558
0.748173	5.3035
0.785814	5.3449
0.788594	5.2829
0.82377	5.4074
0.83473	5.3455
0.860252	5.3871
0.863361	5.4492
0.881683	5.4597
0.905242	5.4393
0.920784	5.5118
0.927656	5.4809
0.950233	5.5535
0.960376	5.5846
0.973464	5.5538
0.996205	5.6161
1.01371	5.5956
