Adsorption isotherm of Nitrogen on [Zn4(TRZ)4(TTBDC)2]n
DOI: 10.1016/j.inoche.2015.11.001
Article source: Figure 2
Adsorbate Nitrogen: InChIKey IJGRMHOSHXDMSA-UHFFFAOYSA-N
Kind: experiment
Temperature: 77 K
Tabular data in the source: 0
pressure (bar)	uptake (cm3(STP)/g)
0.000332	12.979
0.000348	14.036
0.000965	57.918
0.001315	42.688
0.003117	69.61
0.009439	75.18
0.017761	77.915
0.028195	80.153
0.038106	81.657
0.048348	82.633
0.058523	83.489
0.070088	84.226
0.078876	84.714
0.09011	85.013
0.095519	93.756
0.09969	85.591
0.113832	85.98
0.128824	94.692
0.133128	86.547
0.146665	95.051
0.152886	87.036
0.164772	95.25
0.172578	87.444
0.183142	95.549
0.191478	87.813
0.200324	95.749
0.210443	88.371
0.21777	95.988
0.229937	88.64
0.235347	96.188
0.248705	89.079
0.25319	96.447
0.268595	89.368
0.270635	96.547
0.28756	89.756
0.288346	96.686
0.306621	96.833
0.306988	90.075
0.3233	96.991
0.32635	90.355
0.341239	97.055
0.344788	90.544
0.359386	97.102
0.364479	90.843
0.37659	97.166
0.38373	91.191
0.395052	97.214
0.403975	91.334
0.411626	97.309
0.422752	91.635
0.429774	97.404
0.441214	91.888
0.447711	97.594
0.462194	92.078
0.466591	97.731
0.4805	92.237
0.48241	97.669
0.49265	97.907
0.4994	96.514
0.501143	97.895
0.517712	97.795
0.5183	97.112
0.536196	97.657
0.5382	92.752
0.552515	97.683
0.557682	92.853
0.571748	97.658
0.576249	93.054
0.589065	97.533
0.594898	93.255
0.60655	97.571
0.614547	93.306
0.624783	97.533
0.634031	93.469
0.642102	97.571
0.65326	93.676
0.660062	97.38
0.671563	93.726
0.67797	97.381
0.691388	94.016
0.695152	97.192
0.710883	94.175
0.712664	97.162
0.730243	94.219
0.730311	94.225
0.748481	97.044
0.749145	96.985
0.766257	97.143
0.769762	94.545
0.7841	97.094
0.788463	94.744
0.801479	96.985
0.80743	95.023
0.818529	97.005
0.826461	95.183
0.836966	96.796
0.846021	95.363
0.853355	97.036
0.865185	95.831
0.884745	96.18
0.888378	97.484
0.903512	96.827
0.90774	97.992
0.923401	98.132
0.941308	100.044
