Adsorption isotherm of Hydrogen on [Zn2(TRZ)2(DOBDC)]n
DOI: 10.1016/j.inoche.2015.11.001
Article source: Figure 2
Adsorbate Hydrogen: InChIKey UFHFLCQGNIYNRP-UHFFFAOYSA-N
Kind: experiment
Temperature: 77 K
Tabular data in the source: 0
pressure (bar)	uptake (cm3(STP)/g)
0.002649	7.881
0.005616	14.539
0.011059	19.795
0.013782	22.711
0.017493	24.238
0.033992	33.512
0.05239	39.594
0.057341	40.658
0.080443	46.215
0.092386	49.129
0.104829	51.036
0.127619	55.169
0.129845	55.665
0.150148	58.606
0.167044	61.268
0.174116	61.844
0.19671	64.596
0.206468	66.016
0.220811	67.268
0.243733	69.831
0.244649	70.03
0.266917	72.165
0.282962	73.963
0.289969	74.301
0.311122	76.228
0.32193	77.45
0.334896	78.126
0.358736	79.934
0.3626	80.699
0.380871	81.573
0.400519	83.53
0.404384	83.292
0.427109	84.851
0.439028	86.143
0.449246	86.312
0.471775	87.683
0.478586	88.467
0.494825	89.056
0.516773	90.442
0.517764	90.408
0.540538	91.76
0.555736	92.958
0.56366	92.988
0.587042	93.931
0.593461	94.965
0.608778	95.427
0.631223	96.541
0.632543	96.829
0.65441	97.418
0.670058	98.662
0.678272	98.473
0.70052	99.53
0.709462	100.192
0.745537	101.281
0.748656	101.769
0.787921	103.526
0.791716	103.038
0.826125	104.778
0.840979	105.066
0.864056	106.406
0.871644	106.185
0.902418	107.684
0.90772	107.463
0.937688	108.383
0.940988	108.593
0.953944	109.022
0.980066	110.166
0.981442	109.977
1.0069	110.885
1.01803	111.469
1.05306	112.337
1.05712	112.439
