Adsorption isotherm of Methane on [Zn4(TRZ)4(TTBDC)2]n
DOI: 10.1016/j.inoche.2015.11.001
Article source: Figure 2
Adsorbate Methane: InChIKey VNWKTOKETHGBQD-UHFFFAOYSA-N
Kind: experiment
Temperature: 298 K
Tabular data in the source: 0
pressure (bar)	uptake (cm3(STP)/g)
0.00815	0.1424
0.029163	0.2456
0.039549	0.2249
0.051813	0.2662
0.068902	0.2971
0.079124	0.3022
0.090409	0.3228
0.104718	0.3279
0.125819	0.3497
0.129219	0.3952
0.150648	0.3496
0.167132	0.3821
0.177536	0.4016
0.193712	0.3755
0.206072	0.5121
0.218437	0.4144
0.238938	0.4729
0.243161	0.4989
0.262942	0.4273
0.282721	0.6029
0.28746	0.5248
0.309508	0.5572
0.320427	0.6613
0.335159	0.5962
0.359576	0.6547
0.377193	0.5765
0.379769	0.6416
0.404391	0.6285
0.440036	0.6934
0.446425	0.6088
0.457448	0.6543
0.470327	0.5827
0.494666	0.5721
0.51673	0.6523
0.518288	0.6458
0.554892	0.6703
0.562162	0.5636
0.583708	0.6784
0.59396	0.8013
0.628359	0.6618
0.631473	0.6829
0.651076	0.5879
0.670545	0.7026
0.676646	0.637
0.687547	0.76
0.700918	0.7271
0.748405	0.6922
0.76476	0.6199
0.786067	0.694
0.80437	0.6775
0.812809	0.5791
0.836174	0.5544
0.858888	0.5543
0.86382	0.6609
0.882251	0.669
0.905098	0.5377
0.920154	0.6689
0.948322	0.513
0.959745	0.5457
0.974412	0.5457
0.998035	0.5538
1.03451	0.4634
