Adsorption isotherm of Methane on [Zn4(TRZ)4(TTBDC)2]n
DOI: 10.1016/j.inoche.2015.11.001
Article source: Figure 2
Adsorbate Methane: InChIKey VNWKTOKETHGBQD-UHFFFAOYSA-N
Kind: experiment
Temperature: 273 K
Tabular data in the source: 0
pressure (bar)	uptake (cm3(STP)/g)
0.008081	0.1956
0.030541	0.2477
0.054238	0.2218
0.094007	0.3652
0.105753	0.3913
0.145728	0.4436
0.15088	0.4957
0.191062	0.4958
0.227328	0.3788
0.241134	0.5612
0.266067	0.5743
0.302539	0.6656
0.308721	0.7177
0.334891	0.6657
0.36003	0.7179
0.378164	0.8222
0.401036	0.822
0.404333	0.8484
0.439981	0.8355
0.444514	0.8355
0.469448	0.9137
0.478926	0.9659
0.495823	0.9269
0.516635	0.966
0.555993	1.0573
0.562587	1.1225
0.584635	1.1226
0.593907	1.1747
0.629144	1.24
0.632029	1.227
0.655931	1.214
0.671798	1.2532
0.698999	1.2402
0.709507	1.2273
0.720429	1.2403
0.747423	1.3577
0.766792	1.3056
0.811396	1.3461
0.824643	1.3358
0.844269	1.3462
0.857843	1.4496
0.882539	1.429
0.90511	1.3361
0.919502	1.3568
0.946978	1.3466
0.9581	1.326
0.974291	1.388
0.997678	1.4812
1.03693	1.4296
