Adsorption isotherm of N-Heptane on Silicalite MFI
DOI: 10.1021/Jp0746502
Adsorbate N-Heptane: InChIKey IMNFDUFMRHMDMM-UHFFFAOYSA-N
Temperature: 300 K
Tabular data in the source: 0
pressure (bar)	uptake (molecules/unitcell)
0.000659	0.0529291
0.00108756	0.682192
0.0015166	1.41443
0.00237469	2.13522
0.00280373	2.95898
0.00366182	3.5196
0.0065221	3.97724
0.0102405	4.37768
0.0149599	4.67515
0.0206805	4.83533
0.0266871	4.90397
0.0342669	4.94974
0.0435628	4.96118
0.0525727	4.96118
0.0614396	4.9383
0.0713076	4.9383
