Adsorption isotherm of N-Heptane on Silicalite MFI
DOI: 10.1021/Jp0746502
Adsorbate N-Heptane: InChIKey IMNFDUFMRHMDMM-UHFFFAOYSA-N
Temperature: 273 K
Tabular data in the source: 0
pressure (bar)	uptake (molecules/unitcell)
0.000659	0.716515
0.000945	0.041488
0.000945	3.09627
0.00123058	1.83775
0.0015166	4.42345
0.00294675	4.91542
0.00480593	5.27009
0.00838129	5.55612
0.0139588	5.80782
0.0212526	5.94512
0.0278312	5.99088
