Adsorption isotherm of Benzene, Water on L2-variannt cyclodextrin functionalized mesoporous silica
DOI: 10.1007/s10450-022-00356-w
Article source: Figure 9
Adsorbate Benzene: InChIKey UHOVQNZJYSORNB-UHFFFAOYSA-N
Adsorbate Water: InChIKey XLYOFNOQVPJJNP-UHFFFAOYSA-N
Kind: experiment
Temperature: 298 K
Tabular data in the source: 0
pressure (bar)	Benzene fraction	Benzene uptake (micromoles/m2)	Water fraction	Water uptake (micromoles/m2)	total uptake (micromoles/m2)
1.01325	0.050368	1.81318			
1.01325	0.096059	4.99699			
1.01325	0.120169	11.3769			
1.01325	0.150998	16.7115			
1.01325	0.18105	21.9053			
1.01325	0.196629	29.3504			
