Adsorption isotherm of Benzene, Water on L2-variannt cyclodextrin functionalized mesoporous silica
DOI: 10.1007/s10450-022-00356-w
Article source: Figure 9
Adsorbate Benzene: InChIKey UHOVQNZJYSORNB-UHFFFAOYSA-N
Adsorbate Water: InChIKey XLYOFNOQVPJJNP-UHFFFAOYSA-N
Kind: experiment
Temperature: 350 K
Tabular data in the source: 0
pressure (bar)	Benzene fraction	Benzene uptake (micromoles/m2)	Water fraction	Water uptake (micromoles/m2)	total uptake (micromoles/m2)
1.01325	0.07812	8.69969			
1.01325	0.13	21.0174			
1.01325	0.171449	33.4498			
