Adsorption isotherm of Carbon monoxide on [Cu(PF6)2(bpetha)2]n
DOI: 10.1021/Cm9012969
Adsorbate Carbon monoxide: InChIKey UGFAIRIUMAVXCW-UHFFFAOYSA-N
Temperature: 77 K
Tabular data in the source: 0
pressure (bar)	uptake (ml/g)
0.00116416	2.41561
0.0507042	3.8164
0.130993	4.56804
0.1942	5.11469
0.250573	5.45635
0.312071	5.798
0.371861	6.24216
0.43165	6.65214
0.493148	7.0963
0.552938	7.50628
0.607603	8.0871
0.669101	8.63375
0.728891	9.35122
0.792097	10.1712
0.84847	11.162
0.901427	12.597
0.945842	14.5786
0.973175	16.936
