Adsorption isotherm of Nitrogen on {[Cu(bpetha)2(DMF)2]*2PF6}n
DOI: 10.1021/Cm9012969
Adsorbate Nitrogen: InChIKey IJGRMHOSHXDMSA-UHFFFAOYSA-N
Temperature: 77 K
Tabular data in the source: 0
pressure (bar)	uptake (ml/g)
0.0387463	1.59751
0.0729119	1.76834
0.098536	2.28082
0.151493	2.70789
0.201033	2.87872
0.240323	3.30579
0.296696	3.64744
0.356486	4.33075
0.404318	4.50158
0.450441	4.84324
0.496565	5.44113
0.552938	6.12445
0.602478	6.80776
0.655435	7.49107
0.703267	7.74731
0.751098	8.25979
0.804055	9.19935
0.850179	9.88266
0.901427	10.993
0.952675	14.0679
