Adsorption isotherm of Carbon Dioxide on {[Cu(bpetha)2(DMF)2]*2PF6}n
DOI: 10.1021/Cm9012969
Adsorbate Carbon Dioxide: InChIKey CURLTUGMZLYLDI-UHFFFAOYSA-N
Temperature: 195 K
Tabular data in the source: 0
pressure (bar)	uptake (molecules/unitcell)
1.59e-05	0.00600572
2.06e-05	0.0230885
5.4e-05	0.00362446
7.92e-05	0.00859432
8.93e-05	0.021019
0.000191	0.021019
0.000295	0.021019
0.000414	0.021019
0.000497	0.0110793
0.000577	0.018534
0.000709	0.00859432
0.000846	0.00859432
0.000993	0.0135642
0.00207788	0.0259888
0.00319146	0.021019
0.00385472	0.0334436
0.00510216	0.0458683
0.00731653	0.055808
0.00979572	0.0284738
0.0260591	0.0508381
0.0397965	0.055808
0.055777	0.100537
0.0717451	0.100537
0.0928141	0.107992
0.108941	0.120416
0.130084	0.120416
0.152687	0.137811
0.180246	0.180055
0.191955	0.209874
0.214	0.567704
0.238577	0.682011
0.272133	0.788863
0.303386	0.843531
0.348043	0.88329
0.410862	0.930504
0.474045	1.00505
0.556413	1.05972
0.623873	1.08208
0.740703	1.13427
0.854609	1.19142
0.958222	1.19391
