Adsorption isotherm of Carbon Dioxide on [Cu(PF6)1.4(BF4)0.6(bpetha)2]n
DOI: 10.1021/Cm9012969
Adsorbate Carbon Dioxide: InChIKey CURLTUGMZLYLDI-UHFFFAOYSA-N
Temperature: 195 K
Tabular data in the source: 0
pressure (bar)	uptake (molecules/unitcell)
1.21e-05	0.0230885
1.72e-05	0.0316299
2.27e-05	0.0316299
3.3e-05	0.0316299
4.52e-05	0.0487127
6.31e-05	0.0657955
8.82e-05	0.099961
0.000176	0.108502
0.000281	0.108502
0.000378	0.117044
0.000451	0.134127
0.000709	0.168292
0.000934	0.193916
0.00193363	0.245165
0.00298046	0.27933
0.00377381	0.27933
0.00487324	0.304954
0.00581689	0.364744
0.00796807	0.381827
0.00951099	0.415993
0.0164962	0.492865
0.0208873	0.578279
0.02918	0.638069
0.0362277	0.945559
0.0458709	1.56908
0.0580809	1.6972
0.0707046	1.78262
0.0931166	1.90219
0.125069	1.95344
0.152252	1.98761
0.204495	2.05594
0.303048	2.17552
0.431773	2.25239
0.505344	2.3976
0.59145	2.50009
0.7343	2.62821
0.876488	2.70509
0.967059	2.73071
