Adsorption isotherm of Hydrogen on [Cu(PF6)2(bpetha)2]n
DOI: 10.1021/Cm9012969
Adsorbate Hydrogen: InChIKey UFHFLCQGNIYNRP-UHFFFAOYSA-N
Temperature: 195 K
Tabular data in the source: 0
pressure (bar)	uptake (ml/g)
0.0116467	0.407319
0.0587952	0.407319
0.093644	0.16816
0.181791	0.16816
0.51798	-0.0709987
0.620477	0.407319
0.741423	0.885637
0.85622	0.16816
1.02841	1.36396
