Adsorption isotherm of Carbon monoxide on [Cu(PF6)2(bpetha)2]n
DOI: 10.1021/Cm9012969
Adsorbate Carbon monoxide: InChIKey UGFAIRIUMAVXCW-UHFFFAOYSA-N
Temperature: 195 K
Tabular data in the source: 0
pressure (bar)	uptake (ml/g)
0.0915941	0.16816
0.448283	0.407319
0.511831	0.646478
0.569229	0.885637
0.653276	1.60311
0.727074	1.1248
0.782422	1.1248
0.84802	0.646478
0.903368	0.885637
1.01201	0.885637
