Adsorption isotherm of Nitrogen on [Cu(PF6)2(bpetha)2]n
DOI: 10.1021/Cm9012969
Adsorbate Nitrogen: InChIKey IJGRMHOSHXDMSA-UHFFFAOYSA-N
Temperature: 77 K
Tabular data in the source: 0
pressure (bar)	uptake (ml/g)
0.0267883	3.04954
0.0524125	3.22037
0.0831615	3.47661
0.115619	3.81827
0.149784	3.9891
0.219824	4.67241
0.291572	4.75782
0.370152	5.35572
0.412859	5.69738
0.517064	6.03903
0.559771	6.38069
0.622978	6.89317
0.672518	7.23483
0.720349	7.57648
0.76989	8.68686
0.817721	9.28476
0.867261	10.7368
0.909968	13.2138
0.9578	16.8012
0.9578	19.1074
0.974883	26.3675
0.986841	39.6921
0.990257	49.2585
