Adsorption isotherm of Carbon Dioxide on [Cu(PF6)2(bpetha)2]n
DOI: 10.1021/Cm9012969
Adsorbate Carbon Dioxide: InChIKey CURLTUGMZLYLDI-UHFFFAOYSA-N
Temperature: 298 K
Tabular data in the source: 0
pressure (bar)	uptake (molecules/unitcell)
0.826934	0.0627926
1.16859	0.0969582
2.10814	0.122582
3.47477	0.165289
4.24349	0.195184
5.01222	0.220808
6.37884	0.250703
7.0607	0.284869
8.34242	0.306222
9.11059	0.340388
10.0531	0.357471
12.017	0.41299
14.0645	0.468509
16.1173	0.506945
18.0792	0.588088
20.1303	1.21588
22.0934	1.56608
24.2304	1.82232
26.1106	1.92482
28.1584	1.98034
30.1239	2.02731
32.0043	2.04867
34.1399	2.07002
36.1038	2.07002
37.8109	2.0871
39.9465	2.09991
41.8254	2.09991
43.8756	2.10846
45.1553	2.10419
