Adsorption isotherm of Carbon Dioxide on [CuCl2(bpetha)]n
DOI: 10.1021/Cm9012969
Adsorbate Carbon Dioxide: InChIKey CURLTUGMZLYLDI-UHFFFAOYSA-N
Temperature: 195 K
Tabular data in the source: 0
pressure (bar)	uptake (ml/g)
0.00287244	0.130203
0.0199552	0.386445
0.0319132	0.560689
0.0575374	0.806681
0.0763284	0.85793
0.0917029	1.06292
0.115619	1.15517
0.130993	1.30892
0.151493	1.37041
0.171992	1.53441
0.212991	1.72915
0.247156	1.85215
0.296696	2.12889
0.312071	2.26213
0.354778	2.41588
0.373569	2.55938
0.399193	2.61062
0.419692	2.64137
0.433359	2.80537
0.450441	2.93861
0.472649	3.07186
0.49144	3.07186
0.513648	3.2256
0.529022	3.2256
0.558063	3.46135
0.573438	3.46135
0.595645	3.67659
0.616144	3.66634
0.715225	4.16857
0.812596	4.64006
0.913385	5.11154
0.962925	5.35754
0.985133	5.48053
