Adsorption isotherm of Nitrogen on [Cu(PF6)1.4(BF4)0.6(bpetha)2]n
DOI: 10.1021/Cm9012969
Adsorbate Nitrogen: InChIKey IJGRMHOSHXDMSA-UHFFFAOYSA-N
Temperature: 77 K
Tabular data in the source: 0
pressure (bar)	uptake (ml/g)
0.0165387	0.316299
0.0592456	1.08502
0.0882864	1.59751
0.14466	2.10999
0.197616	2.7933
0.255698	3.04954
0.300113	3.30579
0.411151	4.587
0.460691	4.92865
0.597353	6.55152
0.655435	7.6619
0.703267	8.34521
0.756223	9.02852
0.802347	9.79725
0.855303	11.5055
0.89801	13.043
0.954384	16.8866
0.956092	19.0219
