Adsorption isotherm of Oxygen on [Cu(PF6)2(bpetha)2]n
DOI: 10.1021/Cm9012969
Adsorbate Oxygen: InChIKey MYMOFIZGZYHOMD-UHFFFAOYSA-N
Temperature: 195 K
Tabular data in the source: 0
pressure (bar)	uptake (ml/g)
0.0218963	1.1248
0.101844	0.407319
0.144892	0.407319
0.21459	0.646478
0.267888	0.407319
0.329386	0.16816
0.417534	0.16816
0.499531	0.16816
0.548729	0.407319
0.602028	0.407319
0.782422	0.885637
0.85417	0.885637
1.00586	0.885637
