Adsorption isotherm of Acetylene on [Cu(PF6)2(bpetha)2]n
DOI: 10.1021/Cm9012969
Adsorbate Acetylene: InChIKey HSFWRNGVRCDJHI-UHFFFAOYSA-N
Temperature: 195 K
Tabular data in the source: 0
pressure (bar)	uptake (molecules/unitcell)
7.27e-05	0.0375775
0.000373	0.0723833
0.000618	0.0897863
0.000749	0.0984878
0.00186798	0.176801
0.0035752	0.35083
0.00621529	0.559666
0.0162604	1.48202
0.0350969	1.76047
0.0528176	1.83878
0.0688078	1.89969
0.10355	1.9606
0.144988	1.99541
0.188883	2.03021
0.234514	2.09113
0.312946	2.12593
0.427772	2.21295
0.544039	2.31736
0.628464	2.39568
0.691907	2.5262
