Adsorption isotherm of Nitrogen on [Cu(PF6)2(bpetha)2]n
DOI: 10.1021/Cm9012969
Adsorbate Nitrogen: InChIKey IJGRMHOSHXDMSA-UHFFFAOYSA-N
Temperature: 195 K
Tabular data in the source: 0
pressure (bar)	uptake (ml/g)
0.0136966	0.885637
0.0772446	0.646478
0.114143	0.646478
0.175641	0.407319
0.22689	0.646478
0.292488	0.885637
0.353986	1.1248
0.401134	0.407319
0.491331	1.60311
0.546679	1.1248
0.589728	1.1248
0.618427	1.1248
0.696325	1.36396
0.766023	1.60311
0.83367	1.60311
0.878769	1.84227
0.950517	1.60311
1.01816	1.36396
