Adsorption isotherm of Carbon Dioxide on [Cu(PF6)2(bpetha)2]n
DOI: 10.1021/Cm9012969
Adsorbate Carbon Dioxide: InChIKey CURLTUGMZLYLDI-UHFFFAOYSA-N
Temperature: 195 K
Tabular data in the source: 0
pressure (bar)	uptake (molecules/unitcell)
5.69e-06	0.028876
1.49e-05	0.028876
3.8e-05	0.028876
0.00102407	0.0375775
0.00324738	0.0984878
0.00684271	0.107189
0.010053	0.133294
0.015497	0.263816
0.0250659	0.307323
0.0342631	0.368233
0.0377219	0.429144
0.049142	0.472651
0.0554194	0.533561
0.0655774	0.603173
0.0775973	0.707591
0.0794856	0.768501
0.0896391	1.07305
0.098688	1.38631
0.111294	1.55163
0.134899	1.80398
0.144988	1.9258
0.198187	2.05632
0.277498	2.10853
0.518497	3.31803
0.531115	3.62258
0.557278	3.86623
0.570839	3.97064
0.58473	4.05766
0.691907	4.15337
0.761754	4.24909
0.923313	4.3187
