Adsorption isotherm of Hydrogen on [Cu(PF6)2(bpetha)2]n
DOI: 10.1021/Cm9012969
Adsorbate Hydrogen: InChIKey UFHFLCQGNIYNRP-UHFFFAOYSA-N
Temperature: 77 K
Tabular data in the source: 0
pressure (bar)	uptake (ml/g)
0.0423957	0.126599
0.0690448	0.193222
0.0977439	0.26497
0.120293	0.316218
0.146942	0.372592
0.181791	0.449464
0.194091	0.505837
0.23304	0.58271
0.269938	0.659582
0.321187	0.756954
0.364235	0.854326
0.419584	0.987572
0.466732	1.11569
0.51798	1.24894
0.573329	1.37706
0.622527	1.51031
0.669676	1.66405
0.725024	1.83829
0.776272	2.00741
0.825471	2.19703
0.868519	2.37128
0.927967	2.61727
1.02226	2.95038
