Adsorption isotherm of Argon on [Cu(PF6)2(bpetha)2]n
DOI: 10.1021/Cm9012969
Adsorbate Argon: InChIKey XKRFYHLGVUSROY-UHFFFAOYSA-N
Temperature: 77 K
Tabular data in the source: 0
pressure (bar)	uptake (ml/g)
0.00458072	0.160685
0.00458072	0.946493
0.00799728	1.8348
0.0507042	2.89393
0.0934112	3.40641
0.132702	3.85057
0.190783	4.36305
0.24374	4.77304
0.329154	5.31969
0.407734	5.86634
0.56148	7.13046
0.648602	7.71128
0.693017	8.12126
0.786972	8.9754
0.841637	9.72705
0.887761	10.6837
0.930468	11.9136
0.981716	13.4511
0.995382	17.756
