Adsorption isotherm of Nitrogen on ZnPc-PPE COF
DOI: 10.1002/anie.201107070
Article source: Figure 3d
Adsorbate Nitrogen: InChIKey IJGRMHOSHXDMSA-UHFFFAOYSA-N
Kind: experiment
Temperature: 77 K
Tabular data in the source: 0
pressure (bar)	uptake (cm3(STP)/g)
0	0
0.012745	43.956
0.019118	61.5385
0.050981	79.1209
0.076472	87.9121
0.114708	96.7033
0.146571	105.495
0.178434	105.495
0.203925	114.286
0.248533	131.868
0.299514	149.451
0.363241	149.451
0.426967	158.242
0.446085	167.033
0.503439	158.242
0.567165	175.824
0.605401	175.824
0.662755	175.824
0.707363	175.824
0.751972	184.615
0.783835	184.615
0.809325	193.407
0.822071	202.198
0.841189	210.989
0.866679	210.989
0.89217	210.989
0.904915	219.78
0.924033	237.363
0.936778	246.154
0.955896	272.527
0.975014	316.484
0.981387	378.022
0.987759	421.978
1.00688	606.593
0.987759	562.637
0.981387	518.681
0.975014	474.725
0.968642	430.769
0.968642	413.187
0.949524	351.648
0.949524	316.484
0.943151	307.692
0.936778	298.901
0.930406	281.319
0.924033	272.527
0.911288	254.945
0.904915	254.945
0.885797	246.154
0.873052	237.363
0.860307	219.78
0.828443	210.989
0.79658	202.198
0.777462	202.198
0.758344	202.198
0.713736	193.407
0.707363	193.407
0.650009	193.407
0.599028	184.615
0.55442	175.824
0.497066	175.824
0.452458	175.824
0.414222	167.033
0.344123	167.033
0.299514	158.242
0.261278	140.659
0.197552	123.077
0.146571	123.077
