Adsorption isotherm of Nitrogen on ZnPc-DPB COF
DOI: 10.1002/anie.201107070
Article source: Figure 3b
Adsorbate Nitrogen: InChIKey IJGRMHOSHXDMSA-UHFFFAOYSA-N
Kind: experiment
Temperature: 77 K
Tabular data in the source: 0
pressure (bar)	uptake (cm3(STP)/g)
0.012745	60.8696
0.025491	78.2609
0.063726	95.6522
0.076472	104.348
0.108335	113.043
0.140198	121.739
0.178434	121.739
0.203925	130.435
0.261278	191.304
0.325005	191.304
0.369613	191.304
0.426967	191.304
0.465203	191.304
0.497066	191.304
0.560792	208.696
0.605401	208.696
0.656382	200
0.713736	217.391
0.764717	217.391
0.777462	217.391
0.809325	217.391
0.834816	217.391
0.853934	226.087
0.866679	226.087
0.879425	226.087
0.89217	243.478
0.904915	252.174
0.91766	269.565
0.924033	269.565
0.936778	286.957
0.949524	295.652
0.968642	365.217
0.981387	460.87
0.994132	530.435
1.01325	678.261
0.987759	660.87
0.975014	573.913
0.968642	478.261
0.955896	400
0.949524	373.913
0.943151	356.522
0.930406	330.435
0.930406	313.043
0.924033	295.652
0.911288	278.261
0.89217	269.565
0.885797	260.87
0.873052	260.87
0.847561	243.478
0.834816	234.783
0.802953	234.783
0.77109	234.783
0.745599	217.391
0.707363	217.391
0.656382	217.391
0.605401	217.391
0.55442	217.391
0.503439	208.696
0.45883	208.696
0.407849	200
0.350495	200
0.312259	200
0.254906	191.304
0.210297	139.13
0.133825	121.739
