Adsorption isotherm of Nitrogen on ZnPc-NDI COF
DOI: 10.1002/anie.201107070
Article source: Figure 3c
Adsorbate Nitrogen: InChIKey IJGRMHOSHXDMSA-UHFFFAOYSA-N
Kind: experiment
Temperature: 77 K
Tabular data in the source: 0
pressure (bar)	uptake (cm3(STP)/g)
0.006353	60.2151
0.025411	77.4194
0.057174	94.6237
0.076232	103.226
0.114348	111.828
0.139759	111.828
0.184227	120.43
0.196933	129.032
0.254107	146.237
0.304928	163.441
0.349397	172.043
0.400218	206.452
0.463745	232.258
0.508213	240.86
0.559034	249.462
0.635266	249.462
0.673382	249.462
0.711498	249.462
0.749614	249.462
0.775025	249.462
0.819494	258.065
0.838552	258.065
0.85761	258.065
0.85761	258.065
0.876668	258.065
0.88302	258.065
0.902078	258.065
0.914784	266.667
0.927489	266.667
0.946547	275.269
0.959252	275.269
0.984663	309.677
0.984663	326.882
0.997368	533.333
0.984663	498.925
0.971958	361.29
0.965605	309.677
0.946547	292.473
0.914784	283.871
0.889373	283.871
0.844904	283.871
0.819494	283.871
0.813141	275.269
0.806788	275.269
0.775025	275.269
0.743262	275.269
0.698793	275.269
0.647972	275.269
0.603503	275.269
0.552682	275.269
0.508213	266.667
0.451039	249.462
0.400218	232.258
0.362102	197.849
0.298575	172.043
0.235049	146.237
0.19058	137.634
0.149288	129.032
