Adsorption isotherm of Nitrogen on ZnPc-Py COF
DOI: 10.1002/anie.201107070
Article source: Figure 3a
Adsorbate Nitrogen: InChIKey IJGRMHOSHXDMSA-UHFFFAOYSA-N
Kind: experiment
Temperature: 77 K
Tabular data in the source: 0
pressure (bar)	uptake (cm3(STP)/g)
0.006373	60.8696
0.025491	69.5652
0.063726	78.2609
0.082844	78.2609
0.101962	95.6522
0.133825	104.348
0.184807	113.043
0.203925	121.739
0.267651	147.826
0.325005	147.826
0.363241	139.13
0.407849	156.522
0.45883	156.522
0.503439	156.522
0.563979	160.87
0.611774	165.217
0.656382	165.217
0.713736	165.217
0.751972	173.913
0.777462	173.913
0.809325	173.913
0.815698	182.609
0.834816	182.609
0.853934	191.304
0.879425	191.304
0.904915	191.304
0.911288	208.696
0.930406	226.087
0.949524	243.478
0.968642	278.261
0.981387	347.826
0.994132	391.304
1.00688	660.87
0.987759	608.696
0.981387	504.348
0.981387	417.391
0.981387	408.696
0.968642	356.522
0.955896	304.348
0.936778	260.87
0.924033	234.783
0.898542	217.391
0.866679	200
0.828443	200
0.815698	191.304
0.79658	182.609
0.783835	182.609
0.751972	182.609
0.713736	182.609
0.656382	182.609
0.599028	173.913
0.55442	173.913
0.503439	173.913
0.45883	165.217
0.407849	165.217
0.356868	165.217
0.305887	156.522
0.254906	156.522
0.210297	130.435
0.140198	113.043
