Adsorption isotherm of Water on Zn-MOF-74(cycle 5)
DOI: 10.1021/acs.jpcc.5b02069
Article source: Figure 3a
Adsorbate Water: InChIKey XLYOFNOQVPJJNP-UHFFFAOYSA-N
Kind: experiment
Temperature: 298 K
Tabular data in the source: 0
pressure (bar)	uptake (cm3(STP)/g)
0	0
0.000472	13.248
0.000476	31.43
0.00048	46.3062
0.000483	61.1824
0.000767	72.7676
0.000959	89.3066
0.001056	102.535
0.001716	117.446
0.00228	124.087
0.003219	129.095
0.004346	137.419
0.005567	142.442
0.006974	147.474
0.008757	150.874
0.010634	157.584
0.012699	162.652
0.01739	171.163
0.021237	179.63
0.025647	188.126
0.028273	189.917
0.031463	196.697
