Adsorption isotherm of Water on Zn-MOF-74(cycle 4)
DOI: 10.1021/acs.jpcc.5b02069
Article source: Figure 3a
Adsorbate Water: InChIKey XLYOFNOQVPJJNP-UHFFFAOYSA-N
Kind: experiment
Temperature: 298 K
Tabular data in the source: 0
pressure (bar)	uptake (cm3(STP)/g)
0	0
0.000472	14.876
0.000667	46.281
0.000673	71.0744
0.000958	84.2975
0.001055	99.1736
0.00134	114.05
0.002186	123.967
0.003501	133.884
0.004534	138.843
0.008194	150.413
0.010165	157.025
0.012136	161.983
0.014294	165.289
0.018422	173.554
0.020299	178.512
0.02424	186.777
0.028837	195.041
0.03137	198.347
