Adsorption isotherm of Water on Zn-MOF-74(cycle 1)
DOI: 10.1021/acs.jpcc.5b02069
Article source: Figure 3a
Adsorbate Water: InChIKey XLYOFNOQVPJJNP-UHFFFAOYSA-N
Kind: experiment
Temperature: 298 K
Tabular data in the source: 0
pressure (bar)	uptake (cm3(STP)/g)
0	0
7e-06	29.7521
9.8e-05	16.5289
0.000105	47.9339
0.000108	61.157
0.000113	79.3388
0.00021	92.562
0.000214	110.744
0.000406	125.62
0.000503	140.496
0.000601	157.025
0.000606	175.207
0.000608	185.124
0.000988	203.306
0.001182	224.793
0.001653	228.099
0.002314	239.669
0.003069	251.24
0.004012	262.81
0.005049	271.074
0.006463	284.298
0.007972	300.826
0.00948	312.397
0.011647	330.579
0.013249	340.496
0.015508	347.107
0.017014	352.066
0.01852	355.372
0.02012	358.678
0.021908	363.636
0.023414	366.942
0.025202	371.901
0.029719	380.165
0.031508	386.777
