Adsorption isotherm of Water on Zn-MOF-74(cycle 2)
DOI: 10.1021/acs.jpcc.5b02069
Article source: Figure 3a
Adsorbate Water: InChIKey XLYOFNOQVPJJNP-UHFFFAOYSA-N
Kind: experiment
Temperature: 298 K
Tabular data in the source: 0
pressure (bar)	uptake (cm3(STP)/g)
0	0
0.000284	13.2231
0.000288	26.4463
0.000479	41.3223
0.00067	56.1983
0.000768	77.686
0.000961	99.1736
0.001715	114.05
0.002655	123.967
0.003313	128.926
0.004064	132.231
0.005002	135.537
0.007819	150.413
0.011105	163.636
0.014484	175.207
0.017111	181.818
0.018331	186.777
0.020396	193.388
0.024525	204.959
0.027434	209.917
0.030061	214.876
