Adsorption isotherm of Water on Zn-MOF-74(cycle 3)
DOI: 10.1021/acs.jpcc.5b02069
Article source: Figure 3a
Adsorbate Water: InChIKey XLYOFNOQVPJJNP-UHFFFAOYSA-N
Kind: experiment
Temperature: 298 K
Tabular data in the source: 0
pressure (bar)	uptake (cm3(STP)/g)
0	0
0.000379	16.5289
0.000382	31.405
0.000387	49.5868
0.000578	66.1157
0.000957	82.6446
0.000961	99.1736
0.001623	120.661
0.002845	133.884
0.003502	137.19
0.004347	142.149
0.005286	147.107
0.007633	155.372
0.010354	163.636
0.013357	170.248
0.016547	176.86
0.019363	185.124
0.022084	191.736
0.026869	201.653
0.031278	208.264
