Adsorption isotherm of Carbon Dioxide on NH2-MIL-53(Al)
DOI: 10.1002/adfm.201200084
Adsorbate Carbon Dioxide: InChIKey CURLTUGMZLYLDI-UHFFFAOYSA-N
Temperature: 298 K
Tabular data in the source: 0
pressure (bar)	uptake (cm3(STP)/g)
0.678881	2.18978
1.35654	4.0146
1.86693	6.0219
2.54398	7.66423
3.22102	9.30657
5.41881	13.8686
6.60196	16.2409
9.97556	20.9854
13.0085	24.2701
16.2074	27.0073
19.5731	29.3796
22.9374	31.3869
26.1333	33.2117
29.4965	34.854
32.6918	36.4964
35.8865	37.9562
39.249	39.4161
42.4431	40.6934
45.8056	42.1533
48.9991	43.2482
52.3617	44.708
55.5557	45.9854
58.7486	46.8978
62.1093	47.8102
