Adsorption isotherm of Methane on NH2-MIL-53(Al)
DOI: 10.1002/adfm.201200084
Adsorbate Methane: InChIKey VNWKTOKETHGBQD-UHFFFAOYSA-N
Temperature: 273 K
Tabular data in the source: 0
pressure (bar)	uptake (cm3(STP)/g)
4.49918	0.459454
6.49834	0.930936
8.74793	1.16066
11.3725	1.38859
13.8713	2.09821
16.495	2.80724
18.87	2.79581
21.4942	3.26429
23.7438	3.49402
26.4934	3.72134
28.8684	3.70991
31.4925	4.17839
33.8671	4.40751
36.3667	4.63604
38.7409	5.10571
41.2409	5.09369
43.7401	5.56276
46.2401	5.55073
