Adsorption isotherm of Methane on NH2-MIL-53(Al)
DOI: 10.1002/adfm.201200084
Adsorbate Methane: InChIKey VNWKTOKETHGBQD-UHFFFAOYSA-N
Temperature: 298 K
Tabular data in the source: 0
pressure (bar)	uptake (cm3(STP)/g)
6.4156	0.364964
8.9029	0.364964
11.5216	0.547445
14.0104	1.09489
16.6295	1.45985
19.1173	1.64234
21.7365	2.0073
24.0933	2.18978
26.7115	2.18978
29.1994	2.37226
31.8181	2.55474
34.3058	2.73723
36.925	3.10219
39.4123	3.10219
42.031	3.28467
44.5183	3.28467
47.0065	3.64964
