Adsorption isotherm of Carbon Dioxide on NH2-MIL-53(Al)
DOI: 10.1002/adfm.201200084
Adsorbate Carbon Dioxide: InChIKey CURLTUGMZLYLDI-UHFFFAOYSA-N
Temperature: 273 K
Tabular data in the source: 0
pressure (bar)	uptake (cm3(STP)/g)
0.42318	8.65686
0.676969	13.9472
1.01993	17.3125
1.36288	20.6778
1.70644	23.5621
2.82925	27.8842
3.43375	30.2855
5.33702	35.0833
7.06762	39.1606
8.62584	42.277
10.357	45.8732
12.1756	48.9878
13.8215	51.3819
15.641	53.7748
17.2881	55.2067
19.1078	57.359
20.842	58.5497
22.5759	59.981
24.223	61.4129
25.9571	62.6036
27.7787	63.3127
29.4261	64.504
31.1606	65.4542
32.8947	66.6449
