Adsorption isotherm of Hydrogen on NH2-MIL-53(Al)
DOI: 10.1002/adfm.201200084
Adsorbate Hydrogen: InChIKey UFHFLCQGNIYNRP-UHFFFAOYSA-N
Temperature: 298 K
Tabular data in the source: 0
pressure (bar)	uptake (cm3(STP)/g)
0.788332	0.547445
9.69027	0.547445
40.3244	0.729927
50.0118	0.729927
60.2238	0.912409
70.4339	0.729927
80.3831	0.729927
