Adsorption isotherm of Hydrogen on NH2-MIL-53(Al)
DOI: 10.1002/adfm.201200084
Adsorbate Hydrogen: InChIKey UFHFLCQGNIYNRP-UHFFFAOYSA-N
Temperature: 273 K
Tabular data in the source: 0
pressure (bar)	uptake (cm3(STP)/g)
37.9016	0.151089
50.7884	0.12039
55.8412	0.349732
61.1475	0.337091
65.9476	0.567036
71.0004	0.796378
75.8023	0.54356
81.3604	0.771698
86.4141	0.759659
91.4686	0.506239
96.2705	0.25342
