Adsorption isotherm of Nitrogen on NH2-MIL-53(Al)
DOI: 10.1002/adfm.201200084
Adsorbate Nitrogen: InChIKey IJGRMHOSHXDMSA-UHFFFAOYSA-N
Temperature: 273 K
Tabular data in the source: 0
pressure (bar)	uptake (cm3(STP)/g)
8.24913	0.222511
29.1474	0.657909
44.2716	0.865385
55.2707	1.08188
66.5459	1.05723
71.4949	1.28695
77.27	1.27432
88.5442	1.49022
98.9933	1.70792
104.493	1.69589
