Adsorption isotherm of Nitrogen on NH2-MIL-53(Al)
DOI: 10.1002/adfm.201200084
Adsorbate Nitrogen: InChIKey IJGRMHOSHXDMSA-UHFFFAOYSA-N
Temperature: 298 K
Tabular data in the source: 0
pressure (bar)	uptake (cm3(STP)/g)
16.7043	0
31.3934	0.182482
39.7466	0.364964
50.4039	0.547445
62.2098	0.182482
73.1562	0.547445
84.1003	0.547445
89.5734	0.729927
95.3325	0.547445
100.805	0.547445
106.277	0.547445
