Adsorption isotherm of Carbon Dioxide on [Zn(TeGly)]n
DOI: 10.1039/c5nj00011d
Article source: Figure 5
Adsorbate Carbon Dioxide: InChIKey CURLTUGMZLYLDI-UHFFFAOYSA-N
Kind: experiment
Temperature: 273 K
Tabular data in the source: 0
pressure (bar)	uptake (wt%)
0.180723	0.73107
0.481928	1.21149
0.722892	1.46214
1.0241	1.73368
1.74699	2.36031
3.9759	2.94517
6.74699	3.36292
9.63855	3.4047
12.5904	3.46736
15.4217	3.53003
18.3735	3.78068
21.3855	4.40731
24.4578	4.78329
26.9277	5.97389
