Adsorption isotherm of Hydrogen on [Zn(TeGly)]n
DOI: 10.1039/c5nj00011d
Article source: Figure S3
Adsorbate Hydrogen: InChIKey UFHFLCQGNIYNRP-UHFFFAOYSA-N
Kind: experiment
Temperature: 77 K
Tabular data in the source: 0
pressure (bar)	uptake (wt%)
0	0
0.173536	0.12464
0.281996	0.15388
0.585683	0.17475
0.997831	0.188649
1.99566	0.204596
2.99349	0.212187
3.99132	0.216296
8.00434	0.231337
10	0.236769
