Adsorption isotherm of Nitrogen on Pyridine
DOI: 10.1021/Ar0401606
Adsorbate Nitrogen: InChIKey IJGRMHOSHXDMSA-UHFFFAOYSA-N
Temperature: 77 K
Tabular data in the source: 0
pressure (bar)	uptake (mg/g)
0.0127495	7.49082
0.0979595	8.58325
0.141657	9.67569
0.191909	10.7681
0.253086	11.8606
0.312077	10.7681
0.362329	14.0454
0.423506	10.7681
0.486867	10.7681
0.661657	11.8606
0.912918	12.953
