Adsorption isotherm of Nitrogen on 3-picoline
DOI: 10.1021/Ar0401606
Adsorbate Nitrogen: InChIKey IJGRMHOSHXDMSA-UHFFFAOYSA-N
Temperature: 77 K
Tabular data in the source: 0
pressure (bar)	uptake (mg/g)
0.00619484	15.1379
0.00619484	116.735
0.0105646	227.071
0.0171192	315.558
0.0236738	366.903
0.102329	424.802
0.25527	446.65
0.375439	452.113
0.545859	458.667
0.768716	468.499
