Adsorption isotherm of Nitrogen on CuBTC*S12.5
DOI: 10.1021/Cg401304x
Adsorbate Nitrogen: InChIKey IJGRMHOSHXDMSA-UHFFFAOYSA-N
Temperature: 77 K
Tabular data in the source: 0
pressure (bar)	uptake (cm3(STP)/g)
0.00480059	20.2842
0.00549829	17.4187
0.0167552	21.187
0.0288035	21.7049
0.033552	22.2029
0.0481308	22.3283
0.0700198	22.4309
0.0968136	22.3899
0.140706	22.1247
0.189555	21.502
0.253088	20.5771
0.301948	19.9117
0.419265	18.0923
0.529293	16.2102
0.644205	14.2701
0.756649	12.4659
0.812861	11.6066
0.87882	10.7169
0.925045	10.8716
0.95666	11.0293
