Adsorption isotherm of Nitrogen on CuBTC
DOI: 10.1021/Cg401304x
Adsorbate Nitrogen: InChIKey IJGRMHOSHXDMSA-UHFFFAOYSA-N
Temperature: 77 K
Tabular data in the source: 0
pressure (bar)	uptake (cm3(STP)/g)
0.0148233	434.726
0.0244835	436.682
0.0292819	438.442
0.0389024	441.376
0.0485229	444.309
0.0581037	448.22
0.0748702	455.064
0.0966254	458.977
0.149701	471.105
0.190927	475.218
0.305112	481.495
0.421835	485.231
0.528858	487.989
0.643202	490.357
0.755142	491.943
0.874387	493.531
0.957101	495.307
