Adsorption isotherm of Nitrogen on [Ni3(mu2-H2O)2(bdc)3(pyrazine)2]*3(DMA)
DOI: 10.1039/C3ce40548f
Adsorbate Nitrogen: InChIKey IJGRMHOSHXDMSA-UHFFFAOYSA-N
Temperature: 77 K
Tabular data in the source: 0
pressure (bar)	uptake (cm3(STP)/g)
0.00372489	9.58978
0.00372489	90.0353
0.00372489	129.936
0.00515504	30.6129
0.00515504	60.0023
0.00515504	159.755
0.015166	166.19
0.0366182	170.266
0.0637909	171.553
0.142449	173.27
0.202515	174.342
0.302625	174.986
0.402735	177.775
0.501415	178.633
0.602955	179.491
0.700205	179.92
0.800315	180.349
0.85037	180.778
0.900425	182.065
0.924737	183.352
0.966211	188.286
