Adsorption isotherm of Hydrogen on [Ni3(mu2-H2O)2(bdc)3(pyrazine)2]*3(DMA)
DOI: 10.1039/C3ce40548f
Adsorbate Hydrogen: InChIKey UFHFLCQGNIYNRP-UHFFFAOYSA-N
Temperature: 87 K
Tabular data in the source: 0
pressure (bar)	uptake (cm3(STP)/g)
0.0135028	0.0101683
0.0456155	0.0938303
0.0811085	0.177492
0.10477	0.230732
0.157165	0.319464
0.21801	0.403126
0.268714	0.469042
0.332939	0.540027
0.400545	0.608478
0.596601	0.747915
0.797728	0.851858
0.902517	0.900027
1.03435	0.945661
