Adsorption isotherm of Hydrogen on [Ni3(mu2-H2O)2(bdc)3(pyrazine)2]*3(DMA)
DOI: 10.1039/C3ce40548f
Adsorbate Hydrogen: InChIKey UFHFLCQGNIYNRP-UHFFFAOYSA-N
Temperature: 77 K
Tabular data in the source: 0
pressure (bar)	uptake (wt%)
0.00674227	0.00509786
0.0135028	0.078619
0.0287141	0.207915
0.0591366	0.377774
0.0827986	0.51214
0.108151	0.623689
0.160545	0.793549
0.211249	0.93045
0.332939	1.16115
0.46477	1.31834
0.596601	1.45017
0.726742	1.55411
0.787587	1.59468
0.867024	1.65806
0.951531	1.70876
