Adsorption isotherm of Carbon Dioxide on [Ni3(mu2-H2O)2(bdc)3(pyrazine)2]*3(DMA)
DOI: 10.1039/C3ce40548f
Adsorbate Carbon Dioxide: InChIKey CURLTUGMZLYLDI-UHFFFAOYSA-N
Temperature: 273 K
Tabular data in the source: 0
pressure (bar)	uptake (cm3(STP)/g)
0.00421011	2.87507
0.0239284	7.77648
0.0520974	14.7061
0.078858	22.1427
0.108435	29.2413
0.163365	40.5652
0.212661	49.861
0.260548	58.4807
0.314069	65.2413
0.423928	75.7201
0.474633	80.1145
0.592942	88.2272
0.723928	94.8187
0.788717	97.692
0.915478	102.593
