Adsorption isotherm of Nitrogen on [Ni3(mu2-H2O)2(bdc)3(pyrazine)2]*3(DMA)
DOI: 10.1039/C3ce40548f
Adsorbate Nitrogen: InChIKey IJGRMHOSHXDMSA-UHFFFAOYSA-N
Temperature: 273 K
Tabular data in the source: 0
pressure (bar)	uptake (cm3(STP)/g)
0.00421011	0.677886
0.109844	1.18493
0.161957	1.52296
0.209844	2.03
0.264773	2.19901
0.371816	2.87507
0.478858	3.38211
0.592942	3.88915
0.725337	4.3962
0.792943	4.3962
0.857731	4.73422
0.921112	5.07225
1.00139	5.41028
