Adsorption isotherm of Methane on [Ni3(mu2-H2O)2(bdc)3(pyrazine)2]*3(DMA)
DOI: 10.1039/C3ce40548f
Adsorbate Methane: InChIKey VNWKTOKETHGBQD-UHFFFAOYSA-N
Temperature: 273 K
Tabular data in the source: 0
pressure (bar)	uptake (cm3(STP)/g)
0.00843546	0.352875
0.0591397	1.26837
0.108125	2.40451
0.162471	3.62014
0.233978	4.97877
0.315496	6.55193
0.3584	7.48152
0.462801	9.12619
0.525727	10.1273
0.591514	11.1284
0.717366	12.9876
0.790304	13.9172
0.85466	14.7037
0.921877	15.4188
