Adsorption isotherm of Carbon Dioxide on [Ni3(mu2-H2O)2(bdc)3(pyrazine)2]*3(DMA)
DOI: 10.1039/C3ce40548f
Adsorbate Carbon Dioxide: InChIKey CURLTUGMZLYLDI-UHFFFAOYSA-N
Temperature: 298 K
Tabular data in the source: 0
pressure (bar)	uptake (cm3(STP)/g)
0.0126608	2.03
0.0520974	5.91732
0.109844	11.8328
0.164773	17.0723
0.214069	22.1427
0.266182	26.7061
0.319703	30.7624
0.368999	34.4807
0.478858	41.9173
0.594351	49.3539
0.726745	56.1145
0.792943	58.9877
0.857731	61.692
0.923928	64.3962
