Adsorption isotherm of Ethene on [Ni3(mu2-H2O)2(bdc)3(pyrazine)2]*3(DMA)
DOI: 10.1039/C3ce40548f
Adsorbate Ethene: InChIKey VGGSQFUCUMXWEO-UHFFFAOYSA-N
Temperature: 273 K
Tabular data in the source: 0
pressure (bar)	uptake (cm3(STP)/g)
0.00702701	1.76133
0.0154777	5.28245
0.0239284	9.22611
0.0366045	13.4515
0.0563228	17.9585
0.0816749	22.4656
0.135196	27.8881
0.199985	31.9726
0.27745	34.8599
0.357731	37.2543
0.464773	39.367
0.590126	41.4092
0.791534	43.874
0.856323	44.367
0.92252	45.0008
