Adsorption isotherm of Propene on SAM-HCP-Ag-3
DOI: 10.1039/c9ta07510k
Article source: Figure 2a
Adsorbate Propene: InChIKey QQONPFPTGQHPMA-UHFFFAOYSA-N
Kind: experiment
Temperature: 298 K
Tabular data in the source: 0
pressure (bar)	uptake (mmol/g)
0.00351	0.459
0.00584	0.504
0.0234	0.643
0.0409	0.733
0.0573	0.801
0.0666	0.834
0.083	0.869
0.097	0.907
0.113	0.935
0.127	0.961
0.145	0.985
0.16	1.01
0.175	1.03
0.19	1.05
0.204	1.07
0.22	1.09
0.233	1.1
0.251	1.12
0.265	1.14
0.279	1.16
0.296	1.17
0.31	1.18
0.325	1.2
0.34	1.21
0.355	1.22
0.37	1.24
0.384	1.25
0.4	1.26
0.416	1.27
0.43	1.29
0.444	1.3
0.459	1.31
0.476	1.32
0.49	1.34
0.504	1.35
0.519	1.36
0.536	1.37
0.55	1.38
0.564	1.39
0.581	1.4
0.596	1.41
0.61	1.42
0.625	1.43
0.639	1.44
0.656	1.46
0.67	1.46
0.684	1.47
0.699	1.48
0.715	1.49
0.73	1.51
0.745	1.51
0.761	1.52
0.775	1.53
0.791	1.54
0.805	1.55
0.819	1.56
0.835	1.57
0.851	1.58
0.865	1.59
0.881	1.59
0.896	1.6
0.91	1.61
0.927	1.62
0.939	1.63
0.957	1.63
0.971	1.64
0.986	1.65
1	1.66
1.02	1.67
1.03	1.67
1.05	1.68
1.06	1.69
1.08	1.7
1.09	1.7
1.1	1.71
