Adsorption isotherm of N-propane, Propene on SAM-HCP-Ag-3
DOI: 10.1039/c9ta07510k
Article source: Figure 4 (uptakes in text left column above figure)
Adsorbate N-propane: InChIKey ATUOYWHBWRKTHZ-UHFFFAOYSA-N
Adsorbate Propene: InChIKey QQONPFPTGQHPMA-UHFFFAOYSA-N
Kind: experiment
Temperature: 298 K
Tabular data in the source: 0
pressure (bar)	N-propane fraction	N-propane uptake (mmol/g)	Propene fraction	Propene uptake (mmol/g)	total uptake (mmol/g)
0.5	0.5	0.29	0.5	0.95	
0.5	0.9	0.54	0.1	0.7	
