Adsorption isotherm of N-propane on SAM-HCP-Ag-3
DOI: 10.1039/c9ta07510k
Article source: Figure 2a
Adsorbate N-propane: InChIKey ATUOYWHBWRKTHZ-UHFFFAOYSA-N
Kind: experiment
Temperature: 298 K
Tabular data in the source: 0
pressure (bar)	uptake (mmol/g)
0.00818	0.0188
0.0245	0.0353
0.0397	0.0471
0.0549	0.0565
0.0701	0.066
0.0841	0.0754
0.0993	0.0801
0.116	0.0848
0.13	0.0919
0.145	0.0942
0.16	0.101
0.174	0.108
0.19	0.113
0.206	0.118
0.221	0.125
0.235	0.127
0.25	0.137
0.265	0.141
0.28	0.148
0.296	0.153
0.31	0.16
0.325	0.167
0.341	0.174
0.356	0.181
0.373	0.188
0.386	0.196
0.401	0.2
0.416	0.207
0.429	0.217
0.446	0.226
0.462	0.233
0.477	0.243
0.491	0.247
0.505	0.254
0.522	0.264
0.536	0.269
0.549	0.276
0.566	0.283
0.583	0.287
0.596	0.294
0.611	0.299
0.626	0.306
0.641	0.311
0.656	0.32
0.672	0.327
0.687	0.332
0.701	0.339
0.716	0.344
0.731	0.351
0.747	0.358
0.761	0.365
0.777	0.367
0.791	0.375
0.806	0.379
0.821	0.386
0.837	0.391
0.852	0.4
0.865	0.405
0.881	0.412
0.896	0.417
0.911	0.422
0.927	0.426
0.941	0.433
0.956	0.438
0.971	0.443
0.986	0.445
1	0.452
1.02	0.457
1.03	0.459
1.05	0.466
1.06	0.469
1.08	0.471
1.09	0.478
1.1	0.481
