Adsorption isotherm of Argon on Graphite
DOI: 10.1007/s10450-021-00327-7
Article source: Figure 3(a)
Adsorbate Argon: InChIKey XKRFYHLGVUSROY-UHFFFAOYSA-N
Kind: experiment
Temperature: 87 K
Tabular data in the source: 0
pressure (bar)	uptake (mmol/cm3)
0.00699	1.47025
0.00583	2.73046
0.00699	4.2007
0.02331	4.83081
0.0373	5.04084
0.06061	5.18086
0.08858	5.53092
0.11189	5.74096
0.12121	5.95099
0.1352	6.021
0.15035	6.19603
0.17249	6.65111
0.1993	7.98133
0.22494	10.2217
0.24942	10.8868
0.27389	11.3769
0.29953	11.832
0.32401	12.182
0.34965	12.5321
0.37529	12.9522
0.3986	13.4072
0.42424	14.0023
0.44872	14.8775
0.47436	16.1377
0.5	17.1879
0.52448	18.028
0.54895	18.7631
0.57459	31.5753
0.6014	31.6103
0.62005	31.7153
0.63869	31.7853
0.66667	31.7853
0.68765	31.8553
0.71562	31.9253
0.73893	31.9953
0.76224	32.0303
0.78555	32.0653
0.80886	32.1354
0.8345	32.2754
0.86131	32.2404
0.88811	32.2754
0.9021	32.2754
