Adsorption isotherm of Krypton, Argon on Graphite
DOI: 10.1007/s10450-021-00327-7
Article source: Figure 5
Adsorbate Krypton: InChIKey DNNSSWSSYDEUBZ-UHFFFAOYSA-N
Adsorbate Argon: InChIKey XKRFYHLGVUSROY-UHFFFAOYSA-N
Kind: experiment
Temperature: 120 K
Tabular data in the source: 0
pressure (bar)	Krypton fraction	Krypton uptake (mmol/cm3)	Argon fraction	Argon uptake (mmol/cm3)	total uptake (mmol/cm3)
0.64759	0.5	1.19874	0.5	0.11694	
0.70783	0.5	1.32492	0.5	0.14393	
0.76807	0.5	1.4511	0.5	0.17091	
0.79819	0.5	1.54574	0.5	0.1949	
0.85843	0.5	1.64038	0.5	0.23088	
0.88855	0.5	1.73502	0.5	0.24288	
0.91867	0.5	1.89274	0.5	0.26687	
1.18976	0.5	2.01893	0.5	0.28486	
1.35542	0.5	2.27129	0.5	0.30885	
1.50602	0.5	2.39748	0.5	0.32984	
1.67169	0.5	2.58675	0.5	0.35382	
1.83735	0.5	2.83912	0.5	0.37481	
2.06325	0.5	3.09148	0.5	0.3958	
2.36446	0.5	3.34385	0.5	0.41979	
2.7259	0.5	3.7224	0.5	0.44378	
3.08735	0.5	4.35331	0.5	0.47076	
3.41867	0.5	5.23659	0.5	0.50075	
3.68976	0.5	5.86751	0.5	0.53073	
3.9006	0.5	6.18297	0.5	0.56072	
4.11145	0.5	6.49842	0.5	0.5997	
4.33735	0.5	6.81388	0.5	0.64468	
4.56325	0.5	7.06625	0.5	0.70465	
4.78916	0.5	7.25552	0.5	0.78861	
5.0753	0.5	7.44479	0.5	0.93253	
5.37651	0.5	7.63407	0.5	1.05247	
5.73795	0.5	7.7918	0.5	1.15442	
6.0994	0.5	8.17035	0.5	1.25037	
6.5512	0.5	8.51735	0.5	1.34033	
12.4247	0.5	8.95899	0.5	1.4033	
12.4849	0.5	9.46372	0.5	1.47526	
12.5151	0.5	10.1577	0.5	1.56822	
12.5452	0.5	11.4196	0.5	1.72414	
12.5452	0.5	24.4164	0.5	2.37181	
12.5904	0.5	24.511	0.5	2.38381	
12.6054	0.5	24.6057	0.5	2.4018	
12.5904	0.5	24.6372	0.5	2.41979	
12.6355	0.5	24.6688	0.5	2.43778	
12.6657	0.5	24.6688	0.5	2.45577	
