Adsorption isotherm of N-propane on Graphite
DOI: 10.1007/s10450-021-00327-7
Article source: Figure 4(a)
Adsorbate N-propane: InChIKey ATUOYWHBWRKTHZ-UHFFFAOYSA-N
Kind: experiment
Temperature: 230 K
Tabular data in the source: 0
pressure (bar)	uptake (mmol/cm3)
0.02536	0.64759
0.02778	0.70783
0.03261	0.76807
0.03502	0.79819
0.03986	0.85843
0.04469	0.88855
0.05193	0.91867
0.10024	1.18976
0.1256	1.35542
0.15217	1.50602
0.17512	1.67169
0.20048	1.83735
0.22585	2.06325
0.25	2.36446
0.27415	2.7259
0.29952	3.08735
0.32609	3.41867
0.35145	3.68976
0.3756	3.9006
0.39976	4.11145
0.42512	4.33735
0.45048	4.56325
0.47464	4.78916
0.50121	5.0753
0.52536	5.37651
0.55193	5.73795
0.57488	6.0994
0.59903	6.5512
0.62681	12.4247
0.65097	12.4849
0.67754	12.5151
0.70169	12.5452
0.72585	12.5452
0.75483	12.5904
0.77657	12.6054
0.80072	12.5904
0.82729	12.6355
0.85024	12.6657
0.8756	12.6657
0.89976	12.6958
0.95048	12.7259
0.99638	12.8464
