Adsorption isotherm of Methane on {[Cd(pzbtz)]3H2O}n
DOI: 10.1039/c4dt03129f
Article source: Figure 9
Adsorbate Methane: InChIKey VNWKTOKETHGBQD-UHFFFAOYSA-N
Kind: experiment
Temperature: 195 K
Tabular data in the source: 0
pressure (bar)	uptake (cm3(STP)/g)
0	0
0.010436	0.297767
0.016399	0.297767
0.032798	0.44665
0.068578	6.69975
0.084977	0.8933
0.132683	1.48883
0.134174	8.933
0.165481	1.93548
0.19828	2.38213
0.231078	2.82878
0.263876	11.1663
0.298165	4.01985
0.332454	4.61538
0.365253	5.3598
0.39805	5.95533
0.432339	6.55087
0.466628	7.29529
0.499427	7.89082
0.532224	14.1439
0.533715	8.78412
0.566513	9.52854
0.600803	10.273
0.632109	10.8685
0.647019	15.4839
0.666399	11.6129
0.700688	12.5062
0.731996	13.1017
0.766284	13.6973
0.779701	16.6749
0.799082	14.5906
0.833371	15.335
0.86617	15.9305
0.898967	16.8238
0.913876	18.1638
0.933257	17.7171
0.966055	18.1638
1.01376	19.0571
