Adsorption isotherm of Carbon Dioxide on {[Cd(pzbtz)]3H2O}n
DOI: 10.1039/c4dt03129f
Article source: Figure 9
Adsorbate Carbon Dioxide: InChIKey CURLTUGMZLYLDI-UHFFFAOYSA-N
Kind: experiment
Temperature: 293 K
Tabular data in the source: 0
pressure (bar)	uptake (cm3(STP)/g)
0.011822	0.234375
0.032476	0.46875
0.032568	0.9375
0.065068	1.52344
0.067851	0.703125
0.132757	1.40625
0.132941	2.34375
0.171075	1.64062
0.197618	1.875
0.233016	2.22656
0.265653	3.51562
0.268413	2.57812
0.297922	2.92969
0.333297	3.16406
0.36575	3.51562
0.398203	3.86719
0.398387	4.80469
0.433576	4.10156
0.46603	4.45312
0.498483	4.80469
0.533857	5.03906
0.534041	5.97656
0.566335	5.50781
0.598764	5.74219
0.634161	6.09375
0.649067	7.03125
0.666592	6.32812
0.699068	6.79688
0.731521	7.14844
0.76692	7.5
0.781777	8.20312
0.802317	7.85156
0.831826	8.20312
0.867223	8.55469
0.902598	8.78906
0.914465	9.25781
0.935051	9.14062
0.967527	9.60938
1.01176	9.96094
1.01472	10.0781
