Adsorption isotherm of Carbon Dioxide on {[Cd(pzbtz)]3H2O}n
DOI: 10.1039/c4dt03129f
Article source: Figure 9
Adsorbate Carbon Dioxide: InChIKey CURLTUGMZLYLDI-UHFFFAOYSA-N
Kind: experiment
Temperature: 273 K
Tabular data in the source: 0
pressure (bar)	uptake (cm3(STP)/g)
0.011845	0.351562
0.029578	0.703125
0.032637	1.28906
0.065068	1.52344
0.06516	1.99219
0.133056	2.92969
0.133217	3.75
0.165578	3.63281
0.201045	4.33594
0.233567	5.03906
0.266089	5.74219
0.266274	6.67969
0.301579	6.5625
0.334101	7.26562
0.369567	7.96875
0.399146	8.67188
0.39933	9.60938
0.434635	9.49219
0.467158	10.1953
0.499703	11.0156
0.532386	12.5391
0.535169	11.7188
0.567691	12.4219
0.60026	13.3594
0.635726	14.0625
0.650676	15.2344
0.668248	14.7656
0.700793	15.5859
0.736282	16.4062
0.768805	17.1094
0.783732	18.1641
0.801327	17.8125
0.836839	18.75
0.869384	19.5703
0.904875	20.3906
0.916766	20.9766
0.934452	21.0938
0.96702	22.0312
1.01433	23.0859
