Adsorption isotherm of Carbon Dioxide on {[Cd(pzbtz)]3H2O}n
DOI: 10.1039/c4dt03129f
Article source: Figure 9
Adsorbate Carbon Dioxide: InChIKey CURLTUGMZLYLDI-UHFFFAOYSA-N
Kind: experiment
Temperature: 195 K
Tabular data in the source: 0
pressure (bar)	uptake (cm3(STP)/g)
0	0
0.002982	5.80645
0.004472	12.3573
0.007454	21.2903
0.014908	52.4069
0.032798	61.7866
0.067087	63.4243
0.076032	62.3821
0.132683	64.4665
0.152065	63.5732
0.186353	63.871
0.19977	64.0199
0.234059	64.3176
0.265368	65.5087
0.266858	64.7643
0.299655	64.9132
0.333945	65.2109
0.366743	65.5087
0.399542	65.6576
0.43383	66.1042
0.468119	66.402
0.499427	66.6998
0.532224	66.8486
0.566513	67.1464
0.602293	67.4442
0.633601	67.7419
0.648509	68.1886
0.667889	68.0397
0.699197	68.4864
0.733486	68.6352
0.767776	69.0819
0.781192	69.5285
0.800573	69.3797
0.833371	69.8263
0.867661	69.9752
0.90195	70.4218
0.912385	70.7196
0.934747	70.7196
0.967546	71.0174
1.01376	71.6129
