Adsorption isotherm of Hydrogen on COF-5
DOI: 10.1021/Ja803247y
Adsorbate Hydrogen: InChIKey UFHFLCQGNIYNRP-UHFFFAOYSA-N
Temperature: 77 K
Tabular data in the source: 0
pressure (bar)	uptake (wt%)
1.54777	0.676361
5.35059	2.02847
10.2802	2.53552
20.1393	3.29608
29.7168	3.80312
39.7168	4.16932
49.7168	4.42284
59.8576	4.67636
69.1534	4.92988
79.9985	5.21157
90.2802	5.35242
99.2943	5.49326
