Adsorption isotherm of Hydrogen on COF-108
DOI: 10.1021/Ja803247y
Adsorbate Hydrogen: InChIKey UFHFLCQGNIYNRP-UHFFFAOYSA-N
Temperature: 77 K
Tabular data in the source: 0
pressure (bar)	uptake (g/l)
5.20974	9.29661
9.99848	13.2473
20.1393	18.6699
29.9985	22.9304
40.5619	26.3389
50.5619	29.36
60.5619	31.9938
70.421	34.1628
80.1393	35.7896
89.9985	37.9586
99.7168	40.2051
