Adsorption isotherm of Hydrogen on COF-105
DOI: 10.1021/Ja803247y
Adsorbate Hydrogen: InChIKey UFHFLCQGNIYNRP-UHFFFAOYSA-N
Temperature: 77 K
Tabular data in the source: 0
pressure (bar)	uptake (wt%)
5.23498	4.84284
10.0975	6.17287
29.8334	8.70423
40.5595	9.11897
50.2845	9.4479
60.1525	9.69102
70.4495	9.86264
80.3175	9.94845
90.4715	9.97705
100.196	9.91985
