Adsorption isotherm of Hydrogen on COF-5
DOI: 10.1021/Ja803247y
Adsorbate Hydrogen: InChIKey UFHFLCQGNIYNRP-UHFFFAOYSA-N
Temperature: 77 K
Tabular data in the source: 0
pressure (bar)	uptake (wt%)
1.08756	0.294984
1.37359	0.666821
5.23498	1.65362
10.3835	2.22568
20.2515	2.71193
30.1195	3.04086
40.2735	3.16957
50.1415	3.21248
59.8664	3.26968
69.8774	3.31259
80.1745	3.36979
90.0425	3.4127
99.3384	3.39839
