Adsorption isotherm of Hydrogen on COF-105
DOI: 10.1021/Ja803247y
Adsorbate Hydrogen: InChIKey UFHFLCQGNIYNRP-UHFFFAOYSA-N
Temperature: 77 K
Tabular data in the source: 0
pressure (bar)	uptake (g/l)
1.94734	4.50643
4.67035	8.99938
9.64687	11.6848
19.9755	14.8351
29.9286	16.8491
40.1633	17.7787
49.8347	18.5017
60.2572	18.8632
70.2103	19.1215
79.9755	19.328
89.9286	19.6379
99.9755	19.5346
