Adsorption isotherm of Hydrogen on COF-102
DOI: 10.1021/Ja803247y
Adsorbate Hydrogen: InChIKey UFHFLCQGNIYNRP-UHFFFAOYSA-N
Temperature: 77 K
Tabular data in the source: 0
pressure (bar)	uptake (g/l)
0.843546	5.19098
1.26608	11.3882
5.20974	23.3177
9.85763	28.6628
19.9985	34.3177
29.7168	36.9515
39.8576	38.6558
49.5759	39.353
60.2802	40.36
70.421	40.1276
79.9985	40.5149
89.7168	40.6699
100.139	40.36
