Adsorption isotherm of Hydrogen on COF-103
DOI: 10.1021/Ja803247y
Adsorbate Hydrogen: InChIKey UFHFLCQGNIYNRP-UHFFFAOYSA-N
Temperature: 77 K
Tabular data in the source: 0
pressure (bar)	uptake (wt%)
1.08756	2.82634
5.09196	5.27188
10.3835	6.58761
20.2515	7.76033
30.2625	8.33239
40.2735	8.66132
50.1415	8.91875
60.1525	8.99025
70.7355	9.01886
79.8884	9.03316
89.8994	9.03316
100.339	9.10466
