Adsorption isotherm of Hydrogen on COF-102
DOI: 10.1021/Ja803247y
Adsorbate Hydrogen: InChIKey UFHFLCQGNIYNRP-UHFFFAOYSA-N
Temperature: 77 K
Tabular data in the source: 0
pressure (bar)	uptake (g/l)
0.984391	11.3882
1.12524	4.95858
5.20974	23.5501
10.2802	29.6699
20.2802	36.3318
30.1393	40.2825
39.8576	42.8389
49.4351	44.6206
60.2802	46.3248
69.9985	47.3318
80.2802	48.3389
90.1393	49.5008
100.28	49.9656
