Adsorption isotherm of Hydrogen on COF-1
DOI: 10.1021/Ja803247y
Adsorbate Hydrogen: InChIKey UFHFLCQGNIYNRP-UHFFFAOYSA-N
Temperature: 77 K
Tabular data in the source: 0
pressure (bar)	uptake (g/l)
0.632786	0.374972
0.726683	15.8163
0.914477	17.882
0.914477	24.6989
5.13983	30.2247
10.2103	32.1355
20.2572	33.4266
30.3041	33.9947
40.3511	34.2013
50.3041	34.9759
60.0694	35.0276
69.7408	35.3891
79.6938	35.6473
89.553	35.8538
99.9755	36.0088
