Adsorption isotherm of Hydrogen on COF-108
DOI: 10.1021/Ja803247y
Adsorbate Hydrogen: InChIKey UFHFLCQGNIYNRP-UHFFFAOYSA-N
Temperature: 77 K
Tabular data in the source: 0
pressure (bar)	uptake (wt%)
5.20974	5.66228
19.9985	10.0848
30.1393	11.9158
39.7168	13.5496
49.9985	14.7609
59.7168	15.8031
69.7168	16.7045
79.7168	17.5214
90.421	18.282
100.703	19.0426
