Adsorption isotherm of Hydrogen on COF-102
DOI: 10.1021/Ja803247y
Adsorbate Hydrogen: InChIKey UFHFLCQGNIYNRP-UHFFFAOYSA-N
Temperature: 77 K
Tabular data in the source: 0
pressure (bar)	uptake (wt%)
4.66292	5.11457
9.81143	6.31589
19.8224	7.4743
29.6904	8.07496
40.5595	8.4039
50.1415	8.53261
59.8664	8.70423
70.1635	8.71853
79.7454	8.76143
90.0425	8.79003
99.9104	8.68992
