Adsorption isotherm of Hydrogen on COF-108
DOI: 10.1021/Ja803247y
Adsorbate Hydrogen: InChIKey UFHFLCQGNIYNRP-UHFFFAOYSA-N
Temperature: 77 K
Tabular data in the source: 0
pressure (bar)	uptake (wt%)
5.23498	4.68552
10.6695	6.08706
20.5375	7.76033
39.5584	9.09036
60.0095	9.64812
69.7344	9.77683
79.8884	9.84834
90.3285	9.87694
100.339	10.0629
