Adsorption isotherm of Hydrogen on COF-5
DOI: 10.1021/Ja803247y
Adsorbate Hydrogen: InChIKey UFHFLCQGNIYNRP-UHFFFAOYSA-N
Temperature: 77 K
Tabular data in the source: 0
pressure (bar)	uptake (g/l)
1.00837	0.633188
1.38396	3.83507
4.95204	9.87732
9.83466	13.1308
19.8816	16.2811
29.9286	18.0886
40.1633	18.8632
50.0225	19.5862
60.3511	19.7928
69.9286	20.1027
80.0694	20.6191
89.8347	20.5675
99.7877	20.6707
