Adsorption isotherm of Hydrogen on COF-103
DOI: 10.1021/Ja803247y
Adsorbate Hydrogen: InChIKey UFHFLCQGNIYNRP-UHFFFAOYSA-N
Temperature: 77 K
Tabular data in the source: 0
pressure (bar)	uptake (wt%)
1.26608	2.95805
4.92805	5.52143
9.85763	6.90171
19.8576	8.3665
29.9985	9.15523
39.7168	9.74678
49.9985	10.1975
59.9985	10.5355
70.1393	10.7609
79.5759	10.9581
89.7168	11.0989
99.8576	11.3242
