Adsorption isotherm of Hydrogen on COF-5
DOI: 10.1021/Ja803247y
Adsorbate Hydrogen: InChIKey UFHFLCQGNIYNRP-UHFFFAOYSA-N
Temperature: 77 K
Tabular data in the source: 0
pressure (bar)	uptake (g/l)
1.12524	0.310698
1.54777	3.48675
4.78721	10.3037
9.57594	14.6417
20.5619	19.4445
29.9985	22.3882
40.421	24.867
50.1393	26.8811
60.421	28.5079
70.5619	30.1346
80.1393	31.529
89.9985	33.0008
99.8576	33.853
