Adsorption isotherm of Hydrogen on COF-102
DOI: 10.1021/Ja803247y
Adsorbate Hydrogen: InChIKey UFHFLCQGNIYNRP-UHFFFAOYSA-N
Temperature: 77 K
Tabular data in the source: 0
pressure (bar)	uptake (wt%)
1.12524	1.26791
4.78721	5.40876
9.99848	6.59185
20.1393	7.80312
30.5619	8.67636
39.8576	9.26791
49.5759	9.63411
59.9985	10.0285
69.8576	10.0566
80.1393	10.282
89.9985	10.4228
99.9985	10.6482
