Adsorption isotherm of Hydrogen on COF-1
DOI: 10.1021/Ja803247y
Adsorbate Hydrogen: InChIKey UFHFLCQGNIYNRP-UHFFFAOYSA-N
Temperature: 77 K
Tabular data in the source: 0
pressure (bar)	uptake (g/l)
0.561856	15.4938
0.702701	0.155768
0.702701	19.367
1.26608	24.4022
4.92805	29.9022
10.421	31.6065
20.2802	33.3882
30.421	34.0853
40.1393	34.3952
50.5619	34.7051
59.9985	35.1699
70.1393	35.4022
80.7027	35.5572
90.2802	35.867
100.421	35.7121
