Adsorption isotherm of Hydrogen on COF-1
DOI: 10.1021/Ja803247y
Adsorbate Hydrogen: InChIKey UFHFLCQGNIYNRP-UHFFFAOYSA-N
Temperature: 77 K
Tabular data in the source: 0
pressure (bar)	uptake (wt%)
0.801532	0.0661614
0.944547	1.68222
1.37359	2.66902
5.09196	3.22678
10.2405	3.35549
19.9654	3.57001
29.8334	3.59861
40.2735	3.62722
50.1415	3.68442
60.0095	3.72733
70.7355	3.74163
79.3164	3.72733
90.1855	3.77023
100.053	3.77023
