Adsorption isotherm of Hydrogen on COF-105
DOI: 10.1021/Ja803247y
Adsorbate Hydrogen: InChIKey UFHFLCQGNIYNRP-UHFFFAOYSA-N
Temperature: 77 K
Tabular data in the source: 0
pressure (bar)	uptake (g/l)
2.252	4.10647
4.78721	9.7614
10.421	13.4797
29.9985	23.2403
40.1393	26.4938
49.8576	29.36
60.1393	31.9938
69.8576	34.3177
79.9985	36.2544
89.9985	37.8037
100.139	39.2755
