Adsorption isotherm of Hydrogen on COF-103
DOI: 10.1021/Ja803247y
Adsorbate Hydrogen: InChIKey UFHFLCQGNIYNRP-UHFFFAOYSA-N
Temperature: 77 K
Tabular data in the source: 0
pressure (bar)	uptake (g/l)
5.35059	21.2262
9.99848	27.7332
20.421	32.9234
30.421	35.5572
40.421	36.8741
50.1393	38.1135
60.1393	38.4234
70.1393	38.5783
80.421	38.6558
89.5759	38.6558
99.8576	38.9656
