Adsorption isotherm of Hydrogen on COF-1
DOI: 10.1021/Ja803247y
Adsorbate Hydrogen: InChIKey UFHFLCQGNIYNRP-UHFFFAOYSA-N
Temperature: 77 K
Tabular data in the source: 0
pressure (bar)	uptake (wt%)
0.843546	2.7327
0.984391	0.14115
4.92805	3.23974
9.99848	3.38059
19.5759	3.60594
30.421	3.57777
39.9985	3.66228
50.1393	3.69045
60.1393	3.71861
69.8576	3.77495
80.1393	3.74678
89.9985	3.80312
99.8576	3.83129
