Adsorption isotherm of Hydrogen on COF-103
DOI: 10.1021/Ja803247y
Adsorbate Hydrogen: InChIKey UFHFLCQGNIYNRP-UHFFFAOYSA-N
Temperature: 77 K
Tabular data in the source: 0
pressure (bar)	uptake (g/l)
1.97031	9.68394
4.78721	21.9234
9.99848	28.5079
19.7168	34.9375
29.9985	38.7332
39.9985	41.8318
49.9985	43.8459
59.7168	45.3952
70.1393	46.4797
79.2943	47.4093
90.2802	48.4163
99.2943	49.8107
