Adsorption isotherm of Hydrogen on COF-105
DOI: 10.1021/Ja803247y
Adsorbate Hydrogen: InChIKey UFHFLCQGNIYNRP-UHFFFAOYSA-N
Temperature: 77 K
Tabular data in the source: 0
pressure (bar)	uptake (wt%)
4.36467	5.52143
9.43509	7.35242
20.1393	9.94397
30.2802	11.8876
39.5759	13.1834
49.5759	14.3947
59.5759	15.4088
70.2802	16.3665
79.5759	17.0989
89.9985	17.7186
100.562	18.2538
