Adsorption isotherm of Hydrogen on COF-108
DOI: 10.1021/Ja803247y
Adsorbate Hydrogen: InChIKey UFHFLCQGNIYNRP-UHFFFAOYSA-N
Temperature: 77 K
Tabular data in the source: 0
pressure (bar)	uptake (g/l)
4.57645	8.12145
10.0225	11.1684
19.6938	14.1121
29.7408	15.8163
40.3511	17.3139
49.8347	17.882
59.6938	18.2952
69.9286	18.5017
79.7877	18.7599
90.1164	18.8116
100.069	18.8116
