Adsorption isotherm of Carbon Dioxide on Al13Fe4(9.7 P)
DOI: 10.1021/acs.jced.1c00897
Article source: Figure 4 / AIF Supplementary Data
Adsorbate Carbon Dioxide: InChIKey CURLTUGMZLYLDI-UHFFFAOYSA-N
Kind: experiment
Isotherm type: absolute
Temperature: 298 K
Tabular data in the source: 0
pressure (bar)	uptake (mmol/g)
9.932	0.1426
19.914	0.1974
29.871	0.2442
39.952	0.2933
49.886	0.351
60.151	0.4498
0.91	0.0333
1.927	0.0531
2.913	0.0679
3.906	0.0803
4.893	0.091
5.908	0.1007
6.913	0.1094
7.909	0.1171
8.946	0.1246
9.912	0.1311
10.943	0.1376
11.921	0.1434
14.919	0.1595
19.947	0.1833
24.915	0.2056
29.928	0.228
35.058	0.2513
40.028	0.2753
45	0.3017
48.02	0.3191
49.152	0.3267
50.145	0.3337
51.223	0.3414
52.139	0.3483
53.144	0.3559
54.139	0.3639
55.139	0.3727
56.219	0.3823
57.137	0.3919
58.132	0.4029
59.221	0.4166
60.133	0.43
