Adsorption isotherm of Carbon Dioxide on Al13Fe4(7.0 P)
DOI: 10.1021/acs.jced.1c00897
Article source: Figure 4 / AIF Supplementary Data
Adsorbate Carbon Dioxide: InChIKey CURLTUGMZLYLDI-UHFFFAOYSA-N
Kind: experiment
Isotherm type: absolute
Temperature: 298 K
Tabular data in the source: 0
pressure (bar)	uptake (mmol/g)
9.877	0.1282
19.915	0.1835
29.884	0.2331
40.042	0.2873
49.938	0.352
55.301	0.3991
60.171	0.4634
0.815	0.0454
1.916	0.0647
2.907	0.0779
3.921	0.0893
4.914	0.099
5.9	0.1077
6.924	0.1159
7.938	0.1234
8.938	0.1303
9.935	0.1368
14.898	0.1645
19.932	0.1898
24.91	0.2139
29.944	0.2386
35.181	0.2655
40.122	0.2927
45.099	0.3228
50.309	0.359
51.248	0.3665
52.233	0.3748
53.347	0.3844
54.235	0.3925
55.199	0.4022
56.193	0.4131
57.289	0.426
58.195	0.4377
59.161	0.4516
60.27	0.4702
