Adsorption isotherm of Carbon Dioxide on Al13Fe4(9.7)
DOI: 10.1021/acs.jced.1c00897
Article source: Figure 4 / AIF Supplementary Data
Adsorbate Carbon Dioxide: InChIKey CURLTUGMZLYLDI-UHFFFAOYSA-N
Kind: experiment
Isotherm type: absolute
Temperature: 298 K
Tabular data in the source: 0
pressure (bar)	uptake (mmol/g)
1.898	0.1153
3.893	0.1533
5.923	0.1813
7.921	0.2036
9.905	0.2224
14.929	0.2597
19.934	0.291
24.906	0.3195
29.886	0.3473
34.98	0.3762
39.979	0.406
45.141	0.4393
49.876	0.4742
51.993	0.4922
54.209	0.5131
56.217	0.5348
57.969	0.5575
60.177	0.5939
58.831	0.5757
56.85	0.5509
54.804	0.53
52.778	0.5118
50.775	0.4959
40.654	0.43
30.282	0.3737
20.148	0.3206
10.086	0.2574
8.059	0.2391
6.051	0.2185
4.045	0.1933
2.044	0.1594
