Adsorption isotherm of Krypton on Al13Fe4(7.0 P)
DOI: 10.1021/acs.jced.1c00897
Article source: AIF Supplementary Data
Adsorbate Krypton: InChIKey DNNSSWSSYDEUBZ-UHFFFAOYSA-N
Kind: experiment
Isotherm type: excess
Temperature: 77 K
Tabular data in the source: 0
pressure (bar)	uptake (cm3(STP)/g)
1.1e-05	0.219
1.6e-05	0.5318
2e-05	1.0339
2.4e-05	1.1939
2.9e-05	1.3346
3.1e-05	1.4248
3.5e-05	1.5089
6.9e-05	2.1117
0.000106	2.5549
0.00014	2.7966
0.000175	2.9697
0.00028	3.3817
0.000351	3.6235
0.000526	4.1551
0.000701	4.6602
0.000877	5.1705
0.001052	5.7168
0.001228	6.386
0.001403	7.1631
0.001579	8.1104
