Adsorption isotherm of Carbon Dioxide on Al13Fe4(9.7)
DOI: 10.1021/acs.jced.1c00897
Article source: Figure 4 / AIF Supplementary Data
Adsorbate Carbon Dioxide: InChIKey CURLTUGMZLYLDI-UHFFFAOYSA-N
Kind: experiment
Isotherm type: absolute
Temperature: 298 K
Tabular data in the source: 0
pressure (bar)	uptake (mmol/g)
0.912	0.0877
1.923	0.1173
2.925	0.1387
3.916	0.156
4.925	0.1711
5.908	0.1842
6.938	0.1964
7.902	0.2068
8.911	0.2168
9.911	0.2261
14.913	0.2625
19.91	0.294
24.907	0.3233
29.896	0.3522
35.169	0.3834
40.065	0.414
45.3	0.4492
50.222	0.4882
51.222	0.4985
52.287	0.5089
53.293	0.5195
54.206	0.5298
55.331	0.5425
56.283	0.5546
57.317	0.5685
58.305	0.5833
59.166	0.5974
60.131	0.6162
