Adsorption isotherm of Carbon Dioxide on Al13Fe4(7.0)
DOI: 10.1021/acs.jced.1c00897
Article source: Figure 4 / AIF Supplementary Data
Adsorbate Carbon Dioxide: InChIKey CURLTUGMZLYLDI-UHFFFAOYSA-N
Kind: experiment
Isotherm type: absolute
Temperature: 298 K
Tabular data in the source: 0
pressure (bar)	uptake (mmol/g)
19.882	0.2991
39.993	0.4175
49.932	0.4917
60.279	0.614
60.321	0.6317
51.034	0.5219
40.794	0.4472
20.184	0.3309
10.077	0.2643
0.921	0.1136
1.927	0.1422
2.854	0.1617
3.915	0.1796
4.94	0.1944
5.921	0.2069
6.898	0.2181
7.898	0.2285
8.924	0.2382
9.897	0.2469
10.901	0.2552
11.946	0.2634
14.932	0.2841
19.915	0.3143
24.898	0.3426
29.89	0.3707
35.19	0.4013
40.11	0.4317
45.071	0.4653
48.274	0.4892
49.228	0.4976
50.311	0.5072
51.248	0.516
52.299	0.5259
53.22	0.5352
54.208	0.5455
55.202	0.5565
56.192	0.5681
57.282	0.582
58.194	0.595
59.27	0.612
60.156	0.6286
