Adsorption isotherm of Krypton on Al13Fe4(P)
DOI: 10.1021/acs.jced.1c00897
Article source: AIF Supplementary Data
Adsorbate Krypton: InChIKey DNNSSWSSYDEUBZ-UHFFFAOYSA-N
Kind: experiment
Isotherm type: excess
Temperature: 77 K
Tabular data in the source: 0
pressure (bar)	uptake (cm3(STP)/g)
3e-05	0.0137
3e-05	0.0176
3.2e-05	0.0214
3.4e-05	0.0251
3.7e-05	0.0285
4.2e-05	0.0317
4.8e-05	0.0345
6.2e-05	0.0386
6.8e-05	0.0404
7.3e-05	0.0419
7.9e-05	0.0431
8.4e-05	0.0441
8.8e-05	0.0449
9.1e-05	0.0455
9.4e-05	0.046
9.6e-05	0.0464
9.8e-05	0.0467
0.0001	0.047
6.7e-05	0.048
7e-05	0.0478
7.4e-05	0.0476
7.9e-05	0.0474
7.4e-05	0.0475
7.7e-05	0.0474
8e-05	0.0472
8.2e-05	0.0472
8.3e-05	0.0473
8.5e-05	0.0475
8.7e-05	0.0477
8.9e-05	0.0481
9.1e-05	0.0484
9.4e-05	0.0488
9.7e-05	0.0493
0.0001	0.0497
0.000103	0.0501
0.000107	0.0506
0.000113	0.0515
0.000146	0.0558
0.000183	0.06
0.000303	0.0721
0.000355	0.0767
0.000545	0.0914
0.000711	0.1025
0.000896	0.1134
0.001072	0.1228
0.001249	0.131
0.001422	0.1394
0.001597	0.1481
0.00177	0.157
