Adsorption isotherm of Krypton on Al13Fe4(9.7 P)
DOI: 10.1021/acs.jced.1c00897
Article source: AIF Supplementary Data
Adsorbate Krypton: InChIKey DNNSSWSSYDEUBZ-UHFFFAOYSA-N
Kind: experiment
Isotherm type: excess
Temperature: 77 K
Tabular data in the source: 0
pressure (bar)	uptake (cm3(STP)/g)
1.3e-05	0.1416
1.5e-05	0.226
2.2e-05	0.3706
2.5e-05	0.4582
2.6e-05	0.4959
3.6e-05	0.5755
3.4e-05	0.5777
7e-05	0.8409
0.00011	0.9999
0.00014	1.0867
0.000175	1.1566
0.00028	1.3255
0.000351	1.4214
0.000527	1.6465
0.000701	1.8434
0.000876	2.0287
0.001053	2.2034
0.001228	2.4159
0.001403	2.6535
0.001579	2.9458
0.001754	3.3068
