Adsorption isotherm of Krypton on Al13Fe4(9.7)
DOI: 10.1021/acs.jced.1c00897
Article source: AIF Supplementary Data
Adsorbate Krypton: InChIKey DNNSSWSSYDEUBZ-UHFFFAOYSA-N
Kind: experiment
Isotherm type: excess
Temperature: 77 K
Tabular data in the source: 0
pressure (bar)	uptake (cm3(STP)/g)
2e-05	2.7178
2.2e-05	2.9326
2.7e-05	3.0605
2.8e-05	3.2206
3.5e-05	3.3521
6.9e-05	4.5889
0.000105	5.7802
0.00014	6.2981
0.000175	6.6085
0.00021	6.8581
0.000245	7.0744
0.00028	7.2708
0.000315	7.4516
0.00035	7.6213
0.000385	7.7788
0.00042	7.9307
0.000456	8.0781
0.000491	8.22
0.000526	8.3543
0.000561	8.4885
0.000596	8.6249
0.000631	8.765
0.000667	8.9107
0.000701	9.0503
0.000736	9.2003
0.00077	9.3491
0.000807	9.5099
0.000842	9.6753
0.000877	9.8438
0.000909	10.016
0.000947	10.192
0.000982	10.381
0.001017	10.572
0.001053	10.764
0.001087	10.972
0.001122	11.184
0.001158	11.4
0.001193	11.636
0.001226	11.903
0.001404	13.321
0.001579	15.124
0.001754	17.631
