Adsorption isotherm of Carbon Dioxide on Al13Fe4(P)
DOI: 10.1021/acs.jced.1c00897
Article source: Figure 4 / AIF Supplementary Data
Adsorbate Carbon Dioxide: InChIKey CURLTUGMZLYLDI-UHFFFAOYSA-N
Kind: experiment
Isotherm type: absolute
Temperature: 298 K
Tabular data in the source: 0
pressure (bar)	uptake (mmol/g)
0.796	0.0013
1.888	0.0022
2.932	0.0028
3.938	0.0032
4.925	0.0035
5.903	0.0038
6.897	0.0042
7.909	0.0044
8.926	0.0047
9.915	0.0049
14.938	0.0059
19.912	0.0068
24.884	0.0078
29.892	0.0087
35.291	0.0097
40.076	0.0108
45.074	0.0121
50.002	0.0136
51.209	0.0141
52.202	0.0146
53.196	0.0151
54.282	0.0157
55.187	0.0164
56.184	0.017
57.173	0.0177
58.168	0.0187
59.305	0.0199
60.32	0.0213
