Adsorption isotherm of Krypton on Al13Fe4
DOI: 10.1021/acs.jced.1c00897
Article source: AIF Supplementary Data
Adsorbate Krypton: InChIKey DNNSSWSSYDEUBZ-UHFFFAOYSA-N
Kind: experiment
Isotherm type: excess
Temperature: 77 K
Tabular data in the source: 0
pressure (bar)	uptake (cm3(STP)/g)
2.7e-05	0.0101
2.8e-05	0.0181
3.6e-05	0.0215
4.4e-05	0.0244
5.3e-05	0.0269
6.1e-05	0.029
6.8e-05	0.0306
8.5e-05	0.0335
8.9e-05	0.0342
9.2e-05	0.0348
9.5e-05	0.0353
9.7e-05	0.0357
9.9e-05	0.036
0.000101	0.0362
0.000102	0.0364
0.000103	0.0365
0.000104	0.0366
0.000104	0.0366
0.000148	0.0439
0.000179	0.0468
0.000282	0.0541
0.000358	0.0584
0.000526	0.0661
0.000716	0.0735
0.000885	0.0797
0.001065	0.0859
0.00124	0.0904
0.001406	0.0968
0.001587	0.1028
0.001759	0.1092
