Adsorption isotherm of Carbon Dioxide on Al13Fe4
DOI: 10.1021/acs.jced.1c00897
Article source: Figure 4 / AIF Supplementary Data
Adsorbate Carbon Dioxide: InChIKey CURLTUGMZLYLDI-UHFFFAOYSA-N
Kind: experiment
Isotherm type: absolute
Temperature: 298 K
Tabular data in the source: 0
pressure (bar)	uptake (mmol/g)
0.918	0.0019
1.919	0.0028
2.911	0.0034
3.853	0.0039
4.924	0.0043
5.917	0.0047
6.897	0.005
7.938	0.0053
8.912	0.0055
9.915	0.0058
14.932	0.0069
19.929	0.008
24.915	0.0092
29.93	0.0103
35.184	0.0117
40.096	0.0131
45.12	0.0148
50.071	0.0169
51.219	0.0175
52.231	0.0181
53.307	0.0187
54.215	0.0193
55.219	0.0201
56.299	0.021
57.292	0.0219
58.327	0.0231
59.351	0.0251
60.285	0.026
9.904	0.0072
19.902	0.0093
29.879	0.0113
40.101	0.0138
50.278	0.0174
60.323	0.0246
