Adsorption isotherm of Krypton on Al13Fe4(7.0)
DOI: 10.1021/acs.jced.1c00897
Article source: AIF Supplementary Data
Adsorbate Krypton: InChIKey DNNSSWSSYDEUBZ-UHFFFAOYSA-N
Kind: experiment
Isotherm type: excess
Temperature: 77 K
Tabular data in the source: 0
pressure (bar)	uptake (cm3(STP)/g)
2e-05	2.0952
2.4e-05	2.3353
2.7e-05	2.4897
3.1e-05	2.6396
3.5e-05	2.7831
6.9e-05	4.0008
0.000105	5.4269
0.00014	5.9218
0.000174	6.2083
0.00021	6.4309
0.000245	6.6232
0.00028	6.8029
0.000315	6.9722
0.00035	7.1347
0.000385	7.2946
0.00042	7.4522
0.000456	7.6122
0.000491	7.7664
0.000525	7.9169
0.000561	8.0689
0.000596	8.2236
0.000632	8.381
0.000666	8.531
0.000701	8.6905
0.000737	8.8515
0.000771	9.0145
0.000807	9.1815
0.000841	9.3538
0.000877	9.5337
0.000912	9.7183
0.000947	9.9126
0.000982	10.116
0.001017	10.317
0.001052	10.519
0.001088	10.751
0.001122	10.972
0.001158	11.209
0.001191	11.452
0.001228	11.759
0.001403	13.335
0.001579	15.48
0.001754	18.585
