Adsorption isotherm of Carbon Dioxide on [Zn(dcpa)]
DOI: 10.1039/C3ta10918f
Adsorbate Carbon Dioxide: InChIKey CURLTUGMZLYLDI-UHFFFAOYSA-N
Temperature: 293 K
Tabular data in the source: 0
pressure (bar)	uptake (cm3(STP)/g)
0.0149134	0.7898
0.0716458	5.22642
0.153758	11.2405
0.229899	16.1701
0.30604	21.2968
0.403082	27.1137
0.500125	32.3391
0.57328	35.6912
0.612096	37.4659
0.641956	38.5504
0.719589	41.0152
0.77035	42.5926
0.827082	44.0715
0.886801	45.7475
0.94204	47.2264
0.998773	48.7053
1.08686	50.8743
