Adsorption isotherm of Nitrogen on [Zn(dcpa)]
DOI: 10.1039/C3ta10918f
Adsorbate Nitrogen: InChIKey IJGRMHOSHXDMSA-UHFFFAOYSA-N
Temperature: 293 K
Tabular data in the source: 0
pressure (bar)	uptake (cm3(STP)/g)
0.00744863	0.19825
0.126885	0.296842
0.191082	0.296842
0.283646	0.19825
0.38666	0.395433
0.485195	0.691208
0.58373	0.7898
0.685251	1.18417
0.789759	1.38135
0.883815	1.38135
0.940547	1.67712
0.983843	1.57853
