Adsorption isotherm of Nitrogen on [Zn(dcpa)]
DOI: 10.1039/C3ta10918f
Adsorbate Nitrogen: InChIKey IJGRMHOSHXDMSA-UHFFFAOYSA-N
Temperature: 77 K
Tabular data in the source: 0
pressure (bar)	uptake (cm3(STP)/g)
0.00515504	2.64646
0.00658518	86.7389
0.015166	96.4638
0.0280373	104.473
0.0637909	113.053
0.0809526	131.931
0.102405	206.299
0.131008	234.33
0.173912	242.338
0.209665	249.775
0.304055	258.356
0.397014	262.932
0.497124	269.225
0.595804	276.09
0.693054	283.527
0.75026	289.247
0.813186	295.54
0.870392	306.981
0.917586	319.566
0.979082	343.021
