Adsorption isotherm of Carbon Dioxide on [Zn(dcpa)]
DOI: 10.1039/C3ta10918f
Adsorbate Carbon Dioxide: InChIKey CURLTUGMZLYLDI-UHFFFAOYSA-N
Temperature: 195 K
Tabular data in the source: 0
pressure (bar)	uptake (cm3(STP)/g)
0.00561856	5.2855
0.00702701	22.8911
0.00984391	42.6094
0.0126608	55.2855
0.0168862	70.0742
0.0549143	90.1447
0.107027	98.2432
0.157731	104.229
0.208435	108.807
0.271816	116.201
0.316886	128.173
0.356323	139.793
0.401393	152.821
0.457731	160.567
0.576041	168.314
0.673224	173.243
0.778858	179.933
0.82252	182.398
0.871816	186.271
0.919703	196.131
0.953506	226.764
