Adsorption isotherm of Carbon Dioxide on [Zn(dcpa)]
DOI: 10.1039/C3ta10918f
Adsorbate Carbon Dioxide: InChIKey CURLTUGMZLYLDI-UHFFFAOYSA-N
Temperature: 273 K
Tabular data in the source: 0
pressure (bar)	uptake (cm3(STP)/g)
0.00446271	0.986983
0.0492514	6.6067
0.0970261	12.7194
0.147787	18.7335
0.203026	24.649
0.271702	31.0574
0.338885	36.4799
0.410547	41.7053
0.476237	46.1419
0.544913	50.0856
0.612096	53.9306
0.686744	57.7757
0.753928	61.0292
0.822604	64.3813
0.897251	67.6349
0.927111	68.818
0.961449	70.1982
0.998773	72.1701
