Adsorption isotherm of Nitrogen on Silicalite MFI
DOI: 10.1016/S1387-1811(01)00359-6
Adsorbate Nitrogen: InChIKey IJGRMHOSHXDMSA-UHFFFAOYSA-N
Temperature: 298 K
Tabular data in the source: 0
pressure (bar)	uptake (mmol/g)
0.132103	0.0639838
0.301462	0.173227
0.498564	0.227849
0.716195	0.337093
0.968554	0.457261
2.39553	0.883312
3.80548	1.15642
4.74836	1.39676
7.39287	1.68079
10.62	1.89928
22.8152	2.39087
34.1204	2.71861
58.7464	2.98079
86.1056	3.30852
167.276	3.6581
271.133	3.88751
559.506	4.12785
982.903	4.23709
