Adsorption isotherm of Neon on Silicalite MFI
DOI: 10.1016/S1387-1811(01)00359-6
Adsorbate Neon: InChIKey GKAOGPIIYCISHV-UHFFFAOYSA-N
Temperature: 301 K
Tabular data in the source: 0
pressure (bar)	uptake (mmol/g)
0.999251	0.043488
3.08555	0.0768738
4.95691	0.11026
7.18747	0.151992
9.9011	0.210417
30.184	0.57766
51.0403	0.853093
69.4155	1.12018
302.935	2.79781
492.939	3.50726
714.756	3.99136
1010.17	4.55057
