Adsorption isotherm of Oxygen on Silicalite MFI
DOI: 10.1016/S1387-1811(01)00359-6
Adsorbate Oxygen: InChIKey MYMOFIZGZYHOMD-UHFFFAOYSA-N
Temperature: 298 K
Tabular data in the source: 0
pressure (bar)	uptake (mmol/g)
0.126892	0.0421351
0.376156	0.118606
0.808106	0.282471
1.41963	0.457261
2.59633	0.708522
4.12446	1.04718
6.0453	1.38583
14.654	2.13961
24.7276	2.51104
49.0146	2.8934
82.7089	3.10096
148.251	3.24298
359.365	3.35222
606.405	3.39592
1044.07	3.40684
