Adsorption isotherm of Oxygen on Silicalite MFI
DOI: 10.1016/S1387-1811(01)00359-6
Adsorbate Oxygen: InChIKey MYMOFIZGZYHOMD-UHFFFAOYSA-N
Temperature: 298 K
Tabular data in the source: 0
pressure (bar)	uptake (mmol/g)
0.114746	0.0858325
0.205676	0.118606
0.460005	0.238774
0.988242	0.468185
1.73608	0.719446
3.17508	1.04718
5.80683	1.41861
8.86071	1.64802
14.9519	1.98667
23.7522	2.27071
40.895	2.54382
64.9649	2.81693
121.228	3.11188
271.133	3.40684
526.728	3.51608
1086.95	3.62533
