Adsorption isotherm of Argon on Silicalite MFI
DOI: 10.1016/S1387-1811(01)00359-6
Adsorbate Argon: InChIKey XKRFYHLGVUSROY-UHFFFAOYSA-N
Temperature: 301 K
Tabular data in the source: 0
pressure (bar)	uptake (mmol/g)
0.103762	0.0636713
0.295457	0.129218
0.508698	0.181654
0.687943	0.247201
1.02883	0.352075
2.98907	0.850226
4.94337	1.13863
7.39287	1.40081
10.4084	1.67611
29.6373	2.38401
51.0275	2.63308
70.4103	2.79039
95.2202	2.94771
305.928	3.28855
657.235	3.59006
1002.88	3.69493
