Adsorption isotherm of Neon on Silicalite MFI
DOI: 10.1016/S1387-1811(01)00359-6
Adsorbate Neon: InChIKey GKAOGPIIYCISHV-UHFFFAOYSA-N
Temperature: 301 K
Tabular data in the source: 0
pressure (bar)	uptake (mmol/g)
1.19557	0.00175579
1.77856	0.0101022
2.85724	0.0351416
4.36082	0.0685273
7.66298	0.126952
14.5416	0.235456
23.0636	0.385692
34.3099	0.544275
59.523	0.894825
86.3076	1.26207
125.145	1.63766
170.199	2.08002
243.645	2.54742
339.961	3.03986
456.465	3.43214
589.785	3.80773
752.341	4.09986
984.612	4.42537
