Adsorption isotherm of Helium on Silicalite MFI
DOI: 10.1016/S1387-1811(01)00359-6
Adsorbate Helium: InChIKey SWQJXJOGLNCZEY-UHFFFAOYSA-N
Temperature: 301 K
Tabular data in the source: 0
pressure (bar)	uptake (mmol/g)
3.59836	0.0101022
7.28015	0.0267951
13.2942	0.0768738
20.5517	0.143645
31.7712	0.20207
53.0403	0.327267
86.3076	0.527582
123.552	0.744589
183.799	1.04506
253.192	1.40396
302.935	1.65435
381.511	2.02994
450.654	2.34711
546.145	2.67262
645.124	3.0649
762.043	3.45718
911.758	3.8912
997.308	4.16663
