Adsorption isotherm of Argon on Silicalite MFI
DOI: 10.1016/S1387-1811(01)00359-6
Adsorbate Argon: InChIKey XKRFYHLGVUSROY-UHFFFAOYSA-N
Temperature: 301 K
Tabular data in the source: 0
pressure (bar)	uptake (mmol/g)
0.0996692	0.0112343
0.185988	0.0374528
0.267617	0.0689408
0.470264	0.109746
0.794072	0.213612
1.2381	0.317479
1.82356	0.484408
2.67063	0.640208
4.77377	0.992614
7.23422	1.33018
10.356	1.61952
14.8249	1.94967
23.7822	2.34288
32.5289	2.56545
49.0147	2.81028
93.2776	3.08479
145.436	3.21833
203.508	3.2851
361.706	3.36671
603.849	3.39268
996.676	3.42607
