Adsorption isotherm of Nitrogen on Silicalite MFI
DOI: 10.1016/S1387-1811(01)00359-6
Adsorbate Nitrogen: InChIKey IJGRMHOSHXDMSA-UHFFFAOYSA-N
Temperature: 298 K
Tabular data in the source: 0
pressure (bar)	uptake (mmol/g)
0.124364	0.0421351
0.241601	0.0749082
0.407686	0.118606
0.701927	0.238774
1.16086	0.326169
1.99869	0.588354
3.30547	0.872387
4.94337	1.18919
6.82111	1.47323
9.99782	1.85558
15.8823	2.30348
24.235	2.69676
34.814	3.03541
57.576	3.37407
99.1306	3.59256
188.743	3.78919
381.728	3.92029
657.235	3.96398
1023.27	3.97491
