Adsorption isotherm of Nitrogen on Silicalite MFI
DOI: 10.1016/S1387-1811(01)00359-6
Adsorbate Nitrogen: InChIKey IJGRMHOSHXDMSA-UHFFFAOYSA-N
Temperature: 298 K
Tabular data in the source: 0
pressure (bar)	uptake (mmol/g)
0.103762	0.0749082
0.313843	0.162303
0.498564	0.216925
0.730754	0.315244
1.07108	0.457261
2.98907	1.0144
5.04385	1.37491
7.39287	1.65894
10.2011	1.89928
32.7745	2.7623
51.0275	2.99171
71.8416	3.23205
105.3	3.33037
305.928	3.84382
505.949	4.08415
726.805	4.20432
1065.29	4.29171
