Adsorption isotherm of Helium on Silicalite MFI
DOI: 10.1016/S1387-1811(01)00359-6
Adsorbate Helium: InChIKey SWQJXJOGLNCZEY-UHFFFAOYSA-N
Temperature: 301 K
Tabular data in the source: 0
pressure (bar)	uptake (mmol/g)
7.09597	0.0768738
9.9011	0.118606
30.5732	0.252149
51.6984	0.402385
70.3105	0.569314
103.264	0.811361
306.842	1.94648
499.295	2.74774
1010.17	4.13324
