Adsorption isotherm of Oxygen on Silicalite MFI
DOI: 10.1016/S1387-1811(01)00359-6
Adsorbate Oxygen: InChIKey MYMOFIZGZYHOMD-UHFFFAOYSA-N
Temperature: 298 K
Tabular data in the source: 0
pressure (bar)	uptake (mmol/g)
0.295457	0.162303
0.469356	0.227849
0.660805	0.337093
0.988242	0.435412
3.11182	0.981631
5.04385	1.32029
7.24559	1.5934
9.99782	1.80096
30.8544	2.45642
49.0146	2.69676
73.3019	2.87155
103.202	2.99171
299.834	3.35222
516.234	3.55978
726.805	3.55978
1023.27	3.67995
