Adsorption isotherm of Methanol on Cu-MOF-SiF6
DOI: 10.1039/C1jm10394f
Adsorbate Methanol: InChIKey OKKJLVBELUTLKV-UHFFFAOYSA-N
Temperature: 298 K
Tabular data in the source: 0
pressure (bar)	uptake (cm3(STP)/g)
0.00301562	77.6419
0.00603125	87.4236
0.0120625	93.5371
0.0150781	99.6507
0.0271406	103.319
0.0392031	106.987
0.0572969	108.821
0.0753906	111.266
0.0814219	112.489
0.111578	114.323
0.126656	115.546
0.150781	115.546
0.162844	116.157
0.183953	117.38
0.250297	119.825
0.304578	121.659
0.349812	122.882
0.407109	123.493
0.449328	124.105
0.506625	125.328
0.554875	125.939
0.594078	125.939
0.642328	127.162
0.690578	127.773
0.744859	127.773
0.787078	128.384
0.841359	128.384
0.877547	128.996
