Adsorption isotherm of Toluene on Cu-MOF-SiF6
DOI: 10.1039/C1jm10394f
Adsorbate Toluene: InChIKey YXFVVABEGXRONW-UHFFFAOYSA-N
Temperature: 298 K
Tabular data in the source: 0
pressure (bar)	uptake (cm3(STP)/g)
0.256328	1.83406
0.386	1.22271
0.431234	1.83406
0.491547	1.83406
0.582016	2.44541
0.642328	3.05677
0.735812	3.66812
0.82025	4.27948
0.877547	4.27948
