Adsorption isotherm of Ethanol on Cu-MOF-NO3
DOI: 10.1039/C1jm10394f
Adsorbate Ethanol: InChIKey LFQSCWFLJHTTHZ-UHFFFAOYSA-N
Temperature: 298 K
Tabular data in the source: 0
pressure (bar)	uptake (cm3(STP)/g)
0.00539733	23.0682
0.0134933	25.1894
0.0188907	26.7803
0.0269867	28.9015
0.0350827	30.2273
0.0458773	31.8182
0.0593707	33.1439
0.072864	35
0.0917547	36.0606
0.107947	37.1212
0.124139	37.9167
0.143029	38.9773
0.170016	39.7727
0.188907	40.5682
0.207797	40.8333
0.226688	41.6288
0.24288	42.1591
0.264469	42.6894
0.286059	42.9545
0.307648	43.75
0.321141	44.5455
0.345429	45.3409
0.367019	45.3409
0.383211	45.6061
0.415595	46.1364
0.44528	46.6667
0.461472	47.197
0.483061	47.7273
0.504651	48.5227
0.520843	49.3182
0.545131	49.8485
0.56672	51.7045
0.588309	52.7652
0.604501	53.0303
0.620693	54.0909
0.644981	55.4167
0.666571	56.4773
0.682763	57.5379
0.704352	58.3333
0.720544	58.8636
0.742133	59.6591
0.761024	60.4545
0.785312	60.9848
0.804203	61.5152
0.823093	62.0455
0.841984	63.1061
0.863573	63.6364
0.885163	64.1667
0.901355	64.697
0.922944	65.2273
