Adsorption isotherm of Methanol on Cu-MOF-NO3
DOI: 10.1039/C1jm10394f
Adsorbate Methanol: InChIKey OKKJLVBELUTLKV-UHFFFAOYSA-N
Temperature: 298 K
Tabular data in the source: 0
pressure (bar)	uptake (cm3(STP)/g)
0.00292804	5.99222
0.00301545	10.3502
0.00311378	15.2529
0.00598719	18.5214
0.00888246	22.8794
0.0145637	26.1479
0.020245	29.4163
0.0343608	33.2296
0.0428172	34.8638
0.0625377	38.1323
0.0766207	40.3113
0.0991164	41.9455
0.132887	45.7588
0.14697	47.9377
0.161053	50.1167
0.180752	52.2957
0.211693	55.0195
0.225765	56.6537
0.248261	58.2879
0.273641	63.7354
0.298933	64.8249
0.321517	70.8171
0.349628	72.4514
0.386196	75.7198
0.405883	77.3541
0.442429	79.5331
0.487388	81.1673
0.498652	82.8016
0.5436	83.8911
0.594185	86.07
0.647578	88.249
0.703757	89.3385
0.751534	91.5175
0.793685	93.1518
0.841462	95.3307
0.889294	100.233
0.937192	108.405
