Adsorption isotherm of Carbon Dioxide on Cu-MOF-SiF6
DOI: 10.1039/C1jm10394f
Adsorbate Carbon Dioxide: InChIKey CURLTUGMZLYLDI-UHFFFAOYSA-N
Temperature: 298 K
Tabular data in the source: 0
pressure (bar)	uptake (cm3(STP)/g)
0.0572969	0
0.108562	0
0.211094	0
0.292516	-0.611354
0.33775	-0.611354
0.431234	-1.83406
0.491547	-1.83406
0.560906	-1.83406
0.630266	-1.83406
0.699625	-1.83406
0.768984	-1.83406
0.829297	-2.44541
0.901672	-2.44541
0.971031	-3.05677
0.995156	-3.05677
