Adsorption isotherm of Nitrogen on Cu-MOF-SiF6
DOI: 10.1039/C1jm10394f
Adsorbate Nitrogen: InChIKey IJGRMHOSHXDMSA-UHFFFAOYSA-N
Temperature: 298 K
Tabular data in the source: 0
pressure (bar)	uptake (cm3(STP)/g)
0.102531	0.611354
0.165859	0.611354
0.202047	1.22271
0.458375	0.611354
0.533766	0.611354
0.633281	0.611354
0.678516	0
0.784062	0
0.937859	0.611354
1.00722	1.22271
