Adsorption isotherm of Ethanol on Cu-MOF-SiF6
DOI: 10.1039/C1jm10394f
Adsorbate Ethanol: InChIKey LFQSCWFLJHTTHZ-UHFFFAOYSA-N
Temperature: 298 K
Tabular data in the source: 0
pressure (bar)	uptake (cm3(STP)/g)
0.0512747	2.12121
0.0674667	3.18182
0.08096	4.24242
0.0998507	5.03788
0.12144	5.56818
0.137632	6.09848
0.151125	6.09848
0.178112	6.62879
0.2024	8.75
0.234784	9.2803
0.28336	9.54545
0.331936	9.81061
0.377813	10.0758
0.431787	10.3409
0.477664	10.6061
0.523541	10.6061
0.564021	10.8712
0.609899	11.1364
0.661173	11.4015
0.707051	11.6667
0.755627	11.9318
0.804203	11.6667
0.831189	11.6667
