Adsorption isotherm of Carbon Dioxide on NJFU-2a
DOI: 10.1039/c5ra02756j
Article source: Figure 3
Adsorbate Carbon Dioxide: InChIKey CURLTUGMZLYLDI-UHFFFAOYSA-N
Kind: experiment
Temperature: 298 K
Tabular data in the source: 0
pressure (bar)	uptake (wt%)
0	0
0.003755	0.247368
0.0075	0.453559
0.009388	0.61842
0.011277	0.783282
0.013143	0.865788
0.014999	0.907118
0.016866	0.989624
0.018733	1.07213
0.028121	1.69055
0.058022	3.13419
0.08598	4.20708
0.108327	4.99127
0.136209	5.77592
0.164058	6.43704
0.19003	6.97447
0.21598	7.42955
0.243765	7.8436
0.269693	8.21633
0.297456	8.54803
0.323352	8.79722
0.349248	9.04641
0.375133	9.25442
0.402874	9.50377
0.430593	9.67075
0.458323	9.87892
0.51005	10.1302
0.537759	10.2561
0.565478	10.423
0.589485	10.5074
0.617194	10.6332
0.643046	10.7177
0.670744	10.8023
0.696596	10.8868
0.722449	10.9713
0.750157	11.0971
0.77601	11.1816
0.803697	11.225
0.829549	11.3095
0.857236	11.3529
0.883078	11.3963
0.910764	11.4397
0.934772	11.524
0.962458	11.5675
0.990156	11.6521
1.016	11.6954
1.04368	11.7389
1.07136	11.7412
