Adsorption isotherm of Methane on NJFU-2a
DOI: 10.1039/c5ra02756j
Article source: Figure 3
Adsorbate Methane: InChIKey VNWKTOKETHGBQD-UHFFFAOYSA-N
Kind: experiment
Temperature: 273 K
Tabular data in the source: 0
pressure (bar)	uptake (wt%)
0	0
0.011081	0.042089
0.020317	0.084026
0.027698	0.084634
0.053528	0.086761
0.08306	0.13037
0.107068	0.2147
0.13661	0.299486
0.160596	0.301461
0.190139	0.386247
0.214135	0.429399
0.241833	0.514033
0.269509	0.516312
0.29535	0.559617
0.321192	0.602922
0.347034	0.646226
0.376566	0.689835
0.400562	0.732987
0.428249	0.776444
0.455936	0.819901
0.509453	0.865484
0.53345	0.908637
0.561126	0.910916
0.588812	0.954373
0.614654	0.997677
0.640496	1.04098
0.668172	1.04326
0.694013	1.08657
0.721689	1.08884
0.747531	1.13215
0.775207	1.13443
0.799203	1.17758
0.828724	1.18001
0.854566	1.22332
0.880408	1.26662
0.908084	1.2689
0.933925	1.31221
0.959767	1.35551
0.987432	1.31661
1.01327	1.35992
1.04096	1.40337
1.06864	1.40565
