Adsorption isotherm of Carbon Dioxide on NJFU-2a
DOI: 10.1039/c5ra02756j
Article source: Figure 3
Adsorbate Carbon Dioxide: InChIKey CURLTUGMZLYLDI-UHFFFAOYSA-N
Kind: experiment
Temperature: 313 K
Tabular data in the source: 0
pressure (bar)	uptake (wt%)
0	0
0.0056	0.24752
0.009334	0.412533
0.013046	0.495192
0.018603	0.578003
0.020469	0.660509
0.029771	0.949511
0.055818	1.77519
0.081823	2.43615
0.107827	3.09712
0.135655	3.67588
0.161616	4.17213
0.189412	4.62736
0.215351	5.04126
0.243135	5.45532
0.269064	5.82804
0.294981	6.15959
0.322722	6.40893
0.348629	6.6993
0.376381	6.98982
0.402266	7.19783
0.430007	7.44718
0.457737	7.65534
0.507652	8.03004
0.535371	8.19703
0.561245	8.36387
0.588964	8.53086
0.614828	8.65652
0.642536	8.78233
0.670255	8.94932
0.696119	9.07497
0.721971	9.15946
0.74968	9.28527
0.775532	9.36975
0.803241	9.49556
0.829093	9.58004
0.856791	9.66468
0.880809	9.79018
0.910352	9.87497
0.936204	9.95945
0.962046	10.0028
0.989744	10.0874
1.0156	10.1719
1.04328	10.2153
1.06914	10.2998
