Adsorption isotherm of Carbon Dioxide on NJFU-2a
DOI: 10.1039/c5ra02756j
Article source: Figure 3
Adsorbate Carbon Dioxide: InChIKey CURLTUGMZLYLDI-UHFFFAOYSA-N
Kind: experiment
Temperature: 273 K
Tabular data in the source: 0
pressure (bar)	uptake (wt%)
0	0
5.4e-05	0.205887
0.00013	0.494128
0.002019	0.65899
0.003918	0.865029
0.003961	1.02974
0.00585	1.1946
0.005893	1.35931
0.005937	1.52402
0.005969	1.64755
0.007847	1.77123
0.009735	1.9361
0.011613	2.05978
0.011646	2.18331
0.011667	2.26567
0.011689	2.34802
0.011721	2.47155
0.011754	2.59509
0.013621	2.67759
0.015509	2.84245
0.015531	2.92481
0.015542	2.96599
0.030802	4.86136
0.064718	7.54062
0.085307	8.65408
0.115077	9.60359
0.133637	10.0169
0.161453	10.5545
0.191072	10.9275
0.216979	11.2179
0.242864	11.4259
0.270583	11.5929
0.298303	11.7599
0.324177	11.9267
0.351874	12.0113
0.377738	12.137
0.40359	12.2215
0.431288	12.3061
0.458985	12.3907
0.51068	12.5185
0.538366	12.562
0.564208	12.6053
0.591895	12.6487
0.619592	12.7334
0.645423	12.7355
0.671265	12.7788
0.697107	12.8221
0.724804	12.9067
0.75248	12.909
0.778322	12.9523
0.804163	12.9956
0.83185	13.0391
0.857681	13.0412
0.881667	13.0432
0.909353	13.0867
0.93704	13.1301
0.962882	13.1734
0.990568	13.2169
1.01639	13.1778
1.04777	13.2216
1.06992	13.2646
