Adsorption isotherm of Methane on NJFU-2a
DOI: 10.1039/c5ra02756j
Article source: Figure 2
Adsorbate Methane: InChIKey VNWKTOKETHGBQD-UHFFFAOYSA-N
Kind: experiment
Temperature: 77 K
Tabular data in the source: 0
pressure (bar)	uptake (g/cm3)
0	0
0.002241	14.1343
0.002463	25.4417
0.002727	38.8693
0.002963	50.8834
0.003213	63.6042
0.003449	75.6184
0.003698	88.3392
0.003934	100.353
0.00417	112.367
0.00442	125.088
0.004684	138.516
0.00492	150.53
0.005169	163.251
0.005558	183.039
0.005988	204.947
0.006474	229.682
0.006876	250.177
0.011289	274.912
0.076215	281.272
0.093902	281.979
0.111575	281.979
0.129261	282.686
0.146976	284.806
0.148898	282.686
0.168549	283.392
0.19015	283.392
0.209772	282.686
0.213741	284.806
0.258863	282.686
0.264796	284.806
0.311882	282.686
0.315851	284.806
0.360974	282.686
0.364929	284.099
0.431666	282.686
0.43562	284.099
0.469003	284.099
0.482721	282.686
0.520072	284.806
0.531812	282.686
0.56915	284.099
0.582868	282.686
0.631959	282.686
0.639855	284.806
0.683015	282.686
0.690911	284.806
0.73407	282.686
0.741966	284.806
0.785125	282.686
0.793021	284.806
0.832295	284.806
0.838144	282.686
0.840149	284.806
0.863727	285.512
0.871527	282.686
0.889241	284.806
0.910799	282.686
0.914782	285.512
0.920632	283.392
0.944238	285.512
0.946145	282.686
0.969737	284.099
0.981561	286.219
0.995279	284.806
0.999261	287.633
1.00316	286.219
1.01104	287.633
1.015	289.046
