Adsorption isotherm of Hg(II), Copper(II) Ion, Water on Glutamic acid-modified cellulose fibrous composite
DOI: 10.1039/c7qm00210f
Article source: Figure 7
Adsorbate Hg(II): InChIKey BQPIGGFYSBELGY-UHFFFAOYSA-N
Adsorbate Copper(II) Ion: InChIKey JPVYNHNXODAKFH-UHFFFAOYSA-N
Adsorbate Water: InChIKey XLYOFNOQVPJJNP-UHFFFAOYSA-N
Kind: experiment
Temperature: 298 K
Tabular data in the source: 0
pressure (bar)	Hg(II) fraction	Hg(II) uptake (mmol/g)	Copper(II) Ion fraction	Copper(II) Ion uptake (mmol/g)	Water fraction	Water uptake (mmol/g)	total uptake (mmol/g)
1.01325	1.7101	0.02244					
1.01325	6.7809	0.058999					
1.01325	7.959	0.104972					
1.01325	14.6712	0.150719					
1.01325	22.9146	0.192061					
