Adsorption isotherm of Hg(II), Water on Glutamic acid-modified cellulose fibrous composite
DOI: 10.1039/c7qm00210f
Article source: Figure 7
Adsorbate Hg(II): InChIKey BQPIGGFYSBELGY-UHFFFAOYSA-N
Adsorbate Water: InChIKey XLYOFNOQVPJJNP-UHFFFAOYSA-N
Kind: experiment
Temperature: 298 K
Tabular data in the source: 0
pressure (bar)	Hg(II) fraction	Hg(II) uptake (mmol/g)	Water fraction	Water uptake (mmol/g)	total uptake (mmol/g)
1.01325	1.0274	0.023843			
1.01325	2.1331	0.045827			
1.01325	4.0136	0.06481			
1.01325	5.1745	0.087993			
1.01325	6.9627	0.107576			
1.01325	12.5864	0.156127			
1.01325	21.2726	0.196267			
