Adsorption isotherm of Copper(II) Ion, Water on Glutamic acid-modified cellulose fibrous composite
DOI: 10.1039/c7qm00210f
Article source: Figure 7
Adsorbate Copper(II) Ion: InChIKey JPVYNHNXODAKFH-UHFFFAOYSA-N
Adsorbate Water: InChIKey XLYOFNOQVPJJNP-UHFFFAOYSA-N
Kind: experiment
Temperature: 298 K
Tabular data in the source: 0
pressure (bar)	Copper(II) Ion fraction	Copper(II) Ion uptake (mmol/g)	Water fraction	Water uptake (mmol/g)	total uptake (mmol/g)
1.01325	0.252	0.07633			
1.01325	0.832	0.23607			
1.01325	1.993	0.37817			
1.01325	10.184	0.47041			
1.01325	31.004	0.54102			
1.01325	44.773	0.58997			
1.01325	78.224	0.64365			
1.01325	96.231	0.65779			
1.01325	114.463	0.67287			
