Adsorption isotherm of Copper(II) Ion, Water on Glutamic acid-modified cellulose fibrous composite
DOI: 10.1039/c7qm00210f
Article source: Figure 6
Adsorbate Copper(II) Ion: InChIKey JPVYNHNXODAKFH-UHFFFAOYSA-N
Adsorbate Water: InChIKey XLYOFNOQVPJJNP-UHFFFAOYSA-N
Kind: experiment
Temperature: 298 K
Tabular data in the source: 0
pressure (bar)	Copper(II) Ion fraction	Copper(II) Ion uptake (mg/g)	Water fraction	Water uptake (mg/g)	total uptake (mg/g)
1.01325	-0.021	5.061			
1.01325	0.184	14.879			
1.01325	1.632	24.26			
1.01325	9.812	29.986			
1.01325	31.04	34.62			
1.01325	44.813	37.509			
1.01325	77.846	41.16			
1.01325	95.761	42.086			
1.01325	113.676	43.121			
