Adsorption isotherm of Hg(II), Copper(II) Ion, Water on Glutamic acid-modified cellulose fibrous composite
DOI: 10.1039/c7qm00210f
Article source: Figure 7
Adsorbate Hg(II): InChIKey BQPIGGFYSBELGY-UHFFFAOYSA-N
Adsorbate Copper(II) Ion: InChIKey JPVYNHNXODAKFH-UHFFFAOYSA-N
Adsorbate Water: InChIKey XLYOFNOQVPJJNP-UHFFFAOYSA-N
Kind: experiment
Temperature: 298 K
Tabular data in the source: 0
pressure (bar)	Hg(II) fraction	Hg(II) uptake (mmol/g)	Copper(II) Ion fraction	Copper(II) Ion uptake (mmol/g)	Water fraction	Water uptake (mmol/g)	total uptake (mmol/g)
1.01325			0.224	0.07632			
1.01325			0.719	0.23278			
1.01325			3.245	0.36623			
1.01325			12.99	0.44569			
1.01325			38.922	0.47536			
1.01325			81.489	0.53825			
1.01325			117.729	0.64383			
