Adsorption isotherm of Hg(II), Water on Glutamic acid-modified cellulose fibrous composite
DOI: 10.1039/c7qm00210f
Article source: Figure 6
Adsorbate Hg(II): InChIKey BQPIGGFYSBELGY-UHFFFAOYSA-N
Adsorbate Water: InChIKey XLYOFNOQVPJJNP-UHFFFAOYSA-N
Kind: experiment
Temperature: 298 K
Tabular data in the source: 0
pressure (bar)	Hg(II) fraction	Hg(II) uptake (mg/g)	Water fraction	Water uptake (mg/g)	total uptake (mg/g)
1.01325	0.497	2.498			
1.01325	1.118	4.788			
1.01325	2.153	8.824			
1.01325	3.809	13.133			
1.01325	5.154	17.66			
1.01325	7.018	21.696			
1.01325	21.098	39.311			
1.01325	65.834	42.034			
1.01325	116.162	41.811			
