Adsorption isotherm of Argon on MOF-646
DOI: 10.1039/C0cc02589e
Adsorbate Argon: InChIKey XKRFYHLGVUSROY-UHFFFAOYSA-N
Temperature: 87 K
Tabular data in the source: 0
pressure (bar)	uptake (cm3(STP)/g)
0.0477074	271.923
0.0957747	278.478
0.148212	279.789
0.246531	282.41
0.351405	285.032
0.456279	286.343
0.558968	286.999
0.659472	286.343
0.751237	286.343
0.856111	286.343
0.952245	288.31
0.987203	291.587
