Adsorption isotherm of Argon on MOF-646
DOI: 10.1039/C0cc02589e
Adsorbate Argon: InChIKey XKRFYHLGVUSROY-UHFFFAOYSA-N
Temperature: 87 K
Tabular data in the source: 0
pressure (bar)	uptake (cm3(STP)/g)
0.00182509	10.3936
0.00182509	80.5281
0.00182509	207.688
0.00400996	129.032
0.021489	239.805
0.0302285	281.755
0.113254	288.965
0.25964	292.242
0.360144	292.242
0.460649	296.175
0.563338	297.486
0.764346	296.831
0.95006	297.486
0.998128	304.041
