Adsorption isotherm of Hydrogen on MOF-646
DOI: 10.1039/C0cc02589e
Adsorbate Hydrogen: InChIKey UFHFLCQGNIYNRP-UHFFFAOYSA-N
Temperature: 87 K
Tabular data in the source: 0
pressure (bar)	uptake (mg/g)
0.0158304	0.998792
0.0366741	2.30972
0.0667817	3.79543
0.161736	6.24249
0.270587	8.03409
0.379437	9.30131
0.488288	10.2627
0.592506	11.0492
0.696725	11.7047
0.805575	12.229
0.914425	12.666
1.02096	13.103
1.06496	13.2778
