Adsorption isotherm of Hydrogen on MOF-646
DOI: 10.1039/C0cc02589e
Adsorbate Hydrogen: InChIKey UFHFLCQGNIYNRP-UHFFFAOYSA-N
Temperature: 77 K
Tabular data in the source: 0
pressure (bar)	uptake (mg/g)
0.00425056	0.212238
0.0158304	2.70299
0.0297262	4.88787
0.0690976	7.16014
0.0945733	8.68955
0.164052	10.8744
0.275219	12.8408
0.381753	14.1954
0.483656	14.9383
0.592506	15.7248
0.703672	16.2929
0.812523	16.861
0.921373	17.2106
1.06265	17.5601
