Adsorption isotherm of Hydrogen on [Co3(bpdc)3(bpy)]
DOI: 10.1016/j.ijhydene.2012.01.122
Adsorbate Hydrogen: InChIKey UFHFLCQGNIYNRP-UHFFFAOYSA-N
Temperature: 77 K
Tabular data in the source: 0
pressure (bar)	uptake (wt%)
0	0.289389
0.228571	0.694492
0.457143	1.25876
2.05714	1.75043
4.11429	2.06839
8	2.21238
11.2	2.25521
15.3143	2.31234
19.4286	2.32607
27.6571	2.36799
39.5429	2.38031
52.3429	2.37799
63.7714	2.34699
73.3714	2.2729
