Adsorption isotherm of Hydrogen on [Zn3(bpdc)3(bpy)]
DOI: 10.1016/j.ijhydene.2012.01.122
Adsorbate Hydrogen: InChIKey UFHFLCQGNIYNRP-UHFFFAOYSA-N
Temperature: 77 K
Tabular data in the source: 0
pressure (bar)	uptake (wt%)
0.228571	0.144653
0.457143	0.347184
1.14286	0.593041
3.2	0.693955
5.25714	0.722522
5.94286	0.751337
6.62857	0.751213
11.8857	0.80814
19.8857	0.864571
30.6286	0.949444
42.2857	1.04862
52.8	1.14801
62.4	1.21862
74.5143	1.28877
