Adsorption isotherm of Hydrogen on Cu(hfipbb)(H2hfipbb)0.5
DOI: 10.1016/j.ijhydene.2012.01.122
Adsorbate Hydrogen: InChIKey UFHFLCQGNIYNRP-UHFFFAOYSA-N
Temperature: 77 K
Tabular data in the source: 0
pressure (bar)	uptake (wt%)
0.685714	0.0288149
4.57143	0.057051
10.0571	0.0994672
15.7714	0.141842
21.2571	0.184258
29.2571	0.255158
40	0.325563
51.4286	0.439251
62.1714	0.495186
72.2286	0.551245
