Adsorption isotherm of Hydrogen on Co-FA
DOI: 10.1016/j.ijhydene.2012.01.122
Adsorbate Hydrogen: InChIKey UFHFLCQGNIYNRP-UHFFFAOYSA-N
Temperature: 77 K
Tabular data in the source: 0
pressure (bar)	uptake (wt%)
0.0134097	0.168478
0.0268995	0.266304
0.0426746	0.347826
0.0516986	0.38587
0.103711	0.494565
0.153513	0.554348
0.203345	0.586957
0.232794	0.603261
0.259983	0.61413
0.307561	0.63587
0.355139	0.657609
0.407262	0.668478
0.457113	0.684783
0.509237	0.695652
0.559094	0.706522
0.608956	0.711957
0.66108	0.722826
0.710949	0.722826
0.763079	0.728261
0.810669	0.73913
0.862799	0.744565
0.912662	0.75
0.967064	0.75
0.98972	0.76087
1.01466	0.755435
