Adsorption isotherm of Hydrogen on [Zn3(bpdc)3(bpy)]
DOI: 10.1016/j.ijhydene.2012.01.122
Adsorbate Hydrogen: InChIKey UFHFLCQGNIYNRP-UHFFFAOYSA-N
Temperature: 298 K
Tabular data in the source: 0
pressure (bar)	uptake (wt%)
4.07932	0.0330175
8.6119	0.064076
11.3314	0.0815423
14.9575	0.106779
19.9433	0.141722
24.2493	0.16889
28.7819	0.199948
40.3399	0.271745
51.6714	0.335755
62.0963	0.397839
72.2946	0.456032
