Adsorption isotherm of Hydrogen on [Co3(bpdc)3(bpy)]
DOI: 10.1016/j.ijhydene.2012.01.122
Adsorbate Hydrogen: InChIKey UFHFLCQGNIYNRP-UHFFFAOYSA-N
Temperature: 298 K
Tabular data in the source: 0
pressure (bar)	uptake (wt%)
6.79887	0.0504838
9.06516	0.066013
11.3314	0.0854384
14.7309	0.11068
20.6232	0.163134
29.6884	0.225251
40.5666	0.30096
51.4448	0.368877
61.1898	0.429029
70.9348	0.489182
