Adsorption isotherm of Hydrogen on Zn2(BDC)2(TED)
DOI: 10.1016/j.ijhydene.2012.01.122
Adsorbate Hydrogen: InChIKey UFHFLCQGNIYNRP-UHFFFAOYSA-N
Temperature: 298 K
Tabular data in the source: 0
pressure (bar)	uptake (wt%)
4.30595	0.0388562
6.79887	0.0543799
8.83853	0.0718627
11.3314	0.0951786
15.1841	0.126254
19.9433	0.165099
28.7819	0.233065
40.1133	0.316556
51.4448	0.39615
61.6431	0.466031
70.7082	0.524252
