Adsorption isotherm of Hydrogen on [Zn2(hfipbb)(Li2hfipbb)0.5]
DOI: 10.1016/j.ijhydene.2012.01.122
Adsorbate Hydrogen: InChIKey UFHFLCQGNIYNRP-UHFFFAOYSA-N
Temperature: 77 K
Tabular data in the source: 0
pressure (bar)	uptake (wt%)
0.029419	0.0433604
0.0611354	0.0596206
0.101931	0.0650407
0.147261	0.0704607
0.183517	0.0813008
0.233368	0.097561
0.283231	0.102981
0.330827	0.108401
0.38295	0.119241
0.432807	0.130081
0.482664	0.140921
0.532533	0.140921
0.559728	0.146341
0.605052	0.157182
0.654921	0.157182
0.709305	0.173442
0.759174	0.173442
0.836232	0.184282
0.888356	0.195122
0.935952	0.200542
0.960881	0.205962
0.990349	0.205962
1.00621	0.211382
