Adsorption isotherm of Hydrogen on Zn(tbip)
DOI: 10.1016/j.ijhydene.2012.01.122
Adsorbate Hydrogen: InChIKey UFHFLCQGNIYNRP-UHFFFAOYSA-N
Temperature: 298 K
Tabular data in the source: 0
pressure (bar)	uptake (wt%)
1.5864	0.00385747
4.53258	0.013526
6.57224	0.0212685
8.38527	0.0270685
10.1983	0.0328685
14.051	0.044463
18.3569	0.0560465
27.8754	0.0850355
40.5666	0.125636
52.1246	0.162367
61.8697	0.191351
71.1615	0.216449
