Adsorption isotherm of Hydrogen on IRMOF-1
DOI: 10.1016/j.ijhydene.2012.01.122
Adsorbate Hydrogen: InChIKey UFHFLCQGNIYNRP-UHFFFAOYSA-N
Temperature: 298 K
Tabular data in the source: 0
pressure (bar)	uptake (wt%)
0.679887	0.0097237
1.13314	0.0155568
2.71955	0.0233104
5.21246	0.0407822
7.25212	0.0543689
9.51841	0.0640539
12.0113	0.0795776
15.864	0.0989644
21.3031	0.131949
29.6884	0.17655
40.1133	0.228893
50.9915	0.285122
61.4164	0.333569
71.1615	0.38593
