Adsorption isotherm of Hydrogen on [Zn3(bpdc)3(bpy)]
DOI: 10.1016/j.ijhydene.2012.01.122
Adsorbate Hydrogen: InChIKey UFHFLCQGNIYNRP-UHFFFAOYSA-N
Temperature: 77 K
Tabular data in the source: 0
pressure (bar)	uptake (wt%)
0	0.173633
0.228571	0.49192
0.685714	0.969329
1.6	1.47559
3.42857	1.837
7.31429	2.05334
10.9714	2.15396
15.5429	2.19655
19.4286	2.22478
27.6571	2.25223
39.5429	2.27902
52.3429	2.29118
63.5429	2.26021
73.1429	2.21507
