Adsorption isotherm of Hydrogen on [Zn2(bpdc)2(ted)]
DOI: 10.1016/j.ijhydene.2012.01.122
Adsorbate Hydrogen: InChIKey UFHFLCQGNIYNRP-UHFFFAOYSA-N
Temperature: 77 K
Tabular data in the source: 0
pressure (bar)	uptake (wt%)
0	1.07074
0.457143	1.33111
0.914286	1.99662
1.37143	2.47403
2.05714	2.90799
3.2	3.22611
4.57143	3.48631
6.85714	3.65953
8.22857	3.7461
11.2	3.87579
15.3143	3.94739
20.1143	4.0044
24	4.03264
28.8	4.03177
32.6857	4.06
40	4.04421
45.0286	4.02883
52.3429	3.99857
58.0571	3.9686
62.8571	3.90985
68.1143	3.85102
72.6857	3.79232
