Adsorption isotherm of Hydrogen on Zn2(bpdc)2(bpee)
DOI: 10.1016/j.ijhydene.2012.01.122
Adsorbate Hydrogen: InChIKey UFHFLCQGNIYNRP-UHFFFAOYSA-N
Temperature: 77 K
Tabular data in the source: 0
pressure (bar)	uptake (wt%)
0.101864	0.124661
0.153938	0.178862
0.206031	0.216802
0.25133	0.249322
0.305696	0.281843
0.35554	0.303523
0.409912	0.330623
0.459757	0.352304
0.507341	0.368564
0.557198	0.379404
0.609309	0.401084
0.65916	0.417344
0.70901	0.433604
0.758867	0.444444
0.810985	0.460705
0.858568	0.476965
0.915226	0.487805
0.962828	0.487805
0.990017	0.498645
1.01041	0.509485
