Adsorption isotherm of Nitrogen on Cu2+@MSNs-(CO2-)2
DOI: 10.1002/slct.201701452
Article source: Figure 4
Adsorbate Nitrogen: InChIKey IJGRMHOSHXDMSA-UHFFFAOYSA-N
Kind: experiment
Temperature: 77 K
Tabular data in the source: 0
pressure (bar)	uptake (cm3(STP)/g)
0.000496	9.326
0.001489	14.639
0.001652	5.43
0.002645	21.486
0.005948	28.608
0.008096	33.055
0.008916	35.298
0.010244	38.485
0.021805	44.349
0.023456	50.134
0.028583	48.757
0.051543	58.044
0.052698	54.385
0.081778	60.8
0.103258	64.815
0.103755	68.553
0.112175	66.389
0.121598	68.042
0.154963	76.386
0.156453	72.608
0.166697	73.71
0.176606	75.403
0.186353	76.82
0.19759	78.512
0.199576	82.684
0.20602	79.575
0.208492	83.707
0.216092	80.52
0.219891	84.888
0.22436	81.465
0.231462	85.99
0.236741	82.528
0.238727	87.092
0.246164	87.801
0.250126	83.669
0.256732	85.126
0.257887	89.021
0.269955	86.661
0.270776	90.242
0.278871	87.448
0.279368	91.344
0.286805	88.275
0.290604	92.446
0.297869	89.338
0.299024	93.43
0.304151	94.06
0.305469	90.125
0.311254	94.454
0.352726	94.849
0.354205	98.469
0.401624	103.705
0.401958	100.163
0.454657	104.769
0.46027	116.496
0.507851	109.336
0.512482	119.764
0.528835	110.871
0.55758	113.391
0.607148	115.951
0.611109	121.972
0.655712	117.133
0.659025	122.918
0.706434	118.749
0.714206	124.494
0.732707	119.34
0.758646	120.01
0.759963	125.283
0.807382	120.917
0.812175	126.741
0.844051	128.198
0.858925	123.004
0.890477	129.695
0.908655	125.407
0.931118	131.468
0.939872	127.572
1.00299	136.979
