Adsorption isotherm of Nitrogen on Mesoporous silica nanoparticles
DOI: 10.1002/slct.201701452
Article source: Figure 4
Adsorbate Nitrogen: InChIKey IJGRMHOSHXDMSA-UHFFFAOYSA-N
Kind: experiment
Temperature: 77 K
Tabular data in the source: 0
pressure (bar)	uptake (cm3(STP)/g)
0.001033	28.44
0.001388	66.47
0.00155	48.75
0.001571	97.34
0.002411	86.29
0.014418	112.13
0.024895	125.61
0.031826	131.78
0.040438	140.72
0.051087	147.7
0.071858	156.47
0.090441	166.37
0.097706	170.59
0.102438	173.35
0.113917	180.99
0.123209	185.37
0.133179	190.08
0.143311	194.3
0.153788	200.31
0.172867	205.98
0.174904	209.07
0.187225	212.48
0.194327	216.54
0.202433	221.9
0.209526	227.26
0.215099	230.5
0.223721	235.86
0.241959	241.05
0.244999	248.69
0.262568	251.93
0.262913	260.22
0.27879	263.3
0.282337	277.27
0.285711	269.15
0.295346	278.24
0.300413	283.77
0.304131	289.29
0.305317	299.53
0.308194	303.91
0.311913	310.41
0.314952	315.94
0.318337	320.97
0.322734	328.12
0.326453	333.97
0.330505	339.98
0.334903	345.99
0.339797	353.47
0.347741	361.26
0.354164	368.57
0.360588	376.05
0.368188	384.65
0.373426	388.23
0.387449	394.23
0.398595	400.89
0.403164	412.1
0.409578	407.71
0.413803	418.27
0.434909	422.33
0.463117	420.52
0.463796	431.41
0.505673	424.73
0.505683	451.06
0.51699	427.97
0.518014	453.16
0.592983	433.95
0.598404	458.81
0.615112	437.03
0.615963	463.68
0.697183	441.7
0.698207	466.73
0.717296	469.97
0.720832	447.05
0.795639	455.14
0.809338	477.89
0.818102	455.78
0.895959	467.93
0.899343	483.05
0.92366	474.42
0.94663	488.71
0.957604	482.53
0.977706	487.56
0.977706	495.85
1.00136	495.51
