Adsorption isotherm of Carbon Dioxide on MOF-205
DOI: 10.1039/C4dt02300e
Adsorbate Carbon Dioxide: InChIKey CURLTUGMZLYLDI-UHFFFAOYSA-N
Temperature: 298 K
Tabular data in the source: 0
pressure (bar)	uptake (cm3(STP)/cm3)
1.34628	10.8994
2.68766	19.638
4.3032	32.7173
5.64948	43.6167
7.00065	56.677
8.90503	80.5796
11.0787	106.662
12.7138	128.385
15.1713	163.13
17.0953	195.676
18.9948	217.417
20.8992	241.32
23.063	263.081
25.4961	287.021
27.3711	297.959
29.7797	311.095
32.7072	319.948
34.8319	324.422
37.4853	328.934
40.1289	329.125
44.3587	329.429
48.5689	321.09
52.7742	310.591
56.6857	287.107
