Adsorption isotherm of Nitrogen on MOF-205
DOI: 10.1039/C4dt02300e
Adsorbate Nitrogen: InChIKey IJGRMHOSHXDMSA-UHFFFAOYSA-N
Temperature: 298 K
Tabular data in the source: 0
pressure (bar)	uptake (cm3(STP)/g)
0.0739434	0.13986
0.117483	0.41958
0.174065	0.699301
0.230617	0.839161
0.295895	1.11888
0.34813	1.3986
0.395987	1.53846
0.448191	1.67832
0.496047	1.81818
0.548282	2.0979
0.596139	2.23776
0.644026	2.51748
0.691882	2.65734
0.744117	2.93706
0.787595	2.93706
0.848525	3.21678
0.892034	3.35664
0.939891	3.4965
0.992095	3.63636
