Adsorption isotherm of Nitrogen on MOF-205-NO2
DOI: 10.1039/C4dt02300e
Adsorbate Nitrogen: InChIKey IJGRMHOSHXDMSA-UHFFFAOYSA-N
Temperature: 77 K
Tabular data in the source: 0
pressure (bar)	uptake (cm3(STP)/g)
0.00286875	32.1681
0.00320807	91.17
0.00363993	166.263
0.00410262	246.721
0.00453448	321.814
0.00496633	396.907
0.00536735	466.637
0.00845202	536.352
0.0167807	584.582
0.0198345	648.933
0.0308776	702.512
0.0474115	777.516
0.0584238	825.731
0.0749886	906.099
0.0862477	997.225
0.0974454	1077.62
0.105928	1152.67
0.127613	1190.1
0.143807	1206.1
0.15994	1211.38
0.176073	1216.65
0.19489	1221.91
0.229839	1232.45
0.264728	1232.25
0.305044	1242.76
0.361463	1253.18
0.417851	1258.23
0.476922	1263.27
0.541361	1268.28
0.600433	1273.31
0.683627	1272.85
0.75075	1277.85
0.847362	1277.31
0.93327	1282.2
0.995021	1287.23
