Adsorption isotherm of Nitrogen on MOF-205-NH2
DOI: 10.1039/C4dt02300e
Adsorbate Nitrogen: InChIKey IJGRMHOSHXDMSA-UHFFFAOYSA-N
Temperature: 77 K
Tabular data in the source: 0
pressure (bar)	uptake (cm3(STP)/g)
0.00286875	32.1681
0.00320807	91.17
0.00363993	166.263
0.00410262	246.721
0.00453448	321.814
0.00496633	396.907
0.00536735	466.637
0.00845202	536.352
0.0168424	595.309
0.0172125	659.675
0.0231043	750.83
0.0369545	825.85
0.0479977	879.428
0.0673077	970.51
0.0838416	1045.51
0.0895174	1099.12
0.0899184	1168.85
0.0956251	1227.82
0.106576	1265.31
0.120118	1286.69
0.138965	1297.32
0.168516	1302.52
0.192731	1313.11
0.243813	1328.92
0.273395	1339.49
0.31365	1339.26
0.359303	1344.38
0.41307	1360.17
0.472141	1365.21
0.525815	1364.91
0.579457	1359.25
0.63856	1369.65
0.68958	1374.74
0.772774	1374.28
0.83456	1384.66
0.923091	1378.81
0.990183	1378.44
