Adsorption isotherm of Carbon Dioxide on MOF-205-NO2
DOI: 10.1039/C4dt02300e
Adsorbate Carbon Dioxide: InChIKey CURLTUGMZLYLDI-UHFFFAOYSA-N
Temperature: 273 K
Tabular data in the source: 0
pressure (bar)	uptake (cm3(STP)/g)
2.29802	2.45614
4.37481	4.38596
6.8898	6.84211
9.40191	8.94737
12.0254	11.4035
14.3177	13.1579
17.2666	15.614
19.4533	17.7193
22.4022	20.1754
24.6945	21.9298
27.6448	24.5614
29.9385	26.4912
32.8874	28.9474
