Adsorption isotherm of Nitrogen on MOF-205-OBn
DOI: 10.1039/C4dt02300e
Adsorbate Nitrogen: InChIKey IJGRMHOSHXDMSA-UHFFFAOYSA-N
Temperature: 77 K
Tabular data in the source: 0
pressure (bar)	uptake (cm3(STP)/g)
0.00286875	32.1681
0.00320807	91.17
0.00363993	166.263
0.00410262	246.721
0.00453448	321.814
0.00496633	396.907
0.00536735	466.637
0.00845202	536.352
0.0168424	595.309
0.0280397	675.707
0.0391446	740.014
0.0582696	798.912
0.0746801	852.461
0.0778265	932.904
0.0915841	991.832
0.113177	1013.17
0.137422	1029.13
0.156239	1034.39
0.193934	1055.63
0.215403	1055.52
0.261026	1055.26
0.314699	1054.97
0.352332	1065.49
0.4007	1075.95
0.451721	1081.03
0.50271	1080.75
0.5537	1080.47
0.607404	1085.54
0.661078	1085.24
0.709415	1090.34
0.760435	1095.42
0.806058	1095.17
0.857017	1089.52
0.905385	1099.98
0.956343	1094.34
0.983178	1094.19
