Adsorption isotherm of Carbon Dioxide on MOF-205-NH2
DOI: 10.1039/C4dt02300e
Adsorbate Carbon Dioxide: InChIKey CURLTUGMZLYLDI-UHFFFAOYSA-N
Temperature: 298 K
Tabular data in the source: 0
pressure (bar)	uptake (cm3(STP)/g)
4.00882	1.31313
8.01564	2.52525
12.2176	3.53535
16.0252	4.74747
22.4377	6.76768
28.645	8.48485
32.849	9.59596
38.6561	11.2121
44.8654	13.0303
48.8702	14.1414
54.6773	15.7576
60.8886	17.6768
