Adsorption isotherm of Methane on MOF-205
DOI: 10.1039/C4dt02300e
Adsorbate Methane: InChIKey VNWKTOKETHGBQD-UHFFFAOYSA-N
Temperature: 298 K
Tabular data in the source: 0
pressure (bar)	uptake (cm3(STP)/cm3)
1.58013	5.86825
2.76523	10.2694
5.14116	21.9916
6.32626	26.3928
7.90067	29.3413
10.6688	41.0706
16.9893	64.5436
20.5389	74.8274
23.6991	86.5639
26.4644	96.8333
31.1991	111.518
35.9309	124.743
40.2648	135.041
46.5681	149.755
52.8715	164.468
59.1691	176.262
65.8561	186.603
72.1509	196.937
78.8378	207.278
85.519	214.699
