Adsorption isotherm of Nitrogen on MOF-205
DOI: 10.1039/C4dt02300e
Adsorbate Nitrogen: InChIKey IJGRMHOSHXDMSA-UHFFFAOYSA-N
Temperature: 77 K
Tabular data in the source: 0
pressure (bar)	uptake (cm3(STP)/g)
0.00286875	32.1681
0.00320807	91.17
0.00363993	166.263
0.00410262	246.721
0.00453448	321.814
0.00496633	396.907
0.00536735	466.637
0.00845202	536.352
0.0168424	595.309
0.0170891	638.22
0.0227649	691.828
0.0231351	756.194
0.0343324	836.592
0.0481518	906.248
0.0619095	965.175
0.0812505	1061.62
0.0815898	1120.62
0.0845202	1163.52
0.0956251	1227.82
0.117433	1286.71
0.149823	1318.71
0.184741	1323.88
0.214354	1339.81
0.273488	1355.58
0.313774	1360.72
0.364825	1371.17
0.410479	1376.28
0.472234	1381.3
0.536765	1402.4
0.593092	1396.73
0.641397	1396.46
0.724622	1401.36
0.794397	1400.98
0.869572	1405.93
0.931326	1410.95
0.984966	1405.29
