Adsorption isotherm of Methane on MOF-205
DOI: 10.1039/C4dt02300e
Adsorbate Methane: InChIKey VNWKTOKETHGBQD-UHFFFAOYSA-N
Temperature: 298 K
Tabular data in the source: 0
pressure (bar)	uptake (cm3(STP)/g)
1.22222	15
2.84848	30
4.47475	45
5.69949	63.75
7.73232	82.5
10.9823	108.75
13.0202	135
17.0833	168.75
20.3359	198.75
23.1818	225
26.4318	251.25
31.7096	288.75
35.7727	322.5
40.2374	352.5
46.3232	390
53.2146	423.75
59.3005	461.25
65.7828	487.5
72.2652	513.75
78.7475	540
85.2247	558.75
