Adsorption isotherm of Carbon Dioxide on MOF-205
DOI: 10.1039/C4dt02300e
Adsorbate Carbon Dioxide: InChIKey CURLTUGMZLYLDI-UHFFFAOYSA-N
Temperature: 298 K
Tabular data in the source: 0
pressure (bar)	uptake (cm3(STP)/g)
9.40758	2.42424
13.6115	3.53535
18.4148	4.74747
23.4213	6.16162
29.6246	7.67677
35.832	9.39394
42.0353	10.9091
48.6389	12.5253
55.0413	14.0404
61.4478	15.7576
