Adsorption isotherm of Carbon Dioxide on MOF-205-OBn
DOI: 10.1039/C4dt02300e
Adsorbate Carbon Dioxide: InChIKey CURLTUGMZLYLDI-UHFFFAOYSA-N
Temperature: 298 K
Tabular data in the source: 0
pressure (bar)	uptake (cm3(STP)/g)
0.535714	6.49351
3.75	77.9221
8.30357	188.312
12.8571	311.688
16.3393	389.61
19.8214	467.532
23.5714	525.974
27.3214	577.922
31.875	616.883
36.1607	636.364
40.7143	649.351
43.3929	655.844
46.875	662.338
49.8214	675.325
