Adsorption isotherm of Methane on MOF-205
DOI: 10.1039/C4dt02300e
Adsorbate Methane: InChIKey VNWKTOKETHGBQD-UHFFFAOYSA-N
Temperature: 298 K
Tabular data in the source: 0
pressure (bar)	uptake (cm3(STP)/g)
0.0828882	0.64276
0.157081	1.28666
0.235622	1.92998
0.322857	2.57218
0.423193	3.34337
0.523471	3.98386
0.619459	4.75563
0.724085	5.39554
0.820073	6.16731
0.920408	6.93851
1.02074	7.70971
