Adsorption isotherm of Carbon Dioxide on MOF-205-NH2
DOI: 10.1039/C4dt02300e
Adsorbate Carbon Dioxide: InChIKey CURLTUGMZLYLDI-UHFFFAOYSA-N
Temperature: 253 K
Tabular data in the source: 0
pressure (bar)	uptake (cm3(STP)/g)
0.0613435	0.307978
1.65306	4.63115
3.18424	9.56741
4.71514	14.1966
6.24606	18.8259
8.08314	24.381
9.91997	29.629
11.8792	35.186
13.8384	40.743
15.8588	46.301
17.6961	52.1631
19.3492	56.7942
