Adsorption isotherm of Carbon Dioxide on MOF-205-OBn
DOI: 10.1039/C4dt02300e
Adsorbate Carbon Dioxide: InChIKey CURLTUGMZLYLDI-UHFFFAOYSA-N
Temperature: 298 K
Tabular data in the source: 0
pressure (bar)	uptake (cm3(STP)/cm3)
0.26436	0.0190383
3.51501	34.821
8.39099	87.024
13.0075	141.369
16.5323	180.512
19.7781	213.153
23.812	243.69
27.8313	267.745
32.0953	283.176
36.6139	294.303
40.8535	298.93
44.0356	303.48
47.7513	310.229
50.9285	312.618
