Adsorption isotherm of Methane on MOF-205-OBn
DOI: 10.1039/C4dt02300e
Adsorbate Methane: InChIKey VNWKTOKETHGBQD-UHFFFAOYSA-N
Temperature: 298 K
Tabular data in the source: 0
pressure (bar)	uptake (cm3(STP)/g)
7.10543e-15	0
4.06818	41.25
8.53788	78.75
13.4116	116.25
17.8763	146.25
22.7475	180
27.2071	202.5
32.0758	232.5
36.9394	255
41.8005	273.75
47.0657	292.5
51.9268	311.25
56.7854	326.25
61.6439	341.25
66.9066	356.25
71.7626	367.5
75.0051	382.5
78.2374	382.5
81.4747	390
