Adsorption isotherm of Carbon Dioxide on MOF-205
DOI: 10.1039/C4dt02300e
Adsorbate Carbon Dioxide: InChIKey CURLTUGMZLYLDI-UHFFFAOYSA-N
Temperature: 273 K
Tabular data in the source: 0
pressure (bar)	uptake (cm3(STP)/g)
1.86126	2.10526
4.15213	3.68421
6.22751	5.4386
8.52124	7.36842
10.4867	8.94737
13.6526	11.4035
15.8378	13.3333
18.8966	15.9649
21.079	17.5439
24.2434	19.8246
26.3188	21.5789
29.1592	24.0351
31.5614	25.9649
34.5103	28.4211
