Adsorption isotherm of Carbon Dioxide on MOF-205-NH2
DOI: 10.1039/C4dt02300e
Adsorbate Carbon Dioxide: InChIKey CURLTUGMZLYLDI-UHFFFAOYSA-N
Temperature: 273 K
Tabular data in the source: 0
pressure (bar)	uptake (cm3(STP)/g)
0.219811	0.350877
1.7542	2.2807
3.61119	3.85965
5.46959	5.61404
7.54779	7.7193
9.40476	9.29825
11.8098	11.5789
13.7781	13.5088
15.6365	15.2632
17.4921	16.6667
19.135	18.5965
21.9768	21.2281
24.1621	23.1579
26.1304	25.0877
27.9874	26.6667
29.6288	28.4211
31.3787	30.1754
33.1258	31.5789
34.9827	33.1579
