Adsorption isotherm of Carbon Dioxide on MOF-205
DOI: 10.1039/C4dt02300e
Adsorbate Carbon Dioxide: InChIKey CURLTUGMZLYLDI-UHFFFAOYSA-N
Temperature: 298 K
Tabular data in the source: 0
pressure (bar)	uptake (cm3(STP)/g)
0.0698085	1.11888
0.143995	2.37762
0.213804	3.4965
0.28799	4.75524
0.362177	6.01399
0.462511	7.55245
0.558528	9.23077
0.658893	10.9091
0.763576	12.4476
0.859562	13.986
0.959897	15.5245
