Adsorption isotherm of Carbon Dioxide on MOF-205-NO2
DOI: 10.1039/C4dt02300e
Adsorbate Carbon Dioxide: InChIKey CURLTUGMZLYLDI-UHFFFAOYSA-N
Temperature: 298 K
Tabular data in the source: 0
pressure (bar)	uptake (cm3(STP)/g)
10.017	3.0303
19.6297	5.75758
31.0427	8.88889
41.0537	11.6162
50.6664	14.3434
60.2771	16.9697
