Adsorption isotherm of Methane on MOF-205-OBn
DOI: 10.1039/C4dt02300e
Adsorbate Methane: InChIKey VNWKTOKETHGBQD-UHFFFAOYSA-N
Temperature: 298 K
Tabular data in the source: 0
pressure (bar)	uptake (cm3(STP)/cm3)
0	0
3.95606	17.5904
8.69646	35.1952
13.0418	51.3329
18.1687	66.025
22.9034	80.7099
27.6352	93.9349
32.3641	105.7
37.0931	117.465
42.2085	126.318
46.9317	135.163
51.6521	142.548
56.7675	151.401
61.8771	157.334
66.9897	164.726
72.0965	169.199
75.2481	176.556
78.7777	176.62
81.9208	179.597
