Adsorption isotherm of Carbon Dioxide on MOF-205-OBn
DOI: 10.1039/C4dt02300e
Adsorbate Carbon Dioxide: InChIKey CURLTUGMZLYLDI-UHFFFAOYSA-N
Temperature: 298 K
Tabular data in the source: 0
pressure (bar)	uptake (cm3(STP)/g)
0.0130739	0.13986
0.0698693	1.3986
0.109182	2.23776
0.165978	3.4965
0.222682	4.33566
0.266403	5.45455
0.340681	7.13287
0.397446	8.25175
0.441137	9.23077
0.493524	10.2098
0.545971	11.4685
0.59398	12.3077
0.642019	13.2867
0.690088	14.4056
0.742475	15.3846
0.786196	16.5035
0.842901	17.3427
0.89097	18.4615
0.934691	19.5804
0.991456	20.6993
