Adsorption isotherm of Carbon Dioxide on MOF-205-NO2
DOI: 10.1039/C4dt02300e
Adsorbate Carbon Dioxide: InChIKey CURLTUGMZLYLDI-UHFFFAOYSA-N
Temperature: 253 K
Tabular data in the source: 0
pressure (bar)	uptake (cm3(STP)/g)
0.122419	0.308935
1.10204	3.08743
1.96005	6.47806
3.06181	9.25847
4.04143	12.037
5.0824	15.1235
6.36819	18.8278
7.59266	22.2242
8.63336	25.0036
9.73514	27.784
10.7147	30.5625
11.6333	33.3401
12.6743	36.4266
13.5315	38.8961
14.5722	41.6756
15.5512	43.84
16.5919	46.6195
17.5105	49.397
18.4901	52.1755
19.4697	54.954
