Adsorption isotherm of Carbon Dioxide on MOF-205-OBn
DOI: 10.1039/C4dt02300e
Adsorbate Carbon Dioxide: InChIKey CURLTUGMZLYLDI-UHFFFAOYSA-N
Temperature: 298 K
Tabular data in the source: 0
pressure (bar)	uptake (cm3(STP)/g)
0.597419	0.000945895
4.20822	1.32646
6.81523	2.24429
10.8223	3.46891
13.6285	4.38706
16.6378	5.50858
21.6506	7.2424
25.2554	8.26334
28.4638	9.38517
31.4712	10.4052
34.8748	11.3243
37.8861	12.5473
41.0905	13.4661
44.0999	14.5876
47.5055	15.6082
50.7139	16.73
53.9184	17.6488
56.9257	18.6688
60.1341	19.7906
63.3426	20.9125
