Adsorption isotherm of Carbon Dioxide on MOF-205
DOI: 10.1039/C4dt02300e
Adsorbate Carbon Dioxide: InChIKey CURLTUGMZLYLDI-UHFFFAOYSA-N
Temperature: 298 K
Tabular data in the source: 0
pressure (bar)	uptake (cm3(STP)/g)
1.875	25.974
2.94643	58.4416
4.55357	90.9091
5.625	116.883
6.96429	149.351
9.10714	207.792
10.9821	279.221
12.5893	331.169
15	422.078
16.875	506.494
18.75	564.935
20.3571	629.87
22.7679	688.312
24.9107	740.26
26.7857	772.727
29.4643	805.195
31.875	831.169
34.2857	844.156
36.9643	850.649
39.375	857.143
43.3929	857.143
47.9464	837.662
51.9643	792.208
55.7143	740.26
