Adsorption isotherm of Nitrogen on MOF-205-OBn
DOI: 10.1039/C4dt02300e
Adsorbate Nitrogen: InChIKey IJGRMHOSHXDMSA-UHFFFAOYSA-N
Temperature: 298 K
Tabular data in the source: 0
pressure (bar)	uptake (cm3(STP)/g)
0.0695956	0.13986
0.126178	0.41958
0.178382	0.559441
0.226269	0.839161
0.295865	0.979021
0.3481	1.25874
0.395987	1.53846
0.448221	1.81818
0.49173	1.95804
0.543965	2.23776
0.591821	2.37762
0.644056	2.65734
0.691912	2.7972
0.739769	2.93706
0.792004	3.21678
0.83986	3.35664
0.892095	3.63636
0.935634	3.91608
0.987838	4.05594
