Adsorption isotherm of Carbon Dioxide on MOF-205
DOI: 10.1039/C4dt02300e
Adsorbate Carbon Dioxide: InChIKey CURLTUGMZLYLDI-UHFFFAOYSA-N
Temperature: 253 K
Tabular data in the source: 0
pressure (bar)	uptake (cm3(STP)/g)
0.979621	2.7785
1.77548	4.94008
2.75484	7.41156
3.55096	9.88017
4.53058	12.6587
5.63209	15.1321
6.6725	17.6045
7.59133	20.6891
8.63147	22.8545
9.67244	25.9409
10.6515	28.1054
11.5701	30.8829
12.4886	33.6605
13.468	36.132
14.4471	38.2964
15.3653	40.7669
16.4063	43.8534
17.3859	46.6319
18.3045	49.4095
19.3446	51.5749
