Adsorption isotherm of Carbon Dioxide on MOF-205-OBn
DOI: 10.1039/C4dt02300e
Adsorbate Carbon Dioxide: InChIKey CURLTUGMZLYLDI-UHFFFAOYSA-N
Temperature: 273 K
Tabular data in the source: 0
pressure (bar)	uptake (cm3(STP)/g)
0.222666	0.701754
1.42734	2.10526
2.52354	3.50877
4.05365	4.91228
6.0234	7.01754
7.66484	8.77193
9.41618	10.7018
11.169	12.807
12.809	14.386
14.7787	16.4912
16.6371	18.2456
18.28	20.1754
20.0313	22.1053
21.7813	23.8596
23.5326	25.7895
25.2826	27.5439
27.0339	29.4737
28.7824	31.0526
30.5352	33.1579
32.1752	34.7368
34.035	36.6667
