Adsorption isotherm of Carbon Dioxide on MOF-205-OBn
DOI: 10.1039/C4dt02300e
Adsorbate Carbon Dioxide: InChIKey CURLTUGMZLYLDI-UHFFFAOYSA-N
Temperature: 253 K
Tabular data in the source: 0
pressure (bar)	uptake (cm3(STP)/g)
0.673975	2.46669
1.2258	4.93148
1.77709	6.78222
2.38918	8.32689
3.18585	11.4095
4.16573	14.4951
5.08454	17.5796
6.06471	20.9722
7.04486	24.3647
8.08636	28.0652
9.06625	31.1508
10.0464	34.5433
11.0266	37.9358
11.9454	41.0204
12.9253	44.1059
13.9054	47.4985
14.8856	50.891
15.8657	54.2835
16.7845	57.3681
17.826	61.0686
18.8062	64.4612
19.6023	66.9298
