Adsorption isotherm of Methane on tbo-MOF-2
DOI: 10.1039/C4ra12432d
Adsorbate Methane: InChIKey VNWKTOKETHGBQD-UHFFFAOYSA-N
Temperature: 298 K
Tabular data in the source: 0
pressure (bar)	uptake (mmol/g)
0.0713253	0.26246
0.28171	0.613664
0.525602	0.834391
0.689873	1.18509
0.992844	1.58092
1.35418	2.06461
1.87547	2.37559
3.89398	3.92408
