Adsorption isotherm of Methane on tbo-MOF-2
DOI: 10.1039/C4ra12432d
Adsorbate Methane: InChIKey VNWKTOKETHGBQD-UHFFFAOYSA-N
Temperature: 298 K
Tabular data in the source: 0
pressure (bar)	uptake (cm3(STP)/cm3)
0.00308985	0.896057
1.31782	7.16846
1.91107	12.5448
2.21388	17.0251
4.2779	32.2581
6.34192	47.491
12.2219	86.0215
16.0132	102.151
20.0856	116.487
25.757	136.201
30.5417	148.746
40.9792	175.627
50.8111	193.548
