Adsorption isotherm of Methane on tbo-MOF-2
DOI: 10.1039/C4ra12432d
Adsorbate Methane: InChIKey VNWKTOKETHGBQD-UHFFFAOYSA-N
Temperature: 298 K
Tabular data in the source: 0
pressure (bar)	uptake (cm3(STP)/cm3)
4.20273	29.3594
6.65036	40.9253
8.38523	51.6014
16.1593	88.0783
24.8873	110.32
40.3065	137.9
49.2781	145.907
