Adsorption isotherm of Ethene on tbo-MOF-2
DOI: 10.1039/C4ra12432d
Adsorbate Ethene: InChIKey VGGSQFUCUMXWEO-UHFFFAOYSA-N
Temperature: 298 K
Tabular data in the source: 0
pressure (bar)	uptake (mmol/g)
0.136805	1.22949
0.34131	2.6362
0.545043	3.56163
0.748565	4.35581
1.01986	5.37096
1.44811	6.17252
1.94413	7.19504
2.39514	8.17234
2.92431	8.84595
3.39709	9.38647
3.85863	9.92661
