Adsorption isotherm of Carbon Dioxide on tbo-MOF-2
DOI: 10.1039/C4ra12432d
Adsorbate Carbon Dioxide: InChIKey CURLTUGMZLYLDI-UHFFFAOYSA-N
Temperature: 298 K
Tabular data in the source: 0
pressure (bar)	uptake (mmol/g)
0.157363	0.31239
0.348833	0.933112
0.551578	1.59809
0.754042	2.08752
1.04664	2.88712
1.41774	3.73319
1.92344	4.67146
3.85591	7.98272
