Adsorption isotherm of Methane on UTSA-20
DOI: 10.1039/C4ra12432d
Adsorbate Methane: InChIKey VNWKTOKETHGBQD-UHFFFAOYSA-N
Temperature: 298 K
Tabular data in the source: 0
pressure (bar)	uptake (cm3(STP)/g)
35.3521	202.397
50	231.164
