Adsorption isotherm of Methane on Ni-MOF-74
DOI: 10.1039/C4ra12432d
Adsorbate Methane: InChIKey VNWKTOKETHGBQD-UHFFFAOYSA-N
Temperature: 298 K
Tabular data in the source: 0
pressure (bar)	uptake (cm3(STP)/cm3)
35.5911	226.186
50.703	241.065
