Adsorption isotherm of Methane on tbo-MOF-2
DOI: 10.1039/C4ra12432d
Adsorbate Methane: InChIKey VNWKTOKETHGBQD-UHFFFAOYSA-N
Temperature: 298 K
Tabular data in the source: 0
pressure (bar)	uptake (cm3(STP)/g)
2.06726	14.6768
5.94985	59.7802
7.76103	78.9528
11.5073	103.796
15.254	129.765
18.7383	143.348
23.2557	162.581
27.7723	179.564
36.5419	197.768
45.1801	209.216
