Adsorption isotherm of Methane on tbo-MOF-3
DOI: 10.1039/C4ra12432d
Adsorbate Methane: InChIKey VNWKTOKETHGBQD-UHFFFAOYSA-N
Temperature: 298 K
Tabular data in the source: 0
pressure (bar)	uptake (cm3(STP)/g)
1.26761	4.05576
1.69014	12.2104
1.83099	15.2688
2.25352	18.3214
2.8169	23.4119
4.92958	42.7565
7.04225	55.9787
8.73239	65.1279
12.6761	77.2923
16.4789	89.4596
20.9859	102.633
25.6338	115.803
30	123.878
39.7183	130.822
50	141.837
