Adsorption isotherm of Methane on tbo-MOF-3
DOI: 10.1039/C4ra12432d
Adsorbate Methane: InChIKey VNWKTOKETHGBQD-UHFFFAOYSA-N
Temperature: 298 K
Tabular data in the source: 0
pressure (bar)	uptake (cm3(STP)/cm3)
0.172312	7.11744
0.912177	12.4555
1.51194	18.6833
1.95372	21.3523
2.11529	25.8007
4.33131	40.9253
6.40007	55.1601
8.60535	67.6157
12.251	80.9609
16.4606	91.637
20.8067	100.534
25.5947	112.1
30.3647	119.217
40.1777	129.893
50.2853	142.349
