Adsorption isotherm of Carbon Dioxide on tbo-MOF-3
DOI: 10.1039/C4ra12432d
Adsorbate Carbon Dioxide: InChIKey CURLTUGMZLYLDI-UHFFFAOYSA-N
Temperature: 298 K
Tabular data in the source: 0
pressure (bar)	uptake (mmol/g)
0.312707	1.20833
0.394078	1.45833
0.581992	1.90625
0.807551	2.38542
1.00183	2.75
1.47836	3.42708
1.98651	3.88542
3.00323	4.41667
3.97566	5.26042
