Adsorption isotherm of N-propane on tbo-MOF-3
DOI: 10.1039/C4ra12432d
Adsorbate N-propane: InChIKey ATUOYWHBWRKTHZ-UHFFFAOYSA-N
Temperature: 298 K
Tabular data in the source: 0
pressure (bar)	uptake (mmol/g)
0.32981	3.13324
0.430487	3.32995
0.656838	3.60905
0.83906	3.72229
1.04643	3.86654
1.53012	4.03012
2.01378	4.16256
2.51619	4.22223
3.0187	4.36495
3.52111	4.42463
4.01728	4.51548
