Adsorption isotherm of Ethane on tbo-MOF-3
DOI: 10.1039/C4ra12432d
Adsorbate Ethane: InChIKey OTMSDBZUPAUEDD-UHFFFAOYSA-N
Temperature: 298 K
Tabular data in the source: 0
pressure (bar)	uptake (mmol/g)
0.18239	1.46087
0.396226	2.20174
0.528302	2.53565
0.805031	2.99478
1.01887	3.28696
1.50314	3.61043
3.01258	4.15304
4.00629	4.38261
