Adsorption isotherm of Methane on tbo-MOF-3
DOI: 10.1039/C4ra12432d
Adsorbate Methane: InChIKey VNWKTOKETHGBQD-UHFFFAOYSA-N
Temperature: 298 K
Tabular data in the source: 0
pressure (bar)	uptake (mmol/g)
0.194812	0.217735
0.433337	0.35191
0.621554	0.413429
0.803631	0.537481
1.02328	0.640504
1.51276	0.856704
1.9961	1.13544
3.98491	1.78133
