Adsorption isotherm of Methane on CuBTC
DOI: 10.1039/C4ra12432d
Adsorbate Methane: InChIKey VNWKTOKETHGBQD-UHFFFAOYSA-N
Temperature: 298 K
Tabular data in the source: 0
pressure (bar)	uptake (cm3(STP)/g)
27.6836	-52.8558
35.3107	255.52
49.8588	284.586
