Adsorption isotherm of N-propane on tbo-MOF-2
DOI: 10.1039/C4ra12432d
Adsorbate N-propane: InChIKey ATUOYWHBWRKTHZ-UHFFFAOYSA-N
Temperature: 298 K
Tabular data in the source: 0
pressure (bar)	uptake (mmol/g)
0.151627	2.93291
0.340119	7.70372
0.737866	9.10807
1.04359	9.50516
1.46217	9.81599
1.92588	10.0836
2.42342	10.3078
2.88684	10.4003
3.41786	10.3624
3.87012	10.5423
