Adsorption isotherm of Methane on PCN-14
DOI: 10.1039/C4ra12432d
Adsorbate Methane: InChIKey VNWKTOKETHGBQD-UHFFFAOYSA-N
Temperature: 298 K
Tabular data in the source: 0
pressure (bar)	uptake (cm3(STP)/g)
35.2113	228.571
50.2817	259.184
68.169	232.653
