Adsorption isotherm of Propene on tbo-MOF-3
DOI: 10.1039/C4ra12432d
Adsorbate Propene: InChIKey QQONPFPTGQHPMA-UHFFFAOYSA-N
Temperature: 298 K
Tabular data in the source: 0
pressure (bar)	uptake (mmol/g)
0.317699	3.56104
0.437205	3.74984
0.619518	3.94927
0.826937	4.13829
1.02796	4.21212
1.54939	4.44385
2.0519	4.59176
2.54188	4.77105
3.01296	4.88747
3.53421	4.94119
4.01782	5.02622
