Adsorption isotherm of Methane on tbo-MOF-3
DOI: 10.1039/C4ra12432d
Adsorbate Methane: InChIKey VNWKTOKETHGBQD-UHFFFAOYSA-N
Temperature: 298 K
Tabular data in the source: 0
pressure (bar)	uptake (cm3(STP)/g)
1.55076	3.11406
2.25837	10.3204
3.53033	19.5931
4.80566	36.0577
6.92463	49.4574
8.75997	58.7416
12.7085	69.0967
16.7974	78.4273
20.7449	86.7276
24.9742	95.0337
30.6105	100.287
39.765	99.4472
50.1886	101.716
