Adsorption isotherm of Methane on tbo-MOF-2
DOI: 10.1039/C4ra12432d
Adsorbate Methane: InChIKey VNWKTOKETHGBQD-UHFFFAOYSA-N
Temperature: 298 K
Tabular data in the source: 0
pressure (bar)	uptake (cm3(STP)/g)
6.87919	64.4261
9.16549	78.7585
13.1728	110.473
16.7472	135.036
20.3197	157.558
25.1715	181.126
30.8718	200.63
40.42	233.478
50.2445	258.168
