Adsorption isotherm of Propene on tbo-MOF-2
DOI: 10.1039/C4ra12432d
Adsorbate Propene: InChIKey QQONPFPTGQHPMA-UHFFFAOYSA-N
Temperature: 298 K
Tabular data in the source: 0
pressure (bar)	uptake (mmol/g)
0.179775	3.67697
0.337079	7.30994
0.539326	8.53715
0.741573	9.28311
1.04494	9.89893
1.47191	10.4286
1.89888	10.827
2.40449	11.0075
2.91011	11.2318
3.35955	11.2367
3.85393	11.3734
