Adsorption isotherm of Ethane on tbo-MOF-2
DOI: 10.1039/C4ra12432d
Adsorbate Ethane: InChIKey OTMSDBZUPAUEDD-UHFFFAOYSA-N
Temperature: 298 K
Tabular data in the source: 0
pressure (bar)	uptake (mmol/g)
0.135211	0.745229
0.360563	1.79769
0.552113	2.63104
0.75493	3.72701
0.980282	4.86697
1.44225	6.53452
1.91549	7.80845
2.42254	8.7765
2.87324	9.39393
3.36901	9.83685
3.87606	10.1924
