Adsorption isotherm of Ethene on tbo-MOF-3
DOI: 10.1039/C4ra12432d
Adsorbate Ethene: InChIKey VGGSQFUCUMXWEO-UHFFFAOYSA-N
Temperature: 298 K
Tabular data in the source: 0
pressure (bar)	uptake (mmol/g)
0.267319	1.77461
0.448547	2.06726
0.517252	2.21352
0.798506	2.63165
1.01728	2.93483
1.52379	3.44745
1.99911	3.85565
3.01269	4.33829
3.97014	4.62253
