Adsorption isotherm of Carbon Dioxide on CuBTC
DOI: 10.1016/j.micromeso.2013.06.007
Adsorbate Carbon Dioxide: InChIKey CURLTUGMZLYLDI-UHFFFAOYSA-N
Temperature: 110 K
Tabular data in the source: 0
pressure (bar)	uptake (mmol/g)
1.59699	1.35495
1.75663	1.51668
2.05631	1.65848
2.27604	1.77996
2.39577	1.90126
2.6755	2.02285
2.93514	2.18476
3.15488	2.30624
3.4146	2.42779
3.59447	2.48866
3.89411	2.65064
4.11388	2.75194
4.35357	2.89364
4.51339	2.97465
4.71321	3.05573
5.03289	3.19757
5.23267	3.29884
5.45249	3.37996
5.73226	3.48137
5.95208	3.56249
6.1319	3.64354
6.33168	3.7448
6.63141	3.86643
6.85118	3.96773
7.051	4.04881
7.27073	4.17029
7.4706	4.23119
7.75037	4.3326
7.91019	4.41361
8.19001	4.49485
8.38988	4.55575
8.56983	4.57626
8.86961	4.67771
9.08942	4.75883
9.36915	4.88042
9.56906	4.92114
9.76888	5.00223
10.1487	5.10382
