Adsorption isotherm of Carbon Dioxide on CuBTC
DOI: 10.1016/j.micromeso.2013.06.007
Adsorbate Carbon Dioxide: InChIKey CURLTUGMZLYLDI-UHFFFAOYSA-N
Temperature: 30 K
Tabular data in the source: 0
pressure (bar)	uptake (mmol/g)
0.917261	1.23262
1.05623	1.697
1.25425	2.58526
1.49295	3.1709
1.65192	3.63532
1.89062	4.22096
2.12986	4.56445
2.34914	4.88772
2.56846	5.19081
2.86775	5.51423
3.08716	5.77696
3.30671	5.97916
3.58626	6.18147
3.76595	6.32305
4.02568	6.4446
4.24532	6.60644
4.40514	6.68745
4.62487	6.80893
4.86437	7.03135
5.14419	7.11258
5.40401	7.19377
5.64379	7.29511
5.8637	7.33587
6.14356	7.39692
6.30338	7.47793
6.50325	7.53884
6.78311	7.59989
6.96298	7.66076
7.2628	7.74202
7.48275	7.76261
7.70252	7.86391
7.88248	7.88442
8.16239	7.92529
8.4223	7.96612
8.6023	7.96645
8.80212	8.04754
9.04212	8.04798
9.32194	8.12921
9.50193	8.12954
9.72189	8.15012
10.0418	8.17089
