Adsorption isotherm of Carbon Dioxide on CuBTC
DOI: 10.1016/j.micromeso.2013.06.007
Adsorbate Carbon Dioxide: InChIKey CURLTUGMZLYLDI-UHFFFAOYSA-N
Temperature: 150 K
Tabular data in the source: 0
pressure (bar)	uptake (mmol/g)
1.89726	1.23442
2.19694	1.37623
2.49658	1.53821
2.67636	1.63944
2.91613	1.74078
3.15586	1.86229
3.33564	1.96352
3.6155	2.02457
3.85528	2.12591
4.01519	2.16656
4.27496	2.26793
4.57473	2.36938
4.77455	2.45046
4.97442	2.51137
5.17424	2.59245
5.41406	2.67361
5.63388	2.75473
5.87374	2.81571
6.07352	2.91697
6.33334	2.99817
6.59316	3.07936
6.83298	3.16052
7.0728	3.24167
7.27266	3.30258
7.47248	3.38366
7.6923	3.46478
7.93208	3.56612
8.19189	3.64731
8.39167	3.74858
8.63149	3.82974
8.89126	3.93111
9.03113	3.9919
9.33095	4.07317
9.55081	4.13411
9.79054	4.25563
10.0903	4.35708
