Adsorption isotherm of Carbon Dioxide on Cr-MIL(101)
DOI: 10.1016/j.micromeso.2013.06.007
Adsorbate Carbon Dioxide: InChIKey CURLTUGMZLYLDI-UHFFFAOYSA-N
Temperature: 160 K
Tabular data in the source: 0
pressure (bar)	uptake (mmol/g)
0.539612	0.128718
0.748204	0.227797
0.978865	0.328852
1.27573	0.435835
1.50389	0.516566
1.80325	0.643873
2.00935	0.722628
2.25958	0.805335
2.58351	0.954942
2.8583	1.05995
3.10604	1.12233
3.4029	1.22931
3.58693	1.30609
3.88629	1.4334
4.11196	1.49381
4.2935	1.55026
4.57079	1.67559
4.87264	1.82322
5.20865	1.89351
5.50801	2.02082
5.75575	2.0832
5.91771	2.158
6.1263	2.25708
6.48688	2.34967
6.7396	2.4527
7.0144	2.55771
7.22299	2.65679
7.51736	2.74345
7.8338	2.83208
8.06446	2.93314
8.31719	3.03617
8.54535	3.1169
8.79309	3.17928
9.08996	3.28626
9.36475	3.39127
9.65663	3.45761
9.86522	3.55668
10.1571	3.62302
10.5276	3.7969
