Adsorption isotherm of Carbon Dioxide on CuBTC
DOI: 10.1016/j.micromeso.2013.06.007
Adsorbate Carbon Dioxide: InChIKey CURLTUGMZLYLDI-UHFFFAOYSA-N
Temperature: 140 K
Tabular data in the source: 0
pressure (bar)	uptake (mmol/g)
1.01798	0.909939
1.23771	1.03142
1.5773	1.21366
1.75708	1.31488
1.9769	1.396
2.21663	1.51752
2.47636	1.63907
2.67618	1.72016
2.91591	1.84167
3.17568	1.94305
3.39541	2.06452
3.63523	2.14568
3.8551	2.20662
4.11492	2.28782
4.31474	2.3689
4.51451	2.47017
4.71442	2.51089
4.95415	2.63241
5.17397	2.71353
5.45379	2.79476
5.65356	2.89602
5.89343	2.957
6.15325	3.03819
6.37302	3.13949
6.59293	3.18026
6.77275	3.2613
6.99257	3.34242
7.25239	3.42362
7.49221	3.50478
7.69203	3.58586
7.95181	3.68723
8.21163	3.76843
8.43145	3.84955
8.65135	3.89031
8.89117	3.97147
9.11095	4.07277
9.33081	4.13371
9.59063	4.2149
9.81045	4.29602
10.1103	4.37729
