Adsorption isotherm of Carbon Dioxide on Cr-MIL(101)
DOI: 10.1016/j.micromeso.2013.06.007
Adsorbate Carbon Dioxide: InChIKey CURLTUGMZLYLDI-UHFFFAOYSA-N
Temperature: 140 K
Tabular data in the source: 0
pressure (bar)	uptake (mmol/g)
0.736117	0.307117
0.966777	0.408172
1.26364	0.515155
1.79865	0.784164
2.06846	0.848523
2.60097	1.09721
2.82914	1.17794
3.15056	1.30722
3.28547	1.3394
3.60689	1.46868
3.85962	1.57172
4.0828	1.6118
4.40173	1.72076
4.61531	1.86048
4.93175	1.94912
5.25068	2.05808
5.47885	2.13881
5.72908	2.22152
6.00138	2.3062
6.23204	2.40725
6.50434	2.49194
6.73001	2.55234
7.02438	2.639
7.30167	2.76433
7.52734	2.82474
7.82421	2.93172
8.05237	3.01246
8.32218	3.07681
8.55284	3.17787
8.83013	3.3032
9.08286	3.40623
9.33309	3.48894
9.58083	3.55132
9.78693	3.63008
10.0838	3.73706
10.2678	3.81384
10.5818	3.88215
