Adsorption isotherm of Carbon Dioxide on Cr-MIL(101)
DOI: 10.1016/j.micromeso.2013.06.007
Adsorbate Carbon Dioxide: InChIKey CURLTUGMZLYLDI-UHFFFAOYSA-N
Temperature: 150 K
Tabular data in the source: 0
pressure (bar)	uptake (mmol/g)
1.30279	0.478459
1.57758	0.583466
1.78867	0.702869
1.99477	0.781624
2.26956	0.886631
2.59349	1.03624
2.84621	1.13927
3.11602	1.20363
3.34419	1.28436
3.59442	1.36707
3.86672	1.45175
4.12194	1.5751
4.25934	1.62761
4.53414	1.73261
4.9709	1.91242
5.2432	1.99711
5.40765	2.09223
5.69953	2.15857
5.92769	2.2393
6.22206	2.32596
6.56306	2.43689
6.86242	2.5642
7.20342	2.67513
7.49779	2.76179
7.79465	2.86878
8.06945	2.97378
8.31968	3.05649
8.52578	3.13525
8.80058	3.24025
9.08286	3.40623
9.34767	3.42994
9.64204	3.5166
9.84814	3.59536
10.1229	3.70036
10.486	3.81327
