Adsorption isotherm of Carbon Dioxide on CuBTC
DOI: 10.1016/j.micromeso.2013.06.007
Adsorbate Carbon Dioxide: InChIKey CURLTUGMZLYLDI-UHFFFAOYSA-N
Temperature: 60 K
Tabular data in the source: 0
pressure (bar)	uptake (mmol/g)
1.33614	1.73788
1.55542	2.06115
1.65484	2.32366
1.95407	2.66726
2.23331	3.01082
2.47282	3.23324
2.67237	3.4354
2.91187	3.65781
3.03156	3.79928
3.29115	3.98137
3.57075	4.1635
3.79034	4.34552
4.07003	4.48729
4.26976	4.60873
4.52944	4.75046
4.70913	4.89205
4.9489	4.99338
5.18859	5.13508
5.42823	5.29695
5.64818	5.31754
5.86791	5.43902
6.1276	5.58075
6.36737	5.68208
6.60715	5.78342
6.78697	5.86447
6.98683	5.92537
7.28665	6.00664
7.52652	6.06762
7.68634	6.14863
7.94611	6.25
8.08607	6.27044
8.30593	6.33138
8.64566	6.45308
8.82552	6.51395
9.12534	6.59522
9.26525	6.63583
9.50507	6.71699
9.72503	6.73757
10.0648	6.81891
