Adsorption isotherm of Carbon Dioxide on CuBTC
DOI: 10.1016/j.micromeso.2013.06.007
Adsorbate Carbon Dioxide: InChIKey CURLTUGMZLYLDI-UHFFFAOYSA-N
Temperature: 50 K
Tabular data in the source: 0
pressure (bar)	uptake (mmol/g)
1.25623	1.69737
1.49493	2.28301
1.69407	2.66678
1.91331	3.01024
2.1725	3.37394
2.35187	3.65678
2.6112	3.95995
2.89062	4.22279
3.09026	4.38459
3.38967	4.64747
3.54936	4.78902
3.74904	4.93064
4.00864	5.11273
4.26823	5.29483
4.46792	5.43645
4.74756	5.5984
4.98729	5.71991
5.18711	5.801
5.42684	5.92251
5.60675	5.9632
5.74652	6.06435
6.02625	6.18594
6.26603	6.28728
6.60589	6.34844
6.80562	6.46988
6.96553	6.51054
7.2254	6.57155
7.46517	6.67289
7.7249	6.79444
7.94481	6.8352
8.14477	6.85575
8.36454	6.95705
8.66445	6.99796
8.84431	7.05883
9.08413	7.13998
9.26409	7.16049
9.46409	7.16086
9.76377	7.30266
10.1037	7.32347
