Adsorption isotherm of Carbon Dioxide on CuBTC
DOI: 10.1016/j.micromeso.2013.06.007
Adsorbate Carbon Dioxide: InChIKey CURLTUGMZLYLDI-UHFFFAOYSA-N
Temperature: 70 K
Tabular data in the source: 0
pressure (bar)	uptake (mmol/g)
1.11713	1.29353
1.31632	1.65712
1.53578	1.89968
1.75524	2.14223
2.01479	2.3445
2.17421	2.60713
2.31385	2.76882
2.51349	2.93062
2.81299	3.15314
3.13241	3.41606
3.33209	3.55768
3.53173	3.71948
3.79137	3.88139
3.9911	4.00284
4.3107	4.18504
4.47039	4.32659
4.77012	4.44821
4.90989	4.54937
5.18962	4.67096
5.46935	4.79254
5.64912	4.89377
5.88885	5.01529
6.08859	5.13673
6.3284	5.21789
6.52827	5.27879
6.70809	5.35984
6.98782	5.48143
7.20764	5.56255
7.48732	5.70432
7.64719	5.76515
7.92696	5.86656
8.18678	5.94775
8.34669	5.98841
8.58665	6.00903
8.78651	6.06993
9.02633	6.15109
9.2662	6.21207
9.54615	6.23276
9.68592	6.33391
10.0858	6.39518
