Adsorption isotherm of Carbon Dioxide on CuBTC
DOI: 10.1016/j.micromeso.2013.06.007
Adsorbate Carbon Dioxide: InChIKey CURLTUGMZLYLDI-UHFFFAOYSA-N
Temperature: 190 K
Tabular data in the source: 0
pressure (bar)	uptake (mmol/g)
1.57775	1.01186
1.79753	1.11316
1.99739	1.17407
2.25721	1.25526
2.49708	1.31624
2.71689	1.39736
3.39631	1.66094
3.61613	1.74206
4.0759	1.8438
4.33559	1.98553
4.59545	2.04655
4.73532	2.10734
4.99518	2.16836
5.25505	2.22937
5.47482	2.33067
5.71473	2.37147
5.93459	2.43241
6.13437	2.53367
6.35428	2.57444
6.6141	2.65563
6.79396	2.7165
7.01383	2.77744
7.2936	2.87885
7.49342	2.95993
7.77329	3.02099
7.97311	3.10207
8.17302	3.1428
8.39284	3.22392
8.61266	3.30504
8.85252	3.36602
9.13234	3.44725
9.3122	3.50811
9.47207	3.56895
9.73198	3.60978
10.0917	3.7517
