Adsorption isotherm of Carbon Dioxide on CuBTC
DOI: 10.1016/j.micromeso.2013.06.007
Adsorbate Carbon Dioxide: InChIKey CURLTUGMZLYLDI-UHFFFAOYSA-N
Temperature: 160 K
Tabular data in the source: 0
pressure (bar)	uptake (mmol/g)
1.49753	1.11261
1.75726	1.23417
1.91712	1.295
2.21694	1.37626
2.39681	1.43713
2.71658	1.53862
2.9364	1.61974
3.15627	1.68068
3.37595	1.82234
3.63581	1.88335
3.83559	1.98461
4.07545	2.04559
4.31523	2.14693
4.51509	2.20783
4.77473	2.36975
5.01464	2.41054
5.21451	2.47145
5.47428	2.57282
5.65415	2.63369
5.89401	2.69467
6.13374	2.81619
6.37361	2.87716
6.63343	2.95836
6.79325	3.03937
7.05311	3.10038
7.25297	3.16129
7.53275	3.2627
7.73257	3.34378
7.97239	3.42494
8.17221	3.50602
8.41203	3.58718
8.6318	3.68848
8.85167	3.74942
9.11149	3.83062
9.35131	3.91177
9.53108	4.013
9.77081	4.13452
10.0907	4.17546
