Adsorption isotherm of Carbon Dioxide on Cr-MIL(101)
DOI: 10.1016/j.micromeso.2013.06.007
Adsorbate Carbon Dioxide: InChIKey CURLTUGMZLYLDI-UHFFFAOYSA-N
Temperature: 100 K
Tabular data in the source: 0
pressure (bar)	uptake (mmol/g)
0.297252	0.287922
0.417573	0.379097
0.699854	0.545076
0.955078	0.668431
1.11953	0.763558
1.49508	0.978088
1.79444	1.1054
2.05465	1.2694
2.32695	1.35408
2.62881	1.50171
2.92817	1.62902
3.20546	1.75435
3.45819	1.85738
3.68635	1.93811
3.922	2.07981
4.15266	2.18087
4.4666	2.24918
4.69726	2.35023
4.97705	2.49589
5.24686	2.56025
5.49958	2.66328
5.81852	2.77224
6.06875	2.85495
6.32397	2.9783
6.53007	3.05706
6.80487	3.16206
7.03303	3.24279
7.35196	3.35175
7.62676	3.45676
7.83286	3.53551
8.06102	3.61625
8.37995	3.7252
8.56398	3.80198
8.84127	3.92731
9.11108	3.99167
9.41294	4.1393
9.68524	4.22399
9.89133	4.30274
10.2373	4.45432
10.6225	4.56921
