Adsorption isotherm of Carbon Dioxide on CuBTC
DOI: 10.1016/j.micromeso.2013.06.007
Adsorbate Carbon Dioxide: InChIKey CURLTUGMZLYLDI-UHFFFAOYSA-N
Temperature: 170 K
Tabular data in the source: 0
pressure (bar)	uptake (mmol/g)
2.37703	1.3362
2.89658	1.53895
3.41617	1.72151
3.89581	1.88383
4.15559	1.9852
4.795	2.24871
5.51464	2.41146
6.13406	2.67493
6.59361	2.87757
6.79356	2.89811
7.71288	3.20249
7.97275	3.2635
8.21252	3.36484
8.43234	3.44596
8.73216	3.52723
8.91207	3.56792
9.05194	3.62871
9.2518	3.68962
9.53158	3.79103
9.79126	3.93276
9.99117	3.97349
10.1511	4.01414
