Adsorption isotherm of Carbon Dioxide on Cr-MIL(101)
DOI: 10.1016/j.micromeso.2013.06.007
Adsorbate Carbon Dioxide: InChIKey CURLTUGMZLYLDI-UHFFFAOYSA-N
Temperature: 130 K
Tabular data in the source: 0
pressure (bar)	uptake (mmol/g)
0.277291	0.125331
0.488379	0.244734
0.719039	0.345789
0.971767	0.44882
1.26863	0.555803
1.54842	0.701457
1.82321	0.806464
2.05387	0.907519
2.35074	1.0145
2.5814	1.11556
2.90283	1.24484
3.18261	1.39049
3.40828	1.4509
3.63894	1.55196
3.93581	1.65894
4.20811	1.74362
4.46333	1.86698
4.66444	1.90508
4.91717	2.00812
5.19196	2.11312
5.46426	2.19781
5.76113	2.30479
6.01386	2.40782
6.22245	2.5069
6.37942	2.54105
6.71793	2.63166
6.97065	2.7347
7.26752	2.84168
7.46862	2.87979
7.79005	3.00907
8.01822	3.0898
8.298	3.23545
8.5703	3.32014
8.86717	3.42712
9.13947	3.5118
9.41427	3.61681
9.55166	3.66931
9.77983	3.75004
10.1208	3.86098
10.5035	3.95554
