Adsorption isotherm of Carbon Dioxide on Cr-MIL(101)
DOI: 10.1016/j.micromeso.2013.06.007
Adsorbate Carbon Dioxide: InChIKey CURLTUGMZLYLDI-UHFFFAOYSA-N
Temperature: 60 K
Tabular data in the source: 0
pressure (bar)	uptake (mmol/g)
0.312223	0.409866
0.467087	0.604636
0.825553	0.857838
1.11782	1.10511
1.36345	1.32811
1.60159	1.49014
1.88637	1.67644
2.1391	1.77947
2.33311	1.93755
2.59083	2.08123
2.93931	2.25313
3.24116	2.40076
3.45724	2.56081
3.6879	2.66187
3.98726	2.78917
4.24498	2.93285
4.5689	3.08246
4.85118	3.24844
5.09892	3.31082
5.3812	3.4768
5.56523	3.55358
5.84502	3.69923
6.14687	3.84686
6.40459	3.99054
6.65732	4.09357
6.95668	4.22088
7.2119	4.34424
7.46713	4.46759
7.67322	4.54635
7.94802	4.65135
8.27194	4.80096
8.45847	4.89806
8.73576	5.02339
9.03512	5.1507
9.28785	5.25373
9.54057	5.35676
9.7958	5.48012
10.0977	5.62775
10.3749	5.75308
10.7651	5.90861
