Adsorption isotherm of Carbon Dioxide on Cr-MIL(101)
DOI: 10.1016/j.micromeso.2013.06.007
Adsorbate Carbon Dioxide: InChIKey CURLTUGMZLYLDI-UHFFFAOYSA-N
Temperature: 110 K
Tabular data in the source: 0
pressure (bar)	uptake (mmol/g)
0.761068	0.510356
1.04085	0.656011
1.34271	0.803641
1.57337	0.904696
1.77947	0.983452
2.10089	1.11273
2.38318	1.27871
2.56471	1.33517
2.88863	1.48477
3.13886	1.56748
3.41366	1.67249
3.67138	1.81617
3.87498	1.8746
4.08108	1.95335
4.42956	2.12526
4.6798	2.20797
4.90796	2.2887
5.16069	2.39173
5.45756	2.49871
5.77649	2.60767
5.98009	2.6661
6.27945	2.79341
6.59589	2.88204
6.87567	3.0277
7.05721	3.08415
7.28787	3.18521
7.51354	3.24562
7.80791	3.33227
8.0165	3.43135
8.35999	3.56261
8.6298	3.62697
8.81383	3.70375
9.11568	3.85138
9.43462	3.96034
9.66528	4.0614
9.82474	4.11587
10.1437	4.22483
10.5509	4.3417
