Adsorption isotherm of Carbon Dioxide on CuBTC
DOI: 10.1016/j.micromeso.2013.06.007
Adsorbate Carbon Dioxide: InChIKey CURLTUGMZLYLDI-UHFFFAOYSA-N
Temperature: 200 K
Tabular data in the source: 0
pressure (bar)	uptake (mmol/g)
4.55563	1.96576
4.99523	2.14818
5.93459	2.43241
6.19441	2.51361
6.43432	2.5544
6.57428	2.57484
6.7141	2.65581
6.97401	2.69665
7.21383	2.77781
7.4736	2.87918
7.71347	2.94016
7.99338	2.98103
8.1732	3.06208
8.37297	3.16334
8.61288	3.20414
8.79274	3.26501
9.03256	3.34617
9.27243	3.40714
9.51229	3.46812
9.79216	3.52917
