Adsorption isotherm of Carbon Dioxide on CuBTC
DOI: 10.1016/j.micromeso.2013.06.007
Adsorbate Carbon Dioxide: InChIKey CURLTUGMZLYLDI-UHFFFAOYSA-N
Temperature: 40 K
Tabular data in the source: 0
pressure (bar)	uptake (mmol/g)
1.15672	1.47522
1.25556	2.00006
1.47421	2.60584
1.733	3.15116
1.87223	3.49447
2.19116	3.97936
2.43044	4.30266
2.66968	4.64615
2.90914	4.88874
3.10864	5.11108
3.32824	5.2931
3.56779	5.49533
3.76743	5.65714
4.02711	5.79887
4.20693	5.87991
4.46644	6.10236
4.68621	6.20366
4.88599	6.30493
5.16572	6.42652
5.3454	6.5681
5.54531	6.60883
5.74504	6.73027
6.04486	6.81154
6.24464	6.9128
6.48455	6.9536
6.68437	7.03468
6.9841	7.15631
7.20405	7.17689
7.46383	7.27827
7.68374	7.31903
7.9436	7.38004
8.18351	7.42084
8.30346	7.44124
8.56333	7.50226
8.88319	7.56338
9.08306	7.62429
9.34297	7.66512
9.50292	7.68559
9.72279	7.74654
10.1426	7.82802
