Adsorption isotherm of Carbon Dioxide on Cr-MIL(101)
DOI: 10.1016/j.micromeso.2013.06.007
Adsorbate Carbon Dioxide: InChIKey CURLTUGMZLYLDI-UHFFFAOYSA-N
Temperature: 190 K
Tabular data in the source: 0
pressure (bar)	uptake (mmol/g)
0.701573	0.203521
0.978865	0.328852
1.25616	0.454183
1.54803	0.520518
1.8424	0.607177
2.00686	0.702304
2.36992	0.815215
2.57852	0.914294
2.87039	0.980629
3.07898	1.07971
3.30715	1.16044
3.55738	1.24315
3.85175	1.3298
4.14612	1.41646
4.39885	1.51949
4.65157	1.62253
4.92138	1.68688
5.16912	1.74927
5.39978	1.85032
5.69415	1.93698
6.01308	2.04594
6.22167	2.14502
6.49647	2.25003
6.72214	2.31043
6.97237	2.39314
7.2913	2.5021
7.51947	2.58283
7.79177	2.66751
8.01994	2.74824
8.29473	2.85325
8.5229	2.93398
8.81727	3.02064
9.11413	3.12762
9.4085	3.21428
9.63666	3.29501
9.8869	3.37772
10.093	3.45648
10.4806	3.59169
