Adsorption isotherm of Carbon Dioxide on Cr-MIL(101)
DOI: 10.1016/j.micromeso.2013.06.007
Adsorbate Carbon Dioxide: InChIKey CURLTUGMZLYLDI-UHFFFAOYSA-N
Temperature: 50 K
Tabular data in the source: 0
pressure (bar)	uptake (mmol/g)
0.504126	0.728556
0.798883	0.996154
1.04451	1.21915
1.35385	1.42775
1.64113	1.63438
1.88426	1.83706
2.21317	2.02731
2.54708	2.25821
2.78023	2.37959
2.94469	2.47472
3.24904	2.64267
3.50676	2.78635
3.80861	2.93398
4.11296	3.10194
4.20622	3.15049
4.53015	3.3001
4.81243	3.46607
5.04808	3.60778
5.30081	3.71081
5.60516	3.87876
5.86287	4.02244
6.15974	4.12942
6.3904	4.23048
6.64812	4.37416
6.9279	4.51981
7.2027	4.62482
7.50455	4.77245
7.73022	4.83286
7.98794	4.97654
8.21611	5.05727
8.58916	5.25147
8.81982	5.35253
9.12167	5.50016
9.37689	5.62351
9.60755	5.72457
9.88485	5.8499
10.1155	5.95095
10.3953	6.09661
10.7829	6.23182
