Adsorption isotherm of Carbon Dioxide on Cr-MIL(101)
DOI: 10.1016/j.micromeso.2013.06.007
Adsorbate Carbon Dioxide: InChIKey CURLTUGMZLYLDI-UHFFFAOYSA-N
Temperature: 90 K
Tabular data in the source: 0
pressure (bar)	uptake (mmol/g)
0.20898	0.280018
0.559961	0.472249
0.795612	0.613952
0.923417	0.766099
1.08538	0.840902
1.22527	0.913729
1.43636	1.03313
1.64495	1.13221
2.018	1.32642
2.34192	1.47602
2.55051	1.5751
2.82531	1.68011
3.12966	1.84806
3.42902	1.97537
3.68674	2.11905
3.9836	2.22603
4.1922	2.32511
4.46699	2.43012
4.69516	2.51085
4.94539	2.59356
5.26682	2.72284
5.42379	2.757
5.76728	2.88825
5.99794	2.98931
6.2998	3.13694
6.59666	3.24392
6.87146	3.34893
7.14875	3.47426
7.33527	3.57136
7.58551	3.65407
7.87988	3.74073
8.2013	3.87001
8.38533	3.94679
8.66013	4.0518
8.86623	4.13055
9.00113	4.16273
9.36919	4.31629
9.64398	4.4213
9.98997	4.57288
10.2648	4.67789
10.5641	4.80519
