Adsorption isotherm of Carbon Dioxide on CuBTC
DOI: 10.1016/j.micromeso.2013.06.007
Adsorbate Carbon Dioxide: InChIKey CURLTUGMZLYLDI-UHFFFAOYSA-N
Temperature: 120 K
Tabular data in the source: 0
pressure (bar)	uptake (mmol/g)
0.978023	0.889687
1.2178	0.991023
1.41753	1.11247
1.79699	1.35531
1.97667	1.4969
2.25627	1.67903
2.43604	1.78025
2.69577	1.90181
2.97546	2.04358
3.11523	2.14473
3.39492	2.2865
3.65469	2.38787
3.79456	2.44867
4.03424	2.59036
4.25406	2.67148
4.51388	2.75268
4.71366	2.85394
4.95348	2.9351
5.1533	3.01618
5.41312	3.09737
5.59298	3.15824
5.91271	3.27991
6.15253	3.36106
6.37231	3.46236
6.55213	3.54341
6.79195	3.62457
7.01168	3.74605
7.2715	3.82724
7.49131	3.90836
7.75104	4.02991
7.99086	4.11107
8.13073	4.17187
8.31059	4.23273
8.59037	4.33414
8.91014	4.43563
9.12996	4.51675
9.34983	4.57769
9.48978	4.59813
9.76951	4.71972
10.1493	4.80113
