Adsorption isotherm of Carbon Dioxide on CuBTC
DOI: 10.1016/j.micromeso.2013.06.007
Adsorbate Carbon Dioxide: InChIKey CURLTUGMZLYLDI-UHFFFAOYSA-N
Temperature: 180 K
Tabular data in the source: 0
pressure (bar)	uptake (mmol/g)
2.21717	1.27537
2.47703	1.33638
2.91667	1.49862
3.15635	1.64032
3.37631	1.6609
3.61617	1.72188
3.79604	1.78275
4.05577	1.9043
4.31568	1.94514
4.55545	2.04647
4.73527	2.12752
4.97509	2.20868
5.195	2.24944
5.47473	2.37103
5.6946	2.43197
5.93442	2.51313
6.13424	2.59421
6.3541	2.65515
6.59392	2.73631
6.79378	2.79722
7.07369	2.83809
7.31342	2.9596
7.5332	3.0609
7.7732	3.06135
7.97311	3.10207
8.15297	3.16294
8.43275	3.26435
8.59261	3.32518
8.87248	3.38623
9.11212	3.54811
9.35193	3.62926
9.59175	3.71042
9.85157	3.79162
10.1714	3.87292
