Adsorption isotherm of Carbon Dioxide on Cr-MIL(101)
DOI: 10.1016/j.micromeso.2013.06.007
Adsorbate Carbon Dioxide: InChIKey CURLTUGMZLYLDI-UHFFFAOYSA-N
Temperature: 120 K
Tabular data in the source: 0
pressure (bar)	uptake (mmol/g)
0.142388	0.0931513
0.279786	0.145655
0.490874	0.265058
0.748592	0.408736
1.00132	0.511767
1.32774	0.681698
1.58296	0.805053
1.78906	0.883808
2.08842	1.01111
2.39027	1.15875
2.57181	1.2152
2.78289	1.3346
3.08225	1.46191
3.33249	1.54462
3.60978	1.66995
3.88956	1.8156
4.2085	1.92456
4.48329	2.02957
4.68689	2.088
4.9592	2.17268
5.25606	2.27967
5.53335	2.405
5.78358	2.4877
5.96262	2.52383
6.23991	2.64917
6.39689	2.68332
6.74288	2.8349
6.97104	2.91563
7.28748	3.00427
7.56227	3.10928
7.79044	3.19001
8.01611	3.25041
8.27133	3.37377
8.52406	3.4768
8.79886	3.58181
9.12278	3.73141
9.41216	3.77742
9.66489	3.88046
9.91762	3.98349
10.1924	4.08849
10.5505	4.16076
