Adsorption isotherm of Carbon Dioxide on Cr-MIL(101)
DOI: 10.1016/j.micromeso.2013.06.007
Adsorbate Carbon Dioxide: InChIKey CURLTUGMZLYLDI-UHFFFAOYSA-N
Temperature: 40 K
Tabular data in the source: 0
pressure (bar)	uptake (mmol/g)
0.339669	0.633429
0.573213	0.935747
0.818844	1.15875
1.11859	1.46699
1.33467	1.62704
1.63192	1.91496
1.92169	2.14191
2.2506	2.33217
2.41506	2.4273
2.79559	2.68247
3.03374	2.8445
3.31851	3.0308
3.57374	3.15416
3.86101	3.36078
4.02796	3.47624
4.28568	3.61991
4.51883	3.74129
4.87231	3.95385
5.15459	4.11983
5.41231	4.26351
5.6896	4.38884
5.95481	4.59349
6.23958	4.77979
6.51438	4.8848
6.75252	5.04682
6.98817	5.18853
7.2409	5.29156
7.49613	5.41491
7.8496	5.62747
8.12939	5.77312
8.38711	5.9168
8.5957	6.01588
8.82885	6.13726
9.10864	6.28291
9.36636	6.42659
9.69527	6.61684
10.0167	6.74613
10.2524	6.88783
10.5542	7.03546
10.9173	7.14837
