Adsorption isotherm of Carbon Dioxide on CuBTC
DOI: 10.1016/j.micromeso.2013.06.007
Adsorbate Carbon Dioxide: InChIKey CURLTUGMZLYLDI-UHFFFAOYSA-N
Temperature: 130 K
Tabular data in the source: 0
pressure (bar)	uptake (mmol/g)
0.998023	0.889723
1.15771	1.03127
1.35744	1.15271
1.57717	1.27419
1.75708	1.31488
1.99685	1.41622
2.31654	1.55806
2.47631	1.65925
2.61618	1.72005
2.85591	1.84156
3.11564	1.96311
3.41532	2.10492
3.59514	2.18597
3.81496	2.26709
4.05474	2.36842
4.17456	2.44936
4.45433	2.55077
4.73415	2.632
5.01379	2.79395
5.25366	2.85493
5.47343	2.95623
5.69334	2.99699
5.87312	3.09822
6.09298	3.15916
6.33271	3.28068
6.59257	3.34169
6.83226	3.48339
7.09208	3.56458
7.27203	3.58509
7.3919	3.64585
7.67176	3.7069
7.99149	3.82856
8.15127	3.92975
8.35122	3.9503
8.651	4.05174
8.85082	4.13283
9.11073	4.17366
9.31059	4.23457
9.55045	4.29555
9.85018	4.41717
10.1499	4.5388
