Adsorption isotherm of Carbon Dioxide on Cr-MIL(101)
DOI: 10.1016/j.micromeso.2013.06.007
Adsorbate Carbon Dioxide: InChIKey CURLTUGMZLYLDI-UHFFFAOYSA-N
Temperature: 70 K
Tabular data in the source: 0
pressure (bar)	uptake (mmol/g)
0.238534	0.342966
0.508728	0.588264
0.727301	0.768639
1.07828	0.960869
1.36555	1.1675
1.6037	1.32952
1.81229	1.4286
2.1412	1.61886
2.40142	1.78286
2.63707	1.92456
2.91935	2.09054
3.16958	2.17325
3.44438	2.27825
3.7021	2.42193
3.98188	2.56759
4.30331	2.69687
4.53647	2.81825
4.76962	2.93963
4.98071	3.05903
5.27757	3.16601
5.55736	3.31167
5.75847	3.34978
6.10945	3.54201
6.40631	3.64899
6.6836	3.77432
6.91426	3.87537
7.14243	3.95611
7.42222	4.10176
7.62582	4.16019
7.94724	4.28947
8.20247	4.41283
8.47726	4.51784
8.68586	4.61692
8.91652	4.71797
9.23046	4.78628
9.44155	4.90568
9.73841	5.01267
10.0623	5.16227
10.3592	5.26926
10.6586	5.39656
