Adsorption isotherm of Carbon Dioxide on CuBTC
DOI: 10.1016/j.micromeso.2013.06.007
Adsorbate Carbon Dioxide: InChIKey CURLTUGMZLYLDI-UHFFFAOYSA-N
Temperature: 80 K
Tabular data in the source: 0
pressure (bar)	uptake (mmol/g)
1.07748	1.13202
1.27677	1.45526
1.4165	1.57659
1.65591	1.83936
1.93533	2.10221
2.21483	2.32469
2.43443	2.50671
2.65394	2.72908
2.85367	2.85053
3.11322	3.0528
3.37277	3.25507
3.59254	3.35637
3.79223	3.49799
4.012	3.59929
4.3516	3.78153
4.49146	3.84232
4.77106	4.02445
4.93088	4.10546
5.15056	4.24712
5.45029	4.36874
5.66993	4.53058
5.84989	4.55109
6.04966	4.65235
6.34944	4.7538
6.50921	4.85499
6.76903	4.93618
6.98885	5.01731
7.18867	5.09839
7.44853	5.1594
7.72822	5.30117
7.98804	5.38237
8.12795	5.42298
8.32777	5.50407
8.60759	5.5853
8.88741	5.66653
9.12718	5.76786
9.32709	5.80859
9.527	5.84932
9.76673	5.97083
10.1666	6.05228
