Adsorption isotherm of Carbon Dioxide on Cr-MIL(101)
DOI: 10.1016/j.micromeso.2013.06.007
Adsorbate Carbon Dioxide: InChIKey CURLTUGMZLYLDI-UHFFFAOYSA-N
Temperature: 30 K
Tabular data in the source: 0
pressure (bar)	uptake (mmol/g)
0.130585	0.194049
0.279776	0.551457
0.565202	0.96203
0.812415	1.22761
1.09086	1.57692
1.40387	1.84866
1.69959	2.15919
2.01027	2.41051
2.29437	2.61894
2.55653	2.82531
2.72167	2.94179
3.01275	3.21148
3.32343	3.4628
3.67099	3.65697
3.86038	3.79592
4.09597	3.9594
4.40199	4.16988
4.7346	4.42326
4.94826	4.58469
5.17919	4.70733
5.44135	4.9137
5.71847	5.06087
5.95406	5.22435
6.2139	5.4103
6.56611	5.64531
6.84788	5.83332
7.06386	6.01516
7.31905	6.16028
7.59849	6.32787
7.92877	6.56082
8.25208	6.73252
8.48766	6.896
8.72092	7.03906
8.95418	7.18212
9.25788	7.37218
9.55692	7.5214
9.81211	7.66652
10.0673	7.81163
10.3687	7.98127
10.5338	8.09775
10.9621	8.23888
