Adsorption isotherm of Carbon Dioxide on Cr-MIL(101)
DOI: 10.1016/j.micromeso.2013.06.007
Adsorbate Carbon Dioxide: InChIKey CURLTUGMZLYLDI-UHFFFAOYSA-N
Temperature: 80 K
Tabular data in the source: 0
pressure (bar)	uptake (mmol/g)
0.425058	0.440069
0.663204	0.602096
1.03625	0.796302
1.30146	1.00095
1.51005	1.10003
1.83896	1.29029
2.11875	1.43594
2.40103	1.60192
2.60713	1.68067
2.91397	1.86895
3.21084	1.97594
3.46606	2.09929
3.69672	2.20035
3.90531	2.29942
4.2513	2.45101
4.43533	2.52779
4.73469	2.65509
5.03155	2.76208
5.30885	2.88741
5.51494	2.96616
5.79473	3.11182
6.08411	3.15783
6.32225	3.31985
6.61662	3.40651
6.8989	3.57249
7.105	3.65125
7.44351	3.74186
7.69374	3.82457
7.94896	3.94792
8.08636	4.00042
8.47399	4.13563
8.6089	4.16781
8.90326	4.25447
9.2222	4.36343
9.40373	4.41989
9.63439	4.52094
10.0711	4.70075
10.3018	4.80181
10.6674	4.93504
