Adsorption isotherm of Carbon Dioxide on CuBTC
DOI: 10.1016/j.micromeso.2013.06.007
Adsorbate Carbon Dioxide: InChIKey CURLTUGMZLYLDI-UHFFFAOYSA-N
Temperature: 100 K
Tabular data in the source: 0
pressure (bar)	uptake (mmol/g)
1.17739	1.17256
1.39708	1.31422
1.51681	1.43552
1.71654	1.55696
1.99605	1.77945
2.21569	1.94128
2.49528	2.12341
2.69506	2.22467
2.9547	2.38659
3.09452	2.46756
3.33411	2.64961
3.5738	2.79131
3.85362	2.87254
4.07326	3.03438
4.29303	3.13568
4.55276	3.25723
4.79254	3.35857
4.91236	3.4395
5.17209	3.56106
5.43186	3.66243
5.69155	3.80416
5.89137	3.88525
6.05128	3.9259
6.35101	4.04753
6.51092	4.08818
6.81064	4.2098
6.93051	4.27056
7.23028	4.37201
7.39015	4.43284
7.68997	4.51411
7.9097	4.63559
8.16952	4.71678
8.32929	4.81797
8.5892	4.85881
8.78907	4.91971
9.0888	5.04134
9.32871	5.08214
9.44853	5.16307
9.7683	5.26456
10.128	5.38629
