Adsorption isotherm of Carbon Dioxide on CuBTC
DOI: 10.1016/j.micromeso.2013.06.007
Adsorbate Carbon Dioxide: InChIKey CURLTUGMZLYLDI-UHFFFAOYSA-N
Temperature: 90 K
Tabular data in the source: 0
pressure (bar)	uptake (mmol/g)
1.1373	1.21285
1.37681	1.43526
1.53663	1.51627
1.79618	1.71854
2.03569	1.94095
2.21546	2.04218
2.41506	2.22416
2.59474	2.36575
2.91416	2.62866
3.05402	2.68946
3.27375	2.81094
3.5533	3.01324
3.77308	3.11454
4.09281	3.23621
4.31254	3.35769
4.53227	3.47917
4.67209	3.56014
4.93182	3.68169
5.1715	3.82339
5.39128	3.92469
5.67101	4.04628
5.85078	4.1475
6.05056	4.24877
6.21038	4.32978
6.51011	4.4514
6.76997	4.51242
6.98979	4.59354
7.18966	4.65444
7.48939	4.77607
7.62925	4.83687
7.94903	4.93835
8.18876	5.05987
8.34871	5.08034
8.60849	5.18171
8.76839	5.22236
9.08817	5.32385
9.28803	5.38475
9.58781	5.4862
9.80772	5.52696
10.0874	5.64855
