Adsorption isotherm of Carbon Dioxide on Ni-DBM-BPY
DOI: 10.1016/j.jallcom.2015.05.148
Article source: Figure 1b- NiDBM
Adsorbate Carbon Dioxide: InChIKey CURLTUGMZLYLDI-UHFFFAOYSA-N
Kind: experiment
Temperature: 303 K
Tabular data in the source: 0
pressure (bar)	uptake (mg/g)
0.0969	5.399
0.4776	7.172
0.5682	5.845
1.1269	11.047
1.1344	11.042
1.5843	12.492
1.6462	9.196
2.0392	15.42
2.152	9.985
2.4603	16.846
2.8794	16.759
2.9822	11.29
3.3509	16.723
3.7177	12.423
3.9736	19.25
4.2859	14.227
4.304	22.998
4.7272	30.408
4.7655	14.037
5.108	40.725
5.3619	14.379
5.65	54.447
5.9624	14.825
6.047	58.831
6.4722	64.015
6.5004	65.52
7.0767	14.959
7.0968	68.854
7.655	16.815
7.7557	79.755
8.1668	18.825
8.2292	86.873
8.5436	89.091
8.9869	90.913
9.0251	20.078
9.4906	90.292
9.7626	25.132
10.1173	93.609
10.214	45.045
10.5021	94.124
10.5747	67.348
10.9696	81.122
11.0623	95.103
11.4774	87.518
11.7796	98.145
11.9005	91.283
12.1262	96.906
12.4063	92.588
12.5655	99.002
12.8254	93.55
12.9846	96.783
13.4198	94.374
13.5287	99.395
13.9679	100.34
14.0284	95.129
14.4636	101.491
14.8787	101.404
15.318	101.385
15.3341	97.43
15.8499	102.863
16.0696	97.6
16.4262	101.554
16.7405	98.871
17.0771	101.036
17.2282	99.643
17.4579	100.416
17.8166	102.909
17.8992	100.931
18.3405	101.188
