Adsorption isotherm of Carbon Dioxide on NiBpene
DOI: 10.1016/j.jallcom.2015.05.148
Article source: Figure 1a- NiBpene
Adsorbate Carbon Dioxide: InChIKey CURLTUGMZLYLDI-UHFFFAOYSA-N
Kind: experiment
Temperature: 303 K
Tabular data in the source: 0
pressure (bar)	uptake (mg/g)
0.4233	9.585
0.6836	3.043
0.8254	14.344
1.365	7.642
1.6456	22.427
1.924	9.703
2.161	29.251
2.6525	39.612
2.8572	11.651
3.0459	46.812
3.1862	51.165
3.6346	68.789
3.7444	11.629
4.0185	87.556
4.3365	118.253
4.384	12.91
4.6382	151.233
4.9632	14.296
4.9768	178.403
5.3483	199.244
5.7176	14.121
5.9506	209.188
6.2184	14.939
6.4446	216.126
6.8221	13.938
7.0231	223.684
7.3126	16.675
7.6298	230.412
8.0039	22.882
8.2871	250.209
8.5403	28.781
8.7716	269.18
9.1302	297.076
9.5107	310.863
9.6111	40.165
10.0809	320.081
10.3976	56.847
10.5306	327.02
10.9597	82.248
11.0777	327.733
11.4302	116.261
11.7772	332.798
11.8402	151.936
12.2069	208.735
12.4827	336.744
12.4888	337.137
12.8468	289.825
12.923	339.927
13.2752	306.412
13.3934	342.924
13.7608	316.307
13.9202	344.674
14.4357	325.107
14.4509	347.669
14.974	347.76
15.0153	339.305
15.5358	341.832
15.5528	342.488
16.0918	353.645
16.4858	345.795
16.5904	355.604
17.0811	357.355
17.2508	349.631
17.6485	356.615
17.9121	351.706
18.3725	358.049
18.487	355.351
19.2358	356.316
19.2535	356.533
19.6884	360.454
19.6959	360.713
20.2107	362.567
