Adsorption isotherm of Carbon Dioxide on NiBpene
DOI: 10.1016/j.jallcom.2015.05.148
Article source: Figure 5b- NiBpene
Adsorbate Carbon Dioxide: InChIKey CURLTUGMZLYLDI-UHFFFAOYSA-N
Kind: experiment
Temperature: 258 K
Tabular data in the source: 0
pressure (bar)	uptake (wt%)
0.1734	1.7663
0.1753	1.8117
0.209	4.9726
0.2297	6.241
0.2705	7.6101
0.3398	10.0757
0.3911	2.0655
0.433	13.0272
0.559	3.2602
0.682	15.7417
0.8456	16.7017
0.906	4.171
1.0111	17.8633
1.185	18.6159
1.2065	4.828
1.3085	19.8783
1.4386	6.0684
1.4702	21.7511
1.6255	23.5766
1.639	6.9632
1.7432	25.4613
1.7897	8.2552
1.8377	28.318
1.9412	30.7184
1.965	10.1103
2.068	32.3719
2.1034	12.2143
2.2133	13.607
2.2949	33.6105
2.3434	15.9185
2.445	18.4643
2.4798	34.3098
2.597	20.8911
2.7147	34.775
2.7165	34.7483
2.8441	25.6858
2.9861	35.3882
3.0027	31.1326
3.1722	35.7022
3.2426	34.0071
3.3759	35.8384
3.52	34.5107
3.5491	36.3125
3.7708	35.0262
3.7955	36.5494
3.9836	36.8457
3.9855	36.8102
4.206	37.4205
4.2441	36.0157
4.4594	36.5905
4.4665	37.8826
4.6785	36.2407
4.7755	38.0662
4.8576	36.5073
4.9585	38.2439
5.0871	37.011
5.1318	39.0261
5.2985	37.5383
5.3432	38.9312
5.4853	37.7753
5.5365	40.0927
5.6923	40.3653
5.8344	38.1663
5.8623	40.6556
5.9922	38.4151
6.1048	40.94
6.2546	38.5098
6.3427	41.574
6.4706	39.2565
6.5334	41.7517
6.6671	39.2208
6.7622	41.7753
6.8973	40.1156
7.0422	42.3441
7.0867	40.2933
7.2761	40.1806
7.3602	42.089
7.4442	40.7317
7.5335	42.5987
7.6388	41.3302
7.7417	42.6578
7.847	41.7983
7.955	42.6932
8.0435	41.7034
8.1444	42.7228
8.3571	42.9834
8.3797	42.2722
8.5775	42.8292
8.659	42.432
8.7476	43.2144
8.8994	42.5327
8.9486	43.1609
9.1122	43.1252
9.1962	43.3148
9.3778	42.9236
9.4716	43.6407
9.6345	42.7456
9.8168	43.3085
9.8304	42.8522
9.9984	42.9825
10.0094	43.0251
