Adsorption isotherm of Nitrogen on COF-SQ
DOI: 10.1039/c9cc01317b
Article source: Figure 4
Adsorbate Nitrogen: InChIKey IJGRMHOSHXDMSA-UHFFFAOYSA-N
Kind: experiment
Temperature: 77 K
Tabular data in the source: 0
pressure (bar)	uptake (cm3(STP)/g)
0.003063	49.0489
0.003219	28.3112
0.002442	17.8923
0.005126	98.0348
0.003413	80.0857
0.004859	67.491
0.010003	119.682
0.014872	135.369
0.030409	152.168
0.048175	166.708
0.065367	178.139
0.092058	191.148
0.118313	204.674
0.150105	219.016
0.177494	236.352
0.223847	275.276
0.265106	322.5
0.288143	330.119
0.334126	341.47
0.360859	346.784
0.393656	350.679
0.42473	354.045
0.477167	361.055
0.508524	364.67
0.540143	369.204
0.57261	373.391
0.614414	376.466
0.647615	379.85
0.685022	383.039
0.722368	386.066
0.755017	391.665
0.787846	396.536
0.821593	403.862
0.855618	411.423
0.893433	425.385
0.930089	440.293
0.963999	473.985
0.999152	564.183
0.008575	156.768
0.083926	213.119
0.16364	249.644
0.230199	300.482
0.256679	347.632
0.302121	357.358
0.334418	365.528
0.384204	368.479
0.44032	371.025
0.584614	403.34
0.613917	405.407
0.653517	407.98
0.687467	409.308
0.723913	414.561
0.755805	420.036
0.780846	423.507
0.81528	429.135
0.847089	436.641
0.893487	451.566
0.940759	479.216
0.975716	557.585
1.00424	636.87
0.47803	385.027
0.511481	396.944
0.549248	400.611
0.125173	231.016
0.048558	191.597
0.006474	149.427
0.188838	273.186
0.350699	367.609
