Adsorption isotherm of Methane on CNT@CuBTC
DOI: 10.1021/jp206959k
Adsorbate Methane: InChIKey VNWKTOKETHGBQD-UHFFFAOYSA-N
Temperature: 298 K
Tabular data in the source: 0
pressure (bar)	uptake (mmol/g)
1.16831	0.468614
2.66673	0.804445
3.99733	1.00666
4.66216	1.07444
5.49298	1.14249
6.82266	1.27804
7.15461	1.27859
8.65027	1.41442
10.311	1.48385
11.9708	1.48662
13.4655	1.55578
15.1253	1.55854
16.786	1.62798
18.4458	1.63074
20.1056	1.63351
21.2684	1.70211
21.7663	1.70294
23.4261	1.70571
24.9208	1.77487
26.5806	1.77763
28.2404	1.7804
29.9002	1.78317
31.56	1.78593
31.8919	1.78649
33.2207	1.85537
34.8805	1.85813
36.5403	1.8609
37.0382	1.86173
38.0341	1.86339
39.6948	1.93282
40.1927	1.93365
