Adsorption isotherm of Carbon Dioxide on UMCM-1
DOI: 10.1021/jp206959k
Adsorbate Carbon Dioxide: InChIKey CURLTUGMZLYLDI-UHFFFAOYSA-N
Temperature: 298 K
Tabular data in the source: 0
pressure (bar)	uptake (mmol/g)
0.918728	0.77838
1.20141	0.863289
1.69611	1.47062
1.9788	1.55553
2.26148	1.81519
2.82686	2.24714
3.03887	2.33267
3.39223	2.59172
3.9576	3.02367
4.52297	3.45562
5.08834	3.8002
5.65371	4.31953
6.21908	4.66411
6.71378	5.18405
7.20848	5.61662
7.77385	6.13596
8.26855	6.56853
8.83392	7.17524
9.32862	7.60781
9.82332	8.21514
10.0353	8.30066
10.318	8.64771
10.8127	9.16766
11.0954	9.42732
11.3074	9.60023
11.8021	10.2076
12.0848	10.4672
12.2968	10.6401
12.7915	11.1601
13.2862	11.5926
13.7809	12.2
14.2756	12.5452
14.841	13.0645
15.4064	13.4964
15.9011	14.1038
16.3958	14.449
16.9611	14.9683
17.5265	15.3129
18.0919	15.7448
