Adsorption isotherm of Methane on UMCM-1
DOI: 10.1021/jp206959k
Adsorbate Methane: InChIKey VNWKTOKETHGBQD-UHFFFAOYSA-N
Temperature: 298 K
Tabular data in the source: 0
pressure (bar)	uptake (mmol/g)
1.20141	0.426395
1.83746	0.770352
2.4735	0.852173
3.18021	1.02076
3.81625	1.36471
4.02827	1.27548
4.73498	1.53144
5.4417	1.70002
6.07774	1.9566
6.71378	2.1258
7.42049	2.29438
8.12721	2.46297
8.76325	2.63217
9.46996	2.80075
10.1767	2.96933
10.8127	3.22591
11.0247	3.31143
11.5194	3.30711
12.1555	3.47631
12.8622	3.64489
13.4982	3.81409
14.2049	3.98268
14.841	4.23925
15.053	4.2374
15.477	4.32107
16.0424	4.49089
16.1837	4.40228
16.8198	4.65886
17.5265	4.74006
18.1625	4.90926
