Adsorption isotherm of Carbon Dioxide on CuBTC
DOI: 10.1021/jp206959k
Adsorbate Carbon Dioxide: InChIKey CURLTUGMZLYLDI-UHFFFAOYSA-N
Temperature: 298 K
Tabular data in the source: 0
pressure (bar)	uptake (mmol/g)
0.48951	0.685567
0.699301	0.938144
1.18881	1.11856
1.67832	1.37113
1.88811	1.58763
2.44755	1.73196
2.93706	1.91237
3.4965	2.09278
3.91608	2.20103
4.8951	2.48969
5.45455	2.63402
6.15385	2.70619
6.64336	2.8866
6.92308	2.92268
7.27273	2.99485
7.69231	3.06701
8.32168	3.17526
8.88112	3.31959
9.51049	3.39175
9.93007	3.5
10.6294	3.57216
11.1189	3.64433
11.7483	3.75258
12.4476	3.82474
13.2168	3.93299
13.9161	4.04124
14.5455	4.07732
15.1049	4.18557
15.7343	4.22165
16.3636	4.29381
16.993	4.40206
17.6923	4.43814
18.042	4.47423
