Adsorption isotherm of Methane on MIL-53(Al)
DOI: 10.1021/jp206959k
Adsorbate Methane: InChIKey VNWKTOKETHGBQD-UHFFFAOYSA-N
Temperature: 298 K
Tabular data in the source: 0
pressure (bar)	uptake (mmol/g)
0.819672	0.525253
2.13115	0.767677
3.27869	0.848485
4.59016	1.0101
6.06557	1.17172
7.37705	1.25253
9.01639	1.29293
10.6557	1.29293
11.9672	1.37374
12.2951	1.33333
13.9344	1.33333
14.918	1.33333
15.5738	1.33333
17.2131	1.33333
17.8689	1.29293
18.6885	1.29293
20.3279	1.29293
21.9672	1.29293
23.6066	1.25253
24.918	1.25253
25.2459	1.25253
26.7213	1.25253
27.8689	1.21212
28.3607	1.25253
30	1.25253
31.6393	1.21212
33.2787	1.21212
34.7541	1.21212
36.3934	1.21212
37.8689	1.17172
39.1803	1.17172
39.8361	1.17172
