Adsorption isotherm of Methane on ZIF-8
DOI: 10.1021/jp206959k
Adsorbate Methane: InChIKey VNWKTOKETHGBQD-UHFFFAOYSA-N
Temperature: 298 K
Tabular data in the source: 0
pressure (bar)	uptake (mmol/g)
1.07914	0.276459
1.65468	0.434518
2.08633	0.513261
2.30216	0.592434
2.8777	0.750492
3.45324	0.908551
3.95683	1.02695
4.67626	1.18472
5.03597	1.22381
5.32374	1.30284
5.89928	1.5007
6.54676	1.53921
7.19424	1.65732
7.84173	1.81524
8.41727	1.8937
9.06475	2.01181
9.71223	2.09012
10.2878	2.20838
10.8633	2.36644
11.5108	2.40495
12.1583	2.48327
12.8777	2.60124
13.4532	2.6797
14.1727	2.75787
14.8921	2.87584
15.5396	2.95415
16.259	2.99252
16.9065	3.11063
17.6259	3.149
18.0576	3.18795
18.2734	3.18752
