Adsorption isotherm of Carbon Dioxide on CuBTC
DOI: 10.1021/jp206959k
Adsorbate Carbon Dioxide: InChIKey CURLTUGMZLYLDI-UHFFFAOYSA-N
Temperature: 298 K
Tabular data in the source: 0
pressure (bar)	uptake (mmol/g)
0.477755	0.944162
0.483726	0.730964
0.806211	1.21827
1.13552	1.46193
1.46483	1.70558
1.62778	1.88832
1.95794	2.10152
2.45361	2.40609
2.95269	2.58883
3.44922	2.86294
3.78109	3.01523
4.44738	3.22843
5.61532	3.53299
6.44883	3.77665
7.45297	3.92893
8.62347	4.14213
9.79397	4.35533
11.8057	4.53807
13.3157	4.62944
14.993	4.75127
16.3349	4.84264
17.8441	4.96447
19.1878	4.99492
20.8659	5.08629
22.5449	5.14721
24.8953	5.23858
26.239	5.26904
27.9188	5.29949
29.5986	5.32995
31.9507	5.36041
34.9742	5.42132
36.8221	5.45178
39.8464	5.48223
