Adsorption isotherm of Methane on ZIF-8
DOI: 10.1021/jp206959k
Adsorbate Methane: InChIKey VNWKTOKETHGBQD-UHFFFAOYSA-N
Temperature: 298 K
Tabular data in the source: 0
pressure (bar)	uptake (mmol/g)
0.496274	0.119033
0.992548	0.238065
1.65208	0.356976
2.63651	0.445794
3.62418	0.59431
4.44535	0.68325
6.57908	0.890613
8.71119	1.06813
10.1854	1.15658
11.9861	1.24479
15.0929	1.33202
18.2013	1.4491
20.9783	1.47688
25.0614	1.50369
28.1682	1.59092
32.088	1.61784
35.19	1.61553
37.1491	1.61407
40.251	1.61175
