Adsorption isotherm of Carbon Dioxide on MIL-53(Al)
DOI: 10.1021/jp206959k
Adsorbate Carbon Dioxide: InChIKey CURLTUGMZLYLDI-UHFFFAOYSA-N
Temperature: 298 K
Tabular data in the source: 0
pressure (bar)	uptake (mmol/g)
0.212014	0.590611
0.565371	1.2794
0.777385	1.91927
0.989399	2.26357
1.34276	2.65679
1.69611	3.09927
2.26148	3.73827
2.61484	4.18075
2.9682	4.42619
3.18021	4.72123
3.60424	5.11428
4.02827	5.4088
4.16961	5.65475
4.66431	5.99836
5.01767	6.44084
5.65371	6.68558
6.00707	7.12806
6.9258	7.42137
7.56184	7.56758
8.19788	7.76306
8.76325	7.95871
9.39929	8.10493
10.0353	8.20188
10.6007	8.34827
11.0247	8.39649
11.2367	8.39597
11.8728	8.49292
12.5088	8.58988
13.2155	8.58814
13.8516	8.73436
14.0636	8.73383
14.417	8.73296
15.1237	8.78048
15.7597	8.82818
16.3958	8.82661
16.9611	8.92374
17.5972	8.92217
18.0212	9.01965
