Adsorption isotherm of Methane on UMCM-1
DOI: 10.1021/jp206959k
Adsorbate Methane: InChIKey VNWKTOKETHGBQD-UHFFFAOYSA-N
Temperature: 298 K
Tabular data in the source: 0
pressure (bar)	uptake (mmol/g)
2.04696	0.362694
3.41219	0.65285
4.77478	0.725389
5.96891	0.943005
7.50435	1.23316
9.03803	1.37824
10.5726	1.59585
11.9378	1.88601
13.4715	2.03109
15.1763	2.2487
16.1993	2.39378
16.7108	2.46632
18.2454	2.68394
19.78	2.90155
21.3136	3.04663
23.0175	3.19171
24.5512	3.33679
25.2321	3.33679
26.2542	3.40933
27.7879	3.5544
29.4909	3.62694
31.0237	3.69948
31.8756	3.77202
32.7267	3.77202
34.4297	3.84456
36.1327	3.9171
36.9838	3.9171
37.8349	3.9171
39.5379	3.98964
40.0485	3.98964
