Adsorption isotherm of Methane on CuBTC
DOI: 10.1021/jp206959k
Adsorbate Methane: InChIKey VNWKTOKETHGBQD-UHFFFAOYSA-N
Temperature: 298 K
Tabular data in the source: 0
pressure (bar)	uptake (mmol/g)
0.992194	0.57868
1.66105	0.700508
2.33161	0.761421
3.67274	0.883249
4.68029	0.913706
5.18364	0.944162
6.69368	1.03553
8.37265	1.09645
9.8844	1.1269
11.3962	1.15736
11.9004	1.15736
13.0751	1.21827
14.7549	1.24873
15.0902	1.27919
16.2667	1.27919
17.9465	1.30964
19.6272	1.30964
20.9709	1.3401
21.307	1.3401
22.8188	1.37056
24.4986	1.40102
25.1708	1.40102
26.1784	1.43147
27.691	1.43147
29.2027	1.46193
30.8834	1.46193
32.059	1.49239
32.3952	1.49239
34.075	1.52284
35.0834	1.52284
35.7548	1.5533
36.7632	1.5533
37.4355	1.5533
39.1162	1.5533
39.9556	1.58376
