Adsorption isotherm of Carbon Dioxide on ZIF-8
DOI: 10.1021/jp206959k
Adsorbate Carbon Dioxide: InChIKey CURLTUGMZLYLDI-UHFFFAOYSA-N
Temperature: 298 K
Tabular data in the source: 0
pressure (bar)	uptake (mmol/g)
0.791367	0.36
1.00719	0.6
1.22302	0.72
1.72662	1
1.94245	1.24
2.30216	1.44
2.73381	1.76
3.16547	2
3.52518	2.36
3.88489	2.68
4.38849	2.92
4.82014	3.2
5.32374	3.44
5.68345	3.72
6.18705	3.96
6.69065	4.24
7.1223	4.44
7.6259	4.68
7.98561	4.88
8.48921	5.04
9.06475	5.28
9.64029	5.44
10.2158	5.6
10.8633	5.84
11.4388	5.96
12.0863	6.12
12.6619	6.24
13.3094	6.32
13.9568	6.52
14.6043	6.6
15.036	6.68
15.2518	6.68
15.8993	6.84
16.5468	6.84
17.1942	6.96
17.8417	7.04
18.0576	7.04
