Adsorption isotherm of Carbon Dioxide on CNT@CuBTC
DOI: 10.1021/jp206959k
Adsorbate Carbon Dioxide: InChIKey CURLTUGMZLYLDI-UHFFFAOYSA-N
Temperature: 298 K
Tabular data in the source: 0
pressure (bar)	uptake (mmol/g)
0.33195	0.39834
0.497925	0.796405
0.6639	1.32707
0.829876	1.72513
0.995851	2.1895
1.65975	2.85358
2.15768	4.18037
2.82158	4.91075
3.81743	5.97318
4.6473	6.83643
6.639	8.0331
8.63071	8.83198
10.4564	9.2991
12.1162	9.76594
15.1037	10.3013
18.2573	10.7043
21.0788	10.9742
25.0622	11.246
28.2158	11.4501
32.1992	11.6556
35.1867	11.7268
37.1784	11.7964
40.166	11.8677
