Adsorption isotherm of Carbon Dioxide on CNT@CuBTC
DOI: 10.1021/jp206959k
Adsorbate Carbon Dioxide: InChIKey CURLTUGMZLYLDI-UHFFFAOYSA-N
Temperature: 298 K
Tabular data in the source: 0
pressure (bar)	uptake (mmol/g)
0.349164	1.31937
0.417358	1.90576
0.556353	2.56545
0.696466	3.00524
0.836206	3.51832
0.905517	3.88482
1.04488	4.4712
1.32697	4.98429
1.60832	5.64398
1.88966	6.30366
2.09983	6.96335
3.0169	8.57592
3.51288	9.01571
3.93695	9.60209
4.43331	9.96859
5.00047	10.4084
5.56837	10.7016
6.13627	10.9948
6.77535	11.288
7.34326	11.5812
7.98271	11.801
8.62216	12.0209
9.33316	12.1675
9.90144	12.3874
10.5416	12.4607
11.1815	12.6073
11.8925	12.7539
12.5327	12.8272
13.1017	12.9005
13.8127	13.0471
14.3817	13.1204
15.0931	13.1937
15.6621	13.267
16.3735	13.3403
17.0133	13.4869
17.5827	13.4869
