Adsorption isotherm of Carbon Dioxide on MOF-177
DOI: 10.1021/jp206959k
Adsorbate Carbon Dioxide: InChIKey CURLTUGMZLYLDI-UHFFFAOYSA-N
Temperature: 298 K
Tabular data in the source: 0
pressure (bar)	uptake (mmol/g)
1.28151	1.28151
1.85042	1.50573
2.42017	1.88267
2.99033	2.16604
3.55966	2.63654
4.05798	3.01314
4.5563	3.38974
5.12646	3.67311
5.62394	4.23684
6.19369	4.61377
6.90462	5.36564
7.40252	5.8358
7.82941	6.21207
8.39916	6.589
8.89622	7.2463
9.46555	7.7168
9.89161	8.28019
10.3891	8.84393
10.8866	9.40766
11.3836	10.065
11.8807	10.7222
12.3782	11.286
12.8753	11.9433
13.3727	12.507
13.7984	13.164
14.2963	13.6341
14.7933	14.2914
15.3627	14.7619
15.8597	15.4192
16.3576	15.8894
16.927	16.3599
17.4963	16.8304
18.066	17.2073
