Adsorption isotherm of Carbon Dioxide on CuBTC
DOI: 10.1021/jp206959k
Adsorbate Carbon Dioxide: InChIKey CURLTUGMZLYLDI-UHFFFAOYSA-N
Temperature: 298 K
Tabular data in the source: 0
pressure (bar)	uptake (mmol/g)
0.20979	1.04639
0.41958	1.62371
0.699301	2.12887
0.909091	2.56186
1.18881	2.77835
1.46853	3.10309
1.74825	3.42784
1.95804	3.68041
2.37762	3.96907
2.7972	4.25773
3.91608	4.87113
4.40559	5.01546
4.96503	5.23196
5.52448	5.37629
6.15385	5.48454
6.71329	5.62887
7.34266	5.73711
8.04196	5.84536
8.67133	5.95361
9.3007	6.02577
9.86014	6.09794
10.5594	6.1701
11.2587	6.24227
11.8881	6.35052
12.5175	6.3866
13.2168	6.3866
13.8462	6.49485
14.5455	6.49485
14.965	6.53093
15.2448	6.53093
15.8741	6.60309
16.014	6.60309
16.5734	6.63918
17.1329	6.67526
17.2727	6.67526
17.9021	6.71134
18.1818	6.71134
