Adsorption isotherm of Methane on MOF-177
DOI: 10.1021/jp206959k
Adsorbate Methane: InChIKey VNWKTOKETHGBQD-UHFFFAOYSA-N
Temperature: 298 K
Tabular data in the source: 0
pressure (bar)	uptake (mmol/g)
1.2836	0.473841
1.92519	0.757545
2.63904	0.854452
3.21004	0.95069
3.85163	1.23439
4.06633	1.14183
4.49406	1.33097
5.13607	1.5211
5.77807	1.71124
6.06337	1.80614
6.70579	1.90272
7.41964	1.99962
7.99023	2.18943
8.13308	2.1901
8.91794	2.3809
9.55995	2.57104
10.2024	2.66761
10.9158	2.85809
11.6297	2.95499
12.2007	3.05123
12.9141	3.2417
13.5565	3.33828
13.9847	3.43385
14.2704	3.43518
14.8405	3.71855
15.1977	3.72022
16.1968	3.91203
16.9107	4.00894
17.196	4.10384
17.838	4.29398
