Adsorption isotherm of Methane on MOF-177
DOI: 10.1021/jp206959k
Adsorbate Methane: InChIKey VNWKTOKETHGBQD-UHFFFAOYSA-N
Temperature: 298 K
Tabular data in the source: 0
pressure (bar)	uptake (mmol/g)
1.69941	0.42463
2.54689	0.426415
3.73514	0.597337
4.24452	0.68262
6.28114	0.939539
8.31776	1.19646
9.84589	1.45231
11.7121	1.62466
13.2394	1.79629
15.1065	2.05286
17.822	2.39541
19.3483	2.48284
20.8756	2.65447
23.2503	2.8279
24.947	2.99989
26.4734	3.08731
27.9997	3.17474
32.0694	3.35173
34.9517	3.442
36.9874	3.61471
38.6824	3.61828
39.8689	3.62078
