Adsorption isotherm of Carbon Dioxide on UMCM-1
DOI: 10.1021/jp206959k
Adsorbate Carbon Dioxide: InChIKey CURLTUGMZLYLDI-UHFFFAOYSA-N
Temperature: 298 K
Tabular data in the source: 0
pressure (bar)	uptake (mmol/g)
0.172859	0.217617
1.02569	0.362694
1.88116	0.725389
2.56466	0.943005
3.59034	1.3057
4.44582	1.66839
6.49719	2.39378
8.71966	3.19171
10.0875	3.69948
12.31	4.49741
16.2434	6.02073
18.2983	7.03627
21.0341	8.05181
25.135	9.35751
28.0401	10.3005
30.088	10.7358
31.9674	11.3161
34.6969	11.8238
37.087	12.4041
38.6215	12.6218
39.9859	12.8394
