Adsorption isotherm of Carbon Dioxide on MOF-177
DOI: 10.1021/jp206959k
Adsorbate Carbon Dioxide: InChIKey CURLTUGMZLYLDI-UHFFFAOYSA-N
Temperature: 298 K
Tabular data in the source: 0
pressure (bar)	uptake (mmol/g)
0.850153	0.254421
1.70031	0.508843
2.38096	0.762907
3.40061	1.01769
4.42115	1.35668
6.29452	2.20273
8.5042	2.79685
10.0359	3.38955
11.738	4.06682
15.1422	5.42135
18.037	6.6906
20.7632	8.04371
25.0184	9.73688
27.9105	10.7535
32.1613	12.0256
35.0516	12.8738
36.9214	13.383
39.9795	14.0631
