Adsorption isotherm of Methane on CNT@CuBTC
DOI: 10.1021/jp206959k
Adsorbate Methane: InChIKey VNWKTOKETHGBQD-UHFFFAOYSA-N
Temperature: 298 K
Tabular data in the source: 0
pressure (bar)	uptake (mmol/g)
0.42481	0.439791
0.920795	0.879581
1.5595	1.24607
2.05549	1.68586
2.62339	1.97906
3.11975	2.34555
3.68765	2.63874
4.3271	2.85864
4.89426	3.29843
5.46254	3.51832
6.10162	3.81152
6.66952	4.10471
7.23817	4.25131
7.80608	4.5445
8.37435	4.7644
8.94189	5.13089
9.51091	5.20419
10.15	5.49738
10.7898	5.64398
11.3581	5.86387
11.9975	6.08377
12.7085	6.23037
13.348	6.45026
14.059	6.59686
14.6984	6.81675
15.4094	6.96335
16.2628	7.10995
16.9022	7.32984
17.6136	7.40314
18.2538	7.47644
