Adsorption isotherm of Carbon Dioxide on MIL-53(Al)
DOI: 10.1021/jp206959k
Adsorbate Carbon Dioxide: InChIKey CURLTUGMZLYLDI-UHFFFAOYSA-N
Temperature: 298 K
Tabular data in the source: 0
pressure (bar)	uptake (mmol/g)
0.424028	0.393044
0.848057	0.786089
1.27208	1.03135
1.76678	1.37496
2.33216	1.57061
2.75618	1.91439
3.32155	2.06078
3.88693	2.3057
4.02827	2.30535
4.4523	2.45209
5.08834	2.64757
5.72438	2.79378
6.21908	2.89109
6.85512	3.08656
6.99647	3.13548
7.49117	3.18352
8.12721	3.28047
8.83392	3.37726
9.46996	3.47421
10.1767	3.57099
10.8127	3.66795
11.4488	3.7649
12.1555	3.81242
12.7915	3.95864
13.3569	4.00651
14.0636	4.10329
14.6996	4.15099
15.4064	4.24777
16.1131	4.29529
16.7491	4.39224
17.3852	4.43994
18.0919	4.48746
