Adsorption isotherm of Ethane on AlMePO-alpha
DOI: 10.1021/La803042z
Adsorbate Ethane: InChIKey OTMSDBZUPAUEDD-UHFFFAOYSA-N
Temperature: 323 K
Tabular data in the source: 0
pressure (bar)	uptake (mmol/g)
0.260417	0.0174545
1.38889	0.128
2.51736	0.238545
5.03472	0.448
8.68056	0.669091
12.2396	0.814545
15.5382	0.925091
18.9236	0.989091
23.2639	1.05891
