Adsorption isotherm of Ethene on AlMePO-alpha
DOI: 10.1021/La803042z
Adsorbate Ethene: InChIKey VGGSQFUCUMXWEO-UHFFFAOYSA-N
Temperature: 273 K
Tabular data in the source: 0
pressure (bar)	uptake (mmol/g)
0.862069	0.224221
1.81992	0.403666
3.44828	0.628083
6.13027	0.820769
8.71648	0.923831
10.9195	1.014
13.41	1.05303
16.3793	1.10499
19.1571	1.1441
21.7433	1.18317
