Adsorption isotherm of Ethane on AlMePO-alpha
DOI: 10.1021/La803042z
Adsorbate Ethane: InChIKey OTMSDBZUPAUEDD-UHFFFAOYSA-N
Temperature: 298 K
Tabular data in the source: 0
pressure (bar)	uptake (mmol/g)
0.262238	0.0177122
1.04895	0.224354
2.0979	0.425092
4.28322	0.708487
7.34266	0.938745
10.3147	1.06273
13.0245	1.14539
15.6469	1.18672
19.1434	1.23985
22.2028	1.26937
