Adsorption isotherm of Ethene on AlMePO-alpha
DOI: 10.1021/La803042z
Adsorbate Ethene: InChIKey VGGSQFUCUMXWEO-UHFFFAOYSA-N
Temperature: 298 K
Tabular data in the source: 0
pressure (bar)	uptake (mmol/g)
1.23241	0.13494
2.27513	0.250602
4.1728	0.430522
7.2155	0.610442
10.262	0.726104
13.1193	0.816064
15.7876	0.873896
19.2189	0.938153
22.9376	0.983133
