Adsorption isotherm of Ethane on AlMePO-alpha
DOI: 10.1021/La803042z
Adsorbate Ethane: InChIKey OTMSDBZUPAUEDD-UHFFFAOYSA-N
Temperature: 323 K
Tabular data in the source: 0
pressure (bar)	uptake (mmol/g)
0.347222	0.0407273
1.30208	0.209455
2.60417	0.343273
4.94792	0.570182
8.68056	0.779636
12.1528	0.896
15.5382	0.994909
19.0104	1.07055
23.3507	1.11709
