Adsorption isotherm of Ethene on AlMePO-alpha
DOI: 10.1021/La803042z
Adsorbate Ethene: InChIKey VGGSQFUCUMXWEO-UHFFFAOYSA-N
Temperature: 273 K
Tabular data in the source: 0
pressure (bar)	uptake (mmol/g)
0.0957854	0.0512245
0.766284	0.300996
1.81992	0.512466
3.44828	0.775283
6.13027	0.993569
8.5249	1.10298
10.9195	1.1676
13.3142	1.21941
16.3793	1.25859
19.1571	1.2977
21.6475	1.31114
