Adsorption isotherm of Ethene on AlMePO-alpha
DOI: 10.1021/La803042z
Adsorbate Ethene: InChIKey VGGSQFUCUMXWEO-UHFFFAOYSA-N
Temperature: 323 K
Tabular data in the source: 0
pressure (bar)	uptake (mmol/g)
0.284791	0.0064
1.42053	0.0896
2.65133	0.1728
5.21027	0.3008
9.00304	0.4608
12.6084	0.576
16.1202	0.6656
19.7285	0.7296
24.3821	0.8
