Adsorption isotherm of Ethane on AlMePO-alpha
DOI: 10.1021/La803042z
Adsorbate Ethane: InChIKey OTMSDBZUPAUEDD-UHFFFAOYSA-N
Temperature: 298 K
Tabular data in the source: 0
pressure (bar)	uptake (mmol/g)
0.34965	0.0708487
1.13636	0.354244
2.18531	0.537269
4.1958	0.791144
7.43007	1.00369
10.2273	1.10406
13.1119	1.17491
15.6469	1.22214
19.1434	1.26937
22.2902	1.28118
