Adsorption isotherm of Ethane on AlMePO-alpha
DOI: 10.1021/La803042z
Adsorbate Ethane: InChIKey OTMSDBZUPAUEDD-UHFFFAOYSA-N
Temperature: 273 K
Tabular data in the source: 0
pressure (bar)	uptake (mmol/g)
0.0880682	0.0232727
0.0915404	0.0872727
0.535669	0.273455
0.892677	0.453818
1.07386	0.593455
1.69034	0.756364
3.35511	1.04145
5.7077	1.20436
8.05587	1.28582
10.1408	1.31491
11.8782	1.33818
14.2238	1.37309
16.3078	1.38473
18.2175	1.38473
20.5622	1.40218
22.386	1.41964
