Adsorption isotherm of Ethene on AlMePO-alpha
DOI: 10.1021/La803042z
Adsorbate Ethene: InChIKey VGGSQFUCUMXWEO-UHFFFAOYSA-N
Temperature: 323 K
Tabular data in the source: 0
pressure (bar)	uptake (mmol/g)
0.378707	0.0256
1.42053	0.0896
2.84259	0.1536
5.21103	0.288
9.09924	0.4416
12.6103	0.544
16.2175	0.6272
19.73	0.704
24.3833	0.7808
