Adsorption isotherm of Ethane on AlMePO-alpha
DOI: 10.1021/La803042z
Adsorbate Ethane: InChIKey OTMSDBZUPAUEDD-UHFFFAOYSA-N
Temperature: 298 K
Tabular data in the source: 0
pressure (bar)	uptake (mmol/g)
0.174825	0.0413284
1.13636	0.259779
2.18531	0.466421
4.28322	0.726199
7.34266	0.926937
10.2273	1.03911
13.1119	1.11587
19.1434	1.21033
22.2902	1.23985
