Adsorption isotherm of Ethene on AlMePO-alpha
DOI: 10.1021/La803042z
Adsorbate Ethene: InChIKey VGGSQFUCUMXWEO-UHFFFAOYSA-N
Temperature: 298 K
Tabular data in the source: 0
pressure (bar)	uptake (mmol/g)
0.379763	0.0321285
1.23011	0.173494
2.27168	0.308434
4.16628	0.539759
7.11204	0.745382
10.1574	0.880321
13.0147	0.970281
15.7776	1.04096
19.3043	1.10522
22.8318	1.15663
