Adsorption isotherm of Ethene on AlMePO-alpha
DOI: 10.1021/La803042z
Adsorbate Ethene: InChIKey VGGSQFUCUMXWEO-UHFFFAOYSA-N
Temperature: 298 K
Tabular data in the source: 0
pressure (bar)	uptake (mmol/g)
0.28511	0.0192771
1.13622	0.147791
2.2736	0.276305
4.17165	0.449799
7.11778	0.648996
10.1651	0.751807
13.0223	0.841767
15.6906	0.899598
19.3127	0.963855
22.8406	1.00884
