Adsorption isotherm of Ethane on AlMePO-alpha
DOI: 10.1021/La803042z
Adsorbate Ethane: InChIKey OTMSDBZUPAUEDD-UHFFFAOYSA-N
Temperature: 323 K
Tabular data in the source: 0
pressure (bar)	uptake (mmol/g)
0.173611	0.0290909
1.38889	0.162909
2.51736	0.296727
5.03472	0.506182
8.68056	0.704
12.1528	0.837818
15.5382	0.925091
18.9236	0.994909
23.2639	1.04727
