Adsorption isotherm of Ethene on AlMePO-alpha
DOI: 10.1021/La803042z
Adsorbate Ethene: InChIKey VGGSQFUCUMXWEO-UHFFFAOYSA-N
Temperature: 273 K
Tabular data in the source: 0
pressure (bar)	uptake (mmol/g)
0.0957854	0.0448245
0.862069	0.237021
1.72414	0.422841
3.54406	0.647307
6.22605	0.833594
8.62069	0.936607
11.1111	1.01404
13.41	1.05303
16.2835	1.11137
19.1571	1.1505
21.7433	1.16397
