Adsorption isotherm of Ethene on AlMePO-alpha
DOI: 10.1021/La803042z
Adsorbate Ethene: InChIKey VGGSQFUCUMXWEO-UHFFFAOYSA-N
Temperature: 323 K
Tabular data in the source: 0
pressure (bar)	uptake (mmol/g)
0.378707	0.0256
1.41977	0.1024
2.74487	0.1984
5.11179	0.3584
8.9981	0.544
12.603	0.6656
16.2087	0.7744
19.6262	0.8512
24.3745	0.928
