Adsorption isotherm of Ethane on AlMePO-alpha
DOI: 10.1021/La803042z
Adsorbate Ethane: InChIKey OTMSDBZUPAUEDD-UHFFFAOYSA-N
Temperature: 273 K
Tabular data in the source: 0
pressure (bar)	uptake (mmol/g)
0.094697	0.145455
0.900568	0.599273
1.69602	0.861091
3.44539	1.10545
5.70991	1.24509
7.88384	1.31491
9.96843	1.33818
11.8791	1.35564
14.2244	1.38473
16.3081	1.39055
18.2187	1.408
20.5631	1.41964
22.2992	1.41964
