Adsorption isotherm of Ethane on AlMePO-alpha
DOI: 10.1021/La803042z
Adsorbate Ethane: InChIKey OTMSDBZUPAUEDD-UHFFFAOYSA-N
Temperature: 273 K
Tabular data in the source: 0
pressure (bar)	uptake (mmol/g)
0.0899621	0.0581818
0.0931187	0.116364
0.537879	0.314182
0.894255	0.482909
0.987689	0.605091
1.69034	0.756364
3.35354	1.01236
5.70612	1.17527
7.96654	1.23927
10.0524	1.28582
11.8772	1.32073
14.1354	1.344
16.3065	1.36145
18.1307	1.38473
20.5622	1.40218
22.2121	1.41382
