Adsorption isotherm of Acetylene on ZJU-8a
DOI: 10.1039/c5ra12700a
Article source: Figure 3- 298 K
Adsorbate Acetylene: InChIKey HSFWRNGVRCDJHI-UHFFFAOYSA-N
Kind: experiment
Temperature: 298 K
Tabular data in the source: 0
pressure (bar)	uptake (cm3(STP)/g)
0.00235	1.62
0.00527	5.266
0.00978	9.289
0.01327	12.152
0.01722	14.798
0.01844	19.386
0.02107	22.197
0.03275	25.114
0.03736	31.811
0.06485	38.725
0.06889	46.34
0.09262	48.312
0.1009	57.385
0.12604	58.359
0.1313	67.027
0.15758	67.109
0.16247	75.507
0.18893	74.887
0.19316	83.258
0.22056	82.071
0.2247	90.658
0.2522	89.255
0.25577	97.167
0.28336	95.332
0.28787	103.919
0.31556	101.652
0.31762	109.888
0.34644	107.27
0.35086	115.668
0.3778	112.915
0.38042	121.286
0.40934	118.101
0.41244	126.337
0.4405	123.233
0.4436	131.631
0.47195	128.338
0.47524	136.601
0.5033	133.146
0.50565	140.923
0.53409	138.035
0.53663	145.515
0.56564	142.6
0.56855	149.621
0.5969	146.895
0.59887	154.023
0.62881	151.378
0.63031	158.129
0.65932	155.484
0.66092	161.857
0.69096	159.59
0.69274	165.693
0.7225	163.426
0.72372	163.731
0.7531	172.534
0.75442	172.905
0.78483	171.421
0.78671	176.363
0.816	175.176
0.81731	180.037
0.84745	178.715
0.84792	178.755
0.87862	182.038
0.87974	185.872
0.9095	188.588
0.91063	189.114
0.94085	192.14
0.94114	192.112
0.95535	193.193
0.97221	192.276
0.98737	195.922
1.00404	195.518
1.01901	198.651
1.03426	198.705
1.06703	201.704
