Adsorption isotherm of Nitrogen on ZJU-8a
DOI: 10.1039/c5ra12700a
Article source: Figure 4b- N2
Adsorbate Nitrogen: InChIKey IJGRMHOSHXDMSA-UHFFFAOYSA-N
Kind: experiment
Temperature: 298 K
Tabular data in the source: 0
pressure (bar)	uptake (cm3(STP)/g)
0.00711	0.534
0.0185	0.666
0.03402	0.758
0.03944	0.69
0.06522	0.934
0.07128	0.933
0.09634	1.1
0.10013	1.099
0.12826	1.247
0.13287	1.236
0.15792	1.442
0.1618	1.45
0.18993	1.856
0.19243	1.836
0.22298	2.127
0.22767	2.126
0.25216	2.264
0.25539	2.254
0.28594	2.543
0.28764	2.554
0.31738	2.911
0.31884	2.835
0.34793	3.03
0.34939	3.041
0.3797	3.32
0.38156	3.243
0.40936	3.601
0.41251	3.505
0.44209	3.824
0.44387	3.804
0.47272	4.009
0.47507	3.999
0.50416	4.357
0.50562	4.223
0.53593	4.36
0.53762	4.379
0.56785	4.755
0.57011	4.65
0.59888	4.988
0.60042	4.993
0.63049	5.231
0.66168	5.387
0.69248	5.668
0.72343	5.901
0.75487	6.028
0.78615	6.328
0.81694	6.504
0.84846	6.775
0.87982	6.922
0.91134	7.116
0.94197	7.378
0.95442	7.529
0.97196	7.592
0.98513	7.704
1.00397	7.739
1.01617	7.927
1.03581	8.067
1.06709	8.243
