Adsorption isotherm of Acetylene on ZJU-8a
DOI: 10.1039/c5ra12700a
Article source: Figure 3- 273 K
Adsorbate Acetylene: InChIKey HSFWRNGVRCDJHI-UHFFFAOYSA-N
Kind: experiment
Temperature: 273 K
Tabular data in the source: 0
pressure (bar)	uptake (cm3(STP)/g)
0.01081	25.437
0.01598	30.892
0.02247	39.182
0.03376	46.419
0.03818	53.035
0.06378	67.078
0.0698	74.018
0.09174	82.227
0.10049	90.491
0.12544	97.566
0.13127	104.371
0.15763	110.961
0.16271	116.929
0.18869	122.061
0.19321	128.623
0.21957	132.701
0.22456	138.75
0.25215	142.802
0.25544	148.526
0.28368	151.957
0.28528	156.845
0.31503	160.356
0.31814	165.703
0.34638	168.539
0.34949	174.021
0.37783	176.237
0.38131	181.691
0.40975	183.637
0.41181	188.875
0.44091	190.848
0.44364	195.682
0.47132	197.006
0.4748	202.029
0.50267	203.623
0.50606	208.025
0.5344	209.592
0.53685	214.21
0.56566	215.534
0.56792	219.666
0.59673	221.125
0.59908	224.905
0.62856	226.284
0.63034	229.983
0.65953	231.2
0.66132	235.007
0.69117	235.981
0.6922	236.193
0.72243	240.708
0.72431	243.813
0.75322	244.786
0.75472	248.054
0.78476	251.479
0.78579	251.674
0.81583	252.944
0.81724	255.806
0.84756	259.198
0.84766	259.21
0.8776	260.454
0.88005	262.452
0.90971	263.209
0.9098	263.218
0.94012	266.721
0.94097	266.755
0.95604	269.989
0.9728	269.747
0.98711	272.961
1.00349	272.502
1.01771	275.392
1.03419	275.609
1.06574	278.068
