Adsorption isotherm of Methane on ZJU-8a
DOI: 10.1039/c5ra12700a
Article source: Figure 4b- CH4
Adsorbate Methane: InChIKey VNWKTOKETHGBQD-UHFFFAOYSA-N
Kind: experiment
Temperature: 298 K
Tabular data in the source: 0
pressure (bar)	uptake (cm3(STP)/g)
0.01248	2.071
0.02306	2.47
0.03374	1.205
0.03977	2.762
0.06507	1.828
0.07069	3.557
0.09656	2.557
0.10137	4.295
0.12756	3.275
0.13278	4.946
0.15889	3.908
0.16354	5.656
0.18989	4.646
0.19463	6.326
0.22226	5.45
0.22587	6.959
0.25359	6.092
0.25647	7.707
0.28484	6.887
0.28772	8.291
0.31592	7.51
0.31969	9.029
0.34636	8.248
0.35037	9.738
0.37833	8.842
0.38194	10.332
0.40917	9.637
0.41278	11.022
0.44026	10.222
0.44427	11.578
0.47231	10.988
0.47536	12.335
0.50364	11.678
0.50637	12.786
0.53448	12.33
0.53745	13.629
0.56565	13.058
0.56902	14.214
0.59738	13.729
0.59978	14.78
0.6283	14.371
0.63087	15.498
0.65955	15.052
0.66219	16.16
0.69047	15.694
0.69288	16.716
0.7226	16.403
0.72437	17.148
0.75393	17.064
0.75561	17.876
0.78445	17.764
0.7867	18.336
0.81642	18.406
0.81787	18.484
0.84759	19.029
0.84919	19.755
0.87867	19.747
0.88004	20.359
0.90984	20.313
0.9112	20.963
0.94117	21.06
0.95424	21.621
0.97241	21.731
0.98395	22.177
1.00366	22.344
1.01569	22.666
1.03474	23.006
1.06648	23.629
