Adsorption isotherm of Carbon Dioxide on ZJU-8a
DOI: 10.1039/c5ra12700a
Article source: Figure 4a- CO2
Adsorbate Carbon Dioxide: InChIKey CURLTUGMZLYLDI-UHFFFAOYSA-N
Kind: experiment
Temperature: 273 K
Tabular data in the source: 0
pressure (bar)	uptake (cm3(STP)/g)
0.01425	4.562
0.01442	4.666
0.02191	8.254
0.03426	8.67
0.039	11.937
0.06361	16.101
0.07037	19.046
0.09683	23.418
0.10182	25.961
0.12731	30.173
0.13198	32.523
0.15885	36.863
0.16352	38.81
0.19014	43.408
0.19433	44.743
0.22079	49.213
0.22506	50.661
0.25273	55.339
0.25612	56.369
0.2846	60.998
0.28742	61.851
0.31476	66.642
0.31815	67.285
0.34639	72.124
0.35018	72.477
0.37688	77.446
0.38229	77.927
0.40907	82.59
0.41311	82.991
0.43957	87.589
0.44393	87.926
0.47168	92.524
0.47653	92.619
0.50242	97.249
0.5067	97.522
0.53357	102.039
0.53631	102.393
0.56568	106.748
0.56746	106.78
0.59554	111.056
0.59966	111.377
0.62806	115.877
0.63105	115.925
0.65961	120.12
0.66066	120.2
0.69076	124.523
0.72223	128.669
0.7236	128.943
0.75241	133.009
0.75564	133.523
0.78421	137.058
0.78606	137.316
0.81559	141.622
0.84772	145.655
0.84852	146.073
0.87798	149.608
0.8791	150.268
0.90864	153.577
0.90985	154.188
0.93907	157.546
0.94076	157.771
0.95593	160.311
0.97167	161.562
0.98773	164.183
1.00267	165.064
1.0192	168.248
1.03366	169.097
1.06497	172.776
