Adsorption isotherm of Methane on ZJU-8a
DOI: 10.1039/c5ra12700a
Article source: Figure 4a- CH4
Adsorbate Methane: InChIKey VNWKTOKETHGBQD-UHFFFAOYSA-N
Kind: experiment
Temperature: 273 K
Tabular data in the source: 0
pressure (bar)	uptake (cm3(STP)/g)
0.00864	2.253
0.02335	2.925
0.03959	3.388
0.06408	3.429
0.07063	4.136
0.09552	3.968
0.10061	5.239
0.12728	5.2
0.13213	6.358
0.15823	6.287
0.16348	7.364
0.18878	7.325
0.19452	8.516
0.22022	8.476
0.22595	9.473
0.25255	9.45
0.2565	10.657
0.28285	10.553
0.28778	11.502
0.31502	11.543
0.31792	12.686
0.34629	12.871
0.35114	13.578
0.37741	13.732
0.38161	14.633
0.40941	14.819
0.41313	15.398
0.44093	15.841
0.44392	16.597
0.47148	16.847
0.47552	17.539
0.503	17.886
0.50599	18.384
0.53444	18.827
0.53734	19.229
0.56539	19.834
0.56813	20.332
0.59707	20.695
0.59933	21.29
0.62818	21.62
0.63004	21.974
0.6597	22.707
0.66164	23.109
0.69138	23.616
0.69227	23.634
0.72331	24.59
0.72427	24.815
0.7545	25.677
0.78513	26.651
0.81673	27.48
0.84801	28.583
0.87928	29.38
0.91007	30.257
0.94127	31.15
0.95412	31.485
0.97222	32.06
0.98507	32.363
1.0035	32.841
1.01651	33.111
1.03502	33.831
1.0667	34.676
