Adsorption isotherm of Nitrogen on ZJU-8a
DOI: 10.1039/c5ra12700a
Article source: Figure 4a- N2
Adsorbate Nitrogen: InChIKey IJGRMHOSHXDMSA-UHFFFAOYSA-N
Kind: experiment
Temperature: 273 K
Tabular data in the source: 0
pressure (bar)	uptake (cm3(STP)/g)
0.00823	0.834
0.01849	1.169
0.03392	1.406
0.04022	1.355
0.06599	1.588
0.071	1.716
0.09702	1.916
0.10219	1.915
0.12861	2.196
0.13192	2.211
0.15939	2.395
0.16343	2.394
0.19081	2.82
0.22095	3.084
0.22385	3.051
0.25407	3.331
0.25754	3.217
0.28598	3.835
0.28776	3.803
0.31611	4.309
0.31878	4.211
0.3477	4.492
0.35005	4.314
0.37929	4.997
0.38147	4.851
0.41007	5.309
0.41168	5.083
0.44157	5.604
0.44448	5.458
0.47211	5.981
0.4747	5.706
0.5037	6.083
0.5054	5.857
0.53464	6.379
0.53683	6.008
0.56599	6.916
0.56801	6.674
0.59855	6.825
0.62957	7.169
0.66124	7.481
0.6917	7.729
0.69299	7.568
0.72353	7.976
0.75439	8.272
0.78549	8.568
0.81692	8.815
0.84826	9.095
0.87896	9.488
0.91055	9.848
0.94165	10.079
0.95393	10.123
0.97268	10.327
0.98504	10.323
1.00378	10.638
1.01614	10.667
1.0348	10.934
1.06615	11.214
