Adsorption isotherm of Carbon Dioxide on ZJU-8a
DOI: 10.1039/c5ra12700a
Article source: Figure 4a- CO2
Adsorbate Carbon Dioxide: InChIKey CURLTUGMZLYLDI-UHFFFAOYSA-N
Kind: experiment
Temperature: 298 K
Tabular data in the source: 0
pressure (bar)	uptake (cm3(STP)/g)
0.01183	2.819
0.01319	3.584
0.01585	4.128
0.02334	4.959
0.03337	3.992
0.03882	6.926
0.06449	7.563
0.07017	10.708
0.0973	11.124
0.10162	14.126
0.12753	14.485
0.13184	17.745
0.15962	17.817
0.16272	21.154
0.19091	21.053
0.19425	24.505
0.22154	24.319
0.22529	27.799
0.25291	27.488
0.25601	30.93
0.28444	30.677
0.28737	34.224
0.31499	33.827
0.31857	37.413
0.34693	36.863
0.35018	40.42
0.37797	39.918
0.3809	43.522
0.40845	42.992
0.41171	46.434
0.4403	45.922
0.44315	49.536
0.47167	49.025
0.47445	52.256
0.50288	51.85
0.50525	55.168
0.53441	54.742
0.53678	57.936
0.56522	57.491
0.56735	60.732
0.59659	60.412
0.59888	63.433
0.62796	63.17
0.62969	66.087
0.65933	65.833
0.66114	68.778
0.6903	68.572
0.6922	71.201
0.72119	71.187
0.72317	73.845
0.75248	73.878
0.75422	76.384
0.7841	76.455
0.78463	78.846
0.81418	79.127
0.81624	81.346
0.84539	81.733
0.84689	83.702
0.87685	84.194
0.87876	86.059
0.90863	86.761
0.90908	86.801
0.93952	89.223
0.94055	89.28
0.95434	91.717
0.97122	91.743
0.98531	94.026
1.00275	94.348
1.0175	96.258
1.03332	96.886
1.06486	99.224
