Adsorption isotherm of Nitrogen on ZJU-8a
DOI: 10.1039/c5ra12700a
Article source: Figure 2- N2
Adsorbate Nitrogen: InChIKey IJGRMHOSHXDMSA-UHFFFAOYSA-N
Kind: experiment
Temperature: 77 K
Tabular data in the source: 0
pressure (bar)	uptake (cm3(STP)/g)
0.018542	5.21
0.018988	20.02
0.018998	19.85
0.019211	34.84
0.019211	210.15
0.019231	335.15
0.019282	41.05
0.019404	368.72
0.019404	398.11
0.019414	439.92
0.019515	374.76
0.019566	445.89
0.019576	413.75
0.019586	46.58
0.019586	392.28
0.019596	381.79
0.019596	368.61
0.019627	309.98
0.019637	460.51
0.019637	453.23
0.019657	419.9
0.019657	70.15
0.019657	53.42
0.019687	348.33
0.019687	378.32
0.019698	492.09
0.019708	466.41
0.019718	105.15
0.019718	434.27
0.019738	216.88
0.019738	387.76
0.019758	361.33
0.019779	316.01
0.019779	486.19
0.019799	428
0.019829	191.15
0.019829	355.3
0.019839	328.69
0.01986	301.57
0.01986	300.74
0.01986	111.67
0.01987	91.9
0.01987	86.63
0.01988	79.34
0.01988	237.29
0.01992	504.77
0.019931	472.69
0.019941	288.01
0.019941	99.06
0.019951	72.82
0.019961	59.76
0.019961	401.38
0.019981	196.54
0.019981	183.68
0.019981	176.46
0.019991	300.49
0.020002	321.97
0.020032	65.91
0.020042	229.5
0.020072	498.93
0.020154	131.76
0.020255	255.43
0.020265	231.63
0.020265	224.1
0.020295	163.53
0.020306	137.1
0.020316	118.77
0.020326	268.86
0.020336	249.9
0.020356	203.58
0.020376	144.63
0.020407	263.02
0.020458	150.91
0.020518	170.37
0.020528	510.86
0.020549	281.92
0.020599	524.04
0.020751	517.4
0.020974	529.5
0.022484	542.75
0.022494	542.74
0.023021	547.14
0.023467	559.63
0.023619	551.35
0.024227	562.19
0.024531	564.22
0.025899	568.3
0.029161	575.39
0.06958	604.01
0.103696	611.47
0.1369	616.49
0.168514	620.51
0.174066	620.38
0.2034	623.08
0.210239	624.27
0.238276	626.08
0.247628	626.4
0.273385	628.09
0.283649	628.65
0.307815	630.41
0.319589	630.78
0.343532	632.04
0.35409	632.29
0.378641	633.73
0.41291	635.17
0.41983	635.23
0.448323	636.67
0.487687	637.86
0.492936	637.98
0.522189	638.92
0.522341	639.01
0.556923	640.17
0.557379	640.2
0.591191	640.92
0.591951	648.89
0.626006	649.94
0.6263	649.95
0.660963	651.05
0.661338	651.08
0.695839	652.32
0.696062	652.33
0.729662	645.04
0.730492	653.52
0.764994	645.86
0.765065	645.86
0.799728	647.11
0.79987	647.09
0.833003	656.21
0.833084	656.18
0.86797	649.48
0.868345	649.61
0.900414	650.42
0.901863	650.48
0.935757	652.01
0.937125	651.8
0.971474	655.55
0.971778	655.44
1.00598	661.21
