Adsorption isotherm of Methane on ZIF-2
DOI: 10.1007/s10934-015-0060-4
Article source: Figure 3
Adsorbate Methane: InChIKey VNWKTOKETHGBQD-UHFFFAOYSA-N
Kind: experiment
Temperature: 298 K
Tabular data in the source: 0
pressure (bar)	uptake (mmol/g)
0.1513	0.1082
0.4913	0.6543
0.7006	0.9559
1.0147	1.2732
2.4963	2.5368
5.0431	3.8126
7.5048	4.552
9.9865	5.0621
14.9998	5.7536
19.9705	6.207
25.0073	6.5446
30.0079	6.7709
34.9722	6.984
39.9926	7.1272
45.0098	7.2902
49.9841	7.4192
55.0112	7.5144
59.9789	7.6522
