Adsorption isotherm of Methane on Cu-TDPAT
DOI: 10.1007/s10934-015-0060-4
Article source: Figure 1
Adsorbate Methane: InChIKey VNWKTOKETHGBQD-UHFFFAOYSA-N
Kind: experiment
Temperature: 298 K
Tabular data in the source: 0
pressure (bar)	uptake (mmol/g)
0.16202	0.18039
0.20446	0.22588
0.25551	0.27344
0.32243	0.33306
0.40713	0.42351
0.51694	0.51656
0.57569	0.58453
0.64665	0.64407
0.72814	0.71213
0.81515	0.80173
0.91379	0.89236
1.02655	1.00496
