Adsorption isotherm of Methane on Zn-MOF-74
DOI: 10.1007/s10934-015-0060-4
Article source: Figure 3
Adsorbate Methane: InChIKey VNWKTOKETHGBQD-UHFFFAOYSA-N
Kind: experiment
Temperature: 298 K
Tabular data in the source: 0
pressure (bar)	uptake (mmol/g)
0.2122	0.1042
2.5126	1.589
5.0111	2.8581
7.5046	3.8439
10.0275	4.5833
14.9994	5.6615
20.0047	6.4404
24.974	6.9579
29.9896	7.3801
34.9491	7.748
39.965	7.991
45.0148	8.245
49.9704	8.4352
54.9719	8.6669
59.9943	8.8364
