Adsorption isotherm of Methane on ZIF-70
DOI: 10.1007/s10934-015-0060-4
Article source: Figure 3
Adsorbate Methane: InChIKey VNWKTOKETHGBQD-UHFFFAOYSA-N
Kind: experiment
Temperature: 298 K
Tabular data in the source: 0
pressure (bar)	uptake (mmol/g)
0.2343	0.0852
0.4718	0.2053
0.716	0.2949
1.0262	0.4085
2.5307	0.9982
4.9727	1.7093
7.4774	2.322
9.9492	2.8747
15.0117	3.8283
19.9655	4.6617
25.0019	5.3444
29.9691	5.9551
34.9693	6.5155
39.9334	6.9558
44.9536	7.3797
49.954	7.7676
54.971	8.091
59.9583	8.4374
