Adsorption isotherm of Methane on UMCM-150
DOI: 10.1007/s10934-015-0060-4
Article source: Figure 3
Adsorbate Methane: InChIKey VNWKTOKETHGBQD-UHFFFAOYSA-N
Kind: experiment
Temperature: 298 K
Tabular data in the source: 0
pressure (bar)	uptake (mmol/g)
0.2738	0.2368
0.4915	0.3322
0.762	0.4952
1.0127	0.692
2.5237	1.6363
5.0079	3.0727
7.5252	4.3124
10.0261	5.5089
15.0114	7.6684
19.9971	9.3788
24.9995	10.7911
29.9888	11.9788
34.9716	12.982
39.9777	13.7731
44.9739	14.558
49.957	15.1338
54.9731	15.7557
59.9761	16.23
