Adsorption isotherm of Methane on Cu-TDPAT
DOI: 10.1007/s10934-015-0060-4
Article source: Figure 3
Adsorbate Methane: InChIKey VNWKTOKETHGBQD-UHFFFAOYSA-N
Kind: experiment
Temperature: 298 K
Tabular data in the source: 0
pressure (bar)	uptake (mmol/g)
0.3337	0.278
0.6537	0.557
1.0526	0.9174
2.5405	2.0915
5.0174	3.5986
7.5216	4.7736
9.9468	5.6657
14.9755	7.1733
20.0077	8.2657
24.9907	9.0352
30	9.7475
34.9668	10.3037
39.9863	10.7872
44.9959	11.1478
49.9594	11.5237
54.9559	11.7643
59.9624	12.0264
