Adsorption isotherm of Methane on UMCM-1
DOI: 10.1007/s10934-015-0060-4
Article source: Figure 3
Adsorbate Methane: InChIKey VNWKTOKETHGBQD-UHFFFAOYSA-N
Kind: experiment
Temperature: 298 K
Tabular data in the source: 0
pressure (bar)	uptake (mmol/g)
0.3463	0.3199
0.5344	0.3968
0.8775	0.5567
1.0953	0.6705
2.494	1.5994
4.9584	3.0174
7.4855	4.4753
10.0061	5.8041
15.0274	8.3698
20.026	10.6027
25.0049	12.6299
29.9773	14.3865
34.9696	16.0294
40.0116	17.4416
44.9678	18.7769
49.9589	20.1064
54.9597	21.1093
59.9623	22.0418
