Adsorption isotherm of Methane on MOF-74-Ni
DOI: 10.1007/s10934-015-0060-4
Article source: Figure 3
Adsorbate Methane: InChIKey VNWKTOKETHGBQD-UHFFFAOYSA-N
Kind: experiment
Temperature: 298 K
Tabular data in the source: 0
pressure (bar)	uptake (mmol/g)
0.3173	0.1068
0.643	0.2686
0.9162	0.3938
1.163	0.5243
2.5129	1.3071
5.0345	2.45
7.5009	3.3965
9.9731	4.1434
14.9898	5.3179
20.0083	6.1806
24.9841	6.81
29.9665	7.3472
34.9425	7.7464
39.9715	8.0666
44.9973	8.3918
49.9759	8.5955
54.9801	8.8326
59.9733	9.0228
