Adsorption isotherm of Methane on ZIF-11
DOI: 10.1007/s10934-015-0060-4
Article source: Figure 3
Adsorbate Methane: InChIKey VNWKTOKETHGBQD-UHFFFAOYSA-N
Kind: experiment
Temperature: 298 K
Tabular data in the source: 0
pressure (bar)	uptake (mmol/g)
0.1739	0.1646
0.498	0.4824
0.8056	0.6462
1.0134	0.7783
2.4975	1.3824
5.0153	1.9506
7.5103	2.381
10.0219	2.7316
15.0057	3.2953
19.9829	3.7444
24.9933	4.1104
29.9938	4.4306
34.9877	4.7278
40.0213	4.9442
44.9955	5.1213
49.9896	5.3038
54.9803	5.47
59.981	5.6013
