Adsorption isotherm of Methane on ZIF-68
DOI: 10.1007/s10934-015-0060-4
Article source: Figure 3
Adsorbate Methane: InChIKey VNWKTOKETHGBQD-UHFFFAOYSA-N
Kind: experiment
Temperature: 298 K
Tabular data in the source: 0
pressure (bar)	uptake (mmol/g)
0.221	0.1376
0.5046	0.4478
0.7355	0.6181
1.0192	0.7863
2.4905	1.5618
4.995	2.4301
7.4965	3.033
9.9947	3.5168
14.9849	4.2247
19.962	4.7938
24.9624	5.232
29.9662	5.6155
34.9931	5.9312
39.9837	6.2197
44.9777	6.4252
49.9783	6.6231
54.9624	6.8297
59.973	6.9882
