Adsorption isotherm of Methane on CuBTC
DOI: 10.1007/s10934-015-0060-4
Article source: Figure 3
Adsorbate Methane: InChIKey VNWKTOKETHGBQD-UHFFFAOYSA-N
Kind: experiment
Temperature: 298 K
Tabular data in the source: 0
pressure (bar)	uptake (mmol/g)
0.1915	0.3002
0.7361	0.7005
1.0503	0.9153
2.569	1.8235
5.0409	3.1321
7.513	4.1575
10.048	5.1537
14.9611	6.7653
20.0114	7.7306
24.9547	8.5739
29.969	9.2424
34.9869	9.7871
39.98	10.2251
44.9986	10.6359
49.9829	10.9456
54.9523	11.1988
59.9815	11.4827
