Adsorption isotherm of Methane on Bio-MOF-11
DOI: 10.1007/s10934-015-0060-4
Article source: Figure 3
Adsorbate Methane: InChIKey VNWKTOKETHGBQD-UHFFFAOYSA-N
Kind: experiment
Temperature: 298 K
Tabular data in the source: 0
pressure (bar)	uptake (mmol/g)
0.0966	0.0729
0.8107	0.6574
2.5339	1.3567
5.0349	2.0977
7.4935	2.563
10.0294	2.8456
15.012	3.2448
19.9849	3.4466
24.9678	3.5877
29.9932	3.7036
34.9705	3.7763
39.9663	3.8595
44.9989	3.9069
49.9654	3.9509
54.9616	3.9867
59.991	4.0143
