Adsorption isotherm of Methane on MOF-74-Co
DOI: 10.1007/s10934-015-0060-4
Article source: Figure 3
Adsorbate Methane: InChIKey VNWKTOKETHGBQD-UHFFFAOYSA-N
Kind: experiment
Temperature: 298 K
Tabular data in the source: 0
pressure (bar)	uptake (mmol/g)
0.291	0.1538
0.9948	0.5504
2.5129	1.3176
5.0292	2.5048
7.5008	3.469
10.0013	4.2644
15.0162	5.4247
19.9784	6.3105
24.9806	6.9678
29.9862	7.4656
34.9658	7.9143
39.9813	8.2458
45.0004	8.5496
49.9467	8.7926
54.9825	9.0191
59.9719	9.2555
