Adsorption isotherm of Nitrogen on Cu-TDPAT
DOI: 10.1007/s10934-015-0060-4
Article source: Figure 1
Adsorbate Nitrogen: InChIKey IJGRMHOSHXDMSA-UHFFFAOYSA-N
Kind: experiment
Temperature: 298 K
Tabular data in the source: 0
pressure (bar)	uptake (mmol/g)
0.20531	0.08833
0.25758	0.10789
0.3246	0.13762
0.41057	0.16658
0.51895	0.19607
0.58245	0.22063
0.65372	0.23521
0.73198	0.26503
0.82109	0.31345
0.92208	0.35326
1.03058	0.40169
