Adsorption isotherm of Methane on ZIF-8
DOI: 10.1007/s10934-015-0060-4
Article source: Figure 3
Adsorbate Methane: InChIKey VNWKTOKETHGBQD-UHFFFAOYSA-N
Kind: experiment
Temperature: 298 K
Tabular data in the source: 0
pressure (bar)	uptake (mmol/g)
0.2364	0.1068
0.5107	0.2692
0.9222	0.488
2.4677	1.3281
4.9719	2.4159
7.4864	3.1837
9.9911	3.7964
14.9944	4.6637
19.9813	5.3115
25.018	5.7485
29.9689	6.1069
34.9662	6.3976
40.0162	6.6544
44.974	6.8282
49.9647	7.0239
54.9851	7.2173
59.9726	7.3464
