Adsorption isotherm of Methane on ZIF-71
DOI: 10.1007/s10934-015-0060-4
Article source: Figure 3
Adsorbate Methane: InChIKey VNWKTOKETHGBQD-UHFFFAOYSA-N
Kind: experiment
Temperature: 298 K
Tabular data in the source: 0
pressure (bar)	uptake (mmol/g)
0.1723	0.0683
0.2508	0.1758
0.5283	0.3301
0.7849	0.4751
0.9578	0.5468
2.5345	1.0149
5.0218	1.5035
7.5175	1.8623
9.9994	2.1659
14.9898	2.686
19.9572	3.1142
24.9741	3.4737
29.96	3.7844
34.9686	4.0791
39.9643	4.3152
44.9893	4.5224
49.9921	4.7372
54.9743	4.8923
59.942	5.0279
