Adsorption isotherm of Nitrogen on CuBTC
DOI: 10.1007/s10934-015-0060-4
Article source: Figure 1
Adsorbate Nitrogen: InChIKey IJGRMHOSHXDMSA-UHFFFAOYSA-N
Kind: experiment
Temperature: 298 K
Tabular data in the source: 0
pressure (bar)	uptake (mmol/g)
0.6128	0.1968
1.3996	0.44477
2.36	0.73622
3.2351	0.97135
4.0234	1.19128
4.8972	1.41892
6.0979	1.69003
7.1119	1.92453
8.2788	2.17808
