Adsorption isotherm of Methane on ZIF-7
DOI: 10.1007/s10934-015-0060-4
Article source: Figure 3
Adsorbate Methane: InChIKey VNWKTOKETHGBQD-UHFFFAOYSA-N
Kind: experiment
Temperature: 298 K
Tabular data in the source: 0
pressure (bar)	uptake (mmol/g)
0.1023	0.0699
0.1645	0.5602
0.2565	0.9589
0.4905	1.3247
0.7345	1.5486
0.9984	1.7211
2.4898	2.2727
5.0047	2.6747
7.5281	2.8892
10.0232	3.0503
15.009	3.2549
19.9965	3.3905
24.9906	3.5043
29.9935	3.5628
34.9855	3.6575
39.9797	3.7069
44.9937	3.7365
49.9878	3.7826
54.9754	3.8123
59.9828	3.8747
