Adsorption isotherm of Methane on MIL-47
DOI: 10.1007/s10934-015-0060-4
Article source: Figure 3
Adsorbate Methane: InChIKey VNWKTOKETHGBQD-UHFFFAOYSA-N
Kind: experiment
Temperature: 298 K
Tabular data in the source: 0
pressure (bar)	uptake (mmol/g)
0.2877	0.1429
0.6084	0.5468
0.896	0.814
1.1126	1.0998
2.5253	2.386
4.9989	3.8702
7.4611	4.8893
9.9965	5.6092
15.0149	6.615
19.9939	7.2821
25.0062	7.7701
29.9888	8.1742
34.9913	8.4665
39.9873	8.7423
44.9933	8.982
49.9905	9.1685
55.0087	9.3131
59.9716	9.5186
