Adsorption isotherm of Methane on Pd(2-pymo)2
DOI: 10.1007/s10934-015-0060-4
Article source: Figure 3
Adsorbate Methane: InChIKey VNWKTOKETHGBQD-UHFFFAOYSA-N
Kind: experiment
Temperature: 298 K
Tabular data in the source: 0
pressure (bar)	uptake (mmol/g)
0.2962	0.1434
0.338	0.3756
0.5164	0.6314
0.779	0.8584
1.0101	1.0254
2.4915	1.7012
5.0031	2.2961
7.4677	2.6299
9.9864	2.8555
14.9956	3.1264
19.9574	3.3211
24.9514	3.4381
29.9443	3.5364
34.9372	3.5886
39.9665	3.6392
44.9892	3.7047
50.002	3.7504
54.9784	3.7878
59.9726	3.8111
