Adsorption isotherm of Methane on PCN-26
DOI: 10.1007/s10934-015-0060-4
Article source: Figure 3
Adsorbate Methane: InChIKey VNWKTOKETHGBQD-UHFFFAOYSA-N
Kind: experiment
Temperature: 298 K
Tabular data in the source: 0
pressure (bar)	uptake (mmol/g)
0.1918	0.1222
0.2831	0.4826
0.4163	0.7788
0.658	1.0253
0.9998	1.251
2.517	2.3943
5.0286	3.9014
7.499	5.1136
10.0026	6.0876
15.0238	7.5422
19.9925	8.4922
25.0145	9.1938
29.9737	9.7754
34.9596	10.1943
39.9953	10.5409
44.968	10.8858
49.964	11.1403
54.9601	11.3191
59.9958	11.5719
