Adsorption isotherm of Nitrogen on Bone Char
DOI: 10.1007/s10450-017-9917-y
Article source: Figure 6
Adsorbate Nitrogen: InChIKey IJGRMHOSHXDMSA-UHFFFAOYSA-N
Kind: experiment
Isotherm type: excess
Temperature: 77 K
Tabular data in the source: 0
pressure (bar)	uptake (cm3(STP)/g)
0.029801	25.1958
0.094371	29.3734
0.156103	32.376
0.216415	35.1175
0.286662	38.3812
0.346265	41.5144
0.413673	44.7781
0.476824	48.4334
0.54636	52.8721
0.609511	57.4413
0.671952	63.1854
0.738651	70.8877
0.801092	82.5065
0.866371	98.9556
0.930941	130.157
0.996221	179.634
0.046121	26.7624
0.11211	30.4178
0.173842	33.5509
0.237702	36.5535
0.302982	39.6867
0.362585	42.8198
0.431412	47.6501
0.494563	55.3525
0.559842	60.705
0.623702	66.8407
0.688272	75.3264
0.750713	87.7285
0.816702	107.05
0.877015	133.681
0.941585	168.016
0.996221	179.765
