Adsorption isotherm of As(III), Water on Da-KGM/10%GO/FMBO
DOI: 10.1016/j.ijbiomac.2016.10.059
Article source: Figure 7
Adsorbate As(III): InChIKey LULLIKNODDLMDQ-UHFFFAOYSA-N
Adsorbate Water: InChIKey XLYOFNOQVPJJNP-UHFFFAOYSA-N
Kind: experiment
Temperature: 313 K
Tabular data in the source: 0
pressure (bar)	As(III) fraction	As(III) uptake (mg/g)	Water fraction	Water uptake (mg/g)	total uptake (mg/g)
1.01325	-0.0224	0.0001			
1.01325	0.4478	4.318			
1.01325	0.5373	9.197			
1.01325	3.2239	22.623			
1.01325	6.4701	23.805			
1.01325	10.7687	26.903			
