Adsorption isotherm of As(III), Water on Da-KGM/10%GO/FMBO
DOI: 10.1016/j.ijbiomac.2016.10.059
Article source: Figure 7
Adsorbate As(III): InChIKey LULLIKNODDLMDQ-UHFFFAOYSA-N
Adsorbate Water: InChIKey XLYOFNOQVPJJNP-UHFFFAOYSA-N
Kind: experiment
Temperature: 303 K
Tabular data in the source: 0
pressure (bar)	As(III) fraction	As(III) uptake (mg/g)	Water fraction	Water uptake (mg/g)	total uptake (mg/g)
1.01325	0.0224	0.08			
1.01325	0.4701	4.717			
1.01325	0.9179	9.035			
1.01325	3.4254	21.182			
1.01325	7.1642	22.522			
1.01325	12.2463	25.135			
