Adsorption isotherm of As(III), Water on Da-KGM/10%GO/FMBO
DOI: 10.1016/j.ijbiomac.2016.10.059
Article source: Figure 7
Adsorbate As(III): InChIKey LULLIKNODDLMDQ-UHFFFAOYSA-N
Adsorbate Water: InChIKey XLYOFNOQVPJJNP-UHFFFAOYSA-N
Kind: experiment
Temperature: 323 K
Tabular data in the source: 0
pressure (bar)	As(III) fraction	As(III) uptake (mg/g)	Water fraction	Water uptake (mg/g)	total uptake (mg/g)
1.01325	0.0446	0.16			
1.01325	0.1339	5.041			
1.01325	0.2679	13.521			
1.01325	2.5893	24.014			
1.01325	5.5804	25.71			
1.01325	9.0402	28.928			
