Adsorption isotherm of Arsenate, Water on Da-KGM/10%GO/FMBO
DOI: 10.1016/j.ijbiomac.2016.10.059
Article source: Figure 7
Adsorbate Arsenate: InChIKey HAYXDMNJJFVXCI-UHFFFAOYSA-N
Adsorbate Water: InChIKey XLYOFNOQVPJJNP-UHFFFAOYSA-N
Kind: experiment
Temperature: 323 K
Tabular data in the source: 0
pressure (bar)	Arsenate fraction	Arsenate uptake (mg/g)	Water fraction	Water uptake (mg/g)	total uptake (mg/g)
1.01325	0.0449	0.03			
1.01325	0.1835	0.78			
1.01325	0.9562	2.91			
1.01325	1.8359	7.98			
1.01325	7.4774	9.33			
1.01325	16.0655	9.99			
1.01325	22.4666	11.28			
