Adsorption isotherm of Arsenate, Water on Da-KGM/10%GO/FMBO
DOI: 10.1016/j.ijbiomac.2016.10.059
Article source: Figure 7
Adsorbate Arsenate: InChIKey HAYXDMNJJFVXCI-UHFFFAOYSA-N
Adsorbate Water: InChIKey XLYOFNOQVPJJNP-UHFFFAOYSA-N
Kind: experiment
Temperature: 303 K
Tabular data in the source: 0
pressure (bar)	Arsenate fraction	Arsenate uptake (mg/g)	Water fraction	Water uptake (mg/g)	total uptake (mg/g)
1.01325	0.0449	0.03			
1.01325	0.139	0.81			
1.01325	1.2646	2.13			
1.01325	5.5783	5.76			
1.01325	9.7012	7.38			
1.01325	20.7462	7.68			
1.01325	25.4885	8.19			
