Adsorption isotherm of Arsenate, Water on Da-KGM/10%GO/FMBO
DOI: 10.1016/j.ijbiomac.2016.10.059
Article source: Figure 7
Adsorbate Arsenate: InChIKey HAYXDMNJJFVXCI-UHFFFAOYSA-N
Adsorbate Water: InChIKey XLYOFNOQVPJJNP-UHFFFAOYSA-N
Kind: experiment
Temperature: 313 K
Tabular data in the source: 0
pressure (bar)	Arsenate fraction	Arsenate uptake (mg/g)	Water fraction	Water uptake (mg/g)	total uptake (mg/g)
1.01325	0.0449	0.03			
1.01325	0.1835	0.78			
1.01325	1.1794	2.85			
1.01325	3.0807	6.78			
1.01325	7.9207	8.7			
1.01325	17.8918	8.85			
1.01325	22.727	9.96			
