Adsorption isotherm of Hydrogen on R2KCHA
DOI: 10.1021/Ja309274y
Adsorbate Hydrogen: InChIKey UFHFLCQGNIYNRP-UHFFFAOYSA-N
Temperature: 273 K
Tabular data in the source: 0
pressure (bar)	uptake (mmol/g)
0.00843241	0.014115
0.0489958	0.0169319
0.109841	0.014115
0.182517	0.0169319
0.255193	0.014115
0.371813	0.014115
0.486742	0.0169319
0.605052	0.014115
0.730123	0.0169319
0.843362	0.0169319
0.970123	0.0197488
1.03266	0.0169319
1.08505	0.0197488
1.14928	0.0197488
1.19322	0.0225657
