Adsorption isotherm of Nitrogen on R2KCHA
DOI: 10.1021/Ja309274y
Adsorbate Nitrogen: InChIKey IJGRMHOSHXDMSA-UHFFFAOYSA-N
Temperature: 273 K
Tabular data in the source: 0
pressure (bar)	uptake (mmol/g)
0.0168862	4.57e-06
0.091534	0.00253979
0.152097	0.00549753
0.214069	0.00887781
0.299985	0.0122581
0.423928	0.0177511
0.484492	0.0211313
0.599985	0.0278919
0.721112	0.0338074
0.901393	0.0384553
1.01266	0.0422581
