Adsorption isotherm of Carbon Dioxide on R1KCHA
DOI: 10.1021/Ja309274y
Adsorbate Carbon Dioxide: InChIKey CURLTUGMZLYLDI-UHFFFAOYSA-N
Temperature: 273 K
Tabular data in the source: 0
pressure (bar)	uptake (mmol/g)
0.00843546	0.332126
0.0253369	0.399309
0.0760411	0.498183
0.136604	0.567901
0.207027	0.626211
0.27745	0.670577
0.405619	0.731422
0.535196	0.779591
0.663365	0.817619
0.791534	0.850577
0.926745	0.878464
0.97745	0.888605
