Adsorption isotherm of Carbon Dioxide on R2KCHA
DOI: 10.1021/Ja309274y
Adsorbate Carbon Dioxide: InChIKey CURLTUGMZLYLDI-UHFFFAOYSA-N
Temperature: 253 K
Tabular data in the source: 0
pressure (bar)	uptake (mmol/g)
0.0387933	1.13536
0.0834138	1.42711
0.126318	1.60302
0.184668	1.72744
0.306516	1.88189
0.416351	1.97628
0.538199	2.05351
0.661764	2.10929
0.778463	2.15219
0.896879	2.18652
1.02044	2.22513
1.14058	2.25945
