Adsorption isotherm of Carbon Dioxide on R2KCHA
DOI: 10.1021/Ja309274y
Adsorbate Carbon Dioxide: InChIKey CURLTUGMZLYLDI-UHFFFAOYSA-N
Temperature: 273 K
Tabular data in the source: 0
pressure (bar)	uptake (mmol/g)
0.0101226	0.95496
0.0388549	1.28454
0.0777282	1.4789
0.182517	1.69299
0.305897	1.81975
0.417446	1.90426
0.537446	1.9775
0.657447	2.02538
0.777447	2.07609
0.895756	2.11834
1.01914	2.14651
1.13914	2.18031
