Adsorption isotherm of Nitrogen on R1KCHA
DOI: 10.1021/Ja309274y
Adsorbate Nitrogen: InChIKey IJGRMHOSHXDMSA-UHFFFAOYSA-N
Temperature: 273 K
Tabular data in the source: 0
pressure (bar)	uptake (mmol/g)
0.00280166	0.0418447
0.00421011	0.116633
0.00702701	0.230718
0.0422383	0.316915
0.0844918	0.368887
0.119703	0.396774
0.242238	0.463957
0.366182	0.507056
0.484492	0.543817
0.605619	0.580577
0.72252	0.607197
0.846464	0.630014
0.964773	0.654098
1.02393	0.665507
