Adsorption isotherm of Carbon Dioxide on R2KCHA
DOI: 10.1021/Ja309274y
Adsorbate Carbon Dioxide: InChIKey CURLTUGMZLYLDI-UHFFFAOYSA-N
Temperature: 273 K
Tabular data in the source: 0
pressure (bar)	uptake (mmol/g)
0.0140693	0.00253979
0.0380129	0.00972288
0.0774495	0.0240891
0.138013	0.0456384
0.211252	0.0709905
0.273224	0.095075
0.34083	0.117047
0.401393	0.136483
0.536604	0.174512
0.66759	0.210005
0.795759	0.241272
0.923928	0.269582
0.978858	0.281413
