Adsorption isotherm of Carbon Dioxide on R1KCHA
DOI: 10.1021/Ja309274y
Adsorbate Carbon Dioxide: InChIKey CURLTUGMZLYLDI-UHFFFAOYSA-N
Temperature: 273 K
Tabular data in the source: 0
pressure (bar)	uptake (mmol/g)
0.0126608	0.00197717
0.0323791	0.0103574
0.0760411	0.027611
0.135196	0.0478222
0.20421	0.0719772
0.271816	0.0961321
0.402802	0.136062
0.530971	0.173526
0.670407	0.209019
0.797168	0.241062
0.861957	0.25585
0.928154	0.270146
0.980266	0.281484
