Adsorption isotherm of Methane on R2KCHA
DOI: 10.1021/Ja309274y
Adsorbate Methane: InChIKey VNWKTOKETHGBQD-UHFFFAOYSA-N
Temperature: 253 K
Tabular data in the source: 0
pressure (bar)	uptake (mmol/g)
0.00961839	0.00697713
0.0645359	0.00697713
0.157209	0.015558
0.241302	0.015558
0.364866	0.0241388
0.459255	0.0241388
0.548496	0.0327197
0.66348	0.0413006
0.900311	0.0498814
1.03932	0.0627527
1.08909	0.0584623
1.14058	0.0584623
