Adsorption isotherm of Oxygen on R2KCHA
DOI: 10.1021/Ja309274y
Adsorbate Oxygen: InChIKey MYMOFIZGZYHOMD-UHFFFAOYSA-N
Temperature: 273 K
Tabular data in the source: 0
pressure (bar)	uptake (mmol/g)
0.0675904	0.0282452
0.12252	0.0352875
0.181675	0.0352875
0.232379	0.0352875
0.301393	0.0282452
0.363365	0.0352875
0.450689	0.0282452
0.54083	0.0282452
0.664773	0.049372
0.901393	0.0423297
0.992943	0.049372
