Adsorption isotherm of Hydrogen on R1KCHA
DOI: 10.1021/Ja309274y
Adsorbate Hydrogen: InChIKey UFHFLCQGNIYNRP-UHFFFAOYSA-N
Temperature: 273 K
Tabular data in the source: 0
pressure (bar)	uptake (mmol/g)
0.0182946	0.00247012
0.0943509	0.00444196
0.154914	0.003949
0.201393	0.00542787
0.250689	0.00690674
0.314069	0.00690674
0.429562	0.00986449
0.545055	0.0128222
0.666182	0.015287
0.792943	0.0177518
0.915478	0.0212025
0.96759	0.0226814
0.987309	0.0226814
