Adsorption isotherm of Carbon Dioxide on R2KCHA
DOI: 10.1021/Ja309274y
Adsorbate Carbon Dioxide: InChIKey CURLTUGMZLYLDI-UHFFFAOYSA-N
Temperature: 273 K
Tabular data in the source: 0
pressure (bar)	uptake (mmol/g)
0.0112524	4.2043
0.0295622	4.37332
0.0844918	4.45782
0.128154	4.50008
0.181675	4.54233
0.253506	4.57754
0.330971	4.60571
0.402802	4.63388
0.483083	4.66205
0.557731	4.68317
0.632379	4.71134
0.708435	4.72543
0.808435	4.74656
0.887309	4.79585
0.961957	4.80994
0.991534	4.80289
