Adsorption isotherm of Hydrogen on C30H18Mn9N18O18
DOI: 10.1039/B925769a
Adsorbate Hydrogen: InChIKey UFHFLCQGNIYNRP-UHFFFAOYSA-N
Temperature: 77 K
Tabular data in the source: 0
pressure (bar)	uptake (wt%)
0.00300429	0.1
0.00610763	0.176923
0.00916144	0.265385
0.0122318	0.35
0.0188676	0.403846
0.0220535	0.461538
0.0286893	0.515385
0.0388412	0.55
0.0524265	0.584615
0.0694784	0.611538
0.0864807	0.65
0.110399	0.676923
0.151469	0.707692
0.178838	0.730769
0.21309	0.75
0.240492	0.765385
0.26451	0.769231
0.288528	0.773077
0.333113	0.784615
0.367415	0.792308
0.405134	0.803846
0.432602	0.803846
0.453169	0.811538
0.480621	0.815385
0.508072	0.819231
0.542374	0.826923
0.569825	0.830769
0.604143	0.834615
0.631578	0.842308
0.672763	0.846154
0.713932	0.853846
0.7517	0.853846
0.799736	0.861538
0.840905	0.869231
0.892407	0.869231
0.940442	0.876923
0.995362	0.880769
