Adsorption isotherm of Nitrogen on C30H18Mn9N18O18
DOI: 10.1039/B925769a
Adsorbate Nitrogen: InChIKey IJGRMHOSHXDMSA-UHFFFAOYSA-N
Temperature: 77 K
Tabular data in the source: 0
pressure (bar)	uptake (cm3(STP)/g)
0.00628931	0.00628931
0.00943396	67.953
0.0188679	71.9526
0.0377358	71.3471
0.0534591	71.2688
0.0880503	70.5851
0.125786	70.3042
0.169811	69.434
0.216981	68.5015
0.264151	67.5691
0.311321	66.6367
0.361635	65.4095
0.399371	64.6636
0.465409	63.3582
0.515723	62.8287
0.559748	61.9585
0.603774	61.5533
0.654088	60.5587
0.707547	59.9671
0.761006	59.608
0.801887	59.9627
0.858491	59.0763
0.908805	58.0818
0.984277	57.2876
0.990566	59.7214
