Adsorption isotherm of Carbon Dioxide on sulfur doped activated carbon (activated with 2.5:1 sodium thiosulfate mixture)
DOI: 10.1016/j.micromeso.2016.12.015
Article source: Figure 4
Adsorbate Carbon Dioxide: InChIKey CURLTUGMZLYLDI-UHFFFAOYSA-N
Kind: experiment
Temperature: 298 K
Tabular data in the source: 0
pressure (bar)	uptake (mmol/g)
0.008413	0.0917
0.030744	0.2162
0.078287	0.46
0.129323	0.6449
0.178892	0.7838
0.228168	0.8992
0.277737	1.008
0.327893	1.0998
0.378622	1.1811
0.433698	1.265
0.484134	1.3319
0.533689	1.3923
0.583552	1.4618
0.635721	1.5234
0.684717	1.5811
0.736019	1.6336
0.786735	1.6874
0.837464	1.7386
0.88674	1.7871
0.936603	1.833
0.985866	1.8737
