Adsorption isotherm of Carbon Dioxide on sulfur doped activated carbon (activated with 4:1 sodium thiosulfate mixture)
DOI: 10.1016/j.micromeso.2016.12.015
Article source: Figure 4
Adsorbate Carbon Dioxide: InChIKey CURLTUGMZLYLDI-UHFFFAOYSA-N
Kind: experiment
Temperature: 288 K
Tabular data in the source: 0
pressure (bar)	uptake (mmol/g)
0.049396	0.4844
0.102312	0.7366
0.153801	0.9258
0.202663	1.0613
0.253566	1.1901
0.305055	1.2987
0.354811	1.4073
0.404847	1.4918
0.454603	1.5803
0.505225	1.6621
0.555554	1.7386
0.607337	1.811
0.658839	1.8793
0.710342	1.9437
0.758924	2.0107
0.811307	2.0697
0.861063	2.1233
0.912845	2.1823
0.962028	2.2306
1.00829	2.2775
