Adsorption isotherm of Carbon Dioxide on sulfur doped activated carbon (activated with 4:1 sodium thiosulfate mixture)
DOI: 10.1016/j.micromeso.2016.12.015
Article source: Figure 6
Adsorbate Carbon Dioxide: InChIKey CURLTUGMZLYLDI-UHFFFAOYSA-N
Kind: experiment
Temperature: 298 K
Tabular data in the source: 0
pressure (bar)	uptake (mmol/g)
0.005946	0.0855
0.047116	0.3836
0.047516	0.3485
0.101738	0.5486
0.145668	0.7089
0.149628	0.6837
0.198104	0.8288
0.202063	0.8056
0.249153	0.9276
0.250939	0.905
0.299029	1.017
0.301589	0.9978
0.351264	1.1038
0.352638	1.082
0.401327	1.178
0.403887	1.1588
0.454549	1.2569
0.455136	1.2344
0.505198	1.304
0.505798	1.3199
0.554861	1.3656
0.554861	1.3822
0.60571	1.4253
0.60651	1.4465
0.655573	1.4842
0.710782	1.5366
0.761231	1.5863
0.811493	1.6393
0.861942	1.6884
0.912592	1.7328
0.963241	1.7799
1.00876	1.817
