Adsorption isotherm of Carbon Dioxide on sulfur doped activated carbon (activated with 2.5:1 sodium thiosulfate mixture)
DOI: 10.1016/j.micromeso.2016.12.015
Article source: Figure 4
Adsorbate Carbon Dioxide: InChIKey CURLTUGMZLYLDI-UHFFFAOYSA-N
Kind: experiment
Temperature: 288 K
Tabular data in the source: 0
pressure (bar)	uptake (mmol/g)
0.051636	0.5622
0.104125	0.8492
0.154561	1.038
0.20269	1.1914
0.254579	1.3303
0.304148	1.4536
0.354877	1.5598
0.406193	1.6568
0.458656	1.746
0.509678	1.8338
0.559527	1.9112
0.609963	1.982
0.660986	2.0581
0.712288	2.1276
0.763311	2.1827
0.81172	2.247
0.862729	2.306
0.913165	2.3572
0.962734	2.4149
1.0091	2.4569
