Adsorption isotherm of Nitrogen on Maxsorb activated carbon (BET~3300 m2/g)
DOI: 10.1016/j.micromeso.2016.12.015
Article source: Figure 2
Adsorbate Nitrogen: InChIKey IJGRMHOSHXDMSA-UHFFFAOYSA-N
Kind: experiment
Temperature: 77 K
Tabular data in the source: 0
pressure (bar)	uptake (cm3(STP)/g)
0.010487	137.92
0.051553	155.83
0.101151	166.68
0.151893	176.12
0.203619	185.55
0.254564	191.23
0.305306	198.78
0.355289	204.45
0.405647	210.6
0.454272	230.39
0.457169	216.74
0.504052	225.7
0.506189	255.36
0.554409	236.55
0.556162	288.33
0.604969	253.52
0.605182	330.72
0.658437	278.97
0.6602	361.81
0.70842	317.12
0.710558	379.25
0.75899	385.39
0.75976	356.68
0.809936	389.65
0.859716	394.86
0.911623	397.23
0.960633	398.67
1.0077	400.1
