Adsorption isotherm of Nitrogen on sulfur doped activated carbon (activated with 2.5:1 sodium thiosulfate mixture)
DOI: 10.1016/j.micromeso.2016.12.015
Article source: Figure 2
Adsorbate Nitrogen: InChIKey IJGRMHOSHXDMSA-UHFFFAOYSA-N
Kind: experiment
Temperature: 77 K
Tabular data in the source: 0
pressure (bar)	uptake (cm3(STP)/g)
0.005097	275.37
0.010912	291.85
0.030863	319.16
0.050824	337.05
0.102742	364.85
0.1225	373.8
0.152329	390.76
0.183516	398.31
0.201724	410.08
0.223032	413.39
0.251899	427.05
0.304202	443.55
0.35379	459.11
0.403965	476.08
0.454322	493.05
0.454332	516.11
0.504518	602.74
0.505278	518.96
0.555058	556.64
0.555858	665.84
0.606408	610.32
0.607786	728.94
0.658721	681.9
0.659896	764.27
0.708329	779.36
0.709089	741.7
0.759467	785.97
0.760044	773.73
0.811374	783.17
0.811759	794.47
0.859989	794.49
0.911907	798.28
0.962072	803.48
1.00817	803.03
