Adsorption isotherm of Methane on sulfur doped activated carbon (activated with 4:1 sodium thiosulfate mixture)
DOI: 10.1016/j.micromeso.2016.12.015
Article source: Figure 6
Adsorbate Methane: InChIKey VNWKTOKETHGBQD-UHFFFAOYSA-N
Kind: experiment
Temperature: 298 K
Tabular data in the source: 0
pressure (bar)	uptake (mmol/g)
0.008466	0.0115
0.051876	0.077
0.101152	0.1368
0.152814	0.1951
0.204703	0.2469
0.254619	0.2879
0.303468	0.3246
0.353184	0.3671
0.40506	0.4067
0.454989	0.4376
0.505132	0.4721
0.556581	0.5045
0.607603	0.5326
0.656653	0.5635
0.709408	0.5908
0.759338	0.6146
0.809707	0.6455
0.861582	0.6678
0.911512	0.6908
0.962534	0.7138
1.00746	0.7369
