Adsorption isotherm of Nitrogen on sulfur doped activated carbon (activated with 1:1 sodium thiosulfate mixture)
DOI: 10.1016/j.micromeso.2016.12.015
Article source: Figure 2
Adsorbate Nitrogen: InChIKey IJGRMHOSHXDMSA-UHFFFAOYSA-N
Kind: experiment
Temperature: 77 K
Tabular data in the source: 0
pressure (bar)	uptake (cm3(STP)/g)
0.004965	572.39
0.010396	609.58
0.030752	669.37
0.049354	724.45
0.05129	702.33
0.101475	781.43
0.103603	759.78
0.122003	777.2
0.152613	820.52
0.152998	802.63
0.183607	822.89
0.202018	838.9
0.202403	854.44
0.223134	851.62
0.250835	889.76
0.252963	871.87
0.301203	923.68
0.305073	909.56
0.351571	958.06
0.355634	946.77
0.403103	997.62
0.405424	983.5
0.455021	1022.13
0.455619	1083.32
0.504659	1281.51
0.505004	1080.99
0.555635	1410.51
0.555777	1163.39
0.60655	1282.97
0.606601	1520.68
0.657171	1578.13
0.660231	1427.97
0.708491	1528.73
0.710051	1604.51
0.758869	1618.19
0.760794	1585.24
0.811364	1631.86
0.812904	1610.21
0.860557	1625.77
0.862117	1641.77
0.912474	1641.32
0.961869	1646.05
1.00758	1650.78
