Adsorption isotherm of Methane on sulfur doped activated carbon (activated with 1:1 sodium thiosulfate mixture)
DOI: 10.1016/j.micromeso.2016.12.015
Article source: Figure 6
Adsorbate Methane: InChIKey VNWKTOKETHGBQD-UHFFFAOYSA-N
Kind: experiment
Temperature: 298 K
Tabular data in the source: 0
pressure (bar)	uptake (mmol/g)
0.007893	0.0163
0.050862	0.105
0.099992	0.1866
0.151721	0.2605
0.20225	0.3209
0.252766	0.3793
0.303495	0.4349
0.355224	0.4855
0.402967	0.5305
0.454696	0.5762
0.504425	0.6093
0.554154	0.6494
0.60727	0.6866
0.657813	0.7225
0.711128	0.7569
0.761857	0.79
0.812187	0.8167
0.861716	0.8455
0.912445	0.8778
0.963574	0.9031
1.00973	0.9291
