Adsorption isotherm of Carbon Dioxide on Maxsorb activated carbon (BET~3300 m2/g)
DOI: 10.1016/j.micromeso.2016.12.015
Article source: Figure 4
Adsorbate Carbon Dioxide: InChIKey CURLTUGMZLYLDI-UHFFFAOYSA-N
Kind: experiment
Temperature: 278 K
Tabular data in the source: 0
pressure (bar)	uptake (mmol/g)
0.005386	0.1981
0.050489	0.5994
0.101552	0.8875
0.152894	1.0715
0.200837	1.2168
0.250193	1.3416
0.301255	1.4612
0.351744	1.5641
0.402514	1.6529
0.458122	1.7429
0.508332	1.8162
0.558541	1.8934
0.60875	1.9564
0.660652	2.0208
0.710862	2.0799
0.759364	2.1314
0.81072	2.1957
0.860356	2.2472
0.912832	2.3037
0.963614	2.3526
1.00956	2.3938
