Adsorption isotherm of Carbon Dioxide on sulfur doped activated carbon (activated with 4:1 sodium thiosulfate mixture)
DOI: 10.1016/j.micromeso.2016.12.015
Article source: Figure 4
Adsorbate Carbon Dioxide: InChIKey CURLTUGMZLYLDI-UHFFFAOYSA-N
Kind: experiment
Temperature: 298 K
Tabular data in the source: 0
pressure (bar)	uptake (mmol/g)
0.006973	0.0738
0.049129	0.3341
0.102938	0.5313
0.151508	0.6748
0.203877	0.7929
0.250126	0.8908
0.302495	0.9833
0.352531	1.0638
0.404327	1.1483
0.454949	1.222
0.505865	1.2958
0.554448	1.3534
0.604204	1.4084
0.656586	1.4727
0.707795	1.5196
0.759298	1.5773
0.80992	1.6228
0.859969	1.6697
0.911765	1.718
0.961228	1.7649
1.00778	1.8105
