Adsorption isotherm of Carbon Dioxide on Maxsorb activated carbon (BET~3300 m2/g)
DOI: 10.1016/j.micromeso.2016.12.015
Article source: Figure 4
Adsorbate Carbon Dioxide: InChIKey CURLTUGMZLYLDI-UHFFFAOYSA-N
Kind: experiment
Temperature: 288 K
Tabular data in the source: 0
pressure (bar)	uptake (mmol/g)
0.048796	0.4348
0.102405	0.656
0.151188	0.8155
0.20225	0.9493
0.251606	1.056
0.302108	1.1589
0.350891	1.2426
0.401674	1.3236
0.456696	1.4072
0.507478	1.4728
0.557967	1.5358
0.608177	1.6001
0.660372	1.6696
0.710582	1.7172
0.760511	1.7802
0.81156	1.8317
0.862622	1.8857
0.913685	1.9372
0.961908	1.9822
1.00729	2.0246
