Adsorption isotherm of Carbon Dioxide on sulfur doped activated carbon (activated with 2.5:1 sodium thiosulfate mixture)
DOI: 10.1016/j.micromeso.2016.12.015
Article source: Figure 4
Adsorbate Carbon Dioxide: InChIKey CURLTUGMZLYLDI-UHFFFAOYSA-N
Kind: experiment
Temperature: 278 K
Tabular data in the source: 0
pressure (bar)	uptake (mmol/g)
0.009879	0.2516
0.053396	0.8046
0.105018	1.131
0.155174	1.3682
0.203877	1.5478
0.253739	1.6999
0.303895	1.8336
0.354917	1.9594
0.405353	2.0748
0.459856	2.1679
0.509998	2.2571
0.560434	2.3384
0.610296	2.421
0.661026	2.501
0.712328	2.5705
0.760737	2.6374
0.81204	2.7004
0.861316	2.7568
0.914071	2.825
0.962481	2.8722
1.00885	2.9207
