Adsorption isotherm of Carbon Dioxide on sulfur doped activated carbon (activated with 1:1 sodium thiosulfate mixture)
DOI: 10.1016/j.micromeso.2016.12.015
Article source: Figure 4
Adsorbate Carbon Dioxide: InChIKey CURLTUGMZLYLDI-UHFFFAOYSA-N
Kind: experiment
Temperature: 298 K
Tabular data in the source: 0
pressure (bar)	uptake (mmol/g)
0.006266	0.1224
0.047063	0.4127
0.103951	0.6589
0.150401	0.8198
0.20221	0.9559
0.249846	1.0673
0.301948	1.1814
0.354344	1.2818
0.404953	1.3698
0.453789	1.444
0.504985	1.5168
0.555901	1.5869
0.607697	1.6502
0.657719	1.7106
0.708622	1.7739
0.759538	1.8343
0.81104	1.8838
0.859863	1.9332
0.911952	1.9841
0.963454	2.0294
1.00722	2.0734
