Adsorption isotherm of Carbon Dioxide on sulfur doped activated carbon (activated with 1:1 sodium thiosulfate mixture)
DOI: 10.1016/j.micromeso.2016.12.015
Article source: Figure 6
Adsorbate Carbon Dioxide: InChIKey CURLTUGMZLYLDI-UHFFFAOYSA-N
Kind: experiment
Temperature: 298 K
Tabular data in the source: 0
pressure (bar)	uptake (mmol/g)
0.008679	0.1226
0.049636	0.4119
0.104925	0.6533
0.152854	0.8144
0.20357	0.9523
0.251113	1.0642
0.302628	1.1719
0.352758	1.2718
0.404273	1.359
0.453416	1.4364
0.504332	1.511
0.554661	1.5813
0.60579	1.6481
0.655319	1.7079
0.709235	1.7621
0.759964	1.8191
0.810093	1.876
0.860823	1.9274
0.911738	1.9745
0.962667	2.0216
1.00724	2.061
