Adsorption isotherm of Carbon Dioxide on sulfur doped activated carbon (activated with 1:1 sodium thiosulfate mixture)
DOI: 10.1016/j.micromeso.2016.12.015
Article source: Figure 4
Adsorbate Carbon Dioxide: InChIKey CURLTUGMZLYLDI-UHFFFAOYSA-N
Kind: experiment
Temperature: 288 K
Tabular data in the source: 0
pressure (bar)	uptake (mmol/g)
0.050063	0.6699
0.102485	0.9822
0.150428	1.1954
0.201943	1.3783
0.255246	1.5337
0.302588	1.6616
0.354384	1.7757
0.4053	1.8843
0.456509	1.9792
0.507425	2.0713
0.555048	2.1441
0.609243	2.2335
0.657466	2.3091
0.709275	2.3806
0.760777	2.441
0.811987	2.507
0.861702	2.5647
0.912005	2.6211
0.964107	2.6733
1.01025	2.7255
