Adsorption isotherm of Nitrogen on sulfur doped activated carbon (activated with 4:1 sodium thiosulfate mixture)
DOI: 10.1016/j.micromeso.2016.12.015
Article source: Figure 2
Adsorbate Nitrogen: InChIKey IJGRMHOSHXDMSA-UHFFFAOYSA-N
Kind: experiment
Temperature: 77 K
Tabular data in the source: 0
pressure (bar)	uptake (cm3(STP)/g)
0.009332	159.58
0.030063	185.94
0.052151	197.25
0.101738	216.1
0.122074	218
0.149776	228.36
0.181936	234.5
0.201106	239.21
0.222799	242.99
0.252244	250.06
0.304354	258.56
0.355492	268.94
0.404694	278.85
0.455062	289.7
0.504447	297.25
0.504457	319.38
0.555017	358.47
0.555787	311.87
0.604797	333.54
0.60656	423.45
0.657495	380.64
0.659248	462.54
0.70844	436.68
0.709616	472.92
0.759396	471.53
0.810533	480.5
0.861083	482.41
0.912029	484.31
0.960653	484.34
1.00636	486.24
