Adsorption isotherm of Carbon Dioxide on sulfur doped activated carbon (activated with 1:1 sodium thiosulfate mixture)
DOI: 10.1016/j.micromeso.2016.12.015
Article source: Figure 6
Adsorbate Carbon Dioxide: InChIKey CURLTUGMZLYLDI-UHFFFAOYSA-N
Kind: experiment
Temperature: 298 K
Tabular data in the source: 0
pressure (bar)	uptake (mmol/g)
0.005546	0.1206
0.044943	0.4333
0.048503	0.4081
0.098379	0.6704
0.102538	0.6532
0.146268	0.8407
0.149241	0.8109
0.198517	0.9792
0.202277	0.9534
0.24918	1.1024
0.250553	1.0693
0.299629	1.2104
0.301602	1.1747
0.351078	1.3065
0.352264	1.2714
0.403114	1.394
0.403513	1.3582
0.452776	1.4391
0.453376	1.4722
0.503439	1.5477
0.504025	1.5159
0.554688	1.5822
0.554888	1.6127
0.605737	1.6478
0.605937	1.6757
0.656586	1.7075
0.709222	1.7943
0.710208	1.7671
0.760457	1.8208
0.760457	1.8493
0.812107	1.8752
0.812107	1.8977
0.862156	1.9454
0.862956	1.9249
0.913205	1.9925
0.913405	1.9753
0.963067	2.0296
1.00758	2.0641
