Adsorption isotherm of Carbon Dioxide on Maxsorb activated carbon (BET~3300 m2/g)
DOI: 10.1016/j.micromeso.2016.12.015
Article source: Figure 4
Adsorbate Carbon Dioxide: InChIKey CURLTUGMZLYLDI-UHFFFAOYSA-N
Kind: experiment
Temperature: 298 K
Tabular data in the source: 0
pressure (bar)	uptake (mmol/g)
0.006519	0.0785
0.03829	0.2997
0.087646	0.4824
0.138429	0.6097
0.188358	0.7139
0.238567	0.8078
0.288203	0.894
0.338692	0.9686
0.390608	1.0406
0.445923	1.1024
0.493573	1.1654
0.546048	1.2207
0.596551	1.2773
0.64732	1.3287
0.697529	1.3763
0.746885	1.4291
0.798521	1.4715
0.84873	1.5127
0.900073	1.5538
0.949989	1.5963
0.997078	1.6259
