Adsorption isotherm of Nitrogen on sulfur doped activated carbon (activated with 4:1 sodium thiosulfate mixture)
DOI: 10.1016/j.micromeso.2016.12.015
Article source: Figure 6
Adsorbate Nitrogen: InChIKey IJGRMHOSHXDMSA-UHFFFAOYSA-N
Kind: experiment
Temperature: 298 K
Tabular data in the source: 0
pressure (bar)	uptake (mmol/g)
0.007159	0.0058
0.048623	0.0108
0.100298	0.0237
0.152401	0.0352
0.20385	0.0517
0.253779	0.0639
0.301535	0.0761
0.353424	0.0884
0.404873	0.1049
0.453709	0.1128
0.505812	0.1286
0.556394	0.1401
0.605897	0.1544
0.657999	0.1674
0.707928	0.1789
0.758511	0.1896
0.80952	0.2011
0.860969	0.2126
0.911552	0.2234
0.960188	0.2327
1.00729	0.2442
