Adsorption isotherm of Carbon Dioxide on sulfur doped activated carbon (activated with 4:1 sodium thiosulfate mixture)
DOI: 10.1016/j.micromeso.2016.12.015
Article source: Figure 4
Adsorbate Carbon Dioxide: InChIKey CURLTUGMZLYLDI-UHFFFAOYSA-N
Kind: experiment
Temperature: 278 K
Tabular data in the source: 0
pressure (bar)	uptake (mmol/g)
0.006946	0.2308
0.049649	0.7085
0.102272	1.0386
0.153161	1.2546
0.205503	1.4451
0.251179	1.5725
0.303242	1.7161
0.355611	1.8274
0.40594	1.9387
0.456562	2.0339
0.506012	2.1198
0.554888	2.215
0.606977	2.2941
0.656439	2.3665
0.707928	2.4389
0.759138	2.5127
0.810347	2.5797
0.861262	2.64
0.912472	2.7044
0.963387	2.758
1.00849	2.8062
