Adsorption isotherm of Carbon Dioxide on sulfur doped activated carbon (activated with 1:1 sodium thiosulfate mixture)
DOI: 10.1016/j.micromeso.2016.12.015
Article source: Figure 4
Adsorbate Carbon Dioxide: InChIKey CURLTUGMZLYLDI-UHFFFAOYSA-N
Kind: experiment
Temperature: 278 K
Tabular data in the source: 0
pressure (bar)	uptake (mmol/g)
0.00568	0.2944
0.052169	0.9258
0.100432	1.2738
0.153441	1.5448
0.19989	1.7319
0.251993	1.901
0.305295	2.0509
0.353224	2.1747
0.403553	2.2874
0.454763	2.396
0.505972	2.4868
0.556581	2.5748
0.608977	2.6572
0.659586	2.7328
0.710195	2.8043
0.759324	2.8703
0.809333	2.9308
0.861729	2.9967
0.912045	3.0503
0.962361	3.1039
1.01029	3.1534
