Adsorption isotherm of Carbon Dioxide on sulfur doped activated carbon (activated with 4:1 sodium thiosulfate mixture)
DOI: 10.1016/j.micromeso.2016.12.015
Article source: Figure 6
Adsorbate Carbon Dioxide: InChIKey CURLTUGMZLYLDI-UHFFFAOYSA-N
Kind: experiment
Temperature: 298 K
Tabular data in the source: 0
pressure (bar)	uptake (mmol/g)
0.007159	0.0922
0.049689	0.3478
0.105671	0.548
0.152121	0.6849
0.203783	0.8065
0.252406	0.9045
0.302108	0.9995
0.354637	1.0859
0.404567	1.1622
0.457096	1.2378
0.506358	1.3069
0.556288	1.3645
0.606217	1.4228
0.656799	1.4826
0.707155	1.5351
0.758391	1.5869
0.808747	1.6351
0.859543	1.687
0.911418	1.733
0.960054	1.7762
1.00716	1.8144
