Adsorption isotherm of Nitrogen on sulfur doped activated carbon (activated with 1:1 sodium thiosulfate mixture)
DOI: 10.1016/j.micromeso.2016.12.015
Article source: Figure 6
Adsorbate Nitrogen: InChIKey IJGRMHOSHXDMSA-UHFFFAOYSA-N
Kind: experiment
Temperature: 298 K
Tabular data in the source: 0
pressure (bar)	uptake (mmol/g)
0.024211	0.0022
0.052062	0.0156
0.07634	0.0254
0.101405	0.0289
0.12707	0.0324
0.151334	0.0465
0.177199	0.05
0.202277	0.0591
0.227141	0.0654
0.252806	0.0745
0.27767	0.0872
0.302935	0.0977
0.3288	0.1055
0.353864	0.1104
0.380329	0.1202
0.404007	0.1251
0.430658	0.1342
0.455336	0.1412
0.480001	0.1483
0.505465	0.1553
0.53133	0.1623
0.555594	0.1707
0.581059	0.177
0.606137	0.1834
0.632001	0.1939
0.658453	0.2009
0.685117	0.2079
0.710182	0.2156
0.735646	0.2234
0.761111	0.2283
0.786375	0.2346
0.81184	0.2409
0.837704	0.2472
0.862769	0.2542
0.888234	0.2584
0.912512	0.2647
0.938176	0.2725
0.963241	0.2795
0.988105	0.2872
1.0086	0.2921
