Adsorption isotherm of Nitrogen on UiO-67f
DOI: 10.1021/acs.inorgchem.5b01053
Article source: Figure 6
Adsorbate Nitrogen: InChIKey IJGRMHOSHXDMSA-UHFFFAOYSA-N
Kind: experiment
Temperature: 77 K
Tabular data in the source: 0
pressure (bar)	uptake (cm3(STP)/g)
0.009347	551.464
0.018695	584.937
0.03365	611.715
0.048606	628.452
0.074779	645.188
0.100951	663.598
0.125254	682.008
0.149557	718.828
0.17573	728.87
0.198163	735.565
0.228074	738.912
0.250508	740.586
0.276681	743.933
0.302853	747.28
0.329026	750.628
0.353328	752.301
0.381371	753.975
0.405674	755.649
0.429977	758.996
0.458019	760.669
0.482322	760.669
0.502886	762.343
0.532797	765.69
0.558971	767.364
0.579534	767.364
0.607576	770.711
0.633748	772.385
0.659922	774.059
0.684224	775.732
0.710397	777.406
0.734699	780.753
0.759002	782.427
0.783306	785.774
0.807609	789.121
0.833781	792.469
0.861824	797.49
0.886127	802.51
0.910429	809.205
0.934732	820.921
0.960904	844.351
0.987078	923.013
