Adsorption isotherm of Nitrogen on UiO-67Cr
DOI: 10.1021/acs.inorgchem.5b01053
Article source: Figure 6
Adsorbate Nitrogen: InChIKey IJGRMHOSHXDMSA-UHFFFAOYSA-N
Kind: experiment
Temperature: 77 K
Tabular data in the source: 0
pressure (bar)	uptake (cm3(STP)/g)
0.009347	430.962
0.018695	457.741
0.03365	477.824
0.046737	489.54
0.074779	504.603
0.099082	516.318
0.127123	523.013
0.149557	526.36
0.177599	531.381
0.201902	534.728
0.226205	536.402
0.250508	538.075
0.276681	541.423
0.302853	543.096
0.327156	544.77
0.351459	546.444
0.379502	548.117
0.403804	549.791
0.428107	551.464
0.454279	553.138
0.480453	554.812
0.506625	556.485
0.530928	558.159
0.5571	559.833
0.581404	559.833
0.607576	563.18
0.631879	564.854
0.658051	566.527
0.682355	568.201
0.706658	568.201
0.734699	571.548
0.759002	573.222
0.783306	576.569
0.807609	578.243
0.83752	583.264
0.859953	586.611
0.886127	591.632
0.910429	596.653
0.936602	606.695
0.960904	626.778
0.985208	688.703
