Adsorption isotherm of Methane on CuBDC nanosheet
DOI: 10.1038/nmat4113
Article source: Figure 3b
Adsorbate Methane: InChIKey VNWKTOKETHGBQD-UHFFFAOYSA-N
Kind: experiment
Temperature: 273 K
Tabular data in the source: 0
pressure (bar)	uptake (mmol/g)
0.077994	0.023776
0.101992	0.030575
0.137989	0.010483
0.140988	0.037415
0.200983	0.030852
0.203983	0.051053
0.263978	0.051221
0.269978	0.068065
0.332973	0.064876
0.338972	0.08172
0.401967	0.095358
0.470961	0.109013
0.536956	0.12266
0.60295	0.136306
0.671945	0.143231
0.73194	0.153495
0.800934	0.16715
0.872928	0.177448
0.938923	0.18773
0.980919	0.194578
1.00792	0.194654
1.05291	0.201511
1.07091	0.201561
1.11291	0.205044
1.13691	0.205112
1.2029	0.212028
