Adsorption isotherm of Carbon Dioxide on Cu(26NDC) nanosheet
DOI: 10.1038/nmat4113
Article source: Figure S10b
Adsorbate Carbon Dioxide: InChIKey CURLTUGMZLYLDI-UHFFFAOYSA-N
Kind: experiment
Temperature: 273 K
Tabular data in the source: 0
pressure (bar)	uptake (mmol/g)
0.01959	0.03
0.039181	0.06
0.053873	0.083333
0.068566	0.1
0.088156	0.12
0.097951	0.143333
0.117541	0.166667
0.127336	0.153333
0.137131	0.186667
0.14203	0.173333
0.176312	0.206667
0.342829	0.333333
0.347726	0.36
0.519141	0.476667
0.675863	0.573333
0.695453	0.556667
0.847277	0.663333
0.866867	0.65
1.02359	0.753333
1.04318	0.743333
1.2097	0.836667
