Adsorption isotherm of Carbon Dioxide on CuBDC nanosheet
DOI: 10.1038/nmat4113
Article source: Figure 3b
Adsorbate Carbon Dioxide: InChIKey CURLTUGMZLYLDI-UHFFFAOYSA-N
Kind: experiment
Temperature: 273 K
Tabular data in the source: 0
pressure (bar)	uptake (mmol/g)
0.014999	0.0236
0.038997	0.013571
0.050996	0.06072
0.059995	0.033822
0.071994	0.084336
0.083993	0.101197
0.095992	0.084404
0.104991	0.128179
0.110991	0.111369
0.11999	0.151779
0.12599	0.138334
0.137989	0.172022
0.143988	0.161942
0.173986	0.212507
0.176985	0.199054
0.347971	0.344245
0.518957	0.519725
0.521957	0.475983
0.674944	0.641316
0.692943	0.600982
0.84893	0.756227
0.869928	0.722632
1.02592	0.864416
1.04391	0.840909
1.2179	0.95582
