Adsorption isotherm of Methane on Cu(26NDC) nanosheet
DOI: 10.1038/nmat4113
Article source: Figure S10b
Adsorbate Methane: InChIKey VNWKTOKETHGBQD-UHFFFAOYSA-N
Kind: experiment
Temperature: 273 K
Tabular data in the source: 0
pressure (bar)	uptake (mmol/g)
0.039181	0.003333
0.058771	0.01
0.088156	0.013333
0.107746	0.02
0.132234	0.026667
0.200799	0.043333
0.269366	0.056667
0.333034	0.066667
0.401599	0.083333
0.465268	0.096667
0.528936	0.103333
0.6024	0.12
0.666068	0.133333
0.729736	0.143333
0.798302	0.153333
0.803199	0.143333
0.866867	0.17
0.871766	0.153333
0.930535	0.173333
0.935434	0.163333
0.984408	0.183333
0.999102	0.17
1.05298	0.183333
1.06277	0.183333
1.10685	0.19
1.13623	0.19
1.1999	0.196667
