Adsorption isotherm of Argon on Cu(26NDC) nanosheet
DOI: 10.1038/nmat4113
Article source: Figure S10c
Adsorbate Argon: InChIKey XKRFYHLGVUSROY-UHFFFAOYSA-N
Kind: experiment
Temperature: 87 K
Tabular data in the source: 0
pressure (bar)	uptake (cm3(STP)/g)
0	15.1079
0.003774	23.0216
0.007547	25.1799
0.011321	34.1727
0.018868	35.9712
0.037736	29.8561
0.041509	37.7698
0.056604	38.1295
0.064151	31.6547
0.075472	39.2086
0.098113	33.0935
0.101887	39.5683
0.116981	39.9281
0.128302	33.8129
0.135849	39.9281
0.150943	33.8129
0.177358	34.5324
0.196226	40.6475
0.207547	34.8921
0.226415	40.6475
0.233962	34.8921
0.249057	35.2518
0.271698	41.0072
0.275472	35.6115
0.301887	36.3309
0.320755	36.3309
0.332075	41.0072
0.343396	36.6906
0.354717	41.3669
0.373585	37.0504
0.407547	37.4101
0.422642	37.7698
0.445283	37.7698
0.449057	43.1655
0.467925	44.2446
0.479245	38.4892
0.498113	44.2446
0.509434	39.2086
0.528302	44.6043
0.539623	39.9281
0.550943	44.964
0.562264	39.9281
0.573585	44.964
0.581132	40.2878
0.6	45.6835
0.618868	41.0072
0.626415	46.4029
0.630189	41.3669
0.649057	47.1223
0.65283	41.3669
0.671698	47.8417
0.698113	42.446
0.70566	48.9209
0.720755	43.5252
0.724528	48.9209
0.743396	50.3597
0.750943	44.2446
0.773585	45.3237
0.796226	52.8777
0.822642	47.8417
0.826415	54.3165
0.849057	49.6403
0.860377	56.8345
0.875472	51.7986
0.883019	58.2734
0.898113	54.6763
0.909434	61.1511
0.920755	58.6331
0.939623	65.8273
0.943396	64.3885
0.962264	73.3813
0.973585	73.0216
0.984906	84.5324
