Adsorption isotherm of Nitrogen on CuBDC bulk
DOI: 10.1038/nmat4113
Article source: Figure 3a
Adsorbate Nitrogen: InChIKey IJGRMHOSHXDMSA-UHFFFAOYSA-N
Kind: experiment
Temperature: 77 K
Tabular data in the source: 0
pressure (bar)	uptake (cm3(STP)/g)
0.014652	3.05327
0.026823	3.38894
0.031689	3.38729
0.038988	3.38481
0.060892	3.71717
0.08279	3.70973
0.097388	3.70477
0.11442	3.69898
0.124152	3.69568
0.143616	3.68906
0.160648	3.68327
0.167947	3.68079
0.192278	3.67253
0.20201	3.66922
0.21176	4.68532
0.228774	3.66013
0.238524	4.67623
0.248239	3.65351
0.260428	5.00859
0.267703	3.6469
0.287192	4.9995
0.289601	3.63946
0.311505	3.97182
0.313955	4.9904
0.335847	4.64316
0.340701	3.9619
0.360172	4.29509
0.36019	5.3145
0.379654	5.30788
0.389363	3.94536
0.403985	5.29962
0.416127	3.93627
0.435621	5.62867
0.445336	4.60595
0.459958	5.96021
0.4648	4.59934
0.484288	5.95194
0.49643	4.58859
0.508619	5.94367
0.515895	4.58198
0.535383	5.93458
0.542653	4.23308
0.55972	6.26611
0.562117	4.22647
0.58405	6.25785
0.591314	4.21654
0.613224	4.88871
0.613241	5.90812
0.637572	5.89985
0.639987	4.87962
0.661915	6.57119
0.671617	4.86887
0.688684	6.9019
0.693515	4.86143
0.710553	5.19544
0.713009	6.55383
0.73734	6.54556
0.739755	5.52533
0.761671	6.5373
0.764074	4.83745
0.78358	7.20946
0.788423	5.84859
0.812759	6.18013
0.812771	6.85974
0.839523	6.17104
0.839547	7.53025
0.863854	6.16277
0.868744	7.52033
0.893086	8.19167
0.895484	6.15202
0.919821	6.48356
0.924728	8.86053
0.936858	6.81757
0.951492	8.85143
0.961207	7.82872
0.970986	10.5438
0.973396	9.1838
0.985585	10.5389
0.992913	12.2354
0.997821	14.6124
