Adsorption isotherm of Argon on CuBDC nanosheet
DOI: 10.1038/nmat4113
Article source: Figure 3a
Adsorbate Argon: InChIKey XKRFYHLGVUSROY-UHFFFAOYSA-N
Kind: experiment
Temperature: 87 K
Tabular data in the source: 0
pressure (bar)	uptake (cm3(STP)/g)
0.008299	3.13725
0.020747	3.92157
0.053942	5.4902
0.058091	7.05882
0.078838	6.27451
0.082988	7.84314
0.103734	7.84314
0.13278	8.62745
0.145228	7.84314
0.161826	9.01961
0.186722	9.01961
0.211618	9.80392
0.228216	9.41176
0.248963	10.5882
0.261411	10.5882
0.294606	10.9804
0.315353	11.3725
0.3361	12.1569
0.344398	11.3725
0.356846	12.1569
0.385892	12.9412
0.39834	12.9412
0.419087	13.7255
0.435685	14.1176
0.456432	14.5098
0.477178	16.4706
0.497925	15.6863
0.522822	18.0392
0.543568	18.8235
0.572614	20
0.576763	16.8627
0.59751	17.6471
0.622407	21.9608
0.634855	19.2157
0.647303	23.1373
0.676349	20.3922
0.701245	21.1765
0.721992	26.6667
0.726141	21.9608
0.746888	28.2353
0.771784	30.1961
0.775934	24.3137
0.80083	31.7647
0.821577	28.2353
0.825726	34.1176
0.842324	29.8039
0.854772	37.2549
0.875519	39.6078
0.887967	41.9608
0.900415	37.2549
0.912863	47.0588
0.921162	41.9608
0.937759	53.7255
0.946058	48.6275
0.966805	63.5294
0.970954	60.3922
0.983402	75.2941
