Adsorption isotherm of Nitrogen on CuBDC nanosheet
DOI: 10.1038/nmat4113
Article source: Figure 3a
Adsorbate Nitrogen: InChIKey IJGRMHOSHXDMSA-UHFFFAOYSA-N
Kind: experiment
Temperature: 77 K
Tabular data in the source: 0
pressure (bar)	uptake (cm3(STP)/g)
0.009874	8.15198
0.022069	9.84687
0.024514	10.5257
0.036685	10.8613
0.061028	11.5327
0.080504	12.2057
0.102414	12.8778
0.119451	13.2118
0.131622	13.5475
0.141361	13.884
0.153532	14.2197
0.173008	14.8927
0.185174	14.8885
0.190075	16.9257
0.197345	15.2242
0.207113	17.2597
0.214382	15.5582
0.228987	15.8931
0.236327	18.2692
0.243591	16.2279
0.263062	16.5611
0.263097	18.5999
0.28744	19.2713
0.289831	16.8918
0.314174	17.5631
0.314209	19.602
0.333638	17.5565
0.336113	19.9343
0.358016	20.2667
0.362847	18.2262
0.38719	18.8976
0.389664	21.2754
0.413959	19.2283
0.414007	21.9467
0.43829	19.22
0.438349	22.618
0.462639	20.2311
0.465119	22.9487
0.489414	20.9017
0.489473	24.2997
0.513745	20.8934
0.51867	24.2898
0.538105	22.5841
0.54058	24.9619
0.562442	22.9157
0.564934	26.3129
0.586838	26.6452
0.591645	23.2456
0.61356	24.2575
0.613631	28.3352
0.64033	24.5882
0.640401	28.6659
0.662251	25.94
0.664755	30.0168
0.689015	25.9309
0.691531	30.6873
0.71337	27.2819
0.718324	32.3773
0.735291	28.6336
0.74999	34.4053
0.762072	29.644
0.774368	37.1155
0.781561	30.9966
0.79633	40.8459
0.813232	33.3644
0.828067	46.9516
0.832744	36.0763
0.852604	58.8365
0.857151	40.4854
0.877248	76.8378
0.881618	48.2927
0.901236	57.1209
0.901827	91.1013
0.930752	75.4604
0.931195	100.946
0.950476	90.4052
0.953181	106.035
0.967839	109.428
0.970189	104.67
0.975203	113.164
0.980045	111.803
0.987427	116.558
0.989943	121.314
0.999858	131.845
