Adsorption isotherm of Methane on CuBDC bulk
DOI: 10.1038/nmat4113
Article source: Figure 3b
Adsorbate Methane: InChIKey VNWKTOKETHGBQD-UHFFFAOYSA-N
Kind: experiment
Temperature: 273 K
Tabular data in the source: 0
pressure (bar)	uptake (mmol/g)
0.103485	0.06013
0.133709	0.07386
0.20173	0.10523
0.267418	0.13791
0.335439	0.16667
0.401127	0.19739
0.466828	0.22484
0.535423	0.25098
0.601697	0.27647
0.667385	0.30065
0.734246	0.32418
0.800521	0.3451
0.865049	0.36732
0.932483	0.38758
0.976666	0.40392
0.998758	0.40784
1.04526	0.42353
1.06387	0.42876
1.11387	0.44052
1.13131	0.44575
1.20222	0.46275
