Adsorption isotherm of Carbon Dioxide on CuBDC bulk
DOI: 10.1038/nmat4113
Article source: Figure 3b
Adsorbate Carbon Dioxide: InChIKey CURLTUGMZLYLDI-UHFFFAOYSA-N
Kind: experiment
Temperature: 273 K
Tabular data in the source: 0
pressure (bar)	uptake (mmol/g)
0.014999	0.050523
0.032997	0.084227
0.050996	0.121297
0.065995	0.158358
0.068994	0.14827
0.083993	0.195428
0.089993	0.185349
0.104991	0.229141
0.107991	0.212322
0.11999	0.262837
0.12599	0.249392
0.137989	0.293175
0.173986	0.343757
0.215982	0.424644
0.311974	0.576356
0.347971	0.623572
0.36297	0.647172
0.512958	0.849516
0.524957	0.866376
0.692943	1.05194
0.695943	1.03849
0.863929	1.20387
1.03791	1.32214
1.2119	1.43369
