Adsorption isotherm of Carbon Dioxide on M41S AM3
DOI: 10.1166/sam.2015.2137
Article source: Figure 5
Adsorbate Carbon Dioxide: InChIKey CURLTUGMZLYLDI-UHFFFAOYSA-N
Kind: experiment
Temperature: 293 K
Tabular data in the source: 0
pressure (bar)	uptake (mmol/g)
0	0
0.001792	0.089693
0.007168	0.38481
0.02509	0.639421
0.0681	0.775407
0.258065	0.949005
0.523297	1.11392
0.991039	1.29331
