Adsorption isotherm of Carbon Dioxide on M41S AM1
DOI: 10.1166/sam.2015.2137
Article source: Figure 5
Adsorbate Carbon Dioxide: InChIKey CURLTUGMZLYLDI-UHFFFAOYSA-N
Kind: experiment
Temperature: 293 K
Tabular data in the source: 0
pressure (bar)	uptake (mmol/g)
0	0
0.001792	0.089693
0.005376	0.133092
0.010753	0.234358
0.062724	0.373237
0.130824	0.442676
0.263441	0.543942
0.52509	0.679928
0.983871	0.844846
