Adsorption isotherm of Nitrogen on M41S AM3
DOI: 10.1166/sam.2015.2137
Article source: Figure 5
Adsorbate Nitrogen: InChIKey IJGRMHOSHXDMSA-UHFFFAOYSA-N
Kind: experiment
Temperature: 293 K
Tabular data in the source: 0
pressure (bar)	uptake (mmol/g)
0	0
0.010753	0
0.062724	0.002893
0.12724	0.011573
0.261649	0.014467
0.52509	0.031826
0.985663	0.0434
