Adsorption isotherm of Nitrogen on Silicalite-1 AS1
DOI: 10.1166/sam.2015.2137
Article source: Figure 6
Adsorbate Nitrogen: InChIKey IJGRMHOSHXDMSA-UHFFFAOYSA-N
Kind: experiment
Temperature: 293 K
Tabular data in the source: 0
pressure (bar)	uptake (mmol/g)
0	0.039711
0.005376	0.072183
0.012545	0.082987
0.064516	0.10807
0.132616	0.140315
0.263441	0.190385
0.526882	0.239975
0.987455	0.310515
