Adsorption isotherm of Nitrogen on M41S AM1
DOI: 10.1166/sam.2015.2137
Article source: Figure 5
Adsorbate Nitrogen: InChIKey IJGRMHOSHXDMSA-UHFFFAOYSA-N
Kind: experiment
Temperature: 293 K
Tabular data in the source: 0
pressure (bar)	uptake (mmol/g)
0	0
0.016129	0.020253
0.062724	0.040506
0.130824	0.054973
0.390681	0.078119
0.786738	0.101266
0.854839	0.107052
0.989247	0.112839
