Adsorption isotherm of Nitrogen on M41S AM2
DOI: 10.1166/sam.2015.2137
Article source: Figure 5
Adsorbate Nitrogen: InChIKey IJGRMHOSHXDMSA-UHFFFAOYSA-N
Kind: experiment
Temperature: 293 K
Tabular data in the source: 0
pressure (bar)	uptake (mmol/g)
0	0
0.064516	0.008478
0.129032	0.019844
0.394265	0.036407
0.78853	0.061261
0.854839	0.061069
0.991039	0.06934
