Adsorption isotherm of Carbon Dioxide on M41S AM2
DOI: 10.1166/sam.2015.2137
Article source: Figure 5
Adsorbate Carbon Dioxide: InChIKey CURLTUGMZLYLDI-UHFFFAOYSA-N
Kind: experiment
Temperature: 293 K
Tabular data in the source: 0
pressure (bar)	uptake (mmol/g)
0	0
0.005376	0.141772
0.008961	0.535262
0.014337	0.749367
0.064516	0.899819
0.132616	0.992405
0.394265	1.26438
0.790323	1.47848
0.863799	1.51609
0.983871	1.56528
