Adsorption isotherm of Carbon Dioxide on Silicalite-1 AS1
DOI: 10.1166/sam.2015.2137
Article source: Figure 6
Adsorbate Carbon Dioxide: InChIKey CURLTUGMZLYLDI-UHFFFAOYSA-N
Kind: experiment
Temperature: 293 K
Tabular data in the source: 0
pressure (bar)	uptake (mmol/g)
0	0.093863
0.012545	0.17685
0.016129	0.230989
0.062724	0.422156
0.132616	0.63129
0.261649	0.948514
0.52509	1.35551
0.985663	1.8015
