Adsorption isotherm of Nitrogen on Silicalite-1 AS2
DOI: 10.1166/sam.2015.2137
Article source: Figure 6
Adsorbate Nitrogen: InChIKey IJGRMHOSHXDMSA-UHFFFAOYSA-N
Kind: experiment
Temperature: 293 K
Tabular data in the source: 0
pressure (bar)	uptake (mmol/g)
0	0
0.010753	0.046893
0.017921	0.075748
0.064516	0.079189
0.130824	0.097001
0.263441	0.129013
0.526882	0.171383
0.987455	0.238312
