Adsorption isotherm of Carbon Dioxide on Silicalite-1 AS3
DOI: 10.1166/sam.2015.2137
Article source: Figure 6
Adsorbate Carbon Dioxide: InChIKey CURLTUGMZLYLDI-UHFFFAOYSA-N
Kind: experiment
Temperature: 293 K
Tabular data in the source: 0
pressure (bar)	uptake (mmol/g)
0.001792	0.151631
0.008961	0.332098
0.016129	0.443985
0.066308	0.620699
0.134409	0.786518
0.265233	1.07485
0.526882	1.45658
0.985663	1.85204
