Adsorption isotherm of Carbon Dioxide on Silicalite-1 AS2
DOI: 10.1166/sam.2015.2137
Article source: Figure 6
Adsorbate Carbon Dioxide: InChIKey CURLTUGMZLYLDI-UHFFFAOYSA-N
Kind: experiment
Temperature: 293 K
Tabular data in the source: 0
pressure (bar)	uptake (mmol/g)
0	0.093863
0.007168	0.173259
0.014337	0.292367
0.062724	0.479918
0.130824	0.660178
0.261649	0.948514
0.52509	1.35551
0.985663	1.73651
