Adsorption isotherm of Nitrogen on Silicalite-1 AS3
DOI: 10.1166/sam.2015.2137
Article source: Figure 6
Adsorbate Nitrogen: InChIKey IJGRMHOSHXDMSA-UHFFFAOYSA-N
Kind: experiment
Temperature: 293 K
Tabular data in the source: 0
pressure (bar)	uptake (mmol/g)
0	0
0.007168	0.046906
0.012545	0.090207
0.064516	0.10807
0.263441	0.132623
0.526882	0.149722
0.985663	0.176947
