Adsorption isotherm of Hydrogen on SQ-COP-2
DOI: 10.1002/slct.201600093
Article source: Figure 4
Adsorbate Hydrogen: InChIKey UFHFLCQGNIYNRP-UHFFFAOYSA-N
Kind: experiment
Temperature: 298 K
Tabular data in the source: 0
pressure (bar)	uptake (mg/g)
0.4258	0.03633
2.1006	0.13014
3.0335	0.21115
4.9938	0.32095
5.9835	0.38171
7.925	0.5075
10.0376	0.62583
12.9877	0.79533
15.081	0.87209
19.975	1.12587
29.925	1.48051
50.0015	1.8644
79.921	1.74116
