Adsorption isotherm of Carbon Dioxide on SQ-COP-2
DOI: 10.1002/slct.201600093
Article source: Figure 4
Adsorbate Carbon Dioxide: InChIKey CURLTUGMZLYLDI-UHFFFAOYSA-N
Kind: experiment
Temperature: 298 K
Tabular data in the source: 0
pressure (bar)	uptake (mg/g)
0.1559	2.14
2.8475	62.2
3.8295	78.35
4.8569	100.8
6.0353	122.7
8.0597	162.24
10.0842	204.37
13	262.64
15.0244	302.55
20.0012	400.46
30.0255	575.15
50.0338	737.49
