Adsorption isotherm of Hydrogen on SQ-COP-1
DOI: 10.1002/slct.201600093
Article source: Figure 4
Adsorbate Hydrogen: InChIKey UFHFLCQGNIYNRP-UHFFFAOYSA-N
Kind: experiment
Temperature: 298 K
Tabular data in the source: 0
pressure (bar)	uptake (mg/g)
0.3973	0.03846
1.8155	0.16424
2.9004	0.23193
4.9466	0.36784
5.9745	0.4382
7.9351	0.58157
10.0192	0.70522
12.979	0.90456
14.9774	1.00531
20.0123	1.29505
29.9635	1.8088
49.9958	2.58792
79.9441	3.20405
