Adsorption isotherm of Nitrogen on SQ-COP-3
DOI: 10.1002/slct.201600093
Article source: Figure 4
Adsorbate Nitrogen: InChIKey IJGRMHOSHXDMSA-UHFFFAOYSA-N
Kind: experiment
Temperature: 298 K
Tabular data in the source: 0
pressure (bar)	uptake (mg/g)
0.4987	7.42
2.8414	13.41
5.0222	23.14
6.0602	26.77
8.0506	36.27
9.9743	45.18
12.9945	58.93
14.9742	66.61
19.9896	86.92
29.9981	123.81
49.9826	185.25
79.9891	251.85
99.9729	275.56
