Adsorption isotherm of Hydrogen on SQ-COP-3
DOI: 10.1002/slct.201600093
Article source: Figure 4
Adsorbate Hydrogen: InChIKey UFHFLCQGNIYNRP-UHFFFAOYSA-N
Kind: experiment
Temperature: 298 K
Tabular data in the source: 0
pressure (bar)	uptake (mg/g)
0.4755	0.03313
1.9562	0.14566
2.9079	0.20573
4.9626	0.35632
5.9295	0.41978
7.9539	0.56446
9.9932	0.67191
12.9994	0.85129
15.0688	0.93675
20.0299	1.20628
29.9257	1.61408
49.9559	2.07903
79.9117	2.09598
