Adsorption isotherm of Nitrogen on SQ-COP-1
DOI: 10.1002/slct.201600093
Article source: Figure 4
Adsorbate Nitrogen: InChIKey IJGRMHOSHXDMSA-UHFFFAOYSA-N
Kind: experiment
Temperature: 298 K
Tabular data in the source: 0
pressure (bar)	uptake (mg/g)
0.4243	4.67
2.7814	15.23
5.063	26.36
6.0301	34.71
7.9641	42.12
10.1247	52.87
12.92	66.41
14.9749	74.19
19.9307	94.39
29.8423	128.48
50.0731	184.2
79.9623	227.57
99.9772	244.63
