Adsorption isotherm of Methane on SQ-COP-3
DOI: 10.1002/slct.201600093
Article source: Figure 4
Adsorbate Methane: InChIKey VNWKTOKETHGBQD-UHFFFAOYSA-N
Kind: experiment
Temperature: 298 K
Tabular data in the source: 0
pressure (bar)	uptake (mg/g)
0.3117	5.31
2.6739	19.9
4.7963	30.5
6.1273	35.51
7.9618	45.24
10.0962	56.14
12.998	69.4
14.8445	77.65
20.0334	99.96
29.9502	144.63
50.0551	224.33
79.967	311.04
99.962	343.78
