Adsorption isotherm of Methane on SQ-COP-2
DOI: 10.1002/slct.201600093
Article source: Figure 4
Adsorbate Methane: InChIKey VNWKTOKETHGBQD-UHFFFAOYSA-N
Kind: experiment
Temperature: 298 K
Tabular data in the source: 0
pressure (bar)	uptake (mg/g)
0.9712	6.56
3.0558	18.2
4.8989	28.97
6.1377	35.84
8.2377	44.93
10.111	54.22
12.9815	65.17
15.0664	73.71
19.8857	99.15
30.0614	137.85
50.0027	211.79
79.9839	294.04
99.9899	325.65
