Adsorption isotherm of Carbon Dioxide on SQ-COP-3
DOI: 10.1002/slct.201600093
Article source: Figure 4
Adsorbate Carbon Dioxide: InChIKey CURLTUGMZLYLDI-UHFFFAOYSA-N
Kind: experiment
Temperature: 298 K
Tabular data in the source: 0
pressure (bar)	uptake (mg/g)
0.2072	1.76
1.978	43.65
3.0253	69.5
5.0056	114.77
5.9862	137.58
8.033	181.1
10.0418	227.08
13.0693	292.47
15.0597	335.38
20.0846	442.71
29.9529	633.24
50.0045	833.49
