Adsorption isotherm of Methane on SQ-COP-1
DOI: 10.1002/slct.201600093
Article source: Figure 4
Adsorbate Methane: InChIKey VNWKTOKETHGBQD-UHFFFAOYSA-N
Kind: experiment
Temperature: 298 K
Tabular data in the source: 0
pressure (bar)	uptake (mg/g)
0.7673	9.65
2.6495	21
4.7475	35.58
6.21	41.32
8.0802	51.04
10.0343	63.71
13.0434	80.51
14.9016	88.75
20.0098	114.18
29.9634	155.47
49.9251	210.58
79.8759	243.55
99.8401	245.61
