Adsorption isotherm of Nitrogen on SQ-COP-2
DOI: 10.1002/slct.201600093
Article source: Figure 4
Adsorbate Nitrogen: InChIKey IJGRMHOSHXDMSA-UHFFFAOYSA-N
Kind: experiment
Temperature: 298 K
Tabular data in the source: 0
pressure (bar)	uptake (mg/g)
0.498	5.09
2.7297	11.45
4.9134	21.49
6.2332	24.45
8.033	34.78
10.0128	42.47
13.1083	53.4
15.1121	61.96
20.0783	81.41
29.9904	116
50.0731	175.59
80.0583	238.45
99.9867	260.09
