Adsorption isotherm of Carbon Dioxide on SQ-COP-1
DOI: 10.1002/slct.201600093
Article source: Figure 4
Adsorbate Carbon Dioxide: InChIKey CURLTUGMZLYLDI-UHFFFAOYSA-N
Kind: experiment
Temperature: 298 K
Tabular data in the source: 0
pressure (bar)	uptake (mg/g)
0.1847	2.71
1.2279	20.27
2.3434	61.71
3.0273	93.72
5.0424	159.36
6.0499	189.45
8.0949	253.77
10.0259	315.35
13.0798	402.79
15.0503	459.93
20.0883	592.72
29.9876	805.41
49.8914	989.36
