Adsorption isotherm of Carbon Dioxide on [Cu(dpa)2SiF6-i]
DOI: 10.1021/Ct400549q
Adsorbate Carbon Dioxide: InChIKey CURLTUGMZLYLDI-UHFFFAOYSA-N
Temperature: 298 K
Tabular data in the source: 0
pressure (bar)	uptake (mmol/g)
0.00702701	0.43391
0.0746326	1.84377
0.125337	2.69166
0.198576	3.68743
0.245055	3.97335
0.302802	4.2987
0.405619	4.74236
0.498576	5.04799
0.601393	5.2156
0.721112	5.49166
0.852097	5.77757
0.897168	5.92546
0.998576	5.92546
