Adsorption isotherm of Carbon Dioxide on PCN-61
DOI: 10.1021/Ct400549q
Adsorbate Carbon Dioxide: InChIKey CURLTUGMZLYLDI-UHFFFAOYSA-N
Temperature: 298 K
Tabular data in the source: 0
pressure (bar)	uptake (mmol/g)
0.0405451	0.155006
0.145334	0.429654
0.231531	0.690217
0.349841	1.08458
0.437728	1.39444
0.567869	1.76064
0.650686	2.0212
0.721672	2.28881
0.799418	2.60571
0.914348	2.95078
1.00055	3.15501
