Adsorption isotherm of Carbon Dioxide on [Cu(dpa)2SiF6-i]
DOI: 10.1021/Ct400549q
Adsorbate Carbon Dioxide: InChIKey CURLTUGMZLYLDI-UHFFFAOYSA-N
Temperature: 298 K
Tabular data in the source: 0
pressure (bar)	uptake (mmol/g)
0.0140693	0.77898
0.050689	1.89306
0.0957594	3.25363
0.161957	3.89447
0.246464	4.67335
0.302802	5.10715
0.390126	5.25504
0.507027	5.38321
0.62252	5.50152
0.699985	5.56067
0.805619	5.73813
0.897408	5.83833
0.996938	6.02237
