Adsorption isotherm of Carbon Dioxide on PCN-61
DOI: 10.1021/Ct400549q
Adsorbate Carbon Dioxide: InChIKey CURLTUGMZLYLDI-UHFFFAOYSA-N
Temperature: 298 K
Tabular data in the source: 0
pressure (bar)	uptake (mmol/g)
0.00336199	0.0282452
0.0591366	0.380358
0.125052	0.816978
0.22139	1.35923
0.300827	1.7536
0.381954	2.13388
0.45801	2.48599
0.547587	2.88036
0.620263	3.23951
0.713221	3.66909
0.802799	4.09867
0.905897	4.35923
0.995475	4.59163
