Adsorption isotherm of Carbon Dioxide on PCN-61
DOI: 10.1021/Ct400549q
Adsorbate Carbon Dioxide: InChIKey CURLTUGMZLYLDI-UHFFFAOYSA-N
Temperature: 298 K
Tabular data in the source: 0
pressure (bar)	uptake (mmol/g)
0.0523761	0.140921
0.168996	0.478949
0.319418	0.901485
0.417446	1.16909
0.517165	1.42965
0.603362	1.68317
0.714911	2.06346
0.806179	2.39444
0.912658	2.73951
1.00055	3.03529
