Adsorption isotherm of Carbon Dioxide on IRMOF-1
DOI: 10.1021/Ct400549q
Adsorbate Carbon Dioxide: InChIKey CURLTUGMZLYLDI-UHFFFAOYSA-N
Temperature: 298 K
Tabular data in the source: 0
pressure (bar)	uptake (mmol/g)
0.778259	0.379925
2.2084	1.88158
4.95428	5.81447
6.44163	8.81777
8.215	11.8211
9.35912	14.0378
10.1028	15.5394
11.8762	16.4333
14.5076	17.8634
18.1688	19.8299
20.3426	21.0097
24.347	21.9393
30.0104	23.2622
34.358	23.2265
39.5637	23.1192
