Adsorption isotherm of Carbon Dioxide on IRMOF-1
DOI: 10.1021/Ct400549q
Adsorbate Carbon Dioxide: InChIKey CURLTUGMZLYLDI-UHFFFAOYSA-N
Temperature: 298 K
Tabular data in the source: 0
pressure (bar)	uptake (mmol/g)
0.606642	0.451432
2.78046	2.59665
4.95428	5.85022
6.49883	9.1038
7.98618	12.4289
9.30191	15.0746
10.0456	16.8266
12.0478	17.8634
19.885	21.4745
30.182	24.013
39.9642	24.2991
