Adsorption isotherm of Carbon Dioxide on IRMOF-1
DOI: 10.1021/Ct400549q
Adsorbate Carbon Dioxide: InChIKey CURLTUGMZLYLDI-UHFFFAOYSA-N
Temperature: 298 K
Tabular data in the source: 0
pressure (bar)	uptake (mmol/g)
2.78046	3.0972
5.1831	6.74406
7.52853	10.4267
10.1028	14.2523
12.5626	15.3249
16.0522	17.0053
19.8278	18.7573
23.0885	19.1506
28.0654	19.5796
33.0423	19.9014
39.7926	20.0801
