Adsorption isotherm of Carbon Dioxide on PCN-61
DOI: 10.1021/Ct400549q
Adsorbate Carbon Dioxide: InChIKey CURLTUGMZLYLDI-UHFFFAOYSA-N
Temperature: 298 K
Tabular data in the source: 0
pressure (bar)	uptake (mmol/g)
0.00505213	0.021203
0.140263	0.521203
0.2197	0.809935
0.353221	1.26064
0.478292	1.66205
0.599982	2.02825
0.726742	2.40148
0.856883	2.78177
0.990404	3.16205
