Adsorption isotherm of Carbon Dioxide on PCN-61
DOI: 10.1021/Ct400549q
Adsorbate Carbon Dioxide: InChIKey CURLTUGMZLYLDI-UHFFFAOYSA-N
Temperature: 298 K
Tabular data in the source: 0
pressure (bar)	uptake (mmol/g)
0.00674227	0.00696603
0.123362	0.295851
0.21463	0.54233
0.326179	0.838104
0.405616	1.0705
0.510404	1.30289
0.608432	1.53529
0.730123	1.8874
0.829841	2.18317
1.00224	2.59163
