Adsorption isotherm of Carbon Dioxide on [Cu(dpa)2SiF6-i]
DOI: 10.1021/Ct400549q
Adsorbate Carbon Dioxide: InChIKey CURLTUGMZLYLDI-UHFFFAOYSA-N
Temperature: 298 K
Tabular data in the source: 0
pressure (bar)	uptake (mmol/g)
0.0140693	1.0156
0.0647735	2.10997
0.101393	3.00715
0.174633	3.41137
0.270407	3.94377
0.353506	4.2494
0.44083	4.40715
0.505619	4.5156
0.595759	4.68321
0.711252	4.91983
0.823928	5.13673
0.918295	5.24518
0.994351	5.30433
