Adsorption isotherm of Carbon Dioxide on [Cu(dpa)2SiF6-i]
DOI: 10.1021/Ct400549q
Adsorbate Carbon Dioxide: InChIKey CURLTUGMZLYLDI-UHFFFAOYSA-N
Temperature: 298 K
Tabular data in the source: 0
pressure (bar)	uptake (mmol/g)
0.0217737	0.39546
0.0571949	1.09899
0.101471	1.83311
0.174528	2.67428
0.26308	3.45428
0.409193	4.26487
0.56416	4.83075
0.756763	5.32017
0.936083	5.64134
1.00914	5.73311
