Adsorption isotherm of Carbon Dioxide on [Cu(dpa)2SiF6-i]
DOI: 10.1021/Ct400549q
Adsorbate Carbon Dioxide: InChIKey CURLTUGMZLYLDI-UHFFFAOYSA-N
Temperature: 298 K
Tabular data in the source: 0
pressure (bar)	uptake (mmol/g)
0.0112524	0.759262
0.0337876	1.43954
0.0605481	2.25785
0.0929425	3.25363
0.121112	3.75644
0.164773	4.39729
0.201393	4.9494
0.294351	5.15644
0.408435	5.39306
0.545055	5.55081
0.684492	5.72828
0.798576	5.89588
0.914069	6.09306
0.988717	6.23109
