Adsorption isotherm of Carbon Dioxide on PCN-61
DOI: 10.1021/Ct400549q
Adsorbate Carbon Dioxide: InChIKey CURLTUGMZLYLDI-UHFFFAOYSA-N
Temperature: 298 K
Tabular data in the source: 0
pressure (bar)	uptake (mmol/g)
0.0075323	0.0202863
0.0925431	0.326169
0.20412	0.708522
0.307727	1.0581
0.427273	1.47323
0.594638	2.03037
0.727468	2.43457
0.926712	2.98079
1.00641	3.17743
