Adsorption isotherm of Carbon Dioxide on [Cu(dpa)2SiF6-i]
DOI: 10.1021/Ct400549q
Adsorbate Carbon Dioxide: InChIKey CURLTUGMZLYLDI-UHFFFAOYSA-N
Temperature: 298 K
Tabular data in the source: 0
pressure (bar)	uptake (mmol/g)
0.0126608	0.42405
0.0647735	1.51842
0.0999848	2.21842
0.191534	3.14518
0.294351	3.99306
0.35914	4.26912
0.494351	4.7325
0.630971	5.20574
0.711252	5.52123
0.823928	5.70856
0.897168	5.84659
0.999985	5.84659
