Adsorption isotherm of Carbon Dioxide on IRMOF-1
DOI: 10.1021/Ct400549q
Adsorbate Carbon Dioxide: InChIKey CURLTUGMZLYLDI-UHFFFAOYSA-N
Temperature: 298 K
Tabular data in the source: 0
pressure (bar)	uptake (mmol/g)
0.320613	0.12965
2.26561	1.48829
4.43942	3.66925
6.49883	6.20776
8.67265	9.28257
10.16	12.1429
12.8487	14.7171
15.1941	17.0411
19.4845	18.4355
29.9532	20.831
40.3074	21.0097
