Adsorption isotherm of Carbon Dioxide on IRMOF-1
DOI: 10.1021/Ct400549q
Adsorbate Carbon Dioxide: InChIKey CURLTUGMZLYLDI-UHFFFAOYSA-N
Temperature: 298 K
Tabular data in the source: 0
pressure (bar)	uptake (mmol/g)
0.251077	0.101432
3.17332	2.66866
5.91847	5.61824
8.13229	8.40395
9.9919	10.9712
12.2057	14.1939
15.0394	16.7611
19.3785	19.0552
24.6917	20.53
31.7759	21.4586
38.1517	21.8409
40.277	21.9502
