Adsorption isotherm of Carbon Dioxide on IRMOF-1
DOI: 10.1021/Ct400549q
Adsorbate Carbon Dioxide: InChIKey CURLTUGMZLYLDI-UHFFFAOYSA-N
Temperature: 298 K
Tabular data in the source: 0
pressure (bar)	uptake (mmol/g)
0.320613	0.12965
3.46693	2.6324
7.47133	7.67365
10.2744	11.8568
14.4504	14.6814
19.8278	17.9349
25.4911	19.1863
30.0676	20.2947
33.4427	20.6164
39.7926	21.2243
