Adsorption isotherm of Carbon Dioxide on [NH2Et2][Zn(BTC)]*H2O
DOI: 10.1016/j.inoche.2010.12.028
Adsorbate Carbon Dioxide: InChIKey CURLTUGMZLYLDI-UHFFFAOYSA-N
Temperature: 195 K
Tabular data in the source: 0
pressure (bar)	uptake (cm3(STP)/g)
0.00182509	2.60935
0.00182509	7.59086
0.00619484	0.249685
0.0105646	10.0379
0.0345982	13.7959
0.0717411	16.0682
0.128548	18.9522
0.211573	21.1371
0.307707	22.885
0.412581	24.6329
0.558968	26.9925
0.714094	28.9152
0.814598	30.5757
0.915102	31.4497
0.982834	32.0615
1.01124	32.3236
