Adsorption isotherm of Nitrogen on [NH2Et2][Zn(BTC)]*H2O
DOI: 10.1016/j.inoche.2010.12.028
Adsorbate Nitrogen: InChIKey IJGRMHOSHXDMSA-UHFFFAOYSA-N
Temperature: 77 K
Tabular data in the source: 0
pressure (bar)	uptake (cm3(STP)/g)
0.0149343	0.249685
0.159136	0.33708
0.211573	0.33708
0.25964	0.33708
0.309892	0.33708
0.408212	0.33708
0.508716	0.424475
0.607035	0.424475
0.661657	0.33708
0.709724	0.424475
0.762161	0.599265
0.803674	0.68666
0.912918	2.25977
0.965355	3.04632
0.998128	5.1438
