Adsorption isotherm of Nitrogen on MIL-100(Fe)
DOI: 10.1016/j.cej.2015.01.092
Article source: Figure  2a
Adsorbate Nitrogen: InChIKey IJGRMHOSHXDMSA-UHFFFAOYSA-N
Kind: experiment
Temperature: 77 K
Tabular data in the source: 0
pressure (bar)	uptake (cm3(STP)/g)
0.014287	247.8
0.029465	282.13
0.06119	329.88
0.085306	349.24
0.103574	361.24
0.118044	378.53
0.139413	396.08
0.173175	402.02
0.191423	404.08
0.21106	407.05
0.256869	409.88
0.306812	414.52
0.352621	415.68
0.406688	418.38
0.453875	419.79
0.506574	422.75
0.559952	423.13
0.609551	425.32
0.658805	426.35
0.70737	428.54
0.756614	429.69
0.808969	432.14
0.831696	432.78
0.861323	435.1
0.885084	437.29
0.913678	439.35
0.935027	441.93
0.959831	447.22
0.982224	458.32
0.994971	464.9
0.996349	466.75
0.996359	466.76
0.998082	478.71
1.00224	503.36
1.00257	504.09
