Adsorption isotherm of Nitrogen on HPW@MIL-100(Fe)
DOI: 10.1016/j.cej.2015.01.092
Article source: Figure  2a
Adsorbate Nitrogen: InChIKey IJGRMHOSHXDMSA-UHFFFAOYSA-N
Kind: experiment
Temperature: 77 K
Tabular data in the source: 0
pressure (bar)	uptake (cm3(STP)/g)
0.018755	187.45
0.020458	166.02
0.030499	212.88
0.062933	245.93
0.088122	259.48
0.102956	266.45
0.116412	278.06
0.144702	286.84
0.168159	290.97
0.204028	292
0.255065	295.47
0.307146	297.66
0.358194	298.95
0.406475	299.97
0.457857	301
0.506493	301.9
0.557186	303.05
0.608923	303.95
0.660649	304.33
0.710319	305.74
0.764801	306.77
0.810326	307.54
0.833094	308.18
0.86413	309.86
0.890687	310.37
0.911722	312.43
0.931734	314.88
0.943802	316.3
0.961392	319.91
0.983815	328.82
0.993826	336.05
1.00142	341.6
1.00279	346.37
1.0059	351.28
1.00591	351.29
1.00729	359.8
