Adsorption isotherm of Carbon Dioxide on ZIF-25
DOI: 10.1021/Jp3108182
Adsorbate Carbon Dioxide: InChIKey CURLTUGMZLYLDI-UHFFFAOYSA-N
Temperature: 298 K
Tabular data in the source: 0
pressure (bar)	uptake (cm3(STP)/cm3)
0.226363	6.61702
0.420817	10.2876
0.578128	13.6086
0.855607	18.1532
1.02166	20.9498
