Adsorption isotherm of Carbon Dioxide on ZIF-78
DOI: 10.1021/Jp3108182
Adsorbate Carbon Dioxide: InChIKey CURLTUGMZLYLDI-UHFFFAOYSA-N
Temperature: 298 K
Tabular data in the source: 0
pressure (bar)	uptake (cm3(STP)/cm3)
0.202329	24.7952
0.374934	34.5834
0.477623	40.0019
0.608716	45.77
0.735439	50.4893
0.857791	54.6842
0.984514	57.8305
1.06754	59.9279
