Adsorption isotherm of Carbon Dioxide on ZIF-81
DOI: 10.1021/Jp3108182
Adsorbate Carbon Dioxide: InChIKey CURLTUGMZLYLDI-UHFFFAOYSA-N
Temperature: 298 K
Tabular data in the source: 0
pressure (bar)	uptake (cm3(STP)/cm3)
0.202329	14.4826
0.333422	21.649
0.442665	27.0674
0.580312	32.6607
0.722329	37.2053
0.890565	43.3229
0.986699	46.1195
1.05225	48.217
