Adsorption isotherm of Carbon Dioxide on ZIF-71
DOI: 10.1021/Jp3108182
Adsorbate Carbon Dioxide: InChIKey CURLTUGMZLYLDI-UHFFFAOYSA-N
Temperature: 298 K
Tabular data in the source: 0
pressure (bar)	uptake (cm3(STP)/cm3)
0.230733	4.51954
0.335607	6.26744
0.501657	9.06408
0.728884	12.5599
0.962665	16.0557
1.0304	16.9296
