Adsorption isotherm of Carbon Dioxide on ZIF-79
DOI: 10.1021/Jp3108182
Adsorbate Carbon Dioxide: InChIKey CURLTUGMZLYLDI-UHFFFAOYSA-N
Temperature: 298 K
Tabular data in the source: 0
pressure (bar)	uptake (cm3(STP)/cm3)
0.110986	8.88133
0.334088	15.746
0.55862	22.6107
0.777432	27.6448
