Adsorption isotherm of Carbon Dioxide on IRMOF-1
DOI: 10.1021/Jp3108182
Adsorbate Carbon Dioxide: InChIKey CURLTUGMZLYLDI-UHFFFAOYSA-N
Temperature: 298 K
Tabular data in the source: 0
pressure (bar)	uptake (mg/g)
1.30637	38.9527
4.22099	162.18
6.43864	274.919
8.9731	403.39
10.367	500.398
12.5213	626.247
16.0696	752.096
20.2514	849.104
24.7501	898.919
28.6785	922.516
29.9457	930.381
