Adsorption isotherm of Carbon Dioxide on ZIF-78
DOI: 10.1021/Jp3108182
Adsorbate Carbon Dioxide: InChIKey CURLTUGMZLYLDI-UHFFFAOYSA-N
Temperature: 298 K
Tabular data in the source: 0
pressure (bar)	uptake (cm3(STP)/cm3)
0.106695	19.5216
0.335518	34.8527
0.55862	48.9253
0.783153	60.7097
