Adsorption isotherm of Carbon Dioxide on ZIF-71
DOI: 10.1021/Jp3108182
Adsorbate Carbon Dioxide: InChIKey CURLTUGMZLYLDI-UHFFFAOYSA-N
Temperature: 298 K
Tabular data in the source: 0
pressure (bar)	uptake (cm3(STP)/cm3)
0.0666512	3.38958
0.462801	10.2543
0.85609	16.2037
1.01484	17.9198
