Adsorption isotherm of Carbon Dioxide on ZIF-68
DOI: 10.1021/Jp3108182
Adsorbate Carbon Dioxide: InChIKey CURLTUGMZLYLDI-UHFFFAOYSA-N
Temperature: 298 K
Tabular data in the source: 0
pressure (bar)	uptake (cm3(STP)/cm3)
0.213254	10.4624
0.385859	18.1532
0.582497	25.4943
0.737623	30.0389
0.892749	35.1078
1.05661	39.6523
