Adsorption isotherm of Carbon Dioxide on ZIF-69
DOI: 10.1021/Jp3108182
Adsorbate Carbon Dioxide: InChIKey CURLTUGMZLYLDI-UHFFFAOYSA-N
Temperature: 298 K
Tabular data in the source: 0
pressure (bar)	uptake (cm3(STP)/cm3)
0.204514	13.259
0.276615	16.58
0.35527	20.775
0.425186	24.4456
0.53006	28.9901
0.663338	34.4086
0.809724	38.9532
0.903674	42.9733
1.01729	47.1683
1.06754	48.7414
