Adsorption isotherm of Carbon Dioxide on ZIF-81
DOI: 10.1021/Jp3108182
Adsorbate Carbon Dioxide: InChIKey CURLTUGMZLYLDI-UHFFFAOYSA-N
Temperature: 298 K
Tabular data in the source: 0
pressure (bar)	uptake (cm3(STP)/cm3)
0.110986	12.0848
0.331228	22.6107
0.55576	31.6492
0.780293	38.5139
