Adsorption isotherm of Carbon Dioxide on ZIF-25
DOI: 10.1021/Jp3108182
Adsorbate Carbon Dioxide: InChIKey CURLTUGMZLYLDI-UHFFFAOYSA-N
Temperature: 298 K
Tabular data in the source: 0
pressure (bar)	uptake (cm3(STP)/cm3)
0.0623608	5.67781
0.461371	16.0892
0.85752	22.3819
1.01341	25.3566
