Adsorption isotherm of Carbon Dioxide on ZIF-70
DOI: 10.1021/Jp3108182
Adsorbate Carbon Dioxide: InChIKey CURLTUGMZLYLDI-UHFFFAOYSA-N
Temperature: 298 K
Tabular data in the source: 0
pressure (bar)	uptake (cm3(STP)/cm3)
0.213254	7.31618
0.405523	13.0842
0.595607	17.2792
0.759472	20.9498
0.97796	24.7952
1.05661	26.5431
