Adsorption isotherm of Carbon Dioxide on ZIF-69
DOI: 10.1021/Jp3108182
Adsorbate Carbon Dioxide: InChIKey CURLTUGMZLYLDI-UHFFFAOYSA-N
Temperature: 298 K
Tabular data in the source: 0
pressure (bar)	uptake (cm3(STP)/cm3)
0.109555	11.0551
0.332658	21.1234
0.55719	27.988
0.778862	35.5392
