Adsorption isotherm of Carbon Dioxide on ZIF-79
DOI: 10.1021/Jp3108182
Adsorbate Carbon Dioxide: InChIKey CURLTUGMZLYLDI-UHFFFAOYSA-N
Temperature: 298 K
Tabular data in the source: 0
pressure (bar)	uptake (cm3(STP)/cm3)
0.202329	11.3363
0.307203	15.7061
0.486363	21.649
0.637119	26.3683
0.759472	28.8153
0.960481	33.8842
1.06754	35.9817
