Adsorption isotherm of Carbon Dioxide on ZIF-70
DOI: 10.1021/Jp3108182
Adsorbate Carbon Dioxide: InChIKey CURLTUGMZLYLDI-UHFFFAOYSA-N
Temperature: 298 K
Tabular data in the source: 0
pressure (bar)	uptake (cm3(STP)/cm3)
0.118136	6.24986
0.339808	11.5128
0.564341	15.6316
0.781723	20.3225
