Adsorption isotherm of Carbon Dioxide on IRMOF-3
DOI: 10.1021/Jp3108182
Adsorbate Carbon Dioxide: InChIKey CURLTUGMZLYLDI-UHFFFAOYSA-N
Temperature: 298 K
Tabular data in the source: 0
pressure (bar)	uptake (mg/g)
0.0107935	33.7091
4.11862	235.591
9.36232	584.297
14.5405	759.961
19.7842	854.348
24.8312	891.054
30.0749	917.272
