Adsorption isotherm of Carbon Dioxide on ZIF-68
DOI: 10.1021/Jp3108182
Adsorbate Carbon Dioxide: InChIKey CURLTUGMZLYLDI-UHFFFAOYSA-N
Temperature: 298 K
Tabular data in the source: 0
pressure (bar)	uptake (cm3(STP)/cm3)
0.112416	8.76692
0.334088	16.7757
0.55719	23.8692
0.777432	29.1322
