Adsorption isotherm of Carbon Dioxide on IRMOF-1
DOI: 10.1021/Jp3108182
Adsorbate Carbon Dioxide: InChIKey CURLTUGMZLYLDI-UHFFFAOYSA-N
Temperature: 298 K
Tabular data in the source: 0
pressure (bar)	uptake (mg/g)
0.120299	28.4654
4.11862	154.314
9.36232	432.23
14.4094	738.986
19.6531	854.348
24.8968	930.381
30.0094	964.465
