Adsorption isotherm of Carbon Dioxide on IRMOF-3
DOI: 10.1021/Jp3108182
Adsorbate Carbon Dioxide: InChIKey CURLTUGMZLYLDI-UHFFFAOYSA-N
Temperature: 298 K
Tabular data in the source: 0
pressure (bar)	uptake (mg/g)
1.05293	52.062
3.01713	143.827
4.60116	246.079
6.12184	350.953
8.02268	466.314
9.60671	555.457
11.4442	623.625
14.3588	686.549
17.1467	725.877
21.7087	767.827
24.8768	786.18
29.9457	807.154
