Adsorption isotherm of Water on Carbon Molecular Sieve
DOI: 10.1021/la061140a
Article source: Figure 1a
Adsorbate Water: InChIKey XLYOFNOQVPJJNP-UHFFFAOYSA-N
Kind: experiment
Temperature: 293 K
Tabular data in the source: 0
pressure (bar)	uptake (mol/g)
0.001924	0.000266
0.003242	0.000391
0.004168	0.000562
0.005023	0.000672
0.007662	0.001672
0.008984	0.002766
0.009271	0.003187
0.009486	0.0035
0.009593	0.003672
0.009808	0.003938
0.010023	0.004219
0.010381	0.004578
0.010703	0.005016
0.010846	0.005219
0.010918	0.005422
0.011274	0.005375
0.011275	0.005594
0.011881	0.00575
0.011988	0.005844
0.012808	0.006125
0.01313	0.006313
0.013842	0.006422
0.014732	0.006437
0.015231	0.006531
0.015944	0.006625
0.016336	0.006781
0.017155	0.00675
0.018188	0.006875
0.018616	0.007063
0.02004	0.007109
