Adsorption isotherm of Water on Carbon Molecular Sieve
DOI: 10.1021/la061140a
Article source: Figure 2a
Adsorbate Water: InChIKey XLYOFNOQVPJJNP-UHFFFAOYSA-N
Kind: experiment
Temperature: 323 K
Tabular data in the source: 0
pressure (bar)	uptake (mol/g)
0.000378	6.2e-05
0.000943	6.2e-05
0.001508	7.7e-05
0.002451	0.000108
0.003393	0.000123
0.003957	0.000108
0.004899	0.000107
0.006218	0.000154
0.007914	0.000184
0.009044	0.0002
0.010552	0.00023
0.012436	0.000261
0.016015	0.000307
0.018275	0.000337
0.02016	0.000383
0.02374	0.000476
0.026755	0.000521
0.029582	0.000629
0.033914	0.000659
0.034104	0.000737
0.03731	0.000892
0.04089	0.000984
0.044101	0.001387
0.047496	0.001604
0.049008	0.001852
0.051842	0.002208
0.054111	0.002612
0.054683	0.002891
0.05733	0.003372
0.059032	0.003636
0.060357	0.003946
0.061873	0.004349
0.062254	0.00452
0.063388	0.004691
0.064153	0.005203
0.064527	0.005079
0.066035	0.005156
0.067169	0.005311
0.070565	0.00559
0.07264	0.005729
0.075655	0.005806
0.078295	0.005945
0.079055	0.00624
0.080182	0.006085
0.0832	0.006317
0.088474	0.006331
0.092806	0.006345
0.092809	0.006501
0.099213	0.00653
0.103925	0.0067
0.107881	0.006745
