Adsorption isotherm of Water on Carbon Molecular Sieve
DOI: 10.1021/la061140a
Article source: Figure 4
Adsorbate Water: InChIKey XLYOFNOQVPJJNP-UHFFFAOYSA-N
Kind: experiment
Temperature: 293 K
Tabular data in the source: 0
pressure (bar)	uptake (mol/g)
0.003307	3.6e-05
0.005994	6e-05
0.008681	8.8e-05
0.011369	0.000109
0.01695	0.000144
0.022737	0.000192
0.031832	0.000236
0.039687	0.000293
0.047541	0.000332
0.05767	0.000379
0.071312	0.000424
0.082681	0.000479
0.099217	0.000517
0.110379	0.000567
0.122367	0.000602
0.130842	0.000608
