Adsorption isotherm of Water on Carbon Molecular Sieve
DOI: 10.1021/la061140a
Article source: Figure 4
Adsorbate Water: InChIKey XLYOFNOQVPJJNP-UHFFFAOYSA-N
Kind: experiment
Temperature: 353 K
Tabular data in the source: 0
pressure (bar)	uptake (mol/g)
0.020877	1.8e-05
0.027078	2.3e-05
0.032866	2.9e-05
0.037206	3.4e-05
0.045474	3.8e-05
0.052709	4.3e-05
0.061184	5e-05
0.068832	5.6e-05
0.076893	6.1e-05
0.086815	6.8e-05
0.093636	7.3e-05
0.099423	7.7e-05
0.109138	8.3e-05
0.1203	9.1e-05
