Adsorption isotherm of Water on Carbon Molecular Sieve
DOI: 10.1021/la061140a
Article source: Figure 3a
Adsorbate Water: InChIKey XLYOFNOQVPJJNP-UHFFFAOYSA-N
Kind: experiment
Temperature: 333 K
Tabular data in the source: 0
pressure (bar)	uptake (mol/g)
0.000913	3.1e-05
0.00213	4.7e-05
0.003651	6.2e-05
0.004868	7.8e-05
0.007607	9.4e-05
0.010041	0.000109
0.013692	0.000156
0.015518	0.000172
0.02282	0.000218
0.028601	0.000281
0.034687	0.000343
0.040468	0.000405
0.045336	0.000483
0.051118	0.000608
0.057507	0.000655
0.061158	0.000733
0.068157	0.000951
0.073329	0.001076
0.078502	0.00145
0.083066	0.001715
0.088847	0.002183
0.093107	0.002667
0.097366	0.003181
0.102235	0.003914
0.105886	0.004538
0.108929	0.004741
0.113493	0.005177
0.115927	0.005505
0.122012	0.00577
0.130228	0.005895
0.136009	0.006004
