Adsorption isotherm of Water on Carbon Molecular Sieve
DOI: 10.1021/la061140a
Article source: Figure 4
Adsorbate Water: InChIKey XLYOFNOQVPJJNP-UHFFFAOYSA-N
Kind: experiment
Temperature: 323 K
Tabular data in the source: 0
pressure (bar)	uptake (mol/g)
0.006408	1.9e-05
0.009922	3e-05
0.012402	3.6e-05
0.020257	5.8e-05
0.029145	7.4e-05
0.033072	8.5e-05
0.042994	0.00011
0.053742	0.000129
0.066351	0.000152
0.078753	0.000175
0.091155	0.000193
0.103971	0.000208
0.11968	0.000234
0.126915	0.000245
