Adsorption isotherm of Tetrachloroethene on Silicalite MFI
DOI: 10.1039/B805117h
Adsorbate Tetrachloroethene: InChIKey CYTYCFOTNPOANT-UHFFFAOYSA-N
Temperature: 300 K
Tabular data in the source: 0
pressure (bar)	uptake (molecules/unitcell)
1.07e-06	0.0846595
9.68e-06	0.239589
0.0001	4.16917
0.00103278	7.76072
0.0104966	8.74663
0.0999824	9.36635
