Adsorption isotherm of Tetrachloroethene on Silicalite MFI
DOI: 10.1039/B805117h
Adsorbate Tetrachloroethene: InChIKey CYTYCFOTNPOANT-UHFFFAOYSA-N
Temperature: 300 K
Tabular data in the source: 0
pressure (bar)	uptake (molecules/unitcell)
1.1e-06	0.0529291
1.01e-05	0.167341
0.000102	1.65469
0.000398	3.29077
0.000969	3.81707
0.0100363	5.15568
0.100617	6.48285
