Adsorption isotherm of Tetrachloroethene on Silicalite MFI
DOI: 10.1039/B805117h
Adsorbate Tetrachloroethene: InChIKey CYTYCFOTNPOANT-UHFFFAOYSA-N
Temperature: 300 K
Tabular data in the source: 0
pressure (bar)	uptake (molecules/unitcell)
1.04e-05	0.383221
0.000102	2.41139
0.000195	4.16914
0.000295	6.24238
0.000388	6.69308
0.00049	6.97477
0.00106686	7.51561
0.00980592	8.03393
