Adsorption isotherm of Tetrachloroethene on Silicalite MFI
DOI: 10.1039/B805117h
Adsorbate Tetrachloroethene: InChIKey CYTYCFOTNPOANT-UHFFFAOYSA-N
Temperature: 300 K
Tabular data in the source: 0
pressure (bar)	uptake (molecules/unitcell)
5.8e-05	2.32972
0.000103	3.22213
0.000166	3.66833
0.000259	3.92004
0.000411	4.09165
0.000631	4.40056
0.000674	6.79176
0.000757	7.28373
0.0010346	7.61553
0.00146197	7.7757
0.0029677	7.93588
0.00545753	7.93588
0.00955258	8.03885
0.0146568	8.27911
0.0244181	8.59946
