Adsorption isotherm of Tetrachloroethene on Silicalite MFI
DOI: 10.1039/B805117h
Adsorbate Tetrachloroethene: InChIKey CYTYCFOTNPOANT-UHFFFAOYSA-N
Temperature: 300 K
Tabular data in the source: 0
pressure (bar)	uptake (molecules/unitcell)
1.08e-06	0.0758114
9.64e-06	0.350399
2.06e-05	0.739398
5.17e-05	2.03225
0.000105	4.04589
0.000203	5.73918
0.00051	6.44853
0.0010346	7.00914
0.0105445	7.55832
0.0957681	7.66129
