Adsorption isotherm of Tetrachloroethene on Silicalite MFI
DOI: 10.1039/B805117h
Adsorbate Tetrachloroethene: InChIKey CYTYCFOTNPOANT-UHFFFAOYSA-N
Temperature: 300 K
Tabular data in the source: 0
pressure (bar)	uptake (molecules/unitcell)
1.04e-06	0.110135
1.03e-05	0.544898
3.05e-05	1.28857
0.000102	2.81024
0.000411	3.7713
0.0010346	4.13742
0.00196631	4.412
0.00306705	4.61795
0.00955258	5.78494
0.0287885	6.746
0.100617	7.55832
