Adsorption isotherm of Tetrachloroethene on Silicalite MFI
DOI: 10.1039/B805117h
Adsorbate Tetrachloroethene: InChIKey CYTYCFOTNPOANT-UHFFFAOYSA-N
Temperature: 300 K
Tabular data in the source: 0
pressure (bar)	uptake (molecules/unitcell)
5.99e-05	2.5128
9.81e-05	3.16632
0.000165	3.65083
0.00027	3.96632
0.000436	4.13533
0.000603	4.25928
0.000635	5.10435
0.000652	6.24238
0.000704	7.35787
0.000913	7.58322
0.00145653	7.84238
0.00201449	7.85364
0.00251153	7.95505
0.00486702	7.97759
0.00967954	8.12407
0.0135623	8.20294
0.0227869	8.5635
