Adsorption isotherm of Tetrachloroethene on Silicalite MFI
DOI: 10.1039/B805117h
Adsorbate Tetrachloroethene: InChIKey CYTYCFOTNPOANT-UHFFFAOYSA-N
Temperature: 300 K
Tabular data in the source: 0
pressure (bar)	uptake (molecules/unitcell)
1.12e-06	0.0564905
9.37e-06	0.098744
9.84e-05	1.15508
0.000952	5.05649
0.0101617	7.42269
0.0999824	8.36635
