Adsorption isotherm of Tetrachloroethene on Silicalite MFI
DOI: 10.1039/B805117h
Adsorbate Tetrachloroethene: InChIKey CYTYCFOTNPOANT-UHFFFAOYSA-N
Temperature: 300 K
Tabular data in the source: 0
pressure (bar)	uptake (molecules/unitcell)
2.32e-06	0.112829
5.86e-06	0.422688
1.1e-05	0.873392
1.65e-05	1.33818
3.16e-05	2.11283
6.15e-05	3.09874
0.000112	4.21142
0.000311	6.26776
0.000625	7.54945
0.00112	8.38043
0.00207408	8.90156
0.0034848	9.28184
0.00823032	9.64804
0.0152413	9.80297
0.029155	9.94381
0.0634952	10.1269
0.0952351	10.2537
