Adsorption isotherm of Tetrachloroethene on Silicalite MFI
DOI: 10.1039/B805117h
Adsorbate Tetrachloroethene: InChIKey CYTYCFOTNPOANT-UHFFFAOYSA-N
Temperature: 300 K
Tabular data in the source: 0
pressure (bar)	uptake (molecules/unitcell)
1.14e-06	0.0564905
1.02e-05	0.380434
0.0001	3.52128
0.00110199	7.42269
0.0101617	8.39452
0.0999824	9.02832
