Adsorption isotherm of Methane on NOTT-109a
DOI: 10.1039/C3ee41166d
Adsorbate Methane: InChIKey VNWKTOKETHGBQD-UHFFFAOYSA-N
Temperature: 300 K
Tabular data in the source: 0
pressure (bar)	uptake (cm3(STP)/cm3)
-0.51507	2.46311
-0.306132	8.24361
0.06984	12.3779
0.274122	17.3332
0.473748	21.4633
1.23035	30.5571
1.99626	41.3012
3.1428	57.0048
4.99938	73.5502
5.92301	80.9977
9.24157	106.654
14.3515	137.302
22.2784	167.192
29.7873	185.521
36.9203	199.715
46.1834	216.435
57.21	233.197
63.0573	238.285
65.1921	241.636
66.0831	243.307
