Adsorption isotherm of Methane on NOTT-100a
DOI: 10.1039/C3ee41166d
Adsorbate Methane: InChIKey VNWKTOKETHGBQD-UHFFFAOYSA-N
Temperature: 270 K
Tabular data in the source: 0
pressure (bar)	uptake (cm3(STP)/g)
0.221992	18.4555
0.651679	28.415
0.869156	38.3595
1.73154	63.9526
1.95353	82.4081
2.81592	108.001
4.10347	135.043
9.00687	177.944
14.3249	202.434
23.2497	225.762
29.8328	234.74
37.9035	248.078
48.0948	258.73
58.2854	267.964
62.5318	272.52
