Adsorption isotherm of Methane on NOTT-100a
DOI: 10.1039/C3ee41166d
Adsorbate Methane: InChIKey VNWKTOKETHGBQD-UHFFFAOYSA-N
Temperature: 300 K
Tabular data in the source: 0
pressure (bar)	uptake (cm3(STP)/g)
0.642649	11.3931
1.29057	32.7156
1.93321	44.1087
2.57887	61.1758
3.86191	79.7065
5.35942	102.508
8.13169	128.236
12.8138	154.1
19.8296	178.711
28.7536	200.621
35.7626	212.465
44.2585	227.252
54.8757	240.771
61.2458	248.315
63.7938	251.333
