Adsorption isotherm of Nitrogen on NOTT-100a
DOI: 10.1039/C3ee41166d
Adsorbate Nitrogen: InChIKey IJGRMHOSHXDMSA-UHFFFAOYSA-N
Temperature: 77 K
Tabular data in the source: 0
pressure (bar)	uptake (cm3(STP)/g)
0.00766699	340.47
0.0218112	382.35
0.115481	402.667
0.191152	406.787
0.234983	413.468
0.262866	415.599
0.296731	420.02
0.346512	421.994
0.402265	423.925
0.539649	427.6
0.623261	426.998
0.720831	430.96
0.838285	430.114
0.937845	434.062
