Adsorption isotherm of Methane on NOTT-102a
DOI: 10.1039/C3ee41166d
Adsorbate Methane: InChIKey VNWKTOKETHGBQD-UHFFFAOYSA-N
Temperature: 300 K
Tabular data in the source: 0
pressure (bar)	uptake (cm3(STP)/cm3)
0.227562	9.08127
0.956225	13.2239
1.52251	19.8379
2.2698	27.2812
3.56475	38.0378
5.0407	49.6238
8.14567	68.6739
12.8843	96.0133
19.781	130.829
29.1233	161.578
36.1218	183.195
44.8698	202.378
55.5623	222.432
62.4864	230.846
65.1642	236.685
66.0552	238.356
