Adsorption isotherm of Methane on NOTT-103a
DOI: 10.1039/C3ee41166d
Adsorbate Methane: InChIKey VNWKTOKETHGBQD-UHFFFAOYSA-N
Temperature: 300 K
Tabular data in the source: 0
pressure (bar)	uptake (cm3(STP)/g)
0.530562	13.3333
1.0577	24
1.58655	36
2.62885	48
4.02372	68
5.422	90.6667
8.54719	125.333
12.8858	172
20.146	228
28.7633	274.667
35.4741	302.667
44.0623	326.667
54.7027	349.333
61.0506	361.333
63.7958	366.667
64.6516	366.667
