Adsorption isotherm of Methane on NOTT-102a
DOI: 10.1039/C3ee41166d
Adsorbate Methane: InChIKey VNWKTOKETHGBQD-UHFFFAOYSA-N
Temperature: 300 K
Tabular data in the source: 0
pressure (bar)	uptake (cm3(STP)/g)
0.354279	9.33333
0.88313	21.3333
1.58313	33.3333
2.62543	45.3333
3.84572	62.6667
5.41174	82.6667
8.19462	117.333
12.8738	162.667
19.6222	220
28.5905	273.333
35.3115	309.333
44.2557	344
54.5623	373.333
61.0866	389.333
63.6641	397.333
64.6944	400
