Adsorption isotherm of Methane on NOTT-101a
DOI: 10.1039/C3ee41166d
Adsorbate Methane: InChIKey VNWKTOKETHGBQD-UHFFFAOYSA-N
Temperature: 300 K
Tabular data in the source: 0
pressure (bar)	uptake (cm3(STP)/g)
0.522005	6.66667
0.872861	13.3333
1.39658	21.3333
1.75428	33.3333
2.8	48
4.54401	73.3333
5.76259	89.3333
9.58435	133.333
15.477	190.667
25.8213	249.333
30.8103	269.333
39.7477	298.667
51.5912	325.333
59.8218	337.333
63.255	345.333
64.6276	348
