Adsorption isotherm of Methane on NOTT-100a
DOI: 10.1039/C3ee41166d
Adsorbate Methane: InChIKey VNWKTOKETHGBQD-UHFFFAOYSA-N
Temperature: 240 K
Tabular data in the source: 0
pressure (bar)	uptake (cm3(STP)/g)
0.23629	45.4068
0.668987	61.0404
0.891732	80.9143
1.33496	116.407
1.98589	143.403
2.85053	173.252
4.77246	196.083
5.83877	206.088
9.67059	229.055
16.4718	249.395
27.3028	265.766
30.9126	270.277
40.0444	283.691
52.1441	291.641
59.9981	296.454
62.9721	302.338
