Adsorption isotherm of Nitrogen on NOTT-102a
DOI: 10.1039/C3ee41166d
Adsorbate Nitrogen: InChIKey IJGRMHOSHXDMSA-UHFFFAOYSA-N
Temperature: 77 K
Tabular data in the source: 0
pressure (bar)	uptake (cm3(STP)/g)
0.000647447	86.5466
0.00132989	177.771
0.00299225	133.319
0.00325473	435.072
0.00395468	261.969
0.00559954	481.844
0.00692942	392.949
0.00790935	523.939
0.00822433	566.042
0.0105692	612.815
0.0129139	659.587
0.0171836	696.993
0.0334222	734.342
0.0735464	764.558
0.139499	780.615
0.197401	787.354
0.237333	791.84
0.269267	794.025
0.30122	798.549
0.337127	798.377
0.377041	800.524
0.424935	802.632
0.492795	806.984
0.552639	806.695
0.620499	811.047
0.702287	810.653
0.792072	812.56
0.893827	814.409
0.933723	814.217
0.959656	814.092
0.977611	814.006
