Adsorption isotherm of Methane on NOTT-100a
DOI: 10.1039/C3ee41166d
Adsorbate Methane: InChIKey VNWKTOKETHGBQD-UHFFFAOYSA-N
Temperature: 150 K
Tabular data in the source: 0
pressure (bar)	uptake (cm3(STP)/g)
0.0984308	92.5249
0.196862	185.05
0.704159	261.909
0.760189	314.577
0.960836	303.186
1.83763	327.369
3.76006	334.453
5.46821	340.116
6.31926	340.101
8.01681	335.8
