Adsorption isotherm of Nitrogen on NOTT-109a
DOI: 10.1039/C3ee41166d
Adsorbate Nitrogen: InChIKey IJGRMHOSHXDMSA-UHFFFAOYSA-N
Temperature: 77 K
Tabular data in the source: 0
pressure (bar)	uptake (cm3(STP)/g)
0.000279977	37.4256
0.000594951	79.5293
0.000822432	109.938
0.00108491	145.024
0.00535456	182.43
0.00563453	219.856
0.00591452	257.281
0.0061595	290.029
0.00643947	327.454
0.00668445	360.202
0.00892427	392.939
0.0111991	430.355
0.023448	467.723
0.0516033	497.997
0.101597	514.131
0.167496	523.17
0.221392	527.589
0.249337	529.793
0.27527	529.669
0.311194	531.835
0.343129	534.02
0.387033	536.148
0.428925	535.946
0.480808	538.036
0.542665	540.077
0.612484	539.741
0.690301	541.705
0.784076	543.593
0.885813	543.103
0.977592	545
