Adsorption isotherm of Methane on NOTT-100a
DOI: 10.1039/C3ee41166d
Adsorbate Methane: InChIKey VNWKTOKETHGBQD-UHFFFAOYSA-N
Temperature: 300 K
Tabular data in the source: 0
pressure (bar)	uptake (cm3(STP)/cm3)
-0.10185	13.1989
0.274122	17.3332
0.664062	23.943
0.872999	29.7236
1.46256	40.4635
2.25641	56.1588
3.59327	74.3421
5.11578	94.18
8.25334	119.006
12.978	143.87
19.9859	167.138
29.2629	186.333
36.5536	197.231
45.2644	209.813
56.277	224.099
62.4771	229.196
65.1362	231.734
