Adsorption isotherm of Methane on NOTT-103a
DOI: 10.1039/C3ee41166d
Adsorbate Methane: InChIKey VNWKTOKETHGBQD-UHFFFAOYSA-N
Temperature: 300 K
Tabular data in the source: 0
pressure (bar)	uptake (cm3(STP)/cm3)
0.408564	9.91062
0.441156	15.687
1.18844	23.1303
1.93573	30.5737
3.59734	43.8142
5.08726	57.8757
8.21551	81.0518
12.9728	111.692
20.2268	147.342
29.0354	177.252
36.3726	196.402
44.754	213.101
55.5949	228.208
62.3333	234.968
64.6491	239.148
66.2362	239.185
