Adsorption isotherm of Methane on NOTT-109a
DOI: 10.1039/C3ee41166d
Adsorbate Methane: InChIKey VNWKTOKETHGBQD-UHFFFAOYSA-N
Temperature: 300 K
Tabular data in the source: 0
pressure (bar)	uptake (cm3(STP)/g)
-0.166015	4
0.184841	10.6667
0.706846	17.3333
0.884841	22.6667
1.23741	30.6667
1.42054	40
2.46455	53.3333
3.5154	72
5.25257	92
5.95257	104
9.24548	136
14.0839	172
21.8369	212
29.3966	234.667
36.4342	250.667
45.1919	273.333
56.0017	294.667
61.6582	301.333
63.8848	302.667
64.5746	306.667
