Adsorption isotherm of Methane on NOTT-100a
DOI: 10.1039/C3ee41166d
Adsorbate Methane: InChIKey VNWKTOKETHGBQD-UHFFFAOYSA-N
Temperature: 270 K
Tabular data in the source: 0
pressure (bar)	uptake (cm3(STP)/g)
0.0181718	17.0815
0.45581	28.4616
0.470953	42.6962
1.12741	59.7664
2.00269	82.5266
2.6652	105.291
4.18179	130.886
8.90496	170.66
14.4595	191.914
23.1979	205.993
29.5838	208.726
37.8875	214.272
47.8904	216.941
58.3127	213.909
62.3536	212.414
