Adsorption isotherm of Nitrogen on NOTT-103a
DOI: 10.1039/C3ee41166d
Adsorbate Nitrogen: InChIKey IJGRMHOSHXDMSA-UHFFFAOYSA-N
Temperature: 77 K
Tabular data in the source: 0
pressure (bar)	uptake (cm3(STP)/g)
0.000262478	301.753
0.000402467	53.7992
0.000787435	105.259
0.0011549	154.38
0.00300975	402.325
0.00337722	451.446
0.00549455	201.143
0.00573953	500.557
0.00813683	554.347
0.0104641	598.78
0.0167986	645.533
0.0450413	687.502
0.115036	710.557
0.18489	714.899
0.230806	719.356
0.260729	719.212
0.290686	723.746
0.326593	723.573
0.372491	725.692
0.416395	727.819
0.472251	727.55
0.532132	731.94
0.599955	731.614
0.671805	735.946
0.749638	740.25
0.939165	741.676
0.977067	741.494
