Adsorption isotherm of Methane on NOTT-100a
DOI: 10.1039/C3ee41166d
Adsorbate Methane: InChIKey VNWKTOKETHGBQD-UHFFFAOYSA-N
Temperature: 240 K
Tabular data in the source: 0
pressure (bar)	uptake (cm3(STP)/g)
0.259706	44.1235
0.486097	56.9309
0.721573	78.279
1.18647	115.281
1.85353	142.316
2.73335	169.346
4.88671	193.507
5.74684	202.033
9.59624	220.47
16.207	234.587
27.4894	240.08
30.8936	240.02
40.0439	241.28
52.378	235.367
60.0314	229.537
63.0116	230.907
