Adsorption isotherm of Methane on NOTT-100a
DOI: 10.1039/C3ee41166d
Adsorbate Methane: InChIKey VNWKTOKETHGBQD-UHFFFAOYSA-N
Temperature: 150 K
Tabular data in the source: 0
pressure (bar)	uptake (cm3(STP)/g)
0.474085	93.6506
0.522246	184.434
0.563635	262.451
0.805192	317.788
2.51115	333.511
3.78817	340.694
6.33844	347.967
8.03612	348.088
