Adsorption isotherm of Methane on NOTT-100a
DOI: 10.1039/C3ee41166d
Adsorbate Methane: InChIKey VNWKTOKETHGBQD-UHFFFAOYSA-N
Temperature: 300 K
Tabular data in the source: 0
pressure (bar)	uptake (cm3(STP)/g)
1.07139	34.6667
1.60024	46.6667
2.81711	61.3333
3.87139	82.6667
5.4357	101.333
8.21174	130.667
12.6924	154.667
19.5692	178.667
28.8403	201.333
35.5289	212
44.1034	225.333
54.9029	238.667
61.244	245.333
63.6435	248
