Adsorption isotherm of Methane on NOTT-101a
DOI: 10.1039/C3ee41166d
Adsorbate Methane: InChIKey VNWKTOKETHGBQD-UHFFFAOYSA-N
Temperature: 300 K
Tabular data in the source: 0
pressure (bar)	uptake (cm3(STP)/cm3)
0.227562	9.08127
0.793847	15.6953
1.54579	23.9638
2.66439	34.7163
4.33997	50.4323
5.28688	62.0058
9.32945	90.979
15.5487	130.73
26.3529	170.588
31.1934	184.729
40.3035	205.571
52.4021	224.833
60.9132	233.284
64.4681	238.318
66.0552	238.356
