Adsorption isotherm of Methane on NOTT-100a
DOI: 10.1039/C3ee41166d
Adsorbate Methane: InChIKey VNWKTOKETHGBQD-UHFFFAOYSA-N
Temperature: 125 K
Tabular data in the source: 0
pressure (bar)	uptake (cm3(STP)/g)
0.326336	106.756
0.441424	214.939
0.548941	316.004
1.01232	351.583
1.86943	357.262
2.73108	367.211
