Adsorption isotherm of Nitrogen on NOTT-101a
DOI: 10.1039/C3ee41166d
Adsorbate Nitrogen: InChIKey IJGRMHOSHXDMSA-UHFFFAOYSA-N
Temperature: 77 K
Tabular data in the source: 0
pressure (bar)	uptake (cm3(STP)/g)
-0.00362221	49.1402
-0.00199483	0.00960615
0.000734939	98.2421
0.00181985	243.266
0.0025023	334.491
0.00342972	191.796
0.00610699	283.012
0.00682444	378.915
0.00719191	428.036
0.00752438	472.478
0.00787435	519.26
0.0165536	612.786
0.0448138	657.094
0.164609	670.552
0.28038	679.352
0.348221	681.364
0.396097	681.134
0.451988	685.543
0.515823	685.235
0.579657	684.928
0.657491	689.232
0.743269	688.818
0.839039	690.696
0.920845	692.642
0.962736	692.44
0.97869	692.363
