Adsorption isotherm of Methane on NOTT-100a
DOI: 10.1039/C3ee41166d
Adsorbate Methane: InChIKey VNWKTOKETHGBQD-UHFFFAOYSA-N
Temperature: 300 K
Tabular data in the source: 0
pressure (bar)	uptake (cm3(STP)/g)
0.212762	-0.0037858
0.43461	8.53319
0.884363	31.301
1.96029	42.6697
2.40247	58.3202
3.70024	78.226
5.42202	96.7007
8.21518	122.274
12.7059	143.546
19.537	164.777
28.7009	178.849
35.7296	185.841
44.2477	192.807
54.6791	198.315
61.489	199.618
63.8293	199.576
