Adsorption isotherm of Nitrogen on SBA-15
DOI: 10.1002/aoc.3843
Article source: Figure 4
Adsorbate Nitrogen: InChIKey IJGRMHOSHXDMSA-UHFFFAOYSA-N
Kind: experiment
Temperature: 77 K
Tabular data in the source: 0
pressure (bar)	uptake (cm3(STP)/g)
0.019332	142.66
0.044238	167.26
0.053134	168.1
0.104211	194.09
0.104971	202.11
0.152744	217.59
0.157578	224.23
0.198482	238.06
0.199758	238.61
0.249052	259.63
0.250065	257.69
0.299359	270.69
0.301142	274.56
0.347893	287.01
0.400499	300.01
0.404309	301.12
0.508996	322.69
0.509249	327.95
0.602	370.53
0.606317	356.99
0.703891	389.07
0.715351	528.13
0.808091	502.15
0.813705	636.51
0.907206	648.97
0.921685	637.36
1.00631	667.23
