Adsorption isotherm of Nitrogen on Ci(I)-1,3-dimethylbarbituric acid modified SBA-15
DOI: 10.1002/aoc.3843
Article source: Figure 4
Adsorbate Nitrogen: InChIKey IJGRMHOSHXDMSA-UHFFFAOYSA-N
Kind: experiment
Temperature: 77 K
Tabular data in the source: 0
pressure (bar)	uptake (cm3(STP)/g)
0.030904	56.45
0.045636	63.77
0.04595	63.77
0.096855	75.97
0.099418	76.32
0.148722	83.29
0.152876	85.38
0.198664	94.44
0.253723	103.85
0.260127	103.85
0.297261	110.13
0.303027	110.13
0.347528	117.8
0.404512	125.47
0.409953	125.47
0.503109	142.2
0.507598	141.15
0.602355	163.46
0.609721	158.93
0.706718	178.1
0.713142	292.7
0.811749	295.85
0.812063	312.22
0.906506	323.72
0.912272	317.11
1.00223	338.71
