Adsorption isotherm of Hydrogen on PBA
DOI: 10.1021/jp104014f
Article source: Figure 3b
Adsorbate Hydrogen: InChIKey UFHFLCQGNIYNRP-UHFFFAOYSA-N
Kind: experiment
Temperature: 298 K
Tabular data in the source: 0
pressure (bar)	uptake (mol/g)
2.17417	0.000136
5.06683	0.000306
10.1248	0.0006
14.873	0.000858
19.719	0.001134
24.5223	0.001439
30.1006	0.001664
34.662	0.001925
39.9067	0.002141
44.2186	0.002348
49.6225	0.002611
54.9786	0.002789
59.3733	0.002941
64.1192	0.003142
69.2446	0.003313
73.8211	0.003493
79.7219	0.003732
88.3269	0.003935
95.3872	0.004261
