Adsorption isotherm of Hydrogen on PSiA
DOI: 10.1021/jp104014f
Article source: Figure 3b
Adsorbate Hydrogen: InChIKey UFHFLCQGNIYNRP-UHFFFAOYSA-N
Kind: experiment
Temperature: 298 K
Tabular data in the source: 0
pressure (bar)	uptake (mol/g)
2.09172	0.000119
5.06597	0.000282
9.61731	0.000533
14.3094	0.000762
19.9697	0.001047
24.5174	0.001311
29.3363	0.001537
34.6551	0.001778
40.4168	0.002003
44.7792	0.002227
49.6175	0.002443
53.589	0.002717
59.3733	0.002902
64.9388	0.00306
71.033	0.003269
76.711	0.003493
79.7219	0.003683
83.9184	0.003832
87.2035	0.003883
91.7846	0.003987
97.8509	0.004094
