Adsorption isotherm of Hydrogen on PA
DOI: 10.1021/jp104014f
Article source: Figure 3b
Adsorbate Hydrogen: InChIKey UFHFLCQGNIYNRP-UHFFFAOYSA-N
Kind: experiment
Temperature: 298 K
Tabular data in the source: 0
pressure (bar)	uptake (mol/g)
10.1268	0.000659
14.8759	0.000942
19.7275	0.001383
25.1685	0.001756
35.5751	0.002381
40.441	0.002682
45.3879	0.003022
60.1622	0.003637
64.1449	0.003835
70.1646	0.004097
74.8095	0.00432
79.7618	0.004555
83.9519	0.004739
87.2471	0.004931
96.6643	0.005269
