Adsorption isotherm of Hydrogen on PTiA
DOI: 10.1021/jp104014f
Article source: Figure 3a
Adsorbate Hydrogen: InChIKey UFHFLCQGNIYNRP-UHFFFAOYSA-N
Kind: experiment
Temperature: 77 K
Tabular data in the source: 0
pressure (bar)	uptake (mol/g)
0.005374	0.001036
0.018478	0.002061
0.038895	0.003007
0.063549	0.003859
0.094428	0.004592
0.127588	0.005262
0.164395	0.005893
0.215213	0.006551
0.268647	0.007228
0.335362	0.007914
0.399247	0.008344
0.467814	0.008798
0.539504	0.009346
0.61247	0.009633
0.729114	0.010234
0.801857	0.010548
0.867972	0.010872
0.939568	0.011121
1.04941	0.012551
1.04973	0.011725
