Adsorption isotherm of Hydrogen on PBA
DOI: 10.1021/jp104014f
Article source: Figure 3a
Adsorbate Hydrogen: InChIKey UFHFLCQGNIYNRP-UHFFFAOYSA-N
Kind: experiment
Temperature: 77 K
Tabular data in the source: 0
pressure (bar)	uptake (mol/g)
0.008241	0.001309
0.027013	0.002685
0.052527	0.003859
0.08183	0.004953
0.11232	0.005849
0.159147	0.006855
0.208323	0.007795
0.272713	0.008731
0.324628	0.009417
0.380353	0.01008
0.445644	0.01079
0.513978	0.01129
0.592742	0.011994
0.672835	0.012646
0.739941	0.013133
0.800919	0.013639
0.839956	0.013743
0.909213	0.014164
0.984211	0.014489
1.03214	0.01471
