Adsorption isotherm of Hydrogen on PSiA
DOI: 10.1021/jp104014f
Article source: Figure 3a
Adsorbate Hydrogen: InChIKey UFHFLCQGNIYNRP-UHFFFAOYSA-N
Kind: experiment
Temperature: 77 K
Tabular data in the source: 0
pressure (bar)	uptake (mol/g)
0.005287	0.001126
0.018763	0.002308
0.037071	0.003293
0.062525	0.004194
0.091437	0.005067
0.123543	0.005849
0.156674	0.006551
0.205113	0.007228
0.248057	0.007855
0.300005	0.008471
0.357151	0.008932
0.418489	0.009417
0.48262	0.010004
0.530755	0.01039
0.565466	0.010708
0.602513	0.01079
0.673185	0.01129
0.752191	0.011637
0.853888	0.012085
0.924386	0.012177
1.06587	0.013434
