Adsorption isotherm of Hydrogen on PFeA
DOI: 10.1021/jp104014f
Article source: Figure 3b
Adsorbate Hydrogen: InChIKey UFHFLCQGNIYNRP-UHFFFAOYSA-N
Kind: experiment
Temperature: 298 K
Tabular data in the source: 0
pressure (bar)	uptake (mol/g)
2.14671	0.000142
4.87673	0.000327
9.745	0.000642
14.6901	0.001048
19.7297	0.001459
24.5383	0.001953
29.363	0.002351
34.2451	0.002683
39.4307	0.003023
44.8196	0.003316
49.6573	0.00359
55.7259	0.003887
59.4149	0.004153
64.1641	0.004438
69.293	0.004679
74.8394	0.005133
78.771	0.005413
83.9855	0.005707
89.5453	0.006017
95.4731	0.006429
96.7127	0.006602
