Adsorption isotherm of Hydrogen on PA
DOI: 10.1021/jp104014f
Article source: Figure 3a
Adsorbate Hydrogen: InChIKey UFHFLCQGNIYNRP-UHFFFAOYSA-N
Kind: experiment
Temperature: 77 K
Tabular data in the source: 0
pressure (bar)	uptake (mol/g)
0.004105	0.000925
0.013454	0.001984
0.027432	0.002985
0.046257	0.003978
0.070944	0.004842
0.092862	0.005548
0.11777	0.006167
0.147001	0.006907
0.183499	0.007621
0.225468	0.008281
0.268408	0.008798
0.314483	0.009417
0.36269	0.009929
