Adsorption isotherm of Hydrogen on PTiA
DOI: 10.1021/jp104014f
Article source: Figure 3b
Adsorbate Hydrogen: InChIKey UFHFLCQGNIYNRP-UHFFFAOYSA-N
Kind: experiment
Temperature: 298 K
Tabular data in the source: 0
pressure (bar)	uptake (mol/g)
2.14538	0.000106
4.87317	0.000231
9.61375	0.000448
14.6769	0.000685
19.9645	0.000929
24.5098	0.001133
30.0885	0.001328
34.2041	0.001537
39.3834	0.001754
44.2009	0.00195
50.2417	0.002139
54.9566	0.002286
60.1141	0.002475
64.9193	0.002644
69.2238	0.002863
75.7126	0.003059
80.7247	0.003183
86.06	0.003312
90.581	0.003355
92.9298	0.003355
97.8215	0.003538
