Adsorption isotherm of Hydrogen on PFeA
DOI: 10.1021/jp104014f
Article source: Figure 3a
Adsorbate Hydrogen: InChIKey UFHFLCQGNIYNRP-UHFFFAOYSA-N
Kind: experiment
Temperature: 77 K
Tabular data in the source: 0
pressure (bar)	uptake (mol/g)
0.007501	0.001013
0.022711	0.002092
0.045577	0.003147
0.073287	0.0041
0.100584	0.004953
0.135906	0.005675
0.1779	0.006453
0.225608	0.007228
