Adsorption isotherm of Nitrogen on PCN-223 (No Metal)
DOI: 10.1021/Ja510525s
Adsorbate Nitrogen: InChIKey IJGRMHOSHXDMSA-UHFFFAOYSA-N
Temperature: 77 K
Tabular data in the source: 0
pressure (bar)	uptake (cm3(STP)/g)
-0.00144963	20.7055
-0.00101647	41.411
-0.000554442	63.4969
-0.000121284	84.2025
0.000311873	104.908
0.000716153	124.233
0.00112043	143.558
0.00149584	161.503
0.00184236	178.067
0.00216001	193.252
0.00247766	208.436
0.00479361	229.141
0.0070518	247.086
0.00745609	266.411
0.00777373	281.595
0.0119436	300.92
0.0141729	317.485
0.0200812	329.908
0.0241644	345.092
0.0300438	356.135
0.0415715	367.178
0.0643383	375.46
0.0737523	375.46
0.0964613	380.982
0.115376	385.123
0.13429	389.264
0.151236	389.264
0.171975	390.644
0.192744	393.405
0.213483	394.785
0.234194	394.785
0.253079	397.546
0.27379	397.546
0.28697	397.546
0.30771	398.926
0.330361	401.687
0.349189	401.687
0.368017	401.687
0.383107	403.067
0.405701	403.067
0.424471	400.307
0.44524	403.067
0.465979	404.448
0.481041	404.448
0.503635	404.448
0.526229	404.448
0.543174	404.448
0.560118	404.448
0.582712	404.448
0.60154	404.448
0.620368	404.448
0.639167	403.067
0.657995	403.067
0.678735	404.448
0.699445	404.448
0.718244	403.067
0.739013	405.828
0.755929	404.448
0.774757	404.448
0.797379	405.828
0.812412	404.448
0.833152	405.828
0.853863	405.828
0.867043	405.828
0.891547	407.209
