Adsorption isotherm of Nitrogen on Fe-PCN-223
DOI: 10.1021/Ja510525s
Adsorbate Nitrogen: InChIKey IJGRMHOSHXDMSA-UHFFFAOYSA-N
Temperature: 77 K
Tabular data in the source: 0
pressure (bar)	uptake (cm3(STP)/g)
0.0101763	306.442
0.0104073	317.485
0.0126367	334.049
0.0186893	353.374
0.0322153	369.939
0.0400641	385.123
0.0572692	397.546
0.0781243	404.448
0.100804	408.589
0.127222	411.35
0.140429	412.73
0.157404	414.11
0.180055	416.871
0.197029	418.252
0.212092	418.252
0.232831	419.632
0.253541	419.632
0.27431	422.393
0.302581	423.773
0.328968	425.153
0.359122	426.534
0.389246	426.534
0.428785	426.534
0.45891	426.534
0.494683	426.534
