Adsorption isotherm of Nitrogen on PCN-223 (No Metal)
DOI: 10.1021/Ja510525s
Adsorbate Nitrogen: InChIKey IJGRMHOSHXDMSA-UHFFFAOYSA-N
Temperature: 77 K
Tabular data in the source: 0
pressure (bar)	uptake (cm3(STP)/g)
0.0164023	334.049
0.0167199	349.233
0.0207165	360.276
0.0323308	375.46
0.0438586	386.503
0.0553286	394.785
0.0704487	397.546
0.0950694	404.448
0.115866	408.589
0.138489	409.969
0.149873	414.11
0.174377	415.491
0.191322	415.491
0.21018	416.871
0.23089	416.871
0.247893	419.632
0.270516	421.012
0.310083	422.393
0.330794	422.393
0.353387	422.393
0.370332	422.393
0.407988	422.393
0.455058	422.393
0.479535	422.393
0.507776	422.393
0.534164	423.773
0.552992	423.773
0.575586	423.773
0.601944	423.773
0.633952	423.773
0.654663	423.773
0.690349	419.632
0.714825	419.632
0.735507	418.252
0.77128	418.252
0.805171	418.252
0.833412	418.252
0.878599	418.252
0.906841	418.252
