Adsorption isotherm of Nitrogen on PCN-223 (No Metal)
DOI: 10.1021/Ja510525s
Adsorbate Nitrogen: InChIKey IJGRMHOSHXDMSA-UHFFFAOYSA-N
Temperature: 77 K
Tabular data in the source: 0
pressure (bar)	uptake (cm3(STP)/g)
0.0197057	299.54
0.0213287	311.963
0.0218484	324.387
0.0315512	338.19
0.0393423	350.613
0.0527528	361.656
0.0755484	371.319
0.0963457	375.46
0.117114	378.221
0.136	380.982
0.156797	385.123
0.173771	386.503
0.190716	386.503
0.211484	389.264
0.22843	389.264
0.24914	389.264
0.273646	390.644
0.29062	392.025
0.31133	392.025
0.332041	392.025
0.349044	394.785
0.367872	394.785
0.386729	396.166
0.409322	396.166
0.42815	396.166
0.445095	396.166
0.463923	396.166
0.484634	396.166
0.510993	396.166
0.531703	396.166
0.729483	400.307
0.863132	398.926
0.880107	400.307
0.898906	398.926
0.921499	398.926
