Adsorption isotherm of Nitrogen on PCN-223 (No Metal)
DOI: 10.1021/Ja510525s
Adsorbate Nitrogen: InChIKey IJGRMHOSHXDMSA-UHFFFAOYSA-N
Temperature: 77 K
Tabular data in the source: 0
pressure (bar)	uptake (cm3(STP)/g)
-0.00107423	38.6503
-0.000669951	57.9755
-0.000502462	78.681
-0.000236792	99.3865
-0.000184814	117.331
0.000196365	136.656
0.00239103	155.982
0.00245455	171.166
0.0026798	190.491
0.00474163	204.294
0.0054289	218.098
0.00577543	241.564
0.00586784	259.509
0.00693629	276.074
0.0117415	291.258
0.0121169	309.202
0.0142884	323.006
0.0164023	334.049
0.0167487	350.613
0.0245687	364.417
0.0381236	382.362
0.0515053	392.025
0.060977	394.785
0.0742143	397.546
0.0931288	401.687
0.111985	403.067
0.136548	407.209
0.153552	409.969
0.174291	411.35
0.193148	412.73
0.213887	414.11
0.228979	415.491
0.249719	416.871
0.274223	418.252
0.29308	419.632
0.306288	421.012
0.33453	421.012
0.347681	419.632
0.368421	421.012
0.385394	422.393
0.404222	422.393
0.426816	422.393
0.44379	423.773
0.466383	423.773
0.485211	423.773
0.505951	425.153
0.522896	425.153
0.545489	425.153
0.560552	425.153
0.581262	425.153
0.602002	426.534
0.622713	426.534
0.639657	426.534
0.658457	425.153
0.677314	426.534
0.698054	427.914
0.716853	426.534
0.741329	426.534
0.758302	427.914
0.775248	427.914
0.797812	426.534
0.814757	426.534
0.835497	427.914
0.852442	427.914
0.869387	427.914
