Adsorption isotherm of Neon on Carbon Nanohorns
DOI: 10.1021/la401033u
Article source: Figure 2
Adsorbate Neon: InChIKey GKAOGPIIYCISHV-UHFFFAOYSA-N
Kind: experiment
Temperature: 31 K
Tabular data in the source: 0
pressure (bar)	uptake (mol/g)
5e-06	0.000957
7.7e-05	0.002487
0.000131	0.003635
0.000194	0.004209
0.000258	0.005166
0.000343	0.005931
0.000457	0.006697
0.000546	0.007462
0.000701	0.008228
0.000869	0.008993
0.001115	0.00995
