Adsorption isotherm of Neon on Carbon Nanohorns
DOI: 10.1021/la401033u
Article source: Figure 2
Adsorbate Neon: InChIKey GKAOGPIIYCISHV-UHFFFAOYSA-N
Kind: experiment
Temperature: 24 K
Tabular data in the source: 0
pressure (bar)	uptake (mol/g)
1e-06	0.001148
3e-06	0.00287
7e-06	0.004401
1.3e-05	0.005931
2.2e-05	0.007271
3.4e-05	0.008993
5.4e-05	0.010524
9.8e-05	0.012054
0.000146	0.013776
0.000277	0.015116
0.000676	0.016838
0.001774	0.018368
0.004181	0.019899
0.007403	0.02143
0.009506	0.022004
0.012649	0.023343
0.015672	0.024109
0.020124	0.025831
0.025839	0.027744
0.03693	0.030997
0.042602	0.032528
0.049143	0.034058
0.05669	0.035397
0.065396	0.03712
0.093466	0.041903
0.124376	0.045156
0.171527	0.049556
0.212519	0.055105
0.228254	0.085336
