Adsorption isotherm of Neon on Carbon Nanohorns
DOI: 10.1021/la401033u
Article source: Figure 2
Adsorbate Neon: InChIKey GKAOGPIIYCISHV-UHFFFAOYSA-N
Kind: experiment
Temperature: 25 K
Tabular data in the source: 0
pressure (bar)	uptake (mol/g)
1e-06	0.000574
3e-06	0.000957
8e-06	0.001148
1.5e-05	0.001722
2.4e-05	0.001913
3.4e-05	0.002487
4.2e-05	0.002679
5.8e-05	0.00287
9.2e-05	0.003635
0.000126	0.004401
0.000168	0.005166
0.000201	0.005931
0.000249	0.006505
0.000308	0.007079
0.000382	0.008036
0.000441	0.008802
0.000546	0.008993
0.000676	0.00995
0.001076	0.010715
0.001198	0.01148
0.001652	0.012628
0.002447	0.013394
0.003497	0.01435
0.006192	0.015116
0.010965	0.016072
0.016832	0.016838
0.024058	0.017603
0.034384	0.018368
0.042602	0.018942
0.052782	0.019516
0.063101	0.019899
0.070238	0.020473
0.081024	0.020856
0.10782	0.022386
0.138443	0.023917
0.190927	0.026022
0.254067	0.028509
0.350384	0.032336
0.557415	0.038267
0.6664	0.04152
0.796685	0.044199
0.952443	0.047643
1.13865	0.05013
