Adsorption isotherm of Carbon Dioxide on Carbon Nanohorns
DOI: 10.1021/la401033u
Article source: Figure 7
Adsorbate Carbon Dioxide: InChIKey CURLTUGMZLYLDI-UHFFFAOYSA-N
Kind: experiment
Temperature: 194 K
Tabular data in the source: 0
pressure (bar)	uptake (mol/g)
0.000218	0.000212
0.000661	0.000423
0.001364	0.000635
0.002146	0.000741
0.003083	0.000846
0.004046	0.001005
0.005191	0.001111
0.007291	0.001323
0.009788	0.001587
0.012277	0.001746
0.017641	0.002116
0.022127	0.002381
0.028393	0.002751
0.034821	0.003174
