Adsorption isotherm of Carbon Dioxide on Carbon Nanohorns
DOI: 10.1021/la401033u
Article source: Figure 7
Adsorbate Carbon Dioxide: InChIKey CURLTUGMZLYLDI-UHFFFAOYSA-N
Kind: experiment
Temperature: 189 K
Tabular data in the source: 0
pressure (bar)	uptake (mol/g)
0.000261	0.000423
0.000564	0.000635
0.00104	0.000794
0.002196	0.001111
0.002881	0.00127
0.003533	0.001428
0.005077	0.001693
0.007295	0.002063
0.009794	0.002381
0.012566	0.002698
0.015763	0.003068
0.019332	0.003492
