Adsorption isotherm of Neon on Carbon Nanohorns
DOI: 10.1021/la401033u
Article source: Figure 2
Adsorbate Neon: InChIKey GKAOGPIIYCISHV-UHFFFAOYSA-N
Kind: experiment
Temperature: 24 K
Tabular data in the source: 0
pressure (bar)	uptake (mol/g)
1e-06	0.001339
4e-06	0.003061
9e-06	0.004401
1.8e-05	0.005931
2.8e-05	0.007079
4e-05	0.008419
5.8e-05	0.009567
7.9e-05	0.010906
0.000118	0.012054
0.000187	0.013585
0.000308	0.014924
0.0009	0.016646
0.002822	0.018368
0.006651	0.020282
0.011777	0.021812
0.016832	0.023152
0.023214	0.024874
0.029807	0.026405
0.035634	0.027744
0.042602	0.029657
0.065396	0.033675
0.087023	0.03712
0.138443	0.042668
0.197868	0.046686
0.245155	0.051278
0.303739	0.063524
