Adsorption isotherm of Carbon Dioxide on Carbon Nanohorns
DOI: 10.1021/la401033u
Article source: Figure 7
Adsorbate Carbon Dioxide: InChIKey CURLTUGMZLYLDI-UHFFFAOYSA-N
Kind: experiment
Temperature: 174 K
Tabular data in the source: 0
pressure (bar)	uptake (mol/g)
0.000113	0.000582
0.000604	0.00127
0.001335	0.001746
0.002299	0.002275
0.003537	0.002804
0.004969	0.003386
0.006672	0.003968
0.008562	0.004444
0.011241	0.005238
0.014103	0.00582
0.018941	0.006666
0.023234	0.007354
0.032653	0.008359
0.039154	0.008994
0.045897	0.009576
0.0563	0.010316
0.070651	0.011216
0.082837	0.012115
0.108827	0.013808
0.146523	0.018199
0.147091	0.023701
