Adsorption isotherm of Neon on Carbon Nanohorns
DOI: 10.1021/la401033u
Article source: Figure 2
Adsorbate Neon: InChIKey GKAOGPIIYCISHV-UHFFFAOYSA-N
Kind: experiment
Temperature: 33 K
Tabular data in the source: 0
pressure (bar)	uptake (mol/g)
1.1e-05	0.000765
5.8e-05	0.001531
0.000131	0.002296
0.000216	0.003253
0.00032	0.003827
0.000425	0.004592
0.000586	0.005357
0.000726	0.005931
0.000967	0.006888
0.001198	0.007462
0.001774	0.00861
0.002628	0.00995
0.003892	0.011098
0.005975	0.012246
0.009172	0.013394
