Adsorption isotherm of Neon on Carbon Nanohorns
DOI: 10.1021/la401033u
Article source: Figure 2
Adsorbate Neon: InChIKey GKAOGPIIYCISHV-UHFFFAOYSA-N
Kind: experiment
Temperature: 50 K
Tabular data in the source: 0
pressure (bar)	uptake (mol/g)
0.000331	0.000765
0.001241	0.001339
0.002723	0.002105
0.00518	0.00287
0.007672	0.003444
0.010581	0.004018
0.013109	0.004592
0.017445	0.005166
0.023214	0.005931
0.029807	0.006697
0.033178	0.007079
0.03693	0.007462
0.042602	0.007845
0.047419	0.008228
0.054701	0.008993
0.063101	0.008993
0.067773	0.009567
0.075438	0.00995
0.081024	0.010141
