Adsorption isotherm of Carbon Dioxide on Carbon Nanohorns
DOI: 10.1021/la401033u
Article source: Figure 7
Adsorbate Carbon Dioxide: InChIKey CURLTUGMZLYLDI-UHFFFAOYSA-N
Kind: experiment
Temperature: 159 K
Tabular data in the source: 0
pressure (bar)	uptake (mol/g)
1.3e-05	0.000317
4.4e-05	0.000582
8.4e-05	0.000794
0.000136	0.001058
0.000195	0.001217
0.000335	0.00164
0.000516	0.002063
0.000591	0.002222
0.000693	0.002487
0.000812	0.002645
0.000869	0.002698
0.000995	0.00291
0.00114	0.003121
0.001306	0.003333
0.001367	0.003545
0.001566	0.003862
0.003093	0.005555
0.004549	0.006719
0.006111	0.007724
0.008396	0.008835
0.010536	0.009682
0.013835	0.01074
0.015857	0.011533
0.017769	0.012433
0.027385	0.015766
0.02807	0.018675
