Adsorption isotherm of Neon on Carbon Nanohorns
DOI: 10.1021/la401033u
Article source: Figure 2
Adsorbate Neon: InChIKey GKAOGPIIYCISHV-UHFFFAOYSA-N
Kind: experiment
Temperature: 19 K
Tabular data in the source: 0
pressure (bar)	uptake (mol/g)
1e-06	0.006123
1e-06	0.007079
1e-06	0.008802
1e-06	0.010524
2e-06	0.01282
7e-06	0.015116
2.2e-05	0.017029
7.7e-05	0.018751
0.000208	0.020473
0.00032	0.021621
0.000473	0.023152
0.000676	0.025065
0.001038	0.027935
0.001432	0.030805
0.002447	0.035397
0.003892	0.039607
0.005975	0.04439
0.010581	0.049365
0.012649	0.071369
