Adsorption isotherm of Carbon Dioxide on Carbon Nanohorns
DOI: 10.1021/la401033u
Article source: Figure 7
Adsorbate Carbon Dioxide: InChIKey CURLTUGMZLYLDI-UHFFFAOYSA-N
Kind: experiment
Temperature: 164 K
Tabular data in the source: 0
pressure (bar)	uptake (mol/g)
6e-06	0.000265
2.8e-05	0.000529
5.6e-05	0.000688
9.4e-05	0.000952
0.000145	0.001111
0.000204	0.001323
0.000267	0.001481
0.000402	0.001799
0.000565	0.002063
0.000677	0.002275
0.000889	0.002539
0.001041	0.002751
0.001248	0.002963
0.001398	0.003068
0.001602	0.003333
0.001877	0.003598
0.002302	0.004021
0.00276	0.004444
0.003235	0.004761
0.003706	0.005132
0.004344	0.005396
0.005328	0.006031
0.006245	0.00656
0.007488	0.007089
0.009611	0.007777
0.01206	0.008624
0.014793	0.009364
0.02226	0.010898
0.033521	0.013491
0.043107	0.016983
0.047322	0.020845
0.047431	0.024125
0.047685	0.031743
