Adsorption isotherm of Neon on Carbon Nanohorns
DOI: 10.1021/la401033u
Article source: Figure 2
Adsorbate Neon: InChIKey GKAOGPIIYCISHV-UHFFFAOYSA-N
Kind: experiment
Temperature: 20 K
Tabular data in the source: 0
pressure (bar)	uptake (mol/g)
1e-06	0.006123
1e-06	0.007079
2e-06	0.008419
2e-06	0.010141
4e-06	0.011863
8e-06	0.013394
1.3e-05	0.014733
2.5e-05	0.015881
5.2e-05	0.01722
0.000118	0.017986
0.000151	0.01856
0.000187	0.018942
0.00049	0.020664
0.000653	0.021238
0.0009	0.022386
0.001198	0.023343
0.001538	0.024109
0.001774	0.025257
0.002047	0.026213
0.002447	0.027361
0.003031	0.028892
0.003624	0.030423
0.00449	0.032719
0.005975	0.035015
0.007403	0.037311
0.009172	0.039607
0.010965	0.041712
0.013586	0.044008
0.017445	0.046495
0.018736	0.048408
0.026779	0.051278
0.028761	0.057019
0.029807	0.06295
