Adsorption isotherm of Neon on Carbon Nanohorns
DOI: 10.1021/la401033u
Article source: Figure 2
Adsorbate Neon: InChIKey GKAOGPIIYCISHV-UHFFFAOYSA-N
Kind: experiment
Temperature: 23 K
Tabular data in the source: 0
pressure (bar)	uptake (mol/g)
1e-06	0.001339
1e-06	0.003061
2e-06	0.004401
5e-06	0.00574
8e-06	0.007271
1.2e-05	0.008802
1.8e-05	0.010332
2.9e-05	0.01148
5.2e-05	0.013202
8.8e-05	0.01435
0.000162	0.015881
0.00032	0.01722
0.000608	0.018751
0.001432	0.02009
0.002536	0.021047
0.004181	0.022578
0.006192	0.023917
0.007672	0.025065
0.009172	0.026213
0.010965	0.02717
0.012649	0.028318
0.014592	0.029657
0.017445	0.031379
0.020855	0.03291
0.024058	0.034632
0.035634	0.039989
0.054701	0.044199
0.072792	0.04726
0.093466	0.049748
