Adsorption isotherm of Carbon Dioxide on Carbon Nanohorns
DOI: 10.1021/la401033u
Article source: Figure 7
Adsorbate Carbon Dioxide: InChIKey CURLTUGMZLYLDI-UHFFFAOYSA-N
Kind: experiment
Temperature: 184 K
Tabular data in the source: 0
pressure (bar)	uptake (mol/g)
0.001275	0.001058
0.004853	0.002116
0.010022	0.003016
0.016504	0.003968
0.024267	0.004867
0.032591	0.005661
0.042789	0.006454
0.067362	0.00783
0.127176	0.009999
0.187111	0.011745
0.251446	0.013438
0.378759	0.016453
0.397383	0.020316
0.408466	0.027246
