Adsorption isotherm of Carbon Dioxide on Carbon Nanohorns
DOI: 10.1021/la401033u
Article source: Figure 7
Adsorbate Carbon Dioxide: InChIKey CURLTUGMZLYLDI-UHFFFAOYSA-N
Kind: experiment
Temperature: 199 K
Tabular data in the source: 0
pressure (bar)	uptake (mol/g)
0.000255	0.000106
0.000707	0.000317
0.001395	0.000423
0.002146	0.000529
0.003083	0.000635
0.00474	0.000846
0.00835	0.001005
0.012554	0.00127
0.016853	0.001534
0.021622	0.001746
0.026513	0.001957
0.032511	0.002169
0.038973	0.002381
0.044648	0.002539
0.053528	0.00291
0.062733	0.003174
0.071874	0.003439
