Adsorption isotherm of Neon on Carbon Nanohorns
DOI: 10.1021/la401033u
Article source: Figure 2
Adsorbate Neon: InChIKey GKAOGPIIYCISHV-UHFFFAOYSA-N
Kind: experiment
Temperature: 42 K
Tabular data in the source: 0
pressure (bar)	uptake (mol/g)
7.9e-05	0.000765
0.000287	0.001531
0.000608	0.002105
0.001002	0.002679
0.001538	0.003444
0.002198	0.004018
0.002925	0.004592
0.004823	0.00574
0.007403	0.007079
0.010581	0.008228
0.014592	0.009184
0.020124	0.010141
0.027752	0.011098
0.03693	0.012054
0.045755	0.012628
