Adsorption isotherm of Ethene on UTSA-60a
DOI: 10.1039/c4cc09999k
Article source: Figure 2- C2H4
Adsorbate Ethene: InChIKey VGGSQFUCUMXWEO-UHFFFAOYSA-N
Kind: experiment
Temperature: 296 K
Tabular data in the source: 0
pressure (bar)	uptake (cm3(STP)/g)
0.001209	0.322
0.005078	1.843
0.008545	3.454
0.014429	4.786
0.017251	6.124
0.031841	10.531
0.063603	17.79
0.095123	22.954
0.125191	26.892
0.157435	30.107
0.188551	32.679
0.220555	34.934
0.251349	36.721
0.282465	38.297
0.313904	39.719
0.347922	40.973
0.378877	41.968
0.410154	42.766
0.441593	43.627
0.471904	44.272
0.502375	44.783
0.535345	45.308
0.56622	45.721
0.598545	46.022
0.629258	46.246
0.658682	46.497
0.6927	46.63
0.722769	46.735
0.754287	46.783
0.785323	46.874
0.816762	46.958
0.848685	46.999
0.87972	47.083
0.911158	47.097
0.94284	47.18
0.974117	47.222
1.00475	47.243
1.03643	47.312
1.06634	47.284
