Adsorption isotherm of Acetylene on UTSA-60a
DOI: 10.1039/c4cc09999k
Article source: Figure 2- C2H2
Adsorbate Acetylene: InChIKey HSFWRNGVRCDJHI-UHFFFAOYSA-N
Kind: experiment
Temperature: 296 K
Tabular data in the source: 0
pressure (bar)	uptake (cm3(STP)/g)
0.001355	3.061
0.005428	10.529
0.009353	15.159
0.013203	18.85
0.017056	21.981
0.031681	30.366
0.064993	41.026
0.093738	46.579
0.126276	50.92
0.157852	54.119
0.189352	56.597
0.220935	58.598
0.252187	60.198
0.283218	61.67
0.314481	63.293
0.347037	64.173
0.378464	64.956
0.410296	65.605
0.441644	66.073
0.472428	66.512
0.504341	66.888
0.534724	67.138
0.566075	67.381
0.59686	67.526
0.6295	67.685
0.660287	67.746
0.691475	67.871
0.722665	68.023
0.754257	68.077
0.785689	68.194
0.816233	68.276
0.847986	68.302
0.879498	68.384
0.911172	68.41
0.94228	68.583
0.992973	68.712
1.02376	68.675
1.03649	68.731
1.06599	68.757
