Adsorption isotherm of Water on JUC-110
DOI: 10.1039/C2cc33023g
Adsorbate Water: InChIKey XLYOFNOQVPJJNP-UHFFFAOYSA-N
Temperature: 298 K
Tabular data in the source: 0
pressure (bar)	uptake (cm3(STP)/g)
0.000380044	7.94973
0.000443385	11.1308
0.000570067	14.7087
0.000760089	17.8881
0.000950111	22.6584
0.00133016	25.8354
0.00158352	30.605
0.00190022	34.9759
0.00234361	38.1521
0.00272365	42.9201
0.00297701	45.7009
0.00392713	50.4616
0.00468721	55.6225
0.00538396	61.5796
0.00627073	66.7388
0.00696748	71.5027
0.00785425	77.0597
0.00861434	81.8228
0.00931109	85.7912
0.0109579	92.9295
0.0124781	97.6829
0.0142517	102.035
0.0156452	105.597
0.0172287	108.361
0.0188122	111.523
0.0203957	114.685
0.0218526	116.655
0.0236261	119.019
0.0250829	120.592
0.0266664	123.356
0.0281866	124.53
0.0297701	126.498
