Adsorption isotherm of Methanol on JUC-110
DOI: 10.1039/C2cc33023g
Adsorbate Methanol: InChIKey OKKJLVBELUTLKV-UHFFFAOYSA-N
Temperature: 298 K
Tabular data in the source: 0
pressure (bar)	uptake (cm3(STP)/g)
0.00612691	21.4773
0.0085096	23.0682
0.0108923	25.0568
0.013275	26.25
0.0163384	27.4432
0.0211038	29.0341
0.024848	29.8295
0.029273	30.625
0.033698	31.0227
0.0377826	31.8182
0.0422076	32.2159
0.0462922	33.4091
0.0510576	33.4091
0.0588864	34.6023
0.0677364	35
0.0755652	36.1932
0.0803306	36.1932
0.0840748	36.5909
0.0891806	36.9886
0.0925844	37.3864
0.0976902	37.3864
0.101434	38.1818
0.109604	38.9773
0.118113	39.375
0.126623	40.1705
0.134452	40.5682
0.142961	41.3636
0.151471	42.1591
0.160321	42.9545
