Adsorption isotherm of Nitrogen on JUC-110
DOI: 10.1039/C2cc33023g
Adsorbate Nitrogen: InChIKey IJGRMHOSHXDMSA-UHFFFAOYSA-N
Temperature: 77 K
Tabular data in the source: 0
pressure (bar)	uptake (cm3(STP)/g)
0.0190806	0.0728571
0.0349811	0.261282
0.0508816	0.276213
0.0604219	0.363244
0.0715522	0.435865
0.0842726	0.479617
0.098583	0.552332
0.119254	0.66861
0.133564	0.741325
0.146285	0.813992
0.159005	0.88666
0.186036	1.00313
0.200346	1.07584
0.216247	1.1486
0.254408	1.27986
0.271898	1.38159
0.279849	1.39628
0.294159	1.45454
0.33073	1.57129
0.341861	1.64391
0.356171	1.70217
0.370481	1.77488
0.386382	1.80427
0.399102	1.87694
0.413413	1.9352
0.451574	2.08091
0.465884	2.13917
0.486555	2.24099
0.500865	2.28479
0.515176	2.34304
0.548567	2.48862
0.562877	2.54687
0.577188	2.59067
0.593088	2.67789
0.605809	2.72165
0.620119	2.79436
0.63443	2.85262
0.64238	2.89623
0.65669	2.94003
0.671001	2.99828
0.683721	3.07095
0.699622	3.14371
0.712342	3.18747
0.726652	3.24572
0.740963	3.31844
0.750503	3.40547
0.760043	3.40575
0.772764	3.49288
0.779124	3.52198
0.791844	3.59465
0.812515	3.71093
0.825235	3.79806
0.850676	4.00122
0.863397	4.03052
0.872937	4.14646
0.884067	4.248
0.895198	4.34954
0.906328	4.47999
0.914278	4.55251
0.920638	4.69728
0.938129	5.00142
0.944489	5.14618
0.954029	5.29105
0.96039	5.37798
