Adsorption isotherm of Carbon Dioxide on JUC-110
DOI: 10.1039/C2cc33023g
Adsorbate Carbon Dioxide: InChIKey CURLTUGMZLYLDI-UHFFFAOYSA-N
Temperature: 273 K
Tabular data in the source: 0
pressure (bar)	uptake (cm3(STP)/g)
1.70841	2.4914
2.00315	2.55037
2.23799	2.72727
2.53186	2.90418
2.7667	3.08108
3.06072	3.23833
3.35459	3.41523
3.53025	3.61179
3.94292	3.69042
4.29597	3.84767
4.64917	3.98526
5.06141	4.12285
5.35542	4.2801
5.7092	4.33907
6.12129	4.49631
6.53367	4.61425
6.88687	4.75184
7.35858	4.83047
7.71178	4.96806
8.18319	5.086
8.59557	5.20393
9.06742	5.2629
9.42077	5.38084
9.89233	5.47912
10.3637	5.59705
10.8356	5.65602
11.248	5.77396
11.7195	5.87224
12.1319	5.99017
12.6628	6.04914
13.1935	6.12776
13.7241	6.22604
14.1367	6.32432
14.6084	6.40295
15.1391	6.48157
15.6105	6.59951
16.1417	6.61916
16.6133	6.71744
17.144	6.79607
17.6157	6.87469
18.0876	6.93366
18.6773	7.01229
19.0897	7.13022
19.6207	7.16953
20.1516	7.2285
20.6824	7.30713
21.1542	7.36609
21.6851	7.42506
22.2159	7.50369
22.6876	7.58231
23.2186	7.62162
23.7493	7.70025
24.339	7.79853
24.9292	7.81818
25.4599	7.89681
26.1676	7.99509
26.7577	8.0344
27.2886	8.09337
27.8783	8.17199
28.4684	8.2113
28.9993	8.27027
29.9433	8.34889
30.474	8.42752
31.064	8.48649
32.598	8.60442
33.1876	8.7027
