Adsorption isotherm of Ethanol on JUC-110
DOI: 10.1039/C2cc33023g
Adsorbate Ethanol: InChIKey LFQSCWFLJHTTHZ-UHFFFAOYSA-N
Temperature: 298 K
Tabular data in the source: 0
pressure (bar)	uptake (cm3(STP)/g)
0.0230604	0.397727
0.0271391	0.397727
0.031061	1.19318
0.0349828	1.19318
0.0389046	1.59091
0.0428265	1.59091
0.0462777	1.98864
0.0505133	1.98864
0.0542782	1.98864
0.058357	2.38636
0.0624357	2.78409
0.0660438	2.78409
0.0699656	3.18182
0.0738874	3.18182
