Adsorption isotherm of Nitrogen on H-ZSM-5-280
DOI: 10.1016/s1383-5866(02)00078-3
Article source: Figure 2
Adsorbate Nitrogen: InChIKey IJGRMHOSHXDMSA-UHFFFAOYSA-N
Kind: experiment
Temperature: 313 K
Tabular data in the source: 0
pressure (bar)	uptake (mmol/g)
0.020265	0.008
0.050764	0.0189
0.208729	0.0726
0.289789	0.0974
0.512705	0.159
0.705222	0.21
0.863289	0.252
0.968667	0.273
1.01325	0.282
