Adsorption isotherm of Carbon Dioxide, Methane on H-ZSM-5-280
DOI: 10.1016/s1383-5866(02)00078-3
Article source: Figure 6
Adsorbate Carbon Dioxide: InChIKey CURLTUGMZLYLDI-UHFFFAOYSA-N
Adsorbate Methane: InChIKey VNWKTOKETHGBQD-UHFFFAOYSA-N
Kind: experiment
Temperature: 313 K
Tabular data in the source: 0
pressure (bar)	Carbon Dioxide fraction	Carbon Dioxide uptake (mmol/g)	Methane fraction	Methane uptake (mmol/g)	total uptake (mmol/g)
1.01325	0	0	1	0.631	
1.01325	0.0226	0.132	0.9774	0.532	
1.01325	0.0513	0.247	0.9487	0.466	
1.01325	0.0821	0.334	0.9179	0.416	
1.01325	0.15	0.491	0.85	0.355	
1.01325	0.302	0.763	0.698	0.264	
1.01325	0.402	0.924	0.598	0.214	
1.01325	0.552	1.15	0.448	0.153	
1.01325	0.7	1.36	0.3	0.103	
1.01325	0.85	1.57	0.15	0.0495	
1.01325	0.932	1.68	0.068	0.0247	
1.01325	1	1.77	0	0	
