Adsorption isotherm of Carbon Dioxide, Nitrogen on H-ZSM-5-280
DOI: 10.1016/s1383-5866(02)00078-3
Article source: Figure 7
Adsorbate Carbon Dioxide: InChIKey CURLTUGMZLYLDI-UHFFFAOYSA-N
Adsorbate Nitrogen: InChIKey IJGRMHOSHXDMSA-UHFFFAOYSA-N
Kind: experiment
Temperature: 313 K
Tabular data in the source: 0
pressure (bar)	Carbon Dioxide fraction	Carbon Dioxide uptake (mmol/g)	Nitrogen fraction	Nitrogen uptake (mmol/g)	total uptake (mmol/g)
1.01325	0	0	1	0.285	
1.01325	0.0123	0.0742	0.9877	0.21	
1.01325	0.0164	0.0907	0.9836	0.186	
1.01325	0.0534	0.194	0.9466	0.14	
1.01325	0.101	0.305	0.899	0.107	
1.01325	0.197	0.482	0.803	0.066	
1.01325	0.3	0.656	0.7	0.0412	
1.01325	0.4	0.816	0.6	0.033	
1.01325	0.55	1.06	0.45	0.0289	
1.01325	0.702	1.29	0.298	0.0289	
1.01325	0.951	1.7	0.049	0.0124	
1.01325	1	1.78	0	0	
