Adsorption isotherm of Carbon Dioxide on H-ZSM-5-280
DOI: 10.1016/s1383-5866(02)00078-3
Article source: Figure 2
Adsorbate Carbon Dioxide: InChIKey CURLTUGMZLYLDI-UHFFFAOYSA-N
Kind: experiment
Temperature: 313 K
Tabular data in the source: 0
pressure (bar)	uptake (mmol/g)
0.010133	0.056
0.02138	0.0906
0.030499	0.117
0.049953	0.181
0.101325	0.318
0.204677	0.538
0.343492	0.799
0.509665	1.08
0.650506	1.3
0.800467	1.51
0.914965	1.66
0.980826	1.73
1.01325	1.77
