Adsorption isotherm of Methane on H-ZSM-5-280
DOI: 10.1016/s1383-5866(02)00078-3
Article source: Figure 2
Adsorbate Methane: InChIKey VNWKTOKETHGBQD-UHFFFAOYSA-N
Kind: experiment
Temperature: 313 K
Tabular data in the source: 0
pressure (bar)	uptake (mmol/g)
0.020265	0.0231
0.052892	0.0481
0.151987	0.116
0.303975	0.208
0.508652	0.33
0.714341	0.454
0.866329	0.545
0.96664	0.604
0.997038	0.62
1.01325	0.627
