Adsorption isotherm of Nitrogen, Methane on H-ZSM-5-280
DOI: 10.1016/s1383-5866(02)00078-3
Article source: Figure 5
Adsorbate Nitrogen: InChIKey IJGRMHOSHXDMSA-UHFFFAOYSA-N
Adsorbate Methane: InChIKey VNWKTOKETHGBQD-UHFFFAOYSA-N
Kind: experiment
Temperature: 313 K
Tabular data in the source: 0
pressure (bar)	Nitrogen fraction	Nitrogen uptake (mmol/g)	Methane fraction	Methane uptake (mmol/g)	total uptake (mmol/g)
1.01325	1	0.283	0	0	
1.01325	0.99177	0.277	0.00823	0.00776	
1.01325	0.9794	0.271	0.0206	0.0171	
1.01325	0.9486	0.253	0.0514	0.0388	
1.01325	0.85	0.212	0.15	0.11	
1.01325	0.7	0.165	0.3	0.21	
1.01325	0.547	0.126	0.453	0.303	
1.01325	0.35	0.0815	0.65	0.425	
1.01325	0.146	0.0369	0.854	0.543	
1.01325	0.047	0.0123	0.953	0.601	
1.01325	0	0	1	0.63	
