Adsorption isotherm of Hydrogen on PCN-17
DOI: 10.1002/anie.200800312
Adsorbate Hydrogen: InChIKey UFHFLCQGNIYNRP-UHFFFAOYSA-N
Temperature: 77 K
Tabular data in the source: 0
pressure (bar)	uptake (cm3(STP)/g)
0.00213316	1.89394
0.00426632	5.30303
0.00853263	9.09091
0.0127989	14.0152
0.0170653	19.3182
0.0341305	23.1061
0.0554621	26.5152
0.0767937	30.6818
0.0981253	32.5758
0.127989	35.6061
0.159987	37.1212
0.177052	38.6364
0.206916	40.1515
0.24318	41.6667
0.290109	43.1818
0.328506	44.3182
0.371169	45.4545
0.413833	46.5909
0.456496	47.7273
0.499159	48.4848
0.543955	48.8636
0.582352	49.2424
0.659146	50
0.697543	50.3788
0.725274	50.7576
0.757271	50.7576
0.782869	50.7576
0.821266	51.8939
0.844731	51.8939
0.887394	51.8939
0.927924	52.2727
0.966321	53.0303
0.998318	53.4091
1.03885	53.0303
