Adsorption isotherm of Oxygen on PCN-17
DOI: 10.1002/anie.200800312
Adsorbate Oxygen: InChIKey MYMOFIZGZYHOMD-UHFFFAOYSA-N
Temperature: 77 K
Tabular data in the source: 0
pressure (bar)	uptake (cm3(STP)/g)
0.00155457	0.00155457
0.00310914	28.436
0.00466371	65.1659
0.005441	84.1232
0.00699557	92.4171
0.00777286	99.5261
0.00932743	107.82
0.0116593	116.114
0.0124366	120.853
0.0139911	126.777
0.0178776	133.886
0.0233186	143.365
0.0303141	149.289
0.0349779	156.398
0.0373097	158.768
0.0466371	165.877
0.05441	170.616
0.0668466	175.355
0.0691784	178.91
0.081615	180.095
0.0878333	182.464
0.103379	184.834
0.118925	187.204
0.123588	188.389
0.129029	189.573
0.136802	191.943
0.140689	193.128
0.14613	194.313
0.16323	195.498
0.167116	199.052
0.171003	200.237
0.176444	201.422
0.18033	201.422
0.184217	203.791
0.18888	206.161
0.194321	206.161
0.202094	209.716
