Adsorption isotherm of Nitrogen on PCN-17
DOI: 10.1002/anie.200800312
Adsorbate Nitrogen: InChIKey IJGRMHOSHXDMSA-UHFFFAOYSA-N
Temperature: 77 K
Tabular data in the source: 0
pressure (bar)	uptake (cm3(STP)/g)
0.0787719	0
0.112531	1.18483
0.120033	1.18483
0.146291	1.18483
0.165046	1.18483
0.198805	2.36967
0.236316	1.18483
0.273826	2.36967
0.318839	3.5545
0.352598	3.5545
0.390108	4.73934
0.427619	4.73934
0.46888	5.92417
0.50264	7.109
0.547652	7.109
0.585163	8.29384
0.622673	9.47867
0.645179	9.47867
0.671437	9.47867
0.697694	9.47867
0.712698	10.6635
0.768964	13.0332
0.798972	15.4028
0.82898	16.5877
0.847736	15.4028
0.86274	16.5877
0.90025	20.1422
0.930259	21.327
0.949014	21.327
0.967769	22.5118
