Adsorption isotherm of Hydrogen on PCN-17
DOI: 10.1002/anie.200800312
Adsorbate Hydrogen: InChIKey UFHFLCQGNIYNRP-UHFFFAOYSA-N
Temperature: 77 K
Tabular data in the source: 0
pressure (bar)	uptake (cm3(STP)/g)
0.0426632	25.7576
0.0597284	30.6818
0.0661279	34.8485
0.0789268	39.0152
0.102392	42.803
0.115191	46.2121
0.136522	50
0.164253	54.5455
0.181318	57.197
0.200517	59.8485
0.251713	65.1515
0.285843	68.5606
0.326373	71.5909
0.371169	75.3788
0.411699	77.6515
0.450096	79.9242
0.497026	83.3333
0.539689	85.6061
0.580219	87.1212
0.620749	89.3939
0.665545	90.5303
0.686877	92.0455
0.706075	92.0455
0.727407	93.1818
0.748738	94.3182
0.774336	94.697
0.797801	96.2121
0.816999	96.9697
0.838331	97.7273
0.866062	98.4848
0.900193	99.6212
0.940723	100.379
0.989785	101.515
1.01965	102.652
1.05591	103.788
