Adsorption isotherm of Hydrogen on PCN-17
DOI: 10.1002/anie.200800312
Adsorbate Hydrogen: InChIKey UFHFLCQGNIYNRP-UHFFFAOYSA-N
Temperature: 77 K
Tabular data in the source: 0
pressure (bar)	uptake (cm3(STP)/g)
0.0233803	8.29384
0.027277	16.5877
0.0428639	20.1422
0.0584508	27.2512
0.0662443	33.1754
0.0818311	36.7299
0.101315	41.4692
0.124695	46.2085
0.140282	48.5782
0.163662	53.3175
0.187042	55.6872
0.202629	59.2417
0.245493	65.1659
0.280564	68.7204
0.323427	71.09
0.366291	74.6445
0.405258	77.0142
0.440329	79.3839
0.487089	81.7536
0.529954	85.3081
0.561128	86.4929
0.607889	87.6777
0.642959	90.0474
0.666339	91.2322
0.697513	92.4171
0.740377	93.6019
0.763757	94.7867
0.791034	95.9716
0.818311	97.1564
0.841692	98.3412
0.872865	99.5261
0.907936	99.5261
0.9508	100.711
0.978077	101.896
1.00535	103.081
