Adsorption isotherm of Hydrogen on PCN-17
DOI: 10.1002/anie.200800312
Adsorbate Hydrogen: InChIKey UFHFLCQGNIYNRP-UHFFFAOYSA-N
Temperature: 77 K
Tabular data in the source: 0
pressure (bar)	uptake (cm3(STP)/g)
0.0106658	5.68182
0.0234647	13.2576
0.0383968	17.4242
0.0597284	24.6212
0.0725274	29.9242
0.0938589	36.3636
0.125856	40.9091
0.16212	45.8333
0.187718	49.6212
0.206916	51.5152
0.253846	56.0606
0.290109	59.4697
0.337039	64.3939
0.379702	67.803
0.424498	70.4545
0.465028	72.7273
0.514091	76.1364
0.561021	78.7879
0.601551	80.303
0.639947	81.8182
0.684744	84.0909
0.718874	85.6061
0.738073	87.1212
0.767937	87.5
0.795668	89.0152
0.829798	89.3939
0.853263	90.5303
0.878861	91.6667
0.906592	92.4242
0.927924	93.1818
0.951388	93.9394
0.976986	94.3182
1.00472	95.4545
1.03458	96.2121
1.06445	96.9697
