Adsorption isotherm of Carbon monoxide on PCN-17
DOI: 10.1002/anie.200800312
Adsorbate Carbon monoxide: InChIKey UGFAIRIUMAVXCW-UHFFFAOYSA-N
Temperature: 77 K
Tabular data in the source: 0
pressure (bar)	uptake (cm3(STP)/g)
0.0136205	2.36967
0.027241	5.92417
0.0385914	5.92417
0.0499418	9.47867
0.0590222	11.8483
0.104424	13.0332
0.122585	13.0332
0.152096	13.0332
0.174796	13.0332
0.186147	14.218
0.213388	15.4028
0.236089	15.4028
0.26106	16.5877
0.286031	16.5877
0.311001	16.5877
0.331432	16.5877
0.351863	16.5877
0.376834	17.7725
0.388184	17.7725
0.399535	17.7725
0.410885	17.7725
0.422236	18.9573
0.433586	18.9573
0.444936	18.9573
0.458557	20.1422
0.474447	22.5118
0.490338	22.5118
0.503959	23.6967
0.515309	24.8815
0.524389	24.8815
0.53574	23.6967
0.54936	23.6967
0.562981	24.8815
0.578871	26.0664
0.585682	27.2512
