Adsorption isotherm of Carbon Dioxide on PCN-17
DOI: 10.1002/anie.200800312
Adsorbate Carbon Dioxide: InChIKey CURLTUGMZLYLDI-UHFFFAOYSA-N
Temperature: 195 K
Tabular data in the source: 0
pressure (bar)	uptake (cm3(STP)/g)
0.00384597	9.30652
0.00771052	17.4503
0.0115008	30.2451
0.0153281	40.7144
0.0191184	53.5092
0.0229644	62.8157
0.0306935	79.1032
0.0307864	73.2894
0.0385712	86.0886
0.0424543	93.0695
0.046226	107.027
0.0463375	100.051
0.0541223	112.85
0.0619443	123.323
0.0697849	132.634
0.0775326	147.759
0.0972826	161.734
0.144921	180.391
0.160843	183.896
0.192744	187.419
0.216656	190.934
0.248576	193.294
0.296456	196.835
0.332389	198.037
0.372297	200.406
0.41622	201.617
0.456147	202.823
0.512016	206.372
0.551943	207.578
0.591871	208.785
0.639788	210
0.68371	211.211
0.703683	211.232
0.735658	210.104
0.759589	212.456
0.783556	212.482
0.807524	212.508
0.82746	214.856
0.851409	216.044
0.875395	214.908
0.883366	216.079
0.903339	216.101
0.931282	217.294
0.959189	220.813
0.999135	220.857
1.01513	219.711
1.03507	222.059
1.05506	220.918
