Adsorption isotherm of Water, Th(IV) on PVA/SA/PEO/HZSM5 nanofiber
DOI: 10.1016/j.psep.2017.04.013
Article source: Figure 8
Adsorbate Water: InChIKey XLYOFNOQVPJJNP-UHFFFAOYSA-N
Adsorbate Th(IV): InChIKey YMURPAJPLBCAQW-UHFFFAOYSA-N
Kind: experiment
Temperature: 308 K
Tabular data in the source: 0
pressure (bar)	Water fraction	Water uptake (mg/g)	Th(IV) fraction	Th(IV) uptake (mg/g)	total uptake (mg/g)
1.01325			10.42	8.98	
1.01325			30.55	28.52	
1.01325			50.79	47.72	
1.01325			100.62	97.3	
1.01325			200.28	191.05	
1.01325			300.21	234.6	
1.01325			401.45	259.48	
1.01325			501.15	265.79	
