Adsorption isotherm of Water, Th(IV) on PVA/SA/PEO/HZSM5 nanofiber
DOI: 10.1016/j.psep.2017.04.013
Article source: Figure 8
Adsorbate Water: InChIKey XLYOFNOQVPJJNP-UHFFFAOYSA-N
Adsorbate Th(IV): InChIKey YMURPAJPLBCAQW-UHFFFAOYSA-N
Kind: experiment
Temperature: 318 K
Tabular data in the source: 0
pressure (bar)	Water fraction	Water uptake (mg/g)	Th(IV) fraction	Th(IV) uptake (mg/g)	total uptake (mg/g)
1.01325			9.7	7.55	
1.01325			30.43	27.28	
1.01325			50.67	48.16	
1.01325			99.9	98.37	
1.01325			199.8	194.08	
1.01325			299.48	247.93	
1.01325			400.49	268.81	
1.01325			500.43	274.32	
