Adsorption isotherm of U(VI), Water, Th(IV) on PVA/SA/PEO/HZSM5 nanofiber
DOI: 10.1016/j.psep.2017.04.013
Article source: Figure 9
Adsorbate U(VI): InChIKey AAORDHMTTHGXCV-UHFFFAOYSA-N
Adsorbate Water: InChIKey XLYOFNOQVPJJNP-UHFFFAOYSA-N
Adsorbate Th(IV): InChIKey YMURPAJPLBCAQW-UHFFFAOYSA-N
Kind: experiment
Temperature: 298 K
Tabular data in the source: 0
pressure (bar)	U(VI) fraction	U(VI) uptake (mg/g)	Water fraction	Water uptake (mg/g)	Th(IV) fraction	Th(IV) uptake (mg/g)	total uptake (mg/g)
1.01325	8.58	0.968					
1.01325	48.9	1.144					
1.01325	96.81	2.023					
1.01325	196.32	3.431					
1.01325	293.25	6.642					
1.01325	390.92	8.797					
1.01325	490.43	10.6					
