Adsorption isotherm of Water, Th(IV) on PVA/SA/PEO/HZSM5 nanofiber
DOI: 10.1016/j.psep.2017.04.013
Article source: Figure 9
Adsorbate Water: InChIKey XLYOFNOQVPJJNP-UHFFFAOYSA-N
Adsorbate Th(IV): InChIKey YMURPAJPLBCAQW-UHFFFAOYSA-N
Kind: experiment
Temperature: 298 K
Tabular data in the source: 0
pressure (bar)	Water fraction	Water uptake (mg/g)	Th(IV) fraction	Th(IV) uptake (mg/g)	total uptake (mg/g)
1.01325			0.24	9.46	
1.01325			2.17	48.57	
1.01325			3.47	96.27	
1.01325			11.85	188.15	
1.01325			68.65	232.12	
1.01325			144.33	255.74	
1.01325			241.58	258.7	
