Adsorption isotherm of Water, Th(IV) on PVA/SA/PEO/HZSM5 nanofiber
DOI: 10.1016/j.psep.2017.04.013
Article source: Figure 8
Adsorbate Water: InChIKey XLYOFNOQVPJJNP-UHFFFAOYSA-N
Adsorbate Th(IV): InChIKey YMURPAJPLBCAQW-UHFFFAOYSA-N
Kind: experiment
Temperature: 298 K
Tabular data in the source: 0
pressure (bar)	Water fraction	Water uptake (mg/g)	Th(IV) fraction	Th(IV) uptake (mg/g)	total uptake (mg/g)
1.01325			10.3	7.91	
1.01325			30.67	27.46	
1.01325			50.91	47.9	
1.01325			100.62	96.5	
1.01325			199.57	174.61	
1.01325			299.61	224.38	
1.01325			400.38	249.17	
1.01325			500.44	257.61	
