Adsorption isotherm of U(VI), Water on PVA/SA/PEO/HZSM5 nanofiber
DOI: 10.1016/j.psep.2017.04.013
Article source: Figure 8
Adsorbate U(VI): InChIKey AAORDHMTTHGXCV-UHFFFAOYSA-N
Adsorbate Water: InChIKey XLYOFNOQVPJJNP-UHFFFAOYSA-N
Kind: experiment
Temperature: 298 K
Tabular data in the source: 0
pressure (bar)	U(VI) fraction	U(VI) uptake (mg/g)	Water fraction	Water uptake (mg/g)	total uptake (mg/g)
1.01325	10.81	7.78			
1.01325	30.98	24.654			
1.01325	50.29	39.145			
1.01325	100.34	71.53			
1.01325	200.16	108.19			
1.01325	299.73	119.465			
1.01325	400.5	125.39			
1.01325	500.06	129.175			
