Adsorption isotherm of U(VI), Water on PVA/SA/PEO/HZSM5 nanofiber
DOI: 10.1016/j.psep.2017.04.013
Article source: Figure 8
Adsorbate U(VI): InChIKey AAORDHMTTHGXCV-UHFFFAOYSA-N
Adsorbate Water: InChIKey XLYOFNOQVPJJNP-UHFFFAOYSA-N
Kind: experiment
Temperature: 308 K
Tabular data in the source: 0
pressure (bar)	U(VI) fraction	U(VI) uptake (mg/g)	Water fraction	Water uptake (mg/g)	total uptake (mg/g)
1.01325	10.33	8.607			
1.01325	32.07	25.383			
1.01325	51.02	40.507			
1.01325	100.71	77.025			
1.01325	200.53	114.756			
1.01325	300.7	125.544			
1.01325	401.23	131.955			
1.01325	501.03	132.628			
