Adsorption isotherm of U(VI), Water, Th(IV) on PVA/SA/PEO/HZSM5 nanofiber
DOI: 10.1016/j.psep.2017.04.013
Article source: Figure 9
Adsorbate U(VI): InChIKey AAORDHMTTHGXCV-UHFFFAOYSA-N
Adsorbate Water: InChIKey XLYOFNOQVPJJNP-UHFFFAOYSA-N
Adsorbate Th(IV): InChIKey YMURPAJPLBCAQW-UHFFFAOYSA-N
Kind: experiment
Temperature: 298 K
Tabular data in the source: 0
pressure (bar)	U(VI) fraction	U(VI) uptake (mg/g)	Water fraction	Water uptake (mg/g)	Th(IV) fraction	Th(IV) uptake (mg/g)	total uptake (mg/g)
1.01325					6	3.82	
1.01325					32.45	17.78	
1.01325					34.86	65.01	
1.01325					115.56	84.7	
1.01325					194.06	105.35	
1.01325					279.3	119.98	
1.01325					369.56	130.98	
