Adsorption isotherm of U(VI), Water on PVA/SA/PEO/HZSM5 nanofiber
DOI: 10.1016/j.psep.2017.04.013
Article source: Figure 8
Adsorbate U(VI): InChIKey AAORDHMTTHGXCV-UHFFFAOYSA-N
Adsorbate Water: InChIKey XLYOFNOQVPJJNP-UHFFFAOYSA-N
Kind: experiment
Temperature: 318 K
Tabular data in the source: 0
pressure (bar)	U(VI) fraction	U(VI) uptake (mg/g)	Water fraction	Water uptake (mg/g)	total uptake (mg/g)
1.01325	10.2	8.169			
1.01325	31.1	24.849			
1.01325	50.17	43.279			
1.01325	100.22	79.895			
1.01325	199.93	118.938			
1.01325	299.86	130.407			
1.01325	400.75	137.743			
1.01325	500.07	139.242			
