Adsorption isotherm of U(VI), Water, Th(IV) on PVA/SA/PEO/HZSM5 nanofiber
DOI: 10.1016/j.psep.2017.04.013
Article source: Figure 9
Adsorbate U(VI): InChIKey AAORDHMTTHGXCV-UHFFFAOYSA-N
Adsorbate Water: InChIKey XLYOFNOQVPJJNP-UHFFFAOYSA-N
Adsorbate Th(IV): InChIKey YMURPAJPLBCAQW-UHFFFAOYSA-N
Kind: experiment
Temperature: 298 K
Tabular data in the source: 0
pressure (bar)	U(VI) fraction	U(VI) uptake (mg/g)	Water fraction	Water uptake (mg/g)	Th(IV) fraction	Th(IV) uptake (mg/g)	total uptake (mg/g)
1.01325	5.63	4.75					
1.01325	30.37	19.617					
1.01325	69.34	30.613					
1.01325	156.7	43.236					
1.01325	246.4	53.44					
1.01325	339.16	60.39					
1.01325	435.36	65.228					
