Adsorption isotherm of Hydrogen on MOF-1c
DOI: 10.1002/ejic.201200127
Adsorbate Hydrogen: InChIKey UFHFLCQGNIYNRP-UHFFFAOYSA-N
Temperature: 77 K
Tabular data in the source: 0
pressure (bar)	uptake (cm3(STP)/g)
0.967692	21.2637
1.06477	25.171
2.52088	45.8964
5.04482	63.2241
7.56875	74.6061
10.1898	83.27
12.6166	90.0652
15.1406	95.6713
17.4703	100.258
19.9943	104.505
22.6153	108.412
24.9451	111.47
27.5661	114.868
29.9929	117.756
32.711	120.304
35.1379	122.852
37.6618	124.891
40.1858	127.099
42.6126	128.968
45.2336	131.176
47.8546	132.365
50.1844	134.914
52.8054	136.443
55.1352	137.462
57.6592	139.5
60.1831	140.69
62.8041	142.388
65.231	143.577
67.5607	145.446
70.0847	147.145
72.7057	148.674
75.3267	150.373
77.7536	151.392
80.0834	152.411
82.6073	154.28
85.1312	155.299
87.7522	156.149
90.082	156.998
92.703	158.017
