Adsorption isotherm of Carbon Dioxide on MOF-1c
DOI: 10.1002/ejic.201200127
Adsorbate Carbon Dioxide: InChIKey CURLTUGMZLYLDI-UHFFFAOYSA-N
Temperature: 298 K
Tabular data in the source: 0
pressure (bar)	uptake (cm3(STP)/g)
0.509533	1.70232
1.58905	7.0897
3.17657	15.8046
4.89109	23.2518
6.54211	30.8575
8.00262	37.0372
9.71714	42.7415
11.1142	47.3366
12.7652	51.7733
14.4162	56.0515
16.0672	59.8543
17.6547	63.3403
19.2423	66.3509
20.8933	69.3615
22.4808	71.7383
24.0683	74.4319
25.7193	76.3334
27.3069	78.5517
28.8944	80.6116
30.6089	82.8299
32.2599	84.7313
33.7839	86.6328
35.3714	88.0588
37.1495	89.8018
38.5465	91.3863
40.0705	93.1293
41.658	94.2385
43.3725	96.1399
45.0871	97.0906
46.6111	98.8336
48.1986	100.26
49.8496	101.369
51.5641	102.478
53.2787	103.746
54.6757	105.013
56.3267	105.964
57.9142	107.232
59.3112	108.024
60.8988	109.45
62.6133	110.718
64.0103	111.351
