Adsorption isotherm of Nitrogen on MOF-1c
DOI: 10.1002/ejic.201200127
Adsorbate Nitrogen: InChIKey IJGRMHOSHXDMSA-UHFFFAOYSA-N
Temperature: 77 K
Tabular data in the source: 0
pressure (bar)	uptake (cm3(STP)/g)
0.00146926	140.029
0.00146926	197.394
0.00229859	105.67
0.00229859	132.56
0.00312792	157.358
0.00312792	184.846
0.00312792	215.918
0.00312792	227.272
0.00601841	0.655336
0.00976257	248.186
0.0180559	253.265
0.0495705	261.332
0.0694744	265.216
0.0819144	266.112
0.10016	267.905
0.147432	269.1
0.195533	271.49
0.244463	272.984
0.291735	275.076
0.341495	276.868
0.390425	277.765
0.441015	279.557
0.488287	281.649
0.538046	283.74
0.586977	285.234
0.633419	287.027
0.68235	288.819
0.73128	290.911
0.779382	292.106
0.829141	295.094
