Adsorption isotherm of Hydrogen on MOF-1c
DOI: 10.1002/ejic.201200127
Adsorbate Hydrogen: InChIKey UFHFLCQGNIYNRP-UHFFFAOYSA-N
Temperature: 87 K
Tabular data in the source: 0
pressure (bar)	uptake (cm3(STP)/g)
0.191097	0.53833
0.579395	3.08653
0.773543	5.9745
1.25892	9.03234
2.71503	22.4529
4.94774	34.3445
7.66583	44.3674
10.0927	52.6916
12.5195	58.8073
15.0435	65.6025
17.5674	70.0193
19.9943	74.0965
22.6153	78.3435
25.0422	82.0808
27.5661	85.6483
30.09	89.0459
32.614	91.764
35.235	94.652
37.6618	97.3701
40.0887	99.4086
42.6126	101.787
45.2336	104.505
47.8546	106.883
50.1844	109.262
52.7084	110.96
55.0381	112.829
57.6592	114.528
60.3772	116.227
62.61	118.095
65.231	119.964
67.6578	121.493
70.5701	123.362
72.8998	124.891
75.1326	126.25
77.7536	127.269
80.2775	129.308
82.6073	130.497
85.3254	131.686
87.8493	133.555
90.2762	134.234
92.8001	135.763
95.1299	136.782
97.945	138.141
99.8865	140.01
