Adsorption isotherm of Carbon Dioxide on MOF-1c
DOI: 10.1002/ejic.201200127
Adsorbate Carbon Dioxide: InChIKey CURLTUGMZLYLDI-UHFFFAOYSA-N
Temperature: 273 K
Tabular data in the source: 0
pressure (bar)	uptake (cm3(STP)/g)
0.304518	3.51814
0.304518	6.54037
0.345499	11.4515
0.96021	27.8849
1.82081	47.7183
2.64042	60.5628
3.50102	70.1961
4.40259	77.9406
5.26319	83.7962
6.0828	88.5184
6.98438	92.8629
7.804	96.8295
8.66459	100.041
9.56617	102.874
10.4677	106.085
11.3283	108.73
12.148	111.374
12.9676	113.452
13.9101	116.096
14.8527	117.796
15.6723	120.063
16.5739	121.574
17.3935	123.274
18.2541	125.163
19.1147	126.674
20.0982	128.563
20.8769	129.885
21.7784	131.396
22.639	132.907
23.4996	134.041
24.3192	135.363
25.3028	136.685
26.0814	138.007
27.024	139.519
27.7616	140.463
28.7452	141.596
29.6058	142.919
30.3434	144.052
31.286	144.619
32.2285	145.941
33.0891	147.074
33.7858	148.207
34.5644	148.774
