Adsorption isotherm of Methane on MOF-L0
DOI: 10.1021/Jp503210h
Adsorbate Methane: InChIKey VNWKTOKETHGBQD-UHFFFAOYSA-N
Temperature: 298 K
Tabular data in the source: 0
pressure (bar)	uptake (cm3(STP)/cm3)
0.457929	7.07596
0.578983	9.79068
0.707548	13.5862
0.832358	16.8414
1.35877	19.0662
2.59648	35.4176
4.81853	61.0699
6.7037	82.3608
8.98297	101.541
10.9404	118.521
13.7123	135.062
16.257	148.335
18.7868	159.446
21.4076	168.949
24.0209	177.371
26.4221	184.686
29.0316	192.568
31.5163	197.194
34.0122	203.442
36.6977	207.553
39.0839	212.707
41.6671	216.806
44.0496	221.419
46.7313	224.99
49.5191	229.114
51.5797	231.528
54.3637	235.111
56.7311	237.563
59.2045	240.568
61.784	244.126
64.447	244.995
66.9167	247.46
69.178	249.359
71.8598	252.929
