Adsorption isotherm of Methane on MOF-L4
DOI: 10.1021/Jp503210h
Adsorbate Methane: InChIKey VNWKTOKETHGBQD-UHFFFAOYSA-N
Temperature: 298 K
Tabular data in the source: 0
pressure (bar)	uptake (wt%)
1.05366	0.812364
1.26003	0.818798
1.89659	1.46225
4.23647	4.02964
6.45134	5.81363
8.16339	8.04964
10.387	10.1457
13.2253	12.105
15.5521	14.2043
18.2015	16.7813
20.7303	18.731
23.0396	20.2061
25.8736	22.0094
28.398	23.8031
30.8193	25.5935
33.5413	27.0815
35.8637	29.0247
38.3794	30.5063
41.2177	32.4656
43.5227	33.7847
46.1503	35.5815
48.7692	37.0663
51.0741	38.3854
53.693	39.8702
56.1999	41.0396
58.9176	42.3716
61.4333	43.8532
63.7339	45.0162
66.3397	46.0329
68.7391	47.0431
71.4567	48.375
