Adsorption isotherm of Methane on MOF-L1
DOI: 10.1021/Jp503210h
Adsorbate Methane: InChIKey VNWKTOKETHGBQD-UHFFFAOYSA-N
Temperature: 273 K
Tabular data in the source: 0
pressure (bar)	uptake (wt%)
1.33387	1.7392
2.38476	3.71369
4.48128	7.41937
6.56729	10.6384
8.50392	13.6102
10.5794	16.3426
13.365	18.6085
15.5794	21.1016
21.2736	24.6641
25.676	28.4339
31.0505	30.5285
33.8098	31.5779
35.9926	32.6112
38.6078	33.6565
41.0736	34.4545
43.2459	35.0012
46.2934	36.0585
48.4605	36.3619
50.9263	37.1599
53.6803	37.9659
56.002	38.7599
58.6014	39.0753
61.062	39.63
63.6666	40.1887
66.266	40.5041
68.7266	41.0588
71.1871	41.6135
