Adsorption isotherm of Methane on MOF-L2
DOI: 10.1021/Jp503210h
Adsorbate Methane: InChIKey VNWKTOKETHGBQD-UHFFFAOYSA-N
Temperature: 273 K
Tabular data in the source: 0
pressure (bar)	uptake (wt%)
1.77674	2.23783
2.37425	3.22707
4.31088	6.19883
6.65884	8.20936
8.44084	10.6905
10.5058	12.9363
13.1736	16.4147
15.5426	19.3985
18.3439	22.3943
20.7129	25.378
23.3649	28.1265
26.0168	30.875
28.6636	33.3801
30.8884	36.3599
33.6793	38.8691
36.0483	41.8528
38.8338	44.1187
41.1923	46.6159
43.6897	48.8737
46.1975	51.6182
48.839	53.88
51.4804	56.1419
53.8337	58.3957
56.4804	60.9009
59.1113	62.6761
61.4698	65.1733
64.106	67.1918
66.6033	69.4497
69.2395	71.4682
71.5928	73.7221
