Adsorption isotherm of Methane on MOF-L2
DOI: 10.1021/Jp503210h
Adsorbate Methane: InChIKey VNWKTOKETHGBQD-UHFFFAOYSA-N
Temperature: 273 K
Tabular data in the source: 0
pressure (bar)	uptake (cm3(STP)/cm3)
1.14174	8.3186
1.48174	10.4057
2.0484	13.8841
2.06523	16.6075
4.33609	31.2022
6.60274	45.116
8.5336	57.6236
10.5862	72.1886
13.176	85.4661
15.875	98.7585
18.4648	112.036
20.9413	124.618
23.5143	135.172
25.9782	145.711
28.4378	155.57
31.1073	164.096
33.6677	172.608
36.3288	179.773
38.7801	188.269
41.3278	194.738
43.7707	201.874
46.1967	206.285
48.7444	212.754
51.3929	217.877
54.0414	222.999
56.2491	227.381
58.8934	231.822
61.4285	236.249
64.0686	240.009
66.4862	243.059
68.908	246.79
71.4347	249.855
