Adsorption isotherm of Methane on MOF-L7
DOI: 10.1021/Jp503210h
Adsorbate Methane: InChIKey VNWKTOKETHGBQD-UHFFFAOYSA-N
Temperature: 273 K
Tabular data in the source: 0
pressure (bar)	uptake (wt%)
0.883863	0.762504
1.34011	1.75401
2.37987	3.00975
4.33212	6.24851
6.26719	8.75495
8.50261	11.7597
10.7323	14.5203
13.1179	17.7741
15.5035	21.028
18.1665	23.8037
20.8353	26.8235
23.5155	30.3316
26.0226	32.614
28.4025	35.6238
30.7881	38.8776
33.5899	41.4143
35.964	44.1799
38.7715	46.9607
41.1514	49.9704
43.9474	52.263
46.3215	55.0286
48.9846	57.8043
51.6476	60.5801
54.3049	63.1117
56.6676	65.3891
59.1862	68.1598
61.6934	70.4423
64.5008	73.223
66.8635	75.5005
69.5151	77.788
72.0223	80.0705
