Adsorption isotherm of Methane on MOF-L7
DOI: 10.1021/Jp503210h
Adsorbate Methane: InChIKey VNWKTOKETHGBQD-UHFFFAOYSA-N
Temperature: 298 K
Tabular data in the source: 0
pressure (bar)	uptake (wt%)
0.111915	0.315294
0.636562	0.643456
1.28186	1.59899
1.39377	1.91428
2.33988	2.56739
4.36148	4.81305
6.17672	7.05228
8.51224	9.46363
10.4263	11.55
13.0757	14.1271
15.5232	16.8537
18.2758	19.434
20.7145	21.8486
23.252	24.1103
25.9101	26.9994
28.5465	29.1084
30.8864	31.6757
33.3163	33.7782
36.2709	36.2089
38.6065	38.6202
41.2472	40.8852
43.8748	42.6821
46.1158	45.4023
48.9585	47.5176
51.2809	49.4609
53.8054	51.2545
56.6655	53.994
59.0911	55.9405
61.7187	57.7373
64.355	59.8463
66.6775	61.7895
69.417	63.9016
71.9458	65.8513
