Adsorption isotherm of Hydrogen on MOF-L7
DOI: 10.1021/Jp503210h
Adsorbate Hydrogen: InChIKey UFHFLCQGNIYNRP-UHFFFAOYSA-N
Temperature: 77 K
Tabular data in the source: 0
pressure (bar)	uptake (wt%)
1.01474	1.84898
2.12447	3.16121
3.21401	4.15
4.17493	5.13647
5.25774	6.01745
6.46245	6.79292
7.53181	7.45826
8.486	8.33693
9.55536	9.00228
10.4826	9.44969
12.7567	10.8905
14.6314	12.1088
16.7634	13.3317
18.7533	14.3366
20.7365	15.2337
31.3359	20.3778
41.6175	24.547
51.7368	28.1748
