Adsorption isotherm of Methane on MOF-L2
DOI: 10.1021/Jp503210h
Adsorbate Methane: InChIKey VNWKTOKETHGBQD-UHFFFAOYSA-N
Temperature: 298 K
Tabular data in the source: 0
pressure (bar)	uptake (cm3(STP)/cm3)
1.38969	8.81082
2.23796	13.2352
4.44211	21.6066
6.44923	31.0335
8.67216	42.107
10.4747	51.5088
13.3076	62.1176
15.8298	72.1481
18.4581	82.7316
20.8743	92.2091
23.5936	101.184
25.9986	109.04
28.7179	118.015
31.2176	124.803
33.6226	132.659
36.2208	138.92
38.8191	145.18
41.2165	151.955
43.917	158.228
46.3032	163.382
48.9015	169.642
51.4884	174.281
54.0754	178.92
56.3593	184.062
59.0486	188.713
61.7378	193.365
64.1203	197.978
66.5937	200.983
69.1769	205.082
71.5481	208.074
