Adsorption isotherm of Methane on MOF-L4
DOI: 10.1021/Jp503210h
Adsorbate Methane: InChIKey VNWKTOKETHGBQD-UHFFFAOYSA-N
Temperature: 273 K
Tabular data in the source: 0
pressure (bar)	uptake (wt%)
1.20138	1.99308
3.43108	4.7537
6.71198	9.25826
8.65851	12.2529
10.5879	14.5153
13.1064	17.2859
15.3075	18.826
18.4039	21.6169
20.9168	24.1434
23.4296	26.67
26.0812	28.9575
28.2823	30.4976
30.7894	32.7801
33.5969	35.5609
36.2371	37.3602
38.594	39.3935
41.2342	41.1928
43.7299	42.9871
46.0811	44.7763
49.0159	46.8298
51.3556	48.1309
53.9901	49.6861
56.6302	51.4854
59.1087	52.5473
61.46	54.3366
63.9499	55.8868
66.5672	56.7097
69.0571	58.2598
71.3912	59.3168
