Adsorption isotherm of Methane on MOF-L3
DOI: 10.1021/Jp503210h
Adsorbate Methane: InChIKey VNWKTOKETHGBQD-UHFFFAOYSA-N
Temperature: 273 K
Tabular data in the source: 0
pressure (bar)	uptake (wt%)
0.889588	1.00661
4.30349	5.028
6.23284	7.29034
8.46254	10.051
10.5306	12.0742
13.1936	14.85
15.5621	17.3715
18.2137	19.659
20.8824	22.6788
23.2451	24.9563
25.7465	26.9947
28.4038	29.5263
31.0497	31.5697
33.4124	33.8471
36.197	35.6515
38.5425	37.1966
41.0439	39.235
43.6841	41.0343
46.1797	42.8286
48.6697	44.3787
51.2984	45.6898
53.7884	47.24
56.4228	48.7952
58.907	50.1013
61.3913	51.4074
64.0199	52.7185
66.3597	54.0195
69.1271	55.0915
71.7558	56.4026
