Adsorption isotherm of Methane on MOF-L0
DOI: 10.1021/Jp503210h
Adsorbate Methane: InChIKey VNWKTOKETHGBQD-UHFFFAOYSA-N
Temperature: 273 K
Tabular data in the source: 0
pressure (bar)	uptake (cm3(STP)/cm3)
0.047278	6.82509
0.204042	13.6662
0.565594	18.4917
0.946057	26.0473
2.33478	52.8411
4.47498	93.3811
6.75378	122.35
8.97585	143.13
10.9553	160.464
13.6917	176.546
16.1902	189.865
18.8888	200.487
21.5779	209.744
23.8149	216.889
26.3851	224.764
29.0458	229.926
31.6018	235.754
34.0389	240.2
36.6996	245.362
39.2462	249.825
41.7833	252.923
44.4346	256.719
46.7527	259.785
49.404	263.582
51.8316	266.664
54.1402	268.365
56.8916	270.812
59.3192	273.894
61.8421	274.944
64.2697	278.026
66.802	280.442
69.5533	282.889
71.9668	283.924
