Adsorption isotherm of Methane on MOF-L2
DOI: 10.1021/Jp503210h
Adsorbate Methane: InChIKey VNWKTOKETHGBQD-UHFFFAOYSA-N
Temperature: 298 K
Tabular data in the source: 0
pressure (bar)	uptake (wt%)
1.89164	1.4621
3.15687	2.59286
4.94136	3.89572
6.33026	5.80985
8.76595	8.38023
10.7689	10.1576
13.0974	12.5687
15.6113	14.2061
18.1335	16.1556
20.3301	17.4713
23.4622	19.128
25.7784	21.071
28.6096	23.0301
30.6084	24.6515
33.4273	26.1425
35.8423	27.9327
38.348	29.2581
40.8495	30.4274
43.3511	31.5967
46.17	33.0877
48.4613	34.0946
50.8475	34.7926
53.7611	35.9747
55.9453	36.8223
58.3438	37.9884
61.1379	38.5433
63.5364	39.7094
66.2358	40.5731
68.7166	40.9622
70.8061	42.1187
