Adsorption isotherm of Methane on MOF-L6
DOI: 10.1021/Jp503210h
Adsorbate Methane: InChIKey VNWKTOKETHGBQD-UHFFFAOYSA-N
Temperature: 273 K
Tabular data in the source: 0
pressure (bar)	uptake (cm3(STP)/cm3)
0.786472	4.20582
1.88793	6.4122
4.32857	14.2688
4.42168	11.5551
6.52752	17.9992
8.52045	23.7449
10.4044	29.4747
12.95	36.6648
15.4838	41.8077
17.9244	49.6643
20.4661	56.172
23.1167	62.6956
25.6584	69.2033
28.0832	74.3303
30.6209	80.1557
33.1586	85.981
35.6963	91.8063
38.1251	97.6157
40.6588	102.759
43.1965	108.584
45.7382	115.092
48.2601	118.187
50.9107	124.711
53.2305	130.504
55.7643	135.647
58.407	140.806
60.9367	145.267
63.2486	149.695
65.6694	154.14
68.3122	159.299
71.0678	165.156
