Adsorption isotherm of Carbon Dioxide on MOF-L7
DOI: 10.1021/Jp503210h
Adsorbate Carbon Dioxide: InChIKey CURLTUGMZLYLDI-UHFFFAOYSA-N
Temperature: 298 K
Tabular data in the source: 0
pressure (bar)	uptake (wt%)
0.520174	1.15061
0.83148	1.73265
1.24522	2.32814
1.77338	4.56206
2.28956	5.17102
4.16139	9.20488
6.23411	12.724
8.21236	17.313
10.2851	20.8321
12.7755	25.4884
15.4788	31.2549
17.9693	35.9112
20.4597	40.5675
23.3599	45.2777
25.6495	50.4487
28.4433	54.6037
30.516	58.1229
32.9	62.224
35.4889	66.3521
38.0778	70.4802
40.982	75.732
43.4685	79.8467
45.8525	83.9478
48.4374	87.5343
50.719	91.622
53.3119	96.2918
56.0976	99.3635
58.4817	103.465
61.169	107.065
63.3521	111.68
65.9331	114.725
68.522	118.853
71.0044	122.426
