Adsorption isotherm of Methane on MOF-L5
DOI: 10.1021/Jp503210h
Adsorbate Methane: InChIKey VNWKTOKETHGBQD-UHFFFAOYSA-N
Temperature: 273 K
Tabular data in the source: 0
pressure (bar)	uptake (wt%)
1.33438	1.50991
4.15904	5.02296
6.09984	7.77351
8.76861	10.7933
10.3919	12.3133
13.0721	15.8213
16.3129	18.6172
18.1093	21.3627
20.9053	23.6552
23.5626	26.1869
25.9253	28.4643
28.7328	31.245
30.9511	33.5175
33.3137	35.7949
36.2542	38.0925
38.9058	40.38
41.2628	42.4133
44.0588	44.7059
46.1212	46.4851
48.7728	48.7726
51.2684	50.5668
53.7756	52.8493
56.4157	54.6486
58.9114	56.4429
61.5516	58.2422
64.3361	60.0466
66.6817	61.5917
69.1716	63.1419
71.6673	64.9361
