Adsorption isotherm of Methane on MOF-L1
DOI: 10.1021/Jp503210h
Adsorbate Methane: InChIKey VNWKTOKETHGBQD-UHFFFAOYSA-N
Temperature: 273 K
Tabular data in the source: 0
pressure (bar)	uptake (cm3(STP)/cm3)
0.604163	8.27009
0.742015	12.3811
0.970442	13.7781
2.022	23.4772
4.35828	44.9549
6.35192	64.3371
8.55507	82.3863
10.4203	99.0224
13.1709	117.152
15.7978	133.217
18.4058	146.553
21.2281	159.238
23.484	169.113
26.3968	179.084
28.6385	186.911
31.3134	194.12
33.7694	201.297
36.5586	209.205
38.9956	213.652
41.3374	220.13
44.2124	224.641
46.6494	229.088
48.9864	234.884
51.7425	238.014
54.2985	243.842
56.6119	246.226
59.2632	250.022
61.5718	251.723
64.1136	255.504
66.7649	259.3
69.4068	261.732
72.0534	264.845
