Adsorption isotherm of Methane on MOF-L3
DOI: 10.1021/Jp503210h
Adsorbate Methane: InChIKey VNWKTOKETHGBQD-UHFFFAOYSA-N
Temperature: 273 K
Tabular data in the source: 0
pressure (bar)	uptake (cm3(STP)/cm3)
0.251905	5.47645
1.02841	7.62291
1.3642	9.02914
4.27299	20.9895
6.17861	29.4121
8.3151	39.9068
10.2165	47.6485
12.6804	58.1878
15.2534	68.742
18.158	80.0215
20.3868	87.8077
23.0647	97.6959
25.73	105.541
28.0763	114.704
30.8592	123.926
33.302	131.061
35.9673	138.907
38.4059	145.361
40.9621	153.192
43.5141	160.342
45.9485	166.115
48.6096	173.28
51.1531	179.068
53.6967	184.857
56.1269	189.949
58.6662	195.057
61.3147	200.179
63.7491	205.952
66.1794	211.045
68.7103	214.791
71.2412	218.536
