Adsorption isotherm of Methane on MOF-L4
DOI: 10.1021/Jp503210h
Adsorbate Methane: InChIKey VNWKTOKETHGBQD-UHFFFAOYSA-N
Temperature: 273 K
Tabular data in the source: 0
pressure (bar)	uptake (cm3(STP)/cm3)
1.24211	7.68148
1.67398	7.06276
2.13358	11.2208
2.68233	11.9828
4.46922	19.7439
6.26404	28.8697
8.38177	37.361
10.5114	47.8994
12.9639	57.8032
15.5214	67.0405
18.1919	76.9761
20.6404	86.1975
23.194	94.7524
25.7476	103.307
28.1882	111.164
30.9557	119.068
33.3963	126.925
36.0589	135.496
38.4876	141.305
41.0333	148.495
43.4699	155.669
46.1166	161.511
48.4404	167.986
51.087	173.828
53.6247	179.653
55.9406	184.764
58.8012	189.955
61.121	195.748
63.7637	200.907
66.0756	205.336
68.7143	209.812
71.466	214.987
