Adsorption isotherm of Methane on MOF-L7
DOI: 10.1021/Jp503210h
Adsorbate Methane: InChIKey VNWKTOKETHGBQD-UHFFFAOYSA-N
Temperature: 273 K
Tabular data in the source: 0
pressure (bar)	uptake (cm3(STP)/cm3)
0.217914	0.0318381
0.879581	1.49215
1.75916	2.98429
2.53375	5.14292
4.42564	12.2375
6.40668	15.936
8.28272	20.301
10.4936	26.0786
12.9263	32.5704
15.3471	37.015
17.8888	43.5227
20.4225	48.6656
23.0692	54.5069
25.4979	60.3163
27.9267	66.1257
30.6784	71.3004
33.2121	76.4433
35.6369	81.5703
38.1707	86.7132
40.5915	91.1578
43.1252	96.3008
45.4411	101.412
48.3017	106.603
50.8315	111.063
53.1473	116.174
55.6771	120.635
58.3238	126.476
60.7367	129.556
63.2783	136.063
65.9131	139.857
68.225	144.286
70.9806	150.143
