Adsorption isotherm of Methane on MOF-L5
DOI: 10.1021/Jp503210h
Adsorbate Methane: InChIKey VNWKTOKETHGBQD-UHFFFAOYSA-N
Temperature: 298 K
Tabular data in the source: 0
pressure (bar)	uptake (wt%)
0.443295	1.10514
0.765943	1.5829
0.99414	2.36953
2.8558	2.58348
4.55475	4.35137
6.66207	5.9761
8.57176	7.90647
10.3652	9.36551
12.9027	11.6273
15.7585	14.2107
17.8745	16.1475
20.8248	18.4222
23.2547	20.5246
25.6803	22.4711
28.2091	24.4208
30.7248	25.9023
33.258	28.008
35.8899	29.9609
38.5132	31.6017
41.0332	33.2393
43.4588	35.1858
45.9832	36.9794
48.7096	38.6235
51.1265	40.2578
53.6509	42.0515
56.1666	43.533
58.6823	45.0146
61.3099	46.8114
63.8168	47.9809
66.3369	49.6185
68.9558	51.1033
71.6778	52.5913
