Adsorption isotherm of Methane on MOF-L5
DOI: 10.1021/Jp503210h
Adsorbate Methane: InChIKey VNWKTOKETHGBQD-UHFFFAOYSA-N
Temperature: 298 K
Tabular data in the source: 0
pressure (bar)	uptake (cm3(STP)/cm3)
1.06033	5.53043
1.26864	6.0961
2.09812	7.81834
4.58283	12.4447
6.46138	18.0761
8.4422	23.7201
10.6238	28.849
13.1198	35.0965
15.612	40.8037
18.2103	47.0639
20.6987	52.2306
23.1984	59.0186
25.5884	64.7132
27.9783	70.4077
30.6713	75.5997
33.1598	80.7664
35.652	86.4736
38.1404	91.6403
40.8297	96.2918
43.3182	101.459
45.9051	106.098
48.4921	110.736
50.9806	115.903
53.4615	119.989
55.95	125.156
58.3287	129.229
60.9194	134.408
63.6049	138.52
65.885	143.121
68.6691	146.704
71.4531	150.287
