Adsorption isotherm of Methane on MOF-L1
DOI: 10.1021/Jp503210h
Adsorbate Methane: InChIKey VNWKTOKETHGBQD-UHFFFAOYSA-N
Temperature: 298 K
Tabular data in the source: 0
pressure (bar)	uptake (wt%)
1.04678	0.656247
2.32027	2.09907
8.67118	8.68908
10.8843	10.6289
13.32	13.1993
15.6196	14.5182
18.1459	16.6237
18.2572	16.939
20.87	18.4236
23.0749	20.0513
26.1163	22.1729
28.3088	23.3326
33.0893	25.0406
35.8999	26.2196
38.2984	27.3857
40.8948	28.2462
43.388	29.1034
45.7783	29.9575
48.3705	30.6619
50.7566	31.3599
53.5589	32.2268
55.842	32.9216
58.426	33.3139
60.9151	34.0152
63.5032	34.5636
66.0912	35.112
68.4691	35.4979
70.8511	36.0399
