Adsorption isotherm of Methane on MOF-L1
DOI: 10.1021/Jp503210h
Adsorbate Methane: InChIKey VNWKTOKETHGBQD-UHFFFAOYSA-N
Temperature: 298 K
Tabular data in the source: 0
pressure (bar)	uptake (cm3(STP)/cm3)
1.26864	6.0961
2.46504	16.5029
4.39992	30.2407
6.6529	45.6375
8.58026	58.2944
10.8107	70.4487
13.2495	83.1687
15.798	96.9822
18.3315	108.634
21.0621	119.23
23.6829	128.733
26.1976	137.683
28.7086	146.092
31.4166	153.445
33.9201	160.774
36.4161	167.021
38.9121	173.269
41.5028	178.448
43.7905	184.13
46.3812	189.31
48.9682	193.949
51.5476	197.507
54.0361	202.673
56.6156	206.231
59.0965	210.317
61.676	213.875
64.0509	217.408
66.7289	220.439
69.2023	223.444
71.6758	226.449
