Adsorption isotherm of Methane on MOF-L3
DOI: 10.1021/Jp503210h
Adsorbate Methane: InChIKey VNWKTOKETHGBQD-UHFFFAOYSA-N
Temperature: 298 K
Tabular data in the source: 0
pressure (bar)	uptake (wt%)
1.47541	1.29322
2.4233	2.10229
4.31494	3.56439
6.31787	5.34176
8.42796	7.27838
10.6452	9.37424
12.9572	11.1612
15.6813	12.9611
18.2118	15.2226
20.6309	17.1689
23.2562	19.1216
25.6753	21.0678
28.1769	22.2371
30.8062	24.3459
33.213	25.824
35.628	27.6142
38.3439	29.102
40.9526	30.4306
43.5654	31.9152
45.968	33.2373
48.379	34.8715
50.9918	36.3561
53.4933	37.5254
56.0979	38.6979
58.6036	40.0233
61.0062	41.3454
63.6108	42.5179
66.2071	43.3784
68.7127	44.7037
71.206	45.561
