Adsorption isotherm of Methane on MOF-L5
DOI: 10.1021/Jp503210h
Adsorbate Methane: InChIKey VNWKTOKETHGBQD-UHFFFAOYSA-N
Temperature: 273 K
Tabular data in the source: 0
pressure (bar)	uptake (cm3(STP)/cm3)
0.350644	4.14214
0.689401	6.23709
0.911278	6.95132
4.32857	14.2688
6.22839	22.7282
8.33819	29.8546
10.3351	36.2827
13.3284	45.5837
15.5512	53.4084
17.9799	59.2178
20.5335	67.7727
23.0791	74.9629
25.6208	81.4706
28.0614	89.3272
30.7081	95.1684
33.2577	103.041
35.6904	109.533
38.3371	115.374
40.8748	121.199
43.3114	128.373
45.8492	134.199
48.3908	140.706
50.8117	145.151
53.4623	151.675
55.8871	156.802
58.3158	162.611
60.8456	167.072
63.6012	172.929
65.9131	177.357
68.6687	183.215
71.1985	187.675
