Adsorption isotherm of Methane on MOF-L6
DOI: 10.1021/Jp503210h
Adsorbate Methane: InChIKey VNWKTOKETHGBQD-UHFFFAOYSA-N
Temperature: 273 K
Tabular data in the source: 0
pressure (bar)	uptake (wt%)
1.03404	1.01164
2.51859	2.77068
4.45366	5.27713
6.24429	7.77855
8.32954	10.5341
10.5535	13.0506
13.0893	16.5536
15.7523	19.3293
18.2766	22.3441
20.9454	25.364
23.464	28.1346
25.9826	30.9053
28.3624	33.9151
31.1699	36.6958
33.5326	38.9733
36.0569	41.988
38.5641	44.2705
41.2214	46.8021
43.7285	49.0846
46.2471	51.8553
49.0432	54.1478
51.556	56.6744
54.0517	58.4687
56.5703	61.2394
59.0717	63.2778
61.5846	65.8043
64.2247	67.6036
66.7319	69.8861
69.2333	71.9245
71.8791	73.9679
