Adsorption isotherm of Methane on MOF-L0
DOI: 10.1021/Jp503210h
Adsorbate Methane: InChIKey VNWKTOKETHGBQD-UHFFFAOYSA-N
Temperature: 298 K
Tabular data in the source: 0
pressure (bar)	uptake (wt%)
0.877903	2.0541
1.19937	2.53183
2.46873	3.81862
4.29865	6.83782
6.43765	9.86665
8.9681	12.1282
10.5713	14.3608
12.8875	16.3038
15.6074	17.9477
20.6023	19.9742
23.3181	21.462
25.9227	22.6346
28.3047	23.1765
30.6867	23.7185
33.2747	24.2669
35.768	25.1242
38.2489	25.5133
40.9441	26.221
43.3343	27.075
45.7122	27.461
48.1931	27.8501
50.9831	28.2489
53.3651	28.7909
55.9448	29.0272
58.3268	29.5692
60.9107	29.9616
63.2804	30.0355
65.9673	30.4311
68.3452	30.817
70.7148	30.8909
