Adsorption isotherm of Methane on MOF-L0
DOI: 10.1021/Jp503210h
Adsorbate Methane: InChIKey VNWKTOKETHGBQD-UHFFFAOYSA-N
Temperature: 273 K
Tabular data in the source: 0
pressure (bar)	uptake (wt%)
1.23181	3.68165
2.44258	6.39007
4.41601	11.065
6.6514	14.5313
8.72164	17.0205
10.9307	19.2703
13.2734	21.0376
15.755	22.5655
20.9749	24.1695
28.0945	27.0421
30.9979	28.0955
33.4585	28.6502
35.9243	29.4482
38.3796	29.7596
40.979	30.075
43.5784	30.3904
45.8948	30.9411
48.2112	31.4918
50.9495	31.5679
53.5542	32.1266
55.7212	32.4299
58.4647	32.7493
60.92	33.0607
63.2312	33.3681
65.6865	33.6795
68.4353	34.2422
70.7359	34.063
