Adsorption isotherm of Methane on MOF-L6
DOI: 10.1021/Jp503210h
Adsorbate Methane: InChIKey VNWKTOKETHGBQD-UHFFFAOYSA-N
Temperature: 298 K
Tabular data in the source: 0
pressure (bar)	uptake (cm3(STP)/cm3)
1.17072	6.10623
2.0062	8.38053
3.03856	9.59845
4.57913	10.342
5.94276	14.8502
8.22434	18.938
10.4115	24.0955
13.2212	30.4171
15.4003	34.4914
17.8988	40.231
20.3972	45.9706
22.9821	49.557
25.7919	55.8786
27.8726	60.4811
30.7688	64.6496
33.3617	69.3193
35.7537	74.5038
38.5434	78.1172
40.9434	84.385
43.3195	87.4028
45.9163	92.6142
48.4068	97.2705
50.9957	101.399
53.5846	105.527
56.0671	109.1
58.5615	114.298
61.048	118.412
63.5304	121.985
66.0129	125.558
68.5978	129.145
71.1867	133.273
