Adsorption isotherm of Methane on MOF-L6
DOI: 10.1021/Jp503210h
Adsorbate Methane: InChIKey VNWKTOKETHGBQD-UHFFFAOYSA-N
Temperature: 298 K
Tabular data in the source: 0
pressure (bar)	uptake (wt%)
1.56957	0.82845
2.2105	1.62794
2.63633	2.10893
4.34402	4.1889
6.15052	6.11605
8.37412	8.21211
10.2925	10.4546
12.7269	12.7131
15.5827	15.2966
17.9226	17.864
20.8728	20.1386
23.4147	22.5564
25.849	24.8149
28.0726	26.911
30.924	29.3384
33.4528	31.2881
35.7796	33.3873
38.6223	35.5027
41.1555	37.6084
43.5811	39.5549
46.1186	41.8166
48.7418	43.4574
51.1674	45.4039
53.9026	47.36
56.5302	49.1568
58.6549	51.4057
61.6953	53.2154
64.1209	55.1619
66.8517	56.962
68.8471	58.2714
71.7886	60.2339
