Adsorption isotherm of Methane on MOF-L4
DOI: 10.1021/Jp503210h
Adsorbate Methane: InChIKey VNWKTOKETHGBQD-UHFFFAOYSA-N
Temperature: 298 K
Tabular data in the source: 0
pressure (bar)	uptake (cm3(STP)/cm3)
1.27239	6.63652
2.62453	10.0431
4.51059	16.7554
6.59745	22.9525
8.38499	30.1925
10.3696	36.377
13.1874	44.8241
15.7894	51.6247
18.3989	59.5062
20.8001	66.822
23.2923	72.5291
25.6935	79.8449
28.288	85.5647
30.8938	92.9057
33.5943	99.1786
35.9805	104.333
38.681	110.605
41.0709	116.3
43.8662	121.505
46.2562	127.199
48.8431	131.838
51.3391	138.086
53.8163	141.631
56.4145	147.891
58.7932	151.965
61.4787	156.076
63.7589	160.677
66.2436	165.303
68.9253	168.874
71.4063	172.96
