Adsorption isotherm of Methane on MOF-L3
DOI: 10.1021/Jp503210h
Adsorbate Methane: InChIKey VNWKTOKETHGBQD-UHFFFAOYSA-N
Temperature: 298 K
Tabular data in the source: 0
pressure (bar)	uptake (cm3(STP)/cm3)
0.0300426	4.32336
1.27615	7.17694
2.12441	11.6013
4.20376	16.7175
6.49517	22.9399
8.58954	30.2178
10.6802	36.9553
13.3882	44.3089
15.4863	52.1273
18.0921	59.4683
20.2962	67.8397
23.1976	73.5974
25.8108	82.0192
28.3105	88.8072
30.9088	95.0674
33.5145	102.408
35.9007	107.563
38.6998	113.308
40.6806	118.952
43.6804	124.181
46.381	130.454
48.6686	136.136
51.1496	140.222
53.4372	145.904
56.1265	150.556
58.918	155.22
61.2019	160.361
63.5844	164.975
66.2623	168.005
68.9591	173.738
71.3303	176.73
