Adsorption isotherm of Benzene on Zn2(bdc)2(dabco)
DOI: 10.1134/S0036023612050233
Adsorbate Benzene: InChIKey UHOVQNZJYSORNB-UHFFFAOYSA-N
Temperature: 363 K
Tabular data in the source: 0
pressure (bar)	uptake (mol/formula unit)
0.000229	0.0150234
0.00380483	2.67509
0.035268	2.88103
0.0868961	2.94968
