Adsorption isotherm of Benzene on Zn2(bdc)2(dabco)
DOI: 10.1134/S0036023612050233
Adsorbate Benzene: InChIKey UHOVQNZJYSORNB-UHFFFAOYSA-N
Temperature: 323 K
Tabular data in the source: 0
pressure (bar)	uptake (mol/formula unit)
0.000229	0.0150234
0.00394785	3.27003
0.00809526	3.25859
0.0116706	3.28719
0.0172482	3.33296
0.035411	3.39016
0.0618686	3.48169
0.0868961	3.55606
