Adsorption isotherm of Benzene on Zn2(bdc)2(dabco)
DOI: 10.1134/S0036023612050233
Adsorbate Benzene: InChIKey UHOVQNZJYSORNB-UHFFFAOYSA-N
Temperature: 298 K
Tabular data in the source: 0
pressure (bar)	uptake (mol/formula unit)
0.000229	0.0150234
0.00394785	3.48169
0.0175342	3.52745
0.035411	3.5961
0.0617256	3.65331
0.0871822	3.7334
