Adsorption isotherm of Benzene on Zn2(bdc)2(dabco)
DOI: 10.1134/S0036023612050233
Adsorbate Benzene: InChIKey UHOVQNZJYSORNB-UHFFFAOYSA-N
Temperature: 348 K
Tabular data in the source: 0
pressure (bar)	uptake (mol/formula unit)
0.000229	0.0150234
0.00380483	3.03549
0.00823828	3.05837
0.0120997	3.04121
0.0179632	3.08125
0.035411	3.1785
0.0617256	3.28719
0.0873252	3.35012
