Adsorption isotherm of Carbon Dioxide on {[Ni(Hptz)2] 7H2O}n
DOI: 10.1039/C2ce26701b
Adsorbate Carbon Dioxide: InChIKey CURLTUGMZLYLDI-UHFFFAOYSA-N
Temperature: 298 K
Tabular data in the source: 0
pressure (bar)	uptake (cm3(STP)/g)
0.011943	2.85241
0.0219201	3.99485
0.0378516	7.41819
0.0737147	14.266
0.111589	20.5446
0.151469	26.5389
0.189384	30.8232
0.223292	35.3913
0.261212	39.3907
0.297144	42.8197
0.335075	46.2493
0.373006	49.6789
0.408949	52.5382
0.444898	55.1125
0.480852	57.402
0.516806	59.6914
0.554749	62.5512
0.588715	64.2703
0.630674	66.2765
0.66464	67.9956
0.696606	69.7141
0.736571	71.4349
0.776537	73.1557
0.810508	74.5899
0.84648	76.0246
0.880451	77.4588
0.920428	78.6098
0.956405	79.7597
0.992388	80.6246
1.02636	82.0588
