Adsorption isotherm of Nitrogen on {[Ni(Hptz)2] 7H2O}n
DOI: 10.1039/C2ce26701b
Adsorbate Nitrogen: InChIKey IJGRMHOSHXDMSA-UHFFFAOYSA-N
Temperature: 298 K
Tabular data in the source: 0
pressure (bar)	uptake (cm3(STP)/g)
0.00998285	0.857545
0.0319884	0.578914
0.0579769	1.15612
0.0699711	1.44444
0.085971	1.44899
0.115988	0.602846
0.133994	0.323075
0.205987	0.628486
0.241982	0.923641
0.257987	0.643301
0.307981	0.942445
0.343981	0.952701
0.383969	1.53389
0.421975	1.25982
0.467969	1.55783
0.507974	1.28432
0.551968	1.58176
0.589968	1.59258
0.627968	1.60341
0.687973	1.3356
0.705962	1.91053
0.749967	1.63817
0.809955	2.22506
0.851955	2.23702
0.863961	1.95554
0.913955	2.25469
0.977949	2.55782
0.999949	2.56409
1.03595	2.57434
