Adsorption isotherm of Carbon Dioxide on {[Ni(Hptz)2] 7H2O}n
DOI: 10.1039/C2ce26701b
Adsorbate Carbon Dioxide: InChIKey CURLTUGMZLYLDI-UHFFFAOYSA-N
Temperature: 273 K
Tabular data in the source: 0
pressure (bar)	uptake (cm3(STP)/g)
0.00788599	5.70025
0.00985749	7.12532
0.0158005	9.97601
0.0197207	13.9657
0.0355781	21.0928
0.0653899	30.503
0.103179	41.055
0.127053	47.3296
0.156951	52.4664
0.188854	57.3188
0.222757	62.1717
0.254682	65.8845
0.284625	68.7421
0.318574	71.3158
0.348522	73.8885
0.376494	75.3209
0.414436	78.1808
0.444408	79.6138
0.472385	80.7614
0.504356	82.195
0.538316	84.199
0.568287	85.632
0.598264	86.7801
0.63023	88.4986
0.658207	89.6462
0.690173	91.3647
0.72415	92.514
0.752115	94.2314
0.782098	95.0946
0.818069	96.5294
0.846052	97.392
0.876023	98.8251
0.912006	99.69
0.939989	100.553
0.971966	101.701
1.00794	102.851
1.02792	103.997
