Adsorption isotherm of Nitrogen on Fe2NiO(Piv)6(L)(H2O)
DOI: 10.1016/j.jssc.2014.07.025
Article source: Figure 7
Adsorbate Nitrogen: InChIKey IJGRMHOSHXDMSA-UHFFFAOYSA-N
Kind: experiment
Temperature: 77 K
Tabular data in the source: 0
pressure (bar)	uptake (cm3(STP)/g)
0	0
0.005004	31.726
0.015011	42.2934
0.032524	47.0845
0.047535	49.9549
0.06755	52.8205
0.085063	54.727
0.102576	56.6334
0.125093	58.5351
0.147609	60.4368
0.157617	71.0043
0.195145	72.8917
0.200148	61.3485
0.222665	72.8656
0.252687	63.2217
0.255189	73.7963
0.290215	75.6861
0.312732	64.1263
0.332746	76.6073
0.362769	65.0404
0.37778	77.5261
0.400297	80.3894
0.412805	66.916
0.455337	81.2987
0.477854	67.8158
0.520385	82.1985
0.530393	68.7274
0.587935	71.5575
0.590437	84.0551
0.632968	84.9763
0.63547	73.4354
0.678002	84.9335
0.695515	73.3784
0.720533	87.7778
0.74305	76.2179
0.765567	90.6197
0.805597	79.0432
0.8106	93.4615
0.853131	99.1904
0.90567	122.217
0.943198	112.566
0.948201	156.792
0.970719	197.156
0.978224	163.495
0.993235	240.404
1.00825	197.12
1.01575	283.651
1.01825	210.572
