Adsorption isotherm of Hydrogen on Fe2NiO(Piv)6(L)(H2O)
DOI: 10.1016/j.jssc.2014.07.025
Article source: Figure 8
Adsorbate Hydrogen: InChIKey UFHFLCQGNIYNRP-UHFFFAOYSA-N
Kind: experiment
Temperature: 77 K
Tabular data in the source: 0
pressure (bar)	uptake (cm3(STP)/g)
0.008183	2.00669
0.013639	3.34448
0.016367	4.8495
0.032734	7.19064
0.046373	9.19732
0.06274	10.9532
0.076379	12.291
0.092746	13.7124
0.111841	14.7993
0.122752	16.6388
0.12548	15.8027
0.130935	17.2241
0.144575	16.806
0.147303	17.893
0.166397	18.7291
0.188219	19.6488
0.212771	20.4849
0.223682	19.8161
0.245504	21.1538
0.280966	22.1572
0.294605	21.8227
0.316427	22.9097
0.362801	23.6622
0.370984	23.2441
0.411901	24.2475
0.447363	24.2475
0.471913	24.8328
0.518287	24.7492
0.540109	25.1672
0.58921	25
0.619216	25.3344
0.665589	25.1672
0.709234	25.4181
0.747424	25.1672
0.810164	25.4181
0.81562	25.1672
0.886543	25.1672
0.930187	25.5017
0.962922	25.1672
1.00111	25.4181
1.03112	25.3344
1.07749	25.3344
1.15933	25.4181
