Adsorption isotherm of Nitrogen on TPI-COF
DOI: 10.1002/anie.201912594
Article source: Figure S4
Adsorbate Nitrogen: InChIKey IJGRMHOSHXDMSA-UHFFFAOYSA-N
Kind: experiment
Temperature: 77 K
Tabular data in the source: 0
pressure (bar)	uptake ()
0.002029	96.2182
0.005071	100.036
0.006086	104.109
0.010143	107.164
0.012678	110.727
0.016735	112.764
0.022314	114.8
0.027385	116.327
0.031442	116.836
0.036514	118.873
0.043106	122.436
0.050206	123.455
0.05832	126.509
0.063899	129.055
0.067956	131.091
0.070998	132.109
0.075056	133.127
0.078098	133.636
0.084184	135.673
0.101426	137.455
0.117655	139.236
0.166339	143.055
0.233281	145.345
0.300222	146.873
0.366149	148.4
0.434612	149.927
0.500032	150.945
0.566974	152.473
0.627322	154.255
0.695278	156.291
0.760698	157.818
0.832711	161.382
0.898638	167.236
0.962537	182.764
0.974201	190.655
0.983836	201.855
0.994486	216.364
1.00311	253.782
0.001014	99.0182
0.004057	107.673
0.0071	111.236
0.011302	115.3
0.015411	117.657
0.018933	120.013
0.022455	121.781
0.025976	123.107
0.031259	123.991
0.037129	125.906
0.048868	128.557
0.055911	130.914
0.059727	132.093
0.06677	134.744
0.069705	135.775
0.071759	136.954
0.075868	138.721
0.084085	140.636
0.093477	141.815
0.10052	142.109
0.126346	144.172
0.178586	146.823
0.256064	149.327
0.332369	150.948
0.412782	152.715
0.491141	154.778
0.56862	156.84
0.639642	158.46
0.718587	160.817
0.803403	164.058
0.882349	169.803
0.963349	190.426
0.978023	205.157
0.983893	212.375
0.988295	221.213
