Adsorption isotherm of Methane on C17H27CoN3O7.50
DOI: 10.1002/zaac.200700580
Adsorbate Methane: InChIKey VNWKTOKETHGBQD-UHFFFAOYSA-N
Temperature: 298 K
Tabular data in the source: 0
pressure (bar)	uptake (cm3(STP)/g)
0.0379035	0
1.0559	9.92084
2.0739	19.8945
6.06471	51.2401
11.1635	82.5858
22.2247	121.055
36.4436	150.501
