Adsorption isotherm of Carbon Dioxide on ZIF-7
DOI: 10.1039/C0nj00836b
Adsorbate Carbon Dioxide: InChIKey CURLTUGMZLYLDI-UHFFFAOYSA-N
Temperature: 303 K
Tabular data in the source: 0
pressure (bar)	uptake (mmol/g)
0.0982905	0.133621
0.155905	0.21493
0.198232	0.301823
0.303032	0.642892
0.398396	1.68086
0.494715	2.01607
0.596464	2.10365
0.698244	2.16818
0.805117	2.23278
0.900129	2.27996
0.990119	2.27523
