Adsorption isotherm of Carbon Dioxide on ZIF-7
DOI: 10.1039/C0nj00836b
Adsorbate Carbon Dioxide: InChIKey CURLTUGMZLYLDI-UHFFFAOYSA-N
Temperature: 303 K
Tabular data in the source: 0
pressure (bar)	uptake (mmol/g)
0.88316	0.0331788
1.85312	0.0403338
2.87181	0.0801293
3.84215	0.139459
4.40823	0.178959
4.76434	0.244409
5.08799	0.290272
5.34706	0.349137
5.73663	0.564609
5.80343	0.85161
5.82168	1.13206
5.95527	1.70606
6.10207	1.88224
6.23241	2.01928
6.65445	2.25434
8.35407	2.56197
