Adsorption isotherm of Carbon Dioxide on ZIF-7
DOI: 10.1039/C0nj00836b
Adsorbate Carbon Dioxide: InChIKey CURLTUGMZLYLDI-UHFFFAOYSA-N
Temperature: 323 K
Tabular data in the source: 0
pressure (bar)	uptake (mmol/g)
0.0650049	0.0348297
0.283936	0.12784
0.489207	0.232359
0.670522	0.319488
0.838329	0.527824
0.94128	0.811031
1.00332	1.18073
1.05508	1.5273
1.18548	1.87987
1.34636	2.02467
1.56527	2.10614
