Adsorption isotherm of Carbon Dioxide on ZIF-8
DOI: 10.1039/C0nj00836b
Adsorbate Carbon Dioxide: InChIKey CURLTUGMZLYLDI-UHFFFAOYSA-N
Temperature: 303 K
Tabular data in the source: 0
pressure (bar)	uptake (mmol/g)
0.0279052	0.00763519
0.195365	0.117452
0.387377	0.223597
0.572695	0.337247
0.751312	0.439576
0.928818	0.553196
