Adsorption isotherm of Carbon Dioxide on ZIF-7
DOI: 10.1039/C0nj00836b
Adsorbate Carbon Dioxide: InChIKey CURLTUGMZLYLDI-UHFFFAOYSA-N
Temperature: 303 K
Tabular data in the source: 0
pressure (bar)	uptake (mmol/g)
0.0078226	0.0226198
0.0792765	0.0793647
0.138452	0.132298
0.212136	0.185287
0.269075	0.226917
0.403055	0.344138
0.461128	0.427188
0.513651	0.577988
0.613363	1.43303
0.649215	1.7419
0.689461	1.89266
0.737511	2.02461
0.793345	2.0926
0.846948	2.16433
0.954127	2.2438
