Adsorption isotherm of Carbon Dioxide on ZIF-7
DOI: 10.1039/C0nj00836b
Adsorbate Carbon Dioxide: InChIKey CURLTUGMZLYLDI-UHFFFAOYSA-N
Temperature: 273 K
Tabular data in the source: 0
pressure (bar)	uptake (mmol/g)
0.010367	0.0808613
0.103117	0.404455
0.18914	0.80886
0.237856	1.43256
0.286146	1.74448
0.354744	1.90634
0.484864	2.05683
0.676507	2.19595
1.01512	2.30663
1.41524	2.39439
1.76402	2.44158
