Adsorption isotherm of Carbon Dioxide on ZIF-7
DOI: 10.1039/C0nj00836b
Adsorbate Carbon Dioxide: InChIKey CURLTUGMZLYLDI-UHFFFAOYSA-N
Temperature: 303 K
Tabular data in the source: 0
pressure (bar)	uptake (mmol/g)
0.205413	0.208445
0.28069	0.254852
0.397064	0.35334
0.52045	0.57887
0.54131	0.832971
0.586149	1.12178
0.62078	1.44521
0.68295	1.90728
0.796071	2.12701
1.0048	2.26041
1.98624	2.43645
