Adsorption isotherm of Carbon Dioxide on ZIF-7
DOI: 10.1039/C0nj00836b
Adsorbate Carbon Dioxide: InChIKey CURLTUGMZLYLDI-UHFFFAOYSA-N
Temperature: 303 K
Tabular data in the source: 0
pressure (bar)	uptake (mmol/g)
0.010171	0.0116379
0.106834	0.0933967
0.203505	0.169395
0.298494	0.233854
0.405289	0.356052
0.500137	0.524195
0.602621	1.32031
0.695177	1.92621
0.803575	2.11755
0.900239	2.19931
0.990119	2.27523
