Adsorption isotherm of Carbon Dioxide on ZIF-7
DOI: 10.1039/C0nj00836b
Adsorbate Carbon Dioxide: InChIKey CURLTUGMZLYLDI-UHFFFAOYSA-N
Temperature: 308 K
Tabular data in the source: 0
pressure (bar)	uptake (mmol/g)
0.130065	0.110075
0.277185	0.191331
0.414048	0.272558
0.53388	0.399925
0.643725	0.723567
0.671478	1.0181
0.719704	1.28383
0.740588	1.55526
0.82313	1.91346
1.01494	2.17383
1.84597	2.36676
