Adsorption isotherm of Nitrogen on UMCM-1-NH2
DOI: 10.1021/Ic801837t
Adsorbate Nitrogen: InChIKey IJGRMHOSHXDMSA-UHFFFAOYSA-N
Temperature: 77 K
Tabular data in the source: 0
pressure (bar)	uptake (cm3(STP)/g)
0.00837989	612.5
0.0363129	885.294
0.0586592	926.471
0.0782123	967.647
0.100559	993.382
0.139665	1039.71
0.192737	1173.53
0.25419	1302.21
0.329609	1327.94
0.385475	1333.09
0.446927	1338.24
0.488827	1338.24
0.564246	1348.53
0.625698	1353.68
0.681564	1348.53
0.726257	1358.82
0.759776	1358.82
0.78771	1369.12
0.882682	1369.12
0.935754	1369.12
0.980447	1374.26
0.997206	1374.26
