Adsorption isotherm of Nitrogen on UMCM-1-AM5
DOI: 10.1021/Ic801837t
Adsorbate Nitrogen: InChIKey IJGRMHOSHXDMSA-UHFFFAOYSA-N
Temperature: 77 K
Tabular data in the source: 0
pressure (bar)	uptake (cm3(STP)/g)
2.32e-16	2.22e-16
0.0028303	133.824
0.0113213	519.853
0.0311334	700
0.0566062	751.471
0.0792486	782.353
0.0990608	802.941
0.144346	844.118
0.198122	1029.41
0.266049	1055.15
0.336806	1075.74
0.3736	1080.88
0.416055	1080.88
0.458509	1091.18
0.509456	1091.18
0.560401	1096.32
0.608516	1091.18
0.662292	1106.62
0.707577	1101.47
0.752862	1106.62
0.783995	1111.76
0.812298	1111.76
0.849092	1111.76
0.877395	1106.62
0.900037	1111.76
0.942492	1111.76
0.973626	1122.06
1.00759	1142.65
