Adsorption isotherm of Nitrogen on DMOF-1-AM5
DOI: 10.1021/Ic801837t
Adsorbate Nitrogen: InChIKey IJGRMHOSHXDMSA-UHFFFAOYSA-N
Temperature: 77 K
Tabular data in the source: 0
pressure (bar)	uptake (cm3(STP)/g)
0.00709217	196.109
0.0304306	203.113
0.0654042	208.366
0.0799738	210.117
0.0974549	211.868
0.141141	213.619
0.216855	215.37
0.251817	218.872
0.301314	218.872
0.32752	218.872
0.409045	218.872
0.455643	220.623
0.508064	222.374
0.563385	222.374
0.630341	220.623
0.735183	224.125
0.767223	225.875
0.796339	225.875
0.854571	225.875
0.912816	227.626
0.936098	225.875
0.959401	227.626
0.979783	227.626
1.00018	229.377
