Adsorption isotherm of Nitrogen on DMOF-1-NH2
DOI: 10.1021/Ic801837t
Adsorbate Nitrogen: InChIKey IJGRMHOSHXDMSA-UHFFFAOYSA-N
Temperature: 77 K
Tabular data in the source: 0
pressure (bar)	uptake (cm3(STP)/g)
0.00139351	215.37
0.0053701	379.961
0.00831573	385.214
0.0316768	395.72
0.0637501	402.724
0.0812313	404.475
0.101635	407.977
0.139487	407.977
0.200654	411.479
0.255997	414.981
0.308408	414.981
0.404514	418.482
0.459835	418.482
0.509355	421.984
0.555942	421.984
0.614197	425.486
0.855863	425.486
1.00144	425.486
