Adsorption isotherm of Carbon Dioxide on NH2-MIL-125
DOI: 10.1016/j.catcom.2015.02.017
Article source: Figure S2
Adsorbate Carbon Dioxide: InChIKey CURLTUGMZLYLDI-UHFFFAOYSA-N
Kind: experiment
Temperature: 77 K
Tabular data in the source: 0
pressure (bar)	uptake (cm3(STP)/g)
0	247.639
0.001684	322.791
0.003367	332.645
0.005051	341.267
0.008418	348.655
0.010101	353.581
0.023569	364.653
0.03367	370.8
0.043771	374.484
0.057239	376.932
0.080808	380.599
0.089226	384.284
0.109428	385.491
0.112795	387.951
0.132997	387.926
0.139731	391.614
0.1633	391.585
0.186869	391.556
0.210438	395.223
0.215488	392.753
0.237374	396.422
0.240741	395.186
0.262626	397.623
0.265993	396.387
0.289562	400.054
0.291246	397.588
0.314815	400.023
0.338384	402.458
0.363636	402.427
0.388889	403.628
0.417508	403.592
0.441077	406.027
0.464646	405.998
0.488215	412.13
0.515152	407.168
0.535354	413.303
0.565657	409.57
0.584175	415.707
0.617845	410.738
0.63468	418.109
0.666667	413.142
0.685185	419.279
0.715488	415.546
0.734007	421.683
0.767677	417.945
0.786195	422.851
0.816498	420.349
0.840067	426.48
0.86532	423.985
0.892256	431.344
0.909091	428.859
0.922559	436.235
0.947811	439.9
0.956229	454.674
0.96633	460.822
0.97138	481.76
0.976431	497.77
0.978114	471.896
0.979798	517.479
0.983165	485.442
0.984848	550.737
0.986532	565.52
0.988215	510.076
0.989899	565.516
0.991582	543.337
