Adsorption isotherm of Carbon Dioxide on PD@NH2-MIL-125
DOI: 10.1016/j.catcom.2015.02.017
Article source: Figure S2
Adsorbate Carbon Dioxide: InChIKey CURLTUGMZLYLDI-UHFFFAOYSA-N
Kind: experiment
Temperature: 77 K
Tabular data in the source: 0
pressure (bar)	uptake (cm3(STP)/g)
0.003367	259.955
0.010101	269.803
0.021885	279.644
0.031987	282.096
0.042087	287.012
0.058923	289.455
0.079125	293.126
0.087542	295.58
0.107744	296.787
0.111111	298.015
0.136364	300.448
0.159933	302.883
0.164983	300.413
0.183502	305.318
0.191919	304.076
0.208754	306.519
0.217172	306.509
0.234007	307.72
0.242424	308.942
0.259259	310.153
0.265993	310.145
0.287879	311.35
0.296296	311.339
0.316498	313.778
0.3367	313.754
0.36532	314.95
0.390572	318.615
0.415825	319.816
0.447811	321.009
0.46633	322.218
0.496633	328.341
0.513468	324.624
0.540404	333.215
0.563973	327.026
0.594276	336.845
0.612795	333.126
0.648148	342.939
0.661616	335.53
0.705387	349.028
0.708754	339.168
0.754209	358.824
0.755892	347.734
0.789562	368.637
0.801347	353.838
0.809764	372.308
0.843434	364.875
0.846801	383.351
0.868687	390.716
0.883838	377.145
0.902357	385.747
0.905724	402.991
0.925926	412.822
0.929293	399.266
0.946128	410.333
0.952862	427.573
0.961279	425.099
0.962963	437.417
0.96633	434.949
0.973064	448.493
0.983165	464.497
0.984848	458.335
0.986532	475.581
0.993266	486.661
