Adsorption isotherm of Nitrogen on PD@NH2-MIL-125 (4th cycle)
DOI: 10.1016/j.catcom.2015.02.017
Article source: Figure S2
Adsorbate Nitrogen: InChIKey IJGRMHOSHXDMSA-UHFFFAOYSA-N
Kind: experiment
Temperature: 77 K
Tabular data in the source: 0
pressure (bar)	uptake (cm3(STP)/g)
0	124.435
0.001684	235.316
0.010101	245.162
0.016835	250.082
0.028619	254.996
0.035354	256.219
0.043771	258.673
0.057239	261.12
0.077441	263.56
0.089226	266.009
0.107744	267.218
0.111111	268.446
0.136364	270.879
0.138047	268.413
0.159933	272.082
0.164983	270.844
0.181818	273.287
0.191919	274.507
0.207071	275.72
0.218855	274.474
0.23064	275.691
0.242424	275.677
0.257576	278.122
0.26936	275.643
0.286195	278.087
0.294613	275.612
0.319865	276.813
0.333333	279.261
0.367003	280.451
0.383838	280.431
0.420875	280.385
0.444444	282.82
0.469697	282.789
0.491582	288.922
0.520202	282.727
0.530303	292.57
0.570707	285.128
0.580808	293.74
0.619529	287.532
0.631313	296.142
0.671717	289.932
0.683502	297.31
0.717172	292.34
0.73569	300.942
0.771044	294.738
0.789562	304.571
0.814815	298.38
0.848485	308.195
0.861953	304.482
0.90404	316.751
0.905724	310.588
0.934343	325.338
0.942761	320.399
0.952862	329.011
0.959596	341.323
0.962963	352.407
0.964646	341.317
0.969697	349.935
0.974747	377.033
0.978114	391.813
0.983165	407.824
0.984848	385.645
0.988215	404.121
0.989899	423.832
0.993266	442.308
