Adsorption isotherm of Hydrogen on Zr-fum MOF (433 k)
DOI: 10.1016/j.ijhydene.2015.06.109
Article source: Figure 2b
Adsorbate Hydrogen: InChIKey UFHFLCQGNIYNRP-UHFFFAOYSA-N
Kind: experiment
Temperature: 77 K
Tabular data in the source: 0
pressure (bar)	uptake (wt%)
0.013774	0.167379
0.033058	0.326224
0.066116	0.471126
0.110193	0.602071
0.168044	0.714403
0.23416	0.826774
0.311295	0.91585
0.399449	0.995639
0.495868	1.0708
0.603306	1.13667
0.716253	1.19323
0.826446	1.24043
0.92562	1.28292
