Adsorption isotherm of Hydrogen on Zr-fum MOF (393 k)
DOI: 10.1016/j.ijhydene.2015.06.109
Article source: Figure 2b
Adsorbate Hydrogen: InChIKey UFHFLCQGNIYNRP-UHFFFAOYSA-N
Kind: experiment
Temperature: 77 K
Tabular data in the source: 0
pressure (bar)	uptake (wt%)
0.013774	0.148702
0.035813	0.30756
0.060606	0.438415
0.099174	0.559996
0.137741	0.672238
0.187328	0.775194
0.239669	0.864154
0.30303	0.943827
0.366391	1.01883
0.432507	1.08451
0.504132	1.14554
0.581267	1.20194
0.658402	1.25366
0.741047	1.30074
0.829201	1.34317
0.917355	1.38561
0.928375	1.38566
