Adsorption isotherm of Hydrogen on Zr-fum MOF (393 k)
DOI: 10.1016/j.ijhydene.2015.06.109
Article source: Figure 2a
Adsorbate Hydrogen: InChIKey UFHFLCQGNIYNRP-UHFFFAOYSA-N
Kind: experiment
Temperature: 77 K
Tabular data in the source: 0
pressure (bar)	uptake (cm3(STP)/g)
0	101.724
0.002793	124.138
0.03352	143.103
0.067039	146.552
0.139665	153.448
0.206704	155.172
0.27095	156.897
0.321229	158.621
0.374302	160.345
0.435754	163.793
0.494413	165.517
0.564246	167.241
0.622905	168.966
0.670391	170.69
0.740223	174.138
0.782123	177.586
0.807263	179.31
0.832402	182.759
0.865922	187.931
0.871508	189.655
0.899441	194.828
0.918994	205.172
0.930168	206.897
0.946927	218.966
0.958101	232.759
0.960894	275.862
0.97486	275.862
0.980447	343.103
0.99162	479.31
