Adsorption isotherm of Hydrogen on Zr-fum MOF (473 k)
DOI: 10.1016/j.ijhydene.2015.06.109
Article source: Figure 2a
Adsorbate Hydrogen: InChIKey UFHFLCQGNIYNRP-UHFFFAOYSA-N
Kind: experiment
Temperature: 77 K
Tabular data in the source: 0
pressure (bar)	uptake (cm3(STP)/g)
0.002793	181.034
0.00838	203.448
0.013966	208.621
0.022346	215.517
0.03352	220.69
0.069832	227.586
0.148045	232.759
0.206704	236.207
0.276536	241.379
0.321229	239.655
0.379888	241.379
0.438547	243.103
0.519553	246.552
0.578212	246.552
0.622905	248.276
0.670391	248.276
0.74581	250
0.751397	250
0.793296	250
0.810056	253.448
0.818436	253.448
0.871508	253.448
0.913408	256.897
0.932961	258.621
0.955307	260.345
0.972067	262.069
0.98324	263.793
0.988827	270.69
0.994413	274.138
