Adsorption isotherm of Hydrogen on Zr-fum MOF (433 k)
DOI: 10.1016/j.ijhydene.2015.06.109
Article source: Figure 2a
Adsorbate Hydrogen: InChIKey UFHFLCQGNIYNRP-UHFFFAOYSA-N
Kind: experiment
Temperature: 77 K
Tabular data in the source: 0
pressure (bar)	uptake (cm3(STP)/g)
0	0
0.002793	17.2414
0.00838	163.793
0.013966	167.241
0.022346	172.414
0.03352	177.586
0.067039	182.759
0.139665	189.655
0.206704	191.379
0.276536	193.103
0.321229	196.552
0.374302	198.276
0.438547	201.724
0.494413	201.724
0.564246	203.448
0.622905	205.172
0.667598	206.897
0.743017	210.345
0.75419	212.069
0.790503	215.517
0.807263	215.517
0.826816	217.241
0.871508	224.138
0.902235	229.31
0.918994	237.931
0.935754	241.379
0.946927	248.276
0.963687	282.759
0.977654	294.828
0.98324	313.793
0.988827	370.69
