Adsorption isotherm of Hydrogen on COF-105
DOI: 10.1021/Jp711326g
Adsorbate Hydrogen: InChIKey UFHFLCQGNIYNRP-UHFFFAOYSA-N
Temperature: 77 K
Tabular data in the source: 0
pressure (bar)	uptake (wt%)
0.897584	1.32343
1.88408	2.54244
7.34208	5.7825
7.87867	6.02642
8.41525	6.27034
8.95209	6.5839
9.39951	6.8626
10.3831	7.28077
11.009	7.52472
11.5455	7.73383
12.0822	8.01256
12.6188	8.25648
13.2446	8.50043
13.9597	8.7096
14.5853	8.88391
15.3007	9.19753
16.0157	9.40669
16.6416	9.65064
17.3565	9.82498
17.9824	10.0689
18.6974	10.2781
19.2339	10.4872
19.9488	10.6615
20.6641	10.9403
21.3787	11.045
22.0045	11.2542
22.7194	11.4285
23.4343	11.6029
24.1493	11.812
25.4006	12.1607
26.0263	12.3698
26.8304	12.5093
27.5453	12.6837
28.2602	12.858
28.9751	13.0324
29.7791	13.1371
30.4047	13.3114
31.1193	13.4161
31.8343	13.5905
32.5489	13.6952
33.1747	13.9043
33.8896	14.0787
34.6041	14.1485
35.6767	14.4623
36.3912	14.5322
37.106	14.6717
37.9099	14.7764
38.6247	14.916
39.4286	15.0207
40.5904	15.2996
41.3049	15.3695
42.1088	15.4743
43.0021	15.579
43.717	15.7534
44.5209	15.8581
46.1291	16.1372
46.9331	16.2768
47.7371	16.3815
48.5409	16.4514
49.4336	16.4169
50.863	16.6263
51.6669	16.7311
52.3816	16.8358
53.0963	16.9753
53.811	17.08
54.6148	17.1499
55.7764	17.3941
56.4911	17.4988
57.2949	17.5687
58.0987	17.6386
58.9027	17.7434
60.9572	18.0226
61.761	18.0925
62.565	18.1973
63.3688	18.2672
64.0835	18.3719
65.5127	18.5465
66.3164	18.5816
67.031	18.6863
67.9239	18.6866
68.7277	18.7565
69.4422	18.8264
70.6926	18.9313
71.4073	19.036
72.211	19.0711
73.104	19.1062
73.9078	19.1762
75.8727	19.3509
76.6766	19.4557
77.4804	19.5256
78.3737	19.6304
79.1775	19.7003
79.7133	19.7353
80.517	19.7704
80.9635	19.7705
81.7674	19.8753
82.6603	19.8756
83.5531	19.8759
84.3569	19.9458
85.8748	19.9463
86.5895	20.051
87.4823	20.0514
88.2863	20.1561
89.1791	20.1564
90.6078	20.1917
91.4118	20.2965
92.2156	20.3664
93.0193	20.4015
93.8231	20.4714
94.5378	20.5761
95.7878	20.5765
96.5024	20.6812
97.3953	20.6815
98.2883	20.7167
99.1811	20.717
