Adsorption isotherm of Hydrogen on COF-103
DOI: 10.1021/Jp711326g
Adsorbate Hydrogen: InChIKey UFHFLCQGNIYNRP-UHFFFAOYSA-N
Temperature: 300 K
Tabular data in the source: 0
pressure (bar)	uptake (wt%)
4.35412	0.0879091
5.17042	0.109866
6.80288	0.161081
10.0687	0.212414
14.6946	0.32954
19.7738	0.461297
24.9448	0.541967
30.0246	0.644527
35.1047	0.732489
40.275	0.849655
45.0824	0.959495
50.0723	1.01825
54.9707	1.1135
59.9596	1.22335
65.2213	1.30403
69.9383	1.39927
75.1999	1.48724
79.8265	1.56057
85.1785	1.66315
90.0774	1.7365
95.067	1.80986
99.9652	1.91971
