Adsorption isotherm of Hydrogen on IRMOF-14
DOI: 10.1021/Jp711326g
Adsorbate Hydrogen: InChIKey UFHFLCQGNIYNRP-UHFFFAOYSA-N
Temperature: 300 K
Tabular data in the source: 0
pressure (bar)	uptake (wt%)
6.62113	0.175666
10.1586	0.263515
14.7844	0.380641
19.9548	0.490508
25.0343	0.607667
30.114	0.717527
35.1027	0.841978
40.0915	0.959131
45.0804	1.06898
50.0696	1.16424
55.0584	1.28139
60.0477	1.36935
65.1272	1.4938
70.0257	1.58175
74.6521	1.66968
80.1856	1.77228
85.4467	1.88945
90.1637	1.97738
94.9716	2.06533
100.052	2.14599
