Adsorption isotherm of Hydrogen on COF-108
DOI: 10.1021/Jp711326g
Adsorbate Hydrogen: InChIKey UFHFLCQGNIYNRP-UHFFFAOYSA-N
Temperature: 77 K
Tabular data in the source: 0
pressure (bar)	uptake (wt%)
0.985875	1.04491
2.86697	2.75169
3.85086	3.2395
5.19338	4.14526
6.17826	4.91162
8.1454	5.71314
10.0235	6.58427
14.8524	8.67509
20.3939	10.2787
25.2198	11.5339
30.0453	12.6846
34.9595	13.6612
40.1409	14.4638
45.1437	15.2316
49.8772	15.6163
55.1478	16.3841
60.3274	16.6645
65.061	17.0839
70.3305	17.5384
75.0639	17.8883
79.9754	18.0989
84.9759	18.2399
90.2446	18.4855
95.067	18.7657
100.246	18.9764
