Adsorption isotherm of Hydrogen on COF-103
DOI: 10.1021/Jp711326g
Adsorbate Hydrogen: InChIKey UFHFLCQGNIYNRP-UHFFFAOYSA-N
Temperature: 77 K
Tabular data in the source: 0
pressure (bar)	uptake (wt%)
3.04703	3.16958
5.10446	4.24969
7.8768	5.50414
10.2001	6.02723
14.9359	7.03863
20.0271	7.5975
24.9395	8.05186
30.1193	8.40185
35.0309	8.64729
40.0319	8.92759
45.1217	9.06864
50.0328	9.1748
55.0334	9.35064
60.2118	9.31762
64.945	9.59782
70.2136	9.80857
75.1239	9.70582
80.1246	9.88166
85.303	9.84864
90.2142	9.98963
95.2144	10.0262
100.304	10.1672
