Adsorption isotherm of Hydrogen on COF-102
DOI: 10.1021/Jp711326g
Adsorbate Hydrogen: InChIKey UFHFLCQGNIYNRP-UHFFFAOYSA-N
Temperature: 300 K
Tabular data in the source: 0
pressure (bar)	uptake (wt%)
3.99075	0.10978
6.44004	0.153755
9.7051	0.248884
14.9659	0.380654
20.0459	0.468616
25.035	0.57117
29.9332	0.681017
35.1039	0.776285
40.0025	0.864234
45.0825	0.952196
49.9809	1.05474
55.0607	1.1573
60.2316	1.23797
65.2209	1.32593
70.0287	1.42117
75.1997	1.49454
80.0072	1.60438
84.8153	1.67772
89.9862	1.75839
94.976	1.82445
99.9657	1.89051
