Adsorption isotherm of Hydrogen on COF-108
DOI: 10.1021/Jp711326g
Adsorbate Hydrogen: InChIKey UFHFLCQGNIYNRP-UHFFFAOYSA-N
Temperature: 300 K
Tabular data in the source: 0
pressure (bar)	uptake (wt%)
2.53845	0.131572
3.80794	0.18276
4.8958	0.241233
6.61782	0.358147
10.1545	0.489792
15.1407	0.745631
20.0363	1.00146
25.2047	1.22082
30.1008	1.44745
35.0877	1.66679
39.6211	1.8788
44.9707	2.11277
50.2296	2.34673
55.1262	2.54417
59.9317	2.7635
64.9186	2.98284
69.8152	3.18028
74.8932	3.38503
80.0612	3.62628
85.2299	3.83104
90.036	4.01387
94.8423	4.1894
99.9201	4.40145
