Adsorption isotherm of Hydrogen on COF-108
DOI: 10.1021/Jp711326g
Adsorbate Hydrogen: InChIKey UFHFLCQGNIYNRP-UHFFFAOYSA-N
Temperature: 77 K
Tabular data in the source: 0
pressure (bar)	uptake (wt%)
1.43479	1.74145
3.76306	3.6573
6.5344	4.63319
9.84047	5.33072
15.1126	6.5164
20.383	7.24944
25.2068	7.91268
30.2977	8.3671
39.8529	8.82307
45.122	9.17309
49.8549	9.38365
55.3024	9.6641
60.2132	9.70063
65.1248	9.94607
70.3038	10.0523
74.9474	10.2629
80.0369	10.3343
85.3943	10.4058
90.1268	10.5119
95.3951	10.6182
100.217	10.6547
