Adsorption isotherm of Hydrogen on COF-102
DOI: 10.1021/Jp711326g
Adsorbate Hydrogen: InChIKey UFHFLCQGNIYNRP-UHFFFAOYSA-N
Temperature: 77 K
Tabular data in the source: 0
pressure (bar)	uptake (wt%)
0.719136	1.35819
1.25684	1.91548
2.06315	2.68178
3.13744	3.48299
4.03278	4.17968
5.2849	4.77204
6.26879	5.25984
9.8437	6.23602
14.9361	7.10826
19.8489	7.7019
24.9395	8.05186
29.7621	8.40173
35.0309	8.64729
39.9421	8.78828
45.3893	8.99909
49.8537	9.03546
54.9435	9.17651
60.1228	9.38723
64.9442	9.38891
69.8553	9.49507
74.856	9.67091
79.9454	9.7075
85.0348	9.74409
89.9458	9.81544
95.1245	9.85206
100.125	10.0279
