Adsorption isotherm of Nitrogen on CuBTC
DOI: 10.1002/adem.200500223
Adsorbate Nitrogen: InChIKey IJGRMHOSHXDMSA-UHFFFAOYSA-N
Temperature: 77 K
Tabular data in the source: 0
pressure (bar)	uptake (% Volume Adsorbed)
3.18e-07	1.27968
6.9e-07	1.06119
1.02e-06	3.02758
1.35e-06	16.1368
1.85e-06	23.5654
3.87e-06	33.8343
1.08e-05	41.0444
2.99e-05	47.162
5.63e-05	55.683
8.9e-05	68.1368
0.000122	71.8511
0.000222	76.4393
0.000518	81.4645
0.0017752	84.0864
0.00896965	86.7082
0.0181409	86.9267
0.130355	93.4814
0.237208	95.2293
0.904284	99.599
