Adsorption isotherm of Hydrogen on CuBTC
DOI: 10.1002/adem.200500223
Adsorbate Hydrogen: InChIKey UFHFLCQGNIYNRP-UHFFFAOYSA-N
Temperature: 77 K
Tabular data in the source: 0
pressure (bar)	uptake (cm3(STP)/g)
0.0171192	20.6782
0.0586318	69.2916
0.102329	102.611
0.211573	143.577
0.303338	168.157
0.412581	188.367
0.499976	199.838
0.60485	212.947
0.705355	223.325
0.801489	230.972
0.901993	237.527
0.998128	242.443
