Adsorption isotherm of Hydrogen on CuBTC
DOI: 10.1002/adem.200500223
Adsorbate Hydrogen: InChIKey UFHFLCQGNIYNRP-UHFFFAOYSA-N
Temperature: 87 K
Tabular data in the source: 0
pressure (bar)	uptake (cm3(STP)/g)
0.0149343	7.56894
0.0608167	29.4177
0.106699	48.5353
0.202833	78.0311
0.307707	100.426
0.403842	116.813
0.506531	130.468
0.60485	141.392
0.700985	152.317
0.801489	160.51
0.906363	167.065
1.0025	172.527
