Adsorption isotherm of Nitrogen on [Ni(H2diol)(DMF)2]
DOI: 10.1039/C3dt00096f
Adsorbate Nitrogen: InChIKey IJGRMHOSHXDMSA-UHFFFAOYSA-N
Temperature: 77 K
Tabular data in the source: 0
pressure (bar)	uptake (cm3(STP)/g)
0.00229475	49.9088
0.00372489	4.9165
0.00372489	99.6206
0.00372489	149.962
0.00372489	160.03
0.0180263	172.3
0.0566402	188.661
0.102405	194.954
0.199654	198.1
0.329798	199.988
0.461371	200.617
0.620117	200.617
0.75884	199.988
0.913296	199.359
0.984803	199.359
