Adsorption isotherm of Nitrogen on [Ni(H2diol)]
DOI: 10.1039/C3dt00096f
Adsorbate Nitrogen: InChIKey IJGRMHOSHXDMSA-UHFFFAOYSA-N
Temperature: 77 K
Tabular data in the source: 0
pressure (bar)	uptake (cm3(STP)/g)
0.00801532	0.826288
0.075232	5.54576
0.141019	9.63597
0.208235	13.7262
0.274022	16.5579
0.342669	19.3895
0.414176	21.9066
0.477102	23.1651
0.547179	24.7383
0.65015	26.3114
0.743109	27.2553
0.847509	27.57
0.913296	27.2553
0.986233	27.2553
