Adsorption isotherm of Nitrogen on [Ni(H2diol)-(DEF)2]
DOI: 10.1039/C3dt00096f
Adsorbate Nitrogen: InChIKey IJGRMHOSHXDMSA-UHFFFAOYSA-N
Temperature: 77 K
Tabular data in the source: 0
pressure (bar)	uptake (cm3(STP)/g)
0.00229475	49.9088
0.00372489	4.9165
0.00372489	99.6206
0.00372489	149.962
0.00372489	160.03
0.0323278	171.357
0.085243	176.391
0.208235	179.852
0.319786	180.481
0.45422	180.166
0.595804	180.166
0.723087	179.852
0.836068	180.795
0.95334	182.683
0.986233	185.2
