Adsorption isotherm of Methane on 20PEI@UiO-66
DOI: 10.1021/acs.iecr.5b03517
Article source: Figure 4
Adsorbate Methane: InChIKey VNWKTOKETHGBQD-UHFFFAOYSA-N
Kind: experiment
Temperature: 298 K
Tabular data in the source: 0
pressure (bar)	uptake (mmol/g)
0.003698	0.00381
0.056864	0.02936
0.115571	0.06084
0.228295	0.11504
0.339348	0.16879
0.450521	0.2199
0.561563	0.26973
0.673426	0.31788
0.783556	0.36486
0.896483	0.41133
1.00744	0.46035
