Adsorption isotherm of Nitrogen on 10PEI@UiO-66
DOI: 10.1021/acs.iecr.5b03517
Article source: Figure 1
Adsorbate Nitrogen: InChIKey IJGRMHOSHXDMSA-UHFFFAOYSA-N
Kind: experiment
Temperature: 77 K
Tabular data in the source: 0
pressure (bar)	uptake (cm3(STP)/g)
0.003323	8.449
0.003536	19.016
0.004104	27.83
0.004549	44.759
0.005796	62.214
0.005907	54.625
0.011693	80.251
0.029739	91.688
0.06731	100.784
0.080827	103.174
0.102622	104.919
0.123282	106.373
0.143496	107.944
0.145199	109.928
0.163356	108.872
0.184412	109.761
0.203876	111.84
0.254255	113.541
0.306072	115.138
0.356259	116.015
0.405107	116.835
0.457553	118.211
0.50702	118.985
0.557754	119.944
0.608224	121.181
0.658775	122.094
0.710005	122.693
0.762045	124.244
0.811431	125.342
0.831797	125.8
0.837735	126.262
0.863877	127.088
0.867656	127.551
0.886766	127.453
0.893605	128.934
0.912715	129.299
0.919383	129.76
0.937043	130.868
0.946953	132.162
0.96354	133.084
0.972183	135.862
0.991293	140.583
1.00426	146.51
1.00985	151.049
