Adsorption isotherm of Methane on 30PEI@UiO-66
DOI: 10.1021/acs.iecr.5b03517
Article source: Figure 4
Adsorbate Methane: InChIKey VNWKTOKETHGBQD-UHFFFAOYSA-N
Kind: experiment
Temperature: 298 K
Tabular data in the source: 0
pressure (bar)	uptake (mmol/g)
0.006009	0.003
0.013456	0.00718
0.028118	0.01202
0.049852	0.0217
0.126443	0.05175
0.181007	0.07381
0.237921	0.09646
0.344069	0.13487
0.450602	0.17387
0.562435	0.21066
0.673862	0.24355
0.786738	0.27468
0.89623	0.30547
1.00936	0.33562
