Adsorption isotherm of Carbon Dioxide on 10PEI@UiO-66
DOI: 10.1021/acs.iecr.5b03517
Article source: Figure 4
Adsorbate Carbon Dioxide: InChIKey CURLTUGMZLYLDI-UHFFFAOYSA-N
Kind: experiment
Temperature: 298 K
Tabular data in the source: 0
pressure (bar)	uptake (mmol/g)
0.056772	0.66637
0.112248	0.86475
0.226715	1.14233
0.340766	1.3785
0.450167	1.58425
0.562445	1.77662
0.674429	1.96644
0.785117	2.13789
0.8978	2.29988
1.00777	2.45793
