Adsorption isotherm of Carbon Dioxide on 30PEI@UiO-66
DOI: 10.1021/acs.iecr.5b03517
Article source: Figure 4
Adsorbate Carbon Dioxide: InChIKey CURLTUGMZLYLDI-UHFFFAOYSA-N
Kind: experiment
Temperature: 298 K
Tabular data in the source: 0
pressure (bar)	uptake (mmol/g)
0.062801	1.0141
0.11315	1.23729
0.225914	1.67833
0.357515	2.10466
0.451828	2.34809
0.561685	2.60226
0.673416	2.82877
0.786079	3.01429
0.896787	3.18484
1.00942	3.31589
