Adsorption isotherm of Nitrogen on 30PEI@UiO-66
DOI: 10.1021/acs.iecr.5b03517
Article source: Figure 1
Adsorbate Nitrogen: InChIKey IJGRMHOSHXDMSA-UHFFFAOYSA-N
Kind: experiment
Temperature: 77 K
Tabular data in the source: 0
pressure (bar)	uptake (cm3(STP)/g)
0.019556	1.484
0.033964	2.504
0.061089	3.571
0.080908	3.758
0.101092	4.037
0.121458	4.733
0.142088	5.336
0.162627	6.171
0.187948	6.729
0.205335	7.378
0.25309	8.632
0.305079	9.561
0.355539	11.51
0.377071	15.357
0.405989	11.697
0.421218	18.974
0.454017	17.122
0.492581	21.758
0.511681	16.383
0.565829	23.801
0.575648	16.988
0.609257	18.38
0.657326	18.66
0.657549	18.678
0.706823	28.841
0.708181	28.782
0.741162	30.158
0.759816	21.353
0.808877	32.407
0.810012	32.373
0.820682	33.05
0.83124	23.124
0.859732	25.111
0.860422	25.895
0.883341	28.206
0.891751	36.907
0.914904	28.675
0.921146	38.66
0.947368	40.238
0.955201	30.545
0.963824	31.13
0.982569	44.152
0.987331	33.408
0.992772	33.7
1.00232	36.737
1.00834	40.766
