Adsorption isotherm of Methane on 10PEI@UiO-66
DOI: 10.1021/acs.iecr.5b03517
Article source: Figure 4
Adsorbate Methane: InChIKey VNWKTOKETHGBQD-UHFFFAOYSA-N
Kind: experiment
Temperature: 298 K
Tabular data in the source: 0
pressure (bar)	uptake (mmol/g)
0.002047	0.00132
0.058029	0.03555
0.116291	0.07125
0.227789	0.13612
0.339814	0.19755
0.450177	0.25715
0.562587	0.31382
0.673781	0.36909
0.784894	0.42401
0.89627	0.47503
1.00782	0.53412
