Adsorption isotherm of Carbon Dioxide on 40PEI@UiO-66
DOI: 10.1021/acs.iecr.5b03517
Article source: Figure 4
Adsorbate Carbon Dioxide: InChIKey CURLTUGMZLYLDI-UHFFFAOYSA-N
Kind: experiment
Temperature: 298 K
Tabular data in the source: 0
pressure (bar)	uptake (mmol/g)
0.052719	1.25229
0.115693	1.39517
0.23091	1.55604
0.343542	1.6891
0.452386	1.78595
0.561462	1.86608
0.674206	1.92802
0.7838	1.99545
0.897334	2.04573
1.0077	2.10056
