Adsorption isotherm of Nitrogen on 20PEI@UiO-66
DOI: 10.1021/acs.iecr.5b03517
Article source: Figure 1
Adsorbate Nitrogen: InChIKey IJGRMHOSHXDMSA-UHFFFAOYSA-N
Kind: experiment
Temperature: 77 K
Tabular data in the source: 0
pressure (bar)	uptake (cm3(STP)/g)
0.00079	10.52
0.001945	29.127
0.00229	30.124
0.01147	37.123
0.033802	41.111
0.069215	43.803
0.081911	44.546
0.102369	45.382
0.122816	46.219
0.14227	54.424
0.143365	47.148
0.162647	47.798
0.182912	48.31
0.203086	48.822
0.203096	48.822
0.253819	55.223
0.25464	50.079
0.304471	55.922
0.305161	55.936
0.355104	52.026
0.355904	52.015
0.406404	57.245
0.456824	57.516
0.457097	57.516
0.506919	54.748
0.507466	54.74
0.558544	58.453
0.560084	55.024
0.608467	59.663
0.610078	59.66
0.658562	57.481
0.659859	57.492
0.710055	61.691
0.710197	58.16
0.758904	62.042
0.760606	62.029
0.810458	63.173
0.812323	63.252
0.817318	63.909
0.830916	61.557
0.859945	63.84
0.862377	63.852
0.867808	64.65
0.88784	62.813
0.893838	65.242
0.912584	64.14
0.919869	66.127
0.938898	65.909
0.945048	67.601
0.963064	68.339
0.971504	70.767
0.987513	71.946
0.99109	75.772
1.00352	81.291
1.00766	86.22
