Adsorption isotherm of Carbon Dioxide on UiO-66
DOI: 10.1021/acs.iecr.5b03517
Article source: Figure 4
Adsorbate Carbon Dioxide: InChIKey CURLTUGMZLYLDI-UHFFFAOYSA-N
Kind: experiment
Temperature: 298 K
Tabular data in the source: 0
pressure (bar)	uptake (mmol/g)
0.057684	0.17418
0.131287	0.37334
0.227049	0.61845
0.343411	0.88239
0.453814	1.11806
0.56513	1.32838
0.674916	1.53126
0.7861	1.71834
0.897425	1.90015
1.0083	2.09284
