Adsorption isotherm of Methane on UiO-66
DOI: 10.1021/acs.iecr.5b03517
Article source: Figure 4
Adsorbate Methane: InChIKey VNWKTOKETHGBQD-UHFFFAOYSA-N
Kind: experiment
Temperature: 298 K
Tabular data in the source: 0
pressure (bar)	uptake (mmol/g)
0.001672	0.00117
0.056955	0.03922
0.115581	0.08181
0.226674	0.16134
0.339672	0.24227
0.450613	0.32195
0.561705	0.40031
0.673872	0.47948
0.784894	0.55718
0.896665	0.63547
1.00777	0.71207
