Adsorption isotherm of Carbon Dioxide on 20PEI@UiO-66
DOI: 10.1021/acs.iecr.5b03517
Article source: Figure 4
Adsorbate Carbon Dioxide: InChIKey CURLTUGMZLYLDI-UHFFFAOYSA-N
Kind: experiment
Temperature: 298 K
Tabular data in the source: 0
pressure (bar)	uptake (mmol/g)
0.053216	0.73008
0.110647	0.97315
0.226259	1.31378
0.340969	1.54157
0.447735	1.78347
0.563894	2.0122
0.672555	2.20893
0.784306	2.394
0.896615	2.56991
1.00727	2.73349
