Adsorption isotherm of Methane on 40PEI@UiO-66
DOI: 10.1021/acs.iecr.5b03517
Article source: Figure 4
Adsorbate Methane: InChIKey VNWKTOKETHGBQD-UHFFFAOYSA-N
Kind: experiment
Temperature: 298 K
Tabular data in the source: 0
pressure (bar)	uptake (mmol/g)
0.058292	0.01084
0.145655	0.03997
0.202295	0.05976
0.259047	0.08052
0.362348	0.11756
0.449498	0.14581
0.562151	0.17901
0.672555	0.2169
0.785046	0.25416
0.896088	0.28842
1.00782	0.32224
