Adsorption isotherm of Nitrogen on UiO-66
DOI: 10.1021/acs.iecr.5b03517
Article source: Figure 1
Adsorbate Nitrogen: InChIKey IJGRMHOSHXDMSA-UHFFFAOYSA-N
Kind: experiment
Temperature: 77 K
Tabular data in the source: 0
pressure (bar)	uptake (cm3(STP)/g)
0.003962	8.297
0.004053	19.839
0.004134	28.959
0.004134	29.242
0.004134	29.528
0.004661	93.683
0.004935	83.323
0.004935	82.697
0.005208	54.934
0.005208	59.99
0.005208	62.486
0.005279	153.25
0.005289	141.012
0.005472	129.099
0.005907	165.58
0.006444	189.036
0.006535	177.447
0.007974	197.75
0.010497	210.034
0.014186	221.251
0.031036	253.929
0.06041	295.458
0.088163	311.074
0.103301	315.475
0.139352	321.495
0.143223	322.282
0.169902	324.92
0.202701	327.927
0.21334	328.666
0.253079	330.977
0.254792	331.116
0.304634	333.1
0.332569	333.466
0.355276	334.574
0.404489	335.863
0.455851	337.383
0.481	337.842
0.507314	338.579
0.556973	339.265
0.608072	340.322
0.633129	340.642
0.658268	341.611
0.708829	342.529
0.743523	343.357
0.768672	343.63
0.809941	345.106
0.828605	345.381
0.837431	345.982
0.846358	346.537
0.871142	347.135
0.896736	349.494
0.910527	348.379
0.923496	352.039
0.947379	351.803
0.952333	357.364
0.97352	356.294
0.976033	363.062
0.988831	362.132
0.989378	362.464
1.00514	373.579
