Adsorption isotherm of Carbon Dioxide on ETS-10
DOI: 10.1016/j.fluid.2006.06.014
Adsorbate Carbon Dioxide: InChIKey CURLTUGMZLYLDI-UHFFFAOYSA-N
Temperature: 298 K
Tabular data in the source: 0
pressure (bar)	uptake (molecules/unitcell)
0.000416	3.69772
0.0214918	5.76814
0.17127	13.1625
1.05296	23.4653
8.39115	25.3879
70.4312	23.7611
204.05	23.0217
2338.26	21.5428
