Adsorption isotherm of Hydrogen on ETS-10
DOI: 10.1016/j.fluid.2006.06.014
Adsorbate Hydrogen: InChIKey UFHFLCQGNIYNRP-UHFFFAOYSA-N
Temperature: 298 K
Tabular data in the source: 0
pressure (bar)	uptake (molecules/unitcell)
0.0786417	0.0991251
0.595012	2.61321
4.62026	3.59913
35.8763	7.54279
257.719	19.1766
1130.83	32.8315
