Adsorption isotherm of Hydrogen on Silicalite MFI
DOI: 10.1016/j.fluid.2006.06.014
Adsorbate Hydrogen: InChIKey UFHFLCQGNIYNRP-UHFFFAOYSA-N
Temperature: 298 K
Tabular data in the source: 0
pressure (bar)	uptake (molecules/unitcell)
4.38694	0.0569478
33.8443	4.45131
246.296	14.0288
999.789	25.1837
2697.08	36.0006
