Adsorption isotherm of Hydrogen on Silicalite MFI
DOI: 10.1016/j.fluid.2006.06.014
Adsorbate Hydrogen: InChIKey UFHFLCQGNIYNRP-UHFFFAOYSA-N
Temperature: 298 K
Tabular data in the source: 0
pressure (bar)	uptake (molecules/unitcell)
4.50225	0.0427109
35.4164	4.31032
252.77	14.1554
1175.79	25.1836
