Adsorption isotherm of Hydrogen on Silicalite MFI
DOI: 10.1016/j.fluid.2006.06.014
Adsorbate Hydrogen: InChIKey UFHFLCQGNIYNRP-UHFFFAOYSA-N
Temperature: 298 K
Tabular data in the source: 0
pressure (bar)	uptake (molecules/unitcell)
515.923	0.169624
961.628	1.69075
1937.46	3.38089
