Adsorption isotherm of Hydrogen on ETS-10
DOI: 10.1016/j.fluid.2006.06.014
Adsorbate Hydrogen: InChIKey UFHFLCQGNIYNRP-UHFFFAOYSA-N
Temperature: 298 K
Tabular data in the source: 0
pressure (bar)	uptake (molecules/unitcell)
4.62026	0.0487622
8.39115	2.21884
61.8625	3.45124
193.732	3.54983
2278.37	7.69067
