Adsorption isotherm of Carbon Dioxide on Silicalite MFI
DOI: 10.1016/j.fluid.2006.06.014
Adsorbate Carbon Dioxide: InChIKey CURLTUGMZLYLDI-UHFFFAOYSA-N
Temperature: 298 K
Tabular data in the source: 0
pressure (bar)	uptake (molecules/unitcell)
0.00361123	0.169624
0.0212163	6.08512
0.176928	13.6344
1.1236	17.071
8.17682	18.6485
943.097	18.4231
2053.93	17.9161
