Adsorption isotherm of Carbon Dioxide on ETS-10
DOI: 10.1016/j.fluid.2006.06.014
Adsorbate Carbon Dioxide: InChIKey CURLTUGMZLYLDI-UHFFFAOYSA-N
Temperature: 298 K
Tabular data in the source: 0
pressure (bar)	uptake (molecules/unitcell)
0.00477256	0.0498294
0.0370589	3.9442
0.246279	7.09912
1.96262	13.2611
9.07036	14.7893
76.1322	17.8456
214.918	19.6695
2527.52	16.1203
