Adsorption isotherm of Hydrogen on ETS-10
DOI: 10.1016/j.fluid.2006.06.014
Adsorbate Hydrogen: InChIKey UFHFLCQGNIYNRP-UHFFFAOYSA-N
Temperature: 298 K
Tabular data in the source: 0
pressure (bar)	uptake (molecules/unitcell)
4.38664	0.000534
8.83806	1.62729
68.6274	2.61321
204.05	3.64842
2338.26	11.9301
