Adsorption isotherm of Hydrogen on Silicalite MFI
DOI: 10.1016/j.fluid.2006.06.014
Adsorbate Hydrogen: InChIKey UFHFLCQGNIYNRP-UHFFFAOYSA-N
Temperature: 298 K
Tabular data in the source: 0
pressure (bar)	uptake (molecules/unitcell)
247.899	0.169471
1130.91	1.09905
2107.91	3.25398
