Adsorption isotherm of Hydrogen on ETS-10
DOI: 10.1016/j.fluid.2006.06.014
Adsorbate Hydrogen: InChIKey UFHFLCQGNIYNRP-UHFFFAOYSA-N
Temperature: 298 K
Tabular data in the source: 0
pressure (bar)	uptake (molecules/unitcell)
0.0766276	0.0991251
0.579773	2.21884
4.62026	3.59913
34.9575	7.3456
278.579	19.2259
1160.56	32.6836
