Adsorption isotherm of Carbon Dioxide on ETS-10
DOI: 10.1016/j.fluid.2006.06.014
Adsorbate Carbon Dioxide: InChIKey CURLTUGMZLYLDI-UHFFFAOYSA-N
Temperature: 298 K
Tabular data in the source: 0
pressure (bar)	uptake (molecules/unitcell)
0.004898	0.197717
0.0342838	4.04279
0.239972	7.04983
1.86338	13.3104
14.8494	19.8174
127.915	23.8597
807.087	25.0921
2001.18	25.4864
