Adsorption isotherm of Methane on Silicalite MFI
DOI: 10.1016/j.fluid.2006.06.014
Adsorbate Methane: InChIKey VNWKTOKETHGBQD-UHFFFAOYSA-N
Temperature: 298 K
Tabular data in the source: 0
pressure (bar)	uptake (molecules/unitcell)
0.0354164	0.0417962
0.257737	6.76102
1.98838	12.8455
15.0443	15.592
133	17.2399
796.741	18.2962
1153.14	16.2681
2323.3	16.099
