Adsorption isotherm of Methane on Silicalite MFI
DOI: 10.1016/j.fluid.2006.06.014
Adsorbate Methane: InChIKey VNWKTOKETHGBQD-UHFFFAOYSA-N
Temperature: 298 K
Tabular data in the source: 0
pressure (bar)	uptake (molecules/unitcell)
0.0347339	0.127218
0.257737	6.88778
1.95007	13.0145
14.4701	15.761
130.437	17.2821
781.387	18.4652
3050.81	18.2962
