Adsorption isotherm of Carbon Dioxide on Silicalite MFI
DOI: 10.1016/j.fluid.2006.06.014
Adsorbate Carbon Dioxide: InChIKey CURLTUGMZLYLDI-UHFFFAOYSA-N
Temperature: 298 K
Tabular data in the source: 0
pressure (bar)	uptake (molecules/unitcell)
0.00347339	0.0569478
0.0204065	6.02878
0.176928	13.8598
1.1236	17.1837
9.01235	18.8738
1039.47	19.1555
