Adsorption isotherm of Carbon Dioxide on ETS-10
DOI: 10.1016/j.fluid.2006.06.014
Adsorbate Carbon Dioxide: InChIKey CURLTUGMZLYLDI-UHFFFAOYSA-N
Temperature: 298 K
Tabular data in the source: 0
pressure (bar)	uptake (molecules/unitcell)
0.000427	3.69772
0.0220567	5.76814
0.175772	13.2118
1.026	23.416
8.17625	25.585
1222.37	26.7188
3928.66	28.0005
