Adsorption isotherm of Ethane on NOTT-300
DOI: 10.1038/nchem.2114
Article source: Figure 1
Adsorbate Ethane: InChIKey OTMSDBZUPAUEDD-UHFFFAOYSA-N
Kind: experiment
Temperature: 293 K
Tabular data in the source: 0
pressure (bar)	uptake (wt%)
0.00156	0.0201
0.00772	0.0428
0.0141	0.0798
0.02971	0.1333
0.05028	0.2219
0.08107	0.366
0.098	0.4236
0.12527	0.5575
0.15013	0.6563
0.17366	0.7386
0.19939	0.8251
0.23238	0.9281
0.26603	1.0351
0.29924	1.1381
0.37965	1.321
0.42107	1.4326
0.45945	1.5346
0.50092	1.6282
0.55063	1.7477
0.60143	1.8671
0.65016	1.9759
0.69982	2.0495
0.74966	2.1541
0.79845	2.2604
0.85082	2.3683
0.89848	2.45
0.94997	2.5481
0.99937	2.607
