Adsorption isotherm of Acetylene on NOTT-300
DOI: 10.1038/nchem.2114
Article source: Figure 1
Adsorbate Acetylene: InChIKey HSFWRNGVRCDJHI-UHFFFAOYSA-N
Kind: experiment
Temperature: 293 K
Tabular data in the source: 0
pressure (bar)	uptake (mmol/g)
0.00061	0.0831
0.01109	0.3178
0.01772	0.2556
0.01982	0.5353
0.03256	0.512
0.0399	0.9144
0.05037	0.8414
0.0598	1.2392
0.07744	1.5297
0.08006	1.3511
0.09891	1.595
0.09926	1.8592
0.12562	1.971
0.14971	2.6776
0.15102	2.3633
0.17511	2.7186
0.19903	3.3534
0.19918	3.3547
0.23271	3.4632
0.25003	3.9072
0.26782	3.8463
0.30005	4.1174
0.31985	4.4923
0.33982	4.4548
0.3755	4.8682
0.38001	4.7138
0.41894	5.0061
0.42488	5.1197
0.45996	5.1812
0.47497	5.3265
0.50151	5.3273
0.52359	5.4936
0.54933	5.4994
0.57518	5.6466
0.60115	5.6523
0.64981	5.8238
0.69947	5.8525
0.74809	6.0001
0.79863	6.0327
0.84585	6.1392
0.89946	6.169
0.94962	6.2529
0.95003	6.2536
1.00047	6.2924
1.0394	6.3269
