Adsorption isotherm of Ethane on NOTT-300
DOI: 10.1038/nchem.2114
Article source: Figure 1
Adsorbate Ethane: InChIKey OTMSDBZUPAUEDD-UHFFFAOYSA-N
Kind: experiment
Temperature: 293 K
Tabular data in the source: 0
pressure (bar)	uptake (ml/g)
0.00087	0.0086
0.00751	0.0311
0.01397	0.0358
0.03152	0.0529
0.05011	0.0855
0.08111	0.1268
0.10049	0.1571
0.12686	0.189
0.15165	0.2229
0.17632	0.25
0.20043	0.2821
0.23342	0.3179
0.26668	0.3488
0.30022	0.3821
0.34013	0.4093
0.37921	0.4464
0.42176	0.4822
0.46029	0.5168
0.50103	0.5464
0.55079	0.5773
0.60248	0.6032
0.64933	0.6366
0.7006	0.6736
0.75105	0.686
0.79983	0.7231
0.85007	0.7425
0.89924	0.7739
0.94962	0.7967
0.9993	0.806
