Adsorption isotherm of Ethene on NOTT-300
DOI: 10.1038/nchem.2114
Article source: Figure 1
Adsorbate Ethene: InChIKey VGGSQFUCUMXWEO-UHFFFAOYSA-N
Kind: experiment
Temperature: 293 K
Tabular data in the source: 0
pressure (bar)	uptake (ml/g)
0.00095	0.007
0.00109	0.0073
0.01259	0.1615
0.0198	0.3576
0.02853	0.3231
0.03989	0.5834
0.05028	0.5477
0.05984	0.7968
0.07883	0.9745
0.08063	0.8364
0.09961	1.1682
0.10058	1.0128
0.12622	1.2386
0.15033	1.6062
0.15185	1.4508
0.17513	1.6482
0.19972	1.8339
0.20086	1.8257
0.23149	2.0433
0.2507	2.2975
0.26728	2.2431
0.2988	2.4374
0.32079	2.678
0.33849	2.6369
0.37567	2.9102
0.37919	2.7907
0.42043	2.9739
0.42494	3.1021
0.46079	3.11
0.47451	3.2715
0.5007	3.2482
0.52531	3.4161
0.54836	3.4006
0.57612	3.5514
0.60108	3.5421
0.64888	3.6571
0.65013	3.6644
0.70112	3.7781
0.75031	3.927
0.75087	3.9287
0.79958	3.9869
0.84995	4.081
0.85012	4.0694
0.89972	4.1387
0.9502	4.224
0.99991	4.271
