Adsorption isotherm of Ethene on NOTT-300
DOI: 10.1038/nchem.2114
Article source: Figure 1
Adsorbate Ethene: InChIKey VGGSQFUCUMXWEO-UHFFFAOYSA-N
Kind: experiment
Temperature: 293 K
Tabular data in the source: 0
pressure (bar)	uptake (wt%)
0.00112	0.0242
0.00332	0.1251
0.00475	0.2835
0.00992	0.4461
0.02004	0.7157
0.02938	0.9914
0.04984	1.4833
0.07535	2.1027
0.09959	2.7048
0.12525	3.3141
0.14917	3.8923
0.19935	4.8135
0.24937	5.6856
0.29859	6.45
0.39827	7.4381
0.49812	8.4033
0.59806	9.2427
0.69756	9.9757
0.79742	10.5867
0.89781	11.1484
0.9981	11.5763
