Adsorption isotherm of Methane on NOTT-300
DOI: 10.1038/nchem.2114
Article source: Figure 1
Adsorbate Methane: InChIKey VNWKTOKETHGBQD-UHFFFAOYSA-N
Kind: experiment
Temperature: 293 K
Tabular data in the source: 0
pressure (bar)	uptake (mmol/g)
0.00152	0.0099
0.02572	0.0128
0.05057	0.0216
0.0751	0.0186
0.10348	0.0284
0.15099	0.0293
0.20023	0.0414
0.2515	0.0475
0.29931	0.0573
0.35216	0.0818
0.40087	0.0957
0.4529	0.1003
0.50057	0.1173
0.55003	0.1334
0.60194	0.1431
0.65056	0.1607
0.70093	0.1763
0.75197	0.1938
0.80256	0.2074
0.85316	0.2309
0.90265	0.2367
0.95193	0.2542
1.00032	0.2678
