Adsorption isotherm of Argon on [NH2(CH3)2][Zn3(BTA)(BTC)2(H2O)]*4DMAC*3H2O
DOI: 10.1039/C2ta00635a
Adsorbate Argon: InChIKey XKRFYHLGVUSROY-UHFFFAOYSA-N
Temperature: 77 K
Tabular data in the source: 0
pressure (bar)	uptake (cm3(STP)/g)
0.00408569	0.00403226
0.00817137	165.9
0.0163427	275.29
0.0367711	286.264
0.0612853	291.777
0.0980565	297.312
0.110314	297.334
0.138914	297.385
0.187942	301.119
0.257398	301.244
0.310512	301.34
0.359541	303.251
0.559739	303.611
0.608767	305.522
0.661881	305.618
0.690481	305.669
0.710909	303.883
0.768109	303.986
0.821223	305.905
0.837566	305.934
0.857994	304.148
0.886594	306.022
0.915194	306.074
0.939707	306.118
0.972393	304.354
0.996907	304.398
