Adsorption isotherm of Nitrogen on [NH2(CH3)2][Zn3(BTA)(BTC)2(H2O)]*4DMAC*3H2O
DOI: 10.1039/C2ta00635a
Adsorbate Nitrogen: InChIKey IJGRMHOSHXDMSA-UHFFFAOYSA-N
Temperature: 77 K
Tabular data in the source: 0
pressure (bar)	uptake (cm3(STP)/g)
0	0
0.00408569	173.184
0.00817137	182.306
0.0163427	195.081
0.0367711	202.41
0.0857994	207.967
0.130742	209.871
0.183856	213.612
0.359541	213.928
0.629196	216.236
0.678224	216.324
0.710909	214.56
0.764023	214.656
0.817137	214.751
0.939707	216.795
0.968307	216.846
