Adsorption isotherm of Hydrogen on [NH2(CH3)2][Zn3(BTA)(BTC)2(H2O)]*4DMAC*3H2O
DOI: 10.1039/C2ta00635a
Adsorbate Hydrogen: InChIKey UFHFLCQGNIYNRP-UHFFFAOYSA-N
Temperature: 87 K
Tabular data in the source: 0
pressure (bar)	uptake (cm3(STP)/g)
0.0163427	23.7273
0.0285998	32.864
0.0449425	40.185
0.0612853	47.5061
0.0694567	52.9895
0.0817138	56.6574
0.0939707	62.1482
0.106228	65.8161
0.122571	73.1372
0.147084	75.0042
0.171599	82.34
0.192027	89.6684
0.228798	95.2033
0.26557	102.561
0.310512	109.934
0.363626	117.321
0.420826	126.538
0.494368	133.962
0.576081	141.401
0.670052	148.862
0.788538	158.189
0.915194	165.709
