Adsorption isotherm of Methane on [NH2(CH3)2][Zn3(BTA)(BTC)2(H2O)]*4DMAC*3H2O
DOI: 10.1039/C2ta00635a
Adsorbate Methane: InChIKey VNWKTOKETHGBQD-UHFFFAOYSA-N
Temperature: 273 K
Tabular data in the source: 0
pressure (bar)	uptake (cm3(STP)/g)
0.0513878	1.67493
0.0671502	3.43408
0.106686	4.53822
0.130389	5.6798
0.146223	5.64237
0.169902	7.3828
0.201521	8.50566
0.233094	10.8262
0.27263	11.9304
0.316125	13.0252
0.363531	15.3083
0.422835	16.9645
0.490033	19.2009
0.573017	22.5975
0.667923	24.7684
0.786532	28.0808
