Adsorption isotherm of Hydrogen on [NH2(CH3)2][Zn3(BTA)(BTC)2(H2O)]*4DMAC*3H2O
DOI: 10.1039/C2ta00635a
Adsorbate Hydrogen: InChIKey UFHFLCQGNIYNRP-UHFFFAOYSA-N
Temperature: 77 K
Tabular data in the source: 0
pressure (bar)	uptake (cm3(STP)/g)
0.0939707	102.252
0.102142	111.382
0.126656	120.54
0.147084	127.869
0.224713	149.883
0.26557	157.249
0.310512	166.444
0.359541	173.824
0.424911	181.233
0.490282	188.642
0.571996	194.258
0.670052	203.549
0.784452	209.224
