Adsorption isotherm of Carbon Dioxide on [NH2(CH3)2]2[Cd3(BTA)(BTC)2(H2O)]2*7DMAC*8H2O
DOI: 10.1039/C2ta00635a
Adsorbate Carbon Dioxide: InChIKey CURLTUGMZLYLDI-UHFFFAOYSA-N
Temperature: 273 K
Tabular data in the source: 0
pressure (bar)	uptake (cm3(STP)/g)
0.0198676	4.18143
0.0357617	6.56272
0.0397353	8.96527
0.0556295	10.1417
0.0635765	11.9348
0.0715235	13.7279
0.0834441	14.9114
0.0913912	17.3069
0.103312	19.6953
0.119206	22.0765
0.139074	24.4507
0.166888	27.4132
0.194703	31.5804
0.226491	35.1382
0.266226	39.2842
0.32583	45.8044
0.377485	50.5315
0.433115	55.854
0.508612	61.141
0.592056	67.6187
0.691394	72.8632
0.8106	78.6747
0.909938	83.3168
