Adsorption isotherm of Nitrogen on [NH2(CH3)2]2[Cd3(BTA)(BTC)2(H2O)]2*7DMAC*8H2O
DOI: 10.1039/C2ta00635a
Adsorbate Nitrogen: InChIKey IJGRMHOSHXDMSA-UHFFFAOYSA-N
Temperature: 77 K
Tabular data in the source: 0
pressure (bar)	uptake (cm3(STP)/g)
0.000262195	11.2304
0.000568088	24.3326
0.000786583	33.6913
0.00096138	41.1782
0.00131097	56.1522
0.00161686	69.2543
0.00192276	82.3565
0.00231605	99.2021
0.0107936	112.319
0.015098	121.686
0.0315289	125.459
0.0602173	129.256
0.0847762	131.173
0.105249	133.082
0.125678	133.12
0.146151	135.029
0.16658	135.067
0.354705	142.901
0.403736	142.992
0.460938	143.097
0.505882	143.18
0.554956	145.143
0.608116	147.113
0.653061	147.196
0.714392	149.181
0.75938	151.135
0.816582	151.241
0.837011	151.279
0.882	153.233
0.918773	153.301
0.943332	155.218
0.967846	155.264
