Adsorption isotherm of Nitrogen on [NH2(CH3)2]2[Cd3(BTA)(BTC)2(H2O)]2*7DMAC*8H2O
DOI: 10.1039/C2ta00635a
Adsorbate Nitrogen: InChIKey IJGRMHOSHXDMSA-UHFFFAOYSA-N
Temperature: 273 K
Tabular data in the source: 0
pressure (bar)	uptake (cm3(STP)/g)
0.0238412	0.559887
0.0317882	0.545712
0.0516559	0.510276
0.0794706	0.460666
0.143047	0.949681
0.190729	1.46704
0.214571	1.42452
0.250333	1.36074
0.286094	1.29695
0.333777	1.81432
0.381459	1.72927
0.445036	2.21828
0.520532	2.68604
0.603976	3.13962
0.703315	3.56485
0.822521	4.55705
0.917885	4.38696
