Adsorption isotherm of Argon on [NH2(CH3)2]2[Cd3(BTA)(BTC)2(H2O)]2*7DMAC*8H2O
DOI: 10.1039/C2ta00635a
Adsorbate Argon: InChIKey XKRFYHLGVUSROY-UHFFFAOYSA-N
Temperature: 77 K
Tabular data in the source: 0
pressure (bar)	uptake (cm3(STP)/g)
-0.00286229	52.4011
-0.0020757	86.0924
-0.00181351	97.3229
-0.00146392	112.297
-0.00111432	127.271
-0.000808433	140.373
0.000305893	13.1022
0.000873981	37.4348
0.00144207	61.7674
0.00358332	153.483
0.00384552	164.713
0.00406401	174.072
0.00423881	181.559
0.00467579	200.276
0.0047632	204.019
0.00863056	194.668
0.00898015	209.642
0.0131534	213.393
0.0173267	217.144
0.0421478	230.292
0.0708362	234.088
0.0995246	237.884
0.10774	239.771
0.140427	239.832
0.15677	239.862
0.177287	243.643
0.189457	239.922
0.259004	243.794
0.312121	243.892
0.361151	243.983
0.410181	244.073
0.459256	246.035
0.512328	244.262
0.561401	246.224
0.610389	244.443
0.663504	244.541
0.708449	244.624
0.765651	244.73
0.818811	246.7
0.839284	248.609
0.867842	246.79
0.892356	246.836
0.921002	248.76
0.945516	248.805
0.974117	248.858
0.998633	248.903
