Adsorption isotherm of Carbon Dioxide on [NH2(CH3)2][Zn3(BTA)(BTC)2(H2O)]*4DMAC*3H2O
DOI: 10.1039/C2ta00635a
Adsorbate Carbon Dioxide: InChIKey CURLTUGMZLYLDI-UHFFFAOYSA-N
Temperature: 273 K
Tabular data in the source: 0
pressure (bar)	uptake (cm3(STP)/g)
0.141317	29.6061
0.168882	33.1337
0.196426	37.2602
0.227903	41.9762
0.263315	47.2817
0.310578	53.158
0.3618	59.025
0.416957	65.4814
0.491882	72.4899
0.570789	78.8902
0.685227	87.6018
0.799758	93.9178
