Adsorption isotherm of Hydrogen on [NH2(CH3)2]2[Cd3(BTA)(BTC)2(H2O)]2*7DMAC*8H2O
DOI: 10.1039/C2ta00635a
Adsorbate Hydrogen: InChIKey UFHFLCQGNIYNRP-UHFFFAOYSA-N
Temperature: 77 K
Tabular data in the source: 0
pressure (bar)	uptake (cm3(STP)/g)
0.0297809	50.5898
0.0670781	73.1186
0.0876384	78.7715
0.116545	91.9265
0.141235	99.4587
0.165881	105.119
0.194614	110.787
0.227476	118.335
0.268466	124.025
0.309542	133.459
0.362746	137.301
0.420123	144.894
0.493756	148.773
0.66971	160.328
0.788331	166.162
