Adsorption isotherm of Methane on [NH2(CH3)2]2[Cd3(BTA)(BTC)2(H2O)]2*7DMAC*8H2O
DOI: 10.1039/C2ta00635a
Adsorbate Methane: InChIKey VNWKTOKETHGBQD-UHFFFAOYSA-N
Temperature: 273 K
Tabular data in the source: 0
pressure (bar)	uptake (cm3(STP)/g)
0.0874176	2.25372
0.186756	5.691
0.210597	6.8533
0.246359	7.99433
0.286094	9.12828
0.32583	10.8646
0.377485	11.9773
0.445036	14.8689
0.516559	16.5485
0.600003	18.2069
0.699341	21.0418
0.818547	23.2388
