Adsorption isotherm of Nitrogen on [NH2(CH3)2][Zn3(BTA)(BTC)2(H2O)]*4DMAC*3H2O
DOI: 10.1039/C2ta00635a
Adsorbate Nitrogen: InChIKey IJGRMHOSHXDMSA-UHFFFAOYSA-N
Temperature: 273 K
Tabular data in the source: 0
pressure (bar)	uptake (cm3(STP)/g)
0.0158098	0.56143
0.166181	1.40357
0.221574	1.87143
0.265117	1.7685
0.308612	2.86329
0.360071	2.74165
0.419398	3.79901
0.490626	4.22944
0.573727	4.6318
0.668681	5.60494
0.783451	5.93244
