Adsorption isotherm of Nitrogen on MIL-101
DOI: 10.1039/C3tb00257h
Adsorbate Nitrogen: InChIKey IJGRMHOSHXDMSA-UHFFFAOYSA-N
Temperature: 77 K
Tabular data in the source: 0
pressure (bar)	uptake (cm3(STP)/g)
0.00182509	10.6119
0.00619484	342.713
0.0564469	510.948
0.121993	628.931
0.213758	729.435
0.266195	755.654
0.386363	773.133
0.624514	779.688
0.821153	792.797
0.932581	805.906
0.976279	827.755
