Adsorption isotherm of Nitrogen on CYCU-4
DOI: 10.1039/C3tb00257h
Adsorbate Nitrogen: InChIKey IJGRMHOSHXDMSA-UHFFFAOYSA-N
Temperature: 77 K
Tabular data in the source: 0
pressure (bar)	uptake (cm3(STP)/g)
0.00400996	6.74161
0.00400996	323.111
0.00619484	340.59
0.0586318	438.473
0.135102	504.893
0.17006	531.111
0.220312	546.842
0.281489	560.826
0.329556	566.069
0.478128	580.053
0.587371	588.792
0.735943	604.523
0.790565	615.01
0.838632	622.002
0.891069	634.237
0.939136	662.204
0.987203	774.069
