Adsorption isotherm of Nitrogen on MIL-101
DOI: 10.1039/C3tb00257h
Adsorbate Nitrogen: InChIKey IJGRMHOSHXDMSA-UHFFFAOYSA-N
Temperature: 77 K
Tabular data in the source: 0
pressure (bar)	uptake (cm3(STP)/g)
0.00400996	38.4225
0.00619484	1.06119
0.0105646	40.8259
0.0651864	58.7419
0.121993	72.9435
0.17443	76.4393
0.222497	83.2124
0.279304	84.0864
0.338296	85.3973
0.720649	88.2377
0.832077	88.6746
0.891069	89.7671
0.947875	91.515
0.991573	93.2629
