Adsorption isotherm of Nitrogen on CYCU-4
DOI: 10.1039/C3tb00257h
Adsorbate Nitrogen: InChIKey IJGRMHOSHXDMSA-UHFFFAOYSA-N
Temperature: 77 K
Tabular data in the source: 0
pressure (bar)	uptake (cm3(STP)/g)
0.00619484	1.68545
0.0171192	5.35604
0.0651864	7.97789
0.117623	10.2065
0.172245	12.435
0.320817	16.2367
0.480312	20.3006
0.589556	22.7913
0.685691	25.9376
0.78401	30.2636
0.884514	34.7207
0.939136	37.4737
0.993758	44.1594
