Adsorption isotherm of Nitrogen on MIL-101
DOI: 10.1039/C3tb00257h
Adsorbate Nitrogen: InChIKey IJGRMHOSHXDMSA-UHFFFAOYSA-N
Temperature: 77 K
Tabular data in the source: 0
pressure (bar)	uptake (cm3(STP)/g)
0.00837971	14.9816
0.0171192	382.04
0.0651864	552.461
0.126363	683.553
0.167876	720.696
0.224682	805.906
0.336111	825.57
0.478128	832.125
0.696615	849.603
0.825523	858.343
0.888884	862.713
0.941321	869.267
0.995943	906.41
