Adsorption isotherm of Nitrogen on CYCU-4
DOI: 10.1039/C3tb00257h
Adsorbate Nitrogen: InChIKey IJGRMHOSHXDMSA-UHFFFAOYSA-N
Temperature: 77 K
Tabular data in the source: 0
pressure (bar)	uptake (cm3(STP)/g)
0.00619484	192.71
0.0127495	334.29
0.0630016	448.341
0.130733	507.332
0.218128	550.593
0.279304	560.425
0.331741	566.324
0.469388	582.055
0.585186	591.887
0.746867	609.584
0.849556	627.282
0.899808	637.114
0.941321	664.643
0.987203	772.794
