Adsorption isotherm of Nitrogen on CYCU-4
DOI: 10.1039/C3tb00257h
Adsorbate Nitrogen: InChIKey IJGRMHOSHXDMSA-UHFFFAOYSA-N
Temperature: 77 K
Tabular data in the source: 0
pressure (bar)	uptake (cm3(STP)/g)
0.00619484	9.83641
0.0105646	116.021
0.0127495	137.652
0.0630016	171.08
0.113254	190.744
0.220312	216.307
0.325186	224.173
0.427876	234.004
0.539304	237.937
0.644178	239.904
0.740312	255.635
0.832077	265.467
0.947875	285.131
0.993758	359.853
