Adsorption isotherm of Nitrogen on CYCU-4
DOI: 10.1039/C3tb00257h
Adsorbate Nitrogen: InChIKey IJGRMHOSHXDMSA-UHFFFAOYSA-N
Temperature: 77 K
Tabular data in the source: 0
pressure (bar)	uptake (cm3(STP)/g)
0.00400996	137.652
0.0171192	176.979
0.0608167	226.139
0.161321	253.668
0.281489	267.433
0.427876	281.198
0.587371	292.996
0.727203	310.694
0.834262	330.357
0.897623	346.089
0.943506	385.416
0.985018	479.803
