Adsorption isotherm of Nitrogen on CYCU-4
DOI: 10.1039/C3tb00257h
Adsorbate Nitrogen: InChIKey IJGRMHOSHXDMSA-UHFFFAOYSA-N
Temperature: 77 K
Tabular data in the source: 0
pressure (bar)	uptake (cm3(STP)/g)
0.0105646	29.3396
0.0345982	61.0202
0.0804806	86.1463
0.152581	103.625
0.248716	113.457
0.35796	121.104
0.552413	130.936
0.652918	139.676
0.755607	158.247
0.843002	184.466
0.899808	208.499
0.952245	243.457
0.974094	283.877
0.987203	364.718
