Adsorption isotherm of Nitrogen on CYCU-4
DOI: 10.1039/C3tb00257h
Adsorbate Nitrogen: InChIKey IJGRMHOSHXDMSA-UHFFFAOYSA-N
Temperature: 77 K
Tabular data in the source: 0
pressure (bar)	uptake (cm3(STP)/g)
0.00400996	0.188164
0.0564469	2.31842
0.113254	4.02262
0.218128	6.08186
0.320817	7.85707
0.419136	8.99321
0.521825	9.49026
0.61796	10.2714
0.729388	11.3365
0.829892	12.4016
0.936951	14.1768
0.982834	16.6621
