Adsorption isotherm of Perfluorooctanoic acid on TFMAA/4-Vpy-NIPs
DOI: 10.1016/j.chroma.2017.08.023
Article source: Figure 5
Adsorbate Perfluorooctanoic acid: InChIKey SNGREZUHAYWORS-UHFFFAOYSA-N
Kind: experiment
Temperature: 298 K
Tabular data in the source: 0
pressure (bar)	uptake (mg/g)
1.01325	0.4531
1.01325	0.8248
1.01325	1.6888
1.01325	2.4885
1.01325	2.887
1.01325	3.2243
1.01325	4.3876
