Adsorption isotherm of Perfluorooctanesulfonic acid on TFMAA/4-Vpy-NIPs
DOI: 10.1016/j.chroma.2017.08.023
Article source: Figure 5
Adsorbate Perfluorooctanesulfonic acid: InChIKey YFSUTJLHUFNCNZ-UHFFFAOYSA-N
Kind: experiment
Temperature: 298 K
Tabular data in the source: 0
pressure (bar)	uptake (mg/g)
1.01325	0.1782
1.01325	0.4376
1.01325	0.9814
1.01325	1.8129
1.01325	2.5583
1.01325	2.9584
1.01325	3.3053
1.01325	3.6226
