Adsorption isotherm of Perfluorooctanoic acid on TFMAA/4-Vpy-MIPs
DOI: 10.1016/j.chroma.2017.08.023
Article source: Figure 5
Adsorbate Perfluorooctanoic acid: InChIKey SNGREZUHAYWORS-UHFFFAOYSA-N
Kind: experiment
Temperature: 298 K
Tabular data in the source: 0
pressure (bar)	uptake (mg/g)
1.01325	0.6491
1.01325	1.273
1.01325	2.5774
1.01325	3.5056
1.01325	4.3602
1.01325	4.7383
1.01325	5.7653
