Adsorption isotherm of Perfluorooctanesulfonic acid on TFMAA/4-Vpy-MIPs
DOI: 10.1016/j.chroma.2017.08.023
Article source: Figure 5
Adsorbate Perfluorooctanesulfonic acid: InChIKey YFSUTJLHUFNCNZ-UHFFFAOYSA-N
Kind: experiment
Temperature: 298 K
Tabular data in the source: 0
pressure (bar)	uptake (mg/g)
1.01325	0.6079
1.01325	1.2924
1.01325	2.6849
1.01325	3.8289
1.01325	4.7056
1.01325	5.176
1.01325	5.6198
