Adsorption isotherm of Hydrogen on Carbon
DOI: 10.1016/j.ijhydene.2011.01.037
Adsorbate Hydrogen: InChIKey UFHFLCQGNIYNRP-UHFFFAOYSA-N
Temperature: 298 K
Tabular data in the source: 0
pressure (bar)	uptake (wt%)
0.0227783	0.000581
0.126997	0.001236
0.203424	0.00182592
0.270587	0.0022192
0.402597	0.00326794
0.529975	0.00425113
0.659669	0.00523432
0.793995	0.00608642
0.930637	0.00713516
0.995484	0.00785617
1.05802	0.00864273
1.12286	0.00910155
