Adsorption isotherm of Hydrogen on Carbon
DOI: 10.1016/j.ijhydene.2011.01.037
Adsorbate Hydrogen: InChIKey UFHFLCQGNIYNRP-UHFFFAOYSA-N
Temperature: 77 K
Tabular data in the source: 0
pressure (bar)	uptake (wt%)
0.043622	0.394525
0.0598338	0.488912
0.0968892	0.646223
0.152472	0.796542
0.217319	0.901416
0.286798	0.999298
0.425756	1.13214
0.485972	1.17409
0.543871	1.21254
0.671249	1.29295
0.805575	1.34888
0.868106	1.37684
1.00243	1.42229
1.06265	1.44676
1.12518	1.46074
