Adsorption isotherm of Hydrogen on IRMOF-1
DOI: 10.1016/j.ijhydene.2011.01.037
Adsorbate Hydrogen: InChIKey UFHFLCQGNIYNRP-UHFFFAOYSA-N
Temperature: 77 K
Tabular data in the source: 0
pressure (bar)	uptake (wt%)
0.043622	0.296643
0.0528859	0.380542
0.0806774	0.541349
0.150156	0.782559
0.196476	0.887433
0.254375	0.988811
0.312274	1.05873
0.379437	1.12165
0.432704	1.17409
0.543871	1.244
0.657353	1.30693
0.775467	1.36286
0.893582	1.39782
0.946849	1.42229
1.00706	1.43278
