Adsorption isotherm of Hydrogen on Carbon
DOI: 10.1016/j.ijhydene.2011.01.037
Adsorbate Hydrogen: InChIKey UFHFLCQGNIYNRP-UHFFFAOYSA-N
Temperature: 298 K
Tabular data in the source: 0
pressure (bar)	uptake (wt%)
0.0019346	0.00516878
0.00425056	0.0114612
0.0158304	0.0121822
0.041306	0.0125755
0.143209	0.0142142
0.275219	0.0158528
0.404913	0.0174915
0.529975	0.0189335
0.668933	0.020441
0.793995	0.0218831
0.926005	0.0233251
1.06033	0.0250293
1.12981	0.0258158
