Adsorption isotherm of Hydrogen on Pt/AC_IRMOF-1
DOI: 10.1016/j.ijhydene.2011.01.037
Adsorbate Hydrogen: InChIKey UFHFLCQGNIYNRP-UHFFFAOYSA-N
Temperature: 77 K
Tabular data in the source: 0
pressure (bar)	uptake (wt%)
0.0204623	0.0414496
0.0297262	0.21624
0.0505699	0.377046
0.0783615	0.530861
0.152472	0.76508
0.19416	0.855971
0.252059	0.957349
0.374805	1.09718
0.488288	1.18807
0.60177	1.26498
0.712936	1.31392
0.824103	1.36286
0.88895	1.38733
1.00706	1.43278
