Adsorption isotherm of Hydrogen on Carbon
DOI: 10.1016/j.ijhydene.2011.01.037
Adsorbate Hydrogen: InChIKey UFHFLCQGNIYNRP-UHFFFAOYSA-N
Temperature: 77 K
Tabular data in the source: 0
pressure (bar)	uptake (wt%)
0.0297262	0.016979
0.0366741	0.226727
0.0482539	0.359567
0.0621497	0.485416
0.101521	0.635735
0.152472	0.772071
0.224267	0.883937
0.353961	1.04125
0.488288	1.14612
0.61335	1.21254
0.738412	1.27547
0.868106	1.32091
0.995484	1.37335
1.12518	1.41879
