Adsorption isotherm of Hydrogen on IRMOF-1
DOI: 10.1016/j.ijhydene.2011.01.037
Adsorbate Hydrogen: InChIKey UFHFLCQGNIYNRP-UHFFFAOYSA-N
Temperature: 298 K
Tabular data in the source: 0
pressure (bar)	uptake (wt%)
0.0737296	0.000318
0.196476	0.000843
0.335434	0.00143264
0.455864	0.00202256
0.597138	0.00254693
0.657353	0.0029402
0.736096	0.00326794
0.863474	0.00366121
0.928321	0.00412004
1.05802	0.00464441
1.12518	0.00497214
