Adsorption isotherm of Hydrogen on Carbon
DOI: 10.1016/j.ijhydene.2011.01.037
Adsorbate Hydrogen: InChIKey UFHFLCQGNIYNRP-UHFFFAOYSA-N
Temperature: 298 K
Tabular data in the source: 0
pressure (bar)	uptake (wt%)
0.0111985	0.000122
0.0714136	0.000843
0.14784	0.00156373
0.265955	0.00287466
0.402597	0.00431668
0.532291	0.00569315
0.666617	0.00713516
0.796311	0.00851163
0.932953	0.0102814
0.993168	0.0108058
1.06033	0.0117889
1.12981	0.012641
