Adsorption isotherm of Hydrogen on IRMOF-1
DOI: 10.1039/C1cc11054c
Adsorbate Hydrogen: InChIKey UFHFLCQGNIYNRP-UHFFFAOYSA-N
Temperature: 77 K
Tabular data in the source: 0
pressure (bar)	uptake (wt%)
0.0212014	0.0191693
0.106007	0.415335
0.289753	0.741214
0.466431	0.984026
0.64311	1.15016
0.770318	1.26518
0.876325	1.34824
0.968198	1.40575
1.08834	1.49521
1.21555	1.58466
1.37102	1.66773
1.51943	1.7508
1.71025	1.84026
1.83746	1.90415
1.94346	1.95527
2	1.98722
