Adsorption isotherm of Hydrogen on CH3-IRMOF-1
DOI: 10.1039/C1cc11054c
Adsorbate Hydrogen: InChIKey UFHFLCQGNIYNRP-UHFFFAOYSA-N
Temperature: 77 K
Tabular data in the source: 0
pressure (bar)	uptake (wt%)
0.0282686	0.044496
0.0918728	0.139835
0.141343	0.209741
0.204947	0.29871
0.233216	0.343206
0.240283	0.406878
0.303887	0.425784
0.353357	0.470212
0.39576	0.514663
0.508834	0.597106
0.54417	0.647949
0.59364	0.686008
0.650177	0.724044
0.734982	0.787468
0.791519	0.825505
0.848057	0.844433
0.890459	0.888884
0.954064	0.926898
1.09541	1.00288
1.15901	1.03453
1.25088	1.08519
1.29329	1.10416
1.35689	1.13581
1.42049	1.16108
1.51237	1.20537
1.57597	1.23065
1.62544	1.26871
1.71025	1.28755
1.77385	1.31282
1.84452	1.33807
1.90106	1.36337
1.96466	1.38865
