Adsorption isotherm of Hydrogen on CH3-IRMOF-1
DOI: 10.1039/C1cc11054c
Adsorbate Hydrogen: InChIKey UFHFLCQGNIYNRP-UHFFFAOYSA-N
Temperature: 77 K
Tabular data in the source: 0
pressure (bar)	uptake (wt%)
0.0918728	0.396166
0.282686	0.715655
0.459364	0.958466
0.64311	1.13099
0.770318	1.24601
0.869258	1.32907
0.968198	1.39297
1.0318	1.4377
1.18728	1.53355
1.26502	1.58466
1.42756	1.67412
1.62544	1.76997
1.77385	1.84026
1.92226	1.90415
1.99293	1.94888
