Adsorption isotherm of Hydrogen on DiCH3-IRMOF-1
DOI: 10.1039/C1cc11054c
Adsorbate Hydrogen: InChIKey UFHFLCQGNIYNRP-UHFFFAOYSA-N
Temperature: 77 K
Tabular data in the source: 0
pressure (bar)	uptake (wt%)
0.0469246	0.0862069
0.140783	0.25431
0.226076	0.422414
0.354362	0.512931
0.516872	0.62069
0.726501	0.724138
0.927638	0.793103
1.03035	0.827586
1.18013	0.87931
1.3813	0.931034
1.51827	0.969828
1.69805	1.01293
1.83931	1.0431
2.01911	1.07759
