Adsorption isotherm of Hydrogen on CH3-IRMOF-1
DOI: 10.1039/C1cc11054c
Adsorbate Hydrogen: InChIKey UFHFLCQGNIYNRP-UHFFFAOYSA-N
Temperature: 77 K
Tabular data in the source: 0
pressure (bar)	uptake (wt%)
0.0256313	0.0301724
0.0939323	0.133621
0.251901	0.362069
0.521183	0.607759
0.735001	0.75431
0.85475	0.831897
0.970234	0.900862
1.08573	0.965517
1.29108	1.06466
1.44509	1.14224
1.70184	1.24138
1.84303	1.30603
1.9158	1.32328
