Adsorption isotherm of Hydrogen on DiCH3-IRMOF-1
DOI: 10.1039/C1cc11054c
Adsorbate Hydrogen: InChIKey UFHFLCQGNIYNRP-UHFFFAOYSA-N
Temperature: 77 K
Tabular data in the source: 0
pressure (bar)	uptake (wt%)
0.0918728	0.415335
0.289753	0.715655
0.4947	0.939297
0.678445	1.07987
0.812721	1.16933
0.918728	1.24601
1.04594	1.30351
1.14488	1.35463
1.22261	1.39936
1.33569	1.45048
1.47703	1.51438
1.63958	1.57827
1.78799	1.63578
1.94346	1.69329
2.02827	1.72524
