Adsorption isotherm of Hydrogen on DiCH3-IRMOF-1
DOI: 10.1039/C1cc11054c
Adsorbate Hydrogen: InChIKey UFHFLCQGNIYNRP-UHFFFAOYSA-N
Temperature: 77 K
Tabular data in the source: 0
pressure (bar)	uptake (wt%)
0.0140843	4.51e-05
0.132244	0.442732
0.35651	0.751143
0.58116	0.950581
0.749676	1.09215
0.876164	1.16947
0.967509	1.22746
1.12214	1.31129
1.29086	1.39516
1.36115	1.43385
1.52991	1.5049
1.67762	1.55666
1.90969	1.64715
2.05038	1.69247
