Adsorption isotherm of Hydrogen on IRMOF-1
DOI: 10.1039/C1cc11054c
Adsorbate Hydrogen: InChIKey UFHFLCQGNIYNRP-UHFFFAOYSA-N
Temperature: 77 K
Tabular data in the source: 0
pressure (bar)	uptake (wt%)
0.113074	0.00600932
0.459364	0.00490648
0.727915	-0.0023182
1.10247	-0.00351106
1.33569	-0.0169926
1.42049	-0.0108933
1.5053	-0.0239022
1.59011	-0.0241723
1.67491	-0.0244424
1.78092	-0.02478
1.87279	-0.0378114
