Adsorption isotherm of Methane on ZJU-5a
DOI: 10.1039/C3cc41866a
Adsorbate Methane: InChIKey VNWKTOKETHGBQD-UHFFFAOYSA-N
Temperature: 300 K
Tabular data in the source: 0
pressure (bar)	uptake (cm3(STP)/cm3)
1.81011	5.99265
6.85717	67.1691
11.7513	103.001
18.4807	138.833
23.9866	162.43
39.1278	193.892
47.3866	209.623
57.9395	223.606
63.9042	225.354
