Adsorption isotherm of Methane on ZJU-5a
DOI: 10.1039/C3cc41866a
Adsorbate Methane: InChIKey VNWKTOKETHGBQD-UHFFFAOYSA-N
Temperature: 240 K
Tabular data in the source: 0
pressure (bar)	uptake (cm3(STP)/cm3)
1.81011	12.1103
3.03364	76.7826
3.95129	111.741
5.17482	144.077
7.46893	181.657
10.6807	211.371
14.9631	234.093
20.4689	250.699
26.5866	262.934
32.8572	270.799
39.7395	277.791
49.5278	287.404
62.9866	290.026
