Adsorption isotherm of Acetylene on ZJU-5a
DOI: 10.1039/C3cc41866a
Adsorbate Acetylene: InChIKey HSFWRNGVRCDJHI-UHFFFAOYSA-N
Temperature: 273 K
Tabular data in the source: 0
pressure (bar)	uptake (cm3(STP)/g)
0.00660727	7.11634
0.0182589	35.3012
0.0508836	62.8306
0.137106	102.814
0.258283	146.73
0.398103	184.091
0.533263	218.175
0.733671	253.57
0.964375	277.167
1.05992	288.31
