Adsorption isotherm of Acetylene on ZJU-5a
DOI: 10.1039/C3cc41866a
Adsorbate Acetylene: InChIKey HSFWRNGVRCDJHI-UHFFFAOYSA-N
Temperature: 298 K
Tabular data in the source: 0
pressure (bar)	uptake (cm3(STP)/g)
0.0159286	11.0491
0.0392319	24.8138
0.0974903	41.8558
0.223328	73.318
0.405094	104.125
0.572878	129.688
0.72435	148.696
0.86417	167.705
1.06458	191.301
