Adsorption isotherm of Methane on ZJU-5a
DOI: 10.1039/C3cc41866a
Adsorbate Methane: InChIKey VNWKTOKETHGBQD-UHFFFAOYSA-N
Temperature: 270 K
Tabular data in the source: 0
pressure (bar)	uptake (cm3(STP)/cm3)
1.81011	12.1103
3.79834	63.6733
6.55129	106.497
9.30423	139.707
14.0454	173.791
20.9278	200.009
28.5748	218.362
38.363	233.22
45.5513	242.833
56.2572	248.951
64.3631	255.942
