Adsorption isotherm of Nitrogen on ZJU-5a
DOI: 10.1039/C3cc41866a
Adsorbate Nitrogen: InChIKey IJGRMHOSHXDMSA-UHFFFAOYSA-N
Temperature: 77 K
Tabular data in the source: 0
pressure (bar)	uptake (cm3(STP)/g)
0.00619484	38.0166
0.00619484	177.193
0.00837971	382.134
0.0127495	599.311
0.0258587	629.899
0.102329	658.958
0.233422	672.722
0.440985	678.84
0.600481	678.84
0.810228	683.428
0.998128	691.075
