Adsorption isotherm of Methane on ZJU-5a
DOI: 10.1039/C3cc41866a
Adsorbate Methane: InChIKey VNWKTOKETHGBQD-UHFFFAOYSA-N
Temperature: 150 K
Tabular data in the source: 0
pressure (bar)	uptake (cm3(STP)/cm3)
1.65717	153.69
1.65717	261.186
1.81011	61.0515
1.81011	116.11
2.42187	329.354
4.10423	357.32
8.0807	374.799
11.1395	377.421
