Adsorption isotherm of Methane on ZJU-5a
DOI: 10.1039/C3cc41866a
Adsorbate Methane: InChIKey VNWKTOKETHGBQD-UHFFFAOYSA-N
Temperature: 125 K
Tabular data in the source: 0
pressure (bar)	uptake (cm3(STP)/cm3)
1.65717	153.69
1.65717	261.186
1.81011	61.0515
1.81011	116.11
1.96305	352.951
2.42187	379.169
3.49246	387.909
