Adsorption isotherm of Xenon on Vycor Glass
DOI: 10.6028/jres.126.037
Article source: Appendix 4
Adsorbate Xenon: InChIKey FHNFHKCVQCLJFQ-UHFFFAOYSA-N
Kind: experiment
Isotherm type: excess
Temperature: 163 K
Tabular data in the source: 0
pressure (bar)	uptake (mmol/g)
0.0012	0.11
0.009	0.23
0.0159	0.303
0.0237	0.356
0.0325	0.394
0.0405	0.449
0.0649	0.554
0.0849	0.618
0.1257	0.747
0.15	0.815
0.176	0.87
0.2079	0.973
0.2461	1.08
0.2744	1.15
0.3096	1.256
0.3477	1.372
0.382	1.497
0.4162	1.641
0.4412	1.769
0.4761	1.971
0.5027	2.146
0.5234	2.321
0.5504	2.572
0.5741	2.862
0.5906	3.078
0.6137	3.376
0.6342	3.613
0.657	3.826
0.6757	3.925
0.696	3.978
0.7183	3.994
0.91391	4.075
0.8839	4.065
0.8573	4.054
0.8108	3.995
0.769	4.035
0.7327	4.027
0.7001	4.007
0.664	3.985
0.6585	3.976
0.6126	3.967
0.5914	3.955
0.566	3.938
0.5319	3.918
0.5154	3.907
0.5057	3.901
0.4807	3.879
0.471	3.781
0.4568	3.134
0.4484	2.823
0.4447	2.631
0.4373	2.291
0.4273	2.061
0.417	1.907
0.3945	1.68
0.3778	1.574
0.3627	1.483
0.3485	1.396
0.3293	1.325
0.3115	1.265
0.2838	1.19
0.2627	1.13
0.2322	1.04
0.2077	0.974
0.1762	0.893
0.1408	0.799
0.1008	0.685
0.0735	0.587
0.0327	0.415
0.00978	0.263
0.0018	0.156
