Adsorption isotherm of Xenon on Vycor Glass
DOI: 10.6028/jres.126.037
Article source: Appendix 4
Adsorbate Xenon: InChIKey FHNFHKCVQCLJFQ-UHFFFAOYSA-N
Kind: experiment
Isotherm type: excess
Temperature: 162 K
Tabular data in the source: 0
pressure (bar)	uptake (mmol/g)
0.00981	0.255
0.0154	0.294
0.0348	0.424
0.05458	0.514
0.06825	0.574
0.09382	0.669
0.1166	0.741
0.14687	0.809
0.17416	0.899
0.19889	0.958
0.22923	1.05
0.26042	1.15
0.28656	1.23
0.30792	1.311
0.32519	1.374
0.3499	1.465
0.37224	1.563
0.38925	1.67
0.41154	1.779
0.42763	1.872
0.4493	2.019
0.46648	2.153
