Adsorption isotherm of Xenon on Vycor Glass
DOI: 10.6028/jres.126.037
Article source: Appendix 4
Adsorbate Xenon: InChIKey FHNFHKCVQCLJFQ-UHFFFAOYSA-N
Kind: experiment
Isotherm type: excess
Temperature: 168 K
Tabular data in the source: 0
pressure (bar)	uptake (mmol/g)
0.0017	0.084
0.0056	0.188
0.012	0.245
0.0207	0.291
0.0324	0.35
0.0552	0.438
0.0823	0.522
0.1292	0.637
0.1728	0.741
0.213	0.823
0.263	0.92
0.3093	1.02
0.3425	1.08
0.3823	1.15
0.4229	1.23
0.4609	1.327
0.4961	1.415
0.5295	1.496
0.5584	1.589
0.5862	1.672
0.612	1.766
0.6348	1.862
0.6543	1.954
0.677	2.07
0.7065	2.239
0.7217	2.328
0.7393	2.458
0.7632	2.64
0.7766	2.76
0.8262	3.23
0.8392	3.405
0.89	3.764
0.9134	3.87
0.9476	3.929
0.9752	3.944
1.016	3.959
0.981	3.954
0.9617	3.95
0.9383	3.942
0.9209	3.934
0.8924	3.928
0.862	3.925
0.8358	3.908
0.8056	3.902
0.778	3.891
0.7446	3.871
0.7086	3.858
0.6803	3.847
0.6512	3.575
0.6411	3.347
0.6325	3.055
0.6228	2.745
0.6113	2.414
0.5966	2.081
0.5721	1.826
0.5616	1.745
0.5415	1.622
0.5199	1.507
0.4993	1.433
0.4729	1.36
0.4472	1.292
0.3994	1.2
0.336	1.06
0.2681	0.935
0.2169	0.819
0.156	0.706
0.043	0.398
0.0389	0.38
0.0049	0.177
0.0001	0.07
