Adsorption isotherm of Carbon Dioxide on Vycor Glass
DOI: 10.6028/jres.126.037
Article source: Appendix 4
Adsorbate Carbon Dioxide: InChIKey CURLTUGMZLYLDI-UHFFFAOYSA-N
Kind: experiment
Isotherm type: excess
Temperature: 183 K
Tabular data in the source: 0
pressure (bar)	uptake (mmol/g)
0.3751	2.52
0.3457	2.41
0.322	2.32
0.2998	2.24
0.2599	2.11
0.2269	2.01
0.1969	1.91
0.1599	1.79
0.1242	1.67
0.08766	1.53
0.06531	1.41
0.03314	1.21
0.01534	1.02
0.0076	0.867
0.00168	0.701
0.000495	0.542
0.004255	0.767
0.01356	0.977
0.02259	1.1
0.05219	1.33
0.07856	1.48
0.1173	1.66
0.1481	1.75
0.1762	1.85
0.2048	1.93
0.2209	1.98
0.2464	2.07
0.271	2.14
0.285	2.18
0.3162	2.28
0.3413	2.38
0.3621	2.46
0.3748	2.5
