Adsorption isotherm of Krypton on Vycor Glass
DOI: 10.6028/jres.126.037
Article source: Appendix 4
Adsorbate Krypton: InChIKey DNNSSWSSYDEUBZ-UHFFFAOYSA-N
Kind: experiment
Isotherm type: excess
Temperature: 161 K
Tabular data in the source: 0
pressure (bar)	uptake (mmol/g)
0.00168	0.072
0.00632	0.099
0.0122	0.14
0.02129	0.17
0.03623	0.211
0.04521	0.232
0.06596	0.267
0.08541	0.298
0.1013	0.322
0.1218	0.343
0.1361	0.356
0.1672	0.38
0.2098	0.422
0.2454	0.449
0.2935	0.482
0.3294	0.508
0.3954	0.546
0.443	0.571
0.501	0.599
0.5716	0.632
0.6358	0.664
0.7011	0.688
0.7454	0.707
0.8054	0.726
0.8908	0.759
0.9537	0.775
