Adsorption isotherm of Krypton on Vycor Glass
DOI: 10.6028/jres.126.037
Article source: Appendix 4
Adsorbate Krypton: InChIKey DNNSSWSSYDEUBZ-UHFFFAOYSA-N
Kind: experiment
Isotherm type: excess
Temperature: 117 K
Tabular data in the source: 0
pressure (bar)	uptake (mmol/g)
0.83447	5.484
0.8194	5.48
0.8058	5.473
0.7823	5.459
0.7524	5.453
0.7229	5.449
0.6938	5.442
0.6697	5.436
0.635	5.424
0.6037	5.401
0.5704	5.386
0.5557	5.38
0.5192	5.356
0.4904	5.341
0.4611	5.318
0.4317	5.281
0.4183	5.163
0.4103	4.64
0.3962	3.909
0.3842	3.386
0.3696	2.917
0.3535	2.639
0.3362	2.454
0.3141	2.282
0.293	2.143
0.2749	2.032
0.2401	1.88
0.1963	1.7
0.1442	1.49
0.1014	1.32
0.0625	1.12
0.0339	0.94
0.00976	0.682
0.0054	0.597
0.0272	0.88
0.0422	0.994
0.0824	1.21
0.1182	1.38
0.1661	1.57
0.2206	1.75
0.2512	1.89
0.2881	2.052
0.3183	2.191
0.3564	2.381
0.3975	2.633
0.4294	2.892
0.4562	3.134
0.4778	3.355
0.5064	3.799
0.5333	4.165
0.5563	4.68
0.5779	5
0.5953	5.19
0.6131	5.339
0.6257	5.389
0.6459	5.424
0.6544	5.434
0.6886	5.459
0.7067	5.471
0.7809	5.484
0.83447	5.504
