Adsorption isotherm of Xenon on Vycor Glass
DOI: 10.6028/jres.126.037
Article source: Appendix 4
Adsorbate Xenon: InChIKey FHNFHKCVQCLJFQ-UHFFFAOYSA-N
Kind: experiment
Isotherm type: excess
Temperature: 243 K
Tabular data in the source: 0
pressure (bar)	uptake (mmol/g)
0.08462	0.11
0.1247	0.129
0.17297	0.143
0.26426	0.179
0.33097	0.199
0.38137	0.204
0.42994	0.214
0.49701	0.228
0.5391	0.232
0.60771	0.244
0.66464	0.258
0.82028	0.283
0.92223	0.294
1.0957	0.317
1.035	0.31
0.97809	0.304
0.92408	0.296
0.87341	0.289
0.8208	0.283
0.77242	0.276
0.72986	0.268
0.68788	0.261
0.65017	0.253
0.61415	0.245
0.56487	0.237
0.50409	0.226
0.44983	0.218
0.40139	0.2
0.33961	0.197
0.28754	0.184
0.22785	0.163
0.17943	0.143
0.1232	0.129
0.06773	0.1
0.02826	0.073
0.00884	0.063
0.00445	0.056
