Adsorption isotherm of Xenon on Vycor Glass
DOI: 10.6028/jres.126.037
Article source: Appendix 4
Adsorbate Xenon: InChIKey FHNFHKCVQCLJFQ-UHFFFAOYSA-N
Kind: experiment
Isotherm type: excess
Temperature: 124 K
Tabular data in the source: 0
pressure (bar)	uptake (mmol/g)
0.0002	0.331
0.0015	0.555
0.0026	0.683
0.003756	0.785
0.005108	0.889
0.006914	1.02
0.00885	1.15
0.01157	1.329
0.01255	1.431
0.01399	1.56
0.01537	1.695
0.01661	1.827
0.0189	2.144
0.02021	2.38
0.02213	2.75
0.02353	3.141
0.02466	3.54
0.02539	3.948
0.02638	4.287
0.02719	4.404
0.028265	4.477
0.02715	4.47
0.02533	4.461
0.02361	4.451
0.02207	4.449
0.02054	4.414
0.01923	4.397
0.01802	4.381
0.01669	4.362
0.01572	4.333
0.01477	4.161
0.01469	3.856
0.01437	3.41
0.01413	2.881
0.01381	2.461
0.0134	2.086
0.01285	1.803
0.01213	1.615
0.01156	1.476
0.01099	1.396
0.009661	1.261
0.008519	1.17
0.007524	1.09
0.006716	1.02
0.005599	0.929
0.004658	0.852
0.003717	0.774
0.00215	0.638
0.0012	0.54
0.00089	0.466
