Adsorption isotherm of Carbon Dioxide on Vycor Glass
DOI: 10.6028/jres.126.037
Article source: Appendix 4
Adsorbate Carbon Dioxide: InChIKey CURLTUGMZLYLDI-UHFFFAOYSA-N
Kind: experiment
Isotherm type: excess
Temperature: 192 K
Tabular data in the source: 0
pressure (bar)	uptake (mmol/g)
0.8274	2.94
0.814	2.9
0.7741	2.77
0.7463	2.69
0.707	2.59
0.6574	2.46
0.6153	2.36
0.5623	2.25
0.5028	2.14
0.4662	2.09
0.4108	1.98
0.3531	1.88
0.3037	1.8
0.2614	1.73
0.2246	1.65
0.198	1.59
0.1542	1.49
0.1178	1.39
0.09517	1.33
0.06133	1.19
0.02685	0.992
0.0095	0.808
0.00308	0.623
0.0132	0.837
0.02531	0.959
0.0344	1.04
0.05702	1.16
0.08238	1.28
0.1073	1.37
0.1379	1.46
0.1714	1.55
0.1964	1.6
0.2427	1.7
0.2682	1.77
0.3154	1.82
0.3719	1.93
0.4313	2.03
0.4764	2.11
0.5045	2.16
0.5282	2.19
0.562	2.26
0.5968	2.33
0.639	2.42
0.6483	2.47
0.6917	2.54
0.72	2.62
0.7589	2.74
