Adsorption isotherm of Xenon on Vycor Glass
DOI: 10.6028/jres.126.037
Article source: Appendix 4
Adsorbate Xenon: InChIKey FHNFHKCVQCLJFQ-UHFFFAOYSA-N
Kind: experiment
Isotherm type: excess
Temperature: 146 K
Tabular data in the source: 0
pressure (bar)	uptake (mmol/g)
0.25202	4.176
0.2475	4.169
0.2381	4.166
0.2319	4.161
0.2265	4.154
0.2206	4.151
0.2132	4.146
0.2081	4.143
0.2024	4.127
0.197	4.129
0.185	4.101
0.1803	4.096
0.1748	4.083
0.1692	4.074
0.1634	4.063
0.1581	4.057
0.1523	4.048
0.1453	4.031
0.1418	4.022
0.1382	4.006
0.1361	3.988
0.1351	3.814
0.1318	3.492
0.13	3.201
0.1276	2.877
0.1251	2.576
0.1243	2.323
0.1203	2.082
0.1187	1.951
0.1158	1.837
0.1123	1.685
0.1098	1.644
0.1053	1.554
0.1018	1.484
0.09592	1.385
0.09163	1.325
0.08677	1.266
0.08186	1.21
0.07732	1.16
0.07319	1.12
0.06573	1.04
0.05799	0.973
0.04932	0.885
0.0317	0.72
0.0172	0.55
0.00678	0.373
0.0019	0.228
0.00098	0.181
0.00436	0.317
0.00789	0.397
0.0108	0.449
0.0129	0.481
0.0216	0.601
0.02553	0.648
0.04239	0.819
0.05368	0.936
0.06479	1.03
0.07021	1.08
0.07636	1.14
0.08264	1.19
0.08712	1.25
0.09667	1.338
0.1035	1.413
0.111	1.502
0.1178	1.594
0.1288	1.772
0.1387	1.942
0.1466	2.123
0.04115	0.799
0.1145	1.557
0.1423	2.023
0.1509	2.227
0.1601	2.487
0.1697	2.797
0.1783	3.138
0.1866	3.486
0.191	3.707
0.2001	3.928
0.207	4.058
0.212	4.106
0.217	4.127
0.2252	4.145
0.2349	4.159
0.2439	4.174
0.25202	4.176
