Adsorption isotherm of Carbon Dioxide on Vycor Glass
DOI: 10.6028/jres.126.037
Article source: Appendix 4
Adsorbate Carbon Dioxide: InChIKey CURLTUGMZLYLDI-UHFFFAOYSA-N
Kind: experiment
Isotherm type: excess
Temperature: 150 K
Tabular data in the source: 0
pressure (bar)	uptake (mmol/g)
0.000175	0.734
0.000383	0.922
0.000991	1.12
0.00185	1.28
0.00245	1.34
0.00405	1.5
0.0051	1.56
0.00608	1.62
0.00682	1.67
0.00773	1.75
0.00877	1.8
0.00931	1.83
0.0091	1.81
0.00885	1.8
0.00837	1.79
0.00778	1.75
0.00726	1.7
0.00687	1.7
0.00626	1.66
0.00549	1.62
0.00493	1.57
0.00445	1.52
0.00369	1.47
0.00324	1.41
0.00242	1.35
0.001	1.18
0.000512	1
