Adsorption isotherm of Xenon on Vycor Glass
DOI: 10.6028/jres.126.037
Article source: Appendix 4
Adsorbate Xenon: InChIKey FHNFHKCVQCLJFQ-UHFFFAOYSA-N
Kind: experiment
Isotherm type: excess
Temperature: 139 K
Tabular data in the source: 0
pressure (bar)	uptake (mmol/g)
3e-05	0.099
0.00054	0.22
0.00152	0.273
0.00285	0.346
0.00463	0.42
0.00643	0.48
0.00824	0.535
0.011	0.601
0.01437	0.67
0.01859	0.754
0.0314	0.968
0.038	1.08
0.0425	1.16
0.04628	1.23
0.05518	1.397
0.06184	1.529
0.07127	1.798
0.08324	2.242
0.08692	2.405
0.09111	2.639
0.09748	3.007
0.1014	3.32
0.1061	3.636
0.13186	4.226
0.1283	4.219
0.1247	4.214
0.1211	4.214
0.1161	4.211
0.1112	4.2
0.00253	0.382
0.00138	0.256
0.01439	0.653
0.02095	0.788
0.02673	0.894
0.04846	1.267
0.06444	1.631
0.0766	1.973
0.08401	2.26
0.09338	2.775
0.1006	3.235
0.1031	3.554
0.1093	3.876
0.1109	3.958
0.1121	4.01
0.1132	4.031
0.1161	4.101
0.1181	4.142
0.1195	4.162
0.121	4.172
0.1233	4.194
0.1271	4.204
0.1296	4.224
0.1312	4.227
0.13186	4.231
0.127	4.218
0.1209	4.215
0.1185	4.209
0.1121	4.2
0.1104	4.197
0.1067	4.188
0.1044	4.183
0.1016	4.171
0.09668	4.152
0.09432	4.14
0.09161	4.135
0.08973	4.131
0.08676	4.121
0.0824	4.111
0.07972	4.103
0.07628	4.088
0.07358	4.051
0.07085	3.641
0.06958	3.296
0.06871	2.993
0.06672	2.725
0.06556	2.432
0.06461	2.127
0.06345	1.976
0.06199	1.882
0.05996	1.742
0.05749	1.61
0.05578	1.547
0.05376	1.48
0.05169	1.429
0.04877	1.334
0.04612	1.272
0.04384	1.22
0.04177	1.16
0.03722	1.07
0.03345	0.99
0.01593	0.691
0.00443	0.425
0.00141	0.281
0.00062	0.22
0.00022	0.158
