Adsorption isotherm of Xenon on Vycor Glass
DOI: 10.6028/jres.126.037
Article source: Appendix 4
Adsorbate Xenon: InChIKey FHNFHKCVQCLJFQ-UHFFFAOYSA-N
Kind: experiment
Isotherm type: excess
Temperature: 273 K
Tabular data in the source: 0
pressure (bar)	uptake (mmol/g)
0.00867	0.033
0.05728	0.047
0.0909	0.048
0.15531	0.067
0.21325	0.074
0.26217	0.08
0.30342	0.087
0.38978	0.095
0.4318	0.098
0.48449	0.11
0.52828	0.11
0.59372	0.12
0.66937	0.12
0.73062	0.126
0.76915	0.136
0.8711	0.141
0.93683	0.146
0.99324	0.152
