Adsorption isotherm of Xenon on Vycor Glass
DOI: 10.6028/jres.126.037
Article source: Appendix 4
Adsorbate Xenon: InChIKey FHNFHKCVQCLJFQ-UHFFFAOYSA-N
Kind: experiment
Isotherm type: excess
Temperature: 159 K
Tabular data in the source: 0
pressure (bar)	uptake (mmol/g)
0.00917	0.246
0.015	0.305
0.0277	0.404
0.0417	0.492
0.0555	0.563
0.07485	0.644
0.09347	0.723
0.108	0.785
0.1259	0.847
0.1413	0.905
0.1578	0.958
0.1798	1.04
0.2002	1.12
0.2226	1.2
0.2429	1.293
0.263	1.381
0.2843	1.471
0.3053	1.599
0.3248	1.706
0.3466	1.856
0.3651	2.007
0.3833	2.176
0.3996	2.346
0.4099	2.488
0.6318	4.068
0.6558	4.075
0.6772	4.078
0.68983	4.093
0.6782	4.086
0.6577	4.08
0.6378	4.074
0.6212	4.07
0.5993	4.063
0.5788	4.047
0.5552	4.039
0.5343	4.035
0.5043	4.015
0.482	4.009
0.4667	3.989
0.4487	3.981
0.4316	3.975
0.4161	3.957
0.3987	3.947
0.3822	3.936
0.3665	3.921
0.3537	3.828
0.3459	3.385
0.3315	2.559
0.3247	2.213
0.3166	2.019
0.3086	1.862
0.3024	1.752
0.29	1.644
0.2784	1.538
0.2673	1.465
0.2529	1.361
0.233	1.249
0.2149	1.19
0.1962	1.12
0.1628	0.982
0.1049	0.779
0.0716	0.636
0.0012	0.13
0.0006	0.09
0.1018	0.776
0.1462	0.941
0.188	1.09
0.2312	1.256
0.2735	1.439
0.3144	1.661
0.3531	1.917
0.3904	2.372
0.4229	2.702
0.4432	3.005
0.4514	3.121
0.4728	3.482
0.4852	3.68
0.502	3.885
0.5096	3.933
0.5198	3.99
0.5344	4.026
0.5482	4.039
0.5595	4.049
0.5891	4.07
0.6097	4.079
0.68983	4.122
