Adsorption isotherm of Carbon Dioxide on Vycor Glass
DOI: 10.6028/jres.126.037
Article source: Appendix 4
Adsorbate Carbon Dioxide: InChIKey CURLTUGMZLYLDI-UHFFFAOYSA-N
Kind: experiment
Isotherm type: excess
Temperature: 186 K
Tabular data in the source: 0
pressure (bar)	uptake (mmol/g)
0.3105	2.01
0.3735	2.16
0.4069	2.25
0.442	2.36
0.479	2.48
0.5161	2.6
0.5173	2.62
0.4997	2.56
0.4897	2.52
0.4761	2.47
0.4651	2.43
0.4552	2.41
0.4363	2.35
0.4214	2.31
0.404	2.25
0.3806	2.19
0.3579	2.13
0.3369	2.08
0.3133	2.03
0.2917	1.98
0.2716	1.93
0.2528	1.88
0.2333	1.84
0.2178	1.8
0.2029	1.76
0.1837	1.71
0.159	1.65
0.1362	1.6
0.09934	1.48
0.06269	1.31
0.02357	1.04
0.00512	0.734
0.000758	0.527
0.00641	0.764
0.01863	0.966
0.03164	1.09
0.05729	1.27
0.08541	1.39
0.1396	1.58
0.2376	1.84
0.5176	2.63
