Adsorption isotherm of Krypton on Vycor Glass
DOI: 10.6028/jres.126.037
Article source: Appendix 4
Adsorbate Krypton: InChIKey DNNSSWSSYDEUBZ-UHFFFAOYSA-N
Kind: experiment
Isotherm type: excess
Temperature: 138 K
Tabular data in the source: 0
pressure (bar)	uptake (mmol/g)
0.03524	0.457
0.06051	0.542
0.07596	0.589
0.09489	0.624
0.1241	0.682
0.1518	0.748
0.1842	0.802
0.2239	0.86
0.2506	0.897
0.2794	0.934
0.3044	0.965
0.3482	1.01
0.4088	1.07
0.4696	1.13
0.5131	1.18
0.562	1.23
0.6193	1.27
0.6708	1.32
0.7219	1.36
0.7755	1.4
0.842	1.46
0.8736	1.49
0.9395	1.53
