Adsorption isotherm of Carbon Dioxide on Vycor Glass
DOI: 10.6028/jres.126.037
Article source: Appendix 4
Adsorbate Carbon Dioxide: InChIKey CURLTUGMZLYLDI-UHFFFAOYSA-N
Kind: experiment
Isotherm type: excess
Temperature: 160 K
Tabular data in the source: 0
pressure (bar)	uptake (mmol/g)
0.03608	1.98
0.03337	1.92
0.0314	1.88
0.02934	1.84
0.02761	1.8
0.02598	1.77
0.02287	1.71
0.02023	1.66
0.0178	1.61
0.01567	1.57
0.0123	1.47
0.0101	1.4
0.00365	1.11
0.0011	0.889
1.5e-05	0.531
0.0016	0.989
0.0041	1.18
0.00861	1.37
0.01381	1.53
0.02041	1.68
0.02709	1.81
0.03222	1.91
0.03596	1.98
