Adsorption isotherm of Xenon on Vycor Glass
DOI: 10.6028/jres.126.037
Article source: Appendix 4
Adsorbate Xenon: InChIKey FHNFHKCVQCLJFQ-UHFFFAOYSA-N
Kind: experiment
Isotherm type: excess
Temperature: 192 K
Tabular data in the source: 0
pressure (bar)	uptake (mmol/g)
0.73385	0.77
0.76484	0.785
0.81408	0.816
0.8624	0.848
0.88447	0.853
0.82244	0.821
0.76427	0.791
0.71373	0.757
0.66124	0.732
0.61255	0.705
0.56814	0.675
0.52716	0.644
0.48916	0.621
0.4537	0.607
0.42086	0.586
0.39021	0.556
0.36181	0.538
0.31132	0.502
0.26764	0.467
0.22991	0.435
0.19773	0.409
0.15764	0.368
0.1259	0.334
0.08705	0.298
0.0583	0.247
0.04412	0.223
0.02837	0.187
0.00881	0.129
0.0026	0.088
0.0102	0.135
0.02081	0.162
0.0441	0.211
0.07361	0.271
0.1019	0.315
0.14579	0.36
0.16437	0.373
0.21145	0.419
0.2649	0.465
0.29403	0.492
0.34001	0.528
0.36746	0.54
0.4397	0.59
0.48091	0.621
0.55333	0.658
0.5873	0.683
0.65871	0.728
0.70424	0.757
0.75058	0.779
0.78712	0.798
