Adsorption isotherm of Xenon on Vycor Glass
DOI: 10.6028/jres.126.037
Article source: Appendix 4
Adsorbate Xenon: InChIKey FHNFHKCVQCLJFQ-UHFFFAOYSA-N
Kind: experiment
Isotherm type: excess
Temperature: 131 K
Tabular data in the source: 0
pressure (bar)	uptake (mmol/g)
0.060787	4.287
0.00444	0.584
0.008389	0.758
0.01822	1.12
0.03129	1.675
0.04453	2.762
0.05473	4.069
0.060787	4.272
0.05286	4.25
0.04941	4.241
0.04446	4.206
0.03977	4.182
0.03769	4.154
0.03574	4.104
0.03403	3.931
0.03277	3.521
0.03172	2.956
0.03111	2.42
0.02941	2.033
0.02799	1.803
0.02686	1.657
0.02555	1.538
0.02433	1.447
0.02301	1.366
0.02187	1.308
0.02076	1.25
0.01975	1.18
0.01794	1.13
0.01614	1.05
0.01614	0.955
0.01151	0.874
0.00617	0.655
0.00315	0.504
0.00185	0.414
0.00012	0.34
0.00489	0.602
0.01079	0.847
0.01811	1.11
0.02025	1.18
0.02216	1.254
0.02518	1.37
0.0279	1.485
0.03044	1.605
0.03617	1.934
0.03922	2.197
0.04122	2.373
0.04377	2.663
0.04638	2.963
0.04863	3.308
0.05109	3.644
0.05382	3.973
0.05536	4.126
0.05771	4.198
0.06034	4.258
0.060787	4.287
