Adsorption isotherm of Xenon on Vycor Glass
DOI: 10.6028/jres.126.037
Article source: Appendix 4
Adsorbate Xenon: InChIKey FHNFHKCVQCLJFQ-UHFFFAOYSA-N
Kind: experiment
Isotherm type: excess
Temperature: 183 K
Tabular data in the source: 0
pressure (bar)	uptake (mmol/g)
0.01599	0.169
0.03573	0.245
0.07287	0.326
0.1092	0.386
0.14139	0.427
0.18302	0.482
0.23502	0.545
0.2793	0.592
0.3188	0.637
0.35077	0.663
0.39675	0.712
0.4482	0.758
0.50281	0.806
0.5507	0.846
0.59466	0.883
0.63619	0.92
0.89023	1.14
0.89809	1.15
0.8637	1.12
0.82836	1.09
0.78682	1.05
0.73087	1.01
0.67834	0.957
0.62952	0.919
0.5839	0.877
0.54142	0.84
0.50265	0.805
0.46623	0.773
0.43127	0.744
0.39909	0.716
0.37109	0.686
0.31999	0.642
0.27582	0.601
0.22032	0.537
0.17723	0.486
0.125	0.418
0.07219	0.329
0.03305	0.237
0.0125	0.164
0.00337	0.11
0.65813	0.94
0.70565	0.982
0.7315	1.01
