Adsorption isotherm of Krypton on Vycor Glass
DOI: 10.6028/jres.126.037
Article source: Appendix 4
Adsorbate Krypton: InChIKey DNNSSWSSYDEUBZ-UHFFFAOYSA-N
Kind: experiment
Isotherm type: excess
Temperature: 128 K
Tabular data in the source: 0
pressure (bar)	uptake (mmol/g)
0.00879	0.422
0.0235	0.56
0.03816	0.645
0.05466	0.726
0.06962	0.792
0.0973	0.872
0.1142	0.924
0.1411	0.992
0.1656	1.05
0.1958	1.11
0.2404	1.2
0.282	1.28
0.3275	1.36
0.3827	1.45
0.4345	1.53
0.4802	1.6
0.5261	1.67
0.5613	1.73
0.6167	1.82
0.6628	1.9
0.734	2.026
0.7932	2.146
0.8274	2.214
0.8594	2.284
0.915	2.422
0.9376	2.48
0.9963	2.689
0.9307	2.482
0.8656	2.317
0.7679	2.098
0.6789	1.94
