Adsorption isotherm of Xenon on Vycor Glass
DOI: 10.6028/jres.126.037
Article source: Appendix 4
Adsorbate Xenon: InChIKey FHNFHKCVQCLJFQ-UHFFFAOYSA-N
Kind: experiment
Isotherm type: excess
Temperature: 121 K
Tabular data in the source: 0
pressure (bar)	uptake (mmol/g)
2e-05	0.184
0.002692	0.767
0.004984	1.04
0.0012	0.57
0.0025	0.76
0.004265	0.947
0.006269	1.16
0.01002	1.638
0.01572	3.236
0.01698	4.093
0.01754	4.335
0.01869	4.472
0.01913	4.495
0.019229	4.507
0.0002	0.334
0.004077	0.934
0.00079	0.501
0.01335	2.268
0.01501	2.893
0.01662	3.973
0.019229	4.507
0.01869	4.49
0.01867	4.493
0.01802	4.485
0.01704	4.482
0.01618	4.478
0.01532	4.467
0.01385	4.45
0.0012	0.585
0.003671	0.901
0.004827	1.03
0.007134	1.278
0.008474	1.424
0.01026	1.657
0.01147	1.868
0.01265	2.093
0.01379	2.385
0.01445	2.62
0.0152	2.955
0.01568	3.21
0.01622	3.502
0.01672	3.917
0.01695	4.03
0.01735	4.23
0.01798	4.422
0.01861	4.475
0.019229	4.493
0.01854	4.482
0.01741	4.48
0.01642	4.471
0.01403	4.445
0.01268	4.427
0.01199	4.404
0.01085	4.37
0.01018	4.345
0.009959	4.399
0.00984	3.848
0.009799	3.445
0.00972	3.076
0.009655	2.815
0.009761	2.259
0.009759	2.048
