Adsorption isotherm of Carbon Dioxide on Vycor Glass
DOI: 10.6028/jres.126.037
Article source: Appendix 4
Adsorbate Carbon Dioxide: InChIKey CURLTUGMZLYLDI-UHFFFAOYSA-N
Kind: experiment
Isotherm type: excess
Temperature: 194 K
Tabular data in the source: 0
pressure (bar)	uptake (mmol/g)
0.17	1.52
0.2373	1.63
0.3059	1.74
0.5374	2.04
0.5732	2.16
0.6095	2.22
0.692	2.33
0.7949	2.53
0.8547	2.66
0.9384	2.89
0.971	3.02
1.01	3.18
0.9968	3.11
0.1707	1.5
0.2542	1.67
0.3194	1.78
0.3709	1.84
0.4121	1.9
0.4443	1.94
0.4703	1.99
0.4909	2.03
0.5076	2.06
0.5214	2.08
0.5474	2.12
0.5906	2.18
0.6454	2.25
0.7005	2.33
0.763	2.45
0.8032	2.55
0.8348	2.62
0.8896	2.74
0.9285	2.86
0.9818	3.03
1.001	3.12
1.015	3.17
1.004	3.12
0.9772	3.04
0.9415	2.93
0.8983	2.8
0.8513	2.66
0.8141	2.57
0.7688	2.48
0.01469	0.848
0.02289	0.911
0.00509	0.657
0.000583	0.45
0.01	0.767
0.03353	1.01
0.05662	1.13
0.07343	1.21
0.09358	1.29
0.107	1.34
0.1364	1.42
0.1536	1.47
0.1952	1.55
