Adsorption isotherm of Xenon on Vycor Glass
DOI: 10.6028/jres.126.037
Article source: Appendix 4
Adsorbate Xenon: InChIKey FHNFHKCVQCLJFQ-UHFFFAOYSA-N
Kind: experiment
Isotherm type: excess
Temperature: 116 K
Tabular data in the source: 0
pressure (bar)	uptake (mmol/g)
1e-05	0.314
0.00047	0.66
0.00135	0.88
0.00287	1.16
0.00395	1.368
0.00485	1.563
0.00628	1.908
0.00682	2.102
0.00709	2.25
0.00752	2.485
0.0079	2.736
0.00823	3.026
0.00862	3.398
0.00879	3.776
0.00912	4.125
0.00947	4.445
0.01031	4.575
