Adsorption isotherm of Krypton on Vycor Glass
DOI: 10.6028/jres.126.037
Article source: Appendix 4
Adsorbate Krypton: InChIKey DNNSSWSSYDEUBZ-UHFFFAOYSA-N
Kind: experiment
Isotherm type: excess
Temperature: 150 K
Tabular data in the source: 0
pressure (bar)	uptake (mmol/g)
0.005826	0.17
0.0254	0.273
0.03658	0.306
0.04816	0.341
0.1234	0.486
0.1416	0.508
0.165	0.54
0.1876	0.562
0.227	0.597
0.2552	0.622
0.3019	0.668
0.3472	0.697
0.3868	0.74
0.4561	0.773
0.528	0.825
0.5585	0.841
0.617	0.874
0.6667	0.891
0.7318	0.907
0.7931	0.957
0.8578	0.984
0.8827	1.01
0.9074	1.02
0.9397	1.04
