Adsorption isotherm of Carbon Dioxide on Fe[trans-Py2(F3- ph)2Por]·Cl·2DMF
DOI: 10.1016/j.inoche.2015.03.033
Article source: Figure  5
Adsorbate Carbon Dioxide: InChIKey CURLTUGMZLYLDI-UHFFFAOYSA-N
Kind: experiment
Temperature: 273 K
Tabular data in the source: 0
pressure (bar)	uptake (ml/g)
0.029251	0.763
0.076887	3.269
0.113004	4.59
0.148388	5.868
0.185051	7.041
0.221542	8.206
0.254872	9.167
0.293203	10.354
0.3282	11.287
0.363743	12.248
0.400034	13.195
0.435777	14.099
0.472241	14.99
0.507052	15.852
0.544262	16.735
0.579259	17.485
0.616283	18.305
0.65108	19.061
0.686264	19.797
0.72402	20.525
0.759564	21.253
0.794548	21.939
0.829905	22.618
0.865995	23.297
0.901539	23.99
0.93819	24.725
0.975026	25.376
1.01038	26.034
