Adsorption isotherm of Carbon Dioxide on Co[trans-Py2(Me2N,F2-ph)2Por]Â·3DMF
DOI: 10.1016/j.inoche.2015.03.033
Article source: Figure  5
Adsorbate Carbon Dioxide: InChIKey CURLTUGMZLYLDI-UHFFFAOYSA-N
Kind: experiment
Temperature: 273 K
Tabular data in the source: 0
pressure (bar)	uptake (ml/g)
0.031864	1.398
0.078567	3.721
0.113951	5.161
0.149334	6.559
0.185078	7.866
0.221568	9.095
0.255646	10.225
0.293056	11.299
0.32768	12.345
0.364157	13.32
0.401554	14.295
0.436737	15.214
0.473214	16.097
0.508198	16.945
0.543569	17.758
0.579846	18.543
0.616683	19.313
0.652786	20.112
0.687037	20.861
0.723127	21.505
0.758858	22.226
0.795508	22.912
0.830678	23.626
0.866035	24.256
0.902126	24.935
0.938776	25.586
0.974507	26.229
1.01078	26.894
