Adsorption isotherm of Hydrogen on Co[trans-Py2(Me2N,F2-ph)2Por]Â·3DMF
DOI: 10.1016/j.inoche.2015.03.033
Article source: Figure  4
Adsorbate Hydrogen: InChIKey UFHFLCQGNIYNRP-UHFFFAOYSA-N
Kind: experiment
Temperature: 77 K
Tabular data in the source: 0
pressure (bar)	uptake (ml/g)
0.006026	12.193
0.016852	19.048
0.020732	24.559
0.029198	26.987
0.040477	29.473
0.064568	33.902
0.085406	37.131
0.112764	39.191
0.154454	41.623
0.157707	42.042
0.182465	44.682
0.222862	46.686
0.242393	47.659
0.248473	49.088
0.271284	49.804
0.310801	51.523
0.337079	54.111
0.337292	54.153
0.36357	55.698
0.403087	57.017
0.429791	58.991
0.431525	60.076
0.451296	60.935
0.493413	63.425
0.517304	64.656
0.520117	65.969
0.546182	67.572
0.586792	70.033
0.608497	71.435
0.634121	74.065
0.655399	75.524
0.676464	75.641
0.699049	78.899
0.727713	79.588
0.746379	81.018
0.772443	81.335
0.800467	82.053
0.814146	83.511
0.824346	83.912
0.837158	85.113
0.859303	86.543
0.913818	88.435
0.957895	90.553
0.972013	91.926
1.00328	93.672
1.03065	94.96
1.04758	96.676
1.08754	97.994
1.13771	100.513
1.17528	101.717
