Adsorption isotherm of Hydrogen on Ni[trans-Py2(Me2N,F2-ph)2Por]Â·3DMF
DOI: 10.1016/j.inoche.2015.03.033
Article source: Figure  4
Adsorbate Hydrogen: InChIKey UFHFLCQGNIYNRP-UHFFFAOYSA-N
Kind: experiment
Temperature: 77 K
Tabular data in the source: 0
pressure (bar)	uptake (ml/g)
0.008853	10.477
0.015319	18.613
0.022238	24.837
0.03829	31.662
0.061502	38.517
0.08518	43.174
0.111244	46.776
0.134496	49.578
0.155574	51.98
0.181212	54.44
0.201423	56.072
0.225981	57.675
0.24814	59.393
0.270964	60.853
0.294429	62.285
0.315307	63.289
0.339865	64.635
0.362464	65.668
0.385502	66.672
0.406153	67.732
0.429845	68.365
0.45159	69.454
0.476801	70.145
0.500932	71.434
0.52353	72.096
0.545928	73.157
0.567233	73.761
0.590485	74.479
0.614829	75.141
0.634614	75.944
0.656786	76.663
0.679611	76.981
0.701569	77.471
0.747005	78.765
0.791562	79.945
0.839398	81.04
0.868529	81.703
0.917871	82.684
0.933737	83.458
0.961348	84.063
1.00634	85.015
1.05287	85.824
1.08612	86.744
1.14309	87.898
1.1744	88.59
