Adsorption isotherm of Hydrogen on Fe[trans-Py2(F3- ph)2Por]·Cl·2DMF
DOI: 10.1016/j.inoche.2015.03.033
Article source: Figure  4
Adsorbate Hydrogen: InChIKey UFHFLCQGNIYNRP-UHFFFAOYSA-N
Kind: experiment
Temperature: 77 K
Tabular data in the source: 0
pressure (bar)	uptake (ml/g)
0.004266	12.645
0.012039	22.979
0.016012	32.195
0.016545	31.885
0.040783	50.1
0.068754	60.981
0.095459	68.237
0.108698	71.893
0.133882	77.093
0.155827	80.751
0.180585	84.581
0.202743	87.954
0.226208	90.699
0.248153	93.729
0.270738	96.074
0.292683	98.505
0.316161	100.622
0.338532	102.682
0.363317	104.571
0.385475	106.288
0.4083	107.892
0.429818	109.152
0.453069	110.756
0.476547	111.959
0.498052	113.391
0.519144	114.366
0.543049	115.77
0.56566	116.945
0.588258	118.006
0.612603	118.81
0.633908	119.871
0.657386	121.217
0.679984	122.021
0.701076	122.853
0.746499	124.404
0.790842	125.927
0.840624	127.678
0.869968	128.37
0.916925	130.035
0.960828	131.643
0.997358	132.707
1.10104	135.269
1.13452	136.218
1.18192	137.37
