Adsorption isotherm of Carbon Dioxide on Ni[trans-Py2(Me2N,F2-ph)2Por]Â·3DMF
DOI: 10.1016/j.inoche.2015.03.033
Article source: Figure  5
Adsorbate Carbon Dioxide: InChIKey CURLTUGMZLYLDI-UHFFFAOYSA-N
Kind: experiment
Temperature: 273 K
Tabular data in the source: 0
pressure (bar)	uptake (ml/g)
0.004626	0.184
0.031891	2.082
0.036344	2.39
0.040983	2.633
0.07898	4.779
0.113444	6.565
0.149948	8.231
0.185518	9.636
0.221462	11.027
0.256472	12.376
0.293509	13.492
0.327946	14.651
0.36425	15.753
0.4011	16.834
0.437764	17.788
0.473308	18.798
0.508865	19.667
0.544969	20.544
0.580699	21.434
0.616243	22.184
0.652346	23.102
0.688077	23.866
0.723061	24.608
0.759538	25.449
0.795068	26.128
0.830612	26.842
0.866902	27.542
0.902259	28.228
0.938536	28.978
0.974453	29.72
1.0111	30.42
