Adsorption isotherm of Carbon monoxide on Zeolite 10X
DOI: 10.1021/je00024a002
Article source: Table I
Adsorbate Carbon monoxide: InChIKey UGFAIRIUMAVXCW-UHFFFAOYSA-N
Kind: experiment
Temperature: 32 K
Tabular data in the source: 0
pressure (bar)	uptake (cm3(STP)/g)
0.002666	0.38
0.005466	0.99
0.010399	1.78
0.018265	2.72
0.030397	3.72
0.03973	4.29
0.050263	5.68
0.051196	4.98
0.070528	6.6
0.091992	7.45
0.111591	8.2
0.133189	8.81
0.171986	9.89
0.194517	10.47
0.268778	12.03
0.304108	12.65
0.398234	14.31
0.463029	15.32
0.530756	16.26
0.595818	17.24
0.662212	17.98
0.722874	18.83
0.796068	19.56
0.860463	20.45
0.929657	21.08
0.995785	21.9
1.06285	22.42
1.12817	23.19
1.19737	23.73
1.2611	24.42
1.32856	24.89
1.39362	25.61
1.46001	26.13
1.59294	27.16
1.72573	28.15
1.86291	29.16
1.92438	29.52
1.99144	30.05
2.05556	30.41
