Adsorption isotherm of Nitrogen on Zeolite 10X
DOI: 10.1021/je00024a002
Article source: Table I
Adsorbate Nitrogen: InChIKey IJGRMHOSHXDMSA-UHFFFAOYSA-N
Kind: experiment
Temperature: -150 K
Tabular data in the source: 0
pressure (bar)	uptake (cm3(STP)/g)
0.013199	15.4
0.070794	28.8
0.166253	40.5
0.305842	50.4
0.480227	58.4
0.706075	65.3
0.959921	70.9
1.28936	76.2
1.64213	80.3
1.98064	83.4
2.26355	85.7
2.52793	87.3
