Adsorption isotherm of Nitrogen on Zeolite 10X
DOI: 10.1021/je00024a002
Article source: Table I
Adsorbate Nitrogen: InChIKey IJGRMHOSHXDMSA-UHFFFAOYSA-N
Kind: experiment
Temperature: -50 K
Tabular data in the source: 0
pressure (bar)	uptake (cm3(STP)/g)
0.028664	3.4
0.054662	5.1
0.085593	6.7
0.121723	8.2
0.162253	9.7
0.199317	10.7
0.225581	11.4
0.264378	12.3
0.264645	12.6
0.32904	14.1
0.398901	15.3
0.461295	16.8
0.53009	17.8
0.597817	19.3
0.662612	20.1
0.73234	21.5
0.795401	22
0.864862	23.4
0.931657	24
0.997118	25.2
1.06311	25.7
1.13057	26.9
1.19737	27.2
1.26443	28.4
1.33256	28.8
1.39669	29.9
1.46308	30.2
1.53014	31.1
1.59387	31.4
1.66093	32.3
1.72812	32.7
1.79252	33.5
1.86065	33.8
1.92877	34.7
1.99317	34.9
2.05823	35.7
2.12396	36.3
