Adsorption isotherm of Nitrogen, Oxygen on Zeolite 10X
DOI: 10.1021/je00024a002
Article source: Table 2
Adsorbate Nitrogen: InChIKey IJGRMHOSHXDMSA-UHFFFAOYSA-N
Adsorbate Oxygen: InChIKey MYMOFIZGZYHOMD-UHFFFAOYSA-N
Kind: experiment
Temperature: -50 K
Tabular data in the source: 0
pressure (bar)	Nitrogen fraction	Nitrogen uptake (cm3(STP)/g)	Oxygen fraction	Oxygen uptake (cm3(STP)/g)	total uptake (cm3(STP)/g)
1.01325	0.953	23.859	0.047	0.241	24.1
1.01325	0.867	22.989	0.133	0.711	23.7
1.01325	0.731	21.0825	0.269	1.4175	22.5
1.01325	0.609	19.0209	0.391	2.2791	21.3
1.01325	0.552	17.9632	0.448	2.6368	20.6
1.01325	0.35	14.196	0.65	4.004	18.2
1.01325	0.22	11.2668	0.78	5.1332	16.4
1.01325	0.249	11.084	0.751	5.216	16.3
1.01325	0.165	8.439	0.835	6.061	14.5
1.01325	0.086	5.27	0.914	7.13	12.4
1.01325	0.039	3.1828	0.961	7.7172	10.9
1.01325	0.033	2.3192	0.967	8.0808	10.4
1.01325	0.013	0.7896	0.987	8.6104	9.4
