Adsorption isotherm of Oxygen, Carbon monoxide on Zeolite 10X
DOI: 10.1021/je00024a002
Article source: Table 2
Adsorbate Oxygen: InChIKey MYMOFIZGZYHOMD-UHFFFAOYSA-N
Adsorbate Carbon monoxide: InChIKey UGFAIRIUMAVXCW-UHFFFAOYSA-N
Kind: experiment
Temperature: -150 K
Tabular data in the source: 0
pressure (bar)	Oxygen fraction	Oxygen uptake (cm3(STP)/g)	Carbon monoxide fraction	Carbon monoxide uptake (cm3(STP)/g)	total uptake (cm3(STP)/g)
1.01325	0.286	4.692	0.714	87.308	92
1.01325	0.366	6.1676	0.634	84.5324	90.7
1.01325	0.43	7.128	0.57	81.972	89.1
1.01325	0.434	7.74	0.566	82.26	90
1.01325	0.506	9.167	0.494	79.833	89
1.01325	0.562	10.4958	0.438	77.7042	88.2
1.01325	0.624	11.7368	0.376	74.5632	86.3
1.01325	0.677	13.1054	0.323	71.9946	85.1
1.01325	0.689	13.9691	0.311	71.7309	85.7
1.01325	0.728	14.784	0.272	69.216	84
1.01325	0.777	16.6364	0.223	66.9636	83.6
1.01325	0.798	17.056	0.202	64.944	82
1.01325	0.831	19.04	0.169	60.96	80
1.01325	0.936	26.2088	0.064	46.1912	72.4
1.01325	0.987	33.9624	0.013	29.6376	63.6
1.01325	0.994	41.8488	0.006	14.5512	56.4
