Adsorption isotherm of Nitrogen on Zeolite 10X
DOI: 10.1021/je00024a002
Article source: Table I
Adsorbate Nitrogen: InChIKey IJGRMHOSHXDMSA-UHFFFAOYSA-N
Kind: experiment
Temperature: 32 K
Tabular data in the source: 0
pressure (bar)	uptake (cm3(STP)/g)
0.013466	0.3
0.024265	0.52
0.03613	0.75
0.053996	1.11
0.066395	1.3
0.099858	1.82
0.121057	2.18
0.134922	2.29
0.198917	3.15
0.265312	4.02
0.32744	4.63
0.399567	5.37
0.465695	6.01
0.531023	6.6
0.595418	7.17
0.663945	7.76
0.730073	8.25
0.796468	8.76
0.860463	9.31
0.929257	9.8
0.995385	10.28
1.06218	10.75
1.12817	11.2
1.1947	11.61
1.26176	12.04
1.32816	12.29
1.39495	12.69
1.46241	13.19
1.52774	13.56
1.59294	13.92
1.59494	13.97
1.65893	14.31
1.72639	14.67
1.79625	15.05
1.85891	15.36
1.92397	15.62
1.99144	15.98
2.05756	16.41
2.12462	16.69
