Adsorption isotherm of Oxygen on Zeolite 10X
DOI: 10.1021/je00024a002
Article source: Table I
Adsorbate Oxygen: InChIKey MYMOFIZGZYHOMD-UHFFFAOYSA-N
Kind: experiment
Temperature: -150 K
Tabular data in the source: 0
pressure (bar)	uptake (cm3(STP)/g)
0.070128	7.5
0.167186	13.8
0.276111	19.8
0.389168	25.4
0.52329	31.5
0.649813	36.9
0.780602	42.1
0.914858	47
1.06658	52.4
1.2507	58.1
1.43441	62.2
1.6316	68
