Adsorption isotherm of Oxygen, Carbon monoxide on Zeolite 10X
DOI: 10.1021/je00024a002
Article source: Table 2
Adsorbate Oxygen: InChIKey MYMOFIZGZYHOMD-UHFFFAOYSA-N
Adsorbate Carbon monoxide: InChIKey UGFAIRIUMAVXCW-UHFFFAOYSA-N
Kind: experiment
Temperature: -50 K
Tabular data in the source: 0
pressure (bar)	Oxygen fraction	Oxygen uptake (cm3(STP)/g)	Carbon monoxide fraction	Carbon monoxide uptake (cm3(STP)/g)	total uptake (cm3(STP)/g)
1.01325	0.041	0	0.959	43.3	43.3
1.01325	0.116	0	0.884	42.4	42.4
1.01325	0.214	0	0.786	41.3	41.3
1.01325	0.379	0	0.621	39	39
1.01325	0.494	0	0.506	36.7	36.7
1.01325	0.589	0	0.411	34.6	34.6
1.01325	0.698	0	0.302	31.9	31.9
1.01325	0.785	0	0.215	29.6	29.6
1.01325	0.834	0	0.166	27.6	27.6
1.01325	0.96	0	0.04	15.5	15.5
1.01325	0.977	0	0.023	13.2	13.2
1.01325	0.989	0	0.011	11.7	11.7
1.01325	0.99	0	0.01	11	11
1.01325	0.997	0	0.003	9.7	9.7
