Adsorption isotherm of Carbon monoxide on Zeolite 10X
DOI: 10.1021/je00024a002
Article source: Table I
Adsorbate Carbon monoxide: InChIKey UGFAIRIUMAVXCW-UHFFFAOYSA-N
Kind: experiment
Temperature: -150 K
Tabular data in the source: 0
pressure (bar)	uptake (cm3(STP)/g)
0.005733	21.5
0.024931	42
0.104258	59.3
0.263712	73.2
0.506492	83.6
0.818733	90.9
1.18284	96.2
1.32989	97.8
1.62667	100.5
2.02957	103.3
2.31688	104.9
2.64152	106.6
