Adsorption isotherm of Nitrogen, Carbon monoxide on Zeolite 10X
DOI: 10.1021/je00024a002
Article source: Table 2
Adsorbate Nitrogen: InChIKey IJGRMHOSHXDMSA-UHFFFAOYSA-N
Adsorbate Carbon monoxide: InChIKey UGFAIRIUMAVXCW-UHFFFAOYSA-N
Kind: experiment
Temperature: 32 K
Tabular data in the source: 0
pressure (bar)	Nitrogen fraction	Nitrogen uptake (cm3(STP)/g)	Carbon monoxide fraction	Carbon monoxide uptake (cm3(STP)/g)	total uptake (cm3(STP)/g)
1.01325	0.04	0.1908	0.96	21.0092	21.2
1.01325	0.328	1.9008	0.672	17.2992	19.2
1.01325	0.505	2.9568	0.495	14.6432	17.6
1.01325	0.632	3.894	0.368	12.606	16.5
1.01325	0.717	4.7414	0.283	10.9586	15.7
1.01325	0.749	5.0064	0.251	9.8936	14.9
1.01325	0.778	5.4981	0.222	9.4019	14.9
1.01325	0.832	6.0624	0.168	8.3376	14.4
1.01325	0.843	6.1438	0.157	7.7562	13.9
1.01325	0.885	6.7298	0.115	6.5702	13.3
1.01325	0.89	6.968	0.11	6.432	13.4
1.01325	0.922	7.3728	0.078	5.4272	12.8
1.01325	0.924	7.4752	0.076	5.3248	12.8
1.01325	0.938	7.9212	0.062	4.3788	12.3
1.01325	0.959	8.3248	0.041	3.7752	12.1
1.01325	0.968	8.6394	0.032	3.2606	11.9
