Adsorption isotherm of Oxygen, Carbon monoxide on Zeolite 10X
DOI: 10.1021/je00024a002
Article source: Table 2
Adsorbate Oxygen: InChIKey MYMOFIZGZYHOMD-UHFFFAOYSA-N
Adsorbate Carbon monoxide: InChIKey UGFAIRIUMAVXCW-UHFFFAOYSA-N
Kind: experiment
Temperature: 32 K
Tabular data in the source: 0
pressure (bar)	Oxygen fraction	Oxygen uptake (cm3(STP)/g)	Carbon monoxide fraction	Carbon monoxide uptake (cm3(STP)/g)	total uptake (cm3(STP)/g)
1.01325	0.082	0.3519	0.918	20.3481	20.7
1.01325	0.278	0.752	0.722	18.048	18.8
1.01325	0.511	1.3529	0.489	14.9471	16.3
1.01325	0.71	1.9176	0.29	11.6824	13.6
1.01325	0.832	2.3316	0.168	9.2684	11.6
1.01325	0.892	2.5956	0.108	7.7044	10.3
1.01325	0.921	2.8086	0.079	6.4914	9.3
1.01325	0.946	2.8982	0.054	5.7018	8.6
1.01325	0.962	2.8368	0.038	4.3632	7.2
1.01325	0.984	3.016	0.016	2.784	5.8
1.01325	0.987	3.175	0.013	1.825	5
1.01325	0.992	3.2185	0.008	0.8815	4.1
