Adsorption isotherm of Nitrogen, Carbon monoxide on Zeolite 10X
DOI: 10.1021/je00024a002
Article source: Table 2
Adsorbate Nitrogen: InChIKey IJGRMHOSHXDMSA-UHFFFAOYSA-N
Adsorbate Carbon monoxide: InChIKey UGFAIRIUMAVXCW-UHFFFAOYSA-N
Kind: experiment
Temperature: -50 K
Tabular data in the source: 0
pressure (bar)	Nitrogen fraction	Nitrogen uptake (cm3(STP)/g)	Carbon monoxide fraction	Carbon monoxide uptake (cm3(STP)/g)	total uptake (cm3(STP)/g)
1.01325	0.061	0	0.939	43.7	43.7
1.01325	0.151	0	0.849	42.8	42.8
1.01325	0.246	0	0.754	41.8	41.8
1.01325	0.399	0	0.601	39.9	39.9
1.01325	0.585	0	0.415	37.3	37.3
1.01325	0.61	0	0.39	36.8	36.8
1.01325	0.699	0	0.301	35.5	35.5
1.01325	0.786	0	0.214	33.7	33.7
1.01325	0.841	0	0.159	32.6	32.6
1.01325	0.873	0	0.127	31.7	31.7
1.01325	0.869	0	0.131	31.2	31.2
1.01325	0.948	0	0.052	27.8	27.8
1.01325	0.982	0	0.018	25.8	25.8
1.01325	0.992	0	0.008	25.5	25.5
