Adsorption isotherm of Oxygen on Zeolite 10X
DOI: 10.1021/je00024a002
Article source: Table I
Adsorbate Oxygen: InChIKey MYMOFIZGZYHOMD-UHFFFAOYSA-N
Kind: experiment
Temperature: -50 K
Tabular data in the source: 0
pressure (bar)	uptake (cm3(STP)/g)
0.022265	0.2
0.03813	0.4
0.057329	0.6
0.072794	0.8
0.108924	1.1
0.110924	1.2
0.144655	1.5
0.145321	1.5
0.182385	1.9
0.202383	2.1
0.248913	2.6
0.332773	3.4
0.399967	4.1
0.467028	4.7
0.53169	5.3
0.601151	5.9
0.664612	6.4
0.732073	7
0.798468	7.6
0.863529	7.9
0.927657	8.8
0.994985	9.3
1.06178	9.9
1.12897	10.3
1.1963	11
1.2611	11.4
1.32749	12
1.39562	12.5
1.46175	13.1
1.52747	13.4
1.59494	14.1
1.65893	14.5
1.72706	15.1
1.79185	15.4
1.86225	16.1
1.92438	16.4
1.99277	17
2.0609	17.4
2.12396	18
