Adsorption isotherm of Nitrogen, Carbon monoxide on Zeolite 10X
DOI: 10.1021/je00024a002
Article source: Table 2
Adsorbate Nitrogen: InChIKey IJGRMHOSHXDMSA-UHFFFAOYSA-N
Adsorbate Carbon monoxide: InChIKey UGFAIRIUMAVXCW-UHFFFAOYSA-N
Kind: experiment
Temperature: -150 K
Tabular data in the source: 0
pressure (bar)	Nitrogen fraction	Nitrogen uptake (cm3(STP)/g)	Carbon monoxide fraction	Carbon monoxide uptake (cm3(STP)/g)	total uptake (cm3(STP)/g)
1.01325	0.256	5.1642	0.744	85.4358	90.6
1.01325	0.469	10.8872	0.531	76.9128	87.8
1.01325	0.498	12.6864	0.502	75.4136	88.1
1.01325	0.621	16.3776	0.379	68.9224	85.3
1.01325	0.724	20.85	0.276	62.55	83.4
1.01325	0.726	22.4316	0.274	61.2684	83.7
1.01325	0.791	24.7338	0.209	57.1662	81.9
1.01325	0.827	27.9105	0.173	52.9895	80.9
1.01325	0.909	38.5033	0.091	39.5967	78.1
1.01325	0.971	54.1647	0.029	20.1353	74.3
