Adsorption isotherm of Carbon monoxide on Zeolite 10X
DOI: 10.1021/je00024a002
Article source: Table I
Adsorbate Carbon monoxide: InChIKey UGFAIRIUMAVXCW-UHFFFAOYSA-N
Kind: experiment
Temperature: -50 K
Tabular data in the source: 0
pressure (bar)	uptake (cm3(STP)/g)
0.003333	1.1
0.0044	2.9
0.006399	5.1
0.006799	7.3
0.009466	7.3
0.016532	9.4
0.021865	10.4
0.029064	11.4
0.039063	12.9
0.046263	13.4
0.053996	14.3
0.064395	15.3
0.074927	16.1
0.098792	17.9
0.12439	19.7
0.156787	21.8
0.195851	23.8
0.234381	25.6
0.267045	27.1
0.332106	29.6
0.398234	31.9
0.452496	33.5
0.531023	36
0.597551	37.2
0.664212	39
0.73034	40.2
0.796734	41.5
0.862862	42.7
0.925924	43.7
0.993385	44.9
1.06418	45.8
1.12924	46.8
1.19404	47.6
1.26043	48.5
1.32749	49.3
1.39295	50.1
1.46041	51
1.52641	51.4
1.5932	52.3
1.72746	53.5
1.85891	54.7
1.99104	55.8
2.12503	56.8
