Adsorption isotherm of Nitrogen, Oxygen on Zeolite 10X
DOI: 10.1021/je00024a002
Article source: Table 2
Adsorbate Nitrogen: InChIKey IJGRMHOSHXDMSA-UHFFFAOYSA-N
Adsorbate Oxygen: InChIKey MYMOFIZGZYHOMD-UHFFFAOYSA-N
Kind: experiment
Temperature: -150 K
Tabular data in the source: 0
pressure (bar)	Nitrogen fraction	Nitrogen uptake (cm3(STP)/g)	Oxygen fraction	Oxygen uptake (cm3(STP)/g)	total uptake (cm3(STP)/g)
1.01325	1	71.7	0	0	71.7
1.01325	0.815	66.4812	0.185	4.3188	70.8
1.01325	0.577	58.4892	0.423	10.8108	69.3
1.01325	0.483	54.8114	0.517	13.7886	68.6
1.01325	0.372	49.6001	0.628	17.6999	67.3
1.01325	0.303	45.3392	0.697	20.5608	65.9
1.01325	0.168	35.8017	0.832	26.8983	62.7
1.01325	0.084	26.6992	0.916	32.5008	59.2
1.01325	0.03	16.1112	0.97	38.6888	54.8
1.01325	0.005	5.819	0.995	47.081	52.9
