Adsorption isotherm of Oxygen on Zeolite 10X
DOI: 10.1021/je00024a002
Article source: Table I
Adsorbate Oxygen: InChIKey MYMOFIZGZYHOMD-UHFFFAOYSA-N
Kind: experiment
Temperature: 32 K
Tabular data in the source: 0
pressure (bar)	uptake (cm3(STP)/g)
0.066128	0.22
0.080927	0.27
0.095059	0.33
0.095459	0.31
0.106525	0.37
0.11999	0.41
0.134522	0.47
0.154121	0.52
0.187451	0.65
0.199317	0.67
0.265711	0.93
0.331439	1.14
0.398234	1.39
0.462629	1.61
0.530756	1.83
0.597551	2.06
0.662879	2.31
0.730073	2.52
0.796468	2.81
0.862196	2.97
0.929257	3.21
0.994985	3.47
1.06485	3.67
1.12751	3.94
1.19404	4.08
1.2611	4.35
1.32722	4.5
1.39255	4.77
1.45975	5.05
1.52641	5.21
1.5932	5.44
1.66066	5.6
1.72573	5.8
1.79119	5.99
1.86025	6.25
1.92371	6.42
1.99317	6.67
2.05583	6.84
2.12396	7.05
