Adsorption isotherm of Nitrogen, Oxygen on Zeolite 10X
DOI: 10.1021/je00024a002
Article source: Table 2
Adsorbate Nitrogen: InChIKey IJGRMHOSHXDMSA-UHFFFAOYSA-N
Adsorbate Oxygen: InChIKey MYMOFIZGZYHOMD-UHFFFAOYSA-N
Kind: experiment
Temperature: 32 K
Tabular data in the source: 0
pressure (bar)	Nitrogen fraction	Nitrogen uptake (cm3(STP)/g)	Oxygen fraction	Oxygen uptake (cm3(STP)/g)	total uptake (cm3(STP)/g)
1.01325	0.965	10.192	0.035	0.208	10.4
1.01325	0.854	9.2736	0.146	0.3264	9.6
1.01325	0.903	9.7465	0.097	0.3535	10.1
1.01325	0.641	7.6734	0.359	1.0266	8.7
1.01325	0.523	6.9139	0.477	1.3861	8.3
1.01325	0.422	5.7498	0.578	1.6502	7.4
1.01325	0.404	5.698	0.596	1.702	7.4
1.01325	0.316	4.8507	0.684	2.0493	6.9
1.01325	0.206	3.48	0.794	2.32	5.8
1.01325	0.11	2.185	0.89	2.815	5
1.01325	0.05	0.948	0.95	3.052	4
