Adsorption isotherm of Carbon Dioxide, Ethane on MCM-41
DOI: 10.1021/la035047n
Article source: Figure 10b
Adsorbate Carbon Dioxide: InChIKey CURLTUGMZLYLDI-UHFFFAOYSA-N
Adsorbate Ethane: InChIKey OTMSDBZUPAUEDD-UHFFFAOYSA-N
Kind: experiment
Temperature: 264 K
Tabular data in the source: 0
pressure (bar)	Carbon Dioxide fraction	Carbon Dioxide uptake (mmol/g)	Ethane fraction	Ethane uptake (mmol/g)	total uptake (mmol/g)
0.496	0.471	0.564	0.529	0.403	
1.49	0.471	1.13	0.529	0.886	
2.03	0.471	1.33	0.529	1.17	
3.03	0.471	1.69	0.529	1.45	
5.01	0.471	2.3	0.529	1.97	
9.94	0.471	3.46	0.529	2.94	
14.9	0.471	4.07	0.529	3.91	
16.1	0.471	4.99	0.529	4.75	
17.6	0.471	5.19	0.529	4.99	
