Adsorption isotherm of Ethane on MCM-41
DOI: 10.1021/la035047n
Article source: Figure 3
Adsorbate Ethane: InChIKey OTMSDBZUPAUEDD-UHFFFAOYSA-N
Kind: experiment
Temperature: 264 K
Tabular data in the source: 0
pressure (bar)	uptake (mmol/g)
0.0726	0.163
0.254	0.51
1.02	1.39
3.05	2.88
6.46	4.73
8.64	6.16
10.1	7.73
12.7	8.51
17.4	9
