Adsorption isotherm of Carbon Dioxide on MCM-41
DOI: 10.1021/la035047n
Article source: Figure 7
Adsorbate Carbon Dioxide: InChIKey CURLTUGMZLYLDI-UHFFFAOYSA-N
Kind: experiment
Temperature: 264 K
Tabular data in the source: 0
pressure (bar)	uptake (mmol/g)
0.148	0.401
0.517	1.06
1.7	2.48
4.5	4.63
8.67	6.85
12.6	8.86
14.6	10.2
16.4	12.8
19	13.9
