Adsorption isotherm of Carbon Dioxide, Ethane on MCM-41
DOI: 10.1021/la035047n
Article source: Figure 11b
Adsorbate Carbon Dioxide: InChIKey CURLTUGMZLYLDI-UHFFFAOYSA-N
Adsorbate Ethane: InChIKey OTMSDBZUPAUEDD-UHFFFAOYSA-N
Kind: experiment
Temperature: 264 K
Tabular data in the source: 0
pressure (bar)	Carbon Dioxide fraction	Carbon Dioxide uptake (mmol/g)	Ethane fraction	Ethane uptake (mmol/g)	total uptake (mmol/g)
14.88	0.126	1.09	0.874	8.18	
14.88	0.471	4.03	0.529	3.86	
14.88	0.893	9.27	0.107	0.545	
