Adsorption isotherm of Carbon Dioxide, Ethane on MCM-41
DOI: 10.1021/la035047n
Article source: Figure 11a
Adsorbate Carbon Dioxide: InChIKey CURLTUGMZLYLDI-UHFFFAOYSA-N
Adsorbate Ethane: InChIKey OTMSDBZUPAUEDD-UHFFFAOYSA-N
Kind: experiment
Temperature: 264 K
Tabular data in the source: 0
pressure (bar)	Carbon Dioxide fraction	Carbon Dioxide uptake (mmol/g)	Ethane fraction	Ethane uptake (mmol/g)	total uptake (mmol/g)
1.51	0.124	0.272	0.876	1.54	
1.51	0.471	1.09	0.529	0.951	
1.51	0.586	1.36	0.414	0.725	
1.51	0.894	2.04	0.106	0.199	
