Adsorption isotherm of Carbon Dioxide, Ethane on MCM-41
DOI: 10.1021/la035047n
Article source: Figure 10a
Adsorbate Carbon Dioxide: InChIKey CURLTUGMZLYLDI-UHFFFAOYSA-N
Adsorbate Ethane: InChIKey OTMSDBZUPAUEDD-UHFFFAOYSA-N
Kind: experiment
Temperature: 264 K
Tabular data in the source: 0
pressure (bar)	Carbon Dioxide fraction	Carbon Dioxide uptake (mmol/g)	Ethane fraction	Ethane uptake (mmol/g)	total uptake (mmol/g)
1.46	0.1245	0.208	0.8755	1.54	
14.9	0.1245	1.04	0.8755	8.22	
17.6	0.1245	1.25	0.8755	8.39	
