Adsorption isotherm of Neon on Carbon Molecular Sieve Fibers
DOI: 10.1021/jp044110u
Article source: Figure 4
Adsorbate Neon: InChIKey GKAOGPIIYCISHV-UHFFFAOYSA-N
Kind: experiment
Temperature: 208 K
Tabular data in the source: 0
pressure (bar)	uptake (mmol/g)
0.060193	0.001449
0.163775	0.00379
0.33453	0.007301
0.618644	0.012819
0.960092	0.01828
1.11545	0.021457
