Adsorption isotherm of Neon on Carbon Molecular Sieve Fibers
DOI: 10.1021/jp044110u
Article source: Figure 4
Adsorbate Neon: InChIKey GKAOGPIIYCISHV-UHFFFAOYSA-N
Kind: experiment
Temperature: 197 K
Tabular data in the source: 0
pressure (bar)	uptake (mmol/g)
0.056006	0.001672
0.165173	0.00379
0.356937	0.008081
0.70264	0.014992
0.921019	0.020398
