Adsorption isotherm of Neon on Zeolite 4A
DOI: 10.1021/jp044110u
Article source: Figure 3b
Adsorbate Neon: InChIKey GKAOGPIIYCISHV-UHFFFAOYSA-N
Kind: experiment
Temperature: 77 K
Tabular data in the source: 0
pressure (bar)	uptake (mmol/g)
0.061219	0.002232
0.129241	0.00256
0.19046	0.002893
0.278889	0.003965
0.360514	0.004916
0.465948	0.005595
0.588388	0.006768
0.81626	0.008367
0.952303	0.00915
1.08494	0.010189
1.22439	0.011348
1.37403	0.011868
1.53389	0.013012
1.69374	0.01441
1.8876	0.015528
2.07806	0.016649
2.1937	0.017954
2.36375	0.018838
2.55762	0.020336
2.76168	0.022333
2.98274	0.023051
3.20042	0.024278
3.70038	0.027316
3.95886	0.029271
