Adsorption isotherm of Neon on Zeolite 5A
DOI: 10.1021/jp044110u
Article source: Figure 3a
Adsorbate Neon: InChIKey GKAOGPIIYCISHV-UHFFFAOYSA-N
Kind: experiment
Temperature: 77 K
Tabular data in the source: 0
pressure (bar)	uptake (mmol/g)
0.030859	0.077334
0.072018	0.164146
0.126897	0.279895
0.188648	0.395443
0.253835	0.510889
0.325879	0.645695
0.401375	0.760839
0.480299	0.885662
0.562676	0.990825
0.641609	1.10587
0.737714	1.23019
0.8407	1.34453
0.936814	1.45906
1.04324	1.56352
1.15655	1.66778
1.28015	1.78151
1.41407	1.88516
1.58232	2.01714
1.7712	2.14852
1.97041	2.26003
2.21427	2.38002
2.47873	2.51896
2.781	2.64701
3.11078	2.74491
3.47834	2.87104
3.86998	2.97691
