Adsorption isotherm of Neon on Zeolite 5A
DOI: 10.1021/jp044110u
Article source: Figure 3a
Adsorbate Neon: InChIKey GKAOGPIIYCISHV-UHFFFAOYSA-N
Kind: experiment
Temperature: 77 K
Tabular data in the source: 0
pressure (bar)	uptake (mmol/g)
0.027423	0.077435
0.071993	0.193487
0.123435	0.309337
0.181734	0.444545
0.25376	0.598911
0.325812	0.723936
0.397855	0.858742
0.469915	0.973987
0.53853	1.09911
0.607187	1.17534
0.679256	1.2808
0.754769	1.37639
0.830274	1.48175
0.909223	1.57723
1.00191	1.68209
1.10489	1.80621
1.21819	1.91047
1.34178	2.03398
1.51004	2.17574
1.69889	2.32668
1.9324	2.49587
2.21402	2.66364
2.49565	2.82164
2.77386	2.95039
3.04867	3.05969
3.32347	3.15921
3.59829	3.24894
3.8147	3.32083
4.05517	3.39201
