Adsorption isotherm of Helium on Zeolite 5A
DOI: 10.1021/jp044110u
Article source: Figure 5
Adsorbate Helium: InChIKey SWQJXJOGLNCZEY-UHFFFAOYSA-N
Kind: experiment
Temperature: 77 K
Tabular data in the source: 0
pressure (bar)	uptake (mmol/g)
0.001355	0.025352
0.003695	0.095925
0.006528	0.214604
0.009607	0.310594
0.014287	0.465904
0.01909	0.584374
0.024263	0.790623
0.028019	0.909205
