Adsorption isotherm of Neon on Zeolite 4A
DOI: 10.1021/jp044110u
Article source: Figure 3a
Adsorbate Neon: InChIKey GKAOGPIIYCISHV-UHFFFAOYSA-N
Kind: experiment
Temperature: 77 K
Tabular data in the source: 0
pressure (bar)	uptake (mmol/g)
0.082327	0.163844
0.140667	0.250151
0.202427	0.355919
0.27452	0.432043
0.336296	0.51825
0.411802	0.623614
0.490742	0.728877
0.573112	0.843819
0.655497	0.939201
0.744747	1.04416
0.833995	1.14912
0.92669	1.2442
1.02968	1.35854
1.14641	1.46269
1.28031	1.59568
1.452	1.72757
1.64773	1.8783
1.8847	2.03761
2.13882	2.20619
2.40327	2.36469
2.7124	2.50232
3.07305	2.66778
3.46465	2.81276
3.86312	2.95755
4.11733	3.02833
