Adsorption isotherm of Neon on Carbon Molecular Sieve Fibers
DOI: 10.1021/jp044110u
Article source: Figure 4
Adsorbate Neon: InChIKey GKAOGPIIYCISHV-UHFFFAOYSA-N
Kind: experiment
Temperature: 218 K
Tabular data in the source: 0
pressure (bar)	uptake (mmol/g)
0.058788	0.001282
0.160953	0.003177
0.331686	0.006131
0.612964	0.010701
0.962759	0.015048
1.11949	0.017556
