Adsorption isotherm of Neon on Carbon Molecular Sieve Fibers
DOI: 10.1021/jp044110u
Article source: Figure 4
Adsorbate Neon: InChIKey GKAOGPIIYCISHV-UHFFFAOYSA-N
Kind: experiment
Temperature: 186 K
Tabular data in the source: 0
pressure (bar)	uptake (mmol/g)
0.05881	0.001839
0.218426	0.006576
0.425654	0.012874
0.65669	0.020008
0.89753	0.027532
1.053	0.033439
