Adsorption isotherm of Neon on Carbon Molecular Sieve Fibers pre-evacuated at 500C
DOI: 10.1021/jp044110u
Article source: Figure 3a
Adsorbate Neon: InChIKey GKAOGPIIYCISHV-UHFFFAOYSA-N
Kind: experiment
Temperature: 77 K
Tabular data in the source: 0
pressure (bar)	uptake (mmol/g)
0.030741	0.214257
0.07858	0.525812
0.143642	0.787961
0.208728	1.02077
0.280713	1.22404
0.349294	1.38828
0.417892	1.53297
0.500236	1.67725
0.599736	1.85037
0.726734	2.01291
0.850303	2.16576
0.991054	2.31811
1.21422	2.5365
1.46147	2.71506
1.82209	2.91964
2.20334	3.10405
2.62585	3.25791
3.0896	3.41057
3.53276	3.5247
4.0172	3.59851
