Adsorption isotherm of Neon on Zeolite 3A pre-evacuated at 300C
DOI: 10.1021/jp044110u
Article source: Figure 3b
Adsorbate Neon: InChIKey GKAOGPIIYCISHV-UHFFFAOYSA-N
Kind: experiment
Temperature: 77 K
Tabular data in the source: 0
pressure (bar)	uptake (mmol/g)
0.034011	0.002253
0.09523	0.002839
0.153049	0.003428
0.224471	0.00388
0.306097	0.004071
0.37752	0.004397
0.465948	0.004836
0.56798	0.005138
0.680216	0.005559
0.78565	0.005859
0.904687	0.006655
1.02032	0.007073
1.15297	0.007226
1.28221	0.007634
1.43866	0.007895
1.62232	0.007882
1.81617	0.008494
2.01004	0.008726
2.25492	0.00968
2.87391	0.011488
3.53032	0.013268
3.94185	0.016626
4.13911	0.016983
