Adsorption isotherm of Neon on Zeolite 5A
DOI: 10.1021/jp044110u
Article source: Figure 3b
Adsorbate Neon: InChIKey GKAOGPIIYCISHV-UHFFFAOYSA-N
Kind: experiment
Temperature: 77 K
Tabular data in the source: 0
pressure (bar)	uptake (mmol/g)
0.040813	0.000602
0.108835	0.00131
0.329905	0.003673
0.421735	0.004616
0.516964	0.005557
0.612195	0.00637
0.710826	0.007182
0.81626	0.008367
0.935298	0.009036
1.07474	0.010323
1.21418	0.011356
1.36383	0.013268
1.52369	0.014412
1.68694	0.01606
1.86039	0.016435
2.02365	0.018843
2.2141	0.020344
2.41817	0.021834
2.63244	0.024583
2.86711	0.026303
3.09499	0.028788
3.61534	0.031938
3.89764	0.034381
