Adsorption isotherm of Neon on Zeolite 3A
DOI: 10.1021/jp044110u
Article source: Figure 3b
Adsorbate Neon: InChIKey GKAOGPIIYCISHV-UHFFFAOYSA-N
Kind: experiment
Temperature: 77 K
Tabular data in the source: 0
pressure (bar)	uptake (mmol/g)
0.040813	0.001361
0.166653	0.002025
0.241476	0.002222
0.323103	0.002539
0.404728	0.002731
0.493157	0.002917
0.588388	0.003224
0.687018	0.003529
0.792452	0.003702
0.904687	0.00425
1.03053	0.004534
1.16317	0.004813
1.29921	0.005469
1.44545	0.004978
1.60531	0.005616
1.79237	0.00598
1.98964	0.00659
2.2141	0.006673
2.46578	0.007874
2.72767	0.008181
2.99975	0.008354
3.26504	0.009166
3.52692	0.010233
3.78541	0.010542
4.00307	0.012782
