Adsorption isotherm of Neon on Zeolite 5A
DOI: 10.1021/jp044110u
Article source: Figure 3b
Adsorbate Neon: InChIKey GKAOGPIIYCISHV-UHFFFAOYSA-N
Kind: experiment
Temperature: 77 K
Tabular data in the source: 0
pressure (bar)	uptake (mmol/g)
0.040813	0.000475
0.112236	0.001307
0.19046	0.002514
0.265285	0.003343
0.340108	0.004172
0.428537	0.004864
0.510162	0.005942
0.591789	0.006892
0.683617	0.008088
0.768645	0.009036
0.867275	0.009974
0.969308	0.011289
1.07814	0.012219
1.19378	0.013144
1.31962	0.014567
1.46587	0.016355
1.63252	0.017621
1.81958	0.019884
2.01343	0.021635
2.2141	0.023382
2.42157	0.024996
2.64944	0.027228
2.90452	0.030072
3.16641	0.032532
3.43509	0.035112
3.69698	0.037445
3.96226	0.040028
