Adsorption isotherm of Nitrogen on CAU-8
DOI: 10.1021/Ic301961q
Adsorbate Nitrogen: InChIKey IJGRMHOSHXDMSA-UHFFFAOYSA-N
Temperature: 77 K
Tabular data in the source: 0
pressure (bar)	uptake (cm3(STP)/g)
0.00182509	47.9891
0.00837971	122.275
0.0127495	131.014
0.0280436	141.939
0.0695562	149.586
0.150397	155.594
0.323002	162.149
0.52838	169.25
0.659472	173.619
0.78401	179.628
0.886699	188.913
0.936951	199.292
0.967539	212.947
0.989388	242.989
