Adsorption isotherm of Hydrogen on CAU-8
DOI: 10.1021/Ic301961q
Adsorbate Hydrogen: InChIKey UFHFLCQGNIYNRP-UHFFFAOYSA-N
Temperature: 77 K
Tabular data in the source: 0
pressure (bar)	uptake (mg/g)
0.00837971	0.501269
0.0193041	1.22228
0.0345982	2.20766
0.0564469	3.26513
0.108884	4.77925
0.152581	5.64446
0.200649	6.3895
0.25527	7.03841
0.316447	7.56715
0.362329	7.97572
0.416951	8.26413
0.510901	8.79286
0.602665	9.29757
0.759976	9.80228
0.867035	10.1628
0.995943	10.4512
