Adsorption isotherm of Carbon Dioxide on [Zr6O4(OH)4(DMTDC)6] 4.8DMF 10H2O
DOI: 10.1016/j.jssc.2015.09.034
Article source: Figure 6
Adsorbate Carbon Dioxide: InChIKey CURLTUGMZLYLDI-UHFFFAOYSA-N
Kind: experiment
Temperature: 293 K
Tabular data in the source: 0
pressure (bar)	uptake (cm3(STP)/g)
0	0
2.30126	2.78075
4.1841	5.5615
7.11297	8.98396
10.251	12.4064
20.2929	21.1765
29.9163	27.8075
40.1674	33.369
50.2092	38.7166
60.4603	42.7807
70.5021	46.631
80.3347	50.2674
90.3766	53.4759
95.3975	55.1872
