Adsorption isotherm of Carbon Dioxide on [Zr6O4(OH)4(DMTDC)6] 4.8DMF 10H2O
DOI: 10.1016/j.jssc.2015.09.034
Article source: Figure 6
Adsorbate Carbon Dioxide: InChIKey CURLTUGMZLYLDI-UHFFFAOYSA-N
Kind: experiment
Temperature: 273 K
Tabular data in the source: 0
pressure (bar)	uptake (cm3(STP)/g)
0	0
1.88285	6.20321
3.9749	11.5508
7.11297	17.9679
10.251	23.5294
20.0837	36.1497
30.3347	45.1337
39.9582	52.1925
50.2092	58.3957
60.0418	63.7433
70.7113	68.0214
80.3347	72.0856
90.3766	75.7219
95.3975	77.861
