Adsorption isotherm of Carbon Dioxide on [Zr6O4(OH)4(DMTDC)6] 4.8DMF 10H2O
DOI: 10.1016/j.jssc.2015.09.034
Article source: Figure 6
Adsorbate Carbon Dioxide: InChIKey CURLTUGMZLYLDI-UHFFFAOYSA-N
Kind: experiment
Temperature: 283 K
Tabular data in the source: 0
pressure (bar)	uptake (cm3(STP)/g)
0	0
1.03992	1.50134
4.15522	7.72118
7.06454	12.8686
10.1854	16.9437
20.3865	27.882
29.9686	36.0322
39.9721	42.681
50.1878	48.0429
59.9881	52.5469
70.206	57.0509
80.425	61.126
90.0194	64.5576
95.4424	66.4879
