Adsorption isotherm of Nitrogen on [Zr6O4(OH)4(DMTDC)6] 4.8DMF 10H2O
DOI: 10.1016/j.jssc.2015.09.034
Article source: Figure 5
Adsorbate Nitrogen: InChIKey IJGRMHOSHXDMSA-UHFFFAOYSA-N
Kind: experiment
Temperature: 77 K
Tabular data in the source: 0
pressure (bar)	uptake (cm3(STP)/g)
0.042986	346.593
0.065503	369.086
0.06755	373.49
0.08802	381.021
0.118725	390.339
0.149429	394.817
0.163757	397.934
0.173992	398.4
0.204697	400.68
0.210838	403.335
0.229261	403.823
0.257918	407.417
0.278387	408.35
0.309093	410.629
0.327515	411.557
0.360267	413.842
0.378689	414.33
0.407347	416.164
0.431911	417.107
0.458521	418.936
0.476944	419.424
0.507648	421.704
0.528118	422.197
0.552682	422.701
0.558823	424.036
0.577245	423.644
0.605903	426.798
0.630466	426.422
0.657077	428.691
0.679594	427.87
0.706205	430.139
0.726675	431.072
0.753285	431.581
0.755332	433.346
0.775802	433.399
0.802412	433.908
0.804459	436.113
0.822882	436.161
0.851539	436.676
0.859727	438.456
0.876103	438.499
0.90476	443.852
0.923183	443.46
0.9457	447.478
0.970264	460.299
0.988687	463.866
1.00097	509.206
1.00302	513.17
