Adsorption isotherm of Nitrogen on ZIF-8
DOI: 10.1016/j.molcata.2013.12.005
Adsorbate Nitrogen: InChIKey IJGRMHOSHXDMSA-UHFFFAOYSA-N
Temperature: 77 K
Tabular data in the source: 0
pressure (bar)	uptake (cm3(STP)/g)
0.00428218	22.5895
0.00892122	47.0615
0.0165265	71.5565
0.0218793	99.7934
0.0231951	122.36
0.0289048	152.479
0.0356848	188.246
0.0429333	210.859
0.0468586	231.566
0.0518546	257.92
0.0568504	284.275
0.0651695	312.534
0.0742022	344.559
0.0843055	382.231
0.0955908	410.514
0.103308	419.972
0.141044	431.543
0.170708	431.772
0.241899	432.323
0.271561	432.553
0.295649	434.619
0.378705	435.262
0.479916	437.925
0.527377	438.292
0.578161	440.565
0.622299	439.027
0.675692	439.44
0.723154	439.807
0.771685	445.822
0.818789	444.307
0.871469	440.955
0.917033	446.947
0.94634	445.294
0.973395	447.383
1.01302	453.329
