Adsorption isotherm of Nitrogen on MIL-101
DOI: 10.1016/j.molcata.2013.12.005
Adsorbate Nitrogen: InChIKey IJGRMHOSHXDMSA-UHFFFAOYSA-N
Temperature: 77 K
Tabular data in the source: 0
pressure (bar)	uptake (cm3(STP)/g)
0.01012	413.299
0.03036	506.563
0.0573467	576.47
0.0775867	626.4
0.09108	656.354
0.11132	706.285
0.134933	792.87
0.165293	829.433
0.178787	846.053
0.209147	872.616
0.219266	905.914
0.24288	972.5
0.34408	988.819
0.401426	998.623
0.43516	998.507
0.48576	1005
0.53636	1008.16
0.58696	1011.32
0.630814	1014.5
0.681413	1017.66
0.732013	1024.16
0.775867	1024
0.79948	1023.92
0.82984	1030.49
0.853453	1033.74
0.877067	1040.32
0.904054	1043.56
0.92092	1046.84
0.947906	1070.08
0.958027	1086.71
0.964774	1126.69
