Adsorption isotherm of Nitrogen on SO3H-MIL-101
DOI: 10.1016/j.molcata.2013.12.005
Adsorbate Nitrogen: InChIKey IJGRMHOSHXDMSA-UHFFFAOYSA-N
Temperature: 77 K
Tabular data in the source: 0
pressure (bar)	uptake (cm3(STP)/g)
0.0134933	239.954
0.03036	286.563
0.0573467	329.803
0.0775867	356.4
0.0944533	389.676
0.118067	419.595
0.138307	429.525
0.165293	439.433
0.18216	449.375
0.195653	472.662
0.249626	502.477
0.327214	515.544
0.371066	522.06
0.391307	525.324
0.43516	528.507
0.48576	531.667
0.53636	534.826
0.583586	537.998
0.630814	537.836
0.681413	540.995
0.735386	547.477
0.782614	550.648
0.833213	553.808
0.873694	560.336
0.92092	566.84
0.9614	583.368
0.964774	596.69
