Adsorption isotherm of Hydrogen on MIL-120
DOI: 10.1021/Cm9023106
Adsorbate Hydrogen: InChIKey UFHFLCQGNIYNRP-UHFFFAOYSA-N
Temperature: 298 K
Tabular data in the source: 0
pressure (bar)	uptake (wt%)
5.10788	0.0191341
11.9814	0.0624664
19.0529	0.0960645
29.07	0.148928
48.5173	0.235246
66.0038	0.287656
78.1852	0.325805
