Adsorption isotherm of Hydrogen on MIL-120
DOI: 10.1021/Cm9023106
Adsorbate Hydrogen: InChIKey UFHFLCQGNIYNRP-UHFFFAOYSA-N
Temperature: 77 K
Tabular data in the source: 0
pressure (bar)	uptake (wt%)
0.849754	0.9625
3.58511	1.12778
7.51642	1.19583
13.817	1.22986
22.0881	1.26389
33.321	1.25417
43.9621	1.24931
55.1964	1.22986
62.6854	1.22014
