Adsorption isotherm of Nitrogen on MIL-120
DOI: 10.1021/Cm9023106
Adsorbate Nitrogen: InChIKey IJGRMHOSHXDMSA-UHFFFAOYSA-N
Temperature: 77 K
Tabular data in the source: 0
pressure (bar)	uptake (cm3(STP)/g)
0.00557752	60.7836
0.0074367	64.9137
0.00929587	69.0438
0.011155	71.4033
0.0334651	76.1117
0.0613528	79.0462
0.0799445	81.9862
0.102255	84.3339
0.122706	86.0925
0.145016	88.4401
0.165467	89.6085
0.185917	90.777
0.208228	91.9443
0.252848	93.6888
0.306764	96.018
0.353243	97.1713
0.4053	98.3213
0.457357	98.8812
0.505695	99.4432
0.559611	99.4118
0.609809	99.9727
0.658148	99.9445
0.708345	100.505
0.760402	102.246
0.8106	102.216
0.83291	102.794
0.862657	103.957
0.886826	103.942
0.912855	106.288
0.935165	108.636
0.961193	111.571
0.983503	119.23
0.994658	127.486
1.00024	134.565
1.00209	142.826
1.00581	158.758
1.00767	151.085
