Adsorption isotherm of Hydrogen on MIL-120
DOI: 10.1021/Cm9023106
Adsorbate Hydrogen: InChIKey UFHFLCQGNIYNRP-UHFFFAOYSA-N
Temperature: 298 K
Tabular data in the source: 0
pressure (bar)	uptake (wt%)
1.77271	0.00486111
4.13246	0.0388889
9.64423	0.0777778
15.1574	0.106944
24.2152	0.150694
35.0458	0.199306
52.7709	0.2625
68.921	0.315972
