Adsorption isotherm of Carbon Dioxide on MIL-120
DOI: 10.1021/Cm9023106
Adsorbate Carbon Dioxide: InChIKey CURLTUGMZLYLDI-UHFFFAOYSA-N
Temperature: 303 K
Tabular data in the source: 0
pressure (bar)	uptake (mmol/g)
0.0471309	0.663957
0.0961765	1.15176
0.357017	2.15447
0.889743	3.14363
1.53809	3.49593
2.5679	3.75339
3.27309	3.87534
4.19495	4.06504
4.84624	4.14634
6.04218	4.11924
10.9862	4.26829
15.2793	4.30894
18.9746	4.33604
