Adsorption isotherm of Methane on MIL-120
DOI: 10.1021/Cm9023106
Adsorbate Methane: InChIKey VNWKTOKETHGBQD-UHFFFAOYSA-N
Temperature: 303 K
Tabular data in the source: 0
pressure (bar)	uptake (mmol/g)
0.323583	0.230352
0.484123	0.460705
0.700041	0.596206
0.753064	0.718157
0.915223	0.799458
1.18534	0.948509
1.99761	1.21951
3.13715	1.38211
4.38524	1.55827
6.93811	1.69377
8.78505	1.77507
9.81737	1.80217
11.0129	1.81572
12.5885	1.85637
14.3271	1.91057
16.4463	1.93767
18.4569	1.96477
