Adsorption isotherm of Hydrogen on MIL-120
DOI: 10.1021/Cm9023106
Adsorbate Hydrogen: InChIKey UFHFLCQGNIYNRP-UHFFFAOYSA-N
Temperature: 77 K
Tabular data in the source: 0
pressure (bar)	uptake (wt%)
0.653394	0.957639
5.35235	1.17153
14.4041	1.25903
23.2697	1.26875
33.3176	1.27847
42.7764	1.27361
54.5998	1.26875
65.4399	1.24931
