Adsorption isotherm of Ammonia on CuBTC
DOI: 10.1063/1.4774332
Adsorbate Ammonia: InChIKey QGZKDVFQNNGYKY-UHFFFAOYSA-N
Temperature: 301 K
Tabular data in the source: 0
pressure (bar)	uptake (mmol/g)
0.0121299	9.94266
0.0212	10.0803
0.0302023	10.6651
0.0324385	10.906
0.0415138	11.0092
0.0505682	11.25
0.0663626	12.0069
0.0890534	12.2477
0.129947	12.3509
0.193531	12.695
0.261702	12.7638
0.336708	12.7294
0.393526	12.7294
0.470804	12.695
0.527622	12.695
0.604889	12.7294
0.661702	12.7638
0.73898	12.7294
0.798066	12.7638
0.854884	12.7638
0.932152	12.7982
0.99351	12.8326
1.06851	12.8326
1.12759	12.9014
1.19804	12.9358
