Adsorption isotherm of Ammonia on CuBTC
DOI: 10.1063/1.4774332
Adsorbate Ammonia: InChIKey QGZKDVFQNNGYKY-UHFFFAOYSA-N
Temperature: 318 K
Tabular data in the source: 0
pressure (bar)	uptake (mmol/g)
0.0147727	7.5
0.0192608	7.87844
0.0260217	8.25688
0.0327982	8.53211
0.0395955	8.66972
0.050907	9.01376
0.0690523	9.25459
0.0917327	9.56422
0.134852	9.97706
0.200704	10.3555
0.266576	10.5963
0.334716	10.8716
0.400605	11.0092
0.457402	11.1468
0.539199	11.2844
0.593719	11.4564
0.659617	11.5252
0.725526	11.5252
0.793703	11.5596
0.857329	11.6284
0.927784	11.6284
0.993687	11.6628
1.05959	11.6972
1.12322	11.7317
1.20049	11.7661
