Adsorption isotherm of Ammonia on CuBTC
DOI: 10.1063/1.4774332
Adsorbate Ammonia: InChIKey QGZKDVFQNNGYKY-UHFFFAOYSA-N
Temperature: 301 K
Tabular data in the source: 0
pressure (bar)	uptake (mmol/g)
0.0150281	5.81422
0.0195423	6.02064
0.0262615	6.67431
0.0330484	6.88073
0.037573	7.01835
0.0511676	7.29358
0.0670402	7.5344
0.0897154	7.87844
0.13284	8.25688
0.196414	8.66972
0.264549	8.97936
0.337239	9.22018
0.394026	9.42661
0.468985	9.70183
0.530312	9.94266
0.60528	10.1491
0.664345	10.3211
0.739309	10.5619
0.798368	10.7683
0.859706	10.9404
0.93467	11.1812
0.995997	11.422
1.07323	11.6628
1.12776	11.8005
1.20044	12.1101
