Adsorption isotherm of Ammonia on CuBTC
DOI: 10.1063/1.4774332
Adsorbate Ammonia: InChIKey QGZKDVFQNNGYKY-UHFFFAOYSA-N
Temperature: 348 K
Tabular data in the source: 0
pressure (bar)	uptake (mmol/g)
0.0110092	2.33945
0.0155234	2.54587
0.0176918	3.23394
0.0199229	3.50917
0.0266681	3.99083
0.0311666	4.30046
0.0379483	4.54128
0.0515325	4.88532
0.0674051	5.12615
0.0923686	5.36697
0.133231	5.67661
0.201361	6.02064
0.269501	6.29587
0.335384	6.46789
0.394454	6.6055
0.467165	6.70872
0.530786	6.81193
0.598957	6.88073
0.667129	6.94954
0.733022	7.05275
0.798931	7.05275
0.867108	7.08716
0.933017	7.08716
0.996653	7.08716
1.06255	7.19037
1.133	7.22477
1.19662	7.29358
