Adsorption isotherm of Ammonia on CuBTC
DOI: 10.1063/1.4774332
Adsorbate Ammonia: InChIKey QGZKDVFQNNGYKY-UHFFFAOYSA-N
Temperature: 348 K
Tabular data in the source: 0
pressure (bar)	uptake (mmol/g)
0.0108372	3.47477
0.013089	3.61239
0.0175094	4.43807
0.019756	4.61009
0.0265013	5.09174
0.0332673	5.43578
0.0400542	5.6422
0.0513605	6.02064
0.0695006	6.29587
0.0899187	6.5367
0.133054	6.84633
0.201178	7.22477
0.267051	7.4656
0.335212	7.60321
0.396554	7.74083
0.462443	7.87844
0.530614	7.94725
0.59878	8.05046
0.666946	8.15367
0.732845	8.22248
0.798749	8.25688
0.866931	8.25688
0.93284	8.25688
1.00102	8.29128
1.06465	8.32569
1.12828	8.36009
1.19418	8.3945
