Adsorption isotherm of Ammonia on CuBTC
DOI: 10.1063/1.4774332
Adsorbate Ammonia: InChIKey QGZKDVFQNNGYKY-UHFFFAOYSA-N
Temperature: 318 K
Tabular data in the source: 0
pressure (bar)	uptake (mmol/g)
0.0129691	4.40367
0.0197143	4.88532
0.0491086	5.88303
0.0672487	6.15826
0.0899291	6.46789
0.203446	7.25917
0.264768	7.5344
0.337469	7.70642
0.405619	7.91284
0.457861	8.11927
0.539663	8.22248
0.594188	8.36009
0.660081	8.4633
0.728247	8.56651
0.794136	8.70413
0.860029	8.80734
0.92365	8.91055
0.994089	9.01376
1.05999	9.08257
1.12588	9.22018
1.20313	9.3578
