Adsorption isotherm of Nitrogen on COF-IL
DOI: 10.1039/c8ta12046c
Article source: Figure 1D
Adsorbate Nitrogen: InChIKey IJGRMHOSHXDMSA-UHFFFAOYSA-N
Kind: experiment
Temperature: 77 K
Tabular data in the source: 0
pressure (bar)	uptake (cm3(STP)/g)
0.004416	9.20751
0.003785	13.811
0.003785	17.2211
0.005047	21.1428
0.005047	25.0643
0.004416	30.1794
0.004416	33.7599
0.005678	38.8751
0.004416	42.7966
0.004416	45.8656
0.006309	49.4464
0.006309	54.0499
0.011987	59.8475
0.030915	67.3512
0.059937	72.6393
0.078864	75.0279
0.102208	76.9054
0.119243	78.6119
0.141325	80.3188
0.162776	81.5141
0.182965	82.5388
0.202524	83.5635
0.252997	85.6138
0.304101	87.6641
0.353943	89.3733
0.401893	90.9119
0.456783	92.9625
0.504732	94.5011
0.555836	96.2957
0.60631	98.9427
0.658045	101.334
0.709149	104.748
0.757729	108.845
0.810726	113.794
0.830915	116.864
0.862461	121.471
0.885805	126.588
0.911673	133.41
0.936278	142.278
0.962146	154.727
0.987382	171.78
0.99243	179.282
0.995584	183.715
1.00189	191.559
1.00631	197.357
1.00694	197.186
0.989906	187.296
0.973502	177.234
0.95142	163.763
0.938171	157.624
0.912304	148.585
0.886436	141.592
0.86183	135.963
0.832808	131.869
0.810726	128.627
0.759622	123.508
0.709149	119.753
0.658045	116.85
0.608202	114.97
0.555836	112.92
0.506625	110.188
0.456152	107.285
0.403155	106.257
0.354574	105.06
0.302839	104.032
0.253628	102.323
0.203155	100.955
0.152051	98.734
0.104732	96.684
0.051104	92.4169
