Adsorption isotherm of Hydrogen on chitosan-SH aerogel
DOI: 10.1039/c8ta12046c
Article source: Figure S23
Adsorbate Hydrogen: InChIKey UFHFLCQGNIYNRP-UHFFFAOYSA-N
Kind: experiment
Temperature: 298 K
Tabular data in the source: 0
pressure (bar)	uptake (cm3(STP)/g)
0.013242	-0.021679
0.028949	-0.029033
0.046002	-0.021679
0.06889	-0.00697
0.081455	-0.010647
0.11287	0.00774
0.154606	0.018772
0.186469	0.026126
0.23718	0.033481
0.253785	0.051867
0.29597	0.059222
0.364632	0.062899
0.424768	0.066577
0.473684	0.083125
0.554015	0.08864
0.645565	0.099672
0.754617	0.10335
0.879825	0.129091
1.02657	0.165864
1.19756	0.213669
1.2007	0.202637
1.11184	0.228378
0.952527	0.250442
0.810714	0.23941
0.696725	0.254119
0.612804	0.23941
0.527537	0.232056
0.451694	0.224701
0.388417	0.206314
0.333218	0.191605
0.283853	0.169541
0.243463	0.154832
0.211151	0.147477
0.181532	0.107027
0.155952	0.099672
0.132167	0.10335
0.114216	0.08864
0.099406	0.084963
0.082802	0.055545
0.070685	0.04819
0.05767	0.04819
0.033885	0.022449
0.020871	0.000385
0.009203	-0.018002
