Adsorption isotherm of Nitrogen on Chitosan-SH
DOI: 10.1039/c8ta12046c
Article source: Figure 4F
Adsorbate Nitrogen: InChIKey IJGRMHOSHXDMSA-UHFFFAOYSA-N
Kind: experiment
Temperature: 77 K
Tabular data in the source: 0
pressure (bar)	uptake (cm3(STP)/g)
0.010701	0.881168
0.027302	1.40567
0.059056	1.40567
0.079264	1.58051
0.098027	1.40567
0.122564	1.40567
0.143494	1.75534
0.159373	2.10501
0.181743	1.58051
0.201951	1.75534
0.253193	2.45468
0.30299	2.45468
0.355672	2.10501
0.406191	2.45468
0.454544	2.45468
0.504341	2.62952
0.606821	2.80435
0.658782	2.45468
0.709302	2.97919
0.76054	2.62952
0.811781	2.97919
0.830545	2.97919
0.860855	2.62952
0.885392	2.62952
0.912817	2.62952
0.933744	2.27985
0.960448	2.62952
0.993647	2.97919
1.00736	3.32886
1.00808	3.15402
0.984265	3.15402
0.947458	2.80435
0.922198	2.62952
0.912094	2.27985
0.886115	2.97919
0.863019	2.27985
0.836318	2.80435
0.809615	2.45468
0.759096	2.45468
0.7093	2.45468
0.660224	1.93018
0.610429	2.45468
0.556303	2.62952
0.507227	2.27985
0.454544	2.27985
0.402581	1.93018
0.354228	1.93018
0.301546	2.45468
0.251746	1.40567
0.201951	1.58051
0.152875	1.40567
0.105242	0.881168
0.050394	0.881168
