Adsorption isotherm of Methane on COF-IL
DOI: 10.1039/c8ta12046c
Article source: Figure 2B
Adsorbate Methane: InChIKey VNWKTOKETHGBQD-UHFFFAOYSA-N
Kind: experiment
Temperature: 298 K
Tabular data in the source: 0
pressure (bar)	uptake (cm3(STP)/g)
0.011684	0.54049
0.019265	0.757386
0.025062	0.850342
0.038886	1.09822
0.044685	1.06724
0.05405	1.22216
0.073228	1.37709
0.099986	1.71793
0.13611	2.15172
0.179371	2.6165
0.188737	2.67847
0.219066	2.80241
0.25608	3.42211
0.297108	4.01083
0.348842	4.56856
0.404144	5.1263
0.473272	5.83895
0.552212	6.55161
0.646315	7.48117
0.773424	8.53466
0.900085	9.7121
1.04593	10.7346
1.20203	12.005
1.20024	11.974
1.11193	11.2923
0.950926	10.2698
0.815347	8.90648
0.694928	7.97693
0.59369	6.86146
0.528129	6.27275
0.452758	5.49812
0.387644	4.87841
0.331451	4.22773
0.284177	3.70098
0.245823	3.2362
0.209254	2.67847
0.179819	2.36861
0.155293	1.84187
0.131656	1.59399
0.111589	1.22216
0.097764	1.03625
0.063424	0.633446
0.038449	0.354579
0.01927	0.261624
