Adsorption isotherm of Carbon Dioxide on COF-IL
DOI: 10.1039/c8ta12046c
Article source: Figure 2A
Adsorbate Carbon Dioxide: InChIKey CURLTUGMZLYLDI-UHFFFAOYSA-N
Kind: experiment
Temperature: 273 K
Tabular data in the source: 0
pressure (bar)	uptake (cm3(STP)/g)
0.014766	7.51571
0.018932	9.11095
0.022057	10.3381
0.026744	11.5652
0.031952	13.1604
0.036119	14.4489
0.042889	16.1668
0.047055	17.9461
0.053305	19.9708
0.061637	22.3637
0.072053	24.6339
0.083511	27.1494
0.100697	29.9718
0.116321	33.0395
0.136631	36.4141
0.161109	40.1568
0.185065	43.654
0.217875	47.7035
0.254851	51.9983
0.297035	56.4773
0.349114	61.0789
0.40536	66.0487
0.473063	71.0799
0.552744	76.2951
0.645445	81.8784
0.75429	87.5231
0.87928	93.2905
1.02666	99.7328
1.198	106.175
1.1954	106.114
1.11624	103.844
0.959482	98.4443
0.820431	92.7383
0.714189	87.8912
0.614197	82.6147
0.525142	77.5222
0.450669	72.307
0.38557	67.4599
0.331928	62.6742
0.283495	58.0112
0.244435	53.4095
0.210063	49.0533
0.178295	45.3106
0.153818	41.5066
0.130382	38.0707
0.113196	34.8188
0.098614	31.9965
0.085073	29.0514
0.072574	26.2291
0.062679	23.8976
0.052784	21.7501
0.046014	19.6027
0.040285	17.6393
0.034035	16.1668
0.028307	14.6329
0.024661	13.2218
0.022578	11.9946
0.019453	10.3381
0.013725	8.68146
