Adsorption isotherm of Methane on chitosan-SH aerogel
DOI: 10.1039/c8ta12046c
Article source: Figure S23
Adsorbate Methane: InChIKey VNWKTOKETHGBQD-UHFFFAOYSA-N
Kind: experiment
Temperature: 273 K
Tabular data in the source: 0
pressure (bar)	uptake (cm3(STP)/g)
0.012657	0.059443
0.028377	0.106234
0.038857	0.176486
0.053268	0.217425
0.074228	0.287624
0.099774	0.398813
0.116804	0.504185
0.139729	0.586092
0.16069	0.703162
0.1882	0.808481
0.218331	0.94894
0.256322	1.10694
0.296932	1.27664
0.348678	1.50487
0.40501	1.75065
0.473786	2.03153
0.552387	2.3475
0.647364	2.69855
0.753476	3.14328
0.881859	3.62306
1.02793	4.17305
1.19495	4.8401
1.19561	4.80495
1.11373	4.61202
0.953255	4.191
0.814392	3.74057
0.715486	3.44228
0.615269	3.0561
0.526842	2.72846
0.451515	2.45933
0.388634	2.19015
0.334923	1.96778
0.284487	1.76884
0.243221	1.58742
0.209161	1.42941
0.180995	1.28308
0.15545	1.17775
0.131869	1.05484
0.116149	0.967034
0.097154	0.896824
0.082743	0.809015
0.065713	0.697784
0.058508	0.680244
0.050648	0.633413
0.042788	0.604159
0.035582	0.574902
0.030342	0.551493
0.025757	0.516363
0.017897	0.451956
0.012002	0.399257
