Adsorption isotherm of Carbon Dioxide on COF-IL
DOI: 10.1039/c8ta12046c
Article source: Figure 2B
Adsorbate Carbon Dioxide: InChIKey CURLTUGMZLYLDI-UHFFFAOYSA-N
Kind: experiment
Temperature: 298 K
Tabular data in the source: 0
pressure (bar)	uptake (cm3(STP)/g)
0.01255	2.89536
0.018786	3.70098
0.024128	4.59955
0.027244	5.18826
0.030804	5.96289
0.036595	6.5826
0.040601	7.32624
0.050849	8.31777
0.057528	9.37126
0.0651	10.3628
0.075344	11.6332
0.086034	12.9965
0.101183	14.4838
0.116776	16.126
0.136382	17.8922
0.160002	19.6274
0.18674	21.8273
0.217937	24.1202
0.254485	26.568
0.297053	29.0778
0.347201	31.9285
0.404706	34.903
0.473807	38.0016
0.552721	41.1001
0.644119	44.6634
0.75336	48.0407
0.878655	51.728
1.02625	55.4152
1.11721	57.925
1.19927	59.5053
1.19704	59.3813
1.11543	58.018
0.955339	54.7955
0.81666	51.3562
0.714995	48.5365
0.613781	45.2831
0.525502	42.0606
0.451939	39.148
0.385067	36.0805
0.33202	33.2918
0.284324	30.6271
0.244655	28.0553
0.208554	25.6075
0.179587	23.3146
0.152401	21.3315
0.130566	19.4414
0.113191	17.6133
0.097598	15.9711
0.08245	14.3909
0.072651	13.1824
0.06107	11.7881
0.0535	10.5797
0.045037	9.52619
0.040141	8.62762
0.034797	7.88397
0.028561	7.10934
0.025001	6.3657
0.019659	5.43615
0.013424	4.59955
