Adsorption isotherm of Carbon Dioxide on COF-IL@chitosan
DOI: 10.1039/c8ta12046c
Article source: Figure 5B
Adsorbate Carbon Dioxide: InChIKey CURLTUGMZLYLDI-UHFFFAOYSA-N
Kind: experiment
Temperature: 298 K
Tabular data in the source: 0
pressure (bar)	uptake (cm3(STP)/g)
0.01517	0.430984
0.017638	0.634927
0.022574	0.920551
0.028126	1.12471
0.032445	1.38991
0.038923	1.60433
0.044784	1.83907
0.06391	2.37022
0.072547	2.67648
0.077791	2.86024
0.084886	3.12564
0.115117	4.00398
0.133009	4.53504
0.158921	5.22968
0.178663	5.80162
0.205809	6.51672
0.237891	7.37481
0.274908	8.29438
0.318095	9.27551
0.366834	10.3589
0.426679	11.5857
0.494544	13.1392
0.573514	14.6119
0.668525	16.4525
0.774333	18.4161
0.899884	20.646
1.04857	23.2036
1.20343	25.9246
1.19355	25.8221
1.11088	25.8978
0.951091	24.7454
0.81351	23.4112
0.693821	22.0172
0.592023	20.6651
0.506266	19.2938
0.430381	18.0047
0.367451	16.6758
0.310692	15.5511
0.265037	14.4475
0.225552	13.4055
0.189768	12.323
0.159538	11.3835
0.133009	10.5258
0.131775	10.2201
0.113266	9.50561
0.081801	8.32153
0.07193	7.68916
0.060825	7.03631
0.053421	6.52637
0.046635	6.01647
0.039231	5.64916
0.033062	5.11893
0.028126	4.81293
0.019489	4.18064
0.017638	3.75259
0.010851	3.22231
