Adsorption isotherm of Nitrogen on COF-IL
DOI: 10.1039/c8ta12046c
Article source: Figure 4F
Adsorbate Nitrogen: InChIKey IJGRMHOSHXDMSA-UHFFFAOYSA-N
Kind: experiment
Temperature: 77 K
Tabular data in the source: 0
pressure (bar)	uptake (cm3(STP)/g)
0.003435	4.38272
0.002449	9.60349
0.003969	15.0671
0.003985	20.1664
0.003498	24.6587
0.003515	30.1223
0.00353	34.8574
0.003546	39.9568
0.00406	43.9634
0.005573	47.1202
0.008089	50.2769
0.009104	54.4049
0.011624	59.0186
0.032198	67.3962
0.060279	72.3741
0.080333	74.6809
0.103393	76.6236
0.123947	78.4448
0.144501	80.266
0.164051	81.6015
0.184101	82.5728
0.205654	83.4227
0.25227	85.7295
0.304899	87.6722
0.354019	89.1291
0.404643	91.0717
0.45727	92.4073
0.508396	94.3499
0.558017	96.0497
0.609146	98.9636
0.658268	101.27
0.708896	104.427
0.76053	108.555
0.80966	113.412
0.830969	116.568
0.86331	121.425
0.887132	126.585
0.913464	133.202
0.938049	141.822
0.962142	153.721
0.987255	171.083
0.994296	178.975
0.996814	183.103
1.00586	190.873
1.00889	196.701
1.00989	196.823
0.989809	186.502
0.975745	176.668
0.950646	163.555
0.9396	157.363
0.913512	148.379
0.886927	141.215
0.862354	136.237
0.837783	131.867
0.810708	128.224
0.762079	123.246
0.710949	119.847
0.658818	116.811
0.610196	114.262
0.558069	112.805
0.507944	110.134
0.456316	107.705
0.404188	105.884
0.357577	105.156
0.304448	103.699
0.253324	102.363
0.204705	100.663
0.155084	98.9636
0.106461	96.1711
0.052323	92.5287
