Adsorption isotherm of Nitrogen on COF-IL
DOI: 10.1039/c8ta12046c
Article source: Figure 2B
Adsorbate Nitrogen: InChIKey IJGRMHOSHXDMSA-UHFFFAOYSA-N
Kind: experiment
Temperature: 298 K
Tabular data in the source: 0
pressure (bar)	uptake (cm3(STP)/g)
0.0493	-0.008567
0.08976	0.43762
0.139213	0.705331
0.163617	0.973043
0.186098	0.928425
0.217566	1.28537
0.252248	1.46385
0.297207	1.5977
0.344092	1.73156
0.403821	2.08851
0.472542	2.44546
0.553468	2.75779
0.646596	3.07012
0.75257	3.47169
0.880378	4.14097
1.0281	4.49791
1.19894	5.21181
1.20087	5.25643
1.11159	4.89948
0.95488	4.4533
0.81551	3.82864
0.715319	3.29321
0.614484	2.89164
0.529704	2.62393
0.451994	2.04389
0.387768	1.77618
0.333177	1.41923
0.281154	1.19614
0.240692	0.973043
0.207938	0.74995
0.181606	0.526857
0.154631	0.43762
0.098755	0.169908
0.069854	-0.008567
0.052512	-0.008567
0.042236	-0.097804
0.030032	-0.053185
0.014617	-0.053185
