Adsorption isotherm of Hydrogen on COF-IL@chitosan
DOI: 10.1039/c8ta12046c
Article source: Figure 5A
Adsorbate Hydrogen: InChIKey UFHFLCQGNIYNRP-UHFFFAOYSA-N
Kind: experiment
Temperature: 273 K
Tabular data in the source: 0
pressure (bar)	uptake (cm3(STP)/g)
0.019386	0.05116
0.035874	0.071733
0.065891	0.112805
0.09802	0.214407
0.116201	0.194704
0.134806	0.175011
0.156792	0.175563
0.207103	0.237303
0.218097	0.217419
0.254031	0.298958
0.295888	0.320167
0.347045	0.381929
0.405811	0.46404
0.47219	0.506024
0.55083	0.548315
0.645539	0.530531
0.755462	0.674404
0.87765	0.737947
1.02436	0.902902
1.20024	1.06859
1.19897	0.987919
1.11229	1.04622
0.950785	0.961534
0.813375	0.917769
0.714441	0.85481
0.613182	0.791792
0.527144	0.729155
0.453156	0.666822
0.388891	0.624891
0.332236	0.603311
0.28531	0.481177
0.247682	0.460074
0.212173	0.318068
0.181728	0.377782
0.153821	0.417401
0.135221	0.336297
0.111967	0.335714
0.09463	0.375598
0.06631	0.193453
0.037565	0.071775
0.01769	0.141835
