Adsorption isotherm of Carbon Dioxide on chitosan-SH aerogel
DOI: 10.1039/c8ta12046c
Article source: Figure S23
Adsorbate Carbon Dioxide: InChIKey CURLTUGMZLYLDI-UHFFFAOYSA-N
Kind: experiment
Temperature: 298 K
Tabular data in the source: 0
pressure (bar)	uptake (cm3(STP)/g)
0.01037	0.020978
0.020063	0.109233
0.023294	0.148948
0.027603	0.197489
0.036219	0.272506
0.043758	0.34311
0.051298	0.400476
0.055606	0.440191
0.062068	0.475494
0.067992	0.510796
0.074993	0.568162
0.083071	0.621115
0.088456	0.665243
0.100304	0.731434
0.118075	0.846167
0.138001	0.97855
0.160619	1.08004
0.186199	1.22125
0.217703	1.38894
0.253785	1.56104
0.296867	1.75078
0.34695	1.98025
0.404573	2.21854
0.473505	2.51861
0.552669	2.84074
0.644757	3.20259
0.750309	3.59532
0.878479	4.04101
1.02711	4.54407
1.19675	5.14862
1.19567	5.14862
1.11435	5.23246
0.954412	5.10891
0.817625	4.91474
0.716382	4.72499
0.612445	4.53083
0.527358	4.29254
0.451425	4.0719
0.385725	3.86009
0.330795	3.66152
0.286635	3.46956
0.245168	3.28643
0.210164	3.10551
0.181083	2.94223
0.154695	2.77014
0.133154	2.61128
0.112152	2.448
0.096534	2.29356
0.084148	2.16559
0.072839	2.06851
0.063145	1.93171
0.052913	1.81698
0.044835	1.69342
0.03568	1.60075
0.031911	1.53456
0.027603	1.48161
0.024371	1.36687
0.020063	1.30951
0.014678	1.14623
0.011985	1.09769
