Adsorption isotherm of Nitrogen on COF-IL@chitosan
DOI: 10.1039/c8ta12046c
Article source: Figure 5A
Adsorbate Nitrogen: InChIKey IJGRMHOSHXDMSA-UHFFFAOYSA-N
Kind: experiment
Temperature: 273 K
Tabular data in the source: 0
pressure (bar)	uptake (cm3(STP)/g)
0.028668	0.100582
0.071283	0.188739
0.09685	0.276469
0.161983	0.539369
0.186334	0.598038
0.212519	0.511606
0.251475	0.71579
0.291654	0.803887
0.344615	0.979392
0.400623	1.09692
0.47063	1.30188
0.552198	1.65228
0.644728	1.94489
0.753697	2.23792
0.879106	2.50233
1.0252	2.9995
1.19383	3.49723
1.19443	3.58434
1.11712	3.37919
0.957017	2.93973
0.819434	2.61696
0.714727	2.32403
0.612457	2.00214
0.526623	1.73872
0.449925	1.38845
0.384176	1.27068
0.330608	1.06613
0.283742	0.745629
0.242957	0.599459
0.209479	0.424442
0.155296	0.335994
0.133382	0.248356
0.104768	0.218609
0.094419	0.18932
0.082249	0.043867
0.070683	-0.014483
0.060336	-0.072801
0.050601	-0.218193
0.040859	-0.189408
0.030814	-0.218689
0.011644	-0.393347
