Adsorption isotherm of Nitrogen on COF-IL@chitosan
DOI: 10.1039/c8ta12046c
Article source: Figure 5B
Adsorbate Nitrogen: InChIKey IJGRMHOSHXDMSA-UHFFFAOYSA-N
Kind: experiment
Temperature: 298 K
Tabular data in the source: 0
pressure (bar)	uptake (cm3(STP)/g)
1.19897	0.987919
1.11229	1.04622
0.950785	0.961534
0.813375	0.917769
0.714441	0.85481
0.613182	0.791792
0.527144	0.729155
0.453156	0.666822
0.388891	0.624891
0.332236	0.603311
0.28531	0.481177
0.247682	0.460074
0.212173	0.318068
0.181728	0.377782
0.153821	0.417401
0.135221	0.336297
0.111967	0.335714
0.09463	0.375598
0.06631	0.193453
0.037565	0.071775
0.01769	0.141835
1.20343	2.04293
1.1115	2.03646
0.948623	1.88235
0.811659	1.50592
0.69197	1.27334
0.59264	1.02183
0.505032	0.669251
0.427913	0.541558
0.367451	0.415039
0.313776	0.390882
0.26442	0.244768
0.220616	0.282437
0.191619	0.239641
0.158921	0.278092
0.127456	0.377761
0.080259	0.343872
