Adsorption isotherm of Methane on COF-IL
DOI: 10.1039/c8ta12046c
Article source: Figure 2A
Adsorbate Methane: InChIKey VNWKTOKETHGBQD-UHFFFAOYSA-N
Kind: experiment
Temperature: 273 K
Tabular data in the source: 0
pressure (bar)	uptake (cm3(STP)/g)
0.010183	0.643907
0.019557	0.864787
0.025182	1.15929
0.028932	1.23292
0.033931	1.30655
0.039556	1.30655
0.04768	1.60105
0.05518	1.7483
0.063304	1.96918
0.072678	2.04281
0.087677	2.19006
0.100176	2.33732
0.11705	2.70545
0.138298	3.29446
0.160171	3.58896
0.187044	4.17798
0.217667	4.91424
0.253289	5.6505
0.29641	6.31314
0.345781	7.19666
0.404527	8.00655
0.473271	9.40545
0.552015	10.5835
0.643882	11.9824
0.751999	13.6022
0.880114	15.1483
1.0276	17.0626
1.19759	19.345
1.19696	19.2714
1.11384	18.167
0.953858	16.2527
0.815744	14.2648
0.715752	12.9395
0.613885	11.3934
0.525767	10.0681
0.450773	8.89007
0.387028	7.78567
0.332657	6.60765
0.284536	5.72413
0.243914	4.98787
0.208917	4.17798
0.17767	3.58896
0.153922	2.8527
0.130799	2.26369
0.118924	1.96918
0.104551	1.7483
0.090177	1.60105
0.076428	1.38017
0.063304	0.938413
0.050805	0.717534
0.036431	0.570281
