Adsorption isotherm of Hydrogen on COF-IL
DOI: 10.1039/c8ta12046c
Article source: Figure 2B
Adsorbate Hydrogen: InChIKey UFHFLCQGNIYNRP-UHFFFAOYSA-N
Kind: experiment
Temperature: 298 K
Tabular data in the source: 0
pressure (bar)	uptake (cm3(STP)/g)
0.027036	-0.172168
0.03774	-0.060622
0.054331	0.013743
0.06557	0.125289
0.076812	-0.02344
0.098221	0.013743
0.115348	0.050925
0.136222	0.162471
0.153883	0.348382
0.179577	0.088107
0.205805	-0.02344
0.238452	0.199654
0.272709	0.125289
0.316598	0.162471
0.367978	0.497111
0.42632	0.459929
0.493226	0.385565
0.572976	0.459929
0.665572	0.571475
0.773691	0.534293
0.897866	0.64584
1.04506	0.64584
1.20937	0.868933
1.21045	0.720204
1.11571	0.831751
0.951924	0.757386
0.814368	0.683022
0.695545	0.608658
0.594384	0.571475
0.506069	0.571475
0.433813	0.459929
0.368513	0.497111
0.313386	0.236836
0.272708	0.236836
0.232566	0.125289
0.205803	0.162471
0.184929	0.162471
0.15549	0.236836
0.133009	0.3112
