Adsorption isotherm of Nitrogen on COF-IL
DOI: 10.1039/c8ta12046c
Article source: Figure 2A
Adsorbate Nitrogen: InChIKey IJGRMHOSHXDMSA-UHFFFAOYSA-N
Kind: experiment
Temperature: 273 K
Tabular data in the source: 0
pressure (bar)	uptake (cm3(STP)/g)
0.014183	0.113797
0.04868	0.555556
0.089927	1.17402
0.134173	1.26237
0.155922	1.61578
0.188169	1.70413
0.216667	1.61578
0.254164	1.79248
0.29541	2.14589
0.344156	2.49929
0.405652	2.94105
0.472396	3.38281
0.55264	4.00127
0.646382	4.35468
0.752124	5.06149
0.879614	5.76831
1.0251	6.47512
1.19759	7.35864
1.19759	7.44699
1.1151	6.91688
0.955358	6.21006
0.817369	5.4149
0.715377	4.79644
0.614135	4.17798
0.526392	3.73622
0.451398	3.29446
0.387653	2.8527
0.330658	2.32259
0.284161	1.88083
0.243665	1.70413
0.206917	1.43907
0.17842	1.17402
0.157421	1.08567
0.132673	0.643907
0.110175	0.555556
0.093677	0.378852
0.075678	0.378852
0.058429	0.378852
0.04418	0.378852
0.027682	0.378852
0.011183	0.2905
