Adsorption isotherm of Hydrogen on COF-IL
DOI: 10.1039/c8ta12046c
Article source: Figure 2A
Adsorbate Hydrogen: InChIKey UFHFLCQGNIYNRP-UHFFFAOYSA-N
Kind: experiment
Temperature: 273 K
Tabular data in the source: 0
pressure (bar)	uptake (cm3(STP)/g)
0.024557	-0.092357
0.05018	0.275775
0.084552	0.202149
0.121424	0.643907
0.158921	0.275775
0.185169	0.643907
0.218916	0.864787
0.251414	0.349402
0.29516	0.423028
0.344531	0.275775
0.402027	0.496654
0.471396	0.496654
0.550765	0.79116
0.643258	0.79116
0.753874	0.864787
0.878864	1.01204
1.02948	1.15929
1.20259	1.38017
0.021432	0.054896
0.041431	0.128522
0.058929	0.202149
0.083302	0.054896
0.100176	0.202149
0.110175	0.643907
0.129549	0.717534
0.154547	0.496654
0.18017	0.570281
0.204543	0.570281
0.245164	0.423028
0.285161	0.570281
0.335782	0.570281
0.391403	0.717534
0.452648	1.08567
0.530142	0.938413
0.612635	1.15929
0.716377	1.30655
0.813869	1.08567
0.954483	0.938413
1.11384	1.15929
1.20634	1.30655
