Adsorption isotherm of Methane on chitosan-SH aerogel
DOI: 10.1039/c8ta12046c
Article source: Figure S23
Adsorbate Methane: InChIKey VNWKTOKETHGBQD-UHFFFAOYSA-N
Kind: experiment
Temperature: 298 K
Tabular data in the source: 0
pressure (bar)	uptake (cm3(STP)/g)
0.015216	0.029804
0.022756	0.047455
0.031911	0.100408
0.040527	0.144536
0.04699	0.166599
0.055068	0.171012
0.064223	0.197489
0.07607	0.223966
0.086302	0.263681
0.099765	0.303395
0.11646	0.329872
0.13477	0.391651
0.157388	0.440191
0.179468	0.506383
0.206394	0.5814
0.239245	0.69172
0.275865	0.797626
0.319755	0.925597
0.367953	1.05798
0.425576	1.25655
0.49343	1.42865
0.574748	1.64488
0.667375	1.86993
0.778313	2.14793
0.901905	2.47669
1.04973	2.84957
1.20375	3.22024
1.20213	3.21583
1.11166	3.18494
0.947411	2.98636
0.811432	2.78337
0.692686	2.5848
0.591981	2.35092
0.505278	2.14352
0.430423	1.95818
0.36526	1.80374
0.312485	1.63605
0.26294	1.48161
0.223627	1.36246
0.1897	1.27421
0.158465	1.15065
0.132616	1.05798
0.111613	0.969724
0.08361	0.846167
0.06153	0.749086
0.044835	0.69172
0.032449	0.616702
0.02491	0.563749
0.017909	0.484319
0.014139	0.413715
