Adsorption isotherm of Carbon Dioxide on chitosan-SH aerogel
DOI: 10.1039/c8ta12046c
Article source: Figure S23
Adsorbate Carbon Dioxide: InChIKey CURLTUGMZLYLDI-UHFFFAOYSA-N
Kind: experiment
Temperature: 273 K
Tabular data in the source: 0
pressure (bar)	uptake (cm3(STP)/g)
0.015932	0.170743
0.021172	0.287893
0.028377	0.364021
0.034272	0.451873
0.04115	0.516285
0.049993	0.586546
0.058508	0.668527
0.067023	0.756366
0.077503	0.86763
0.084708	0.93204
0.094534	1.00815
0.099119	1.055
0.117131	1.18673
0.134489	1.33019
0.15938	1.48825
0.18689	1.65802
0.218331	1.87463
0.255012	2.1088
0.29726	2.35758
0.347368	2.63562
0.405665	2.92241
0.473786	3.29117
0.553697	3.67745
0.644744	4.09296
0.753476	4.5494
0.881204	5.1112
1.02858	5.68461
1.19299	6.39856
1.19365	6.37512
1.11701	6.51612
0.96046	6.37044
0.822253	6.16022
0.716796	5.94984
0.616579	5.71013
0.526842	5.44108
0.450205	5.21298
0.387979	4.93207
0.331648	4.70972
0.285797	4.4756
0.244531	4.22974
0.207851	4.00729
0.179685	3.81409
0.15414	3.57401
0.132524	3.36906
0.115494	3.17581
0.099119	3.00013
0.084708	2.83615
0.072918	2.66045
0.061783	2.50817
0.055233	2.41447
0.045408	2.32078
0.040167	2.20949
0.032962	2.09235
0.028377	2.01621
0.024447	1.94006
0.021827	1.86391
0.018552	1.74089
0.015277	1.58858
