Adsorption isotherm of Hydrogen on COF-IL@chitosan
DOI: 10.1039/c8ta12046c
Article source: Figure 5B
Adsorbate Hydrogen: InChIKey UFHFLCQGNIYNRP-UHFFFAOYSA-N
Kind: experiment
Temperature: 298 K
Tabular data in the source: 0
pressure (bar)	uptake (cm3(STP)/g)
0.063395	0.104954
0.090644	0.072911
0.111724	0.074396
0.134345	0.126931
0.16108	0.094852
0.171877	0.129574
0.187301	0.164622
0.207352	0.149053
0.238714	0.1173
0.271618	0.153579
0.314805	0.13964
0.36776	0.126388
0.426371	0.198439
0.491151	0.270924
0.571355	0.276572
0.666983	0.232364
0.774436	0.273892
0.899884	0.282727
1.04795	0.327116
1.20733	0.491166
1.20579	0.440115
1.11787	0.535809
0.954381	0.609199
0.811453	0.582153
0.694746	0.607895
0.593977	0.651741
0.501948	0.577337
0.42997	0.521326
0.363647	0.567598
0.311206	0.428059
0.262363	0.458581
0.225346	0.405032
0.189871	0.419514
0.156967	0.383235
0.12869	0.381244
0.111724	0.346088
0.082418	0.344024
0.065966	0.291923
0.055169	0.240221
0.038203	0.289968
