Adsorption isotherm of Methane on COF-IL@chitosan
DOI: 10.1039/c8ta12046c
Article source: Figure 5B
Adsorbate Methane: InChIKey VNWKTOKETHGBQD-UHFFFAOYSA-N
Kind: experiment
Temperature: 298 K
Tabular data in the source: 0
pressure (bar)	uptake (cm3(STP)/g)
0.01855	0.170365
0.040299	0.214151
0.060768	0.257846
0.076119	0.258927
0.097868	0.471726
0.114499	0.599658
0.133689	0.72777
0.161834	0.687498
0.186141	0.942731
0.215565	1.15607
0.256503	1.37022
0.293603	1.54185
0.348614	1.926
0.402345	2.18331
0.471429	2.56846
0.550746	2.99658
0.647974	3.55272
0.754158	4.15175
0.88081	4.5832
1.02665	5.43854
1.19424	6.37992
1.19405	6.27251
1.10965	6.26657
0.952695	6.01099
0.812769	5.561
0.713563	5.16278
0.614357	4.71565
0.526996	4.26936
0.454442	3.92192
0.389292	3.59945
0.332285	3.2042
0.286384	2.90754
0.244924	2.68455
0.207167	2.41291
0.179774	2.19091
0.153862	2.09128
0.131651	1.86964
0.113143	1.74608
0.098336	1.54942
0.083529	1.37721
0.071683	1.25411
0.061318	1.15558
0.047992	1.03238
0.037627	0.86048
0.024301	0.590567
