Adsorption isotherm of Methane on COF-IL@chitosan
DOI: 10.1039/c8ta12046c
Article source: Figure 5A
Adsorbate Methane: InChIKey VNWKTOKETHGBQD-UHFFFAOYSA-N
Kind: experiment
Temperature: 273 K
Tabular data in the source: 0
pressure (bar)	uptake (cm3(STP)/g)
0.026832	0.303742
0.043264	0.449302
0.059087	0.594847
0.085869	0.740666
0.119345	0.944713
0.15891	1.14891
0.185081	1.35277
0.217949	1.55681
0.253245	1.90604
0.297065	2.2555
0.346365	2.60509
0.404786	3.18715
0.474176	3.56627
0.552079	4.17784
0.642162	4.70263
0.752935	5.46018
0.878923	6.36326
1.02561	7.29588
1.19299	8.4032
1.1936	8.34516
1.11141	8.3431
0.950696	7.84556
0.813125	7.26152
0.713909	6.7365
0.613471	6.29854
0.523996	5.77376
0.452788	5.22042
0.38889	4.58016
0.331671	4.31746
0.28481	3.90987
0.244643	3.56051
0.209347	3.21127
0.178921	2.86216
0.155189	2.6003
0.133287	2.25139
0.112597	2.01864
0.095554	1.93112
0.082172	1.66952
0.070611	1.52408
0.058439	1.40766
0.051743	1.37846
0.043224	1.29116
0.023146	1.00036
