Adsorption isotherm of Nitrogen on chitosan-SH aerogel
DOI: 10.1039/c8ta12046c
Article source: Figure S23
Adsorbate Nitrogen: InChIKey IJGRMHOSHXDMSA-UHFFFAOYSA-N
Kind: experiment
Temperature: 273 K
Tabular data in the source: 0
pressure (bar)	uptake (cm3(STP)/g)
0.015277	-0.010876
0.029032	0.024207
0.047373	0.076843
0.065713	0.106045
0.081433	0.135259
0.098464	0.187902
0.115494	0.234686
0.135799	0.29903
0.157415	0.363368
0.179685	0.392549
0.205886	0.462722
0.238636	0.527003
0.274662	0.591268
0.317238	0.70237
0.366364	0.813438
0.426625	0.959603
0.493436	1.10573
0.574658	1.26351
0.66374	1.49155
0.775747	1.70776
0.900199	2.00593
1.04954	2.42701
1.20478	2.81291
1.20216	2.8305
1.11177	2.66105
0.95129	2.40993
0.812427	2.13527
0.697145	1.86635
0.594963	1.60908
0.508502	1.36345
0.43121	1.10019
0.365054	0.901327
0.312653	0.714111
0.264837	0.53273
0.223571	0.345457
0.188855	0.199162
0.16069	0.070411
0.133834	-0.099359
0.110909	-0.181266
