Adsorption isotherm of Carbon Dioxide on COF-IL@chitosan
DOI: 10.1039/c8ta12046c
Article source: Figure 5A
Adsorbate Carbon Dioxide: InChIKey CURLTUGMZLYLDI-UHFFFAOYSA-N
Kind: experiment
Temperature: 273 K
Tabular data in the source: 0
pressure (bar)	uptake (cm3(STP)/g)
0.016409	1.84205
0.019439	2.13242
0.023683	2.50991
0.024894	2.65509
0.029755	2.85841
0.034613	3.1198
0.038856	3.52632
0.043106	3.78769
0.051609	4.22335
0.055857	4.51375
0.064966	5.00748
0.073465	5.53023
0.083189	5.90786
0.089864	6.3725
0.099586	6.77915
0.117806	7.73758
0.136639	8.60894
0.159119	9.59651
0.185862	10.5842
0.217461	11.8623
0.255144	13.2276
0.296478	14.6511
0.345106	16.336
0.404078	18.1373
0.470957	20.113
0.551822	22.4664
0.644247	24.9653
0.753096	27.7839
0.877759	30.9512
1.02492	34.6417
1.1952	38.8552
1.19642	38.8553
1.10998	38.4467
0.951171	36.3816
0.813677	34.2009
0.713295	32.5728
0.612319	30.6253
0.523528	28.5329
0.450555	26.6732
0.384882	24.9298
0.329552	23.3608
0.283359	21.7049
0.242634	20.2815
0.209208	19.0033
0.178834	17.5511
0.153919	16.5635
0.132069	15.1114
0.115674	14.1821
0.099295	12.9334
0.084725	12.0331
0.071988	11.0168
0.062887	10.3489
0.053795	9.47775
0.045915	8.75181
0.041679	8.20015
0.034394	7.76452
0.030159	7.18383
0.026525	6.77732
0.019854	6.22559
0.017444	5.703
0.015643	5.15139
