Adsorption isotherm of Nitrogen on COF-IL@chitosan
DOI: 10.1039/c8ta12046c
Article source: Figure 4F
Adsorbate Nitrogen: InChIKey IJGRMHOSHXDMSA-UHFFFAOYSA-N
Kind: experiment
Temperature: 77 K
Tabular data in the source: 0
pressure (bar)	uptake (cm3(STP)/g)
0.007947	4.98979
0.012964	6.68957
0.03202	10.2106
0.070624	14.5814
0.092676	14.8243
0.117742	17.1311
0.140803	19.3165
0.16286	21.0163
0.203963	23.2018
0.275143	27.8155
0.32677	29.7581
0.377897	32.1863
0.427521	34.736
0.482155	36.5572
0.531275	38.3784
0.561856	41.1709
0.586415	41.778
0.632527	43.2349
0.68215	45.299
0.736288	48.9414
0.78441	51.9767
0.835044	57.1974
0.855598	59.0186
0.886689	64.8465
0.910264	71.2814
0.915785	73.8311
0.941383	86.2152
0.968008	106.127
0.992649	132.959
0.999188	140.851
1.00422	147.65
1.00825	153.6
1.01329	162.584
1.01279	162.584
0.987691	150.443
0.950051	133.445
0.923943	118.633
0.917413	113.776
0.891309	99.8135
0.865713	88.2792
0.841124	78.0805
0.79498	66.5463
0.744335	58.0473
0.692696	52.3409
0.64156	47.1202
0.590931	43.7206
0.540302	40.321
0.48967	35.7073
0.437539	32.7934
0.385409	30.2437
0.336284	27.2084
0.284155	24.6587
0.236031	21.1377
0.1844	17.8596
0.134271	14.0958
0.089155	10.5748
