Adsorption isotherm of Nitrogen on chitosan-SH aerogel
DOI: 10.1039/c8ta12046c
Article source: Figure S23
Adsorbate Nitrogen: InChIKey IJGRMHOSHXDMSA-UHFFFAOYSA-N
Kind: experiment
Temperature: 298 K
Tabular data in the source: 0
pressure (bar)	uptake (cm3(STP)/g)
0.029757	-0.040801
0.057222	-0.014324
0.097073	0.025391
0.159542	0.118059
0.188084	0.179838
0.220935	0.246029
0.253785	0.307808
0.298483	0.378413
0.34695	0.440191
0.406727	0.541685
0.471351	0.652005
0.551592	0.784388
0.642065	0.930009
0.751386	1.09328
0.880633	1.27862
1.02604	1.52132
1.19352	1.79491
1.19513	1.78609
1.11435	1.76402
0.957104	1.62723
0.817625	1.48602
0.715843	1.34481
0.615677	1.18154
0.524665	1.02268
0.452502	0.885882
0.38734	0.753498
0.33241	0.625528
0.283943	0.53286
0.245168	0.418128
0.208548	0.316634
0.181083	0.241617
0.154695	0.193076
0.131539	0.118059
0.11269	0.078344
0.093842	0.012152
0.073378	-0.018737
0.055606	-0.036388
0.022756	-0.027563
