Adsorption isotherm of Hydrogen on chitosan-SH aerogel
DOI: 10.1039/c8ta12046c
Article source: Figure S23
Adsorbate Hydrogen: InChIKey UFHFLCQGNIYNRP-UHFFFAOYSA-N
Kind: experiment
Temperature: 273 K
Tabular data in the source: 0
pressure (bar)	uptake (cm3(STP)/g)
0.019207	-0.022614
0.039512	-0.016858
0.058508	0.035775
0.097809	0.06487
0.133834	0.099841
0.157415	0.099722
0.18558	0.134732
0.218331	0.11699
0.253047	0.140249
0.295622	0.163469
0.345403	0.186652
0.404355	0.20393
0.471821	0.209447
0.550422	0.25592
0.647364	0.290582
0.754131	0.307618
0.881859	0.353842
1.02727	0.423412
1.2038	0.489894
1.20609	0.498671
1.12159	0.510816
0.9526	0.488236
0.813737	0.453786
0.714831	0.436711
0.614614	0.396206
0.527497	0.355636
0.45217	0.303288
0.389289	0.280171
0.332303	0.251165
0.286452	0.227962
0.247151	0.187149
0.209816	0.158044
0.18034	0.140617
0.15545	0.117308
0.135799	0.093972
0.114839	0.076502
0.096499	0.076595
0.071608	0.041568
0.057198	0.029923
0.048028	0.02997
0.037547	0.012446
0.025757	-0.005071
0.013312	-0.028443
