Adsorption isotherm of Water on C12H18N2O16Zn2
DOI: 10.1021/Ja5022014
Adsorbate Water: InChIKey XLYOFNOQVPJJNP-UHFFFAOYSA-N
Temperature: 298 K
Tabular data in the source: 0
pressure (bar)	uptake (molecules/formula unit)
-8.60662e-05	0.0243902
7.63493e-05	0.158537
8.08608e-05	0.317073
0.000230436	0.463415
0.0002346	0.609756
0.000238765	0.756098
0.000242929	0.902439
0.000397017	1.04878
0.00055943	1.19512
0.000563596	1.34146
0.000726012	1.4878
0.00097831	1.62195
0.00148742	1.73171
0.00250911	1.82927
0.0041291	1.90244
0.00626273	1.92683
0.00865174	1.97561
0.0110418	1.9878
0.0137731	2.0122
0.0164196	2.0122
0.0191511	2.02439
0.0217973	2.03659
0.0244432	2.06098
0.0267476	2.08537
0.0289665	2.10976
0.0301586	2.21951
0.030582	2.34146
0.0307354	2.5
0.0307399	2.65854
0.0307437	2.79268
0.0307483	2.95122
