Adsorption isotherm of Nitrogen on Al-MIL-101-NH
DOI: 10.1021/jacs.5b05327
Article source: Figure 1c
Adsorbate Nitrogen: InChIKey IJGRMHOSHXDMSA-UHFFFAOYSA-N
Kind: experiment
Temperature: 77 K
Tabular data in the source: 0
pressure (bar)	uptake (cm3(STP)/g)
0	196.771
0	207.856
1.9e-05	13.8568
0.00024	174.595
0.000252	182.909
0.000301	218.937
0.000316	230.022
0.000339	246.65
0.000354	257.736
0.000373	271.592
0.002039	282.673
0.002054	293.759
0.005373	307.606
0.005412	335.32
0.005431	349.177
0.007047	324.23
0.010404	365.791
0.012069	376.872
0.012077	382.415
0.015393	393.491
0.0154	399.034
0.018716	410.11
0.020381	421.191
0.023697	432.267
0.027009	440.572
0.030313	443.334
0.03197	448.872
0.035282	457.177
0.03694	462.715
0.038601	471.025
0.040255	473.791
0.043567	482.096
0.045221	484.863
0.046875	487.63
0.053491	498.697
0.055145	501.464
0.056803	507.002
0.061765	515.302
0.066723	520.831
0.074996	537.436
0.078297	537.427
0.079955	542.965
0.083259	545.728
0.08492	554.037
0.088236	565.113
0.106426	592.777
0.108099	609.4
0.124631	631.525
0.194018	689.532
0.276586	733.645
0.298038	733.585
0.395413	744.401
0.499388	755.198
0.60171	763.229
0.679279	771.328
0.700731	771.268
0.796447	776.546
0.883925	790.16
0.888879	792.918
0.978094	870.269
0.986383	897.959
