Adsorption isotherm of Nitrogen on Al-MIL-101-NH-Gly-Pro
DOI: 10.1021/jacs.5b05327
Article source: Figure 1c
Adsorbate Nitrogen: InChIKey IJGRMHOSHXDMSA-UHFFFAOYSA-N
Kind: experiment
Temperature: 77 K
Tabular data in the source: 0
pressure (bar)	uptake (cm3(STP)/g)
5e-05	36.0276
0.000107	77.5979
0.000152	110.854
0.003495	141.33
0.010141	174.568
0.015118	193.953
0.020088	207.797
0.021749	216.106
0.023403	218.873
0.026711	224.406
0.030019	229.94
0.033327	235.473
0.036631	238.236
0.04654	243.751
0.059753	252.028
0.081212	257.512
0.102687	274.08
0.213297	309.801
0.284269	320.69
0.313965	315.065
0.416286	323.096
0.495509	333.962
0.516949	325.588
0.615978	339.17
0.686954	352.831
0.714995	344.439
0.812374	358.026
0.893292	402.143
0.904817	382.712
0.99407	487.776
