Adsorption isotherm of Zn(II), Cadmium(II) Ion on Leonardite
DOI: 10.1007/s12665-017-7110-y
Article source: Figure 2
Adsorbate Zn(II): InChIKey PTFCDOFLOPIGGS-UHFFFAOYSA-N
Adsorbate Cadmium(II) Ion: InChIKey WLZRMCYVCSSEQC-UHFFFAOYSA-N
Kind: experiment
Temperature: 303 K
Tabular data in the source: 0
pressure (bar)	Zn(II) fraction	Zn(II) uptake (mg/g)	Cadmium(II) Ion fraction	Cadmium(II) Ion uptake (mg/g)	total uptake (mg/g)
1.01325			1.6213	3.48	10
1.01325			4.2343	5.856	10
1.01325			7.246	7.746	10
1.01325			10.0932	9.962	10
1.01325			13.0986	12.15	10
1.01325			16.5324	13.8	10
