Adsorption isotherm of Copper(II) Ion, Zn(II) on Leonardite
DOI: 10.1007/s12665-017-7110-y
Article source: Figure 3
Adsorbate Copper(II) Ion: InChIKey JPVYNHNXODAKFH-UHFFFAOYSA-N
Adsorbate Zn(II): InChIKey PTFCDOFLOPIGGS-UHFFFAOYSA-N
Kind: experiment
Temperature: 303 K
Tabular data in the source: 0
pressure (bar)	Copper(II) Ion fraction	Copper(II) Ion uptake (mg/g)	Zn(II) fraction	Zn(II) uptake (mg/g)	total uptake (mg/g)
1.01325			2.316	2.6285	10
1.01325			5.4273	4.4787	10
1.01325			9.2535	5.8065	10
1.01325			13.3012	6.6416	10
1.01325			16.9798	8.3172	10
1.01325			21.0521	9.0944	10
