Adsorption isotherm of Zn(II), Cadmium(II) Ion on Leonardite
DOI: 10.1007/s12665-017-7110-y
Article source: Figure 2
Adsorbate Zn(II): InChIKey PTFCDOFLOPIGGS-UHFFFAOYSA-N
Adsorbate Cadmium(II) Ion: InChIKey WLZRMCYVCSSEQC-UHFFFAOYSA-N
Kind: experiment
Temperature: 303 K
Tabular data in the source: 0
pressure (bar)	Zn(II) fraction	Zn(II) uptake (mg/g)	Cadmium(II) Ion fraction	Cadmium(II) Ion uptake (mg/g)	total uptake (mg/g)
1.01325			2.4214	2.499	25
1.01325			5.5437	4.632	25
1.01325			8.987	6.075	25
1.01325			12.1968	7.945	25
1.01325			15.4162	9.706	25
1.01325			18.9961	11.231	25
