Adsorption isotherm of Copper(II) Ion, Zn(II) on Leonardite
DOI: 10.1007/s12665-017-7110-y
Article source: Figure 3
Adsorbate Copper(II) Ion: InChIKey JPVYNHNXODAKFH-UHFFFAOYSA-N
Adsorbate Zn(II): InChIKey PTFCDOFLOPIGGS-UHFFFAOYSA-N
Kind: experiment
Temperature: 303 K
Tabular data in the source: 0
pressure (bar)	Copper(II) Ion fraction	Copper(II) Ion uptake (mg/g)	Zn(II) fraction	Zn(II) uptake (mg/g)	total uptake (mg/g)
1.01325			1.7985	3.1506	5
1.01325			4.6142	5.3776	5
1.01325			8.1937	6.7637	5
1.01325			12.4388	7.6276	5
1.01325			16.2157	8.9265	5
1.01325			19.9677	10.1096	5
