Adsorption isotherm of Copper(II) Ion, Zn(II) on Leonardite
DOI: 10.1007/s12665-017-7110-y
Article source: Figure 3
Adsorbate Copper(II) Ion: InChIKey JPVYNHNXODAKFH-UHFFFAOYSA-N
Adsorbate Zn(II): InChIKey PTFCDOFLOPIGGS-UHFFFAOYSA-N
Kind: experiment
Temperature: 303 K
Tabular data in the source: 0
pressure (bar)	Copper(II) Ion fraction	Copper(II) Ion uptake (mg/g)	Zn(II) fraction	Zn(II) uptake (mg/g)	total uptake (mg/g)
1.01325			2.9363	1.867	20
1.01325			6.444	3.5411	20
1.01325			10.2838	4.6171	20
1.01325			14.3196	5.7617	20
1.01325			18.3158	6.6075	20
1.01325			22.3908	7.7521	20
