Adsorption isotherm of Zn(II) on Leonardite
DOI: 10.1007/s12665-017-7110-y
Article source: Figure 1
Adsorbate Zn(II): InChIKey PTFCDOFLOPIGGS-UHFFFAOYSA-N
Kind: experiment
Temperature: 303 K
Tabular data in the source: 0
pressure (bar)	uptake (mg/g)
1.01325	4.846
1.01325	8.319
1.01325	11.115
1.01325	13.573
1.01325	15.353
1.01325	17.275
