Adsorption isotherm of Zn(II), Cadmium(II) Ion on Leonardite
DOI: 10.1007/s12665-017-7110-y
Article source: Figure 2
Adsorbate Zn(II): InChIKey PTFCDOFLOPIGGS-UHFFFAOYSA-N
Adsorbate Cadmium(II) Ion: InChIKey WLZRMCYVCSSEQC-UHFFFAOYSA-N
Kind: experiment
Temperature: 303 K
Tabular data in the source: 0
pressure (bar)	Zn(II) fraction	Zn(II) uptake (mg/g)	Cadmium(II) Ion fraction	Cadmium(II) Ion uptake (mg/g)	total uptake (mg/g)
1.01325			1.1366	3.898	5
1.01325			3.4981	6.57	5
1.01325			6.6082	8.529	5
1.01325			9.3868	10.679	5
1.01325			11.9694	13.229	5
1.01325			15.1654	15.188	5
