Adsorption isotherm of Zn(II), Cadmium(II) Ion on Leonardite
DOI: 10.1007/s12665-017-7110-y
Article source: Figure 2
Adsorbate Zn(II): InChIKey PTFCDOFLOPIGGS-UHFFFAOYSA-N
Adsorbate Cadmium(II) Ion: InChIKey WLZRMCYVCSSEQC-UHFFFAOYSA-N
Kind: experiment
Temperature: 303 K
Tabular data in the source: 0
pressure (bar)	Zn(II) fraction	Zn(II) uptake (mg/g)	Cadmium(II) Ion fraction	Cadmium(II) Ion uptake (mg/g)	total uptake (mg/g)
1.01325			1.9248	3.052	15
1.01325			4.8523	5.281	15
1.01325			8.0133	7.152	15
1.01325			11.0766	8.857	15
1.01325			13.8289	11.363	15
1.01325			17.4383	13.095	15
