Adsorption isotherm of Cadmium(II) Ion on Leonardite
DOI: 10.1007/s12665-017-7110-y
Article source: Figure 1
Adsorbate Cadmium(II) Ion: InChIKey WLZRMCYVCSSEQC-UHFFFAOYSA-N
Kind: experiment
Temperature: 303 K
Tabular data in the source: 0
pressure (bar)	uptake (mg/g)
1.01325	4.905
1.01325	9.483
1.01325	13.657
1.01325	17.371
1.01325	21.366
1.01325	24.373
