Adsorption isotherm of Copper(II) Ion, Zn(II) on Leonardite
DOI: 10.1007/s12665-017-7110-y
Article source: Figure 3
Adsorbate Copper(II) Ion: InChIKey JPVYNHNXODAKFH-UHFFFAOYSA-N
Adsorbate Zn(II): InChIKey PTFCDOFLOPIGGS-UHFFFAOYSA-N
Kind: experiment
Temperature: 303 K
Tabular data in the source: 0
pressure (bar)	Copper(II) Ion fraction	Copper(II) Ion uptake (mg/g)	Zn(II) fraction	Zn(II) uptake (mg/g)	total uptake (mg/g)
1.01325			2.9949	1.775	25
1.01325			6.483	3.4721	25
1.01325			10.5382	4.4328	25
1.01325			14.5346	5.4626	25
1.01325			18.727	6.4921	25
1.01325			22.7625	7.4068	25
