Adsorption isotherm of Copper(II) Ion, Zn(II) on Leonardite
DOI: 10.1007/s12665-017-7110-y
Article source: Figure 3
Adsorbate Copper(II) Ion: InChIKey JPVYNHNXODAKFH-UHFFFAOYSA-N
Adsorbate Zn(II): InChIKey PTFCDOFLOPIGGS-UHFFFAOYSA-N
Kind: experiment
Temperature: 303 K
Tabular data in the source: 0
pressure (bar)	Copper(II) Ion fraction	Copper(II) Ion uptake (mg/g)	Zn(II) fraction	Zn(II) uptake (mg/g)	total uptake (mg/g)
1.01325			2.8093	2.1316	15
1.01325			6.2582	3.7368	15
1.01325			10.0885	5.0081	15
1.01325			18.1401	7.0676	15
1.01325			21.9995	8.0745	15
