Adsorption isotherm of Zn(II), Cadmium(II) Ion on Leonardite
DOI: 10.1007/s12665-017-7110-y
Article source: Figure 2
Adsorbate Zn(II): InChIKey PTFCDOFLOPIGGS-UHFFFAOYSA-N
Adsorbate Cadmium(II) Ion: InChIKey WLZRMCYVCSSEQC-UHFFFAOYSA-N
Kind: experiment
Temperature: 303 K
Tabular data in the source: 0
pressure (bar)	Zn(II) fraction	Zn(II) uptake (mg/g)	Cadmium(II) Ion fraction	Cadmium(II) Ion uptake (mg/g)	total uptake (mg/g)
1.01325			2.5675	2.389	30
1.01325			5.8066	4.314	30
1.01325			9.2792	5.826	30
1.01325			12.5181	7.614	30
1.01325			15.9129	9.263	30
1.01325			19.3467	10.913	30
