Adsorption isotherm of Nitrogen on COF 3, 0.12 Sc(OTf)3 catalyst
DOI: 10.1039/d1tc01662h
Article source: Figure 1c
Adsorbate Nitrogen: InChIKey IJGRMHOSHXDMSA-UHFFFAOYSA-N
Kind: experiment
Temperature: 77 K
Tabular data in the source: 0
pressure (bar)	uptake (cm3(STP)/g)
0.013056	-0.057326
0.034445	3.813
0.05977	3.46274
0.080941	2.7202
0.178265	3.63087
0.201224	5.24404
0.225978	5.24404
0.249804	5.43919
0.273867	6.75515
0.297693	6.33484
0.414155	6.89525
0.461913	7.06537
0.510457	8.15617
0.558608	7.00033
0.606759	8.29627
0.655303	8.25482
0.703418	8.75661
0.795472	10.4478
0.820053	9.61983
0.842485	10.8137
0.866987	11.326
0.89102	13.0268
0.915017	17.6771
0.964185	19.0666
0.980971	42.9925
0.996421	29.9794
1.00596	51.9522
0.101987	6.68258
0.120199	8.07478
0.141723	6.68258
0.16159	6.68258
0.351988	8.07478
0.333776	8.07478
0.760931	12.2514
0.850335	15.0358
0.820534	15.0358
0.870203	16.428
0.896693	19.2124
0.918216	21.9968
0.946362	33.1344
0.93974	15.0358
1.00265	41.4877
