Adsorption isotherm of Nitrogen on COF-5
DOI: 10.1039/d1tc01662h
Article source: Figure S13
Adsorbate Nitrogen: InChIKey IJGRMHOSHXDMSA-UHFFFAOYSA-N
Kind: experiment
Temperature: 77 K
Tabular data in the source: 0
pressure (bar)	uptake (cm3(STP)/g)
0.000813	1.36913
0.03094	2.91179
0.061067	3.94916
0.091194	4.8192
0.121322	4.74893
0.151449	5.46504
0.181576	5.57213
0.211703	6.05734
0.24183	6.18785
0.302085	6.60949
0.362339	6.96086
0.392466	7.26202
0.452721	7.33899
0.603356	7.96476
0.753992	8.70764
0.78412	9.45387
0.930721	18.9426
0.932872	12.7835
0.94686	27.6562
0.963	17.7571
0.976449	41.0935
0.98685	23.8264
0.99501	29.6181
1.00207	55.3727
1.00631	36.1096
1.01529	150.435
0.907236	11.7391
0.890926	13.4783
0.888887	11.7391
0.866461	10.8696
0.833842	10
0.846074	10.4348
0.811415	9.13043
0.711518	8.69565
0.682975	7.82609
0.654433	7.82609
0.554535	7.3913
0.525993	6.95652
0.499489	6.95652
0.165137	4.78261
0.075433	4.78261
0.014271	2.17391
