Adsorption isotherm of Nitrogen on COF 3, 0.005 Sc(OTf)3 catalyst
DOI: 10.1039/d1tc01662h
Article source: Figure 1c
Adsorbate Nitrogen: InChIKey IJGRMHOSHXDMSA-UHFFFAOYSA-N
Kind: experiment
Temperature: 77 K
Tabular data in the source: 0
pressure (bar)	uptake (cm3(STP)/g)
0.001234	48.9415
-0.005625	28.0822
0.005621	77.6469
0.01885	92.4207
0.031295	110.195
0.053939	125.842
0.075734	131.875
0.102312	145.649
0.125957	153.375
0.206354	202.034
0.226196	229.122
0.238212	248.726
0.249804	266.8
0.253207	291.086
0.324413	279.289
0.419986	296.054
0.516991	314.111
0.512311	298.868
0.56294	320.883
0.56294	302.322
0.850215	339.753
0.874694	346.977
0.868341	330.612
0.898355	356.24
0.894332	335.295
0.921823	366.923
0.91993	340.854
0.945834	383.775
0.94415	349.7
0.966583	400.082
0.967073	364.512
0.97867	420.487
0.992523	443.907
0.988635	386.993
0.999382	410.577
1.01129	467.341
1.00804	428.98
0.835435	324.105
0.8106	324.105
0.8106	339.419
0.765898	333.85
0.765898	317.144
0.709606	329.674
0.709606	314.36
0.661593	328.282
0.659937	311.575
0.611924	321.321
0.611924	306.006
0.459605	311.575
0.459605	294.869
0.406625	307.399
0.358611	303.222
0.358611	283.731
0.305631	300.438
0.201325	187.669
0.181458	177.924
0.16159	169.57
0.143378	158.433
0.133444	179.316
-0.007285	8.07478
