Adsorption isotherm of Nitrogen on COF-2
DOI: 10.1039/d1tc01662h
Article source: Figure S11
Adsorbate Nitrogen: InChIKey IJGRMHOSHXDMSA-UHFFFAOYSA-N
Kind: experiment
Temperature: 77 K
Tabular data in the source: 0
pressure (bar)	uptake (cm3(STP)/g)
0.008273	0.847042
0.036187	3.02102
0.12801	3.56449
0.168413	4.35627
0.289619	6.44809
0.315329	12.111
0.330021	7.14759
0.355731	13.0905
0.370423	7.87919
0.396134	14.0744
0.491629	9.87525
0.532032	10.5691
0.572434	11.3863
0.598144	18.5442
0.612836	12.0642
0.638546	19.3574
0.653238	12.8573
0.678948	20.0917
0.69364	13.732
0.71935	20.933
0.734042	14.695
0.759753	21.7585
0.774444	15.7409
0.800155	22.6396
0.814846	16.7841
0.855248	18.1944
0.880959	23.9062
0.890141	19.7366
0.918606	21.212
0.942786	23.6418
0.972323	28.3452
1.00033	33.1163
1.00768	35.798
0.25433	10.5623
0.233983	5.18337
0.433378	8.99755
0.911518	24.8411
0.937968	25.0367
0.980696	29.5355
0.9868	30.6112
0.992904	31.4914
0.838271	23.0807
0.866756	23.7653
0.555456	17.7017
0.506625	16.6259
0.457794	15.6479
0.174979	8.41076
0.199395	8.99755
0.152598	7.62836
0.142425	7.33496
0.126148	6.74817
0.103767	5.96577
0.085455	5.08558
0.067143	4.49878
0.010173	1.76039
