Adsorption isotherm of Nitrogen on COF-4
DOI: 10.1039/d1tc01662h
Article source: Figure S12
Adsorbate Nitrogen: InChIKey IJGRMHOSHXDMSA-UHFFFAOYSA-N
Kind: experiment
Temperature: 77 K
Tabular data in the source: 0
pressure (bar)	uptake (cm3(STP)/g)
0.001921	2.89156
0.020678	5.57353
0.080074	8.75903
0.112643	8.77842
0.140096	9.26602
0.260141	11.5546
0.380185	12.7865
0.410196	13.2378
0.942683	41.8415
0.9654	39.0741
0.986345	63.5134
0.989784	48.9785
1.00666	74.9273
0.999162	56.686
1.00094	65.6995
0.006153	4.14508
0.032818	7.04663
0.098453	8.91192
0.162038	10.3627
0.1846	10.3627
0.20306	10.5699
0.303565	12.228
0.33228	12.0207
0.348689	12.8497
0.283054	11.1917
0.229725	10.7772
0.453296	14.3005
0.504574	15.7513
0.504574	15.1295
0.557903	16.7876
0.557903	15.7513
0.605078	18.0311
0.609181	16.5803
0.658407	19.0674
0.660459	17.6166
0.711736	20.1036
0.711736	19.0674
0.912745	35.0259
0.93941	33.3679
0.894285	30.6736
0.910694	30.2591
0.863519	27.9793
0.888132	27.5648
0.836854	26.114
0.859416	25.285
0.812241	25.0777
0.830701	23.2124
0.787628	23.6269
0.81019	22.3834
0.765065	22.5907
0.763014	20.5181
0.123067	9.53368
