Adsorption isotherm of Nitrogen on COF 3, 0.06 Sc(OTf)3 catalyst
DOI: 10.1039/d1tc01662h
Article source: Figure 1c
Adsorbate Nitrogen: InChIKey IJGRMHOSHXDMSA-UHFFFAOYSA-N
Kind: experiment
Temperature: 77 K
Tabular data in the source: 0
pressure (bar)	uptake (cm3(STP)/g)
0.094851	11.0983
0.121084	10.0865
0.256095	13.7291
0.303674	12.6465
0.35236	12.2114
0.409157	17.1315
0.663056	21.6216
0.6864	20.9133
0.71552	21.9251
0.763508	23.7566
0.82069	26.2485
0.844515	27.9042
0.868341	27.8214
0.892166	31.3813
0.915992	36.0174
0.939818	41.9781
0.98422	60.5019
1.01418	59.6671
0.833779	17.8202
0.856958	17.8202
0.885104	19.2124
0.909938	19.2124
0.941395	21.9968
0.964574	27.5656
0.991064	33.1344
1.00596	44.2721
0.454638	12.2514
0.51093	15.0358
0.557288	15.0358
0.611924	15.0358
0.002649	5.29037
0.141723	12.2514
0.163246	10.8592
0.181458	10.8592
0.19967	10.8592
0.078808	10.8592
0.065563	8.07478
0.029139	8.07478
