Adsorption isotherm of Nitrogen on COF 3, 0.02 Sc(OTf)3 catalyst
DOI: 10.1039/d1tc01662h
Article source: Figure 1c
Adsorbate Nitrogen: InChIKey IJGRMHOSHXDMSA-UHFFFAOYSA-N
Kind: experiment
Temperature: 77 K
Tabular data in the source: 0
pressure (bar)	uptake (cm3(STP)/g)
-0.009957	11.5537
0.006288	22.8542
0.030474	25.0618
0.054805	27.0653
0.077764	29.9621
0.101301	32.2257
0.123972	34.0471
0.361815	50.8423
0.409292	53.6719
0.458131	57.2893
0.507081	61.7121
0.555961	67.003
0.603612	72.5682
0.81732	115.663
0.812387	98.8257
0.84133	126.731
0.836032	104.931
0.864851	139.651
0.864009	116.156
0.888436	157.853
0.887654	128.954
0.913345	141.475
0.92018	193.891
0.934802	159.057
0.937892	221.158
0.96321	198.704
0.972052	295.786
0.98938	344.916
0.989635	259.975
0.997989	370.876
1.00999	392.637
1.00967	347.968
1.00552	304.94
0.202981	44.2721
0.254306	45.6643
0.302319	49.8409
0.603645	80.4694
0.656626	87.4304
0.661593	79.0772
0.70795	95.7836
0.70795	83.2538
0.760931	109.706
0.762587	95.7836
0.141723	37.3111
0.16159	38.7033
0.178147	40.0955
