Adsorption isotherm of Nitrogen on COF-1
DOI: 10.1039/d1tc01662h
Article source: Figure S10
Adsorbate Nitrogen: InChIKey IJGRMHOSHXDMSA-UHFFFAOYSA-N
Kind: experiment
Temperature: 77 K
Tabular data in the source: 0
pressure (bar)	uptake (cm3(STP)/g)
0.006384	0.985618
0.046048	2.91227
0.086501	3.86858
0.128609	3.73255
0.290808	5.49569
0.329218	5.97771
0.36769	6.13958
0.410123	6.33879
0.450576	6.51876
0.774198	8.001
0.932897	11.0126
0.961445	12.9587
0.984485	16.4944
0.99301	19.3651
1.00404	23.265
1.0114	29.1926
0.018573	1.85984
0.066037	3.63881
0.105246	4.20485
0.125882	4.44744
0.146519	4.77089
0.202237	5.41779
0.253828	5.90297
0.30542	6.38814
0.354947	6.63073
0.431302	6.469
0.482893	6.79245
0.505593	6.79245
0.563375	7.03504
0.608775	7.27763
0.635603	7.35849
0.66243	7.43935
0.912131	10.1078
0.891495	9.78437
0.868795	9.21833
0.846095	8.89488
0.81514	8.32884
0.231128	4.69003
0.165092	5.01348
0.185728	5.25606
0.179537	4.36658
0.714021	7.52022
