Adsorption isotherm of Propene on CuBTC
DOI: 10.1016/j.seppur.2012.02.023
Adsorbate Propene: InChIKey QQONPFPTGQHPMA-UHFFFAOYSA-N
Temperature: 323 K
Tabular data in the source: 0
pressure (bar)	uptake (mmol/g)
0.047619	4.7619
0.0634921	5.26103
0.0793651	5.59191
0.142857	6.25368
0.174603	6.58456
0.190476	6.78309
0.253968	6.88235
0.301587	7.04779
0.428571	7.24632
0.539683	7.34559
0.698413	7.41176
0.777778	7.47794
0.936508	7.44485
1.07937	7.51103
1.2381	7.57721
1.39683	7.57721
1.55556	7.57721
1.69841	7.61029
1.85714	7.61029
2.04762	7.61029
2.20635	7.61029
2.36508	7.61029
2.52381	7.64338
2.68254	7.64338
2.84127	7.64338
3.12698	7.64338
3.28571	7.64338
3.5873	7.64338
3.74603	7.64338
3.90476	7.64338
4.11111	7.64338
4.26984	7.64338
4.42857	7.64338
4.5873	7.64338
4.74603	7.67647
4.90476	7.70956
5.03175	7.70956
