Adsorption isotherm of Propene on CuBTC
DOI: 10.1016/j.seppur.2012.02.023
Adsorbate Propene: InChIKey QQONPFPTGQHPMA-UHFFFAOYSA-N
Temperature: 373 K
Tabular data in the source: 0
pressure (bar)	uptake (mmol/g)
0.031746	0.959559
0.047619	1.38971
0.0793651	2.21691
0.15873	3.27574
0.460317	5.09559
1.04762	6.1875
2	6.88235
2.73016	7.11397
4.06349	7.41176
5.06349	7.61029
