Adsorption isotherm of Propene on CuBTC
DOI: 10.1016/j.seppur.2012.02.023
Adsorbate Propene: InChIKey QQONPFPTGQHPMA-UHFFFAOYSA-N
Temperature: 323 K
Tabular data in the source: 0
pressure (bar)	uptake (mmol/g)
0.015873	1.5873
0.301587	6.84926
0.761905	7.27941
1.53968	7.54412
3	7.84191
4.01587	7.90809
5.04762	8.00735
