Adsorption isotherm of Propene on CuBTC
DOI: 10.1016/j.seppur.2012.02.023
Adsorbate Propene: InChIKey QQONPFPTGQHPMA-UHFFFAOYSA-N
Temperature: 348 K
Tabular data in the source: 0
pressure (bar)	uptake (mmol/g)
0.031746	3.1746
0.047619	2.84559
0.0634921	3.11029
0.0793651	3.44118
0.0952381	3.83824
0.142857	4.56618
0.15873	4.89706
0.206349	5.39338
0.253968	5.69118
0.31746	6.02206
0.428571	6.38603
0.539683	6.65074
0.730159	6.88235
0.873016	7.01471
1.03175	7.11397
1.1746	7.21324
1.33333	7.24632
1.53968	7.3125
1.69841	7.34559
1.85714	7.37868
2.09524	7.44485
2.25397	7.44485
2.4127	7.44485
2.57143	7.47794
2.73016	7.47794
2.88889	7.47794
3.22222	7.51103
3.38095	7.51103
3.5873	7.51103
3.74603	7.57721
3.90476	7.57721
4.11111	7.57721
4.26984	7.57721
4.42857	7.57721
4.5873	7.57721
4.74603	7.57721
4.90476	7.57721
5.01587	7.61029
