Adsorption isotherm of Propene on CuBTC
DOI: 10.1016/j.seppur.2012.02.023
Adsorbate Propene: InChIKey QQONPFPTGQHPMA-UHFFFAOYSA-N
Temperature: 373 K
Tabular data in the source: 0
pressure (bar)	uptake (mmol/g)
0.0317191	0.876325
0.0321934	0.650177
0.0645647	1.21555
0.0974696	1.5265
0.130612	1.72438
0.213674	2.12014
0.297508	2.14841
0.414424	2.40283
0.564837	2.68551
0.715726	2.74205
0.983826	2.91166
1.41971	3.08127
2.124	3.27915
2.71083	3.47703
3.49918	3.59011
4.15343	3.64664
4.99217	3.73145
