Adsorption isotherm of N-propane on CuBTC
DOI: 10.1016/j.seppur.2012.02.023
Adsorbate N-propane: InChIKey ATUOYWHBWRKTHZ-UHFFFAOYSA-N
Temperature: 373 K
Tabular data in the source: 0
pressure (bar)	uptake (mmol/g)
0.0318471	0.492701
0.0477707	0.821168
0.127389	1.31387
0.334395	2.9562
0.652866	4.30292
1.30573	5.22263
2.10191	5.71533
2.88217	6.01095
4.07643	6.30657
5.17516	6.4708
