Adsorption isotherm of Propene on CuBTC
DOI: 10.1016/j.seppur.2012.02.023
Adsorbate Propene: InChIKey QQONPFPTGQHPMA-UHFFFAOYSA-N
Temperature: 348 K
Tabular data in the source: 0
pressure (bar)	uptake (mmol/g)
0.031746	3.1746
0.0634921	3.27574
0.0952381	4.03676
0.190476	5.0625
0.444444	6.22059
1.14286	6.94853
4.01587	7.67647
5	7.77574
