Adsorption isotherm of N-propane on CuBTC
DOI: 10.1016/j.seppur.2012.02.023
Adsorbate N-propane: InChIKey ATUOYWHBWRKTHZ-UHFFFAOYSA-N
Temperature: 323 K
Tabular data in the source: 0
pressure (bar)	uptake (mmol/g)
0.0318471	1.70803
0.0477707	2.36496
0.0955414	3.38321
0.111465	3.97445
0.159236	4.43431
0.254777	5.12409
0.398089	5.71533
0.525478	5.9781
0.66879	6.17518
0.89172	6.30657
1.0828	6.50365
1.38535	6.60219
1.64013	6.66788
1.84713	6.70073
2.13376	6.73358
2.38854	6.79927
2.57962	6.79927
2.67516	6.83212
2.92994	6.83212
3.3758	6.89781
3.66242	6.86496
3.99682	6.89781
4.23567	6.93066
4.50637	6.93066
4.80892	6.93066
5.07962	6.93066
