Adsorption isotherm of Propene on CuBTC
DOI: 10.1016/j.seppur.2012.02.023
Adsorbate Propene: InChIKey QQONPFPTGQHPMA-UHFFFAOYSA-N
Temperature: 373 K
Tabular data in the source: 0
pressure (bar)	uptake (mmol/g)
0	0.397059
0.0634921	1.78676
0.111111	2.08456
0.142857	2.87868
0.206349	3.60662
0.253968	3.9375
0.301587	4.23529
0.349206	4.56618
0.396825	4.86397
0.507937	5.29412
0.603175	5.55882
0.793651	5.98897
0.920635	6.15441
1.07937	6.31985
1.20635	6.48529
1.36508	6.58456
1.60317	6.75
1.74603	6.81618
1.90476	6.88235
2.04762	6.94853
2.20635	6.98162
2.34921	7.04779
2.50794	7.08088
2.66667	7.11397
2.69841	7.11397
2.84127	7.11397
2.98413	7.18015
3.52381	7.21324
3.68254	7.24632
3.8254	7.3125
3.98413	7.3125
4.09524	7.37868
4.2381	7.3125
4.39683	7.34559
4.55556	7.34559
4.71429	7.34559
4.87302	7.37868
5.03175	7.37868
5.11111	7.37868
