Adsorption isotherm of N-propane on CuBTC
DOI: 10.1016/j.seppur.2012.02.023
Adsorbate N-propane: InChIKey ATUOYWHBWRKTHZ-UHFFFAOYSA-N
Temperature: 373 K
Tabular data in the source: 0
pressure (bar)	uptake (mmol/g)
0.0662811	0.397163
0.0993622	0.624113
0.165881	0.907801
0.265898	1.21986
0.416012	1.64539
0.433088	1.50355
0.58344	1.8156
0.951794	2.1844
1.03575	2.15603
1.40446	2.35461
1.70629	2.43972
1.80679	2.52482
2.1088	2.52482
2.52796	2.66667
2.99758	2.75177
3.34987	2.78014
3.93694	2.86525
4.94348	2.95035
