Adsorption isotherm of N-propane on CuBTC
DOI: 10.1016/j.seppur.2012.02.023
Adsorbate N-propane: InChIKey ATUOYWHBWRKTHZ-UHFFFAOYSA-N
Temperature: 323 K
Tabular data in the source: 0
pressure (bar)	uptake (mmol/g)
0.0318471	2.16788
0.0636943	3.12044
0.0955414	4.13869
0.238854	5.28832
0.525478	5.94526
1.01911	6.40511
1.52866	6.56934
3.00955	6.9635
4.93631	7.16058
