Adsorption isotherm of N-propane on CuBTC
DOI: 10.1016/j.seppur.2012.02.023
Adsorbate N-propane: InChIKey ATUOYWHBWRKTHZ-UHFFFAOYSA-N
Temperature: 348 K
Tabular data in the source: 0
pressure (bar)	uptake (mmol/g)
0	0.919708
0.0796178	1.60949
0.143312	2.85766
0.971338	5.51825
1.49682	5.91241
2.5	6.27372
2.99363	6.40511
5.03185	6.79927
