Adsorption isotherm of N-propane on CuBTC
DOI: 10.1016/j.seppur.2012.02.023
Adsorbate N-propane: InChIKey ATUOYWHBWRKTHZ-UHFFFAOYSA-N
Temperature: 348 K
Tabular data in the source: 0
pressure (bar)	uptake (mmol/g)
0.0636943	0.0636943
0.0955414	2.23358
0.143312	2.62774
0.238854	3.54745
0.286624	3.84307
0.366242	4.36861
0.493631	4.89416
0.621019	5.12409
0.716561	5.38686
0.987261	5.74818
1.13057	5.87956
1.28981	5.9781
1.43312	6.07664
1.59236	6.17518
1.73567	6.24088
1.8949	6.30657
2.05414	6.37226
2.21338	6.40511
2.37261	6.43796
2.54777	6.4708
2.70701	6.5365
2.85032	6.5365
3.05732	6.56934
3.21656	6.60219
3.3758	6.60219
3.53503	6.63504
3.67834	6.66788
3.83758	6.66788
4.09236	6.70073
4.25159	6.70073
4.41083	6.70073
4.57006	6.76642
4.7293	6.76642
4.88854	6.76642
5.07962	6.76642
