Adsorption isotherm of N-propane on CuBTC
DOI: 10.1016/j.seppur.2012.02.023
Adsorbate N-propane: InChIKey ATUOYWHBWRKTHZ-UHFFFAOYSA-N
Temperature: 373 K
Tabular data in the source: 0
pressure (bar)	uptake (mmol/g)
0.0796178	1.01825
0.159236	1.80657
0.207006	2.13504
0.270701	2.49635
0.382166	3.18613
0.461783	3.48175
0.684713	4.27007
0.796178	4.40146
0.923567	4.63139
1.09873	4.95985
1.36943	5.25547
1.51274	5.38686
1.75159	5.55109
1.8949	5.61679
2.05414	5.74818
2.16561	5.78102
2.30892	5.87956
2.46815	5.91241
2.62739	5.9781
2.7707	6.01095
2.96178	6.10949
3.21656	6.17518
3.3758	6.20803
3.51911	6.20803
3.67834	6.27372
3.83758	6.30657
3.99682	6.30657
4.14013	6.33942
4.29936	6.33942
4.4586	6.40511
4.61783	6.40511
4.76115	6.43796
4.92038	6.43796
5.07962	6.4708
