Adsorption isotherm of Nitrogen on C76H52N6O18Zn7
DOI: 10.1021/Ic401092j
Adsorbate Nitrogen: InChIKey IJGRMHOSHXDMSA-UHFFFAOYSA-N
Temperature: 298 K
Tabular data in the source: 0
pressure (bar)	uptake (mmol/g)
0.00797577	0.00302165
0.0506158	0.00702165
0.0932558	0.0110216
0.146556	0.0170216
0.208739	0.0210216
0.246049	0.0270216
0.290466	0.0310216
0.365086	0.0450216
0.457472	0.0610216
0.533869	0.0790216
0.619149	0.0990217
0.700876	0.117022
0.782602	0.141022
0.866106	0.169022
0.946056	0.193022
1.02423	0.215022
1.06687	0.225022
