Adsorption isotherm of Carbon Dioxide on C76H52N6O18Zn7
DOI: 10.1021/Ic401092j
Adsorbate Carbon Dioxide: InChIKey CURLTUGMZLYLDI-UHFFFAOYSA-N
Temperature: 298 K
Tabular data in the source: 0
pressure (bar)	uptake (mmol/g)
0.00797577	0.00702165
0.0133058	0.0470216
0.0364024	0.125022
0.0701591	0.223022
0.114576	0.305022
0.146556	0.363022
0.187419	0.429022
0.221176	0.479022
0.258486	0.531022
0.297572	0.583022
0.336659	0.623022
0.368639	0.669022
0.407726	0.701022
0.443259	0.741022
0.482346	0.777022
0.517879	0.805022
0.553412	0.833022
0.585392	0.857022
0.629809	0.897022
0.706206	0.947022
0.795039	1.00702
0.882096	1.06502
0.956716	1.11102
1.01357	1.13902
1.06865	1.17102
