Adsorption isotherm of Oxygen on C76H52N6O18Zn7
DOI: 10.1021/Ic401092j
Adsorbate Oxygen: InChIKey MYMOFIZGZYHOMD-UHFFFAOYSA-N
Temperature: 298 K
Tabular data in the source: 0
pressure (bar)	uptake (mmol/g)
0.00797577	0.00302165
0.0381791	0.00902165
0.0666058	0.0110216
0.127012	0.0150216
0.162546	0.0130216
0.226506	0.0170216
0.281582	0.0250216
0.381076	0.0290216
0.469909	0.0390216
0.535646	0.0430216
0.604936	0.0450216
0.663566	0.0450216
0.725749	0.0490216
0.786156	0.0530216
0.851892	0.0550216
0.914076	0.0630216
0.976259	0.0610216
1.06687	0.0730217
