Adsorption isotherm of Nitrogen on C76H52N6O18Zn7
DOI: 10.1021/Ic401092j
Adsorbate Nitrogen: InChIKey IJGRMHOSHXDMSA-UHFFFAOYSA-N
Temperature: 77 K
Tabular data in the source: 0
pressure (bar)	uptake (cm3(STP)/g)
0.00253904	95.6295
0.00424404	8.12951
0.00424404	21.8795
0.00424404	40.2128
0.00424404	69.3795
0.00935904	121.046
0.017884	126.88
0.031524	130.63
0.053689	132.713
0.086084	135.213
0.132119	142.296
0.152579	145.63
0.195204	152.713
0.229304	158.963
0.270224	165.63
0.302619	173.13
0.353769	181.046
0.435609	189.796
0.481644	193.963
0.548139	199.38
0.623159	203.546
0.681129	207.713
0.745919	211.046
0.810709	214.38
0.856744	216.463
0.894254	218.546
0.926649	220.63
0.955634	221.463
0.989734	223.546
1.01019	224.796
