Adsorption isotherm of Nitrogen on TFPT–TGCl–iCOF
DOI: 10.1039/d0ta01037e
Article source: Figure 4A
Adsorbate Nitrogen: InChIKey IJGRMHOSHXDMSA-UHFFFAOYSA-N
Kind: experiment
Temperature: 77 K
Tabular data in the source: 0
pressure (bar)	uptake (cm3(STP)/g)
-0.002063	29.722
0.010045	90.9927
0.02926	100.883
0.059711	107.878
0.079565	110.773
0.100741	113.668
0.121256	116.321
0.141767	118.01
0.161618	119.939
0.181465	120.904
0.201975	122.352
0.250934	125.246
0.304521	127.659
0.356123	129.83
0.405078	131.518
0.456018	133.689
0.505636	135.86
0.55525	137.066
0.606195	140.443
0.657796	142.373
0.705429	144.544
0.76167	149.369
0.809969	152.746
0.830484	155.64
0.8596	159.018
0.884749	163.118
0.908579	168.184
0.933741	176.144
0.958253	187.482
0.987443	213.293
0.992774	225.354
1.00344	250.682
1.00616	273.599
0.996856	259.608
0.987543	243.928
0.980893	233.073
0.96496	215.705
0.943744	200.749
0.917918	192.065
0.894081	184.828
0.862976	180.004
0.840471	175.421
0.811353	171.561
0.760391	162.636
0.706792	156.847
0.654534	156.364
0.58838	154.193
0.557289	153.711
0.509659	152.263
0.45937	147.198
0.403138	145.027
0.336323	143.338
0.30391	142.856
0.252971	141.408
0.202693	139.478
0.153074	136.825
