Adsorption isotherm of 2,4-Dichlorophenol, Water on TFPA–TGCl–iCOF
DOI: 10.1039/d0ta01037e
Article source: Figure 5A
Adsorbate 2,4-Dichlorophenol: InChIKey HFZWRUODUSTPEG-UHFFFAOYSA-N
Adsorbate Water: InChIKey XLYOFNOQVPJJNP-UHFFFAOYSA-N
Kind: experiment
Temperature: 298 K
Tabular data in the source: 0
pressure (bar)	2,4-Dichlorophenol fraction	2,4-Dichlorophenol uptake (mg/g)	Water fraction	Water uptake (mg/g)	total uptake (mg/g)
1.01325	4.43571	90.5913			
1.01325	25.6499	172.131			
1.01325	116.72	282.104			
1.01325	245.285	349.335			
1.01325	404.244	393.245			
1.01325	571.312	426.794			
1.01325	756.619	440.914			
1.01325	951.047	444.671			
