Adsorption isotherm of Nitrogen on TFPA–TGCl–iCOF
DOI: 10.1039/d0ta01037e
Article source: Figure 4C
Adsorbate Nitrogen: InChIKey IJGRMHOSHXDMSA-UHFFFAOYSA-N
Kind: experiment
Temperature: 77 K
Tabular data in the source: 0
pressure (bar)	uptake (cm3(STP)/g)
0.011709	1.99012
0.032796	2.45491
0.070587	2.89065
0.08483	2.99233
0.103416	3.2102
0.125088	3.35544
0.141189	3.47164
0.158528	3.60236
0.182665	3.64594
0.203717	3.77666
0.251995	3.90738
0.302139	4.12525
0.355997	4.35765
0.401803	4.51742
0.457497	4.56099
0.526824	4.79339
0.557784	4.99673
0.629584	5.20008
0.658692	5.447
0.704497	5.59225
0.753417	5.94084
0.811635	6.4492
0.831471	6.78327
0.858735	7.14639
0.887245	7.58213
0.909584	8.17764
0.937522	9.06365
0.962426	10.5161
0.987459	13.1887
0.993794	14.583
1.00092	17.5751
1.00738	20.175
0.989607	15.9484
0.971944	12.7529
0.945058	10.1094
0.918311	8.78768
0.892244	8.04692
0.868049	7.45141
0.841397	7.03019
0.814758	6.72517
0.78874	6.4492
0.757149	6.12966
0.708849	5.79559
0.658081	5.51962
0.607317	5.28723
0.536135	5.06936
0.503943	4.92411
0.434621	4.73529
0.401817	4.64814
0.353539	4.51742
0.301546	4.37217
0.252014	4.08168
0.203105	3.83476
0.149873	3.67499
