Adsorption isotherm of 2,4-Dichlorophenol, Water on TFPA-TGCl-iCOF
DOI: 10.1039/d0ta01037e
Article source: Figure S25A
Adsorbate 2,4-Dichlorophenol: InChIKey HFZWRUODUSTPEG-UHFFFAOYSA-N
Adsorbate Water: InChIKey XLYOFNOQVPJJNP-UHFFFAOYSA-N
Kind: experiment
Temperature: 308 K
Tabular data in the source: 0
pressure (bar)	2,4-Dichlorophenol fraction	2,4-Dichlorophenol uptake (mg/g)	Water fraction	Water uptake (mg/g)	total uptake (mg/g)
1.01325	1.11146	49.1897			
1.01325	5.48729	92.1367			
1.01325	26.2725	176.41			
1.01325	97.3798	301.199			
1.01325	217.715	382.231			
1.01325	375.245	426.799			
1.01325	541.527	458.401			
1.01325	723.124	474.608			
1.01325	924.959	476.634			
