Adsorption isotherm of 2,4-Dichlorophenol, Water on TFPT-TGCl-iCOF
DOI: 10.1039/d0ta01037e
Article source: Figure S23A
Adsorbate 2,4-Dichlorophenol: InChIKey HFZWRUODUSTPEG-UHFFFAOYSA-N
Adsorbate Water: InChIKey XLYOFNOQVPJJNP-UHFFFAOYSA-N
Kind: experiment
Temperature: 328 K
Tabular data in the source: 0
pressure (bar)	2,4-Dichlorophenol fraction	2,4-Dichlorophenol uptake (mg/g)	Water fraction	Water uptake (mg/g)	total uptake (mg/g)
1.01325	0.877754	46.4105			
1.01325	3.06261	95.4621			
1.01325	9.07098	190.732			
1.01325	26.0036	372.774			
1.01325	58.2303	542.525			
1.01325	109.575	691.487			
1.01325	174.574	828.162			
1.01325	267.431	929.883			
1.01325	409.446	991.896			
1.01325	595.706	1003.83			
