Adsorption isotherm of Nitrogen on TFPB–TGCl–iCOF
DOI: 10.1039/d0ta01037e
Article source: Figure 4B
Adsorbate Nitrogen: InChIKey IJGRMHOSHXDMSA-UHFFFAOYSA-N
Kind: experiment
Temperature: 77 K
Tabular data in the source: 0
pressure (bar)	uptake (cm3(STP)/g)
-0.001211	16.9106
0.00398	38.0648
0.028456	44.275
0.065177	51.3086
0.07917	52.546
0.096659	55.0261
0.1159	56.2609
0.139512	58.7379
0.161378	59.9713
0.181492	62.0352
0.20161	62.4398
0.251463	65.7331
0.303066	68.4033
0.352049	69.8303
0.404526	73.1223
0.451757	75.5873
0.504235	78.4645
0.555838	81.3421
0.60219	85.052
0.654669	87.5144
0.703642	92.8823
0.755237	98.6638
0.804203	106.106
0.829561	109.827
0.861027	119.352
0.887252	125.976
0.908216	137.166
0.927428	149.187
0.96146	179.868
0.983185	232.956
0.989217	266.555
0.997839	312.598
1.00122	354.911
0.987283	334.176
0.982084	315.925
0.963047	239.604
0.937816	189.421
0.913391	164.128
0.885452	144.645
0.861861	134.286
0.838261	127.66
0.811156	122.696
0.759567	114.84
0.707973	108.644
0.657686	104.106
0.605644	101.644
0.553167	98.3519
0.505938	95.4721
0.454333	93.4242
0.404474	92.2051
0.352871	89.3275
0.303012	88.5232
0.254029	86.8888
0.200674	84.8417
0.151694	82.3776
