Adsorption isotherm of 2,4-Dichlorophenol, Water on TFPB-TGCl-iCOF
DOI: 10.1039/d0ta01037e
Article source: Figure S24A
Adsorbate 2,4-Dichlorophenol: InChIKey HFZWRUODUSTPEG-UHFFFAOYSA-N
Adsorbate Water: InChIKey XLYOFNOQVPJJNP-UHFFFAOYSA-N
Kind: experiment
Temperature: 318 K
Tabular data in the source: 0
pressure (bar)	2,4-Dichlorophenol fraction	2,4-Dichlorophenol uptake (mg/g)	Water fraction	Water uptake (mg/g)	total uptake (mg/g)
1.01325	4.63466	95.2256			
1.01325	24.5498	178.477			
1.01325	71.3774	328.021			
1.01325	174.721	424.605			
1.01325	290.444	507.417			
1.01325	434.695	567.46			
1.01325	597.246	603.134			
1.01325	780.788	618.152			
