Adsorption isotherm of 2,4-Dichlorophenol, Water on TFPB–TGCl–iCOF
DOI: 10.1039/d0ta01037e
Article source: Figure 5A
Adsorbate 2,4-Dichlorophenol: InChIKey HFZWRUODUSTPEG-UHFFFAOYSA-N
Adsorbate Water: InChIKey XLYOFNOQVPJJNP-UHFFFAOYSA-N
Kind: experiment
Temperature: 298 K
Tabular data in the source: 0
pressure (bar)	2,4-Dichlorophenol fraction	2,4-Dichlorophenol uptake (mg/g)	Water fraction	Water uptake (mg/g)	total uptake (mg/g)
1.01325	1.92919	46.2868			
1.01325	5.46041	95.6643			
1.01325	24.3687	174.01			
1.01325	90.4789	307			
1.01325	198.26	403.78			
1.01325	332.294	465.008			
1.01325	486.901	512.41			
1.01325	667.238	532.161			
1.01325	858.38	541.378			
