Adsorption isotherm of 2,4-Dichlorophenol, Water on TFPB-TGCl-iCOF
DOI: 10.1039/d0ta01037e
Article source: Figure S24A
Adsorbate 2,4-Dichlorophenol: InChIKey HFZWRUODUSTPEG-UHFFFAOYSA-N
Adsorbate Water: InChIKey XLYOFNOQVPJJNP-UHFFFAOYSA-N
Kind: experiment
Temperature: 328 K
Tabular data in the source: 0
pressure (bar)	2,4-Dichlorophenol fraction	2,4-Dichlorophenol uptake (mg/g)	Water fraction	Water uptake (mg/g)	total uptake (mg/g)
1.01325	4.63466	95.7557			
1.01325	13.2466	185.888			
1.01325	60.6125	339.144			
1.01325	148.885	453.208			
1.01325	256.535	542.904			
1.01325	400.785	596.055			
1.01325	562.798	637.03			
1.01325	740.958	658.935			
