Adsorption isotherm of 2,4-Dichlorophenol, Water on TFPA-TGCl-iCOF
DOI: 10.1039/d0ta01037e
Article source: Figure S25A
Adsorbate 2,4-Dichlorophenol: InChIKey HFZWRUODUSTPEG-UHFFFAOYSA-N
Adsorbate Water: InChIKey XLYOFNOQVPJJNP-UHFFFAOYSA-N
Kind: experiment
Temperature: 328 K
Tabular data in the source: 0
pressure (bar)	2,4-Dichlorophenol fraction	2,4-Dichlorophenol uptake (mg/g)	Water fraction	Water uptake (mg/g)	total uptake (mg/g)
1.01325	1.11146	50			
1.01325	2.20542	94.5676			
1.01325	10.9571	189.375			
1.01325	57.9973	340.095			
1.01325	155.36	445.436			
1.01325	292.104	502.969			
1.01325	463.856	532.951			
1.01325	644.359	557.26			
1.01325	839.083	561.312			
