Adsorption isotherm of 2,4-Dichlorophenol, Water on TFPT-TGCl-iCOF
DOI: 10.1039/d0ta01037e
Article source: Figure S23A
Adsorbate 2,4-Dichlorophenol: InChIKey HFZWRUODUSTPEG-UHFFFAOYSA-N
Adsorbate Water: InChIKey XLYOFNOQVPJJNP-UHFFFAOYSA-N
Kind: experiment
Temperature: 308 K
Tabular data in the source: 0
pressure (bar)	2,4-Dichlorophenol fraction	2,4-Dichlorophenol uptake (mg/g)	Water fraction	Water uptake (mg/g)	total uptake (mg/g)
1.01325	4.15504	93.5734			
1.01325	39.1128	359.544			
1.01325	88.8183	511.339			
1.01325	160.919	636.681			
1.01325	261.968	737.444			
1.01325	384.321	814.586			
1.01325	525.79	870.939			
1.01325	713.688	883.816			
