Adsorption isotherm of 2,4-Dichlorophenol, Water on TFPA-TGCl-iCOF
DOI: 10.1039/d0ta01037e
Article source: Figure S25A
Adsorbate 2,4-Dichlorophenol: InChIKey HFZWRUODUSTPEG-UHFFFAOYSA-N
Adsorbate Water: InChIKey XLYOFNOQVPJJNP-UHFFFAOYSA-N
Kind: experiment
Temperature: 318 K
Tabular data in the source: 0
pressure (bar)	2,4-Dichlorophenol fraction	2,4-Dichlorophenol uptake (mg/g)	Water fraction	Water uptake (mg/g)	total uptake (mg/g)
1.01325	1.11146	45.9484			
1.01325	5.48729	92.947			
1.01325	20.8027	178.031			
1.01325	75.5006	319.837			
1.01325	187.084	413.023			
1.01325	331.487	468.125			
1.01325	510.896	490.814			
1.01325	684.835	516.744			
1.01325	883.935	518.365			
