Adsorption isotherm of 2,4-Dichlorophenol, Water on TFPT-TGCl-iCOF
DOI: 10.1039/d0ta01037e
Article source: Figure S23A
Adsorbate 2,4-Dichlorophenol: InChIKey HFZWRUODUSTPEG-UHFFFAOYSA-N
Adsorbate Water: InChIKey XLYOFNOQVPJJNP-UHFFFAOYSA-N
Kind: experiment
Temperature: 318 K
Tabular data in the source: 0
pressure (bar)	2,4-Dichlorophenol fraction	2,4-Dichlorophenol uptake (mg/g)	Water fraction	Water uptake (mg/g)	total uptake (mg/g)
1.01325	2.5164	46.4076			
1.01325	6.3399	86.966			
1.01325	13.4407	183.178			
1.01325	34.1969	358.609			
1.01325	70.247	525.523			
1.01325	136.339	665.026			
1.01325	218.817	782.802			
1.01325	330.792	870.339			
1.01325	482.639	918.184			
1.01325	650.327	949.963			
