Adsorption isotherm of 2,4-Dichlorophenol, Water on TFPT–TGCl–iCOF
DOI: 10.1039/d0ta01037e
Article source: Figure 5A
Adsorbate 2,4-Dichlorophenol: InChIKey HFZWRUODUSTPEG-UHFFFAOYSA-N
Adsorbate Water: InChIKey XLYOFNOQVPJJNP-UHFFFAOYSA-N
Kind: experiment
Temperature: 298 K
Tabular data in the source: 0
pressure (bar)	2,4-Dichlorophenol fraction	2,4-Dichlorophenol uptake (mg/g)	Water fraction	Water uptake (mg/g)	total uptake (mg/g)
1.01325	4.46274	47.8729			
1.01325	11.4629	187.674			
1.01325	39.71	357.235			
1.01325	95.3153	500.888			
1.01325	181.318	616.043			
1.01325	289.615	707.882			
1.01325	426.282	773.813			
1.01325	577.137	822.907			
1.01325	763.456	838.32			
