Adsorption isotherm of 2,4-Dichlorophenol, Water on TFPB-TGCl-iCOF
DOI: 10.1039/d0ta01037e
Article source: Figure S24A
Adsorbate 2,4-Dichlorophenol: InChIKey HFZWRUODUSTPEG-UHFFFAOYSA-N
Adsorbate Water: InChIKey XLYOFNOQVPJJNP-UHFFFAOYSA-N
Kind: experiment
Temperature: 308 K
Tabular data in the source: 0
pressure (bar)	2,4-Dichlorophenol fraction	2,4-Dichlorophenol uptake (mg/g)	Water fraction	Water uptake (mg/g)	total uptake (mg/g)
1.01325	-0.747822	47.5077			
1.01325	4.63466	95.2256			
1.01325	25.0881	186.959			
1.01325	82.1424	316.898			
1.01325	185.486	414.543			
1.01325	313.589	485.703			
1.01325	466.99	533.031			
1.01325	636	565			
1.01325	823.31	577.902			
