Adsorption isotherm of Hydrogen on Li-MIL-101(Cr)
DOI: 10.1021/jp301375s
Adsorbate Hydrogen: InChIKey UFHFLCQGNIYNRP-UHFFFAOYSA-N
Temperature: 77 K
Tabular data in the source: 0
pressure (bar)	uptake (wt%)
0.0102412	0.120172
0.0239011	0.274678
0.0340388	0.515021
0.0476987	0.669528
0.0648069	0.824034
0.0715702	0.978541
0.0886784	1.13305
0.105787	1.28755
0.129762	1.47639
0.157259	1.5794
0.226047	1.78541
0.253559	1.87124
0.28452	1.95708
0.322347	2.07725
0.349859	2.16309
0.380805	2.26609
0.422081	2.38627
0.449578	2.48927
0.521829	2.67811
0.552819	2.72961
0.587243	2.79828
0.611336	2.84979
0.642312	2.91845
0.67675	2.96996
0.707725	3.03863
0.742178	3.07296
0.773198	3.09013
0.804203	3.12446
0.838656	3.1588
0.869661	3.19313
0.900666	3.22747
0.935119	3.2618
0.966139	3.27897
