Adsorption isotherm of Hydrogen on Li-MIL-101(Cr)
DOI: 10.1021/jp301375s
Adsorbate Hydrogen: InChIKey UFHFLCQGNIYNRP-UHFFFAOYSA-N
Temperature: 77 K
Tabular data in the source: 0
pressure (bar)	uptake (wt%)
0.202102	1.56223
0.397928	2.40343
0.497691	2.67811
0.997173	3.27897
