Adsorption isotherm of Hydrogen on Cr-MIL(101)
DOI: 10.1021/jp301375s
Adsorbate Hydrogen: InChIKey UFHFLCQGNIYNRP-UHFFFAOYSA-N
Temperature: 77 K
Tabular data in the source: 0
pressure (bar)	uptake (wt%)
0.266818	1.4885
2.4072	3.21042
5.19785	4.18846
10.1872	5.02799
19.8816	5.77669
29.9084	5.92089
49.6399	6.4882
59.6652	6.67891
79.7247	6.78127
