Adsorption isotherm of Hydrogen on Cr-MIL(101)
DOI: 10.1021/jp301375s
Adsorbate Hydrogen: InChIKey UFHFLCQGNIYNRP-UHFFFAOYSA-N
Temperature: 77 K
Tabular data in the source: 0
pressure (bar)	uptake (wt%)
0.266818	1.4885
1.16933	2.69822
2.09081	3.3033
5.1964	4.23498
9.87082	5.12087
19.867	6.2418
29.8734	7.03715
49.9052	8.02321
59.6113	8.39982
79.9668	9.06045
99.7026	9.48823
