Adsorption isotherm of Hydrogen on Li+-MIL-101(Cr)
DOI: 10.1021/jp301375s
Adsorbate Hydrogen: InChIKey UFHFLCQGNIYNRP-UHFFFAOYSA-N
Temperature: 77 K
Tabular data in the source: 0
pressure (bar)	uptake (wt%)
10.2306	0.888889
20.0968	2.05128
29.9436	2.80342
50.3741	3.93162
60.2032	4.30769
80.2322	4.92308
99.8774	5.40171
