Adsorption isotherm of Hydrogen on Li-MIL-101(Cr)
DOI: 10.1021/jp301375s
Adsorbate Hydrogen: InChIKey UFHFLCQGNIYNRP-UHFFFAOYSA-N
Temperature: 77 K
Tabular data in the source: 0
pressure (bar)	uptake (wt%)
1.43032	4.37276
2.04269	4.83816
4.8421	5.53714
10.1449	6.37681
19.832	7.35806
29.5308	7.96722
49.8775	8.90692
59.585	9.23702
79.63	9.80448
99.9927	10.2326
