Adsorption isotherm of Hydrogen on MIL-101(Cr)
DOI: 10.1021/jp301375s
Adsorbate Hydrogen: InChIKey UFHFLCQGNIYNRP-UHFFFAOYSA-N
Temperature: 77 K
Tabular data in the source: 0
pressure (bar)	uptake (wt%)
9.86293	1.09402
19.7355	2.39316
29.9677	3.31624
50.0242	4.51282
60.2338	4.95726
80.2661	5.64103
100.292	6.18803
