Adsorption isotherm of Carbon Dioxide on mmen-Mg2(dobpdc)
DOI: 10.1039/C4ee00143e
Adsorbate Carbon Dioxide: InChIKey CURLTUGMZLYLDI-UHFFFAOYSA-N
Temperature: 323 K
Tabular data in the source: 0
pressure (bar)	uptake (mmol/g)
-0.00400802	0.969821
-0.00200401	1.26709
-5.55112e-17	1.51485
0.00200401	0.267565
0.00801603	2.27818
0.0140281	2.49672
0.0180361	2.5863
0.0340681	2.68722
0.0501002	2.74853
0.0641283	2.8096
0.0761523	2.84073
0.104208	2.89357
0.130261	2.93627
0.154309	2.95893
0.180361	2.98183
0.200401	3.00401
0.252505	3.0498
0.300601	3.08522
0.350701	3.13078
0.402806	3.17657
0.450902	3.20209
0.496994	3.23727
0.599198	3.31872
0.699399	3.37023
0.801603	3.43187
0.901804	3.48338
1	3.54455
1.1022	3.5864
