Adsorption isotherm of Methane on PCN-88
DOI: 10.1039/C4ee00143e
Adsorbate Methane: InChIKey VNWKTOKETHGBQD-UHFFFAOYSA-N
Temperature: 273 K
Tabular data in the source: 0
pressure (bar)	uptake (cm3(STP)/g)
0.066454	2.76923
0.0956791	4.98462
0.119601	6.09231
0.143531	6.64615
0.170121	7.2
0.202022	8.30769
0.228612	8.86154
0.255194	9.96923
0.284435	11.0769
0.308365	11.6308
0.326966	12.7385
0.353556	13.2923
0.380146	13.8462
0.414707	14.9538
0.446601	16.6154
0.475842	17.7231
0.491793	18.2769
0.531674	19.3846
0.552952	19.3846
0.579542	19.9385
0.606131	20.4923
0.630044	22.1538
0.659303	22.1538
0.685884	23.2615
0.709814	23.8154
0.736395	24.9231
0.762977	26.0308
0.789559	27.1385
0.818809	27.6923
0.845398	28.2462
0.869321	29.3538
0.890599	29.3538
0.92516	30.4615
0.94643	31.0154
0.973012	32.1231
1.00492	32.6769
1.03151	33.2308
1.0581	33.7846
1.09532	34.8923
