Adsorption isotherm of Carbon Dioxide on SMIT-1
DOI: 10.1039/C4ee00143e
Adsorbate Carbon Dioxide: InChIKey CURLTUGMZLYLDI-UHFFFAOYSA-N
Temperature: 273 K
Tabular data in the source: 0
pressure (bar)	uptake (cm3(STP)/g)
0.017363	2.20862
0.0390665	3.53557
0.0629406	5.00992
0.0933257	5.89706
0.11937	6.78352
0.143244	7.52257
0.175799	8.263
0.195333	8.85431
0.223547	9.44699
0.253932	9.89295
0.275636	10.4846
0.308192	10.9309
0.332066	11.2288
0.358111	11.9682
0.386324	12.2668
0.410198	12.5646
0.438413	12.8632
0.468799	13.3092
0.494843	13.7544
0.518717	14.0523
0.549102	14.3512
0.579487	14.7972
0.601191	15.0947
0.627235	15.54
0.648939	15.6905
0.677154	15.9891
0.705369	16.5817
0.733584	16.5862
0.761797	17.1789
0.783501	17.4764
0.811716	17.6279
0.83776	17.7791
0.861634	18.224
0.889849	18.6696
0.918064	18.8211
0.944109	18.8252
