Adsorption isotherm of Hydrogen on Na-CHA
DOI: 10.1039/C4ee00143e
Adsorbate Hydrogen: InChIKey UFHFLCQGNIYNRP-UHFFFAOYSA-N
Temperature: 298 K
Tabular data in the source: 0
pressure (bar)	uptake (mmol/g)
0.204406	27.4935
0.615667	37.261
1.07222	42.6873
1.57895	46.6667
2.05508	48.1137
2.58507	50.2842
3.11444	52.093
3.61628	53.1783
4.59364	55.3488
5.62179	56.4341
6.57038	57.1576
7.57222	58.2429
8.62607	58.9664
9.41677	59.6899
