Adsorption isotherm of Methane on PCN-88
DOI: 10.1039/C4ee00143e
Adsorbate Methane: InChIKey VNWKTOKETHGBQD-UHFFFAOYSA-N
Temperature: 296 K
Tabular data in the source: 0
pressure (bar)	uptake (cm3(STP)/g)
0.1489	3.32308
0.191448	3.87692
0.226001	5.53846
0.260579	5.53846
0.284501	6.64615
0.303127	6.09231
0.329709	7.2
0.361626	7.2
0.385548	8.30769
0.404151	9.41538
0.438703	11.0769
0.467952	11.6308
0.494542	12.1846
0.518472	12.7385
0.542402	13.2923
0.576979	13.2923
0.598257	13.2923
0.624857	13.2923
0.651429	14.9538
0.680704	13.8462
0.707294	14.4
0.733884	14.9538
0.757814	15.5077
0.787063	16.0615
0.810993	16.6154
0.832264	17.1692
0.858861	17.1692
0.888111	17.7231
0.917369	17.7231
0.946626	17.7231
0.97586	19.3846
0.994478	19.3846
1.02374	19.3846
1.05299	19.9385
1.07692	20.4923
