Adsorption isotherm of Hydrogen on ZJU-35a
DOI: 10.1039/C4ee00143e
Adsorbate Hydrogen: InChIKey UFHFLCQGNIYNRP-UHFFFAOYSA-N
Temperature: 298 K
Tabular data in the source: 0
pressure (bar)	uptake (mmol/g)
6.03711	1.3215
19.8608	4.54929
39.7305	8.54955
49.6759	9.9026
60.016	11.0196
