Adsorption isotherm of Carbon Dioxide on SNU-M10
DOI: 10.1039/C4ee00143e
Adsorbate Carbon Dioxide: InChIKey CURLTUGMZLYLDI-UHFFFAOYSA-N
Temperature: 298 K
Tabular data in the source: 0
pressure (bar)	uptake (cm3(STP)/g)
0.0124331	0.0107088
0.0342248	0.684024
0.0622106	0.92631
0.0933045	1.17127
0.115063	1.19001
0.161721	1.88475
0.211453	1.92758
0.264304	2.19129
0.320276	2.67586
0.366911	2.93421
0.416678	3.63162
0.466466	4.76541
0.510027	5.67566
0.562902	6.37574
0.618907	7.51489
0.656658	16.2747
0.716066	23.0895
0.766103	29.0235
0.822414	36.0538
0.878588	40.4658
0.912937	43.55
0.981444	46.009
