Adsorption isotherm of Carbon Dioxide on SMIT-1
DOI: 10.1039/C4ee00143e
Adsorbate Carbon Dioxide: InChIKey CURLTUGMZLYLDI-UHFFFAOYSA-N
Temperature: 296 K
Tabular data in the source: 0
pressure (bar)	uptake (cm3(STP)/g)
0.0672813	2.36354
0.0933257	3.39706
0.115029	3.98871
0.147585	4.58208
0.17363	5.17442
0.199673	5.47264
0.225717	5.77086
0.251762	6.3632
0.279977	6.66176
0.308192	6.96033
0.334237	7.40561
0.358111	7.85055
0.384155	8.29583
0.412369	8.44733
0.434072	8.74487
0.470969	9.0448
0.499184	9.49042
0.523058	9.64124
0.549102	9.93947
0.577317	10.091
0.601191	10.2418
0.629406	10.8345
0.65545	10.9856
0.679324	11.4306
0.705369	11.7288
0.731413	11.88
0.761797	12.1789
0.785671	12.4767
0.811716	12.6279
0.83559	12.9258
0.868146	13.078
0.889849	13.5226
0.922404	13.6748
0.948449	13.973
