Adsorption isotherm of Hydrogen on SNU-M10
DOI: 10.1039/C4ee00143e
Adsorbate Hydrogen: InChIKey UFHFLCQGNIYNRP-UHFFFAOYSA-N
Temperature: 298 K
Tabular data in the source: 0
pressure (bar)	uptake (cm3(STP)/g)
0.143104	2.52326
0.199053	2.57145
0.24258	2.82712
0.289216	3.08547
0.345153	2.91547
0.394919	3.61288
0.453988	3.88194
0.556594	4.62486
0.603219	4.66502
0.649832	4.48698
0.708911	4.97423
0.749319	5.00904
0.799029	4.61549
0.845652	4.65565
0.892265	4.47761
0.923347	4.50438
