Adsorption isotherm of Nitrogen on [Zn2(btm)2] 1.5CO2
DOI: 10.1039/C4ee00143e
Adsorbate Nitrogen: InChIKey IJGRMHOSHXDMSA-UHFFFAOYSA-N
Temperature: 298 K
Tabular data in the source: 0
pressure (bar)	uptake (cm3(STP)/g)
0.015832	-0.387334
0.0336541	-0.373077
0.0475108	-0.561991
0.0653379	-0.34773
0.12674	0.301392
0.150508	0.520406
0.172281	0.137825
0.20595	0.36476
0.229712	0.38377
0.261401	0.609121
0.287144	0.629715
0.316853	0.853482
0.346561	1.07725
0.37824	0.902592
0.403988	1.12319
0.437652	1.15012
0.473301	1.37864
0.506965	1.40557
0.574289	1.25943
0.605977	1.48478
0.637661	1.51013
0.663409	1.73073
0.693118	1.95449
0.726782	1.98143
0.75649	2.20519
0.817878	2.2543
0.87927	2.50342
1.00799	2.60639
