Adsorption isotherm of Carbon Dioxide on SYSU
DOI: 10.1039/C4ee00143e
Adsorbate Carbon Dioxide: InChIKey CURLTUGMZLYLDI-UHFFFAOYSA-N
Temperature: 298 K
Tabular data in the source: 0
pressure (bar)	uptake (cm3(STP)/g)
0.000194599	0.375
0.000369686	0.75
0.000602918	1.40625
0.000816768	1.96875
0.00110867	2.53125
0.00134199	3.125
0.00159482	3.71875
0.00190636	4.1875
0.00213972	4.75
0.00239281	5.15625
0.00264586	5.59375
0.00291838	6.0625
0.00317139	6.53125
0.00344399	6.9375
0.00367761	7.3125
0.00393071	7.71875
0.00418389	8.0625
0.00447618	8.34375
0.00502147	9.09375
0.00529429	9.34375
0.0055476	9.59375
0.00578123	9.96875
0.00603458	10.1875
0.00640492	10.4688
0.00661921	10.7188
0.00687252	10.9688
0.00712591	11.1563
0.00737931	11.3438
0.00765205	11.6563
0.00790544	11.8438
0.00817831	12.0625
0.0084122	12.25
0.00864621	12.3438
0.00921145	12.7813
0.00940632	12.9688
0.0100106	13.375
0.0103811	13.5625
0.0105176	13.6563
