Adsorption isotherm of Hydrogen on K-KFL
DOI: 10.1039/C4ee00143e
Adsorbate Hydrogen: InChIKey UFHFLCQGNIYNRP-UHFFFAOYSA-N
Temperature: 298 K
Tabular data in the source: 0
pressure (bar)	uptake (mmol/g)
0.309058	58.2429
0.586903	66.9251
1.06916	71.9897
1.62791	75.6072
2.13219	78.1395
2.66034	79.2248
3.13586	80.3101
3.66401	81.3953
4.11322	82.4806
5.19461	83.9276
6.17013	85.0129
7.11934	86.0982
8.11995	86.4599
9.14871	87.907
10.2026	88.6305
