Adsorption isotherm of Carbon Dioxide on mmen-Mg2(dobpdc)
DOI: 10.1039/C4ee00143e
Adsorbate Carbon Dioxide: InChIKey CURLTUGMZLYLDI-UHFFFAOYSA-N
Temperature: 348 K
Tabular data in the source: 0
pressure (bar)	uptake (mmol/g)
0.00400802	0.168793
0.01002	0.674458
0.012024	0.357864
0.0180361	1.5467
0.0200401	1.78456
0.0240481	2.02266
0.0320641	2.19193
0.0380762	2.32136
0.0480962	2.42156
0.0581162	2.50195
0.0741483	2.58307
0.0981964	2.65523
0.126253	2.70807
0.148297	2.75029
0.170341	2.78261
0.200401	2.82579
0.250501	2.87135
0.304609	2.92728
0.350701	2.95256
0.400802	2.99812
0.450902	3.03377
0.496994	3.07885
0.599198	3.1207
0.697395	3.17197
0.797595	3.22348
0.8998	3.26532
1.002	3.32697
1.10621	3.35915
