Adsorption isotherm of Nitrogen on PCN-88
DOI: 10.1039/C4ee00143e
Adsorbate Nitrogen: InChIKey IJGRMHOSHXDMSA-UHFFFAOYSA-N
Temperature: 273 K
Tabular data in the source: 0
pressure (bar)	uptake (cm3(STP)/g)
0.0425568	-2.84217e-14
0.090425	0.553846
0.143622	0.553846
0.202137	0.553846
0.252689	-0.553846
0.30852	1.10769
0.359065	0.553846
0.412245	1.66154
0.476064	2.76923
0.526607	2.21538
0.582463	2.21538
0.635658	2.21538
0.686196	2.21538
0.736723	2.76923
0.792579	2.76923
0.848426	3.32308
0.898962	3.32308
0.949499	3.32308
1.0027	2.76923
1.0559	2.76923
