Adsorption isotherm of Carbon Dioxide on PCN-88
DOI: 10.1039/C4ee00143e
Adsorbate Carbon Dioxide: InChIKey CURLTUGMZLYLDI-UHFFFAOYSA-N
Temperature: 273 K
Tabular data in the source: 0
pressure (bar)	uptake (cm3(STP)/g)
0.0291513	7.2
0.0424013	10.5231
0.0635733	17.7231
0.0927737	21.6
0.119282	27.6923
0.145789	33.7846
0.172314	38.7692
0.201506	43.2
0.222711	48.1846
0.251887	53.7231
0.28108	58.1538
0.304944	63.1385
0.331493	66.4615
0.355357	71.4462
0.381898	75.3231
0.411106	78.6462
0.442958	83.0769
0.469499	86.9538
0.496041	90.8308
0.525249	94.1538
0.54647	98.0308
0.578322	102.462
0.602202	106.338
0.628743	110.215
0.652625	114.092
0.684493	117.415
0.711034	121.292
0.734922	124.615
0.753517	126.277
0.788037	130.154
0.811909	134.585
0.838475	136.8
0.870351	139.569
0.896892	143.446
0.92079	146.215
0.949998	149.538
0.973887	152.862
0.997793	155.077
1.02434	158.4
1.06152	162.277
1.07745	164.492
