Adsorption isotherm of Carbon Dioxide on SNU-M11
DOI: 10.1039/C4ee00143e
Adsorbate Carbon Dioxide: InChIKey CURLTUGMZLYLDI-UHFFFAOYSA-N
Temperature: 298 K
Tabular data in the source: 0
pressure (bar)	uptake (wt%)
0.00156738	0.0554068
1.10474	0.552559
2.09793	0.662002
4.88421	1.15682
15.8848	1.52945
20.2772	2.79777
20.5684	16.5942
23.3419	20.1365
25.619	20.1334
30.3713	20.1268
35.6187	20.1195
