Adsorption isotherm of Carbon Dioxide on mmen-Mg2(dobpdc)
DOI: 10.1039/C4ee00143e
Adsorbate Carbon Dioxide: InChIKey CURLTUGMZLYLDI-UHFFFAOYSA-N
Temperature: 298 K
Tabular data in the source: 0
pressure (bar)	uptake (mmol/g)
-0.00400802	2.29655
-0.00200401	0.118574
-5.55112e-17	2.09901
0.00200401	1.42598
0.012024	2.80341
0.0260521	2.87438
0.0300601	2.90456
0.0480962	2.95621
0.0661323	3.01776
0.0961924	3.07083
0.124248	3.11377
0.148297	3.16613
0.174349	3.18903
0.196393	3.23125
0.250501	3.28719
0.302605	3.34288
0.352705	3.38844
0.396794	3.45308
0.452906	3.49936
0.501002	3.55457
0.599198	3.62565
0.699399	3.73656
0.797595	3.80764
0.905812	3.8997
0.997996	3.98986
1.0982	4.06117
