Adsorption isotherm of Carbon Dioxide on SIFSIX-3-Zn
DOI: 10.1039/C4ee00143e
Adsorbate Carbon Dioxide: InChIKey CURLTUGMZLYLDI-UHFFFAOYSA-N
Temperature: 318 K
Tabular data in the source: 0
pressure (bar)	uptake (mmol/g)
0.00137191	0.317937
0.00138869	0.260735
0.00223046	0.38794
0.0028053	0.426134
0.00307968	0.489721
0.00394753	0.527946
0.00452237	0.56614
0.00538464	0.623431
0.00566273	0.674307
0.00653058	0.712532
0.00710356	0.757082
0.00796956	0.801662
0.00854067	0.852567
0.00998522	0.92263
0.0105545	0.979892
0.0195316	1.3431
0.0294137	1.61741
0.0396113	1.81549
0.049818	1.98178
0.0620928	2.09109
0.070575	2.1428
0.0816889	2.21385
0.0907609	2.25292
0.105398	2.2989
0.14786	2.38587
