Adsorption isotherm of Carbon Dioxide on MIL-101
DOI: 10.1039/C4ee00143e
Adsorbate Carbon Dioxide: InChIKey CURLTUGMZLYLDI-UHFFFAOYSA-N
Temperature: 296 K
Tabular data in the source: 0
pressure (bar)	uptake (cm3(STP)/g)
0.064407	4
0.0978986	5.14286
0.123661	6.28571
0.157152	7.42857
0.190644	8.57143
0.229289	10.2857
0.257628	10.8571
0.293696	11.4286
0.319459	12.5714
0.350374	12.5714
0.381289	13.1429
0.412205	13.7143
0.448272	15.4286
0.476611	15.4286
0.507526	15.4286
0.538442	16
0.569357	16.5714
0.597696	16.5714
0.631188	16.5714
0.667256	17.7143
0.700748	18.2857
0.726511	18.2857
0.75485	17.7143
0.785765	18.8571
0.816679	19.4286
0.847596	20
0.881088	20.5714
0.909427	20.5714
0.940341	22.2857
0.973833	22.2857
0.997019	21.7143
1.03824	22.2857
1.07173	22.8571
