Adsorption isotherm of Carbon Dioxide on [Zn2(btm)2] 1.5CO2
DOI: 10.1039/C4ee00143e
Adsorbate Carbon Dioxide: InChIKey CURLTUGMZLYLDI-UHFFFAOYSA-N
Temperature: 273 K
Tabular data in the source: 0
pressure (bar)	uptake (cm3(STP)/g)
0.0212201	19.3119
0.0251207	21.1045
0.0309544	24.4899
0.0406739	30.2649
0.0426856	28.6737
0.0524493	32.6577
0.0642099	35.6474
0.08779	39.2389
0.117263	43.8278
0.136932	46.0246
0.188101	50.6221
0.213698	52.4234
0.282627	56.6299
0.363396	60.6421
0.381138	61.0472
0.467839	64.4648
0.552587	67.0856
0.611728	68.3032
0.666915	69.9172
0.694528	69.9282
0.781273	71.5547
0.838452	72.3735
0.895626	73.3913
0.956755	74.0126
