Adsorption isotherm of Hydrogen on Li-KFL
DOI: 10.1039/C4ee00143e
Adsorbate Hydrogen: InChIKey UFHFLCQGNIYNRP-UHFFFAOYSA-N
Temperature: 298 K
Tabular data in the source: 0
pressure (bar)	uptake (mmol/g)
0.260098	75.969
0.532436	81.3953
0.695226	84.2894
0.936353	86.8217
1.12179	87.5452
1.62729	90.801
2.18299	92.6098
4.13709	96.5891
6.16707	98.7597
8.14382	100.568
10.1469	102.377
11.4064	100.207
