Adsorption isotherm of Carbon Dioxide on NJU-BAi8
DOI: 10.1039/C4ee00143e
Adsorbate Carbon Dioxide: InChIKey CURLTUGMZLYLDI-UHFFFAOYSA-N
Temperature: 298 K
Tabular data in the source: 0
pressure (bar)	uptake (cm3(STP)/g)
0.000369643	0.78125
0.000699913	1.8125
0.0009723	2.375
0.00122509	3
0.00143902	3.5
0.00169186	4.09375
0.00196433	4.59375
0.00219778	5.09375
0.00250936	5.53125
0.00276237	6
0.00301542	6.4375
0.00330749	6.875
0.0035605	7.34375
0.00381372	7.65625
0.0040669	8
0.00428114	8.28125
0.0045929	8.59375
0.0048851	8.9375
0.00548889	9.71875
0.00589813	10.0938
0.00624887	10.4375
0.00648258	10.75
0.00675544	10.9688
0.00700889	11.125
0.00724273	11.3438
0.00751555	11.5938
0.0077689	11.8125
0.00833419	12.2188
0.00856794	12.5
0.00903584	12.7813
0.00930875	12.9688
0.00969865	13.2188
0.00991311	13.3438
0.0102056	13.5
