Adsorption isotherm of Carbon Dioxide on SNU-M11
DOI: 10.1039/C4ee00143e
Adsorbate Carbon Dioxide: InChIKey CURLTUGMZLYLDI-UHFFFAOYSA-N
Temperature: 298 K
Tabular data in the source: 0
pressure (bar)	uptake (wt%)
1.68631	0.111111
4.66918	0.555556
10.1399	1.44444
10.5501	19.4444
20.1807	20.3889
30.4809	20.5
40.5752	20.3333
