Adsorption isotherm of Nitrogen on PCN-88
DOI: 10.1039/C4ee00143e
Adsorbate Nitrogen: InChIKey IJGRMHOSHXDMSA-UHFFFAOYSA-N
Temperature: 296 K
Tabular data in the source: 0
pressure (bar)	uptake (cm3(STP)/g)
0.0345856	-0.553846
0.0691466	0.553846
0.0957445	0.553846
0.119691	-2.84217e-14
0.146289	-2.84217e-14
0.180866	-2.84217e-14
0.223423	-2.84217e-14
0.284574	1.66154
0.340429	1.66154
0.385646	1.66154
0.446814	2.21538
0.500018	1.66154
0.555865	2.21538
0.606393	2.76923
0.659588	2.76923
0.707466	2.76923
0.760661	2.76923
0.816509	3.32308
0.864377	3.87692
0.92025	2.76923
0.978765	2.76923
1.03195	3.32308
