Adsorption isotherm of Hydrogen on K-CHA
DOI: 10.1039/C4ee00143e
Adsorbate Hydrogen: InChIKey UFHFLCQGNIYNRP-UHFFFAOYSA-N
Temperature: 298 K
Tabular data in the source: 0
pressure (bar)	uptake (mmol/g)
0.566707	39.4315
1.0967	41.6021
1.57466	44.1344
2.10159	44.4961
2.55018	45.2196
3.07711	45.5814
3.52448	45.5814
4.55386	47.3902
5.6071	47.7519
6.52938	48.4755
7.58323	49.199
8.55692	49.199
9.347	49.5607
10.1371	49.9225
