Adsorption isotherm of Carbon Dioxide on Mg-MOF-74
DOI: 10.1039/C4ee00143e
Adsorbate Carbon Dioxide: InChIKey CURLTUGMZLYLDI-UHFFFAOYSA-N
Temperature: 296 K
Tabular data in the source: 0
pressure (bar)	uptake (cm3(STP)/g)
0.0121136	51.5989
0.0123428	35.548
0.0170818	63.6398
0.0220746	73.9609
0.029621	85.4299
0.0372003	94.606
0.0652006	113.538
0.0984886	122.155
0.124124	126.755
0.160023	132.506
0.193384	135.964
0.224192	138.273
0.254991	141.156
0.288362	144.04
0.314037	145.774
0.347423	147.512
0.378248	148.675
0.414195	150.987
0.437309	152.146
0.473265	153.885
0.498934	156.192
0.532311	158.503
0.565705	159.667
0.593969	160.256
0.627362	161.42
0.655609	163.155
0.68387	163.743
0.719835	164.909
0.748089	166.071
0.786607	168.385
0.817431	169.548
0.845694	170.136
0.873956	170.724
0.907343	172.462
0.935596	173.624
0.971569	174.216
0.999815	175.951
1.03065	176.541
1.06148	177.131
