Adsorption isotherm of Carbon Dioxide on CuBTC
DOI: 10.1039/C4ee00143e
Adsorbate Carbon Dioxide: InChIKey CURLTUGMZLYLDI-UHFFFAOYSA-N
Temperature: 296 K
Tabular data in the source: 0
pressure (bar)	uptake (cm3(STP)/g)
0.0410308	6.32779
0.0717977	11.5036
0.102581	15.5328
0.125662	18.9847
0.161577	23.59
0.189783	28.1912
0.225697	32.7965
0.251358	35.6765
0.292429	39.1381
0.310362	43.1604
0.351418	47.7685
0.379655	50.0767
0.413009	54.1073
0.441222	58.1352
0.477154	61.594
0.497682	63.8981
0.538753	67.3596
0.564396	71.3861
0.592626	74.2676
0.628558	77.7264
0.656795	80.0345
0.687603	82.3441
0.723543	85.2296
0.754342	88.1124
0.787705	91.5699
0.821074	94.454
0.849311	96.7622
0.885243	100.221
0.908349	101.953
0.941727	104.264
0.969974	105.999
0.998211	108.307
1.03159	110.618
1.05983	112.926
