Adsorption isotherm of Carbon Dioxide on Cu-TDPAT
DOI: 10.1039/C4ee00143e
Adsorbate Carbon Dioxide: InChIKey CURLTUGMZLYLDI-UHFFFAOYSA-N
Temperature: 296 K
Tabular data in the source: 0
pressure (bar)	uptake (cm3(STP)/g)
0.0383379	14.9251
0.0742204	21.8233
0.107549	27.5737
0.125499	30.4496
0.158852	34.4803
0.1948	36.7926
0.228161	40.25
0.253812	43.7033
0.284613	46.5861
0.317982	49.4703
0.353931	51.7826
0.392448	54.0963
0.410406	56.3989
0.446338	59.8577
0.474584	61.5927
0.505384	64.4754
0.528498	65.6344
0.567007	68.5213
0.597823	70.2576
0.628655	70.8474
0.659463	73.157
0.692842	75.4679
0.723666	76.631
0.751903	78.9392
0.782728	80.1022
0.813544	81.8385
0.849483	84.7241
0.875168	85.8844
0.906	86.4742
0.939377	88.7851
0.967632	89.9468
0.998457	91.1099
1.03697	93.4236
1.07036	95.1613
