Adsorption isotherm of Hydrogen on Li-CHA
DOI: 10.1039/C4ee00143e
Adsorbate Hydrogen: InChIKey UFHFLCQGNIYNRP-UHFFFAOYSA-N
Temperature: 298 K
Tabular data in the source: 0
pressure (bar)	uptake (mmol/g)
0.565483	38.708
1.07895	46.6667
1.61077	49.9225
2.06059	51.3695
2.61567	52.8165
3.11689	53.5401
3.59241	54.6253
4.06732	55.3488
5.1224	56.7959
6.07099	57.5194
7.07222	58.2429
8.04774	59.3282
9.04774	59.3282
10.0747	59.6899
