Adsorption isotherm of Carbon Dioxide on SYSU
DOI: 10.1039/C4ee00143e
Adsorbate Carbon Dioxide: InChIKey CURLTUGMZLYLDI-UHFFFAOYSA-N
Temperature: 298 K
Tabular data in the source: 0
pressure (bar)	uptake (cm3(STP)/g)
0.000699913	1.8125
0.00118606	3
0.00145849	3.53125
0.00171159	3.9375
0.00198384	4.59375
0.00223689	5.03125
0.00245083	5.53125
0.00274277	6.0625
0.00303493	6.4375
0.00328802	6.84375
0.00354107	7.28125
0.0037747	7.65625
0.00406686	8.03125
0.00432012	8.3125
0.00463184	8.65625
0.00492417	8.90625
0.00595653	10.1875
0.00620984	10.4375
0.0064436	10.7188
0.00665797	10.9063
0.00698933	11.1563
0.0072622	11.375
0.00753502	11.625
0.00774935	11.8438
0.00806124	12.0625
0.00831459	12.2813
0.00860688	12.5625
0.0088213	12.7188
0.00903571	12.875
0.00973759	13.2813
0.00989355	13.375
0.010186	13.5313
