Adsorption isotherm of Carbon Dioxide on SNU-M10
DOI: 10.1039/C4ee00143e
Adsorbate Carbon Dioxide: InChIKey CURLTUGMZLYLDI-UHFFFAOYSA-N
Temperature: 298 K
Tabular data in the source: 0
pressure (bar)	uptake (cm3(STP)/g)
0.096831	9.24704
0.14367	13.4328
0.203258	23.7387
0.250052	27.0517
0.303051	30.1519
0.34356	32.1505
0.399644	34.8169
0.446336	36.1663
0.505495	38.1808
0.561523	39.7564
0.608214	41.1057
0.664242	42.6812
0.701599	43.8043
0.751364	44.5017
0.798045	45.6328
0.857136	46.3383
0.906902	47.0357
0.962897	47.9566
1.01573	48.0021
