Adsorption isotherm of Hydrogen on Cu-TDPAT
DOI: 10.1039/C4ee00143e
Adsorbate Hydrogen: InChIKey UFHFLCQGNIYNRP-UHFFFAOYSA-N
Temperature: 298 K
Tabular data in the source: 0
pressure (bar)	uptake (mmol/g)
6.032	1.63523
20.2414	5.176
50.2794	8.84259
59.8473	9.37285
