Adsorption isotherm of Carbon Dioxide on SIFSIX-3-Zn
DOI: 10.1039/C4ee00143e
Adsorbate Carbon Dioxide: InChIKey CURLTUGMZLYLDI-UHFFFAOYSA-N
Temperature: 308 K
Tabular data in the source: 0
pressure (bar)	uptake (mmol/g)
0.00501155	0.896698
0.00503389	0.82043
0.00587566	0.947634
0.0064412	1.01761
0.00788202	1.10038
0.00844941	1.164
0.00989397	1.23406
0.0107618	1.27229
0.0188524	1.66082
0.0293132	1.96062
0.0392308	2.11418
0.0520913	2.22354
0.0591105	2.26875
0.071693	2.32724
0.0819371	2.36642
0.089839	2.39901
0.107119	2.4262
0.153982	2.49454
