Adsorption isotherm of Hydrogen on ZJU-36a
DOI: 10.1039/C4ee00143e
Adsorbate Hydrogen: InChIKey UFHFLCQGNIYNRP-UHFFFAOYSA-N
Temperature: 298 K
Tabular data in the source: 0
pressure (bar)	uptake (mmol/g)
5.85252	0.655191
20.2759	3.05828
39.763	6.54948
50.0948	8.17628
59.8442	9.56893
