Adsorption isotherm of Hydrogen on LTA-5A
DOI: 10.1039/C4ee00143e
Adsorbate Hydrogen: InChIKey UFHFLCQGNIYNRP-UHFFFAOYSA-N
Temperature: 298 K
Tabular data in the source: 0
pressure (bar)	uptake (mmol/g)
1.16693	0.350653
6.03519	1.43915
19.7068	2.00057
40.0319	2.03915
50.1951	2.01923
59.9681	1.96085
