Adsorption isotherm of Hydrogen on Na-X
DOI: 10.1039/C4ee00143e
Adsorbate Hydrogen: InChIKey UFHFLCQGNIYNRP-UHFFFAOYSA-N
Temperature: 298 K
Tabular data in the source: 0
pressure (bar)	uptake (mmol/g)
6.04286	0.968543
20.0862	2.70571
39.8084	3.76508
49.9665	4.05889
59.9317	4.19621
