Adsorption isotherm of Carbon Dioxide on SIFSIX-3-Zn
DOI: 10.1039/C4ee00143e
Adsorbate Carbon Dioxide: InChIKey CURLTUGMZLYLDI-UHFFFAOYSA-N
Temperature: 338 K
Tabular data in the source: 0
pressure (bar)	uptake (mmol/g)
0.00029487	-0.00632581
0.000864124	0.0509357
0.00172824	0.101871
0.00317653	0.159223
0.00433738	0.197477
0.00549451	0.248443
0.00665351	0.293053
0.00781249	0.337663
0.00926077	0.395014
0.0107091	0.452365
0.0194173	0.732916
0.0293163	0.950029
0.0400979	1.15452
0.0497224	1.30805
0.0608195	1.4363
0.0722133	1.55187
0.0806919	1.61629
0.0909267	1.68725
0.102332	1.76469
0.147679	2.00449
