Adsorption isotherm of Carbon Dioxide on MOF-177
DOI: 10.1039/C4ee00143e
Adsorbate Carbon Dioxide: InChIKey CURLTUGMZLYLDI-UHFFFAOYSA-N
Temperature: 296 K
Tabular data in the source: 0
pressure (bar)	uptake (cm3(STP)/g)
0.285967	2.28571
0.316882	3.42857
0.350374	3.42857
0.383866	4.57143
0.409628	4
0.435391	4
0.474036	5.14286
0.499798	5.14286
0.533289	6.28571
0.564204	6.85714
0.59512	6.85714
0.628612	7.42857
0.66468	8
0.693019	7.42857
0.723934	8
0.75485	9.14286
0.783189	9.14286
0.819257	10.2857
0.845019	9.71429
0.875935	9.71429
0.906849	10.8571
0.937766	10.8571
0.973833	11.4286
0.994444	11.4286
1.03309	11.4286
1.06658	12
