Adsorption isotherm of Carbon Dioxide on [Zn2(btm)2] 1.5CO2
DOI: 10.1039/C4ee00143e
Adsorbate Carbon Dioxide: InChIKey CURLTUGMZLYLDI-UHFFFAOYSA-N
Temperature: 298 K
Tabular data in the source: 0
pressure (bar)	uptake (cm3(STP)/g)
0	0.598504
0.00988142	2.79893
0.0256917	5.60141
0.0316206	7.00147
0.0454545	8.80526
0.0533597	11.4035
0.0632411	13.0054
0.0790514	16.2069
0.104743	20.0128
0.162055	27.8277
0.229249	32.8554
0.258893	35.0677
0.316206	38.0945
0.343874	39.5076
0.407115	42.1389
0.436759	43.3537
0.5	45.586
0.535573	46.4053
0.563241	47.2199
0.594862	48.2363
0.628458	49.0544
0.656126	49.6695
0.685771	50.2857
0.719368	51.1039
0.750988	51.7213
0.774704	52.5335
0.810277	53.3528
0.839921	53.7695
0.863636	54.5817
0.901186	55.2027
0.93083	55.4199
0.996047	56.4565
1.02569	56.4742
