Adsorption isotherm of Carbon Dioxide on Zn5(BTA)6(TDA)2
DOI: 10.1039/C4ee00143e
Adsorbate Carbon Dioxide: InChIKey CURLTUGMZLYLDI-UHFFFAOYSA-N
Temperature: 296 K
Tabular data in the source: 0
pressure (bar)	uptake (cm3(STP)/g)
0.161668	17.2843
0.195061	18.4488
0.223308	20.1837
0.259256	22.496
0.284931	24.2296
0.326028	25.9714
0.361984	27.7105
0.387676	28.2975
0.415914	30.6057
0.446738	31.7688
0.482703	32.9346
0.508395	33.5217
0.536649	34.6833
0.564912	35.2718
0.600868	37.0108
0.62913	37.5993
0.659955	38.7623
0.690795	38.7789
0.724182	40.5166
0.749865	41.6769
0.783276	41.6949
0.814092	43.4312
0.847502	43.4491
0.878334	44.039
0.90916	45.202
0.937422	45.7905
0.968254	46.3803
1.00165	47.5447
1.02734	48.1318
1.0633	49.2976
