Adsorption isotherm of Carbon Dioxide on NJU-BAi7
DOI: 10.1039/C4ee00143e
Adsorbate Carbon Dioxide: InChIKey CURLTUGMZLYLDI-UHFFFAOYSA-N
Temperature: 298 K
Tabular data in the source: 0
pressure (bar)	uptake (cm3(STP)/g)
0.000231664	1.78125
0.000444207	3.28125
0.00073419	5.21875
0.00094743	6.21875
0.00118036	7.09375
0.00147204	7.8125
0.00174425	8.5
0.00195823	8.96875
0.00225035	9.375
0.00248406	9.6875
0.00277618	10.0938
0.00301002	10.3125
0.00328288	10.5313
0.00353624	10.75
0.00382866	10.9375
0.00412104	11.1563
0.00437448	11.3125
0.00460849	11.4063
0.004901	11.5313
0.00517395	11.6875
0.00542753	11.75
0.00573959	11.8438
0.00597361	11.9375
0.00628571	12
0.00650022	12.0938
0.00673419	12.2188
0.00698785	12.2188
0.00722191	12.2813
0.00753402	12.3438
0.00776807	12.4063
0.0080412	12.4375
0.00829469	12.5625
0.00884094	12.625
0.00907509	12.625
0.00940666	12.7188
0.00964072	12.7813
0.00993341	12.7813
0.0102066	12.7813
