Adsorption isotherm of Hydrogen on Mg-MOF-74
DOI: 10.1039/C4ee00143e
Adsorbate Hydrogen: InChIKey UFHFLCQGNIYNRP-UHFFFAOYSA-N
Temperature: 298 K
Tabular data in the source: 0
pressure (bar)	uptake (mmol/g)
6.01986	2.38035
20.0319	6.03915
39.9349	8.00013
49.8937	8.52962
59.8569	8.78459
