Adsorption isotherm of Hydrogen on CuBTC
DOI: 10.1039/C4ee00143e
Adsorbate Hydrogen: InChIKey UFHFLCQGNIYNRP-UHFFFAOYSA-N
Temperature: 298 K
Tabular data in the source: 0
pressure (bar)	uptake (mmol/g)
6.03008	1.75288
19.8461	5.45128
39.7337	8.35346
49.8841	9.11787
59.4513	9.68735
