Adsorption isotherm of Nitrogen on [Zn2(btm)2] 1.5CO2
DOI: 10.1039/C4ee00143e
Adsorbate Nitrogen: InChIKey IJGRMHOSHXDMSA-UHFFFAOYSA-N
Temperature: 298 K
Tabular data in the source: 0
pressure (bar)	uptake (cm3(STP)/g)
0.0848126	-0.13215
0.104536	-0.116371
0.120316	-0.103748
0.140039	0.312032
0.157791	0.326233
0.183432	0.146746
0.211045	0.368836
0.246548	0.397239
0.274162	0.619329
0.307692	0.446154
0.333333	0.666667
0.362919	1.29034
0.390533	0.912426
0.422091	0.937673
0.449704	1.15976
0.485207	1.38817
0.544379	1.6355
0.60355	1.88284
0.656805	1.32544
0.714004	1.7712
0.771203	2.21696
0.82643	2.06114
0.885602	2.10848
0.946746	2.1574
