Adsorption isotherm of Carbon Dioxide on SIFSIX-3-Zn
DOI: 10.1039/C4ee00143e
Adsorbate Carbon Dioxide: InChIKey CURLTUGMZLYLDI-UHFFFAOYSA-N
Temperature: 298 K
Tabular data in the source: 0
pressure (bar)	uptake (mmol/g)
0.00103794	0.457733
0.00159975	0.540418
0.00186295	0.642139
0.00268238	0.845613
0.00271218	0.743921
0.00295118	0.928268
0.00351671	0.998241
0.00408037	1.07457
0.00435104	1.15087
0.00520585	1.23358
0.00664481	1.32271
0.00721593	1.37362
0.00866047	1.44368
0.00981575	1.501
0.0103906	1.5392
0.0190542	1.97229
0.0295577	2.1259
0.0421272	2.22888
0.0494394	2.27412
0.0593848	2.33234
0.0710978	2.35896
0.0798842	2.37257
0.089839	2.39901
0.108877	2.42638
0.158095	2.45683
