Adsorption isotherm of Carbon Dioxide on UTSA-20a
DOI: 10.1039/C4ee00143e
Adsorbate Carbon Dioxide: InChIKey CURLTUGMZLYLDI-UHFFFAOYSA-N
Temperature: 296 K
Tabular data in the source: 0
pressure (bar)	uptake (cm3(STP)/g)
0.0256678	2.30679
0.0616076	5.19235
0.105257	8.08205
0.120653	9.81007
0.166849	14.4209
0.202789	17.3064
0.228464	19.04
0.261834	21.9242
0.290072	24.2323
0.31831	26.5405
0.354258	28.8528
0.387636	31.1638
0.415882	32.8987
0.449251	35.7829
0.469795	36.9404
0.508297	40.4006
0.539113	42.1369
0.564806	42.7239
0.598151	47.3279
0.628967	49.0642
0.659774	51.3737
0.693168	52.5382
0.721423	53.6998
0.752239	55.4361
0.788179	58.3217
0.816417	60.6299
0.854943	62.3703
0.880618	64.1039
0.908865	65.8388
0.942243	68.1497
0.973067	69.3128
1.00388	71.0491
1.03213	72.784
1.06552	74.5217
