Adsorption isotherm of Nitrogen on SNU-M10
DOI: 10.1039/C4ee00143e
Adsorbate Nitrogen: InChIKey IJGRMHOSHXDMSA-UHFFFAOYSA-N
Temperature: 298 K
Tabular data in the source: 0
pressure (bar)	uptake (cm3(STP)/g)
0.13673	-0.536778
0.189582	-0.273074
0.242422	-0.227562
0.28908	0.467171
0.341932	0.730875
0.397892	0.997256
0.453841	1.04545
0.497368	1.30112
0.550197	1.12844
0.599941	1.38947
0.65277	1.21679
0.696297	1.47246
0.749137	1.51797
0.805087	1.56616
0.848602	1.60364
0.904563	1.87002
0.948067	1.68931
