Adsorption isotherm of Carbon Dioxide on PCN-88
DOI: 10.1039/C4ee00143e
Adsorbate Carbon Dioxide: InChIKey CURLTUGMZLYLDI-UHFFFAOYSA-N
Temperature: 296 K
Tabular data in the source: 0
pressure (bar)	uptake (cm3(STP)/g)
0.0371717	4.43077
0.0610607	7.75385
0.0876096	11.0769
0.116827	13.8462
0.140715	17.1692
0.169933	19.9385
0.193829	22.7077
0.220379	26.0308
0.246944	28.2462
0.26819	30.4615
0.302718	33.7846
0.326624	36
0.355832	39.3231
0.382406	40.9846
0.408962	43.7538
0.446158	46.5231
0.470056	49.2923
0.49131	50.9538
0.517875	53.1692
0.544457	54.2769
0.571013	57.0462
0.600223	60.3692
0.626771	63.6923
0.653345	65.3538
0.679901	68.1231
0.703807	70.3385
0.733032	72.5538
0.754294	73.6615
0.788839	75.8769
0.812728	79.2
0.841961	80.8615
0.865866	83.0769
0.892424	85.8462
0.921656	87.5077
0.94291	89.1692
0.972136	91.3846
0.998709	93.0462
1.02527	95.8154
1.04653	96.9231
1.0731	98.5846
