Adsorption isotherm of Carbon Dioxide on Yb(BPT)
DOI: 10.1039/C4ee00143e
Adsorbate Carbon Dioxide: InChIKey CURLTUGMZLYLDI-UHFFFAOYSA-N
Temperature: 296 K
Tabular data in the source: 0
pressure (bar)	uptake (cm3(STP)/g)
0.0669832	1.14286
0.103051	1.71429
0.118509	2.28571
0.164881	3.42857
0.190644	4
0.22156	4
0.255051	4
0.288543	5.14286
0.319459	5.71429
0.350374	6.28571
0.383866	6.28571
0.404476	6.85714
0.440544	7.42857
0.476611	8.57143
0.502375	9.71429
0.533289	9.71429
0.566781	9.71429
0.597696	10.2857
0.631188	11.4286
0.659527	12
0.690442	12
0.721358	12.5714
0.74712	12.5714
0.783189	12.5714
0.819257	13.7143
0.850171	14.8571
0.881088	15.4286
0.912002	15.4286
0.937766	15.4286
0.971256	16
1.00217	16.5714
1.02793	16.5714
1.06658	16.5714
