Adsorption isotherm of Nitrogen on SMIT-1
DOI: 10.1039/C4ee00143e
Adsorbate Nitrogen: InChIKey IJGRMHOSHXDMSA-UHFFFAOYSA-N
Temperature: 77 K
Tabular data in the source: 0
pressure (bar)	uptake (cm3(STP)/g)
0.00868146	0.736662
0.023874	1.18023
0.0412369	1.47709
0.0564295	1.92066
0.0868146	2.51368
0.130222	2.9617
0.17363	3.70383
0.212696	4.0041
0.249591	4.30404
0.286488	4.45691
0.334237	4.75855
0.371132	5.05848
0.412369	5.21204
0.457946	5.6604
0.499184	5.81395
0.53608	6.26094
0.575146	6.41416
0.612043	6.56703
0.65328	6.72059
0.696687	7.02155
0.740094	7.46956
0.779161	7.91689
0.816057	8.06977
0.859464	8.22367
0.896361	8.5236
0.937598	8.67715
