Adsorption isotherm of Carbon Dioxide on Zn-MOF-74
DOI: 10.1039/C4ee00143e
Adsorbate Carbon Dioxide: InChIKey CURLTUGMZLYLDI-UHFFFAOYSA-N
Temperature: 296 K
Tabular data in the source: 0
pressure (bar)	uptake (cm3(STP)/g)
0.0690394	24.6868
0.0997654	32.7288
0.127954	38.4764
0.158639	49.3846
0.186811	56.2787
0.225272	62.6052
0.258584	69.502
0.289352	74.6778
0.314986	79.2776
0.348331	83.8815
0.38681	89.0614
0.412453	93.0879
0.438104	96.5412
0.471449	101.145
0.504811	104.603
0.535601	108.059
0.563839	110.367
0.597202	113.824
0.627992	117.28
0.6588	119.59
0.692178	121.901
0.720407	124.782
0.748654	126.517
0.784594	129.403
0.80513	131.133
0.848764	135.17
0.874439	136.903
0.905247	139.213
0.933501	140.374
0.972019	142.688
0.997695	144.422
1.02852	145.585
1.06704	147.898
