Adsorption isotherm of Methane on SMIT-1
DOI: 10.1039/C4ee00143e
Adsorbate Methane: InChIKey VNWKTOKETHGBQD-UHFFFAOYSA-N
Temperature: 196 K
Tabular data in the source: 0
pressure (bar)	uptake (cm3(STP)/g)
0.0390665	0.300274
0.088985	0.30814
0.145415	0.46409
0.195333	0.471956
0.251762	0.480848
0.306022	0.489398
0.358111	0.497606
0.410198	0.505814
0.468799	0.367989
0.520888	0.229138
0.572976	0.237346
0.625065	0.0984952
