Adsorption isotherm of Carbon Dioxide on Bio-MOF-11
DOI: 10.1039/C4ee00143e
Adsorbate Carbon Dioxide: InChIKey CURLTUGMZLYLDI-UHFFFAOYSA-N
Temperature: 296 K
Tabular data in the source: 0
pressure (bar)	uptake (cm3(STP)/g)
0.0332797	9.18986
0.0665757	17.2332
0.161381	37.3479
0.18957	43.0955
0.222899	48.8459
0.261376	54.0258
0.287027	57.4791
0.320364	62.6563
0.351163	65.5391
0.389657	69.5725
0.412747	72.4511
0.440976	75.3326
0.476907	78.7914
0.502584	80.5249
0.530822	82.8331
0.5642	85.144
0.602701	88.6042
0.625807	90.3363
0.661755	92.6487
0.695126	95.5328
0.723363	97.841
0.749054	98.4281
0.787565	101.315
0.813241	103.049
0.844057	104.785
0.877434	107.096
0.908259	108.259
0.939083	109.422
0.975032	111.734
0.993013	112.317
1.02384	113.48
1.06748	116.943
