Adsorption isotherm of Hydrogen on Ca-KFL
DOI: 10.1039/C4ee00143e
Adsorbate Hydrogen: InChIKey UFHFLCQGNIYNRP-UHFFFAOYSA-N
Temperature: 298 K
Tabular data in the source: 0
pressure (bar)	uptake (mmol/g)
0.352509	83.9276
0.75765	90.0775
0.971848	92.2481
1.15851	93.6951
1.68911	96.2274
2.16524	97.6744
4.17319	102.377
6.15116	104.91
8.18115	107.08
10.1854	109.612
