Adsorption isotherm of Nitrogen on SMIT-1
DOI: 10.1039/C4ee00143e
Adsorbate Nitrogen: InChIKey IJGRMHOSHXDMSA-UHFFFAOYSA-N
Temperature: 196 K
Tabular data in the source: 0
pressure (bar)	uptake (cm3(STP)/g)
0.00651109	0.589261
0.0260444	0.886457
0.0499184	1.47845
0.0933257	2.51471
0.128051	2.8143
0.169289	3.40903
0.210525	3.70964
0.253932	4.0106
0.284318	4.01539
0.327725	4.46341
0.368962	5.05814
0.412369	5.21204
0.453607	5.51265
0.494843	5.51915
0.53608	5.81977
0.575146	5.97298
0.616384	6.42066
0.65545	6.57387
0.698857	7.02189
0.735753	7.46888
0.776991	7.76949
0.813886	7.77531
0.857293	7.78215
0.89419	8.22914
0.935427	8.52975
