Adsorption isotherm of Carbon Dioxide on NJU-BAi7
DOI: 10.1039/C4ee00143e
Adsorbate Carbon Dioxide: InChIKey CURLTUGMZLYLDI-UHFFFAOYSA-N
Temperature: 298 K
Tabular data in the source: 0
pressure (bar)	uptake (cm3(STP)/g)
0.000115592	1.0625
0.000116246	0.59375
0.00019277	1.6875
0.000308885	2.375
0.000618249	4.40625
0.000792204	5.59375
0.00106407	6.53125
0.00133593	7.46875
0.00158863	8.15625
0.00186106	8.6875
0.00211407	9.15625
0.00238672	9.53125
0.00263994	9.84375
0.00289321	10.125
0.00314652	10.375
0.00341934	10.625
0.00369225	10.8125
0.00396516	11
0.0042186	11.1563
0.00445261	11.25
0.00474503	11.4375
0.00509608	11.5625
0.00556407	11.7813
0.0058176	11.875
0.00609064	11.9688
0.00634416	12.0625
0.00663676	12.125
0.00685131	12.1875
0.0071439	12.25
0.00739747	12.3125
0.00765109	12.3438
0.00790466	12.4063
0.00815819	12.5
0.00845083	12.5313
0.00872391	12.5938
0.0089385	12.625
0.00925061	12.6875
0.00948471	12.7188
0.00975784	12.75
0.0099919	12.8125
0.0103041	12.8125
0.0105187	12.8438
