Adsorption isotherm of Carbon Dioxide on Zn(bdc)(dabco)
DOI: 10.1039/C4ee00143e
Adsorbate Carbon Dioxide: InChIKey CURLTUGMZLYLDI-UHFFFAOYSA-N
Temperature: 296 K
Tabular data in the source: 0
pressure (bar)	uptake (cm3(STP)/g)
0.412205	14.8571
0.440544	15.4286
0.471459	17.7143
0.50495	18.2857
0.533289	20
0.561628	21.1429
0.597696	21.7143
0.620882	23.4286
0.656951	24.5714
0.687866	25.7143
0.723934	28
0.749697	28.5714
0.788341	29.7143
0.811528	30.8571
0.847596	32
0.87851	33.1429
0.912002	34.8571
0.937766	36
0.96868	37.1429
1.00475	38.8571
1.03566	40
1.064	41.7143
