Adsorption isotherm of Carbon Dioxide on [Zn2(btm)2] 1.5CO2
DOI: 10.1039/C4ee00143e
Adsorbate Carbon Dioxide: InChIKey CURLTUGMZLYLDI-UHFFFAOYSA-N
Temperature: 273 K
Tabular data in the source: 0
pressure (bar)	uptake (cm3(STP)/g)
0.0135907	8.76163
0.0154355	13.9365
0.0154747	12.3445
0.0232416	17.3227
0.0251992	17.9205
0.0329611	23.0977
0.0350071	20.1134
0.0407623	26.6829
0.0427003	28.0767
0.0544707	30.6684
0.064254	33.8564
0.0779772	37.245
0.0819072	37.8435
0.0995898	40.6367
0.105482	41.634
0.162529	47.8259
0.22355	52.8253
0.257041	54.4307
0.310216	57.6359
0.343702	59.4403
0.402809	62.0509
0.44025	63.4588
0.499377	65.2734
0.530915	66.082
0.562453	66.8905
0.588079	67.4977
0.623562	68.3079
0.653133	68.9167
0.680727	69.7237
0.714242	70.334
0.751698	71.145
0.804927	72.1612
0.869995	72.9831
0.935064	73.805
0.984354	74.6206
1.01787	75.032
