Adsorption isotherm of Carbon Dioxide on SIFSIX-3-Zn
DOI: 10.1039/C4ee00143e
Adsorbate Carbon Dioxide: InChIKey CURLTUGMZLYLDI-UHFFFAOYSA-N
Temperature: 328 K
Tabular data in the source: 0
pressure (bar)	uptake (mmol/g)
0.000543181	0.146242
0.00140358	0.209889
0.00255699	0.273566
0.00342111	0.324502
0.00486752	0.388209
0.00572793	0.451856
0.00717248	0.521919
0.00803659	0.572855
0.00977416	0.642948
0.0193391	0.999857
0.0301041	1.26155
0.0400104	1.45324
0.0505158	1.6005
0.061025	1.73505
0.0700766	1.84402
0.0823512	1.95333
0.0893685	2.00489
0.103414	2.06989
0.153474	2.22754
