Adsorption isotherm of Carbon Dioxide on ZIF-78
DOI: 10.1039/C4ee00143e
Adsorbate Carbon Dioxide: InChIKey CURLTUGMZLYLDI-UHFFFAOYSA-N
Temperature: 296 K
Tabular data in the source: 0
pressure (bar)	uptake (cm3(STP)/g)
0.0667149	7.48809
0.125671	18.4115
0.189815	25.8982
0.223194	28.2091
0.259133	31.0947
0.287387	32.2564
0.315625	34.5645
0.351572	36.8769
0.379811	39.185
0.410626	40.9213
0.438881	42.083
0.474837	43.8221
0.508232	44.9865
0.531322	47.8652
0.567301	47.8845
0.598109	50.1941
0.634075	51.3599
0.657205	51.3723
0.688037	51.9622
0.729133	53.704
0.749693	53.715
0.790798	54.8836
0.819069	54.8988
0.849901	55.4886
0.878164	56.0771
0.908988	57.2401
0.937242	58.4018
0.970644	58.993
1.00662	59.5856
1.04001	60.7501
1.06572	60.1906
