Adsorption isotherm of Carbon Dioxide on [Zn2(btm)2] 1.5CO2
DOI: 10.1039/C4ee00143e
Adsorbate Carbon Dioxide: InChIKey CURLTUGMZLYLDI-UHFFFAOYSA-N
Temperature: 298 K
Tabular data in the source: 0
pressure (bar)	uptake (cm3(STP)/g)
0.0656993	14.2526
0.125309	22.5002
0.143206	25.5146
0.190855	30.5527
0.212682	32.3701
0.282085	36.2257
0.367349	40.8939
0.385186	41.5081
0.47041	44.5763
0.5576	47.0461
0.613091	48.8905
0.704237	51.1634
0.789427	52.8315
0.872641	54.6981
0.961781	55.9694
