Adsorption isotherm of Carbon Dioxide on NJU-BAi8
DOI: 10.1039/C4ee00143e
Adsorbate Carbon Dioxide: InChIKey CURLTUGMZLYLDI-UHFFFAOYSA-N
Temperature: 298 K
Tabular data in the source: 0
pressure (bar)	uptake (cm3(STP)/g)
0.000155531	0.40625
0.000369686	0.75
0.000564024	1.3125
0.000816768	1.96875
0.00108907	2.59375
0.00136145	3.15625
0.00159486	3.6875
0.00184778	4.21875
0.00212021	4.75
0.00235375	5.1875
0.00262626	5.65625
0.00289874	6.15625
0.00321032	6.59375
0.00340497	6.9375
0.00367761	7.3125
0.00395022	7.71875
0.00418393	8.03125
0.00439813	8.34375
0.00502152	9.0625
0.00529434	9.3125
0.00554756	9.625
0.00580074	9.96875
0.00609312	10.1875
0.00634639	10.4688
0.0065997	10.7188
0.00683354	10.9375
0.00708685	11.1875
0.00735976	11.375
0.00761311	11.5938
0.00794443	11.875
0.00817831	12.0625
0.00841215	12.2813
0.00866559	12.4375
0.0091723	12.875
0.00942574	13.0313
0.00975719	13.2188
0.0099912	13.3125
0.0103031	13.5
0.0105565	13.6875
