Adsorption isotherm of Hydrogen on MIL-101
DOI: 10.1039/C4ee00143e
Adsorbate Hydrogen: InChIKey UFHFLCQGNIYNRP-UHFFFAOYSA-N
Temperature: 298 K
Tabular data in the source: 0
pressure (bar)	uptake (mmol/g)
6.05116	0.458723
19.9119	1.41194
40.0204	2.74506
49.9799	3.23533
59.9374	3.84326
