Adsorption isotherm of Carbon Dioxide on SNU-M11
DOI: 10.1039/C4ee00143e
Adsorbate Carbon Dioxide: InChIKey CURLTUGMZLYLDI-UHFFFAOYSA-N
Temperature: 298 K
Tabular data in the source: 0
pressure (bar)	uptake (wt%)
0.142291	0.284137
1.31489	11.2976
2.23811	12.7192
5.28051	14.5289
15.0976	15.8981
24.7693	16.18
30.0639	16.2995
