Adsorption isotherm of Nitrogen on [Zn2(btm)2] 1.5CO2
DOI: 10.1039/C4ee00143e
Adsorbate Nitrogen: InChIKey IJGRMHOSHXDMSA-UHFFFAOYSA-N
Temperature: 273 K
Tabular data in the source: 0
pressure (bar)	uptake (cm3(STP)/g)
0.0851552	0.268124
0.0990267	0.679221
0.120809	0.696647
0.136651	0.709321
0.164375	0.7315
0.188147	1.15052
0.215871	1.1727
0.245579	1.39646
0.273302	1.41864
0.303006	1.4424
0.33271	1.46617
0.360448	2.08836
0.390146	1.91212
0.419855	2.13588
0.447583	2.35807
0.479262	2.18341
0.538684	2.83095
0.598096	3.07848
0.653543	3.12283
0.714945	3.77196
0.770391	3.81631
0.825843	4.06067
0.887235	4.30979
0.974366	4.37949
