Adsorption isotherm of Hydrogen on Na-LEV
DOI: 10.1039/C4ee00143e
Adsorbate Hydrogen: InChIKey UFHFLCQGNIYNRP-UHFFFAOYSA-N
Temperature: 298 K
Tabular data in the source: 0
pressure (bar)	uptake (mmol/g)
0.382497	86.0982
0.657895	93.3333
1.16891	99.845
1.67381	102.739
2.20257	104.186
2.653	105.995
3.20747	107.08
3.65545	107.442
4.71114	109.251
5.65973	109.974
6.66157	111.059
7.68911	111.783
8.69033	112.506
9.50673	112.868
10.1922	113.592
