Adsorption isotherm of Carbon Dioxide on SNU-M11
DOI: 10.1039/C4ee00143e
Adsorbate Carbon Dioxide: InChIKey CURLTUGMZLYLDI-UHFFFAOYSA-N
Temperature: 298 K
Tabular data in the source: 0
pressure (bar)	uptake (wt%)
1.10016	10.5406
2.09638	12.5768
5.20806	14.0561
10.0832	15.213
20.1093	15.8745
25.4041	16.0413
