Adsorption isotherm of Hydrogen on Ca-CHA
DOI: 10.1039/C4ee00143e
Adsorbate Hydrogen: InChIKey UFHFLCQGNIYNRP-UHFFFAOYSA-N
Temperature: 298 K
Tabular data in the source: 0
pressure (bar)	uptake (mmol/g)
0.375765	51.0078
0.517748	57.1576
1.08201	64.031
1.58752	67.2868
2.11567	68.3721
2.59119	69.4574
3.06732	70.9044
3.67442	71.9897
4.1224	72.3514
5.15055	73.4367
6.12485	73.7984
7.07466	75.2455
8.10159	75.6072
9.10282	76.3307
10.1297	76.6925
