Adsorption isotherm of Carbon Dioxide on UTSA-16
DOI: 10.1039/C4ee00143e
Adsorbate Carbon Dioxide: InChIKey CURLTUGMZLYLDI-UHFFFAOYSA-N
Temperature: 296 K
Tabular data in the source: 0
pressure (bar)	uptake (cm3(STP)/g)
0.00761193	6.88307
0.0177203	18.9267
0.0279022	25.8112
0.0329441	32.6929
0.0634737	54.4927
0.101803	69.991
0.124778	80.8951
0.160571	94.099
0.188727	102.14
0.224618	108.465
0.260508	114.79
0.286135	119.963
0.31691	124.565
0.350263	128.596
0.381055	132.052
0.411854	134.935
0.440084	137.816
0.4709	139.552
0.50684	142.438
0.540218	144.749
0.563316	147.054
0.596718	147.646
0.627526	149.955
0.663483	151.694
0.694298	153.43
0.71999	154.018
0.753369	156.328
0.784201	156.918
0.815017	158.655
0.845857	158.671
0.87412	159.26
0.912646	161
0.938331	162.16
0.971732	162.752
1.00513	163.916
1.03597	163.933
1.0591	163.945
