Adsorption isotherm of Carbon Dioxide on SMIT-1
DOI: 10.1039/C4ee00143e
Adsorbate Carbon Dioxide: InChIKey CURLTUGMZLYLDI-UHFFFAOYSA-N
Temperature: 196 K
Tabular data in the source: 0
pressure (bar)	uptake (cm3(STP)/g)
0	5.58824
0.00434072	10.5889
0.00868146	15.1484
0.0151925	18.2377
0.0217037	20.0034
0.0325555	21.7698
0.0390665	23.6826
0.0477481	24.5663
0.0564295	26.3324
0.0759627	27.2179
0.095496	28.5445
0.115029	29.724
0.138903	30.6101
0.158436	31.7897
0.177969	32.381
0.197504	33.2664
0.217037	34.0048
0.23874	34.7435
0.260444	35.3352
0.284318	36.2213
0.308192	36.9603
0.325555	37.4042
0.349429	38.1433
0.368962	38.5876
0.386324	39.0315
0.408029	39.329
0.429733	39.7736
0.453607	40.5127
0.47531	40.9573
0.503524	41.4029
0.518717	41.9935
0.53825	42.5848
0.564295	43.1772
0.583828	43.6214
0.603361	44.0657
0.620724	44.5096
0.646768	45.1019
0.664132	45.5458
0.692346	45.9915
0.707539	46.288
0.727072	46.7322
0.746605	47.4706
0.766138	47.6207
0.787842	48.0653
0.809545	48.804
0.83559	49.2493
0.857293	49.5469
0.883338	50.1392
0.900701	50.5831
0.922404	51.1748
0.941939	51.7661
