Adsorption isotherm of Carbon Dioxide on SMIT-1
DOI: 10.1039/C4ee00143e
Adsorbate Carbon Dioxide: InChIKey CURLTUGMZLYLDI-UHFFFAOYSA-N
Temperature: 196 K
Tabular data in the source: 0
pressure (bar)	uptake (cm3(STP)/g)
0.0499184	30.449
0.095496	33.8386
0.138903	36.1984
0.177969	37.8222
0.219207	39.4463
0.260444	40.3352
0.306022	41.6659
0.347258	42.5547
0.390665	43.4439
0.429733	44.4795
0.47965	45.2226
0.514376	46.1105
0.562124	46.7062
0.59902	47.7415
0.646768	48.3372
0.685836	49.0787
0.724902	49.8201
0.770479	50.7096
0.809545	51.304
0.852953	51.8991
0.89419	52.6409
0.937598	53.236
