Adsorption isotherm of Nitrogen on [Zn2(btm)2] 1.5CO2
DOI: 10.1039/C4ee00143e
Adsorbate Nitrogen: InChIKey IJGRMHOSHXDMSA-UHFFFAOYSA-N
Temperature: 273 K
Tabular data in the source: 0
pressure (bar)	uptake (cm3(STP)/g)
0.0158369	-0.18733
0.033669	0.226935
0.0554466	0.0443573
0.0693083	0.0554466
0.12674	0.301392
0.174271	0.539417
0.198034	0.558427
0.235663	0.78853
0.263386	0.810709
0.291125	1.4329
0.318848	1.45508
0.348556	1.67885
0.380245	1.9042
0.407959	1.52637
0.439647	1.75172
0.469356	1.97548
0.510951	2.40876
0.570363	2.65629
0.63374	3.10699
0.691172	3.35294
0.724836	3.37987
0.754545	3.60364
0.794149	3.63532
0.847621	3.8781
0.912974	4.13038
1.03378	4.82703
