Adsorption isotherm of Carbon monoxide on Cu4(OH)2(C8H3O7S)2
DOI: 10.1038/Nchem.254
Adsorbate Carbon monoxide: InChIKey UGFAIRIUMAVXCW-UHFFFAOYSA-N
Temperature: 298 K
Tabular data in the source: 0
pressure (bar)	uptake (mmol/g)
0.149908	0.0157495
0.599575	0.0179979
0.700247	0.0185012
0.798675	0.0139934
0.897116	0.0194856
1.00002	0.0150001
