Adsorption isotherm of Nitric oxide on Cu4(OH)2(C8H3O7S)2
DOI: 10.1038/Nchem.254
Adsorbate Nitric oxide: InChIKey MWUXSHHQAYIFBG-UHFFFAOYSA-N
Temperature: 298 K
Tabular data in the source: 0
pressure (bar)	uptake (mmol/g)
0.0157036	0.0350785
0.0291389	0.0451457
0.0425618	0.0452128
0.0626961	0.0453135
0.0783624	0.0503918
0.0940225	0.0504701
0.118625	0.0455931
0.141003	0.050705
0.165617	0.0558281
0.183515	0.0559176
0.203649	0.0560182
0.226027	0.0611301
0.250642	0.0662532
0.275256	0.0713763
0.299902	0.1015
0.322299	0.121611
0.349201	0.166746
0.391769	0.216959
0.427631	0.272138
0.485928	0.37743
0.55546	0.522777
0.642976	0.738215
0.824433	0.939122
