Adsorption isotherm of Hydrogen on Cu4(OH)2(C8H3O7S)2
DOI: 10.1038/Nchem.254
Adsorbate Hydrogen: InChIKey UFHFLCQGNIYNRP-UHFFFAOYSA-N
Temperature: 77 K
Tabular data in the source: 0
pressure (bar)	uptake (mmol/g)
0.0962596	0.0504813
0.149945	0.0457497
0.199175	0.0559959
0.248392	0.056242
0.297609	0.056488
0.349064	0.0567453
0.400524	0.0620026
0.449742	0.0622487
0.498965	0.0674948
0.599643	0.0729982
0.700321	0.0785016
0.798762	0.0839938
0.89944	0.0894972
1.00012	0.0950006
