Adsorption isotherm of Nitrogen on Cu4(OH)2(C8H3O7S)2
DOI: 10.1038/Nchem.254
Adsorbate Nitrogen: InChIKey IJGRMHOSHXDMSA-UHFFFAOYSA-N
Temperature: 77 K
Tabular data in the source: 0
pressure (bar)	uptake (mmol/g)
0.100672	0.000503359
0.199106	0.000995532
0.297547	0.00648774
0.400456	0.00700228
0.498903	0.0174945
0.597344	0.0229867
0.698022	0.0284901
0.796463	0.0339823
0.897141	0.0394857
0.966499	0.0448325
