Adsorption isotherm of Carbon Dioxide on Cu4(OH)2(C8H3O7S)2
DOI: 10.1038/Nchem.254
Adsorbate Carbon Dioxide: InChIKey CURLTUGMZLYLDI-UHFFFAOYSA-N
Temperature: 273 K
Tabular data in the source: 0
pressure (bar)	uptake (mmol/g)
0.035813	0.0151791
0.0693703	0.0153469
0.118594	0.020593
0.230451	0.0211523
0.304271	0.0165214
0.389289	0.0219464
0.519044	0.0225952
0.787502	0.0239375
1.05596	0.0252798
