Adsorption isotherm of Carbon Dioxide on [Co2(bpdc)2(H2bpz)]*2(DMF)*5(H2O)
DOI: 10.1016/j.jssc.2013.11.008
Adsorbate Carbon Dioxide: InChIKey CURLTUGMZLYLDI-UHFFFAOYSA-N
Temperature: 273 K
Tabular data in the source: 0
pressure (bar)	uptake (cm3(STP)/g)
0.0267186	0.84568
0.0520453	1.97244
0.0815932	3.21188
0.143503	5.97244
0.233554	10.0288
0.305313	13.0147
0.375665	15.9443
0.447424	18.9865
0.512148	21.6344
0.586721	24.564
0.651445	27.4372
0.723204	30.1978
0.790743	33.0147
0.862502	35.9443
0.932854	38.6485
0.998985	41.5781
1.03557	43.0429
