Adsorption isotherm of Carbon Dioxide on [Co2(bpdc)2(H2bpz)]*2(DMF)*5(H2O)
DOI: 10.1016/j.jssc.2013.11.008
Adsorbate Carbon Dioxide: InChIKey CURLTUGMZLYLDI-UHFFFAOYSA-N
Temperature: 293 K
Tabular data in the source: 0
pressure (bar)	uptake (cm3(STP)/g)
0.0675228	0.958356
0.118176	1.9161
0.173051	3.15554
0.253252	5.18371
0.308127	6.36681
0.358781	7.8316
0.413655	9.4654
0.467123	11.3246
0.519183	12.6203
0.613455	14.9302
0.72039	17.3527
0.773858	18.3105
0.831547	19.3246
0.887828	20.395
0.945517	21.4654
1.00321	22.6485
