Adsorption isotherm of Nitrogen on [Co2(bpdc)2(H2bpz)]*2(DMF)*5(H2O)
DOI: 10.1016/j.jssc.2013.11.008
Adsorbate Nitrogen: InChIKey IJGRMHOSHXDMSA-UHFFFAOYSA-N
Temperature: 77 K
Tabular data in the source: 0
pressure (bar)	uptake (cm3(STP)/g)
0.000864	3.09754
0.000864	49.4342
0.00800731	63.9144
0.0251519	69.7065
0.0865865	80.0035
0.159451	88.6916
0.262318	98.9886
0.350898	107.677
0.458052	117.652
0.556633	127.949
0.663787	138.568
0.758082	150.474
0.830946	162.702
0.889523	173.964
0.939528	187.801
0.963816	197.776
0.988104	207.107
1.00239	217.083
