Adsorption isotherm of Hydrogen on [Co2(bpdc)2(H2bpz)]*2(DMF)*5(H2O)
DOI: 10.1016/j.jssc.2013.11.008
Adsorbate Hydrogen: InChIKey UFHFLCQGNIYNRP-UHFFFAOYSA-N
Temperature: 77 K
Tabular data in the source: 0
pressure (bar)	uptake (cm3(STP)/g)
0.00229246	0.845067
0.0122934	6.95893
0.0351529	10.4985
0.069442	14.3599
0.13802	19.1867
0.210885	22.4045
0.283749	25.3005
0.358042	27.2312
0.428049	30.1272
0.496627	31.7362
0.566634	33.6669
0.640927	35.9193
0.708077	37.5282
0.780941	39.7807
0.858091	41.0678
0.893809	42.6768
0.936671	43.9639
1.01382	45.251
