Adsorption isotherm of Hydrogen on [Co2(bpdc)2(H2bpz)]*2(DMF)*5(H2O)
DOI: 10.1016/j.jssc.2013.11.008
Adsorbate Hydrogen: InChIKey UFHFLCQGNIYNRP-UHFFFAOYSA-N
Temperature: 273 K
Tabular data in the source: 0
pressure (bar)	uptake (cm3(STP)/g)
0.0534524	0.00061
0.104106	0.00061
0.137875	0.113286
0.213855	0.225962
0.284207	0.338638
0.355966	0.507652
0.424912	0.733004
0.496671	0.958356
0.640189	1.40906
0.711948	1.63441
0.848431	2.08512
0.932854	2.36681
1.01446	2.6485
