Adsorption isotherm of Nitrogen on [Co2(bpdc)2(H2bpz)]*2(DMF)*5(H2O)
DOI: 10.1016/j.jssc.2013.11.008
Adsorbate Nitrogen: InChIKey IJGRMHOSHXDMSA-UHFFFAOYSA-N
Temperature: 273 K
Tabular data in the source: 0
pressure (bar)	uptake (cm3(STP)/g)
0.0492312	0.394976
0.0928496	0.451314
0.143503	0.507652
0.187121	0.84568
0.23074	1.12737
0.340489	2.19779
0.443203	3.38089
0.559988	4.50765
0.673958	6.02878
0.73024	6.53582
0.84421	8.05695
0.904713	8.733
0.959588	9.52174
1.01587	10.3105
