Adsorption isotherm of Carbon Dioxide on [Co2(bpdc)2(H2bpz)]*2(DMF)*5(H2O)
DOI: 10.1016/j.jssc.2013.11.008
Adsorbate Carbon Dioxide: InChIKey CURLTUGMZLYLDI-UHFFFAOYSA-N
Temperature: 195 K
Tabular data in the source: 0
pressure (bar)	uptake (cm3(STP)/g)
0.00514988	1.48863
0.0108647	11.1421
0.0451538	20.7956
0.119447	27.553
0.153736	29.8055
0.229458	34.954
0.275177	37.5282
0.32661	39.7807
0.379473	41.7114
0.428049	44.2857
0.479483	45.8946
0.580921	51.0431
0.68236	54.9045
0.732365	56.8352
0.833803	61.6619
0.888094	64.5579
0.936671	66.4886
1.02668	71.3154
