Adsorption isotherm of N-propane on NA-ETS-10
DOI: 10.1021/acs.jced.6b00294
Article source: Figure 4A
Adsorbate N-propane: InChIKey ATUOYWHBWRKTHZ-UHFFFAOYSA-N
Kind: experiment
Temperature: 323 K
Tabular data in the source: 0
pressure (bar)	uptake (mmol/g)
0.016	1.16711
0.0203	1.20714
0.1874	1.31541
0.4745	1.4296
0.9807	1.44748
1.9821	1.48863
2.9771	1.51844
