Adsorption isotherm of N-propane on Zeolite 5A
DOI: 10.1021/acs.jced.6b00294
Article source: Figure 3B
Adsorbate N-propane: InChIKey ATUOYWHBWRKTHZ-UHFFFAOYSA-N
Kind: experiment
Temperature: 298 K
Tabular data in the source: 0
pressure (bar)	uptake (mmol/g)
0.0184	1.48705
0.0549	1.58756
0.1526	1.70229
0.4511	1.85855
0.9501	1.98637
1.9442	2.11785
2.9454	2.20533
