Adsorption isotherm of Propene on Z10-04
DOI: 10.1021/acs.jced.6b00294
Article source: Figure 2A
Adsorbate Propene: InChIKey QQONPFPTGQHPMA-UHFFFAOYSA-N
Kind: experiment
Temperature: 423 K
Tabular data in the source: 0
pressure (bar)	uptake (mmol/g)
0.05959	0.6729
0.10439	0.98397
0.19959	1.33221
0.50714	1.79427
1.00116	2.11784
2.00486	2.33105
3.0004	2.4624
