Adsorption isotherm of Propene on NA-ETS-10
DOI: 10.1021/acs.jced.6b00294
Article source: Figure 4A
Adsorbate Propene: InChIKey QQONPFPTGQHPMA-UHFFFAOYSA-N
Kind: experiment
Temperature: 423 K
Tabular data in the source: 0
pressure (bar)	uptake (mmol/g)
0.0694	0.88394
0.114	1.03289
0.2173	1.1737
0.5165	1.32333
1.0103	1.42669
2.0136	1.50366
3.0206	1.55922
