Adsorption isotherm of Propene on NA-ETS-10
DOI: 10.1021/acs.jced.6b00294
Article source: Figure 4A
Adsorbate Propene: InChIKey QQONPFPTGQHPMA-UHFFFAOYSA-N
Kind: experiment
Temperature: 323 K
Tabular data in the source: 0
pressure (bar)	uptake (mmol/g)
0.0196	1.17695
0.041	1.50203
0.2297	1.58395
0.5027	1.64128
1.0165	1.69071
2.0208	1.7426
3.0341	1.77906
