Adsorption isotherm of N-propane on NA-ETS-10
DOI: 10.1021/acs.jced.6b00294
Article source: Figure 4A
Adsorbate N-propane: InChIKey ATUOYWHBWRKTHZ-UHFFFAOYSA-N
Kind: experiment
Temperature: 373 K
Tabular data in the source: 0
pressure (bar)	uptake (mmol/g)
0.0441	0.90027
0.0897	1.00489
0.1745	1.08751
0.483	1.19862
0.9851	1.27887
1.9822	1.33989
2.9887	1.38874
