Adsorption isotherm of N-propane on Zeolite 5A
DOI: 10.1021/acs.jced.6b00294
Article source: Figure 3B
Adsorbate N-propane: InChIKey ATUOYWHBWRKTHZ-UHFFFAOYSA-N
Kind: experiment
Temperature: 373 K
Tabular data in the source: 0
pressure (bar)	uptake (mmol/g)
0.0167	0.56835
0.073	0.79416
0.1752	1.04601
0.4586	1.2982
0.9558	1.46495
1.9565	1.60773
2.9519	1.69916
