Adsorption isotherm of N-propane on NA-ETS-10
DOI: 10.1021/acs.jced.6b00294
Article source: Figure 4A
Adsorbate N-propane: InChIKey ATUOYWHBWRKTHZ-UHFFFAOYSA-N
Kind: experiment
Temperature: 423 K
Tabular data in the source: 0
pressure (bar)	uptake (mmol/g)
0.0456	0.52053
0.0884	0.68888
0.1856	0.8484
0.4876	1.00877
0.9873	1.12111
1.9912	1.21335
2.9943	1.26535
