Adsorption isotherm of Propene on Z10-04
DOI: 10.1021/acs.jced.6b00294
Article source: Figure 2A
Adsorbate Propene: InChIKey QQONPFPTGQHPMA-UHFFFAOYSA-N
Kind: experiment
Temperature: 323 K
Tabular data in the source: 0
pressure (bar)	uptake (mmol/g)
0.01415	0.02233
0.0581	2.38054
0.12377	2.53543
0.20821	2.66604
0.49881	2.8701
1.01594	2.97069
2.0114	3.06051
3.00153	3.06508
