Adsorption isotherm of Propene on Zeolite 5A
DOI: 10.1021/acs.jced.6b00294
Article source: Figure 3A
Adsorbate Propene: InChIKey QQONPFPTGQHPMA-UHFFFAOYSA-N
Kind: experiment
Temperature: 298 K
Tabular data in the source: 0
pressure (bar)	uptake (mmol/g)
0.0338	1.76082
0.0782	1.83949
0.1817	1.91356
0.4868	2.02349
0.9974	2.08939
1.9941	2.17934
2.9931	2.23186
