Adsorption isotherm of N-propane on NA-ETS-10
DOI: 10.1021/acs.jced.6b00294
Article source: Figure 4A
Adsorbate N-propane: InChIKey ATUOYWHBWRKTHZ-UHFFFAOYSA-N
Kind: experiment
Temperature: 343 K
Tabular data in the source: 0
pressure (bar)	uptake (mmol/g)
0.043	1.10867
0.0976	1.17806
0.1807	1.23672
0.4786	1.32066
0.9856	1.37607
1.9835	1.43619
2.9934	1.46788
