Adsorption isotherm of Propene on NA-ETS-10
DOI: 10.1021/acs.jced.6b00294
Article source: Figure 4A
Adsorbate Propene: InChIKey QQONPFPTGQHPMA-UHFFFAOYSA-N
Kind: experiment
Temperature: 343 K
Tabular data in the source: 0
pressure (bar)	uptake (mmol/g)
0.0727	1.46455
0.5164	1.59929
1.0116	1.64527
2.0141	1.70493
3.0151	1.73908
