Adsorption isotherm of N-propane on Z10-04
DOI: 10.1021/acs.jced.6b00294
Article source: Figure 2B
Adsorbate N-propane: InChIKey ATUOYWHBWRKTHZ-UHFFFAOYSA-N
Kind: experiment
Temperature: 323 K
Tabular data in the source: 0
pressure (bar)	uptake (mmol/g)
0.01448	0.01938
0.03886	1.46408
0.09459	1.79304
0.19716	2.00912
0.48721	2.23375
0.99021	2.36887
1.99025	2.52166
2.99236	2.62657
