Adsorption isotherm of Propene on Z10-04
DOI: 10.1021/acs.jced.6b00294
Article source: Figure 1A
Adsorbate Propene: InChIKey QQONPFPTGQHPMA-UHFFFAOYSA-N
Kind: experiment
Temperature: 298 K
Tabular data in the source: 0
pressure (bar)	uptake (mmol/g)
0.00018	2.61629
0.01064	0.01132
0.04601	2.75436
0.14812	2.85082
0.44407	2.9664
0.93866	3.06919
1.93454	3.17611
2.93588	3.27
