Adsorption isotherm of Propene on NA-ETS-10
DOI: 10.1021/acs.jced.6b00294
Article source: Figure 4A
Adsorbate Propene: InChIKey QQONPFPTGQHPMA-UHFFFAOYSA-N
Kind: experiment
Temperature: 373 K
Tabular data in the source: 0
pressure (bar)	uptake (mmol/g)
0.0547	1.26371
0.1183	1.37033
0.2087	1.43188
0.5156	1.51322
1.0006	1.56557
2.0283	1.62707
3.0208	1.65712
