Adsorption isotherm of N-propane on Zeolite 5A
DOI: 10.1021/acs.jced.6b00294
Article source: Figure 3B
Adsorbate N-propane: InChIKey ATUOYWHBWRKTHZ-UHFFFAOYSA-N
Kind: experiment
Temperature: 343 K
Tabular data in the source: 0
pressure (bar)	uptake (mmol/g)
0.0386	0.91933
0.082	1.19482
0.1765	1.35188
0.472	1.52279
0.9626	1.66697
1.9652	1.80297
2.9711	1.91132
