Adsorption isotherm of Propene on Z10-04
DOI: 10.1021/acs.jced.6b00294
Article source: Figure 2A
Adsorbate Propene: InChIKey QQONPFPTGQHPMA-UHFFFAOYSA-N
Kind: experiment
Temperature: 343 K
Tabular data in the source: 0
pressure (bar)	uptake (mmol/g)
0.06527	2.19193
0.11877	2.37667
0.20325	2.52635
0.50655	2.72974
1.0026	2.88101
2.0028	2.98819
3.00714	3.04596
