Adsorption isotherm of N-propane on Z10-04
DOI: 10.1021/acs.jced.6b00294
Article source: Figure 2B
Adsorbate N-propane: InChIKey ATUOYWHBWRKTHZ-UHFFFAOYSA-N
Kind: experiment
Temperature: 373 K
Tabular data in the source: 0
pressure (bar)	uptake (mmol/g)
0.05292	0.29418
0.10068	0.53136
0.20034	0.91505
0.49494	1.4065
0.99709	1.66762
1.99296	1.92189
2.98196	2.04048
