Adsorption isotherm of N-propane on Zeolite 5A
DOI: 10.1021/acs.jced.6b00294
Article source: Figure 3B
Adsorbate N-propane: InChIKey ATUOYWHBWRKTHZ-UHFFFAOYSA-N
Kind: experiment
Temperature: 423 K
Tabular data in the source: 0
pressure (bar)	uptake (mmol/g)
0.0592	0.17226
0.1031	0.30018
0.2119	0.47991
0.4945	0.78948
0.9945	1.04317
1.996	1.24204
2.9897	1.35794
