Adsorption isotherm of Propene on Z10-04
DOI: 10.1021/acs.jced.6b00294
Article source: Figure 2A
Adsorbate Propene: InChIKey QQONPFPTGQHPMA-UHFFFAOYSA-N
Kind: experiment
Temperature: 298 K
Tabular data in the source: 0
pressure (bar)	uptake (mmol/g)
0.05664	2.60166
0.1105	2.72971
0.20899	2.82596
0.5032	2.95031
0.99959	3.03367
2.00167	3.13972
3.00275	3.21041
