Adsorption isotherm of N-propane on Z10-04
DOI: 10.1021/acs.jced.6b00294
Article source: Figure 2B
Adsorbate N-propane: InChIKey ATUOYWHBWRKTHZ-UHFFFAOYSA-N
Kind: experiment
Temperature: 343 K
Tabular data in the source: 0
pressure (bar)	uptake (mmol/g)
0.05632	0.95952
0.10791	1.37856
0.19469	1.69384
0.48968	2.04903
0.99497	2.22862
1.99205	2.40137
2.98252	2.5114
