Adsorption isotherm of Propene on Zeolite 5A
DOI: 10.1021/acs.jced.6b00294
Article source: Figure 3A
Adsorbate Propene: InChIKey QQONPFPTGQHPMA-UHFFFAOYSA-N
Kind: experiment
Temperature: 343 K
Tabular data in the source: 0
pressure (bar)	uptake (mmol/g)
0.082	1.56686
0.1865	1.69009
0.4888	1.81958
0.9943	1.94303
1.997	2.05252
3.0018	2.1296
