Adsorption isotherm of Propene on Zeolite 5A
DOI: 10.1021/acs.jced.6b00294
Article source: Figure 3A
Adsorbate Propene: InChIKey QQONPFPTGQHPMA-UHFFFAOYSA-N
Kind: experiment
Temperature: 373 K
Tabular data in the source: 0
pressure (bar)	uptake (mmol/g)
0.0554	1.13731
0.0966	1.29643
0.1849	1.43031
0.4935	1.61622
0.9883	1.74248
1.9962	1.86425
3.0129	1.96924
