Adsorption isotherm of N-propane on Z10-04
DOI: 10.1021/acs.jced.6b00294
Article source: Figure 2B
Adsorbate N-propane: InChIKey ATUOYWHBWRKTHZ-UHFFFAOYSA-N
Kind: experiment
Temperature: 423 K
Tabular data in the source: 0
pressure (bar)	uptake (mmol/g)
0.06255	0.14823
0.10971	0.25998
0.20017	0.47377
0.4978	0.92303
0.9943	1.29361
1.99482	1.61574
2.987	1.80673
