Adsorption isotherm of N-propane on Z10-04
DOI: 10.1021/acs.jced.6b00294
Article source: Figure 2B
Adsorbate N-propane: InChIKey ATUOYWHBWRKTHZ-UHFFFAOYSA-N
Kind: experiment
Temperature: 298 K
Tabular data in the source: 0
pressure (bar)	uptake (mmol/g)
0.04715	1.94869
0.097	2.13227
0.19108	2.26682
0.49055	2.41847
0.99267	2.52281
1.98408	2.64481
2.98526	2.73717
