Adsorption isotherm of N-propane on NA-ETS-10
DOI: 10.1021/acs.jced.6b00294
Article source: Figure 4A
Adsorbate N-propane: InChIKey ATUOYWHBWRKTHZ-UHFFFAOYSA-N
Kind: experiment
Temperature: 298 K
Tabular data in the source: 0
pressure (bar)	uptake (mmol/g)
0.0252	1.31656
0.0724	1.37346
0.1727	1.39446
0.9724	1.49039
1.9892	1.53477
2.9796	1.56863
