Adsorption isotherm of Propene on Z10-04
DOI: 10.1021/acs.jced.6b00294
Article source: Figure 2A
Adsorbate Propene: InChIKey QQONPFPTGQHPMA-UHFFFAOYSA-N
Kind: experiment
Temperature: 373 K
Tabular data in the source: 0
pressure (bar)	uptake (mmol/g)
0.06266	1.55278
0.10927	1.82792
0.20337	2.092
0.51105	2.37392
1.01138	2.54873
2.00977	2.69464
3.00056	2.79966
