Adsorption isotherm of N-propane on Z10-04
DOI: 10.1021/acs.jced.6b00294
Article source: Figure 1B
Adsorbate N-propane: InChIKey ATUOYWHBWRKTHZ-UHFFFAOYSA-N
Kind: experiment
Temperature: 298 K
Tabular data in the source: 0
pressure (bar)	uptake (mmol/g)
0.01601	0.40775
0.02121	0.01459
0.05788	2.1175
0.15735	2.25671
0.4555	2.39834
0.94666	2.50643
1.95516	2.62715
2.95359	2.71191
