Adsorption isotherm of Propene on Zeolite 5A
DOI: 10.1021/acs.jced.6b00294
Article source: Figure 3A
Adsorbate Propene: InChIKey QQONPFPTGQHPMA-UHFFFAOYSA-N
Kind: experiment
Temperature: 323 K
Tabular data in the source: 0
pressure (bar)	uptake (mmol/g)
0.0173	0.86237
0.0373	1.63511
0.187	1.81411
0.49	1.9341
0.983	2.03523
1.9891	2.12684
2.9888	2.17321
