Adsorption isotherm of Propene on NA-ETS-10
DOI: 10.1021/acs.jced.6b00294
Article source: Figure 4A
Adsorbate Propene: InChIKey QQONPFPTGQHPMA-UHFFFAOYSA-N
Kind: experiment
Temperature: 298 K
Tabular data in the source: 0
pressure (bar)	uptake (mmol/g)
0.0254	1.56918
0.0905	1.61668
0.1861	1.65289
0.4903	1.70004
0.9858	1.7405
1.9939	1.77983
2.9983	1.80561
