Adsorption isotherm of N-propane on Zeolite 5A
DOI: 10.1021/acs.jced.6b00294
Article source: Figure 3B
Adsorbate N-propane: InChIKey ATUOYWHBWRKTHZ-UHFFFAOYSA-N
Kind: experiment
Temperature: 323 K
Tabular data in the source: 0
pressure (bar)	uptake (mmol/g)
0.0192	0.01347
0.0352	1.20107
0.0806	1.35176
0.181	1.49694
0.4684	1.64132
0.969	1.78158
1.9709	1.92548
2.9688	2.0257
