Adsorption isotherm of Propene on Zeolite 5A
DOI: 10.1021/acs.jced.6b00294
Article source: Figure 3A
Adsorbate Propene: InChIKey QQONPFPTGQHPMA-UHFFFAOYSA-N
Kind: experiment
Temperature: 423 K
Tabular data in the source: 0
pressure (bar)	uptake (mmol/g)
0.0385	0.75857
0.0908	0.95622
0.1949	1.14091
0.4936	1.40784
0.9866	1.59109
1.9916	1.74639
3.0008	1.87598
