Adsorption isotherm of Nitrogen on CuPâˆ’TFPh
DOI: 10.1021/ja3100319
Article source: Figure 2(a)
Adsorbate Nitrogen: InChIKey IJGRMHOSHXDMSA-UHFFFAOYSA-N
Kind: experiment
Temperature: 77 K
Tabular data in the source: 0
pressure (bar)	uptake (cm3(STP)/g)
0.002712	93.0233
0.006853	181.395
0.018643	216.279
0.027514	234.884
0.027514	234.884
0.03785	260.465
0.046695	286.047
0.060019	309.302
0.073386	320.93
0.10466	325.581
0.131464	330.233
0.156778	334.884
0.183574	341.86
0.208888	346.512
0.23421	348.837
0.259515	355.814
0.286337	355.814
0.310169	358.14
0.362313	360.465
0.409969	367.442
0.463586	374.419
0.512724	383.721
0.564885	381.395
0.612542	388.372
0.664677	393.023
0.71235	395.349
0.76297	406.977
0.813606	413.953
0.855294	423.256
0.910348	444.186
0.96082	495.349
0.022443	193.559
0.039606	253.178
0.058089	308.66
0.101655	332.959
0.13334	345.008
0.149182	353.094
0.170305	354.941
0.20331	348.42
0.228394	358.474
0.256118	362.316
0.279881	366.198
0.303645	368.018
0.344571	371.725
0.398699	373.236
0.456788	372.645
0.509595	378.293
0.562403	379.818
0.60465	397.945
0.662738	389.106
0.710265	392.747
0.760433	402.545
0.81192	418.516
0.860767	426.267
0.909615	450.512
0.971664	491.118
