Adsorption isotherm of Nitrogen on CuPâˆ’TFPh25
DOI: 10.1021/ja3100319
Article source: Figure 2(a)
Adsorbate Nitrogen: InChIKey IJGRMHOSHXDMSA-UHFFFAOYSA-N
Kind: experiment
Temperature: 77 K
Tabular data in the source: 0
pressure (bar)	uptake (cm3(STP)/g)
0.001507	25.5814
0.001386	48.8372
0.001299	72.093
0.005562	127.907
0.023287	169.767
0.036619	190.698
0.045499	206.977
0.060279	239.535
0.067677	253.488
0.073603	262.791
0.101871	274.419
0.130182	274.419
0.155496	279.07
0.18379	283.721
0.210611	283.721
0.234444	286.047
0.258268	290.698
0.286571	293.023
0.310412	293.023
0.361057	297.674
0.411711	300
0.460875	302.326
0.51301	306.977
0.560675	311.628
0.615816	309.302
0.663481	313.953
0.712628	320.93
0.76329	320.93
0.812437	327.907
0.861583	334.884
0.909205	351.163
0.961236	383.721
0.003961	121.582
0.010562	142.134
0.029044	172.874
0.042246	193.358
0.060729	228.221
0.100335	269.055
0.129379	285.255
0.150502	276.792
0.171625	278.639
0.191428	278.438
0.223113	282.239
0.250837	290.204
0.282522	287.82
0.310246	291.662
0.356453	287.068
0.4053	290.695
0.454147	290.198
0.502994	297.948
0.555802	293.287
0.60861	298.935
0.658778	300.487
0.707625	308.237
0.755152	305.692
0.81192	319.547
0.863408	319.023
0.914895	332.933
0.961102	367.514
