Adsorption isotherm of Nitrogen on CuPâˆ’Ph COF
DOI: 10.1021/ja3100319
Article source: Figure 2(a)
Adsorbate Nitrogen: InChIKey IJGRMHOSHXDMSA-UHFFFAOYSA-N
Kind: experiment
Temperature: 77 K
Tabular data in the source: 0
pressure (bar)	uptake (cm3(STP)/g)
0.012986	134.884
0.032227	169.767
0.04705	190.698
0.063345	216.279
0.073733	227.907
0.101975	246.512
0.12877	253.488
0.155565	260.465
0.180888	262.791
0.207692	267.442
0.231525	269.767
0.2613	276.744
0.286631	276.744
0.310472	276.744
0.359636	279.07
0.41029	281.395
0.460918	290.698
0.511589	288.372
0.563716	295.349
0.612871	300
0.662043	300
0.71417	306.977
0.764798	316.279
0.815469	313.953
0.864632	316.279
0.915234	332.558
0.011882	125.625
0.030364	150.18
0.043566	180.973
0.056768	203.519
0.079212	238.342
0.105616	260.754
0.117497	279.19
0.149182	285.053
0.182187	286.779
0.209911	288.559
0.240276	288.25
0.254798	288.102
0.298364	289.721
0.275921	294.073
0.356453	289.13
0.40266	298.969
0.452827	302.582
0.504315	293.811
0.554482	299.486
0.60465	303.099
0.653497	306.726
0.706305	308.251
0.757792	303.603
0.8106	307.19
0.852846	310.884
0.918856	324.645
0.949221	334.645
