Adsorption isotherm of Nitrogen on CuPâˆ’TFPh75
DOI: 10.1021/ja3100319
Article source: Figure 2(a)
Adsorbate Nitrogen: InChIKey IJGRMHOSHXDMSA-UHFFFAOYSA-N
Kind: experiment
Temperature: 77 K
Tabular data in the source: 0
pressure (bar)	uptake (cm3(STP)/g)
0.006818	190.698
0.01121	211.628
0.024508	241.86
0.039279	276.744
0.045144	302.326
0.059958	325.581
0.073325	337.209
0.100112	346.512
0.131369	355.814
0.152221	358.14
0.18496	369.767
0.205795	376.744
0.229636	376.744
0.260927	376.744
0.284743	383.721
0.310074	383.721
0.353234	397.674
0.409857	397.674
0.460502	402.326
0.509657	406.977
0.561792	411.628
0.612429	418.605
0.664564	423.256
0.715209	427.907
0.762866	434.884
0.810505	446.512
0.861107	462.791
0.910218	479.07
0.959148	544.186
0.013202	212.21
0.029044	263.595
0.046207	292.286
0.077892	320.83
0.100335	347.406
0.126739	365.694
0.155783	363.337
0.175586	367.259
0.20331	375.224
0.217832	385.386
0.246877	387.152
0.281202	386.803
0.304965	388.623
0.351172	390.215
0.411901	391.659
0.448866	399.53
0.505635	403.076
0.553162	412.902
0.60465	420.625
0.664058	420.021
0.724787	421.465
0.770994	441.613
0.817201	443.205
0.868689	459.176
0.918856	485.47
0.937339	501.776
0.959782	534.538
