Adsorption isotherm of Nitrogen on CuPâˆ’TFPh50
DOI: 10.1021/ja3100319
Article source: Figure 2(a)
Adsorbate Nitrogen: InChIKey IJGRMHOSHXDMSA-UHFFFAOYSA-N
Kind: experiment
Temperature: 77 K
Tabular data in the source: 0
pressure (bar)	uptake (cm3(STP)/g)
0.000927	172.093
0.00823	211.628
0.0289	262.791
0.040717	290.698
0.046599	311.628
0.059863	351.163
0.071749	360.465
0.102988	374.419
0.131256	386.047
0.156562	393.023
0.183366	397.674
0.205699	402.326
0.232512	404.651
0.257826	409.302
0.28612	413.953
0.309961	413.953
0.35909	425.581
0.409727	432.558
0.460372	437.209
0.513989	444.186
0.563135	451.163
0.612299	453.488
0.66589	467.442
0.709084	472.093
0.761194	483.721
0.811822	493.023
0.859461	504.651
0.911518	530.233
0.013202	201.901
0.023764	276.02
0.056768	333.416
0.089773	376.379
0.112217	388.522
0.159744	400.41
0.178226	400.222
0.191428	404.211
0.221793	410.088
0.252157	413.902
0.275921	409.537
0.299684	411.357
0.353812	421.116
0.4053	422.654
0.456788	428.315
0.501674	438.168
0.555802	433.493
0.60465	445.368
0.657457	453.078
0.703664	462.917
0.757792	462.366
0.81192	476.248
0.860767	490.184
0.925457	520.454
