Adsorption isotherm of Nitrogen on IRMOF-1
DOI: 10.1021/Jp105899t
Adsorbate Nitrogen: InChIKey IJGRMHOSHXDMSA-UHFFFAOYSA-N
Temperature: 298 K
Tabular data in the source: 0
pressure (bar)	uptake (mmol/g)
0.00890208	0.00222222
0.0563798	0.00740741
0.103858	0.0177778
0.198813	0.0355556
0.400593	0.0725926
0.599407	0.108889
0.703264	0.127407
0.79822	0.145926
0.997033	0.182963
