Adsorption isotherm of Nitrogen on IRMOF-1
DOI: 10.1021/Jp105899t
Adsorbate Nitrogen: InChIKey IJGRMHOSHXDMSA-UHFFFAOYSA-N
Temperature: 298 K
Tabular data in the source: 0
pressure (bar)	uptake (mmol/g)
0.0267062	0.000740741
0.074184	0.0133333
0.133531	0.0177778
0.198813	0.0296296
0.264095	0.0414815
0.394659	0.0592593
0.462908	0.0711111
0.531157	0.0822222
0.596439	0.0911111
0.664688	0.100741
0.79822	0.12963
0.866469	0.139259
0.931751	0.151111
1.05638	0.172593
