Adsorption isotherm of Nitrogen on IRMOF-1
DOI: 10.1021/Jp105899t
Adsorbate Nitrogen: InChIKey IJGRMHOSHXDMSA-UHFFFAOYSA-N
Temperature: 77 K
Tabular data in the source: 0
pressure (bar)	uptake (cm3(STP)/g)
0.00470469	53.0035
0.00730944	216.254
0.00990409	230.035
0.0102877	209.894
0.0469056	237.456
0.0953761	242.756
0.198132	248.057
0.295255	249.117
0.395255	249.117
0.492337	252.297
0.698092	250.177
0.795235	250.177
0.895194	252.297
