Adsorption isotherm of Nitrogen on IRMOF-1
DOI: 10.1021/Jp105899t
Adsorbate Nitrogen: InChIKey IJGRMHOSHXDMSA-UHFFFAOYSA-N
Temperature: 77 K
Tabular data in the source: 0
pressure (bar)	uptake (cm3(STP)/g)
0.00166583	62.5442
0.00213024	38.1625
0.00224129	182.332
0.00260475	163.251
0.00323069	130.389
0.00361434	110.247
0.00734982	214.134
0.0328622	224.735
0.0584553	231.095
0.0869864	233.216
0.155477	237.456
0.235437	239.576
0.29258	239.576
0.358233	242.756
0.415356	243.816
0.463927	243.816
0.515356	243.816
0.555356	243.816
0.586764	244.876
0.669601	245.936
0.709601	245.936
0.749561	248.057
0.795295	246.996
0.858132	248.057
0.886663	250.177
0.932418	248.057
0.980989	248.057
