Adsorption isotherm of Nitrogen on Mn-MIL-100 (EtOH +MeOH-washed)
DOI: 10.1039/C2ce26436f
Adsorbate Nitrogen: InChIKey IJGRMHOSHXDMSA-UHFFFAOYSA-N
Temperature: 77 K
Tabular data in the source: 0
pressure (bar)	uptake (cm3(STP)/g)
0.000852605	45.306
0.00210106	111.647
0.00799317	174.744
0.013733	229.751
0.0146465	278.293
0.0293691	310.631
0.0392046	333.268
0.0585709	362.362
0.0801372	383.362
0.111326	415.672
0.156811	457.668
0.215709	462.424
0.262846	467.2
0.314627	468.732
0.361702	470.271
0.4111	470.189
0.460559	473.343
0.512309	473.257
0.561737	474.793
0.608844	477.95
0.653567	479.494
0.707639	477.786
0.757067	479.322
0.799439	480.869
0.822961	480.83
0.846484	480.791
0.909996	480.685
0.938253	482.256
0.971307	488.673
