Adsorption isotherm of Nitrogen on Mn-MIL-100 (EtOH-washed)
DOI: 10.1039/C2ce26436f
Adsorbate Nitrogen: InChIKey IJGRMHOSHXDMSA-UHFFFAOYSA-N
Temperature: 77 K
Tabular data in the source: 0
pressure (bar)	uptake (cm3(STP)/g)
0.00280902	24.2672
0.00433153	105.171
0.00557999	171.512
0.0058921	63.097
0.00863262	208.723
0.0138853	237.841
0.0309602	270.175
0.0433611	304.135
0.0601315	320.288
0.093581	347.741
0.110534	373.602
0.155684	397.799
0.209909	404.181
0.285211	405.674
0.360576	410.403
0.435848	410.277
0.501742	411.786
0.58172	411.652
0.654732	416.385
0.722918	414.654
0.79822	416.146
0.817069	417.733
0.83824	417.698
0.864084	416.037
0.892342	417.608
0.918248	419.183
0.934774	422.391
0.946535	422.372
0.977203	427.175
