Adsorption isotherm of Nitrogen on Mn-MIL-100
DOI: 10.1039/C2ce26436f
Adsorbate Nitrogen: InChIKey IJGRMHOSHXDMSA-UHFFFAOYSA-N
Temperature: 77 K
Tabular data in the source: 0
pressure (bar)	uptake (cm3(STP)/g)
0.00527549	155.331
0.00631841	85.75
0.00800078	50.1485
0.00832812	192.543
0.0159939	224.892
0.033008	253.99
0.0499307	278.234
0.0739101	302.466
0.0977981	321.844
0.119456	347.697
0.152723	365.441
0.202212	370.213
0.246996	374.993
0.303481	376.517
0.376463	379.632
0.451767	381.125
0.519982	381.011
0.56935	379.311
0.611782	384.094
0.658796	382.398
0.710577	383.93
0.762297	382.225
0.823487	383.742
0.842305	383.71
0.854096	385.309
0.882324	385.262
0.910581	386.833
0.927078	388.424
0.943544	388.396
0.960041	389.987
0.97904	399.664
