Adsorption isotherm of Nitrogen on [C8mim]3PW12O40/SiO2
DOI: 10.1016/j.molcata.2015.05.007
Article source: Figure 6a
Adsorbate Nitrogen: InChIKey IJGRMHOSHXDMSA-UHFFFAOYSA-N
Kind: experiment
Temperature: 77 K
Tabular data in the source: 0
pressure (bar)	uptake (cm3(STP)/g)
0.026356	430.769
0.040999	435.897
0.055641	430.769
0.073212	435.897
0.096639	441.026
0.120067	441.026
0.140566	441.026
0.161066	441.026
0.196208	441.026
0.251848	451.282
0.301632	451.282
0.348488	451.282
0.4012	456.41
0.450984	456.41
0.503697	461.538
0.553481	466.667
0.609121	471.795
0.635478	471.795
0.67062	476.923
0.708689	482.051
0.746759	487.179
0.784829	492.308
0.811186	502.564
0.840471	512.821
0.858041	543.59
0.866826	528.205
0.884397	538.462
0.890255	594.872
0.896111	548.718
0.910754	574.359
0.91661	748.718
0.919539	584.615
0.928324	605.128
0.934181	625.641
0.940039	876.923
0.942967	661.538
0.948824	712.821
0.954681	753.846
0.957609	784.615
0.963466	835.897
0.966394	938.462
0.989823	964.103
0.995679	1041.03
1.00446	1066.67
