Adsorption isotherm of Nitrogen on [C4mim]3PW12O40/SiO2
DOI: 10.1016/j.molcata.2015.05.007
Article source: Figure 6a
Adsorbate Nitrogen: InChIKey IJGRMHOSHXDMSA-UHFFFAOYSA-N
Kind: experiment
Temperature: 77 K
Tabular data in the source: 0
pressure (bar)	uptake (cm3(STP)/g)
0.02628	25.8847
0.04672	31.1388
0.055481	31.1833
0.075921	36.4374
0.093441	36.5264
0.116801	36.6452
0.140162	41.9141
0.163521	42.0329
0.183962	42.1368
0.201482	42.2258
0.251123	47.6284
0.297843	47.8658
0.350403	53.2832
0.400044	58.6857
0.452605	53.8027
0.502245	64.3554
0.551886	64.6077
0.607366	70.04
0.621966	70.1142
0.642407	70.2181
0.657006	75.4425
0.677447	75.5464
0.697887	80.8005
0.727087	86.0991
0.744607	86.1882
0.767968	96.6073
0.782567	96.6816
0.791328	101.876
0.811768	101.98
0.835128	138.15
0.838048	117.564
0.855568	169.156
0.858488	122.819
0.873088	138.343
0.884769	148.703
0.887689	256.873
0.896449	164.213
0.911049	488.751
0.919809	215.834
0.92857	257.08
0.934409	514.621
0.937329	282.876
0.940249	318.942
0.94317	355.009
0.949009	385.94
0.954849	427.171
0.957769	463.237
0.96069	489.003
0.96361	535.37
0.986969	545.789
0.98989	545.804
1.00157	561.314
