Adsorption isotherm of Nitrogen on [C16mim]3PW12O40/SiO2
DOI: 10.1016/j.molcata.2015.05.007
Article source: Figure 6a
Adsorbate Nitrogen: InChIKey IJGRMHOSHXDMSA-UHFFFAOYSA-N
Kind: experiment
Temperature: 77 K
Tabular data in the source: 0
pressure (bar)	uptake (cm3(STP)/g)
0.0292	865.236
0.04088	865.236
0.049641	865.236
0.061321	870.386
0.081761	870.386
0.099281	875.536
0.122641	870.386
0.143081	870.386
0.163521	870.386
0.186882	875.536
0.204402	875.536
0.245282	875.536
0.251123	880.687
0.294923	880.687
0.303683	880.687
0.347483	880.687
0.353323	875.536
0.400044	880.687
0.405884	880.687
0.449684	885.837
0.455525	885.837
0.499325	880.687
0.505165	885.837
0.548966	885.837
0.554805	885.837
0.610286	896.137
0.619046	896.137
0.633646	896.137
0.645327	896.137
0.668686	901.288
0.677447	901.288
0.689127	901.288
0.712487	901.288
0.732927	906.438
0.744607	906.438
0.759208	906.438
0.770888	906.438
0.782567	906.438
0.797168	906.438
0.805928	911.588
0.826368	911.588
0.835128	911.588
0.843888	916.738
0.855568	921.888
0.867249	927.039
0.878929	937.339
0.884769	963.09
0.893528	947.639
0.911049	952.79
0.916889	1014.59
0.931489	973.391
0.940249	1138.2
0.949009	1009.44
0.96361	1045.49
0.966529	1086.7
0.99281	1241.2
0.99573	1266.95
0.99865	1308.15
1.00741	1349.36
