Adsorption isotherm of Hydrogen on Ni3(BTP)2
DOI: 10.1039/C3dt32944e
Adsorbate Hydrogen: InChIKey UFHFLCQGNIYNRP-UHFFFAOYSA-N
Temperature: 87 K
Tabular data in the source: 0
pressure (bar)	uptake (wt%)
0.00790222	0.0272664
0.00961839	0.1095
0.0130507	0.181007
0.0181992	0.231062
0.035361	0.298994
0.0542388	0.366925
0.0902785	0.456309
0.150344	0.556419
0.251599	0.71016
0.426648	0.888928
0.718397	1.11418
1.19549	1.36445
