Adsorption isotherm of Hydrogen on Ni3(BTP)2
DOI: 10.1039/C3dt32944e
Adsorbate Hydrogen: InChIKey UFHFLCQGNIYNRP-UHFFFAOYSA-N
Temperature: 77 K
Tabular data in the source: 0
pressure (bar)	uptake (wt%)
0.00790222	0.288268
0.0319286	0.413405
0.0490903	0.524241
0.0902785	0.699434
0.145196	0.8639
0.253315	1.11418
0.426648	1.40378
0.716681	1.73986
1.19893	2.16175
