Adsorption isotherm of Carbon Dioxide on Ni3(BTP)2
DOI: 10.1039/C3dt32944e
Adsorbate Carbon Dioxide: InChIKey CURLTUGMZLYLDI-UHFFFAOYSA-N
Temperature: 298 K
Tabular data in the source: 0
pressure (bar)	uptake (wt%)
0.00743381	0.0749056
0.0310304	0.546838
0.0598708	0.992553
0.120173	1.85776
0.235535	3.40465
0.348274	4.87289
0.463635	6.26247
0.578997	7.46852
0.69698	8.72701
0.817585	9.88062
0.930325	10.9294
0.988005	11.4537
1.05093	12.0043
1.10599	12.4763
