Adsorption isotherm of Nitrogen on Carbon
DOI: 10.1021/Ja7106146
Adsorbate Nitrogen: InChIKey IJGRMHOSHXDMSA-UHFFFAOYSA-N
Temperature: 77 K
Tabular data in the source: 0
pressure (bar)	uptake (cm3(STP)/g)
0.00954811	19.9216
0.0310314	22.0784
0.0668368	24.2353
0.0835459	25.098
0.100255	25.9608
0.116964	26.3922
0.133674	27.2549
0.147996	28.1176
0.171866	28.1176
0.20051	29.4118
0.245864	31.1373
0.293604	32
0.341345	33.7255
0.389085	35.0196
0.439213	36.3137
0.486954	38.0392
0.539468	39.3333
0.587209	40.6275
0.634949	42.3529
0.680303	44.9412
0.725656	47.098
0.780558	49.6863
0.797267	51.4118
0.828298	54
0.849782	56.5882
0.902296	65.2157
0.926166	72.1176
0.945263	82.4706
0.954811	91.098
0.964359	102.745
0.969133	114.824
