Adsorption isotherm of Nitrogen on Carbon
DOI: 10.1021/Ja7106146
Adsorbate Nitrogen: InChIKey IJGRMHOSHXDMSA-UHFFFAOYSA-N
Temperature: 77 K
Tabular data in the source: 0
pressure (bar)	uptake (cm3(STP)/g)
0.0139787	41.1765
0.0349468	46.3235
0.065234	50.7353
0.0768829	53.6765
0.0978509	55.1471
0.121149	56.6176
0.139787	58.0882
0.158425	59.5588
0.177064	60.2941
0.198032	61.0294
0.244627	63.9706
0.295883	65.4412
0.342478	67.6471
0.391404	69.1176
0.489255	73.5294
0.53585	75
0.587106	77.2059
0.631372	79.4118
0.680297	81.6176
0.731552	85.2941
0.780478	88.9706
0.799116	91.9118
0.829403	95.5882
0.852701	100
0.878329	106.618
0.901626	115.441
0.922595	127.941
0.945892	152.941
0.950552	164.706
0.962201	199.265
0.96686	222.059
