Adsorption isotherm of Nitrogen on Carbon
DOI: 10.1021/Ja7106146
Adsorbate Nitrogen: InChIKey IJGRMHOSHXDMSA-UHFFFAOYSA-N
Temperature: 77 K
Tabular data in the source: 0
pressure (bar)	uptake (cm3(STP)/g)
0.0106061	478.545
0.0296971	549.647
0.0615155	624.536
0.0827277	662.001
0.095455	680.741
0.114546	706.983
0.135758	733.233
0.159092	752.014
0.180304	778.264
0.195152	797.013
0.241819	834.575
0.301214	875.925
0.358487	913.529
0.390305	928.605
0.436972	954.952
0.48576	977.57
0.534548	1000.19
0.585457	1019.08
0.634246	1037.95
0.680912	1056.83
0.727579	1079.44
0.78061	1094.59
0.79758	1109.61
0.829398	1128.43
0.852732	1147.21
0.878186	1169.73
0.899398	1199.72
0.920611	1237.19
0.950308	1334.5
0.95455	1371.9
0.960914	1401.83
0.963035	1465.39
