Adsorption isotherm of Hydrogen on Carbon
DOI: 10.1021/Ja7106146
Adsorbate Hydrogen: InChIKey UFHFLCQGNIYNRP-UHFFFAOYSA-N
Temperature: 77 K
Tabular data in the source: 0
pressure (bar)	uptake (cm3(STP)/g)
0.00746263	32.7787
0.0260231	56.8326
0.0628818	83.4142
0.0776498	96.0559
0.103341	105.622
0.121744	116.76
0.147417	124.891
0.173091	133.022
0.187789	139.924
0.209775	145.253
0.257434	158.713
0.316069	173.403
0.367364	185.36
0.414954	193.08
0.462561	202.235
0.521126	211.185
0.56875	221.775
0.62728	227.855
0.671182	232.773
0.722389	237.555
0.773632	245.206
0.824821	248.552
0.839449	249.714
0.872376	253.402
0.90165	257.16
0.927253	259.55
0.952839	260.506
0.978443	262.897
1.00041	266.791
1.02234	267.815
