Adsorption isotherm of Nitrogen on Carbon
DOI: 10.1021/Ja7106146
Adsorbate Nitrogen: InChIKey IJGRMHOSHXDMSA-UHFFFAOYSA-N
Temperature: 77 K
Tabular data in the source: 0
pressure (bar)	uptake (cm3(STP)/g)
0.0111734	274.15
0.0291556	327.786
0.0607248	359.513
0.0787688	374.911
0.0990798	385.064
0.121642	399.532
0.162264	419.838
0.178057	430.922
0.241257	456.136
0.342827	497.343
0.439887	534.7
0.489546	553.145
0.534679	577.301
0.584331	600.527
0.631731	619.438
0.681375	647.443
0.731027	670.669
0.778404	703.919
0.798699	723.632
0.825757	751.509
0.850556	779.851
0.870821	818.682
0.893337	861.829
0.920295	951.842
0.944886	1109.24
0.949343	1146.54
0.955951	1250.3
0.958103	1316.76
