Adsorption isotherm of Water on MIL-100(Cr)-DEG
DOI: 10.1016/j.ica.2013.07.024
Adsorbate Water: InChIKey XLYOFNOQVPJJNP-UHFFFAOYSA-N
Temperature: 293 K
Tabular data in the source: 0
pressure (bar)	uptake (mmol/g)
0.000695116	1.02485
0.00227172	1.943
0.00391085	2.65528
0.00504776	4.08934
0.00681704	6.65133
0.0085294	11.8862
0.00960544	14.2457
0.0106815	16.6051
0.0121333	18.0378
0.0137099	18.956
0.015286	19.6685
0.0167362	20.3816
0.0183126	21.197
0.0190061	21.5023
0.0204574	22.7294
0.0219724	24.2646
