Adsorption isotherm of Water on MIL-100(Cr)-TEG
DOI: 10.1016/j.ica.2013.07.024
Adsorbate Water: InChIKey XLYOFNOQVPJJNP-UHFFFAOYSA-N
Temperature: 293 K
Tabular data in the source: 0
pressure (bar)	uptake (mmol/g)
0.000694183	0.613681
0.00214413	1.22401
0.00384623	1.93601
0.00529805	3.36868
0.00687582	4.80079
0.00744661	6.54574
0.00827025	8.70075
0.00966142	11.1616
0.0107363	13.0071
0.0122506	14.2339
0.0137638	14.9468
0.0153399	15.6593
0.016412	16.2713
0.0184917	16.8789
0.0193114	17.2864
0.0206361	18.2057
0.0220247	19.5358
