Adsorption isotherm of Water on MIL-100(Cr)-EN
DOI: 10.1016/j.ica.2013.07.024
Adsorbate Water: InChIKey XLYOFNOQVPJJNP-UHFFFAOYSA-N
Temperature: 293 K
Tabular data in the source: 0
pressure (bar)	uptake (mmol/g)
0.000758097	1.02457
0.00265054	2.35249
0.00410165	3.47678
0.00561901	6.03988
0.0068203	8.09042
0.00827678	11.5789
0.0106768	14.5493
0.0121925	16.3928
0.0138321	17.3107
0.0152821	17.921
0.0167948	18.4283
0.0183077	19.0384
0.0189384	19.4467
0.020578	20.3646
0.0220926	21.6942
