Adsorption isotherm of Water on MIL-100(Cr)-EG
DOI: 10.1016/j.ica.2013.07.024
Adsorbate Water: InChIKey XLYOFNOQVPJJNP-UHFFFAOYSA-N
Temperature: 293 K
Tabular data in the source: 0
pressure (bar)	uptake (mmol/g)
0.000696049	1.43602
0.00384833	2.86114
0.00675476	6.95999
0.00713521	8.08902
0.00834116	12.1954
0.00941743	14.6577
0.0106197	17.1194
0.0122616	19.0652
0.0139014	20.0858
0.0152884	20.6964
0.0167385	21.4096
0.0181887	22.1227
0.0189454	22.5305
0.0205227	23.757
0.022038	25.395
