Adsorption isotherm of Water on MIL-100(Cr)
DOI: 10.1016/j.ica.2013.07.024
Adsorbate Water: InChIKey XLYOFNOQVPJJNP-UHFFFAOYSA-N
Temperature: 293 K
Tabular data in the source: 0
pressure (bar)	uptake (mmol/g)
0.000759263	1.53853
0.00384927	3.27231
0.00567919	4.8061
0.00687792	5.72592
0.00763998	8.49796
0.00833766	10.6535
0.00941393	13.1158
0.0106789	15.4744
0.0114391	17.4241
0.0121356	19.0657
0.0138377	19.7777
0.0151612	20.183
0.0166739	20.6903
0.0182498	21.3001
0.0190058	21.3995
0.0205188	22.0096
0.0219694	22.9283
