Adsorption isotherm of Argon on COF-366
DOI: 10.1021/cm201140r
Article source: Figure S13
Adsorbate Argon: InChIKey XKRFYHLGVUSROY-UHFFFAOYSA-N
Kind: experiment
Temperature: 87 K
Tabular data in the source: 0
pressure (bar)	uptake (cm3(STP)/g)
-0.000829	9.46624
-0.001593	23.0625
-0.001593	39.857
-0.001593	55.8517
-6.5e-05	67.8462
0.002227	79.84
0.003755	91.0348
0.006047	103.029
0.009103	113.422
0.009103	130.217
0.014451	141.408
0.021327	154.197
0.024383	164.59
0.032023	175.779
0.048066	187.759
0.061818	202.141
0.073278	206.928
0.088557	210.912
0.100017	213.3
0.109949	217.289
0.151968	229.244
0.203155	237.991
0.253578	246.738
0.305528	255.484
0.355951	261.033
0.407138	268.98
0.461381	276.124
0.511803	283.272
0.557642	289.625
0.607301	302.372
0.661544	309.517
0.708147	315.869
0.760098	330.213
0.817396	344.552
0.859415	362.905
0.90831	398.845
0.961789	495.56
0.99846	701.856
0.962553	596.326
0.911366	518.003
0.805937	453.327
0.711203	418.232
0.605009	389.546
0.547711	376.806
0.504928	365.652
0.474368	360.084
0.457561	327.311
0.430821	293.749
0.399498	288.181
0.349839	282.632
0.298652	276.284
0.200099	259.586
0.092377	233.301
0.046538	211.753
0.011395	147.809
