Adsorption isotherm of Argon on COF-66
DOI: 10.1021/cm201140r
Article source: Figure S14
Adsorbate Argon: InChIKey XKRFYHLGVUSROY-UHFFFAOYSA-N
Kind: experiment
Temperature: 87 K
Tabular data in the source: 0
pressure (bar)	uptake (cm3(STP)/g)
0.048613	65.1588
0.079916	77.1417
0.106743	85.9527
0.154174	113.795
0.211414	135.646
0.262346	139.876
0.315059	142.343
0.365096	145.867
0.41513	148.687
0.46784	150.096
0.519661	152.916
0.568797	154.326
0.61705	158.907
0.669764	161.374
0.719798	164.194
0.771619	167.013
0.821654	170.185
0.872586	174.415
0.921737	180.406
0.961976	193.446
1.00322	242.435
1.00411	242.788
0.915515	190.627
0.806489	176.882
0.702846	170.89
0.598312	165.604
0.492892	162.784
0.396391	155.383
0.294986	150.978
0.19268	144.105
0.096047	93.7063
