Adsorption isotherm of Nitrogen on [Ni3(HCOO)6]-2b
DOI: 10.1039/C4ra05407e
Adsorbate Nitrogen: InChIKey IJGRMHOSHXDMSA-UHFFFAOYSA-N
Temperature: 308 K
Tabular data in the source: 0
pressure (bar)	uptake (mmol/g)
0.155849	0.0214286
0.212528	0.0267857
0.258577	0.0321429
0.315257	0.0375
0.368408	0.0375
0.418	0.0428571
0.467578	0.0535714
0.520729	0.0535714
0.573865	0.0589286
0.61993	0.0589286
0.673066	0.0642857
0.729761	0.0642857
0.779353	0.0696429
0.83249	0.075
0.885626	0.0803571
0.935234	0.0803571
0.956479	0.0857143
0.96711	0.0857143
0.981267	0.0910714
0.995441	0.0910714
1.01314	0.0964286
1.03442	0.0910714
