Adsorption isotherm of Argon on [Ni3(HCOO)6] 1a
DOI: 10.1039/C4ra05407e
Adsorbate Argon: InChIKey XKRFYHLGVUSROY-UHFFFAOYSA-N
Temperature: 273 K
Tabular data in the source: 0
pressure (bar)	uptake (cm3(STP)/g)
-0.00587391	4.72441
-0.00293696	15.3543
0.00293696	59.0551
0.0234956	63.7795
0.0381805	64.9606
0.0528652	64.9606
0.0998565	67.3228
0.152722	68.5039
0.20265	68.5039
0.255515	68.5039
0.305443	69.685
0.355372	70.8661
0.4053	70.8661
0.452291	70.8661
0.511031	72.0472
0.560959	70.8661
0.613824	72.0472
0.660815	72.0472
0.713681	73.2283
0.760672	73.2283
0.813537	74.4094
0.866402	75.5906
0.913393	75.5906
0.933952	76.7717
0.951573	77.9528
0.966259	79.1339
0.98388	81.4961
1.00738	88.5827
