Adsorption isotherm of Nitrogen on [Ni3(HCOO)6]-1c
DOI: 10.1039/C4ra05407e
Adsorbate Nitrogen: InChIKey IJGRMHOSHXDMSA-UHFFFAOYSA-N
Temperature: 298 K
Tabular data in the source: 0
pressure (bar)	uptake (mmol/g)
0.103447	0.0215247
0.156955	0.0269058
0.206895	0.0430493
0.260403	0.0484305
0.31391	0.0591928
0.36385	0.0591928
0.417356	0.0699552
0.470864	0.0807175
0.517237	0.0860987
0.577879	0.096861
0.624251	0.096861
0.677759	0.113004
0.727699	0.113004
0.781206	0.118386
0.838282	0.134529
0.888222	0.145291
0.938161	0.145291
0.959564	0.150673
0.970266	0.150673
0.988101	0.156054
1.00237	0.161435
1.02377	0.161435
1.03804	0.161435
