Adsorption isotherm of Argon on [Ni3(HCOO)6]-2b
DOI: 10.1039/C4ra05407e
Adsorbate Argon: InChIKey XKRFYHLGVUSROY-UHFFFAOYSA-N
Temperature: 273 K
Tabular data in the source: 0
pressure (bar)	uptake (cm3(STP)/g)
-0.00587391	-0.0057971
-0.00293696	3.54331
0.00293696	38.9764
0.0146848	43.7008
0.0352435	46.063
0.0440544	47.2441
0.0528652	48.4252
0.105731	50.7874
0.155658	53.1496
0.205587	56.6929
0.255515	61.4173
0.308381	62.5984
0.458165	70.8661
0.508093	73.2283
0.560959	75.5906
0.610887	77.9528
0.660815	80.315
0.713681	83.8583
0.760672	86.2205
0.819411	86.2205
0.863465	90.9449
0.910457	94.4882
0.933952	96.8504
0.966259	102.756
0.978006	107.48
0.995629	125.197
1.01031	191.339
