Adsorption isotherm of Methane on [Ni3(HCOO)6]-2a
DOI: 10.1039/C4ra05407e
Adsorbate Methane: InChIKey VNWKTOKETHGBQD-UHFFFAOYSA-N
Temperature: 288 K
Tabular data in the source: 0
pressure (bar)	uptake (mmol/g)
0.0213316	0.0375
0.0391079	0.0589286
0.0497736	0.075
0.0995474	0.155357
0.156431	0.230357
0.206206	0.3
0.255979	0.364286
0.312864	0.423214
0.362637	0.482143
0.415966	0.530357
0.465739	0.589286
0.519068	0.626786
0.568843	0.669643
0.622172	0.717857
0.671945	0.755357
0.725274	0.798214
0.778603	0.835714
0.831932	0.878571
0.881705	0.910714
0.935034	0.9375
0.952811	0.953571
0.963477	0.958929
0.984808	0.969643
0.988363	0.980357
1.01681	0.985714
1.03103	0.996429
