Adsorption isotherm of Methane on [Ni3(HCOO)6]-2a
DOI: 10.1039/C4ra05407e
Adsorbate Methane: InChIKey VNWKTOKETHGBQD-UHFFFAOYSA-N
Temperature: 298 K
Tabular data in the source: 0
pressure (bar)	uptake (mmol/g)
0.0284421	0.0375
0.0462185	0.0482143
0.0995474	0.117857
0.156431	0.171429
0.206206	0.219643
0.252423	0.267857
0.312864	0.316071
0.362637	0.364286
0.415966	0.407143
0.462185	0.444643
0.515514	0.4875
0.568843	0.530357
0.622172	0.5625
0.6755	0.605357
0.728829	0.6375
0.778603	0.664286
0.828376	0.696429
0.881705	0.728571
0.935034	0.755357
0.952811	0.771429
0.963477	0.776786
0.984808	0.782143
0.995474	0.798214
1.02036	0.803571
1.03458	0.808929
