Adsorption isotherm of Methane on [Ni3(HCOO)6]-2b
DOI: 10.1039/C4ra05407e
Adsorbate Methane: InChIKey VNWKTOKETHGBQD-UHFFFAOYSA-N
Temperature: 298 K
Tabular data in the source: 0
pressure (bar)	uptake (mmol/g)
0.10257	0.0642857
0.155659	0.0857143
0.208731	0.1125
0.261804	0.139286
0.314877	0.166071
0.364422	0.1875
0.417511	0.208929
0.467055	0.230357
0.520144	0.251786
0.569705	0.267857
0.622777	0.294643
0.672354	0.305357
0.728987	0.326786
0.775003	0.342857
0.828108	0.358929
0.877669	0.375
0.934317	0.391071
0.955561	0.396429
0.962633	0.401786
0.983878	0.407143
0.998035	0.4125
1.01574	0.417857
1.02991	0.417857
