Adsorption isotherm of Argon on [Ni3(HCOO)6]-2a
DOI: 10.1039/C4ra05407e
Adsorbate Argon: InChIKey XKRFYHLGVUSROY-UHFFFAOYSA-N
Temperature: 273 K
Tabular data in the source: 0
pressure (bar)	uptake (cm3(STP)/g)
-0.00587391	-0.0057971
0	63.7795
0.00293696	75.5906
0.0234956	86.2205
0.0469913	88.5827
0.0969196	93.3071
0.149785	95.6693
0.20265	98.0315
0.255515	99.2126
0.305443	99.2126
0.361246	100.394
0.411174	101.575
0.458165	102.756
0.511031	102.756
0.558022	103.937
0.605013	105.118
0.660815	107.48
0.710743	108.661
0.757735	109.843
0.813537	111.024
0.866402	112.205
0.916331	113.386
0.933952	114.567
0.948637	114.567
1.00738	121.654
