Adsorption isotherm of Methane on [Ni3(HCOO)6]-1b
DOI: 10.1039/C4ra05407e
Adsorbate Methane: InChIKey VNWKTOKETHGBQD-UHFFFAOYSA-N
Temperature: 288 K
Tabular data in the source: 0
pressure (bar)	uptake (mmol/g)
0.0177763	0.0375
0.0284421	0.0482143
0.0426632	0.075
0.103103	0.155357
0.156431	0.225
0.206206	0.289286
0.263089	0.358929
0.312864	0.4125
0.362637	0.466071
0.415966	0.525
0.462185	0.567857
0.515514	0.621429
0.568843	0.658929
0.622172	0.707143
0.671945	0.75
0.725274	0.7875
0.778603	0.825
0.831932	0.857143
0.881705	0.889286
0.935034	0.926786
0.952811	0.942857
0.967031	0.948214
0.984808	0.958929
0.995474	0.969643
1.02036	0.980357
1.03103	0.985714
