Adsorption isotherm of Methane on [Ni3(HCOO)6]-1c
DOI: 10.1039/C4ra05407e
Adsorbate Methane: InChIKey VNWKTOKETHGBQD-UHFFFAOYSA-N
Temperature: 298 K
Tabular data in the source: 0
pressure (bar)	uptake (mmol/g)
0.0392386	0.0430493
0.0499402	0.0538117
0.103447	0.102242
0.153387	0.150673
0.203327	0.193722
0.256835	0.242152
0.310342	0.279821
0.36385	0.32287
0.41379	0.355157
0.467298	0.392825
0.520804	0.430493
0.574311	0.468161
0.627819	0.495067
0.677759	0.532735
0.727699	0.565022
0.781206	0.586547
0.834714	0.618834
0.884654	0.64574
0.938161	0.678027
0.959564	0.678027
0.970266	0.688789
0.991669	0.704933
0.998803	0.710314
1.01307	0.715695
1.03804	0.721076
