Adsorption isotherm of Nitrogen on [Ni3(HCOO)6]-2b
DOI: 10.1039/C4ra05407e
Adsorbate Nitrogen: InChIKey IJGRMHOSHXDMSA-UHFFFAOYSA-N
Temperature: 288 K
Tabular data in the source: 0
pressure (bar)	uptake (mmol/g)
0.159376	0.0267857
0.212496	0.0375
0.262073	0.0482143
0.315209	0.0535714
0.364802	0.0589286
0.417906	0.075
0.471041	0.0803571
0.517091	0.0857143
0.57377	0.0910714
0.623347	0.101786
0.672939	0.107143
0.726075	0.1125
0.779212	0.117857
0.832316	0.133929
0.881923	0.133929
0.935044	0.144643
0.956289	0.15
0.970447	0.155357
0.981078	0.155357
0.998779	0.160714
1.02004	0.160714
1.04129	0.166071
