Adsorption isotherm of Methane on [Ni3(HCOO)6] 1a
DOI: 10.1039/C4ra05407e
Adsorbate Methane: InChIKey VNWKTOKETHGBQD-UHFFFAOYSA-N
Temperature: 298 K
Tabular data in the source: 0
pressure (bar)	uptake (mmol/g)
0.0248042	0.0215247
0.0354346	0.0430493
0.0496083	0.0538117
0.106304	0.107623
0.159455	0.166816
0.20552	0.215247
0.262216	0.258296
0.30828	0.301345
0.364975	0.349776
0.418127	0.392825
0.471279	0.430493
0.520888	0.468161
0.570496	0.500448
0.623647	0.532735
0.676799	0.570404
0.729951	0.602691
0.776016	0.634978
0.829168	0.661883
0.882319	0.699552
0.939015	0.721076
0.953188	0.731839
0.967362	0.742601
0.988623	0.753363
0.999254	0.758744
1.01697	0.769507
1.03469	0.774888
