Adsorption isotherm of Nitrogen on [Ni3(HCOO)6] 1a
DOI: 10.1039/C4ra05407e
Adsorbate Nitrogen: InChIKey IJGRMHOSHXDMSA-UHFFFAOYSA-N
Temperature: 308 K
Tabular data in the source: 0
pressure (bar)	uptake (mmol/g)
0.0248042	0.00538117
0.0425214	0.00538117
0.0637821	0.0107623
0.109847	0.0107623
0.162999	0.0215247
0.209064	0.0269058
0.255128	0.0376682
0.315367	0.0430493
0.368519	0.0538117
0.421671	0.0591928
0.467736	0.064574
0.520888	0.0699552
0.570496	0.0807175
0.623647	0.0807175
0.676799	0.0860987
0.722865	0.096861
0.77956	0.102242
0.832712	0.113004
0.889407	0.118386
0.935471	0.123767
0.953188	0.123767
0.970905	0.129148
0.99571	0.129148
1.02406	0.134529
1.03469	0.134529
