Adsorption isotherm of Methane on [Ni3(HCOO)6] 1a
DOI: 10.1039/C4ra05407e
Adsorbate Methane: InChIKey VNWKTOKETHGBQD-UHFFFAOYSA-N
Temperature: 288 K
Tabular data in the source: 0
pressure (bar)	uptake (mmol/g)
0.0106304	0.0161435
0.0283477	0.032287
0.0318911	0.0484305
0.0496083	0.0753363
0.10276	0.145291
0.159455	0.215247
0.209064	0.285202
0.262216	0.333632
0.364975	0.457399
0.414583	0.495067
0.471279	0.548879
0.520888	0.597309
0.570496	0.640359
0.620104	0.678027
0.673255	0.726457
0.722865	0.758744
0.77956	0.796413
0.829168	0.844843
0.882319	0.87713
0.931927	0.909417
0.953188	0.914798
0.967362	0.930942
0.988623	0.941704
1.0028	0.947085
1.01343	0.957848
1.03114	0.963229
