Adsorption isotherm of Methane on [Ni3(HCOO)6]-1b
DOI: 10.1039/C4ra05407e
Adsorbate Methane: InChIKey VNWKTOKETHGBQD-UHFFFAOYSA-N
Temperature: 308 K
Tabular data in the source: 0
pressure (bar)	uptake (mmol/g)
0.0497736	0.0482143
0.0995474	0.0803571
0.152877	0.123214
0.206206	0.160714
0.255979	0.192857
0.312864	0.230357
0.359081	0.267857
0.41241	0.3
0.465739	0.332143
0.515514	0.364286
0.568843	0.396429
0.622172	0.423214
0.6755	0.45
0.721718	0.482143
0.775047	0.508929
0.828376	0.541071
0.885261	0.5625
0.935034	0.589286
0.952811	0.594643
0.967031	0.605357
0.984808	0.610714
0.999029	0.616071
1.01325	0.626786
1.03103	0.632143
