Adsorption isotherm of Argon on [Ni3(HCOO)6]-1b
DOI: 10.1039/C4ra05407e
Adsorbate Argon: InChIKey XKRFYHLGVUSROY-UHFFFAOYSA-N
Temperature: 273 K
Tabular data in the source: 0
pressure (bar)	uptake (cm3(STP)/g)
0.0469913	92.126
0.0969196	98.0315
0.146848	99.2126
0.20265	101.575
0.252578	103.937
0.308381	103.937
0.361246	106.299
0.411174	109.843
0.455228	109.843
0.508093	111.024
0.555085	113.386
0.60795	114.567
0.660815	118.11
0.710743	119.291
0.760672	121.654
0.807663	126.378
0.860528	132.283
0.913393	153.543
0.931016	170.079
0.942763	186.614
0.963322	239.764
0.972132	276.378
1.01325	292.913
