Adsorption isotherm of Methane on [Ni3(HCOO)6]-1b
DOI: 10.1039/C4ra05407e
Adsorbate Methane: InChIKey VNWKTOKETHGBQD-UHFFFAOYSA-N
Temperature: 298 K
Tabular data in the source: 0
pressure (bar)	uptake (mmol/g)
0.0284421	0.0375
0.0355527	0.0482143
0.0533289	0.0589286
0.0995474	0.117857
0.156431	0.166071
0.20265	0.214286
0.259535	0.2625
0.312864	0.3
0.359081	0.353571
0.415966	0.396429
0.465739	0.439286
0.519068	0.471429
0.572397	0.514286
0.622172	0.551786
0.671945	0.583929
0.728829	0.621429
0.778603	0.653571
0.831932	0.675
0.885261	0.7125
0.931479	0.739286
0.956365	0.75
0.963477	0.760714
0.988363	0.771429
0.995474	0.776786
1.02036	0.7875
1.03103	0.798214
