Adsorption isotherm of Nitrogen on [Ni3(HCOO)6] 1a
DOI: 10.1039/C4ra05407e
Adsorbate Nitrogen: InChIKey IJGRMHOSHXDMSA-UHFFFAOYSA-N
Temperature: 298 K
Tabular data in the source: 0
pressure (bar)	uptake (mmol/g)
0.10276	0.0161435
0.155913	0.0269058
0.20552	0.032287
0.262216	0.0430493
0.311824	0.0538117
0.364975	0.0591928
0.418127	0.0699552
0.464192	0.0860987
0.520888	0.0860987
0.570496	0.0914798
0.623647	0.102242
0.676799	0.118386
0.726407	0.118386
0.77956	0.134529
0.829168	0.13991
0.882319	0.145291
0.935471	0.150673
0.956732	0.161435
0.967362	0.161435
0.985079	0.161435
0.99571	0.166816
1.02051	0.172197
1.03823	0.172197
