Adsorption isotherm of Methane on [Ni3(HCOO)6]-2a
DOI: 10.1039/C4ra05407e
Adsorbate Methane: InChIKey VNWKTOKETHGBQD-UHFFFAOYSA-N
Temperature: 308 K
Tabular data in the source: 0
pressure (bar)	uptake (mmol/g)
0.0462185	0.0428571
0.0995474	0.0910714
0.149321	0.123214
0.206206	0.166071
0.255979	0.198214
0.309308	0.230357
0.362637	0.273214
0.408856	0.3
0.462185	0.332143
0.515514	0.364286
0.568843	0.401786
0.622172	0.423214
0.671945	0.45
0.732384	0.482143
0.775047	0.508929
0.831932	0.541071
0.881705	0.5625
0.931479	0.589286
0.952811	0.6
0.967031	0.605357
0.984808	0.610714
0.991918	0.616071
1.01681	0.626786
1.03458	0.6375
