Adsorption isotherm of Nitrogen on [Ni3(HCOO)6]-2a
DOI: 10.1039/C4ra05407e
Adsorbate Nitrogen: InChIKey IJGRMHOSHXDMSA-UHFFFAOYSA-N
Temperature: 288 K
Tabular data in the source: 0
pressure (bar)	uptake (mmol/g)
0.106658	0.0267857
0.152877	0.0428571
0.206206	0.0589286
0.259535	0.0642857
0.312864	0.075
0.362637	0.0857143
0.415966	0.101786
0.465739	0.1125
0.519068	0.123214
0.572397	0.133929
0.622172	0.144643
0.679055	0.160714
0.728829	0.171429
0.782158	0.182143
0.831932	0.192857
0.885261	0.203571
0.935034	0.214286
0.956365	0.219643
0.970587	0.219643
0.988363	0.225
1.00258	0.225
1.01325	0.230357
1.03458	0.235714
