Adsorption isotherm of Nitrogen on [Ni3(HCOO)6]-2b
DOI: 10.1039/C4ra05407e
Adsorbate Nitrogen: InChIKey IJGRMHOSHXDMSA-UHFFFAOYSA-N
Temperature: 298 K
Tabular data in the source: 0
pressure (bar)	uptake (mmol/g)
0.159392	0.0214286
0.212528	0.0267857
0.262121	0.0321429
0.311713	0.0375
0.36129	0.0482143
0.414426	0.0535714
0.467546	0.0642857
0.517139	0.0696429
0.57029	0.0696429
0.626954	0.0803571
0.676562	0.0803571
0.726171	0.0803571
0.779307	0.0857143
0.828866	0.101786
0.885562	0.101786
0.935155	0.107143
0.956416	0.107143
0.963502	0.107143
0.988307	0.107143
1.00248	0.107143
1.01662	0.117857
1.03432	0.123214
