Adsorption isotherm of Nitrogen on [Ni3(HCOO)6]-2a
DOI: 10.1039/C4ra05407e
Adsorbate Nitrogen: InChIKey IJGRMHOSHXDMSA-UHFFFAOYSA-N
Temperature: 298 K
Tabular data in the source: 0
pressure (bar)	uptake (mmol/g)
0.103103	0.0214286
0.159987	0.0267857
0.20976	0.0375
0.263089	0.0535714
0.312864	0.0589286
0.362637	0.0642857
0.415966	0.075
0.465739	0.0857143
0.519068	0.0964286
0.568843	0.101786
0.622172	0.107143
0.679055	0.117857
0.728829	0.123214
0.778603	0.139286
0.831932	0.15
0.885261	0.155357
0.938589	0.166071
0.959921	0.171429
0.967031	0.171429
0.984808	0.171429
0.999029	0.171429
1.01681	0.171429
1.03458	0.176786
