Adsorption isotherm of Methane on [Ni3(HCOO)6]-1c
DOI: 10.1039/C4ra05407e
Adsorbate Methane: InChIKey VNWKTOKETHGBQD-UHFFFAOYSA-N
Temperature: 308 K
Tabular data in the source: 0
pressure (bar)	uptake (mmol/g)
0.0499402	0.0376682
0.0998803	0.0753363
0.153387	0.113004
0.210463	0.145291
0.260403	0.177578
0.310342	0.209865
0.36385	0.242152
0.41379	0.269058
0.467298	0.301345
0.520804	0.328251
0.574311	0.355157
0.624251	0.382063
0.674193	0.408969
0.731266	0.435874
0.781206	0.452018
0.831146	0.484305
0.881088	0.500448
0.934594	0.527354
0.959564	0.538117
0.970266	0.543498
0.988101	0.548879
0.998803	0.55426
1.02021	0.565022
1.03447	0.570404
