Adsorption isotherm of Nitrogen on [Ni3(HCOO)6]-1b
DOI: 10.1039/C4ra05407e
Adsorbate Nitrogen: InChIKey IJGRMHOSHXDMSA-UHFFFAOYSA-N
Temperature: 288 K
Tabular data in the source: 0
pressure (bar)	uptake (mmol/g)
0.103103	0.0267857
0.156431	0.0428571
0.206206	0.0482143
0.255979	0.0696429
0.309308	0.0803571
0.362637	0.0910714
0.415966	0.101786
0.465739	0.1125
0.519068	0.123214
0.568843	0.144643
0.618616	0.15
0.671945	0.166071
0.728829	0.176786
0.778603	0.1875
0.828376	0.198214
0.87815	0.203571
0.938589	0.219643
0.952811	0.219643
0.967031	0.230357
0.988363	0.230357
1.00258	0.235714
1.01681	0.241071
1.03458	0.241071
