Adsorption isotherm of Methane on [Ni3(HCOO)6] 1a
DOI: 10.1039/C4ra05407e
Adsorbate Methane: InChIKey VNWKTOKETHGBQD-UHFFFAOYSA-N
Temperature: 308 K
Tabular data in the source: 0
pressure (bar)	uptake (mmol/g)
0.0460649	0.032287
0.10276	0.0807175
0.159455	0.118386
0.212607	0.161435
0.255128	0.193722
0.30828	0.226009
0.361432	0.258296
0.414583	0.295964
0.467736	0.328251
0.517344	0.355157
0.566952	0.387444
0.623647	0.41435
0.676799	0.441256
0.726407	0.478924
0.77956	0.495067
0.832712	0.516592
0.882319	0.543498
0.935471	0.575785
0.953188	0.586547
0.967362	0.586547
0.988623	0.597309
0.999254	0.597309
1.01343	0.613453
1.03114	0.618834
