Adsorption isotherm of Nitrogen on [Ni3(HCOO)6]-1b
DOI: 10.1039/C4ra05407e
Adsorbate Nitrogen: InChIKey IJGRMHOSHXDMSA-UHFFFAOYSA-N
Temperature: 308 K
Tabular data in the source: 0
pressure (bar)	uptake (mmol/g)
0.0248869	0.0107143
0.0462185	0.0107143
0.103103	0.0214286
0.156431	0.0214286
0.20976	0.0321429
0.259535	0.0375
0.312864	0.0482143
0.362637	0.0482143
0.415966	0.0589286
0.469295	0.0642857
0.515514	0.075
0.568843	0.0803571
0.622172	0.0857143
0.6755	0.0964286
0.728829	0.0964286
0.782158	0.107143
0.828376	0.1125
0.885261	0.123214
0.938589	0.128571
0.956365	0.133929
0.970587	0.133929
0.991918	0.139286
1.01681	0.139286
1.03103	0.144643
