Adsorption isotherm of Nitrogen on [Ni3(HCOO)6]-2a
DOI: 10.1039/C4ra05407e
Adsorbate Nitrogen: InChIKey IJGRMHOSHXDMSA-UHFFFAOYSA-N
Temperature: 308 K
Tabular data in the source: 0
pressure (bar)	uptake (mmol/g)
0.106658	0.0214286
0.156431	0.0214286
0.20976	0.0321429
0.259535	0.0428571
0.316418	0.0482143
0.362637	0.0535714
0.415966	0.0589286
0.469295	0.0696429
0.519068	0.0696429
0.568843	0.075
0.625726	0.0857143
0.671945	0.0857143
0.728829	0.0964286
0.778603	0.107143
0.831932	0.1125
0.881705	0.117857
0.935034	0.123214
0.956365	0.123214
0.970587	0.123214
0.984808	0.123214
0.999029	0.128571
1.02036	0.133929
1.03458	0.133929
