Adsorption isotherm of Argon on [Ni3(HCOO)6]-1c
DOI: 10.1039/C4ra05407e
Adsorbate Argon: InChIKey XKRFYHLGVUSROY-UHFFFAOYSA-N
Temperature: 273 K
Tabular data in the source: 0
pressure (bar)	uptake (cm3(STP)/g)
0.00881087	68.5039
0.0234956	73.2283
0.0323066	75.5906
0.0440544	79.1339
0.0998565	82.6772
0.152722	85.0394
0.205587	87.4016
0.255515	89.7638
0.308381	92.126
0.361246	93.3071
0.411174	94.4882
0.455228	96.8504
0.508093	98.0315
0.558022	99.2126
0.605013	101.575
0.660815	102.756
0.710743	105.118
0.763609	106.299
0.8106	109.843
0.863465	111.024
0.933952	116.929
0.948637	121.654
0.963322	127.559
0.972132	132.283
0.989755	153.543
1.01031	201.969
