Adsorption isotherm of Methane on [Ni3(HCOO)6]-2b
DOI: 10.1039/C4ra05407e
Adsorbate Methane: InChIKey VNWKTOKETHGBQD-UHFFFAOYSA-N
Temperature: 308 K
Tabular data in the source: 0
pressure (bar)	uptake (mmol/g)
0.106161	0.0482143
0.159266	0.0642857
0.208811	0.0857143
0.25834	0.1125
0.315003	0.123214
0.364565	0.139286
0.414125	0.155357
0.463686	0.171429
0.516775	0.192857
0.569894	0.203571
0.622983	0.225
0.672543	0.241071
0.725664	0.251786
0.782312	0.267857
0.828345	0.278571
0.881449	0.294643
0.93101	0.310714
0.955799	0.316071
0.966413	0.321429
0.97706	0.316071
0.991233	0.316071
1.01602	0.321429
1.03372	0.326786
