Adsorption isotherm of Methane on [Ni3(HCOO)6]-2b
DOI: 10.1039/C4ra05407e
Adsorbate Methane: InChIKey VNWKTOKETHGBQD-UHFFFAOYSA-N
Temperature: 288 K
Tabular data in the source: 0
pressure (bar)	uptake (mmol/g)
0.0530094	0.0482143
0.10605	0.0857143
0.155563	0.117857
0.208606	0.155357
0.261646	0.192857
0.311176	0.219643
0.364247	0.246429
0.41732	0.273214
0.466834	0.305357
0.516363	0.332143
0.569452	0.353571
0.622541	0.375
0.675612	0.401786
0.728717	0.417857
0.778263	0.439286
0.827823	0.455357
0.884455	0.476786
0.934017	0.492857
0.958788	0.503571
0.98356	0.514286
0.997735	0.514286
1.01896	0.525
1.02959	0.525
