Adsorption isotherm of Nitrogen on [Ni3(HCOO)6]-1c
DOI: 10.1039/C4ra05407e
Adsorbate Nitrogen: InChIKey IJGRMHOSHXDMSA-UHFFFAOYSA-N
Temperature: 288 K
Tabular data in the source: 0
pressure (bar)	uptake (mmol/g)
0.0998803	0.0269058
0.156955	0.032287
0.210463	0.0484305
0.256835	0.0538117
0.310342	0.0699552
0.36385	0.0753363
0.41379	0.096861
0.470864	0.107623
0.524372	0.118386
0.574311	0.129148
0.624251	0.134529
0.674193	0.145291
0.731266	0.156054
0.781206	0.166816
0.831146	0.177578
0.888222	0.188341
0.934594	0.193722
0.963131	0.199103
0.9774	0.199103
0.991669	0.204484
0.998803	0.215247
1.01664	0.215247
1.03447	0.215247
