Adsorption isotherm of Nitrogen on [Ni3(HCOO)6] 1a
DOI: 10.1039/C4ra05407e
Adsorbate Nitrogen: InChIKey IJGRMHOSHXDMSA-UHFFFAOYSA-N
Temperature: 288 K
Tabular data in the source: 0
pressure (bar)	uptake (mmol/g)
0.159455	0.0376682
0.20552	0.0484305
0.258672	0.0591928
0.30828	0.0699552
0.357889	0.0860987
0.418127	0.096861
0.464192	0.102242
0.520888	0.123767
0.570496	0.134529
0.623647	0.13991
0.676799	0.150673
0.726407	0.166816
0.77956	0.177578
0.832712	0.18296
0.878776	0.199103
0.935471	0.209865
0.960276	0.215247
0.970905	0.220628
0.985079	0.226009
0.99571	0.226009
1.02051	0.226009
1.03469	0.23139
