Adsorption isotherm of Nitrogen on [Ni3(HCOO)6]-1c
DOI: 10.1039/C4ra05407e
Adsorbate Nitrogen: InChIKey IJGRMHOSHXDMSA-UHFFFAOYSA-N
Temperature: 308 K
Tabular data in the source: 0
pressure (bar)	uptake (mmol/g)
0.103447	0.0215247
0.156955	0.0269058
0.206895	0.0269058
0.267537	0.0430493
0.31391	0.0430493
0.367416	0.0484305
0.417356	0.0538117
0.470864	0.0591928
0.520804	0.064574
0.570745	0.0753363
0.624251	0.0753363
0.681327	0.0807175
0.727699	0.0860987
0.781206	0.0914798
0.834714	0.102242
0.884654	0.107623
0.941729	0.113004
0.959564	0.113004
0.970266	0.113004
0.991669	0.118386
1.00237	0.118386
1.02021	0.123767
1.03804	0.123767
