Adsorption isotherm of Nitrogen on [Ni3(HCOO)6]-1b
DOI: 10.1039/C4ra05407e
Adsorbate Nitrogen: InChIKey IJGRMHOSHXDMSA-UHFFFAOYSA-N
Temperature: 298 K
Tabular data in the source: 0
pressure (bar)	uptake (mmol/g)
0.106658	0.0267857
0.152877	0.0321429
0.20976	0.0428571
0.259535	0.0535714
0.312864	0.0642857
0.366193	0.0696429
0.41241	0.075
0.469295	0.0857143
0.515514	0.0964286
0.572397	0.107143
0.625726	0.1125
0.6755	0.117857
0.725274	0.128571
0.778603	0.139286
0.831932	0.15
0.885261	0.160714
0.942145	0.166071
0.956365	0.166071
0.970587	0.176786
0.988363	0.176786
1.00969	0.1875
1.03458	0.1875
