Adsorption isotherm of Methane on [Ni3(HCOO)6]-1c
DOI: 10.1039/C4ra05407e
Adsorbate Methane: InChIKey VNWKTOKETHGBQD-UHFFFAOYSA-N
Temperature: 288 K
Tabular data in the source: 0
pressure (bar)	uptake (mmol/g)
0.0214029	0.0269058
0.0249701	0.0430493
0.0499402	0.064574
0.103447	0.13991
0.153387	0.199103
0.206895	0.258296
0.256835	0.312108
0.310342	0.365919
0.360282	0.419731
0.417356	0.468161
0.470864	0.511211
0.520804	0.55426
0.574311	0.591928
0.627819	0.629596
0.677759	0.667265
0.727699	0.699552
0.781206	0.731839
0.831146	0.764126
0.884654	0.796413
0.938161	0.823318
0.955997	0.839462
0.970266	0.844843
0.984535	0.850224
0.998803	0.855605
1.02021	0.860987
1.03447	0.87713
