Adsorption isotherm of Nitrogen on Silicalite-CB1
DOI: 10.1016/j.micromeso.2008.08.005
Adsorbate Nitrogen: InChIKey IJGRMHOSHXDMSA-UHFFFAOYSA-N
Temperature: 77 K
Tabular data in the source: 0
pressure (bar)	uptake (cm3(STP)/g)
0.00594132	151.569
0.00751912	163.808
0.0253533	165.69
0.0448127	166.632
0.0610216	169.456
0.0837248	170.397
0.106418	174.163
0.129121	175.105
0.153446	176.046
0.174524	177.929
0.205337	178.87
0.241019	178.87
0.294535	180.753
0.346436	180.753
0.391842	182.636
0.459969	180.753
0.507001	181.695
0.555655	182.636
0.607555	182.636
0.648103	182.636
0.700007	181.695
0.745417	182.636
0.794074	182.636
0.839488	182.636
0.873541	184.519
0.905958	190.167
0.938376	195.816
0.94484	202.406
0.949679	209.937
0.957717	229.707
0.957741	223.117
0.962549	239.121
