Adsorption isotherm of Water on Silicalite-Su1
DOI: 10.1016/j.micromeso.2008.08.005
Adsorbate Water: InChIKey XLYOFNOQVPJJNP-UHFFFAOYSA-N
Temperature: 77 K
Tabular data in the source: 0
pressure (bar)	uptake (ml/g)
59.434	59.434
79.2453	0.0132338
92.4528	0.0160199
125.472	0.0181095
171.698	0.0195025
204.717	0.0208955
270.755	0.0236816
310.377	0.0236816
369.811	0.0250746
422.642	0.0250746
488.679	0.0243781
541.509	0.0250746
600.943	0.0264677
640.566	0.0285572
686.792	0.0299502
733.019	0.0348259
785.849	0.040398
812.264	0.0452736
845.283	0.0536318
865.094	0.060597
878.302	0.0696517
898.113	0.07801
911.321	0.0898507
937.736	0.0954229
964.151	0.102388
1003.77	0.10796
1036.79	0.110746
1076.42	0.114925
1116.04	0.117015
1149.06	0.119104
1201.89	0.121891
1261.32	0.123284
1314.15	0.124677
1386.79	0.126766
1466.04	0.129552
1565.09	0.130945
1657.55	0.132338
1723.58	0.133731
1796.23	0.133731
1855.66	0.134428
1921.7	0.135124
1987.74	0.135821
2073.58	0.135821
