Adsorption isotherm of Nitrogen on Silicalite-Su2
DOI: 10.1016/j.micromeso.2008.08.005
Adsorbate Nitrogen: InChIKey IJGRMHOSHXDMSA-UHFFFAOYSA-N
Temperature: 77 K
Tabular data in the source: 0
pressure (bar)	uptake (cm3(STP)/g)
0.00229374	263.598
0.00380028	295.607
0.00383421	286.192
0.00549683	274.895
0.00864223	302.197
0.0215971	307.845
0.037806	310.669
0.0507744	312.552
0.0734709	315.377
0.0961673	318.201
0.131839	321.025
0.16102	324.791
0.177239	324.791
0.196688	328.556
0.245328	333.264
0.292329	342.678
0.339341	349.268
0.391228	353.033
0.438246	357.741
0.485268	361.506
0.537155	365.272
0.585806	367.155
0.631219	367.155
0.679866	369.979
0.718788	370.921
0.747979	371.862
0.778792	372.803
0.799873	373.745
0.81446	376.569
0.835545	376.569
0.853382	377.51
0.864736	377.51
0.890669	382.218
0.910118	385.983
0.932801	392.573
0.945753	399.163
0.952203	409.519
0.955423	416.109
0.958633	425.523
0.961843	434.937
0.965046	446.234
