Adsorption isotherm of Water on Silicalite-CB2
DOI: 10.1016/j.micromeso.2008.08.005
Adsorbate Water: InChIKey XLYOFNOQVPJJNP-UHFFFAOYSA-N
Temperature: 77 K
Tabular data in the source: 0
pressure (bar)	uptake (ml/g)
26.3323	0.00208082
52.6646	0.00555467
92.163	0.00763112
125.078	0.00762021
164.577	0.0103932
210.658	0.0110744
236.991	0.0117622
296.238	0.0131356
335.737	0.012426
394.984	0.0137993
447.649	0.0137819
487.147	0.0144653
552.978	0.016533
599.06	0.0172142
638.558	0.0185942
684.639	0.0206684
724.138	0.0220484
776.803	0.0241205
836.05	0.0282799
862.382	0.0338433
895.298	0.0401011
928.213	0.0456623
941.379	0.0533196
974.295	0.0623634
987.461	0.0686277
1007.21	0.0762828
1033.54	0.0846323
1073.04	0.095067
1112.54	0.100626
1191.54	0.109655
1277.12	0.115198
1362.7	0.117956
1481.19	0.121399
1560.19	0.123463
1639.18	0.124133
1718.18	0.124803
1810.34	0.125469
1889.34	0.12614
1981.5	0.128199
2060.5	0.128869
