Adsorption isotherm of Water on Silicalite-CB1
DOI: 10.1016/j.micromeso.2008.08.005
Adsorbate Water: InChIKey XLYOFNOQVPJJNP-UHFFFAOYSA-N
Temperature: 77 K
Tabular data in the source: 0
pressure (bar)	uptake (ml/g)
26.4151	0.00348259
33.0189	0.0111443
39.6226	0.020199
52.8302	0.0487562
105.66	0.0480597
151.887	0.0508458
211.321	0.0508458
257.547	0.0529353
303.774	0.0550249
350	0.0564179
383.019	0.0585075
442.453	0.0612935
488.679	0.0633831
528.302	0.0654726
574.528	0.0689552
620.755	0.0724378
666.981	0.0766169
726.415	0.0814925
766.038	0.0870647
818.868	0.0947264
871.698	0.100995
917.925	0.105174
970.755	0.109353
1083.02	0.115622
1168.87	0.118408
1261.32	0.122587
1347.17	0.123284
1439.62	0.125373
1512.26	0.127463
1604.72	0.128856
1697.17	0.129552
1809.43	0.130249
1888.68	0.131642
2020.75	0.132338
2066.98	0.134428
