Adsorption isotherm of Nitrogen on Silicalite-CB2
DOI: 10.1016/j.micromeso.2008.08.005
Adsorbate Nitrogen: InChIKey IJGRMHOSHXDMSA-UHFFFAOYSA-N
Temperature: 77 K
Tabular data in the source: 0
pressure (bar)	uptake (cm3(STP)/g)
0.00417352	192.05
0.00588364	167.573
0.0122491	201.464
0.031695	206.172
0.0511578	206.172
0.0803487	207.113
0.0981794	209.937
0.125738	213.703
0.14682	214.644
0.174372	220.293
0.200308	224.059
0.235963	231.59
0.271638	233.473
0.294348	232.531
0.323543	232.531
0.343005	232.531
0.377062	233.473
0.388412	234.414
0.437066	235.356
0.472747	235.356
0.488966	235.356
0.53438	235.356
0.583037	235.356
0.634934	236.297
0.680344	237.238
0.720892	237.238
0.748468	236.297
0.780899	238.18
0.798736	239.121
0.814955	239.121
0.845772	239.121
0.860369	239.121
0.878203	241.004
0.894419	241.946
0.918747	241.946
0.943059	246.653
0.954381	255.126
0.964076	265.481
0.965664	274.895
