Adsorption isotherm of Nitrogen on Silicalite-Su1
DOI: 10.1016/j.micromeso.2008.08.005
Adsorbate Nitrogen: InChIKey IJGRMHOSHXDMSA-UHFFFAOYSA-N
Temperature: 77 K
Tabular data in the source: 0
pressure (bar)	uptake (cm3(STP)/g)
0.00401404	236.297
0.00410565	210.879
0.00557826	252.301
0.00559862	246.653
0.00568684	222.176
0.0152825	259.833
0.0250038	262.657
0.041216	264.54
0.0509407	266.423
0.0736371	269.247
0.0995808	271.13
0.128768	273.013
0.157949	276.778
0.180649	278.661
0.195246	278.661
0.245508	283.368
0.290901	289.017
0.346029	293.724
0.391425	298.431
0.438453	300.314
0.485482	302.197
0.532514	303.138
0.586036	303.138
0.633065	305.021
0.6801	305.021
0.715785	304.079
0.74822	305.021
0.777414	305.021
0.796877	305.021
0.819584	305.021
0.83904	306.904
0.871478	306.904
0.892559	307.845
0.915262	308.787
0.941199	312.552
0.955773	319.142
0.967092	328.556
