Adsorption isotherm of Water on Silicalite MFI
DOI: 10.1016/j.micromeso.2008.08.005
Adsorbate Water: InChIKey XLYOFNOQVPJJNP-UHFFFAOYSA-N
Temperature: 77 K
Tabular data in the source: 0
pressure (bar)	uptake (ml/g)
237.736	0.0021
310.377	0.0021
350	0.0035
416.038	0.0035
449.057	0.0049
495.283	0.0063
548.113	0.0084
600.943	0.0098
647.17	0.0119
700	0.0133
746.226	0.0168
805.66	0.0203
832.075	0.0231
845.283	0.028
871.698	0.0357
898.113	0.0427
904.717	0.0504
924.528	0.0567
944.34	0.0637
970.755	0.0707
997.17	0.077
1036.79	0.0819
1076.42	0.0847
1109.43	0.0882
1142.45	0.091
1188.68	0.0938
1254.72	0.0966
1294.34	0.0966
1327.36	0.098
1406.6	0.1001
1472.64	0.1001
1558.49	0.1022
1670.75	0.1036
1776.42	0.1043
1842.45	0.1057
1921.7	0.1057
2027.36	0.1078
2060.38	0.1078
