Adsorption isotherm of Water on Silicalite-Su2
DOI: 10.1016/j.micromeso.2008.08.005
Adsorbate Water: InChIKey XLYOFNOQVPJJNP-UHFFFAOYSA-N
Temperature: 77 K
Tabular data in the source: 0
pressure (bar)	uptake (ml/g)
26.3323	0.0007
39.4984	0.0119
59.2476	0.0161
111.912	0.0175
164.577	0.0175
223.824	0.0175
269.906	0.0196
315.987	0.0189
394.984	0.0196
460.815	0.0196
520.063	0.0196
592.476	0.021
638.558	0.0224
684.639	0.0259
737.304	0.0301
763.636	0.0336
789.969	0.0378
829.467	0.0455
862.382	0.0567
888.715	0.07
901.881	0.0777
921.63	0.0868
941.379	0.0931
967.712	0.0973
994.044	0.1001
1033.54	0.1043
1079.62	0.1071
1132.29	0.1127
1171.79	0.1141
1257.37	0.1148
1336.36	0.1169
1402.19	0.1183
1461.44	0.1183
1514.11	0.1204
1579.94	0.1211
1645.77	0.1218
1698.43	0.1239
1784.01	0.1239
1849.84	0.1253
1915.67	0.1253
1994.67	0.126
2060.5	0.126
