Adsorption isotherm of Nitrogen on Silicalite MFI
DOI: 10.1016/j.micromeso.2008.08.005
Adsorbate Nitrogen: InChIKey IJGRMHOSHXDMSA-UHFFFAOYSA-N
Temperature: 77 K
Tabular data in the source: 0
pressure (bar)	uptake (cm3(STP)/g)
0.00464855	60.251
0.00616866	88.4937
0.0158797	94.1423
0.0320954	95.0837
0.0450672	96.0251
0.0580424	96.0251
0.0775019	96.9665
0.100209	96.9665
0.126152	98.8494
0.161807	106.381
0.194225	112.029
0.226646	116.736
0.260699	118.619
0.301243	119.561
0.340165	120.502
0.408285	120.502
0.456936	122.385
0.507221	120.502
0.563985	121.444
0.602907	122.385
0.645083	120.502
0.684002	122.385
0.722934	120.502
0.758613	121.444
0.778079	120.502
0.795917	121.444
0.815383	120.502
0.855931	120.502
0.880259	120.502
0.893234	120.502
0.904581	122.385
0.930531	122.385
0.949987	124.268
0.972691	125.209
