Adsorption isotherm of Carbon Dioxide on C28H30Co3N2O14
DOI: 10.1039/C3ra44331k
Adsorbate Carbon Dioxide: InChIKey CURLTUGMZLYLDI-UHFFFAOYSA-N
Temperature: 195 K
Tabular data in the source: 0
pressure (bar)	uptake (cm3(STP)/g)
0.00193298	14.6185
0.00554565	11.5261
0.0215161	18.1325
0.0479246	19.6787
0.0744131	20.3815
0.104195	21.3655
0.130696	21.9277
0.153892	22.3494
0.183713	22.9116
0.206922	23.1928
0.263285	23.8956
0.31301	24.5984
0.369386	25.1606
0.419124	25.7229
0.47218	26.2851
0.521932	26.7068
0.578308	27.2691
0.631365	27.8313
0.684422	28.3936
0.734173	28.8153
0.78723	29.3775
0.840274	30.0803
0.893344	30.502
0.919886	30.6426
0.946388	31.2048
0.979555	31.4859
1.0094	31.7671
