Adsorption isotherm of Nitrogen on C28H30Co3N2O14
DOI: 10.1039/C3ra44331k
Adsorbate Nitrogen: InChIKey IJGRMHOSHXDMSA-UHFFFAOYSA-N
Temperature: 77 K
Tabular data in the source: 0
pressure (bar)	uptake (cm3(STP)/g)
0.0216647	0.705645
0.0402506	1.12903
0.0681731	1.27016
0.0898878	1.41129
0.114706	1.55242
0.139525	1.69355
0.164356	1.69355
0.189163	1.97581
0.213994	1.97581
0.260539	2.11694
0.31019	2.25806
0.359839	2.39919
0.409502	2.39919
0.459152	2.54032
0.505698	2.68145
0.570854	2.96371
0.620504	3.10484
0.670155	3.24597
0.716687	3.52823
0.769441	3.66935
0.815975	3.95161
0.865612	4.23387
0.915237	4.65726
