Adsorption isotherm of Nitrogen on sp2c-COF
DOI: 10.1002/smll.202006882
Article source: Figure S38D
Adsorbate Nitrogen: InChIKey IJGRMHOSHXDMSA-UHFFFAOYSA-N
Kind: experiment
Temperature: 77 K
Tabular data in the source: 0
pressure (bar)	uptake (cm3(STP)/g)
-0.00069	21.7342
-0.001338	38.0175
-4.2e-05	53.4614
0.001901	64.0371
0.005465	72.9342
0.009999	84.685
0.020365	95.7643
0.02911	101.304
0.040124	108.522
0.050165	114.23
0.084176	122.12
0.119159	125.645
0.153495	126.988
0.188154	128.667
0.222165	129.506
0.256176	130.681
0.291483	131.52
0.326466	132.36
0.378617	132.695
0.414248	133.367
0.447935	133.87
0.48227	134.71
0.517577	135.213
0.551589	136.221
0.587219	135.885
0.618639	137.228
0.636779	137.899
0.670466	138.235
0.722941	140.585
0.739784	142.096
0.774767	144.446
0.809426	146.293
0.844085	151.497
0.877449	158.883
0.909517	168.284
0.943852	187.253
0.977863	225.527
1.00572	386.009
1.00637	385.841
0.967822	246.51
0.921826	206.725
0.886195	196.821
0.851212	190.106
0.816229	186.413
0.781893	182.72
0.766993	181.881
0.713547	179.027
0.696703	177.684
0.663016	176.677
0.608922	175.334
0.573939	174.663
0.540575	173.991
0.504944	171.977
0.492636	159.387
0.456357	151.161
0.403235	150.154
0.366956	148.811
0.333268	149.147
0.298609	148.643
0.26395	147.804
0.249698	147.468
0.214715	146.461
0.181028	145.118
0.146692	143.271
0.111385	141.089
0.077374	137.731
0.050165	130.009
