Adsorption isotherm of Nitrogen on COF-316-AO
DOI: 10.1002/smll.202006882
Article source: Figure S37D
Adsorbate Nitrogen: InChIKey IJGRMHOSHXDMSA-UHFFFAOYSA-N
Kind: experiment
Temperature: 77 K
Tabular data in the source: 0
pressure (bar)	uptake (cm3(STP)/g)
-0.000783	29.466
-1.5e-05	39.8158
0.004499	44.6447
0.004132	49.6473
0.005647	57.582
0.018046	60.6838
0.027815	63.0964
0.038712	66.3711
0.051486	69.3004
0.084166	72.2246
0.119475	74.8031
0.153655	76.5194
0.189338	78.2354
0.222766	79.4344
0.257321	80.2881
0.294506	82.3487
0.327558	82.8578
0.359859	83.5396
0.394039	85.2559
0.429345	86.1094
0.4639	86.9631
0.499206	88.3342
0.531506	88.4984
0.566437	89.8696
0.600616	90.7234
0.636299	92.6118
0.669353	93.9834
0.704659	95.0095
0.737713	96.8986
0.772645	98.9597
0.807201	100.676
0.842134	103.6
0.875944	108.593
0.909382	115.485
0.94057	125.137
0.979313	161.352
1.00309	234.487
1.00272	234.314
0.978977	186.193
0.936473	146.183
0.900018	131.185
0.859816	122.225
0.820747	116.715
0.785063	113.792
0.767408	112.244
0.733227	110.527
0.698296	108.811
0.661112	107.958
0.629186	106.586
0.594255	105.215
0.559325	104.706
0.52477	103.335
0.490215	102.136
0.45641	100.765
0.422232	100.084
0.369273	98.8035
0.353874	98.5486
0.317816	97.3503
0.284764	96.6687
0.249834	95.4701
0.215279	94.6163
0.181851	93.5898
0.143539	91.8746
0.113115	90.8473
0.078183	88.2687
0.050763	86.5506
