Adsorption isotherm of Nitrogen on sp2c-COF-AO
DOI: 10.1002/smll.202006882
Article source: Figure S38D
Adsorbate Nitrogen: InChIKey IJGRMHOSHXDMSA-UHFFFAOYSA-N
Kind: experiment
Temperature: 77 K
Tabular data in the source: 0
pressure (bar)	uptake (cm3(STP)/g)
-0.0015	17.5935
0.002009	33.2612
0.004709	39.5563
0.010107	43.3333
0.019015	46.4109
0.028733	49.0688
0.03791	51.7267
0.050867	53.1257
0.084608	56.3431
0.119429	57.6021
0.153441	59.7005
0.187182	60.6797
0.223083	61.659
0.256824	62.7781
0.292185	63.6174
0.326196	64.4568
0.360747	65.7158
0.394219	66.8349
0.43012	67.6743
0.462511	68.3737
0.497872	69.0732
0.531884	69.9125
0.567514	70.3322
0.601526	72.2907
0.635267	73.5497
0.669278	75.0885
0.705989	76.4874
0.738651	78.5857
0.772392	82.083
0.806133	85.3005
0.841494	89.9169
0.875235	96.4917
0.906817	107.403
0.939749	123.91
0.976999	159.582
1.00426	238.481
1.00399	238.481
0.965932	180.146
0.930841	161.121
0.891971	149.65
0.854721	142.656
0.837715	139.018
0.803704	132.164
0.768073	126.009
0.733792	120.553
0.697621	116.636
0.66307	113.279
0.628789	109.781
0.595587	106.844
0.560631	104.186
0.525405	101.947
0.492744	88.3781
0.453334	82.5027
0.402047	80.9639
0.369115	79.9846
0.352919	79.1453
0.318368	78.4458
0.284087	77.3267
0.248996	76.7672
0.215255	75.7879
0.180974	74.5289
0.145343	73.2699
0.109982	71.5912
0.07759	69.4928
0.050867	66.9748
