Adsorption isotherm of Nitrogen on Tb-DBD
DOI: 10.1002/smll.202006882
Article source: Figure S18
Adsorbate Nitrogen: InChIKey IJGRMHOSHXDMSA-UHFFFAOYSA-N
Kind: experiment
Temperature: 77 K
Tabular data in the source: 0
pressure (bar)	uptake (cm3(STP)/g)
0.000947	19.1968
-0.001252	38.6991
-0.001252	56.035
6.8e-05	71.0072
6.8e-05	82.8272
0.002266	98.9816
0.002706	111.787
0.004025	121.243
0.004465	130.305
0.006224	136.018
0.005784	141.534
0.009742	150.794
0.020296	172.073
0.034807	179.562
0.046241	183.308
0.058553	185.872
0.086257	189.227
0.117919	191.993
0.153538	193.578
0.188278	195.359
0.225216	198.126
0.256878	198.725
0.291178	200.506
0.325478	200.711
0.359338	202.295
0.391439	202.894
0.449485	203.696
0.463557	204.291
0.496538	205.481
0.552605	205.199
0.584487	206.093
0.602516	207.476
0.632858	208.665
0.668917	208.871
0.723006	210.657
0.739276	211.055
0.771817	212.836
0.805678	215.208
0.842616	217.778
0.874717	222.317
0.907258	228.432
0.945076	241.837
0.977617	275.925
1.004	333.259
1.00356	333.455
0.960467	292.469
0.924408	264.684
0.88659	251.87
0.851411	245.754
0.814912	242.987
0.780612	240.418
0.746312	238.834
0.712452	237.644
0.696621	237.049
0.644292	236.248
0.628021	235.653
0.594161	235.251
0.539193	234.056
0.505773	233.26
0.49302	226.362
0.457401	213.942
0.421782	212.948
0.368133	211.162
0.332074	209.775
0.318882	209.181
0.283262	208.581
0.248523	206.8
0.214662	205.412
0.180802	203.828
0.146502	202.047
0.112202	199.872
0.077462	196.317
0.049759	191.78
