Adsorption isotherm of Nitrogen on Hb-DBD
DOI: 10.1002/smll.202006882
Article source: Figure 3C
Adsorbate Nitrogen: InChIKey IJGRMHOSHXDMSA-UHFFFAOYSA-N
Kind: experiment
Temperature: 77 K
Tabular data in the source: 0
pressure (bar)	uptake (cm3(STP)/g)
0.000636	7.93781
0.001018	16.0597
0.001399	24.0761
0.001961	32.1979
0.002193	51.7116
0.000442	69.9599
0.001932	88.3131
0.003417	104.979
0.00601	132.192
0.00638	135.673
0.008188	138.731
0.008925	144.955
0.032748	167.629
0.080292	174.583
0.10406	176.689
0.123505	177.846
0.145471	179.214
0.164555	180.055
0.18328	181.107
0.204523	181.315
0.252411	182.362
0.30498	183.831
0.354667	184.456
0.406156	185.714
0.456561	185.811
0.507689	186.753
0.597701	187.688
0.648466	187.574
0.699234	188.727
0.710397	189.253
0.761523	189.456
0.850457	191.446
0.861981	192.393
0.885747	193.761
0.912396	195.972
0.937607	198.921
0.963179	202.715
0.988037	208.301
0.993445	211.043
1.00426	215.577
1.00909	218.891
0.966535	210.399
0.923476	209.04
0.872637	207.682
0.821282	207.234
0.770446	206.939
0.720129	206.946
0.669812	206.802
0.617938	206.355
0.567622	206.667
0.516785	206.219
0.471103	193.477
0.455535	191.355
0.364755	190.459
0.314436	189.708
0.2636	189.412
0.253223	188.655
0.203423	187.6
0.165035	186.847
0.127682	185.183
0.089809	183.216
0.055045	179.731
