Adsorption isotherm of Nitrogen on Bd-DBD
DOI: 10.1002/smll.202006882
Article source: Figure 3B
Adsorbate Nitrogen: InChIKey IJGRMHOSHXDMSA-UHFFFAOYSA-N
Kind: experiment
Temperature: 77 K
Tabular data in the source: 0
pressure (bar)	uptake (cm3(STP)/g)
0.000868	16.5018
0.001032	33.205
0.001094	44.5891
0.002267	59.5061
0.004138	69.0256
0.005276	77.6618
0.008213	82.2743
0.010795	88.7514
0.020678	99.3504
0.035988	104.257
0.046913	105.729
0.05893	107.201
0.086961	109.262
0.119355	110.44
0.155025	111.863
0.188871	112.501
0.22417	112.795
0.261291	113.286
0.293133	113.58
0.327522	113.58
0.3832	113.875
0.417043	114.071
0.451613	113.973
0.485093	114.169
0.518935	114.071
0.553144	114.464
0.588077	114.366
0.622651	114.954
0.637758	115.838
0.672331	116.427
0.724918	117.015
0.759488	117.113
0.794066	118.487
0.809356	119.665
0.843573	121.432
0.878886	124.179
0.912021	128.007
0.946998	135.858
0.979138	157.448
1.00448	199.942
1.00412	200.237
0.959925	170.893
0.923805	153.621
0.888102	146.163
0.852425	143.316
0.816753	141.452
0.782904	140.274
0.747965	139.391
0.713392	138.998
0.679187	139.195
0.644618	139.489
0.610416	140.372
0.575119	140.569
0.54164	140.47
0.506704	140.176
0.474992	130.46
0.457155	129.283
0.403665	129.773
0.368364	129.283
0.334157	129.185
0.300679	129.283
0.266107	129.086
0.231534	128.498
0.215883	128.007
0.1824	127.124
0.147826	126.437
0.113247	124.965
0.079397	123.493
0.051546	121.137
