Adsorption isotherm of Nitrogen on COF-316
DOI: 10.1002/smll.202006882
Article source: Figure S37D
Adsorbate Nitrogen: InChIKey IJGRMHOSHXDMSA-UHFFFAOYSA-N
Kind: experiment
Temperature: 77 K
Tabular data in the source: 0
pressure (bar)	uptake (cm3(STP)/g)
-0.000587	58.4391
0.00162	85.5143
0.004349	100.914
0.009781	115.569
0.019527	122.522
0.031973	126.99
0.049285	129.966
0.086071	135.918
0.121771	139.387
0.154765	141.366
0.190464	143.841
0.222376	145.074
0.258074	147.053
0.291067	148.783
0.326222	148.774
0.359756	150.753
0.394913	151.986
0.431151	153.715
0.465225	154.7
0.497136	155.686
0.533916	157.912
0.566367	158.649
0.600984	160.628
0.636682	162.357
0.669673	162.846
0.705371	164.575
0.738366	167.051
0.773523	169.029
0.808683	172.746
0.843301	175.47
0.876301	180.926
0.909843	187.873
0.941235	202.521
0.975909	240.269
1.00744	340.863
1.00906	341.111
0.968375	263.869
0.937494	230.591
0.897978	208.245
0.855776	197.575
0.818989	191.374
0.782206	187.409
0.767601	185.674
0.732443	183.199
0.699449	181.468
0.664834	180.235
0.629677	178.505
0.595062	177.52
0.559364	175.791
0.524749	174.557
0.493916	171.584
0.458756	167.867
0.420895	165.89
0.369514	165.158
0.353287	163.92
0.318672	162.686
0.284598	161.95
0.249442	160.717
0.215368	159.732
0.181293	158.002
0.146676	155.527
0.110977	153.548
0.077981	150.328
0.051474	146.36
