Adsorption isotherm of Nitrogen on Tp-DBD
DOI: 10.1002/smll.202006882
Article source: Figure 3A
Adsorbate Nitrogen: InChIKey IJGRMHOSHXDMSA-UHFFFAOYSA-N
Kind: experiment
Temperature: 77 K
Tabular data in the source: 0
pressure (bar)	uptake (cm3(STP)/g)
0.000901	19.998
0.000901	38.1983
0.001289	56.6088
0.001676	71.8633
0.004774	84.8029
0.007098	89.4316
0.010583	96.7954
0.022201	109.839
0.032657	113.836
0.044662	116.464
0.058216	118.04
0.085711	120.141
0.11979	122.135
0.154256	123.078
0.189496	124.441
0.22435	125.699
0.258041	126.22
0.292507	127.058
0.325811	127.685
0.35989	128.417
0.393194	129.043
0.428822	129.354
0.463675	129.876
0.49698	130.608
0.532608	131.024
0.565912	131.441
0.601733	131.962
0.634844	132.484
0.668923	132.9
0.70455	133.422
0.739016	134.575
0.77387	134.991
0.806012	136.354
0.842802	138.769
0.87688	141.605
0.910185	146.861
0.944651	156.43
0.976406	173.785
1.00235	201.976
1.00235	202.081
0.962852	179.362
0.924126	168.216
0.886949	162.54
0.850934	159.178
0.816468	157.078
0.782389	155.82
0.747149	154.773
0.712683	153.935
0.67783	153.309
0.644138	153.208
0.609672	152.897
0.575593	152.585
0.559328	152.377
0.505112	151.332
0.493882	146.179
0.458254	136.715
0.421464	136.088
0.367635	135.99
0.334718	135.574
0.319228	135.05
0.284375	134.739
0.249521	134.217
0.215443	133.38
0.181364	132.648
0.14806	131.6
0.112432	130.342
0.077966	128.558
0.050471	126.352
