Adsorption isotherm of Carbon Dioxide on CAU-1-NHCH3
DOI: 10.1039/C2ce06620c
Adsorbate Carbon Dioxide: InChIKey CURLTUGMZLYLDI-UHFFFAOYSA-N
Temperature: 298 K
Tabular data in the source: 0
pressure (bar)	uptake (wt%)
0.0175953	0.528845
0.026393	0.817267
0.0439883	1.15411
0.058651	1.63482
0.0762463	2.01966
0.0967742	2.45265
0.152493	3.41532
0.199413	4.18557
0.246334	4.76382
0.296188	5.39022
0.346041	5.96861
0.395894	6.451
0.445748	6.9334
0.492669	7.51165
0.542522	7.89804
0.595308	8.38057
0.639296	8.81469
0.692082	9.24922
0.741935	9.53961
0.791789	9.92601
0.83871	10.3603
0.888563	10.6027
0.941349	10.9412
0.991202	11.2316
