Adsorption isotherm of Carbon Dioxide on CAU-1-NHCOCH3
DOI: 10.1039/C2ce06620c
Adsorbate Carbon Dioxide: InChIKey CURLTUGMZLYLDI-UHFFFAOYSA-N
Temperature: 298 K
Tabular data in the source: 0
pressure (bar)	uptake (wt%)
0.0439883	0.626111
0.0645161	0.915097
0.0791789	1.1078
0.102639	1.39693
0.14956	1.83118
0.196481	2.36143
0.249267	2.84396
0.29912	3.23036
0.348974	3.66475
0.398827	4.00314
0.44868	4.34154
0.495601	4.67979
0.542522	4.97004
0.59824	5.35672
0.642229	5.59883
0.692082	5.88922
0.741935	6.13161
0.791789	6.37401
0.83871	6.66426
0.891496	6.90679
0.941349	7.14918
0.991202	7.39158
