Adsorption isotherm of Water on CAU-1-NHCOCH3
DOI: 10.1039/C2ce06620c
Adsorbate Water: InChIKey XLYOFNOQVPJJNP-UHFFFAOYSA-N
Temperature: 298 K
Tabular data in the source: 0
pressure (bar)	uptake (cm3(STP)/g)
0.000957835	27.8761
0.00181989	37.1681
0.00258616	49.5575
0.00325664	61.9469
0.00421448	74.3363
0.00488496	80.531
0.00565123	89.823
0.00632171	102.212
0.0069922	111.504
0.00766268	123.894
0.00833317	136.283
0.0087163	145.575
0.00919522	161.062
0.00957835	167.257
0.0100573	179.646
0.0103446	192.035
0.0108235	198.23
0.0112067	207.522
0.0123561	232.301
0.0133139	241.593
0.0155169	263.274
0.0167621	269.469
0.0186778	281.858
0.0204019	284.956
0.0218386	291.15
0.023467	300.442
0.0247122	303.54
0.0258616	309.735
0.0261489	309.735
0.0282561	325.221
