Adsorption isotherm of Water on CAU-1-NHCH3
DOI: 10.1039/C2ce06620c
Adsorbate Water: InChIKey XLYOFNOQVPJJNP-UHFFFAOYSA-N
Temperature: 298 K
Tabular data in the source: 0
pressure (bar)	uptake (cm3(STP)/g)
0.00181989	34.0708
0.00316086	37.1681
0.00459761	46.4602
0.00622593	52.6549
0.00766268	61.9469
0.00900365	77.4336
0.009291	83.6283
0.00976992	96.0177
0.0101531	108.407
0.0103446	117.699
0.0107278	145.575
0.0108235	126.991
0.0111109	164.159
0.0113025	188.938
0.011494	216.814
0.0116856	241.593
0.0117814	272.566
0.0118772	294.248
0.0119729	319.027
0.0121645	368.584
0.0123561	387.168
0.0125476	415.044
0.012835	449.115
0.0130266	483.186
0.0133139	511.062
0.0136013	535.841
0.014176	551.327
0.0145591	569.912
0.0152296	576.106
0.0165706	588.496
0.0170495	594.69
0.0198272	607.08
0.0215513	619.469
0.022988	625.664
0.0244248	638.053
0.0258616	647.345
0.0279688	669.027
0.0282561	690.708
