Adsorption isotherm of Nitrogen on CAU-1-NHCH3
DOI: 10.1039/C2ce06620c
Adsorbate Nitrogen: InChIKey IJGRMHOSHXDMSA-UHFFFAOYSA-N
Temperature: 77 K
Tabular data in the source: 0
pressure (bar)	uptake (cm3(STP)/g)
0.00169214	295.217
0.00204839	210
0.0027227	48.6957
0.00737928	334.783
0.0219343	353.043
0.0540723	365.217
0.103768	377.391
0.159354	380.435
0.212014	383.478
0.255896	386.522
0.302703	389.565
0.352424	395.652
0.402171	395.652
0.448978	398.696
0.498712	401.739
0.548458	401.739
0.592327	407.826
0.642073	407.826
0.688881	410.87
0.735663	420
0.782458	426.087
0.805843	432.174
0.829227	438.261
0.846734	450.435
0.867154	465.652
0.875882	477.826
0.884584	496.087
0.896162	526.522
0.904839	550.87
0.910501	596.522
0.910565	581.304
0.916214	630
0.924903	651.304
0.927728	675.652
0.948186	681.739
0.962805	684.783
