Adsorption isotherm of Carbon Dioxide on CAU-1-NH2
DOI: 10.1039/C2ce06620c
Adsorbate Carbon Dioxide: InChIKey CURLTUGMZLYLDI-UHFFFAOYSA-N
Temperature: 298 K
Tabular data in the source: 0
pressure (bar)	uptake (wt%)
0.0175953	0.192845
0.0410557	0.337971
0.058651	0.626815
0.0821114	0.771941
0.0967742	0.964645
0.14956	1.54318
0.199413	2.02557
0.246334	2.41182
0.296188	2.84622
0.343109	3.18447
0.395894	3.523
0.442815	3.90926
0.492669	4.24765
0.542522	4.53804
0.592375	4.87643
0.642229	5.21483
0.692082	5.45722
0.739003	5.74747
0.788856	6.03787
0.841642	6.2804
0.891496	6.57079
0.941349	6.86118
0.991202	7.10358
