Adsorption isotherm of Nitrogen on CAU-1-NHCOCH3
DOI: 10.1039/C2ce06620c
Adsorbate Nitrogen: InChIKey IJGRMHOSHXDMSA-UHFFFAOYSA-N
Temperature: 77 K
Tabular data in the source: 0
pressure (bar)	uptake (cm3(STP)/g)
0.00273542	45.6522
0.00282448	24.3478
0.00531817	127.826
0.0110562	155.217
0.037329	170.435
0.0753577	173.478
0.133858	179.565
0.186518	182.609
0.233325	185.652
0.280145	185.652
0.332805	188.696
0.376687	191.739
0.42642	194.783
0.473241	194.783
0.520061	194.783
0.593192	200.87
0.637086	200.87
0.689746	203.913
0.736554	206.957
0.774557	216.087
0.800906	213.043
0.833069	219.13
0.850602	225.217
0.873986	231.304
0.894407	246.522
0.90601	270.87
0.923478	292.174
0.932079	334.783
0.937715	386.522
0.943364	435.217
0.9461	480.87
0.948682	563.043
0.948835	526.522
0.963225	584.348
