Adsorption isotherm of Water on CAU-1-NH2
DOI: 10.1039/C2ce06620c
Adsorbate Water: InChIKey XLYOFNOQVPJJNP-UHFFFAOYSA-N
Temperature: 298 K
Tabular data in the source: 0
pressure (bar)	uptake (cm3(STP)/g)
0.000862052	6.19469
0.00191567	9.29204
0.00363977	15.4867
0.00478918	15.4867
0.00670485	27.8761
0.00804582	30.9735
0.00957835	34.0708
0.0107278	49.5575
0.0115898	58.8496
0.0121645	80.531
0.0125476	102.212
0.0129308	133.186
0.0133139	164.159
0.0137928	204.425
0.014176	232.301
0.0146549	275.664
0.0152296	306.637
0.0158043	331.416
0.0161874	356.195
0.0168579	380.973
0.01772	405.752
0.0184862	427.434
0.0204977	452.212
0.0214555	455.31
0.023467	464.602
0.0242332	470.796
0.0249037	470.796
0.0261489	476.991
0.0283519	489.381
