Adsorption isotherm of Nitrogen on CAU-1-NH2
DOI: 10.1039/C2ce06620c
Adsorbate Nitrogen: InChIKey IJGRMHOSHXDMSA-UHFFFAOYSA-N
Temperature: 77 K
Tabular data in the source: 0
pressure (bar)	uptake (cm3(STP)/g)
0.00171759	289.13
0.00188299	249.565
0.00216289	182.609
0.00282448	24.3478
0.0104073	310.435
0.0220615	322.609
0.0425072	331.739
0.0834622	334.783
0.10686	337.826
0.127343	337.826
0.153667	340.87
0.18293	340.87
0.229737	343.913
0.276545	346.957
0.299968	343.913
0.349701	346.957
0.396522	346.957
0.449207	343.913
0.493101	343.913
0.539921	343.913
0.59552	343.913
0.642341	343.913
0.689161	343.913
0.738907	343.913
0.785728	343.913
0.835474	343.913
0.879343	350
0.946596	362.174
0.961036	407.826
