Adsorption isotherm of Argon on NUS-1a
DOI: 10.1021/Ja502643p
Adsorbate Argon: InChIKey XKRFYHLGVUSROY-UHFFFAOYSA-N
Temperature: 77 K
Tabular data in the source: 0
pressure (bar)	uptake (cm3(STP)/g)
0.0156221	365.032
0.0472234	374.012
0.080744	388.41
0.0847388	411.897
0.0849173	426.355
0.0869928	444.423
0.087149	457.073
0.0891799	471.528
0.0894254	491.407
0.0895593	502.25
0.102659	513.07
0.123237	529.298
0.141871	538.301
0.167848	541.869
0.193848	547.245
0.219848	552.62
0.245802	554.381
0.286554	554.308
0.327372	559.657
0.362634	565.016
0.392272	564.963
0.431193	566.701
0.462749	572.066
0.488705	573.827
0.540548	571.927
0.586923	577.266
0.638833	580.788
0.683267	578.902
0.733347	584.234
