Adsorption isotherm of Oxygen on NUS-1a
DOI: 10.1021/Ja502643p
Adsorbate Oxygen: InChIKey MYMOFIZGZYHOMD-UHFFFAOYSA-N
Temperature: 77 K
Tabular data in the source: 0
pressure (bar)	uptake (cm3(STP)/g)
0.00111558	314.448
0.00841242	352.332
0.0142508	383.002
0.0182486	397.423
0.0240262	402.792
0.0284538	446.125
0.0287228	408.17
0.0299818	482.255
0.0304027	507.553
0.0322866	541.873
0.0341488	567.157
0.037461	596.042
0.0457561	599.58
0.0558615	606.717
0.0659451	604.817
0.0764107	611.95
0.0919073	613.615
0.10453	618.921
0.118221	618.795
0.1312	622.291
