Adsorption isotherm of Oxygen on NUS-1a
DOI: 10.1021/Ja502643p
Adsorbate Oxygen: InChIKey MYMOFIZGZYHOMD-UHFFFAOYSA-N
Temperature: 87 K
Tabular data in the source: 0
pressure (bar)	uptake (cm3(STP)/g)
0.00170445	45.1764
0.0018307	59.6339
0.00202008	81.3202
0.00342468	92.16
0.00381922	137.34
0.00400861	159.026
0.00493974	115.65
0.00686513	186.127
0.00894831	274.676
0.0110947	220.454
0.0126571	249.366
0.0196958	305.372
0.0382553	330.626
0.0698822	352.233
0.106701	368.406
0.138218	377.362
0.150039	380.947
0.153053	426.12
0.153305	455.035
0.160139	487.548
0.164258	509.224
0.175021	541.727
0.193549	563.367
0.239459	570.48
0.26703	577.64
0.303739	581.162
0.329952	582.903
0.369265	584.611
0.40206	589.95
0.447922	591.641
0.501691	598.735
0.551499	602.223
0.624869	603.846
