Adsorption isotherm of Nitrogen on NUS-1a
DOI: 10.1021/Ja502643p
Adsorbate Nitrogen: InChIKey IJGRMHOSHXDMSA-UHFFFAOYSA-N
Temperature: 77 K
Tabular data in the source: 0
pressure (bar)	uptake (cm3(STP)/g)
0.0425609	294.499
0.0568335	299.894
0.0711061	305.289
0.0888881	307.064
0.111998	308.828
0.12978	310.602
0.147541	310.569
0.165301	310.536
0.190187	312.297
0.207968	314.071
0.22573	314.038
0.24349	314.005
0.26125	313.972
0.279011	313.939
0.296771	313.906
0.314596	319.294
0.332356	319.261
0.350117	319.228
0.367878	319.195
0.385638	319.162
0.40342	320.936
0.419703	346.207
0.421202	322.71
0.434255	375.096
0.437999	391.354
0.447029	403.988
0.454262	414.818
0.461537	429.262
0.470567	441.896
0.477822	454.533
0.486851	467.167
0.49939	476.179
0.515418	479.764
0.531466	485.156
0.563543	494.132
0.586716	501.318
0.59198	495.887
0.602658	497.674
0.611517	495.85
0.643529	499.405
0.664927	506.594
0.677274	499.343
0.684463	506.558
0.69681	499.306
0.712794	499.276
0.712987	515.541
0.72895	513.704
0.746539	499.214
0.764321	500.988
0.821219	506.304
0.833587	500.859
0.885114	502.57
0.899322	502.544
0.915264	498.9
