Adsorption isotherm of Carbon Dioxide on NUS-1a
DOI: 10.1021/Ja502643p
Adsorbate Carbon Dioxide: InChIKey CURLTUGMZLYLDI-UHFFFAOYSA-N
Temperature: 195 K
Tabular data in the source: 0
pressure (bar)	uptake (cm3(STP)/g)
0.00205296	12.647
0.0078925	25.2874
0.0480165	54.1331
0.0727661	64.9333
0.0804078	70.3416
0.0844908	93.8285
0.0866122	111.897
0.0869088	135.391
0.0891442	162.495
0.0931361	178.753
0.159675	200.324
0.235521	209.228
0.294327	218.161
0.381532	227.045
0.411802	225.185
0.442163	230.554
0.464928	234.128
0.489792	253.965
0.50512	268.396
0.52606	277.395
0.563995	282.751
0.643581	288.034
0.692875	293.369
0.745979	300.505
0.785692	296.822
