Adsorption isotherm of Argon on NUS-1a
DOI: 10.1021/Ja502643p
Adsorbate Argon: InChIKey XKRFYHLGVUSROY-UHFFFAOYSA-N
Temperature: 87 K
Tabular data in the source: 0
pressure (bar)	uptake (cm3(STP)/g)
0.0449995	312.568
0.0647759	316.146
0.08278	321.534
0.10796	326.91
0.140294	330.465
0.176259	337.627
0.182181	382.797
0.184299	409.902
0.189919	429.771
0.200985	455.052
0.217648	498.394
0.241207	518.23
0.27004	529.021
0.306005	536.183
0.343743	541.536
0.386883	548.685
0.42996	550.413
0.483777	550.314
0.541226	553.823
0.604057	557.321
0.679509	566.218
0.727946	566.129
0.803269	564.183
