Adsorption isotherm of Carbon Dioxide on {Zn(L1)] DMF) infinity
DOI: 10.1039/C4ra07128j
Adsorbate Carbon Dioxide: InChIKey CURLTUGMZLYLDI-UHFFFAOYSA-N
Temperature: 273 K
Tabular data in the source: 0
pressure (bar)	uptake (cm3(STP)/g)
0.00836737	0.696306
0.018876	1.33412
0.0273302	1.62344
0.0525807	3.01466
0.0799974	4.2311
0.103218	5.15754
0.130709	6.02514
0.153954	6.83529
0.187858	7.58556
0.211103	8.39571
0.232269	8.97364
0.266209	9.54949
0.295902	10.0679
0.319198	10.6455
0.344672	10.9901
0.367966	11.5677
0.397698	11.9117
0.425262	12.4305
0.450748	12.717
0.478326	13.1776
0.499542	13.523
0.522924	13.6936
0.556888	14.1531
0.580244	14.44
0.60573	14.7265
0.635461	15.0705
0.663076	15.3567
0.697065	15.7
0.716202	15.8131
0.745933	16.1571
0.771407	16.5018
0.799034	16.7298
0.824532	16.9582
0.850005	17.3029
0.877657	17.4146
0.901002	17.7596
0.93077	17.9292
0.956268	18.1576
0.981754	18.4441
1.00725	18.6725
1.03701	18.9002
