Adsorption isotherm of Nitrogen on {Zn(L1)] DMF) infinity
DOI: 10.1039/C4ra07128j
Adsorbate Nitrogen: InChIKey IJGRMHOSHXDMSA-UHFFFAOYSA-N
Temperature: 77 K
Tabular data in the source: 0
pressure (bar)	uptake (cm3(STP)/g)
0.340549	0.351286
0.434224	0.335968
0.553409	0.490896
0.65133	0.533022
0.710916	0.639557
0.78116	0.68621
0.847134	0.7917
0.91099	0.839397
0.970578	0.945932
1.00464	0.940361
1.01742	0.938272
