Adsorption isotherm of Nitrogen on {Zn(L1)] DMF) infinity
DOI: 10.1039/C4ra07128j
Adsorbate Nitrogen: InChIKey IJGRMHOSHXDMSA-UHFFFAOYSA-N
Temperature: 77 K
Tabular data in the source: 0
pressure (bar)	uptake (cm3(STP)/g)
0.0149152	-0.0605786
0.0297933	0.0532674
0.0446713	0.167113
0.0574451	0.165025
0.0723481	0.162587
0.0851218	0.160499
0.102154	0.157713
0.117057	0.155276
0.131947	0.210981
0.148978	0.208196
0.163881	0.205758
0.197933	0.25833
0.229854	0.311249
0.266035	0.363472
0.295865	0.242315
0.325671	0.23744
0.359697	0.406295
0.389491	0.459562
0.41931	0.396546
0.451231	0.449466
0.506597	0.382272
0.534261	0.435888
0.572582	0.429621
0.600247	0.483236
0.63431	0.477666
0.670478	0.58803
0.698155	0.583505
0.734348	0.577586
0.764153	0.572712
0.796063	0.683773
0.827985	0.736692
0.85565	0.790307
0.889713	0.784737
0.92801	0.894753
0.955687	0.890227
0.991842	1.05873
