Adsorption isotherm of Carbon Dioxide on {Zn(L1)] DMF) infinity
DOI: 10.1039/C4ra07128j
Adsorbate Carbon Dioxide: InChIKey CURLTUGMZLYLDI-UHFFFAOYSA-N
Temperature: 273 K
Tabular data in the source: 0
pressure (bar)	uptake (cm3(STP)/g)
0.0208936	1.85705
0.0419235	3.07454
0.0671741	4.46576
0.0924867	5.56627
0.117812	6.60864
0.143199	7.3603
0.168573	8.17011
0.196088	8.92142
0.225757	9.5561
0.251182	10.1333
0.278734	10.7102
0.30203	11.2878
0.32749	11.6906
0.357185	12.209
0.382622	12.7281
0.410212	13.1306
0.435684	13.4753
0.465416	13.8192
0.488748	14.2224
0.512105	14.5093
0.539708	14.8536
0.565194	15.1401
0.594936	15.426
0.624669	15.7699
0.654425	15.9976
0.679911	16.2842
0.707538	16.5122
0.730881	16.8572
0.754251	17.086
0.78189	17.2559
0.809529	17.4258
0.835029	17.6541
0.862668	17.824
0.888166	18.0524
0.913677	18.2227
0.937058	18.3933
0.971072	18.6203
1.00509	18.8473
1.03274	18.959
1.06039	19.0708
