Adsorption isotherm of Nitrogen on C50H22Cu3O15
DOI: 10.1002/cplu.201500104
Article source: Figure 3
Adsorbate Nitrogen: InChIKey IJGRMHOSHXDMSA-UHFFFAOYSA-N
Kind: experiment
Temperature: 298 K
Tabular data in the source: 0
pressure (bar)	uptake (cm3(STP)/g)
0.003949	0.015385
0.005923	0.020513
0.008336	0.030769
0.010311	0.030769
0.020622	0.076923
0.026106	0.097436
0.037953	0.138462
0.048263	0.179487
0.059013	0.220513
0.083364	0.328205
0.09894	0.405128
0.107934	0.446154
