Adsorption isotherm of Nitrogen on C50H22Cu3O15
DOI: 10.1002/cplu.201500104
Article source: Figure 2
Adsorbate Nitrogen: InChIKey IJGRMHOSHXDMSA-UHFFFAOYSA-N
Kind: experiment
Temperature: 273 K
Tabular data in the source: 0
pressure (bar)	uptake (cm3(STP)/g)
0.085149	1.28108
0.108911	1.28609
0.132673	1.29109
0.142574	1.5037
0.158416	1.29651
0.182178	1.51204
0.194059	1.72507
0.207921	1.93851
0.233663	2.15446
0.249505	1.94726
0.255446	2.15904
0.283168	2.58593
0.291089	2.37707
0.314851	2.5926
0.334653	3.22835
0.344554	3.23043
0.354455	2.81146
0.382178	3.02783
0.394059	3.24085
0.40198	3.24252
0.435644	3.67066
0.443564	3.67233
0.457426	3.88577
0.483168	3.89119
0.49505	4.10422
0.50297	4.10589
0.530693	4.32225
0.538614	4.32392
0.558416	4.53861
0.580198	4.75373
0.592079	4.75623
0.605941	4.96967
0.633663	5.18603
0.639604	5.18729
0.657426	5.40156
0.679208	5.61668
0.689109	5.40823
0.706931	5.62251
0.730693	5.83804
0.740594	5.84013
0.758416	6.26493
0.784158	6.27035
0.794059	6.06191
0.807921	6.48588
0.833663	6.4913
0.841584	6.49297
0.853465	6.70599
0.881188	6.92236
0.89901	6.92611
0.912871	6.92903
0.938614	7.14497
0.950495	7.14747
0.962376	7.57103
0.974257	7.78405
0.982178	7.99625
0.99604	8.20969
