Adsorption isotherm of Methane on C50H22Cu3O15
DOI: 10.1002/cplu.201500104
Article source: Figure 2
Adsorbate Methane: InChIKey VNWKTOKETHGBQD-UHFFFAOYSA-N
Kind: experiment
Temperature: 273 K
Tabular data in the source: 0
pressure (bar)	uptake (cm3(STP)/g)
0.055446	1.48536
0.065347	1.48744
0.083168	2.3333
0.095049	2.3358
0.110891	2.97071
0.124752	3.18416
0.138614	3.81866
0.150495	4.03168
0.182178	4.66993
0.19604	4.67285
0.2	4.88421
0.231683	5.73299
0.245545	6.36748
0.255446	6.36957
0.281188	6.79604
0.293069	7.21959
0.310891	7.43387
0.334653	8.07045
0.340594	8.28223
0.350495	8.28431
0.388119	9.34487
0.39802	9.55748
0.409901	9.98103
0.431683	10.4067
0.449505	10.8315
0.459406	11.2546
0.475248	11.679
0.489109	12.103
0.50297	12.3164
0.526733	12.5319
0.540594	12.7454
0.556436	13.1698
0.582178	13.8068
0.59604	14.0202
0.611881	14.4446
0.631683	14.6593
0.643564	14.8723
0.651485	14.874
0.681188	15.9329
0.689109	16.1451
0.70099	16.1476
0.732673	17.2069
0.744554	17.4199
0.754455	17.422
0.778218	18.0586
0.792079	18.0615
0.807921	18.4859
0.827723	18.9111
0.839604	18.9136
0.851485	19.1266
0.873267	19.9733
0.891089	20.3981
0.90297	20.4006
0.928713	21.0376
0.952475	21.2532
0.962376	21.6763
0.974257	21.8893
