Adsorption isotherm of Nitrogen on C50H22Cu3O15
DOI: 10.1002/cplu.201500104
Article source: Figure 3
Adsorbate Nitrogen: InChIKey IJGRMHOSHXDMSA-UHFFFAOYSA-N
Kind: experiment
Temperature: 273 K
Tabular data in the source: 0
pressure (bar)	uptake (cm3(STP)/g)
0.004573	0.000441
0.005879	0.023703
0.008492	0.035523
0.010668	0.070437
0.020247	0.152337
0.026561	0.176082
0.037445	0.292813
0.048549	0.351724
0.058562	0.456802
0.082727	0.644222
0.098184	0.772961
0.10711	0.84323
