Adsorption isotherm of Nitrogen on C50H22Cu3O15
DOI: 10.1002/cplu.201500104
Article source: Figure 2
Adsorbate Nitrogen: InChIKey IJGRMHOSHXDMSA-UHFFFAOYSA-N
Kind: experiment
Temperature: 298 K
Tabular data in the source: 0
pressure (bar)	uptake (cm3(STP)/g)
0.011881	-0.208025
0.023762	-0.205524
0.033663	0.217613
0.041584	0.219281
0.057426	0.643669
0.083168	0.438562
0.093069	0.019593
0.10099	0.863366
0.132673	0.870036
0.142574	0.661595
0.162376	1.08682
0.186139	1.09182
0.19604	1.0939
0.209901	1.09682
0.235644	1.10224
0.245545	1.10433
0.255446	1.10641
0.283168	1.5333
0.29703	1.53622
0.310891	1.53913
0.336634	1.54455
0.350495	1.54747
0.356436	1.54872
0.388119	1.55539
0.39604	1.55706
0.40396	1.55873
0.427723	1.98478
0.445545	1.98854
0.461386	1.78134
0.479208	1.7851
0.491089	1.7876
0.508911	1.79135
0.530693	2.21699
0.546535	2.22032
0.560396	2.22324
0.578218	2.64805
0.59604	2.86232
0.605941	2.86441
0.629703	2.65888
0.643564	2.6618
0.655446	2.6643
0.681188	3.09078
0.693069	3.3038
0.70099	3.30547
0.728713	3.31131
0.742574	3.31423
0.758416	3.31756
0.776238	3.53184
0.792079	3.7457
0.807921	3.74904
0.823762	3.75237
0.839604	3.75571
0.857426	3.75946
0.881188	3.76446
0.889109	3.76613
0.914851	3.77155
0.932673	3.7753
0.950495	3.98958
0.958416	4.20177
0.970297	4.4148
0.978218	4.41647
0.982178	4.4173
0.988119	4.20803
0.99802	4.21011
