Adsorption isotherm of Nitrogen on C50H22Cu3O15
DOI: 10.1002/cplu.201500104
Article source: Figure 2
Adsorbate Nitrogen: InChIKey IJGRMHOSHXDMSA-UHFFFAOYSA-N
Kind: experiment
Temperature: 298 K
Tabular data in the source: 0
pressure (bar)	uptake (cm3(STP)/g)
0.019802	1.47785
0.021782	4.84669
0.029703	2.11152
0.031683	2.32246
0.041584	3.16665
0.051485	4.01084
0.077228	5.27942
0.089109	6.12402
0.09901	9.91558
0.10495	6.96946
0.126733	8.44773
0.152475	9.92684
0.174257	11.4051
0.19802	15.4101
0.20198	12.6741
0.225743	13.9423
0.249505	17.9473
0.251485	15.4214
0.277228	16.4794
0.29901	17.9577
0.324752	19.2263
0.348515	23.2313
0.350495	20.2843
0.374257	21.3419
0.4	25.3474
0.40198	22.6109
0.425743	23.8791
0.449505	27.4631
0.451485	24.9372
0.475248	26.2053
0.49901	27.2629
0.50099	29.7897
0.526733	28.3214
0.546535	31.9045
0.550495	29.5896
0.574257	30.6472
0.59802	34.0206
0.60198	31.7057
0.623762	32.7629
0.645545	35.7149
0.651485	34.2424
0.675248	34.879
0.69703	37.831
0.69901	35.9366
0.724752	36.7842
0.746535	39.5256
0.750495	37.8422
0.774257	39.1104
0.8	39.9579
0.827723	41.2269
0.847525	42.7047
0.849505	41.6525
0.873267	42.4996
0.89505	44.1884
0.90099	43.5581
0.924752	44.6157
0.950495	45.6738
0.958416	45.6755
0.974257	46.3104
0.980198	46.9432
0.990099	46.7348
