Adsorption isotherm of Hydrogen on C50H22Cu3O15
DOI: 10.1002/cplu.201500104
Article source: Figure 2
Adsorbate Hydrogen: InChIKey UFHFLCQGNIYNRP-UHFFFAOYSA-N
Kind: experiment
Temperature: 77 K
Tabular data in the source: 0
pressure (bar)	uptake (cm3(STP)/g)
0.008209	8.64722
0.020578	16.2745
0.024696	19.3259
0.028819	21.8683
0.035001	25.9364
0.04946	32.0359
0.068038	41.1867
0.084561	48.303
0.092834	50.8433
0.103181	53.3826
0.123875	58.4611
0.148671	68.1177
0.175584	73.702
0.202476	81.3219
0.227314	86.9072
0.252142	93.5104
0.268703	97.0643
0.291482	101.124
0.299765	102.646
0.322555	105.688
0.343255	110.258
0.347388	111.782
0.368098	115.334
0.388808	118.886
0.401241	120.406
0.413668	122.436
0.450965	126.997
0.471685	129.531
0.494465	133.591
0.523474	137.138
0.546264	140.18
0.571128	143.221
0.591854	145.246
0.622938	148.792
0.643658	151.326
0.674747	154.364
0.695468	156.898
0.724482	159.937
0.745203	162.471
0.751421	162.976
0.770078	164.494
0.792873	167.027
0.799087	168.041
0.821893	169.556
0.838474	171.075
0.842624	171.072
0.871643	173.602
0.896518	175.625
0.921388	178.157
0.944189	180.181
0.971144	181.694
0.981502	183.216
0.989795	183.72
