Adsorption isotherm of Carbon Dioxide on C50H22Cu3O15
DOI: 10.1002/cplu.201500104
Article source: Figure 3
Adsorbate Carbon Dioxide: InChIKey CURLTUGMZLYLDI-UHFFFAOYSA-N
Kind: experiment
Temperature: 273 K
Tabular data in the source: 0
pressure (bar)	uptake (cm3(STP)/g)
0.0041	0.77546
0.00626	1.15742
0.008202	1.52778
0.010145	1.88658
0.021806	3.9237
0.025268	4.39832
