Adsorption isotherm of Methane on C50H22Cu3O15
DOI: 10.1002/cplu.201500104
Article source: Figure 2
Adsorbate Methane: InChIKey VNWKTOKETHGBQD-UHFFFAOYSA-N
Kind: experiment
Temperature: 293 K
Tabular data in the source: 0
pressure (bar)	uptake (cm3(STP)/g)
0.10495	1.49578
0.122772	2.13111
0.138614	2.13445
0.160396	2.56008
0.182178	2.56467
0.192079	2.56675
0.207921	2.99114
0.229703	3.41678
0.245545	3.63064
0.255446	3.84325
0.277228	4.05836
0.291089	4.06128
0.306931	4.27514
0.334653	4.49151
0.346535	4.70453
0.354455	4.7062
0.386139	5.34445
0.394059	5.34612
0.407921	5.55956
0.427723	5.56373
0.445545	5.98854
0.457426	6.41209
0.475248	6.41584
0.491089	6.6297
0.50297	6.6322
0.532673	6.84898
0.542574	7.06159
0.552475	7.27421
0.584158	7.70193
0.594059	7.70401
0.607921	7.91746
0.629703	8.3431
0.643564	8.34601
0.657426	8.34893
0.679208	8.77457
0.691089	9.19812
0.70495	8.99052
0.730693	9.62751
0.742574	9.63002
0.764356	10.2662
0.782178	10.4805
0.792079	10.4825
0.807921	10.4859
0.829703	10.701
0.839604	10.7031
0.855446	11.1275
0.865347	11.1295
0.875248	11.1316
0.889109	11.5556
0.90099	11.9792
0.928713	11.985
0.942574	11.9879
0.960396	12.2022
0.976238	12.4161
