Adsorption isotherm of Hydrogen on C50H22Cu3O15
DOI: 10.1002/cplu.201500104
Article source: Figure 2
Adsorbate Hydrogen: InChIKey UFHFLCQGNIYNRP-UHFFFAOYSA-N
Kind: experiment
Temperature: 87 K
Tabular data in the source: 0
pressure (bar)	uptake (cm3(STP)/g)
0.004123	2.54243
0.006182	4.0681
0.022748	7.11311
0.031026	9.14452
0.039298	11.6848
0.045511	12.6995
0.078622	20.8251
0.0869	22.8565
0.099327	24.8858
0.117973	27.4209
0.14695	34.0219
0.171815	37.0627
0.194594	41.1223
0.221534	44.1621
0.248462	48.2196
0.271252	51.2614
0.300251	55.8268
0.325115	58.8676
0.347906	61.9095
0.376925	64.4392
0.395571	66.9743
0.424585	70.0129
0.4453	73.0558
0.472245	75.5866
0.49919	78.1175
0.52614	80.1394
0.54893	83.1812
0.569661	84.6974
0.596611	86.7193
0.619401	89.7611
0.646346	92.2919
0.671226	93.806
0.698171	96.3368
0.725115	98.8676
0.745847	100.384
0.770727	101.898
0.78316	103.418
0.801827	103.918
0.826707	105.432
0.845358	107.458
0.874383	109.479
0.899264	110.993
0.922059	113.526
0.949025	114.021
0.97182	116.554
0.982193	116.549
0.994636	117.051
