Adsorption isotherm of Carbon Dioxide on C50H22Cu3O15
DOI: 10.1002/cplu.201500104
Article source: Figure 3
Adsorbate Carbon Dioxide: InChIKey CURLTUGMZLYLDI-UHFFFAOYSA-N
Kind: experiment
Temperature: 298 K
Tabular data in the source: 0
pressure (bar)	uptake (cm3(STP)/g)
0.004168	0.297436
0.006143	0.441026
0.008336	0.594872
0.009872	0.738462
0.020183	1.49744
0.025009	1.87692
