Adsorption isotherm of Nitrogen on C50H22Cu3O15
DOI: 10.1002/cplu.201500104
Article source: Figure 2
Adsorbate Nitrogen: InChIKey IJGRMHOSHXDMSA-UHFFFAOYSA-N
Kind: experiment
Temperature: 273 K
Tabular data in the source: 0
pressure (bar)	uptake (cm3(STP)/g)
0.021782	6.5309
0.033663	6.5334
0.049505	10.7473
0.053465	8.22178
0.067327	10.9615
0.087129	13.2815
0.095049	17.4937
0.10099	15.1792
0.126733	17.5004
0.146535	22.3466
0.148515	19.8207
0.170297	22.3516
0.19604	24.8834
0.221782	27.2046
0.247525	31.8416
0.279208	32.2693
0.29505	33.9569
0.29901	36.9051
0.324752	36.2789
0.348515	41.126
0.350495	38.1791
0.372277	40.0784
0.394059	44.504
0.40198	41.9794
0.423762	43.8787
0.453465	45.9902
0.473267	47.2575
0.49901	49.7893
0.50099	52.1055
0.520792	51.057
0.550495	52.958
0.554455	55.4851
0.574257	54.2262
0.6	58.2316
0.60198	56.5478
0.627723	58.2374
0.647525	59.2942
0.653465	61.8218
0.673267	61.1944
0.69901	64.7787
0.70297	63.0954
0.724752	64.5736
0.750495	66.0527
0.752475	67.5268
0.772277	67.11
0.8	69.0105
0.80198	70.2741
0.823762	70.4892
0.845545	73.2306
0.849505	71.9683
0.871287	73.6571
0.89703	76.1888
0.89901	75.1366
0.922772	76.1943
0.950495	77.8843
0.954455	77.8851
0.978218	79.5744
0.980198	79.7853
0.992079	79.9983
