Adsorption isotherm of Nitrogen on C50H22Cu3O15
DOI: 10.1002/cplu.201500104
Article source: Figure 2
Adsorbate Nitrogen: InChIKey IJGRMHOSHXDMSA-UHFFFAOYSA-N
Kind: experiment
Temperature: 77 K
Tabular data in the source: 0
pressure (bar)	uptake (cm3(STP)/g)
0	3.37079
0.001173	232.584
0.001195	225.843
0.001227	215.73
0.001238	212.36
0.001259	205.618
0.001308	190.449
0.001345	178.652
0.001399	161.798
0.001517	124.719
0.00155	114.607
0.001566	109.551
0.002906	289.888
0.002981	266.292
0.003546	89.3258
0.004746	313.483
0.006517	358.989
0.006554	347.191
0.006613	328.652
0.008411	365.73
0.010273	382.584
0.010305	372.472
0.017699	456.742
0.025302	475.281
0.032879	502.247
0.038599	510.674
0.048156	517.416
0.059618	527.528
0.063439	530.899
0.069181	532.584
0.074917	535.955
0.086395	541.011
0.095958	546.067
0.10361	549.438
0.117009	552.809
0.126582	554.494
0.136155	556.18
0.147644	557.865
0.157217	559.551
0.172532	562.921
0.182111	562.921
0.1936	564.607
0.201257	566.292
0.222324	567.978
0.249134	571.348
0.277858	574.719
0.297016	574.719
0.306594	574.719
0.320004	574.719
0.329583	574.719
0.344903	576.404
0.35256	578.09
0.371712	579.775
0.379375	579.775
0.396616	579.775
0.402363	579.775
0.419605	579.775
0.427268	579.775
0.442588	581.461
0.457908	583.146
0.469402	583.146
0.478976	584.831
0.496212	586.517
0.509622	586.517
0.517284	586.517
0.526863	586.517
0.544104	586.517
0.557509	588.202
0.569003	588.202
0.582413	588.202
0.591992	588.202
0.607317	588.202
0.622643	588.202
0.6303	589.888
0.643705	591.573
0.653284	591.573
0.670525	591.573
0.683935	591.573
0.695429	591.573
0.706923	591.573
0.720333	591.573
0.727991	593.258
0.745232	593.258
0.756727	593.258
0.766305	593.258
0.777799	593.258
0.79312	594.944
0.80653	594.944
0.816108	594.944
0.833344	596.629
0.844838	596.629
0.854417	596.629
0.869743	596.629
0.879316	598.315
0.892726	598.315
0.908051	598.315
0.91572	596.629
0.923382	596.629
0.942534	598.315
0.957854	600
0.967433	600
0.975096	600
0.990427	598.315
