Adsorption isotherm of Hydrogen on MOF-505
DOI: 10.1021/Jp055908w
Adsorbate Hydrogen: InChIKey UFHFLCQGNIYNRP-UHFFFAOYSA-N
Temperature: 77 K
Tabular data in the source: 0
pressure (bar)	uptake (wt%)
0.237717	1.26785
0.263301	0.543317
0.278225	0.120671
0.50848	1.59985
1.04148	2.50535
1.04894	2.29402
1.58833	3.01839
2.70443	3.4105
5.51013	3.95305
7.48329	4.07321
12.2728	4.43403
15.3759	4.55385
19.6101	4.64314
23.8453	4.70224
31.4661	4.88107
41.915	4.96848
52.3638	5.05589
62.8138	5.11311
71.5699	5.14066
80.326	5.1682
88.7975	5.25621
95.5772	5.25417
