Adsorption isotherm of Hydrogen on MOF-505
DOI: 10.1021/Jp055908w
Adsorbate Hydrogen: InChIKey UFHFLCQGNIYNRP-UHFFFAOYSA-N
Temperature: 77 K
Tabular data in the source: 0
pressure (bar)	uptake (wt%)
0.0113012	0.0923077
0.045133	0.292308
0.0827175	0.507692
0.139022	0.753846
0.274076	1.26154
0.401481	1.58462
0.540072	1.87692
0.6711	2.07692
0.805852	2.26154
1.00794	2.49231
