Adsorption isotherm of Hydrogen on MOF-505
DOI: 10.1021/Jp055908w
Adsorbate Hydrogen: InChIKey UFHFLCQGNIYNRP-UHFFFAOYSA-N
Temperature: 77 K
Tabular data in the source: 0
pressure (bar)	uptake (wt%)
0.0076348	0.169231
0.0152121	0.276923
0.0454349	0.615385
0.0830913	0.907692
0.135672	1.16923
0.278102	1.56923
0.401697	1.81538
0.543925	2
0.674896	2.13846
0.805852	2.26154
1.00785	2.4
