Adsorption isotherm of Hydrogen on MOF-505
DOI: 10.1021/Jp055908w
Adsorbate Hydrogen: InChIKey UFHFLCQGNIYNRP-UHFFFAOYSA-N
Temperature: 298 K
Tabular data in the source: 0
pressure (bar)	uptake (wt%)
2.54027	0.0596105
5.64551	0.11905
7.33938	0.148728
12.422	0.207571
15.5273	0.267011
19.7625	0.326109
23.9977	0.385208
31.6206	0.503662
42.0674	0.651451
52.5131	0.82943
62.9588	1.00741
71.7117	1.12552
80.746	1.27374
88.9339	1.39202
95.4269	1.51081
