Adsorption isotherm of Oxygen on Cr3(BTC)2
DOI: 10.1021/Ja1027925
Adsorbate Oxygen: InChIKey MYMOFIZGZYHOMD-UHFFFAOYSA-N
Temperature: 298 K
Tabular data in the source: 0
pressure (bar)	uptake (wt%)
0	10.3846
0.00319489	3.09231
0.028754	10.9846
0.0638978	10.9846
0.115016	10.9846
0.13099	10.9385
0.261981	11.0308
0.329073	10.9846
0.460064	11.0308
0.546326	11.0308
0.674121	11.0308
0.808307	11.0769
0.945687	11.0769
