Adsorption isotherm of Nitrogen on Cr3(BTC)2
DOI: 10.1021/Ja1027925
Adsorbate Nitrogen: InChIKey IJGRMHOSHXDMSA-UHFFFAOYSA-N
Temperature: 77 K
Tabular data in the source: 0
pressure (bar)	uptake (mmol/g)
0	0
0.00269867	4.8855
0.00539733	16.7176
0.0377813	18.0916
0.097152	18.7023
0.124139	18.9313
0.145728	19.1603
0.170016	19.1603
0.199701	19.2366
0.234784	19.2366
0.269867	19.3893
0.313045	19.542
0.367019	19.542
0.429088	19.6183
0.496555	19.771
0.582912	19.8473
0.680064	20
0.790709	20.1527
0.928341	20.687
