Adsorption isotherm of Nitrogen on Cr3(BTC)2
DOI: 10.1021/Ja1027925
Adsorbate Nitrogen: InChIKey IJGRMHOSHXDMSA-UHFFFAOYSA-N
Temperature: 77 K
Tabular data in the source: 0
pressure (bar)	uptake (mmol/g)
0.00539733	16.7176
0.0134933	17.5573
0.0512747	18.4733
0.064768	18.5496
0.0782613	18.626
0.126837	18.9313
0.151125	19.0076
0.172715	19.1603
0.199701	19.2366
0.232085	19.313
0.269867	19.3893
0.315744	19.4656
0.367019	19.542
0.426389	19.6183
0.499253	19.6947
0.580213	19.771
0.680064	19.9237
0.790709	20.0763
0.917547	20.3817
