Adsorption isotherm of Nitrogen on Cr3(BTC)2
DOI: 10.1021/Ja1027925
Adsorbate Nitrogen: InChIKey IJGRMHOSHXDMSA-UHFFFAOYSA-N
Temperature: 77 K
Tabular data in the source: 0
pressure (bar)	uptake (mmol/g)
0.00269867	0.00269867
0.00539733	16.8702
0.0107947	17.5573
0.0188907	18.0153
0.0269867	18.4733
0.04048	18.7786
0.056672	19.1603
0.0701653	19.3893
0.0782613	19.542
0.097152	19.6183
0.110645	19.8473
0.126837	19.9237
0.151125	20.0763
0.172715	20.1527
0.199701	20.3053
0.232085	20.3817
0.272565	20.458
0.315744	20.5344
0.367019	20.687
0.426389	20.687
0.499253	20.8397
0.582912	20.916
0.680064	20.9924
0.793408	21.145
0.928341	21.7557
