Adsorption isotherm of Nitrogen on Cr3(BTC)2
DOI: 10.1021/Ja1027925
Adsorbate Nitrogen: InChIKey IJGRMHOSHXDMSA-UHFFFAOYSA-N
Temperature: 298 K
Tabular data in the source: 0
pressure (bar)	uptake (wt%)
0.00959686	0.0458015
0.0191815	0.0458015
0.035156	0.0458015
0.0575324	0.0916031
0.0862864	0.0916031
0.131015	0.0916031
0.265212	0.137405
0.393044	0.274809
0.527242	0.320611
0.658257	0.412214
0.786077	0.503817
0.920274	0.549618
