Adsorption isotherm of Oxygen on Cr3(BTC)2
DOI: 10.1021/Ja1027925
Adsorbate Oxygen: InChIKey MYMOFIZGZYHOMD-UHFFFAOYSA-N
Temperature: 298 K
Tabular data in the source: 0
pressure (bar)	uptake (wt%)
0	0.830769
0.00319489	8.63077
0.00638978	9
0.0159744	9
0.0351438	9
0.0670927	8.95385
0.102236	8.95385
0.115016	9
0.13099	9
0.194888	9
0.322684	9
0.466454	9.04615
0.607029	9.04615
0.696486	9.04615
0.814696	9.04615
0.955272	9.04615
