Adsorption isotherm of Carbon Dioxide on Cu3(btc)2(3-picolylamine)2
DOI: 10.1039/c2jm16770k
Adsorbate Carbon Dioxide: InChIKey CURLTUGMZLYLDI-UHFFFAOYSA-N
Temperature: 323 K
Tabular data in the source: 0
pressure (bar)	uptake (mol/mol)
0.0261206	0.116223
0.0522413	0.232446
0.0835751	0.33414
0.100971	0.348668
0.118383	0.421308
0.139265	0.464891
0.160152	0.523002
0.179295	0.566586
0.200177	0.610169
0.245415	0.682809
0.301105	0.813559
0.349822	0.886199
0.398539	0.958838
0.448999	1.046
0.497707	1.08959
0.546428	1.17676
0.649066	1.27845
0.697783	1.35109
0.748235	1.4092
0.796943	1.45278
0.847394	1.5109
0.896107	1.56901
0.922198	1.58354
0.946554	1.61259
0.960476	1.64165
0.967437	1.65617
