Adsorption isotherm of Nitrogen on Cu3(btc)2(4-picolylamine)1.5
DOI: 10.1039/c2jm16770k
Adsorbate Nitrogen: InChIKey IJGRMHOSHXDMSA-UHFFFAOYSA-N
Temperature: 77 K
Tabular data in the source: 0
pressure (bar)	uptake (mmol/g)
2.78e-17	0.121655
0.00760188	0.243309
0.0334483	0.304136
0.0653762	0.243309
0.0775392	0.304136
0.0957837	0.304136
0.114028	0.243309
0.135313	0.243309
0.153558	0.243309
0.173323	0.304136
0.196128	0.304136
0.24326	0.304136
0.290392	0.304136
0.340564	0.304136
0.407461	0.304136
0.456113	0.304136
0.504765	0.243309
0.553417	0.364964
0.600548	0.304136
0.6492	0.304136
0.678088	0.304136
0.682649	0.304136
0.697852	0.304136
0.713056	0.304136
0.72978	0.304136
0.744984	0.304136
0.760188	0.304136
0.776912	0.304136
0.792116	0.304136
0.807319	0.304136
0.825564	0.304136
0.840768	0.304136
0.855971	0.304136
0.871175	0.364964
0.886379	0.364964
0.916786	0.425791
0.928949	0.425791
0.935031	0.547445
0.939592	0.547445
