Adsorption isotherm of Carbon Dioxide on CuBTC
DOI: 10.1039/c2jm16770k
Adsorbate Carbon Dioxide: InChIKey CURLTUGMZLYLDI-UHFFFAOYSA-N
Temperature: 323 K
Tabular data in the source: 0
pressure (bar)	uptake (mol/mol)
0.0295779	0.0435835
0.0591641	0.116223
0.0870113	0.188862
0.0974503	0.20339
0.120067	0.232446
0.140958	0.305085
0.158362	0.348668
0.17924	0.377724
0.198383	0.421308
0.241891	0.523002
0.299312	0.624697
0.349776	0.726392
0.396762	0.828087
0.447226	0.929782
0.495951	1.03148
0.546411	1.11864
0.59688	1.23487
0.643861	1.32203
0.694322	1.4092
0.746512	1.46731
0.793502	1.58354
0.843963	1.6707
0.892688	1.7724
0.920522	1.80145
0.946622	1.84504
0.958808	1.88862
0.967508	1.90315
