Adsorption isotherm of Carbon Dioxide on Cu3(btc)2(3-picolylamine)2
DOI: 10.1039/c2jm16770k
Adsorbate Carbon Dioxide: InChIKey CURLTUGMZLYLDI-UHFFFAOYSA-N
Temperature: 298 K
Tabular data in the source: 0
pressure (bar)	uptake (mol/mol)
0.00695652	0.116793
0.0278261	0.272366
0.0573913	0.427826
0.0869565	0.570299
0.0991304	0.622089
0.118261	0.699763
0.13913	0.777414
0.158261	0.842101
0.18087	0.906742
0.198261	0.958464
0.245217	1.07474
0.30087	1.1909
0.353043	1.3071
0.398261	1.37145
0.448696	1.48768
0.49913	1.55196
0.547826	1.64224
0.6	1.70649
0.648696	1.78378
0.695652	1.83512
0.747826	1.89938
0.794783	1.97669
0.846957	2.04095
0.895652	2.07928
0.923478	2.11788
0.947826	2.14353
0.96	2.14338
0.972174	2.16919
