Adsorption isotherm of Nitrogen on Cu3(btc)2(3-picolylamine)2
DOI: 10.1039/c2jm16770k
Adsorbate Nitrogen: InChIKey IJGRMHOSHXDMSA-UHFFFAOYSA-N
Temperature: 77 K
Tabular data in the source: 0
pressure (bar)	uptake (mmol/g)
0.031348	0.00191146
0.0783699	0.0657543
0.11442	0.00697683
0.158307	0.0706285
0.202194	0.0123289
0.269592	0.0164386
0.322884	0.019688
0.373041	0.0227464
0.923197	0.117268
0.949843	0.118893
0.96395	0.119753
0.968652	0.181015
