Adsorption isotherm of Nitrogen on CuBTC
DOI: 10.1039/c2jm16770k
Adsorbate Nitrogen: InChIKey IJGRMHOSHXDMSA-UHFFFAOYSA-N
Temperature: 77 K
Tabular data in the source: 0
pressure (bar)	uptake (mmol/g)
2.78e-17	2.78e-17
0.00304075	18.674
0.00760188	18.9781
0.0136834	19.0389
0.0258464	19.2822
0.0380094	19.4039
0.0516928	19.708
0.0653762	19.8297
0.0805799	20.073
0.0912225	20.3163
0.104906	20.3771
0.118589	20.4988
0.133793	20.5596
0.147476	20.6204
0.16268	20.6813
0.177884	20.7421
0.193088	20.8029
0.208291	20.8029
0.223495	20.8029
0.238699	20.9246
0.252382	20.8637
0.267586	20.9246
0.281269	20.9854
0.296473	21.0462
0.311677	21.0462
0.326881	21.0462
0.342085	21.1071
0.357288	21.1071
0.372492	21.1071
0.386175	21.1679
0.401379	21.1071
0.416583	21.1679
0.433307	21.1679
0.442429	21.1679
0.460674	21.2287
0.475878	21.2287
0.489561	21.2287
0.504765	21.2287
0.519968	21.2287
0.536693	21.2895
0.551896	21.2895
0.5671	21.2895
0.582304	21.3504
0.595987	21.2895
0.609671	21.2895
0.624874	21.3504
0.638558	21.2895
0.653762	21.3504
0.668965	21.3504
0.682649	21.3504
0.697852	21.4112
0.713056	21.4112
0.72826	21.4112
0.743464	21.4112
0.758667	21.4112
0.773871	21.4112
0.787555	21.4112
0.802758	21.4112
0.822523	21.4112
0.836207	21.4112
0.842288	21.4112
0.862053	21.4112
0.871175	21.472
0.886379	21.5328
0.907664	21.472
0.919827	21.5328
0.935031	21.472
