Adsorption isotherm of Carbon Dioxide on CuBTC
DOI: 10.1039/c2jm16770k
Adsorbate Carbon Dioxide: InChIKey CURLTUGMZLYLDI-UHFFFAOYSA-N
Temperature: 298 K
Tabular data in the source: 0
pressure (bar)	uptake (mol/mol)
0.0295652	0.116499
0.0591304	0.232998
0.0852174	0.349543
0.10087	0.375313
0.12	0.452987
0.13913	0.504687
0.16	0.582338
0.17913	0.672998
0.2	0.724675
0.250435	0.892851
0.29913	1.06105
0.349565	1.24221
0.396522	1.38446
0.448696	1.55261
0.49913	1.69482
0.547826	1.85003
0.598261	1.99223
0.648696	2.13443
0.70087	2.26363
0.749565	2.40585
0.798261	2.53509
0.848696	2.65132
0.89913	2.79352
0.92	2.81922
0.946087	2.8968
0.96	2.9226
0.968696	2.96145
