Adsorption isotherm of Carbon Dioxide on Cu3(btc)2(en)2.4
DOI: 10.1039/c2jm16770k
Adsorbate Carbon Dioxide: InChIKey CURLTUGMZLYLDI-UHFFFAOYSA-N
Temperature: 298 K
Tabular data in the source: 0
pressure (bar)	uptake (mol/mol)
0.0104348	0.0258385
0.0295652	0.0385771
0.0591304	0.0641671
0.0782609	0.0898927
0.10087	0.0895991
0.12	0.115325
0.14087	0.115054
0.16	0.127792
0.17913	0.166505
0.203478	0.166189
0.250435	0.165579
0.29913	0.203907
0.353043	0.216194
0.4	0.228571
0.450435	0.25389
0.49913	0.292219
0.549565	0.291564
0.601739	0.303874
0.648696	0.316251
0.697391	0.328605
0.749565	0.353902
0.8	0.353247
0.846957	0.378611
0.90087	0.390898
0.925217	0.390582
0.949565	0.416239
0.961739	0.416081
0.973913	0.415923
