Adsorption isotherm of Carbon Dioxide on CuBTC
DOI: 10.1039/c2jm16770k
Adsorbate Carbon Dioxide: InChIKey CURLTUGMZLYLDI-UHFFFAOYSA-N
Temperature: 273 K
Tabular data in the source: 0
pressure (bar)	uptake (mol/mol)
0.00704225	0.0903226
0.0299296	0.258065
0.0580986	0.529032
0.0809859	0.696774
0.0985915	0.851613
0.117958	1.01935
0.137324	1.1871
0.158451	1.34194
0.177817	1.50968
0.198944	1.66452
0.25	2.05161
0.295775	2.37419
0.350352	2.69677
0.399648	2.98065
0.447183	3.22581
0.496479	3.45806
0.547535	3.67742
0.600352	3.88387
0.647887	4.06452
0.697183	4.23226
0.75	4.4
0.797535	4.58065
0.850352	4.70968
0.897887	4.85161
0.919014	4.91613
0.945423	4.99355
0.959507	5.03226
0.96831	5.08387
