Adsorption isotherm of Carbon Dioxide on Cu3(btc)2(4-picolylamine)1.5
DOI: 10.1039/c2jm16770k
Adsorbate Carbon Dioxide: InChIKey CURLTUGMZLYLDI-UHFFFAOYSA-N
Temperature: 298 K
Tabular data in the source: 0
pressure (bar)	uptake (mol/mol)
0.0295652	0.15546
0.0591304	0.258972
0.0747826	0.310717
0.121739	0.42699
0.14087	0.465703
0.161739	0.51738
0.18087	0.556093
0.2	0.594805
0.248696	0.685082
0.29913	0.762349
0.351304	0.826606
0.398261	0.890932
0.450435	0.955189
0.49913	0.993518
0.549565	1.0578
0.601739	1.10907
0.648696	1.16041
0.697391	1.21172
0.747826	1.23704
0.798261	1.27535
0.848696	1.31365
0.89913	1.33897
0.921739	1.37764
0.947826	1.39029
0.96	1.40312
0.968696	1.42898
