Adsorption isotherm of Carbon Dioxide on Cu3(btc)2(3-picolylamine)2
DOI: 10.1039/c2jm16770k
Adsorbate Carbon Dioxide: InChIKey CURLTUGMZLYLDI-UHFFFAOYSA-N
Temperature: 273 K
Tabular data in the source: 0
pressure (bar)	uptake (mol/mol)
0.00704225	0.245161
0.0299296	0.554839
0.0580986	0.83871
0.0809859	1.00645
0.096831	1.10968
0.117958	1.22581
0.137324	1.32903
0.158451	1.41935
0.179577	1.52258
0.198944	1.5871
0.251761	1.78065
0.297535	1.93548
0.348592	2.07742
0.396127	2.19355
0.445423	2.30968
0.496479	2.42581
0.547535	2.51613
0.596831	2.60645
0.646127	2.70968
0.695423	2.77419
0.746479	2.85161
0.797535	2.90323
0.846831	2.98065
0.897887	3.03226
0.922535	3.07097
0.950704	3.08387
0.961268	3.09677
0.96831	3.13548
