Adsorption isotherm of Carbon Dioxide on Cu3(btc)2(en)2.4
DOI: 10.1039/c2jm16770k
Adsorbate Carbon Dioxide: InChIKey CURLTUGMZLYLDI-UHFFFAOYSA-N
Temperature: 273 K
Tabular data in the source: 0
pressure (bar)	uptake (mol/mol)
0.0105634	0.0516129
0.0352113	0.0903226
0.056338	0.129032
0.0880282	0.167742
0.102113	0.180645
0.119718	0.206452
0.142606	0.219355
0.160211	0.232258
0.179577	0.245161
0.200704	0.270968
0.248239	0.309677
0.299296	0.335484
0.350352	0.374194
0.399648	0.412903
0.450704	0.43871
0.5	0.451613
0.547535	0.477419
0.598592	0.490323
0.649648	0.529032
0.700704	0.541935
0.75	0.567742
0.801056	0.567742
0.850352	0.606452
0.899648	0.619355
0.924296	0.632258
0.950704	0.645161
0.963028	0.645161
0.96831	0.658065
