Adsorption isotherm of Carbon Dioxide on Cu3(btc)2(4-picolylamine)1.5
DOI: 10.1039/c2jm16770k
Adsorbate Carbon Dioxide: InChIKey CURLTUGMZLYLDI-UHFFFAOYSA-N
Temperature: 323 K
Tabular data in the source: 0
pressure (bar)	uptake (mol/mol)
0.0748289	0.159806
0.137459	0.232446
0.160084	0.290557
0.182697	0.305085
0.200097	0.33414
0.24707	0.392252
0.302739	0.450363
0.349713	0.508475
0.400164	0.566586
0.448868	0.595642
0.49932	0.653753
0.549767	0.697337
0.596732	0.726392
0.648919	0.769976
0.697627	0.813559
0.748075	0.857143
0.796779	0.886199
0.848965	0.929782
0.897665	0.94431
0.92376	0.973366
0.948121	1.01695
0.960295	1.01695
0.970734	1.03148
