Adsorption isotherm of Nitrogen on Cu3(btc)2(en)2.4
DOI: 10.1039/c2jm16770k
Adsorbate Nitrogen: InChIKey IJGRMHOSHXDMSA-UHFFFAOYSA-N
Temperature: 77 K
Tabular data in the source: 0
pressure (bar)	uptake (mmol/g)
0.00152038	2.12895
0.0152038	2.31144
0.0304075	2.37226
0.0440909	2.37226
0.0592946	2.43309
0.0623354	2.43309
0.0744984	2.43309
0.0790595	2.43309
0.0897022	2.43309
0.103386	2.49392
0.115549	2.43309
0.118589	2.49392
0.133793	2.55474
0.148997	2.49392
0.152038	2.49392
0.164201	2.49392
0.174843	2.43309
0.177884	2.55474
0.193088	2.55474
0.205251	2.55474
0.220454	2.55474
0.235658	2.61557
0.250862	2.55474
0.264545	2.55474
0.279749	2.61557
0.293432	2.6764
0.308636	2.61557
0.32384	2.61557
0.339044	2.6764
0.352727	2.61557
0.367931	2.61557
0.383135	2.6764
0.396818	2.61557
0.412022	2.6764
0.427226	2.6764
0.436348	2.61557
0.440909	2.6764
0.454592	2.6764
0.469796	2.6764
0.485	2.6764
0.500204	2.6764
0.515407	2.6764
0.530611	2.6764
0.544294	2.6764
0.559498	2.6764
0.574702	2.73723
0.589906	2.73723
0.605109	2.73723
0.620313	2.73723
0.635517	2.73723
0.650721	2.73723
0.665925	2.73723
0.676567	2.6764
0.681128	2.79805
0.696332	2.79805
0.711536	2.79805
0.72674	2.79805
0.741943	2.79805
0.757147	2.79805
0.772351	2.85888
0.787555	2.85888
0.801238	2.91971
0.816442	2.98054
0.830125	3.04136
0.845329	3.10219
0.860533	3.16302
0.872696	3.22384
0.887899	3.3455
0.901583	3.46715
0.916786	3.46715
0.93199	3.52798
0.942633	3.58881
0.945674	3.64964
