Adsorption isotherm of Carbon Dioxide on Cu3(btc)2(4-picolylamine)1.5
DOI: 10.1039/c2jm16770k
Adsorbate Carbon Dioxide: InChIKey CURLTUGMZLYLDI-UHFFFAOYSA-N
Temperature: 273 K
Tabular data in the source: 0
pressure (bar)	uptake (mol/mol)
0.0105634	0.167742
0.0316901	0.348387
0.0862676	0.670968
0.102113	0.735484
0.119718	0.8
0.140845	0.877419
0.158451	0.941935
0.177817	0.993548
0.198944	1.04516
0.248239	1.16129
0.301056	1.27742
0.352113	1.35484
0.399648	1.43226
0.448944	1.50968
0.5	1.57419
0.549296	1.6129
0.596831	1.67742
0.649648	1.74194
0.700704	1.76774
0.75	1.80645
0.799296	1.87097
0.850352	1.89677
0.896127	1.93548
0.924296	1.96129
0.947183	1.9871
0.961268	2
0.971831	2.0129
