Adsorption isotherm of Carbon Dioxide on Cu3(btc)2(en)2.4
DOI: 10.1039/c2jm16770k
Adsorbate Carbon Dioxide: InChIKey CURLTUGMZLYLDI-UHFFFAOYSA-N
Temperature: 323 K
Tabular data in the source: 0
pressure (bar)	uptake (mol/mol)
0.0330435	0
0.0573997	0.0290557
0.0782735	0.0435835
0.0974124	0.0726392
0.118286	0.0871671
0.140895	0.0871671
0.161764	0.0871671
0.180899	0.101695
0.19829	0.101695
0.246994	0.130751
0.297433	0.145278
0.349616	0.174334
0.398316	0.188862
0.44702	0.217918
0.497454	0.217918
0.549633	0.232446
0.598332	0.246973
0.645293	0.261501
0.697471	0.276029
0.74791	0.290557
0.796606	0.290557
0.848788	0.319613
0.897488	0.33414
0.923579	0.348668
0.947931	0.363196
0.963584	0.363196
0.967066	0.377724
