Adsorption isotherm of Acetylene on ZJNU-47a
DOI: 10.1039/c5dt02089a
Article source: Figure 2b- ZJNU C2H2
Adsorbate Acetylene: InChIKey HSFWRNGVRCDJHI-UHFFFAOYSA-N
Kind: experiment
Temperature: 273 K
Tabular data in the source: 0
pressure (bar)	uptake (cm3(STP)/g)
0.000741	5.487
0.003702	15.417
0.01094	34.23
0.019982	42.722
0.0319	47.785
0.038478	57.65
0.062232	68.984
0.069302	77.64
0.090343	85.283
0.098811	93.808
0.124454	100.733
0.131113	108.376
0.156508	113.244
0.161688	120.985
0.188235	125.395
0.193415	132.515
0.22029	136.468
0.223579	142.74
0.250207	145.745
0.255222	152.572
0.282754	155.414
0.285879	161.783
0.314397	164.365
0.318426	170.734
0.345548	173.315
0.349905	179.194
0.378094	181.481
0.381794	186.544
0.40875	188.603
0.411218	193.731
0.439736	195.952
0.441134	200.297
0.471625	202.91
0.475982	207.777
0.502035	210.032
0.505488	214.311
0.537622	220.424
0.538034	220.517
0.565401	222.804
0.568937	226.691
0.597044	228.848
0.598524	231.82
0.628604	234.826
0.630907	237.994
0.66	240.641
0.663041	243.809
0.690657	246.194
0.692136	248.709
0.721559	251.65
0.72419	253.936
0.755091	256.779
0.755174	256.794
0.785254	262.038
0.786981	264.227
0.816074	266.742
0.817307	267.023
0.847141	270.957
0.849032	273.407
0.878782	275.53
0.881166	278.274
0.910589	280.235
0.911246	281.77
0.94182	285.2
0.957929	287.716
0.958011	287.726
0.974612	289.121
0.987845	291.767
1.00346	293.139
1.02072	295.001
1.03749	296.766
1.06806	300.686
