Adsorption isotherm of Carbon Dioxide on ZJNU-47a
DOI: 10.1039/c5dt02089a
Article source: Figure 2b- ZJNU CO2
Adsorbate Carbon Dioxide: InChIKey CURLTUGMZLYLDI-UHFFFAOYSA-N
Kind: experiment
Temperature: 273 K
Tabular data in the source: 0
pressure (bar)	uptake (cm3(STP)/g)
0.039945	8.725
0.06189	11.634
0.068629	15.326
0.094107	17.876
0.099778	21.796
0.125504	24.15
0.131914	27.189
0.158051	30.98
0.163147	33.202
0.188462	35.621
0.194379	38.561
0.21805	42.026
0.228324	44.313
0.252159	49.509
0.284295	53.921
0.315281	60.424
0.344786	64.608
0.378813	69.902
0.40758	74.086
0.43495	79.282
0.445387	82.092
0.473578	86.308
0.505057	91.472
0.530783	95.263
0.535632	96.439
0.563659	100.165
0.567685	101.734
0.594068	104.708
0.599329	106.505
0.627767	109.905
0.630561	111.113
0.657273	114.251
0.66089	115.297
0.688177	118.5
0.692779	119.677
0.718422	122.52
0.723271	124.35
0.754915	127.782
0.755326	127.822
0.785161	133.24
0.785654	133.299
0.813105	136.378
0.817626	137.423
0.848446	142.195
0.850337	140.986
0.875733	145.333
0.880501	146.346
0.910172	150.627
0.910336	150.643
0.941404	154.027
0.941897	154.107
0.957101	156.543
0.972636	157.916
0.988005	160.433
1.0051	161.512
1.02121	164.257
1.03559	165.336
1.06789	169.226
