Adsorption isotherm of Methane on NOTT-101a
DOI: 10.1039/c5dt02089a
Article source: Figure 2a- NOTT CH4
Adsorbate Methane: InChIKey VNWKTOKETHGBQD-UHFFFAOYSA-N
Kind: experiment
Temperature: 296 K
Tabular data in the source: 0
pressure (bar)	uptake (cm3(STP)/g)
0.007353	0.56
0.013928	0.58
0.016685	0.6
0.022342	0.7
0.034573	1.04
0.037897	1.36
0.067449	1.38
0.069358	1.4
0.095023	2
0.100184	2.02
0.125848	2.86
0.131647	2.92
0.158159	3.18
0.162825	3.5
0.188772	3.92
0.193721	4.02
0.220518	4.52
0.225043	4.66
0.254455	5.38
0.255798	5.5
0.281815	5.9
0.286907	6.06
0.317945	6.56
0.349194	7.2
0.349266	7.201
0.379171	7.6
0.382637	7.64
0.410776	8.18
0.414098	8.44
0.441672	8.74
0.446197	8.8
0.475254	9.42
0.477446	9.56
0.505657	10.24
0.508273	10.34
0.538038	10.82
0.538109	10.821
0.56752	10.96
0.569712	11.26
0.600043	11.86
0.600749	11.876
0.628606	12.34
0.631151	12.5
0.661694	12.86
0.663603	12.94
0.693651	13.814
0.693935	13.82
0.724476	14.262
0.725679	14.28
0.755302	14.44
0.757354	14.74
0.787754	14.9
0.788037	14.898
0.818015	15.78
0.819994	15.66
0.849477	15.98
0.849618	15.982
0.881009	16.44
0.911552	17.18
0.944004	17.5
0.955457	18.08
0.974335	18.22
0.989181	18.18
1.00467	19.1
1.01845	18.98
1.03733	19.38
1.06752	19.54
