Adsorption isotherm of Methane on NOTT-101a
DOI: 10.1039/c5dt02089a
Article source: Figure 2b- NOTT CH4
Adsorbate Methane: InChIKey VNWKTOKETHGBQD-UHFFFAOYSA-N
Kind: experiment
Temperature: 273 K
Tabular data in the source: 0
pressure (bar)	uptake (cm3(STP)/g)
0.006082	1.406
0.013151	1.506
0.021781	1.704
0.031891	2.327
0.036329	2.36
0.061643	3.085
0.068465	2.792
0.094026	3.451
0.099123	3.681
0.124766	5.124
0.130848	5.126
0.156574	6.177
0.161423	6.047
0.186985	7.425
0.192655	7.426
0.218874	8.412
0.224052	8.479
0.250025	9.595
0.254956	9.629
0.284051	10.419
0.286024	10.485
0.317257	11.603
0.319064	11.57
0.348406	12.688
0.348571	12.692
0.379146	13.479
0.381858	13.577
0.410872	14.596
0.412926	14.727
0.440953	15.616
0.445227	15.943
0.473008	16.636
0.476953	16.931
0.504159	17.721
0.507528	17.819
0.535801	18.806
0.538925	19.068
0.567692	19.874
0.568431	19.891
0.599088	20.925
0.599745	20.943
0.630732	21.928
0.631553	21.93
0.662622	22.683
0.662785	22.689
0.693443	23.349
0.725168	25.185
0.755662	25.551
0.75673	25.567
0.787305	26.375
0.788291	26.394
0.81903	27.82
0.819606	27.832
0.848126	28.512
0.849934	28.578
0.880509	29.271
0.881906	29.304
0.911577	30.029
0.943302	30.722
0.956207	31.476
0.972727	31.872
0.987603	32.202
1.0056	32.663
1.01916	32.927
1.03889	33.389
1.06971	34.376
