Adsorption isotherm of Methane on ZJNU-47a
DOI: 10.1039/c5dt02089a
Article source: Figure 2a- ZJNU CH4
Adsorbate Methane: InChIKey VNWKTOKETHGBQD-UHFFFAOYSA-N
Kind: experiment
Temperature: 296 K
Tabular data in the source: 0
pressure (bar)	uptake (cm3(STP)/g)
0.006785	1.1
0.011167	0.881
0.015833	0.861
0.022406	1.141
0.037886	1.202
0.06814	1.383
0.12589	2.705
0.157415	2.987
0.190002	3.308
0.217993	4.209
0.250366	5.19
0.282386	5.652
0.316315	6.013
0.347346	6.654
0.379154	7.636
0.408982	7.797
0.443618	9.058
0.47366	9.42
0.507658	10.361
0.53777	11.062
0.569367	11.624
0.599267	12.085
0.630509	12.486
0.661823	13.367
0.692711	14.289
0.724166	14.85
0.755974	15.451
0.786227	16.193
0.818035	16.814
0.848006	17.615
0.880662	18.017
0.91134	18.638
0.943289	19.179
0.954669	19.8
0.972976	20.181
0.98563	20.201
1.00387	20.762
1.01701	20.702
1.03596	21.043
1.06685	21.204
