Adsorption isotherm of Acetylene on NOTT-101a
DOI: 10.1039/c5dt02089a
Article source: Figure 2a- NOTT C2H2
Adsorbate Acetylene: InChIKey HSFWRNGVRCDJHI-UHFFFAOYSA-N
Kind: experiment
Temperature: 296 K
Tabular data in the source: 0
pressure (bar)	uptake (cm3(STP)/g)
0.003816	1.4
0.007559	5.18
0.008899	8.779
0.010947	11.479
0.013914	7.589
0.013918	7.58
0.017944	10.779
0.022674	19.298
0.032497	19.439
0.038994	27.818
0.063303	32.298
0.069093	39.617
0.093616	41.838
0.100325	49.417
0.125839	50.497
0.131064	57.917
0.156931	58.017
0.162933	65.237
0.18859	64.877
0.193603	72.176
0.219683	71.177
0.224484	78.536
0.251201	77.217
0.255436	84.556
0.282718	83.157
0.2866	90.296
0.315366	88.897
0.317694	95.576
0.346108	94.037
0.349001	100.716
0.377908	99.057
0.380942	105.857
0.409638	104.197
0.41345	110.737
0.440025	109.017
0.443626	115.157
0.471827	113.398
0.475428	119.497
0.502921	117.878
0.506168	123.797
0.534581	122.578
0.537333	127.877
0.565605	126.538
0.568428	131.877
0.597336	130.758
0.5991	135.698
0.628855	134.758
0.630689	139.478
0.659455	138.639
0.661855	143.138
0.691327	142.499
0.69302	146.838
0.722069	146.159
0.72454	150.139
0.753871	149.999
0.755706	153.659
0.784401	153.539
0.786235	157.039
0.816556	156.86
0.817614	160.319
0.848217	160.26
0.848709	160.316
0.879241	164.18
0.880512	166.54
0.910406	169.538
0.911394	169.7
0.941573	170.361
0.942914	170.47
0.958109	173.921
0.973233	174.021
0.988851	177.101
1.00313	177.561
1.02094	179.901
1.0355	180.461
1.06786	183.782
