Adsorption isotherm of Acetylene on ZJNU-47a
DOI: 10.1039/c5dt02089a
Article source: Figure 2a- ZJNU C2H2
Adsorbate Acetylene: InChIKey HSFWRNGVRCDJHI-UHFFFAOYSA-N
Kind: experiment
Temperature: 296 K
Tabular data in the source: 0
pressure (bar)	uptake (cm3(STP)/g)
0.003812	1.731
0.004258	8.081
0.006285	13.64
0.008687	17.06
0.012362	20.9
0.023171	28.1
0.03356	31.44
0.038787	38.68
0.064369	46.28
0.069456	53.22
0.092495	56.94
0.100125	64.86
0.125286	67.52
0.131432	74.92
0.15744	77.24
0.162315	84.24
0.188959	85.56
0.193621	92.64
0.220195	93.5
0.224363	100.12
0.251361	100.6
0.255811	107.14
0.284647	108
0.286976	114.04
0.316237	119.417
0.317861	120.38
0.347121	120.46
0.351147	126.7
0.378498	126.64
0.381959	132.2
0.409312	131.84
0.412702	137.42
0.440832	137.18
0.442526	142.18
0.47221	142.6
0.475389	147.54
0.504225	147.66
0.50698	152.28
0.534684	152.22
0.538429	156.84
0.565992	156.7
0.568889	161.36
0.597795	161.2
0.600409	165.42
0.628467	165.44
0.63094	169.66
0.660059	169.56
0.662531	173.44
0.691296	173.36
0.693415	177.36
0.721333	177.38
0.724299	180.96
0.753913	181.2
0.755395	184.52
0.78515	184.9
0.786775	188.08
0.81561	188.34
0.818013	191.44
0.847344	192
0.848685	194.62
0.878298	195.64
0.880277	197.88
0.909819	198.64
0.912009	200.92
0.940916	202.24
0.943106	202.389
0.957524	204.92
0.97286	205.2
0.987701	207.76
1.00382	208.32
1.02028	210.4
1.03576	211.18
1.06686	214.04
