Adsorption isotherm of Acetylene on NOTT-101a
DOI: 10.1039/c5dt02089a
Article source: Figure 2b- NOTT C2H2
Adsorbate Acetylene: InChIKey HSFWRNGVRCDJHI-UHFFFAOYSA-N
Kind: experiment
Temperature: 273 K
Tabular data in the source: 0
pressure (bar)	uptake (cm3(STP)/g)
0.000163	3.757
0.006733	12.38
0.009026	19.436
0.009194	19.502
0.012968	30.183
0.01363	23.748
0.016832	29.432
0.020608	38.154
0.033096	43.675
0.036216	50.665
0.062672	62.23
0.068585	70.854
0.090689	75.95
0.099394	85.881
0.125034	90.422
0.130125	98.85
0.156011	102.378
0.161924	110.284
0.188714	113.224
0.192655	120.966
0.219117	123.548
0.224126	131.126
0.25067	132.662
0.254939	140.404
0.282058	141.908
0.286082	148.865
0.314517	150.5
0.317307	157.327
0.346234	158.667
0.349765	165.363
0.376885	166.279
0.380662	172.878
0.408604	174.022
0.41197	180.228
0.439994	180.817
0.443442	187.024
0.47196	187.841
0.474586	193.982
0.50294	194.375
0.505977	199.928
0.534412	200.942
0.53704	205.874
0.564982	206.659
0.567773	211.919
0.596043	212.507
0.599411	217.571
0.627763	217.931
0.630391	222.896
0.658826	223.877
0.661207	227.927
0.689889	229.039
0.692187	233.09
0.721033	233.776
0.723826	237.729
0.753082	238.906
0.754806	242.303
0.784062	243.578
0.785869	246.649
0.816605	248.218
0.818165	250.929
0.84701	252.302
0.849064	255.078
0.878649	256.778
0.880045	258.803
0.910041	262.487
0.910286	262.528
0.941515	265.207
0.941843	265.236
0.957868	268.05
0.973071	268.41
0.988849	271.383
1.00372	272.265
1.02106	274.65
1.03577	275.565
1.06692	279.061
