Adsorption isotherm of Carbon Dioxide on NOTT-101a
DOI: 10.1039/c5dt02089a
Article source: Figure 2a- NOTT CO2
Adsorbate Carbon Dioxide: InChIKey CURLTUGMZLYLDI-UHFFFAOYSA-N
Kind: experiment
Temperature: 296 K
Tabular data in the source: 0
pressure (bar)	uptake (cm3(STP)/g)
0.016971	2.421
0.026727	2.882
0.038606	4.383
0.061868	5.244
0.069646	6.985
0.0951	8.086
0.100121	9.747
0.125928	10.588
0.131444	12.709
0.158524	13.45
0.162909	15.391
0.189847	16.012
0.193171	18.033
0.220817	18.754
0.224212	20.855
0.252706	21.936
0.255111	23.457
0.283605	24.018
0.28608	26.039
0.31408	26.98
0.317898	28.781
0.345685	29.602
0.349858	31.102
0.378069	32.104
0.380261	33.804
0.409392	34.426
0.411797	36.346
0.439513	36.928
0.443614	38.828
0.471684	39.87
0.475221	41.45
0.503008	42.212
0.506189	43.572
0.535249	44.313
0.537513	46.114
0.566077	46.715
0.567845	48.396
0.59733	49.197
0.599452	50.878
0.627592	51.679
0.631057	53.02
0.660047	54.201
0.661603	55.241
0.690946	56.643
0.692996	57.543
0.722551	58.705
0.724178	59.825
0.753521	60.426
0.754794	61.927
0.784773	63.168
0.786329	63.324
0.817298	65.19
0.818075	65.248
0.848197	67.592
0.849115	67.67
0.879024	69.594
0.880156	70.494
0.911478	72.74
0.91169	72.756
0.942024	74.338
0.942236	74.35
0.956872	75.519
0.973135	76.219
0.987912	77.74
1.00481	78.621
1.02023	79.822
1.03635	80.643
1.06731	82.705
