Adsorption isotherm of Carbon Dioxide on NOTT-101a
DOI: 10.1039/c5dt02089a
Article source: Figure 2b- NOTT CO2
Adsorbate Carbon Dioxide: InChIKey CURLTUGMZLYLDI-UHFFFAOYSA-N
Kind: experiment
Temperature: 273 K
Tabular data in the source: 0
pressure (bar)	uptake (cm3(STP)/g)
0.009697	5.259
0.016355	6.043
0.023011	7.056
0.037229	10.192
0.060242	12.413
0.068377	16.464
0.094431	18.784
0.099608	22.932
0.125086	24.566
0.130428	29.269
0.156316	30.38
0.161576	35.019
0.187466	35.771
0.193135	41.225
0.220094	41.553
0.224119	46.517
0.250749	46.747
0.25535	51.908
0.282801	52.464
0.286087	57.167
0.314114	57.56
0.316907	61.937
0.344358	62.46
0.348714	67.033
0.376576	67.524
0.379287	72.031
0.407972	71.738
0.4106	76.572
0.439777	76.442
0.4429	81.211
0.470927	81.375
0.474294	85.948
0.502157	85.557
0.505361	90.162
0.534045	90.457
0.536675	94.377
0.564783	94.476
0.567823	98.852
0.596262	98.886
0.599465	102.969
0.627574	103.231
0.630039	106.922
0.658806	106.923
0.66127	111.169
0.690037	111.66
0.692419	115.057
0.721761	118.479
0.723567	119.173
0.754059	122.678
0.755046	122.897
0.784386	124.368
0.786441	126.622
0.815289	128.321
0.816933	130.771
0.847506	131.719
0.848821	131.97
0.879066	135.607
0.880217	135.792
0.909723	139.788
0.910954	141.715
0.941529	143.545
0.942104	143.599
0.957637	146.779
0.972103	147.498
0.989032	150.733
1.00498	151.256
1.02182	154.228
1.03629	154.98
1.06703	158.835
