Adsorption isotherm of Methane on ZJNU-47a
DOI: 10.1039/c5dt02089a
Article source: Figure 2b- ZJNU CH4
Adsorbate Methane: InChIKey VNWKTOKETHGBQD-UHFFFAOYSA-N
Kind: experiment
Temperature: 273 K
Tabular data in the source: 0
pressure (bar)	uptake (cm3(STP)/g)
0.038493	1.57
0.06769	2.025
0.159342	5.144
0.162464	5.234
0.19024	6.291
0.193773	5.964
0.220975	7.176
0.224672	6.98
0.251134	8.191
0.255571	7.93
0.283018	8.75
0.288278	8.195
0.315397	9.537
0.319176	9.145
0.34572	11.369
0.349993	11.239
0.378426	12.026
0.380891	11.438
0.410558	12.617
0.413105	11.931
0.441785	13.73
0.444661	13.273
0.473917	15.302
0.476053	14.812
0.503007	15.794
0.506377	15.631
0.535385	16.778
0.537357	16.451
0.567023	17.793
0.568831	17.434
0.598333	18.548
0.599319	18.188
0.62989	19.596
0.630218	19.612
0.662431	19.305
0.66276	19.314
0.692262	20.468
0.693083	20.517
0.722174	22.512
0.724146	21.369
0.754963	22.304
0.755374	22.319
0.785943	23.498
0.787011	23.506
0.815856	24.416
0.817335	24.437
0.847741	25.236
0.848728	25.248
0.87979	26.248
0.880037	26.252
0.910196	26.859
0.911017	26.875
0.942737	28.087
0.958433	28.644
0.971993	28.776
0.987607	28.516
1.00207	29.465
1.019	29.205
1.0356	29.893
1.06839	30.353
