Adsorption isotherm of Carbon Dioxide on ZJNU-47a
DOI: 10.1039/c5dt02089a
Article source: Figure 2a- ZJNU CO2
Adsorbate Carbon Dioxide: InChIKey CURLTUGMZLYLDI-UHFFFAOYSA-N
Kind: experiment
Temperature: 296 K
Tabular data in the source: 0
pressure (bar)	uptake (cm3(STP)/g)
0.022338	4.743
0.037325	6.284
0.061998	7.306
0.06942	9.907
0.09487	10.889
0.101018	13.19
0.126539	13.971
0.132194	16.672
0.157644	17.434
0.162945	20.195
0.188748	20.797
0.193696	23.678
0.219783	24.34
0.225013	27.101
0.251594	27.422
0.255906	30.384
0.282841	30.405
0.286799	33.646
0.313592	33.568
0.317903	37.069
0.346606	37.171
0.349221	40.252
0.376792	40.353
0.380183	43.594
0.408037	43.816
0.412278	46.957
0.440697	47.299
0.444019	50
0.47258	52.951
0.47371	53.143
0.502836	53.484
0.506229	56.425
0.534365	56.667
0.537192	59.428
0.566107	59.95
0.568368	62.691
0.597564	63.153
0.599543	65.613
0.628528	66.275
0.629375	66.394
0.659279	69.338
0.662035	71.639
0.690809	72.141
0.692999	74.541
0.722407	75.403
0.724175	77.704
0.753513	78.406
0.755633	80.447
0.785537	81.549
0.786809	83.629
0.81657	84.831
0.817913	86.792
0.847393	87.974
0.848736	89.435
0.879276	92.168
0.880406	92.277
0.91045	94.851
0.911086	94.94
0.941556	96.902
0.942263	96.96
0.957744	99.024
0.973863	100.005
0.987576	101.626
1.00447	102.527
1.02002	104.529
1.03593	105.47
1.06739	108.333
