Adsorption isotherm of Nitrogen on NH2-MIL-47
DOI: 10.1016/j.cattod.2012.09.037
Adsorbate Nitrogen: InChIKey IJGRMHOSHXDMSA-UHFFFAOYSA-N
Temperature: 77 K
Tabular data in the source: 0
pressure (bar)	uptake (cm3(STP)/g)
0.00658518	59.0475
0.00658518	87.7934
0.0237469	106.242
0.0509196	112.678
0.102405	118.255
0.15675	122.546
0.265441	129.411
0.366981	135.417
0.45708	141.424
0.55004	147.001
0.65158	155.582
0.741679	165.021
0.867531	179.609
0.921877	193.767
0.95191	214.361
0.977652	344.361
