Adsorption isotherm of Nitrogen on NH2-MIL-47
DOI: 10.1016/j.cattod.2012.09.037
Adsorbate Nitrogen: InChIKey IJGRMHOSHXDMSA-UHFFFAOYSA-N
Temperature: 77 K
Tabular data in the source: 0
pressure (bar)	uptake (cm3(STP)/g)
0.00658518	21.7208
0.0280373	32.0178
0.0823828	36.3083
0.123857	38.4535
0.206805	40.1697
0.311206	42.7439
0.408455	44.8891
0.501415	46.6053
0.607245	49.1796
0.673032	50.8957
0.738818	53.47
0.85323	59.0475
0.893274	62.9089
0.919016	65.4832
0.949049	74.064
0.980513	115.681
0.986233	136.275
