Adsorption isotherm of Nitrogen on PCN-82
DOI: 10.1039/C2dt32479b
Adsorbate Nitrogen: InChIKey IJGRMHOSHXDMSA-UHFFFAOYSA-N
Temperature: 77 K
Tabular data in the source: 0
pressure (bar)	uptake (cm3(STP)/g)
1.16e-05	36.3309
5.37e-05	83.5242
0.000101	133.339
0.000143	175.289
0.000243	253.944
0.000557	337.844
0.00160296	413.877
0.00536159	500.398
0.0111199	576.432
0.0150381	621.003
0.021931	752.096
0.0391128	862.213
0.0556237	946.112
0.0967378	985.44
0.233318	1030.01
0.52183	1061.47
0.930656	1087.69
