Adsorption isotherm of Hydrogen on PCN-82
DOI: 10.1039/C2dt32479b
Adsorbate Hydrogen: InChIKey UFHFLCQGNIYNRP-UHFFFAOYSA-N
Temperature: 87 K
Tabular data in the source: 0
pressure (bar)	uptake (cm3(STP)/g)
0.00481196	0.608526
0.0257867	16.9405
0.0598708	35.4026
0.112308	55.285
0.201451	83.6884
0.232913	92.9194
0.28535	106.411
0.387602	129.134
0.521316	151.146
0.62619	166.768
0.778257	184.52
0.906728	199.432
1.04831	213.634
1.09026	215.054
