Adsorption isotherm of Nitrogen on PCN-82
DOI: 10.1039/C2dt32479b
Adsorbate Nitrogen: InChIKey IJGRMHOSHXDMSA-UHFFFAOYSA-N
Temperature: 77 K
Tabular data in the source: 0
pressure (bar)	uptake (cm3(STP)/g)
0.00182509	379.611
0.00400996	41.6106
0.00837971	547.19
0.0258587	805.661
0.0433377	910.753
0.0542621	956.199
0.0804806	981.762
0.135102	1013.01
0.244346	1044.25
0.333926	1055.61
0.508716	1072.65
0.714094	1086.85
0.832077	1086.85
0.934766	1092.53
