Adsorption isotherm of Hydrogen on PCN-82
DOI: 10.1039/C2dt32479b
Adsorbate Hydrogen: InChIKey UFHFLCQGNIYNRP-UHFFFAOYSA-N
Temperature: 77 K
Tabular data in the source: 0
pressure (bar)	uptake (cm3(STP)/g)
0.00743381	15.5203
0.0126775	26.8816
0.0257867	49.6043
0.0493834	72.327
0.0834674	98.6001
0.122795	118.482
0.175232	146.886
0.256509	180.97
0.361383	210.793
0.513451	239.907
0.704846	266.89
0.80972	279.672
0.943434	293.873
1.0719	304.525
