Adsorption isotherm of N-propane, Propene on Zr-Fumarate-MOF (MOF-801)
DOI: 10.1021/acs.chemmater.9b02322
Article source: Figure 8b (uptakes in text left column above figure)
Adsorbate N-propane: InChIKey ATUOYWHBWRKTHZ-UHFFFAOYSA-N
Adsorbate Propene: InChIKey QQONPFPTGQHPMA-UHFFFAOYSA-N
Kind: experiment
Temperature: 295 K
Tabular data in the source: 0
pressure (bar)	N-propane fraction	N-propane uptake (mmol/g)	Propene fraction	Propene uptake (mmol/g)	total uptake (mmol/g)
1	0.5	1.63	0.5	1.268	
