Adsorption isotherm of Propene on Zr-Fumarate-MOF (MOF-801)
DOI: 10.1021/acs.chemmater.9b02322
Article source: Figure 3
Adsorbate Propene: InChIKey QQONPFPTGQHPMA-UHFFFAOYSA-N
Kind: experiment
Temperature: 295 K
Tabular data in the source: 0
pressure (bar)	uptake (mmol/g)
0.00256	0.348
0.0159	0.726
0.0296	0.977
0.0424	1.16
0.0606	1.44
0.0839	1.7
0.109	1.9
0.129	2.05
0.158	2.21
0.184	2.34
0.219	2.47
0.244	2.57
0.303	2.74
0.437	3.02
0.467	3.07
0.516	3.15
0.61	3.26
0.714	3.35
0.816	3.43
0.917	3.49
1.02	3.54
