Adsorption isotherm of N-propane on Zr-Fumarate-MOF (MOF-801)
DOI: 10.1021/acs.chemmater.9b02322
Article source: Figure 3
Adsorbate N-propane: InChIKey ATUOYWHBWRKTHZ-UHFFFAOYSA-N
Kind: experiment
Temperature: 295 K
Tabular data in the source: 0
pressure (bar)	uptake (mmol/g)
0.00219	0.334
0.012	0.677
0.0219	0.957
0.0338	1.21
0.0472	1.42
0.0659	1.62
0.0882	1.79
0.113	1.93
0.141	2.07
0.162	2.15
0.198	2.29
0.224	2.37
0.261	2.47
0.308	2.58
0.444	2.8
0.512	2.89
0.61	2.98
0.714	3.06
0.816	3.13
0.917	3.18
1.01	3.22
