Adsorption isotherm of Carbon Dioxide on NH2-MIL-53(Al)
DOI: 10.1021/Ie3004336
Adsorbate Carbon Dioxide: InChIKey CURLTUGMZLYLDI-UHFFFAOYSA-N
Temperature: 308 K
Tabular data in the source: 0
pressure (bar)	uptake (cm3(STP)/g)
0.0324133	2.17706
0.0870352	4.74429
0.135102	6.87454
0.18317	8.5132
0.239976	9.87874
0.312077	11.572
0.384178	13.0468
0.462833	14.3577
0.561153	15.8871
0.687876	17.6897
0.786195	18.946
0.891069	20.4208
0.989388	21.6771
