Adsorption isotherm of Carbon Dioxide on MIL-53(Al)
DOI: 10.1021/Ie3004336
Adsorbate Carbon Dioxide: InChIKey CURLTUGMZLYLDI-UHFFFAOYSA-N
Temperature: 308 K
Tabular data in the source: 0
pressure (bar)	uptake (cm3(STP)/g)
0.0345982	1.03
0.108884	3.10563
0.187539	5.18126
0.261825	7.14765
0.333926	9.00479
0.408212	10.8619
0.510901	13.3199
0.615775	15.7233
0.716279	18.072
0.810228	20.3115
0.884514	21.9502
0.960985	23.5888
1.00468	24.4628
