Adsorption isotherm of Methane on MIL-53(Al)
DOI: 10.1021/Ie3004336
Adsorbate Methane: InChIKey VNWKTOKETHGBQD-UHFFFAOYSA-N
Temperature: 308 K
Tabular data in the source: 0
pressure (bar)	uptake (cm3(STP)/g)
0.0367831	0.0811453
0.0848503	0.561818
0.161321	1.30467
0.26401	1.74165
0.360144	2.17862
0.462833	2.30972
0.563338	2.5719
0.661657	2.79039
0.764346	3.18367
0.843002	3.18367
0.912918	3.18367
0.985018	3.27106
1.00468	3.35846
