Adsorption isotherm of Nitrogen on MIL-53(Al)
DOI: 10.1021/Ie3004336
Adsorbate Nitrogen: InChIKey IJGRMHOSHXDMSA-UHFFFAOYSA-N
Temperature: 77 K
Tabular data in the source: 0
pressure (bar)	uptake (cm3(STP)/g)
0.00182509	263.121
0.0171192	288.247
0.0717411	300.264
0.163506	307.911
0.279304	315.558
0.403842	325.39
0.561153	336.314
0.685691	347.239
0.792749	360.348
0.858296	378.919
0.906363	397.491
0.952245	423.709
0.987203	445.558
