Adsorption isotherm of Nitrogen on NH2-MIL-53(Al)
DOI: 10.1021/Ie3004336
Adsorbate Nitrogen: InChIKey IJGRMHOSHXDMSA-UHFFFAOYSA-N
Temperature: 77 K
Tabular data in the source: 0
pressure (bar)	uptake (cm3(STP)/g)
0.00400996	109.087
0.0193041	130.936
0.0630016	145.138
0.130733	160.432
0.253086	180.096
0.355775	198.667
0.526195	224.886
0.700985	255.474
0.794934	277.323
0.86922	304.634
0.912918	339.592
0.9588	380.012
0.985018	404.045
