Adsorption isotherm of Methane on NH2-MIL-53(Al)
DOI: 10.1021/Ie3004336
Adsorbate Methane: InChIKey VNWKTOKETHGBQD-UHFFFAOYSA-N
Temperature: 308 K
Tabular data in the source: 0
pressure (bar)	uptake (cm3(STP)/g)
0.0870352	0.124843
0.137287	0.561818
0.207203	1.17358
0.307707	1.21728
0.412581	1.21728
0.462833	1.52316
0.561153	1.65425
0.639808	1.74165
0.668212	1.39207
0.814598	1.78535
0.86485	1.96014
0.891069	1.56686
0.941321	1.82904
0.998128	2.22232
