Adsorption isotherm of Carbon Dioxide on NH2-MIL-53(Al)
DOI: 10.1021/Ie3004336
Adsorbate Carbon Dioxide: InChIKey CURLTUGMZLYLDI-UHFFFAOYSA-N
Temperature: 308 K
Tabular data in the source: 0
pressure (bar)	uptake (cm3(STP)/g)
1.01444	1.81032
3.12342	1.85402
5.23241	2.00696
7.28113	2.2036
10.4145	2.59688
12.1017	3.8204
13.7888	5.02209
15.5363	6.22377
17.2837	7.01032
19.0312	7.60024
20.7184	7.97166
23.4299	8.80192
25.9004	9.52293
