Adsorption isotherm of Nitrogen on 18C6-COF
DOI: 10.1039/c9cc07639e
Article source: Figure 3a
Adsorbate Nitrogen: InChIKey IJGRMHOSHXDMSA-UHFFFAOYSA-N
Kind: experiment
Temperature: 77 K
Tabular data in the source: 0
pressure (bar)	uptake (cm3(STP)/g)
0.016498	6.30786
0.014196	4.5833
0.040093	8.92352
0.067715	10.3044
0.094867	11.0258
0.122269	11.5198
0.150007	11.9268
0.178205	12.2789
0.206403	12.4849
0.234025	12.6881
0.26088	12.9009
0.288503	13.1019
0.316317	13.3323
0.343939	13.47
0.371562	13.6734
0.399184	13.7952
0.426807	13.8616
0.454429	13.9897
0.484123	14.1587
0.510072	14.3483
0.537296	14.447
0.565034	14.6343
0.592541	14.7242
0.620279	14.9234
0.651507	14.7465
0.679129	14.9568
0.706752	15.0917
0.734374	15.3324
0.761997	15.64
0.789619	15.9499
0.936959	23.2497
0.965444	26.9997
0.998246	34.4621
0.925815	19.5257
0.009302	6.63987
0.102317	11.9293
0.127121	12.2106
0.154406	12.5482
0.17921	12.7733
0.204014	13.0547
0.95372	21.664
0.976044	25.2653
0.905972	21.2138
0.877447	19.6945
0.852643	18.7942
0.827839	17.8939
0.800554	17.5563
0.77203	17.1624
0.764588	17.0498
0.739784	16.8248
0.71374	16.5153
0.682735	16.2902
0.65793	16.037
0.631266	15.9244
0.605842	15.8682
0.581037	15.6994
0.550032	15.615
0.522748	15.3899
0.501044	15.1929
0.47438	14.6302
0.452056	14.6865
0.398107	14.4051
0.370202	14.0675
0.2375	13.336
0.261064	13.4486
0.282147	13.6736
0.311912	13.8424
0.342918	14.0113
0.082474	10.6913
0.805515	16.2621
0.83404	16.5997
0.862565	17.1624
0.876207	17.6125
0.897291	18.4566
