Adsorption isotherm of Nitrogen on 15C5-COF
DOI: 10.1039/c9cc07639e
Article source: Figure 3a
Adsorbate Nitrogen: InChIKey IJGRMHOSHXDMSA-UHFFFAOYSA-N
Kind: experiment
Temperature: 77 K
Tabular data in the source: 0
pressure (bar)	uptake (cm3(STP)/g)
0.014446	7.59213
0.005168	3.07124
0.041619	11.7163
0.068128	13.0114
0.094637	14.0173
0.121146	14.8138
0.147656	15.0556
0.174165	15.7546
0.200674	16.2708
0.227184	16.573
0.253693	16.7371
0.280202	17.1558
0.306712	17.5228
0.333221	17.7926
0.35973	18.1812
0.38624	18.5913
0.412749	18.8071
0.439258	19.2151
0.465768	19.5518
0.49294	19.7707
0.519891	20.2277
0.545747	20.544
0.572257	21.1547
0.598766	21.5607
0.66311	23.031
0.690548	23.613
0.715677	24.1051
0.742823	24.6048
0.769247	25.2314
0.795205	26.1175
0.821824	27.2059
0.848775	28.8446
0.874622	30.5956
0.902236	33.3148
0.927935	35.7687
0.914769	42.3965
0.941279	51.0283
0.95122	42.2954
0.974415	54.0996
0.979386	80.9305
0.997611	98.5591
0.643183	22.5508
0.618946	21.719
0.009459	7.39371
0.424454	18.854
0.399625	18.6691
0.374796	18.4843
0.34642	18.1146
0.316862	17.7449
0.292034	17.3752
0.268387	17.1904
0.235282	16.7283
0.210453	16.2662
0.18326	15.7116
0.154884	15.342
0.128873	14.7874
0.104044	14.4177
0.879648	37.3383
0.851272	34.0111
0.831172	31.793
0.821714	31.0536
0.788609	29.2052
0.76378	27.3567
0.740134	27.1719
0.690476	25.878
0.71294	26.2477
0.658553	24.7689
0.630178	23.8447
0.606531	23.2902
0.579338	23.2902
0.547415	22.366
0.521404	21.9963
0.501896	21.6266
