Adsorption isotherm of Nitrogen on 12C4-COF
DOI: 10.1039/c9cc07639e
Article source: Figure 3a
Adsorbate Nitrogen: InChIKey IJGRMHOSHXDMSA-UHFFFAOYSA-N
Kind: experiment
Temperature: 77 K
Tabular data in the source: 0
pressure (bar)	uptake (cm3(STP)/g)
0.018173	25.37
0.010749	20.6988
0.010749	14.8419
0.038161	32.8876
0.063859	39.7968
0.089214	45.8142
0.100978	56.5091
0.115254	48.5022
0.126105	58.742
0.139239	49.616
0.149518	59.3151
0.163224	50.7189
0.174645	60.0287
0.187209	51.5947
0.197488	60.4883
0.211193	52.4381
0.221473	61.1641
0.235178	53.022
0.245457	61.456
0.259163	53.6708
0.269442	62.4616
0.283148	54.4169
0.293427	62.494
0.307133	54.9034
0.317412	62.786
0.331117	55.3576
0.341397	63.0023
0.355102	55.9739
0.365381	63.305
0.379087	56.5254
0.389366	63.5429
0.403072	56.9471
0.427056	57.4661
0.440762	64.2198
0.451041	58.05
0.465889	64.5323
0.475026	58.4717
0.499011	58.8609
0.522995	59.3475
0.534988	68.6952
0.54698	59.8665
0.560686	68.9818
0.570965	60.2558
0.584671	69.2629
0.59495	60.7748
0.608655	69.6521
0.618934	61.2938
0.63264	69.6413
0.642919	61.6182
0.656625	69.9225
0.666904	62.1697
0.68061	70.2901
0.690889	62.7211
0.704594	70.7551
0.714874	63.2726
0.728579	71.2092
0.738858	63.8889
0.752564	71.8039
0.762843	64.4079
0.776549	72.3716
0.786828	65.1864
0.800533	73.2636
0.810813	65.9325
0.824518	74.0422
0.834797	67.003
0.848503	75.1288
0.858782	68.1492
0.872488	76.8427
0.882767	69.5332
0.920457	73.1339
0.942729	83.2024
0.959861	78.0321
0.977849	83.8483
0.999264	98.3083
0.014965	23.6364
0.00873	33.5537
0.90039	71.0744
0.905378	78.843
0.967732	88.595
0.501325	67.438
0.404053	63.8017
