Adsorption isotherm of Nitrogen on N-doped NPC-Pd
DOI: 10.1016/j.catcom.2014.12.004
Article source: Figure  4
Adsorbate Nitrogen: InChIKey IJGRMHOSHXDMSA-UHFFFAOYSA-N
Kind: experiment
Temperature: 77 K
Tabular data in the source: 0
pressure (bar)	uptake (cm3(STP)/g)
0.092885	126.32
0.093138	85.79
0.093351	76.45
0.093361	77.68
0.093786	71.49
0.093827	61.69
0.094475	68.82
0.094475	68.89
0.094496	69.12
0.09943	145
0.104861	154.69
0.110505	160.54
0.116605	167.97
0.132432	177.65
0.146455	183.06
0.170652	198.37
0.18738	209.18
0.194159	212.78
0.20569	215.93
0.217454	218.86
0.226269	222.69
0.240292	225.61
0.249563	231.92
0.261094	233.27
0.273304	238.9
0.292758	243.63
0.316043	250.38
0.330522	249.25
0.339793	256.23
0.372582	263.89
0.385025	263.89
0.408765	271.77
0.429567	274.25
0.473664	287.31
0.517761	303.07
0.524549	299.01
0.552576	337.74
0.567065	310.5
0.593268	363.41
0.615002	320.86
0.641438	381.87
0.663172	334.37
0.683042	399.66
0.710886	344.95
0.727128	416.77
0.754304	362.96
0.774619	435.01
0.800883	377.15
0.826174	462.26
0.843166	401.24
0.877951	493.55
0.886584	423.53
0.919312	532.51
0.926364	464.96
0.952303	580.24
0.960034	513.14
0.977391	626.18
0.981262	572.14
0.995457	664
1.00181	634.51
1.00834	698.23
1.02099	701.83
