Adsorption isotherm of Hydrogen on JUC-568
DOI: 10.1021/jacs.0c12499
Article source: Figure 4c
Adsorbate Hydrogen: InChIKey UFHFLCQGNIYNRP-UHFFFAOYSA-N
Kind: experiment
Temperature: 77 K
Tabular data in the source: 0
pressure (bar)	uptake (cm3(STP)/g)
-0.00463	5.45455
-0.00463	12.7273
0	21.8182
0.00463	32.7273
0.00463	38.1818
0.018519	54.5455
0.027778	63.6364
0.037037	72.7273
0.050926	80
0.060185	85.4545
0.069444	90.9091
0.078704	96.3636
0.087963	100
0.097222	105.455
0.145833	125.455
0.196759	142.727
0.247685	156.364
0.298611	169.091
0.347222	180
0.395833	190
0.446759	200
0.497685	207.273
0.546296	215.455
0.597222	224.545
0.648148	231.818
0.696759	237.273
0.747685	244.545
0.798611	250.909
0.847222	258.182
0.898148	263.636
0.946759	269.091
0.997685	273.636
0.993056	276.364
0.946759	273.636
0.898148	268.182
0.847222	262.727
0.798611	256.364
0.74537	250.909
0.699074	243.636
0.645833	236.364
0.597222	229.091
0.546296	220.909
0.49537	211.818
0.449074	204.545
0.395833	195.455
0.347222	183.636
0.296296	172.727
0.25	160
0.194444	145.455
0.148148	130
0.097222	109.091
0.071759	93.6364
0.05787	86.3636
0.043981	79.0909
0.002315	26.3636
