Adsorption isotherm of Methane on JUC-568
DOI: 10.1021/jacs.0c12499
Article source: Figure 4b
Adsorbate Methane: InChIKey VNWKTOKETHGBQD-UHFFFAOYSA-N
Kind: experiment
Temperature: 273 K
Tabular data in the source: 0
pressure (bar)	uptake (cm3(STP)/g)
-0.00463	0
0.009259	0.736196
0.018519	1.47239
0.027778	2.57669
0.041667	3.31288
0.050926	4.78528
0.064815	5.88957
0.074074	6.62577
0.087963	7.73006
0.101852	8.83436
0.157407	12.1472
0.203704	15.2761
0.25463	18.589
0.303241	21.1656
0.351852	23.9264
0.402778	26.319
0.453704	28.8957
0.5	30.9202
0.553241	32.9448
0.601852	35.1534
0.650463	37.1779
0.701389	38.8344
0.752315	40.8589
0.803241	42.5153
0.854167	44.1718
0.900463	45.6442
0.951389	46.9325
0.99537	48.4049
0.993056	48.2209
0.944444	46.9325
0.895833	45.2761
0.847222	43.8037
0.793981	42.3313
0.740741	40.4908
0.69213	38.8344
0.643519	36.9939
0.597222	35.5215
0.548611	33.3129
0.49537	31.2883
0.444444	29.0798
0.395833	26.6871
0.344907	24.1104
0.296296	21.3497
0.24537	18.4049
0.196759	15.4601
0.145833	12.1472
0.0625	6.07362
0.025463	2.76074
