Adsorption isotherm of Methane on JUC-568
DOI: 10.1021/jacs.0c12499
Article source: Figure 4b
Adsorbate Methane: InChIKey VNWKTOKETHGBQD-UHFFFAOYSA-N
Kind: experiment
Temperature: 298 K
Tabular data in the source: 0
pressure (bar)	uptake (cm3(STP)/g)
0.002315	-0.184049
0.025463	0.552147
0.046296	1.47239
0.074074	2.39264
0.092593	2.94479
0.108796	4.04908
0.148148	6.07362
0.201389	8.09816
0.252315	10.1227
0.300926	12.3313
0.349537	13.9877
0.402778	15.2761
0.451389	16.9325
0.502315	18.589
0.548611	20.0613
0.599537	21.5337
0.650463	23.0061
0.701389	24.1104
0.75	25.7669
0.798611	26.8712
0.847222	28.3436
0.898148	29.6319
0.949074	30.7362
0.997685	31.8405
0.988426	31.8405
0.946759	30.7362
0.893519	29.4479
0.842593	28.1595
0.791667	26.8712
0.740741	25.7669
0.694444	24.2945
0.645833	23.3742
0.594907	21.7178
0.546296	20.2454
0.49537	18.773
0.395833	15.8282
0.342593	13.9877
0.291667	12.3313
0.24537	10.4908
0.196759	8.28221
0.141204	6.44172
0.104167	4.23313
0.050926	1.84049
