Adsorption isotherm of Methane on JUC-569
DOI: 10.1021/jacs.0c12499
Article source: Figure 4b
Adsorbate Methane: InChIKey VNWKTOKETHGBQD-UHFFFAOYSA-N
Kind: experiment
Temperature: 298 K
Tabular data in the source: 0
pressure (bar)	uptake (cm3(STP)/g)
0	-0.368098
0.018519	0
0.037037	0.184049
0.055556	0.368098
0.078704	1.10429
0.099537	1.28834
0.152778	1.84049
0.201389	2.57669
0.252315	3.12883
0.300926	3.86503
0.354167	4.60123
0.400463	4.96933
0.451389	5.70552
0.5	6.07362
0.548611	6.44172
0.601852	7.17791
0.650463	7.91411
0.699074	8.28221
0.752315	9.0184
0.800926	9.3865
0.854167	10.1227
0.898148	10.4908
0.951389	11.227
0.997685	11.5951
0.990741	11.411
0.944444	11.0429
0.893519	10.4908
0.842593	9.93865
0.796296	9.7546
0.74537	9.0184
0.696759	8.83436
0.645833	7.91411
0.597222	7.54601
0.543981	6.80982
0.49537	6.62577
0.444444	5.88957
0.393519	5.33742
0.344907	4.41718
0.296296	4.04908
0.24537	3.12883
0.194444	2.57669
0.143519	1.84049
0.094907	0.736196
0.078704	0
0.006944	-0.552147
