Adsorption isotherm of Carbon Dioxide on JUC-569
DOI: 10.1021/jacs.0c12499
Article source: Figure 4a
Adsorbate Carbon Dioxide: InChIKey CURLTUGMZLYLDI-UHFFFAOYSA-N
Kind: experiment
Temperature: 273 K
Tabular data in the source: 0
pressure (bar)	uptake (cm3(STP)/g)
0.046256	9.77528
0.066079	10.7865
0.0837	12.1348
0.105727	13.4831
0.118943	14.1573
0.140969	15.5056
0.187225	18.2022
0.240088	20.8989
0.288546	23.2584
0.334802	26.2921
0.378855	28.3146
0.429515	30.3371
0.477974	33.0337
0.524229	34.7191
0.570485	37.0787
0.621145	38.764
0.667401	41.1236
0.713656	42.4719
0.764317	44.4944
0.80837	46.1798
0.859031	47.8652
0.907489	49.5506
0.953744	51.9101
0.995595	53.2584
0.986784	52.9213
0.949339	51.573
0.900881	49.8876
0.852423	48.2022
0.803965	46.8539
0.757709	44.8315
0.711454	43.4831
0.660793	41.4607
0.614537	39.7753
0.568282	37.7528
0.522026	35.3933
0.473568	33.3708
0.427313	31.6854
0.378855	29.3258
0.332599	26.9663
0.284141	24.2697
0.23348	22.2472
0.187225	19.2135
0.140969	16.5169
0.101322	13.1461
