Adsorption isotherm of Carbon Dioxide on JUC-568
DOI: 10.1021/jacs.0c12499
Article source: Figure 4a
Adsorbate Carbon Dioxide: InChIKey CURLTUGMZLYLDI-UHFFFAOYSA-N
Kind: experiment
Temperature: 273 K
Tabular data in the source: 0
pressure (bar)	uptake (cm3(STP)/g)
0.048458	10.1124
0.057269	12.1348
0.066079	15.8427
0.077093	18.5393
0.088106	21.573
0.099119	24.6067
0.114537	26.9663
0.123348	28.9888
0.132159	30.3371
0.145374	33.0337
0.19163	40.4494
0.237885	45.5056
0.286344	51.236
0.332599	55.9551
0.38326	60.6742
0.431718	64.7191
0.480176	68.764
0.526432	72.809
0.57489	75.5056
0.621145	79.5506
0.669604	82.9213
0.715859	85.618
0.762115	87.9775
0.810573	91.0112
0.854626	93.7079
0.907489	96.0674
0.949339	98.0899
1	100.112
0.991189	100.449
0.942731	99.1011
0.900881	96.7416
0.85022	94.7191
0.806167	92.3596
0.759912	90.3371
0.711454	86.9663
0.662996	84.9438
0.614537	81.9101
0.566079	78.8764
0.517621	75.5056
0.471366	72.1348
0.422907	68.0899
0.378855	64.382
0.328194	59.6629
0.284141	54.6067
0.23348	49.2135
0.187225	42.809
0.138767	35.0562
0.118943	28.9888
0.092511	24.9438
0.085903	21.573
0.055066	12.1348
