Adsorption isotherm of Methane on JUC-569
DOI: 10.1021/jacs.0c12499
Article source: Figure 4b
Adsorbate Methane: InChIKey VNWKTOKETHGBQD-UHFFFAOYSA-N
Kind: experiment
Temperature: 273 K
Tabular data in the source: 0
pressure (bar)	uptake (cm3(STP)/g)
0.002315	0.184049
0.027778	0.736196
0.046296	1.10429
0.069444	1.84049
0.083333	2.20859
0.092593	2.57669
0.159722	3.86503
0.203704	4.60123
0.25463	5.88957
0.303241	6.80982
0.351852	8.09816
0.400463	9.0184
0.451389	10.1227
0.502315	11.411
0.553241	12.3313
0.601852	12.8834
0.652778	13.9877
0.699074	14.908
0.75	15.8282
0.803241	16.1963
0.849537	17.1166
0.902778	17.8528
0.949074	18.4049
0.997685	19.1411
0.988426	19.1411
0.946759	18.589
0.893519	17.8528
0.796296	16.3804
0.74537	15.2761
0.696759	14.5399
0.643519	13.8037
0.590278	12.8834
0.543981	11.9632
0.49537	11.411
0.449074	10.3067
0.398148	9.3865
0.347222	8.09816
0.293981	7.36196
0.24537	6.25767
0.199074	4.78528
0.150463	3.86503
0.106481	2.57669
0.064815	1.10429
0.018519	0.368098
