Adsorption isotherm of Nitrogen on JUC-569
DOI: 10.1021/jacs.0c12499
Article source: Figure 3
Adsorbate Nitrogen: InChIKey IJGRMHOSHXDMSA-UHFFFAOYSA-N
Kind: experiment
Temperature: 77 K
Tabular data in the source: 0
pressure (bar)	uptake (cm3(STP)/g)
4.1e-05	204.28
0.000102	242.218
0.000142	248.054
0.000285	269.455
0.000386	280.156
0.000467	285.019
0.00065	294.747
0.001118	308.366
0.001585	319.066
0.002073	325.875
0.00252	332.685
0.002987	337.549
0.003455	342.412
0.003922	346.303
0.004369	350.195
0.004816	353.113
0.005284	356.031
0.005751	358.949
0.006219	360.895
0.006686	363.813
0.007153	366.732
0.0076	369.65
0.008068	372.568
0.008535	374.514
0.009003	377.432
0.00947	381.323
0.009917	384.241
0.010385	388.132
0.010852	392.023
0.01134	396.887
0.011766	403.697
0.012234	414.397
0.012661	435.798
0.013108	485.409
0.013209	498.054
0.013189	500
0.012945	494.163
0.012457	477.626
0.011949	464.981
0.011766	459.144
0.011258	453.307
0.010811	447.471
0.010344	445.525
0.009877	442.607
0.009409	440.661
0.008942	439.689
0.008474	438.716
0.008007	436.77
0.00756	435.798
0.007072	434.825
0.006645	431.907
0.006158	394.942
0.005629	390.078
0.004979	388.132
0.004491	385.214
0.004308	384.241
0.003841	382.296
0.003353	377.432
0.002906	374.514
0.002459	368.677
0.001992	360.895
0.001524	353.113
0.001077	340.467
0.000671	324.903
