Adsorption isotherm of Carbon Dioxide on JUC-568
DOI: 10.1021/jacs.0c12499
Article source: Figure 4a
Adsorbate Carbon Dioxide: InChIKey CURLTUGMZLYLDI-UHFFFAOYSA-N
Kind: experiment
Temperature: 298 K
Tabular data in the source: 0
pressure (bar)	uptake (cm3(STP)/g)
0.048458	9.4382
0.061674	11.4607
0.07489	13.4831
0.088106	14.8315
0.101322	17.5281
0.114537	18.8764
0.123348	20.8989
0.136564	22.2472
0.145374	23.5955
0.189427	29.6629
0.237885	34.382
0.288546	38.764
0.332599	42.809
0.378855	46.5169
0.427313	49.5506
0.477974	53.2584
0.522026	56.9663
0.572687	60
0.621145	62.6966
0.667401	65.3933
0.715859	68.764
0.762115	71.1236
0.810573	74.4944
0.859031	76.5169
0.903084	79.2135
0.953744	81.573
0.995595	83.9326
0.988987	83.9326
0.947137	82.5843
0.900881	79.8876
0.852423	77.5281
0.806167	75.5056
0.759912	72.809
0.709251	69.7753
0.665198	67.4157
0.614537	65.0562
0.570485	61.6854
0.519824	58.9888
0.471366	55.2809
0.42511	52.2472
0.378855	48.8764
0.328194	44.4944
0.281938	40.4494
0.23348	35.7303
0.189427	31.0112
0.140969	24.2697
0.110132	19.5506
0.090308	16.8539
