Adsorption isotherm of Nitrogen on JUC-568
DOI: 10.1021/jacs.0c12499
Article source: Figure S14
Adsorbate Nitrogen: InChIKey IJGRMHOSHXDMSA-UHFFFAOYSA-N
Kind: experiment
Temperature: 77 K
Tabular data in the source: 0
pressure (bar)	uptake (cm3(STP)/g)
-0.000877	47.343
-0.000877	96.1353
0	143.478
0	190.821
-0.000877	236.232
0	281.159
0.005263	312.077
0.007018	319.807
0.015789	329.469
0.030702	338.647
0.040351	341.063
0.057018	345.894
0.084211	351.208
0.119298	356.522
0.154386	360.386
0.189474	362.319
0.224561	365.217
0.259649	367.15
0.292982	368.599
0.329825	370.048
0.363158	371.014
0.398246	373.43
0.434211	374.396
0.468421	374.396
0.503509	376.328
0.538596	376.328
0.574561	376.812
0.609649	377.295
0.64386	379.71
0.680702	379.71
0.713158	380.193
0.748246	381.643
0.783333	381.159
0.818421	382.609
0.853509	384.058
0.887719	385.024
0.923684	385.99
0.957895	389.372
0.987719	397.101
0.992982	408.696
0.97807	397.585
0.936842	392.754
0.9	391.787
0.864912	390.821
0.829825	390.338
0.795614	389.855
0.778947	389.855
0.74386	388.889
0.689474	389.372
0.674561	388.406
0.620175	388.406
0.604386	388.406
0.568421	387.923
0.534211	387.44
0.499123	386.473
0.464912	384.541
0.42807	383.092
0.374561	381.643
0.359649	381.643
0.324561	380.193
0.290351	378.744
0.253509	377.295
0.219298	375.362
0.184211	372.947
0.149123	370.531
0.113158	366.667
0.078947	361.353
0.049123	353.623
