Adsorption isotherm of Hydrogen on JUC-569
DOI: 10.1021/jacs.0c12499
Article source: Figure 4c
Adsorbate Hydrogen: InChIKey UFHFLCQGNIYNRP-UHFFFAOYSA-N
Kind: experiment
Temperature: 77 K
Tabular data in the source: 0
pressure (bar)	uptake (cm3(STP)/g)
-0.002315	2.72727
0	10.9091
0.009259	19.0909
0.016204	29.0909
0.027778	36.3636
0.037037	41.8182
0.053241	47.2727
0.069444	52.7273
0.083333	58.1818
0.097222	62.7273
0.145833	76.3636
0.194444	85.4545
0.24537	94.5455
0.293981	101.818
0.347222	109.091
0.398148	116.364
0.446759	120.909
0.49537	126.364
0.546296	131.818
0.597222	137.273
0.645833	140.909
0.696759	145.455
0.74537	149.091
0.798611	152.727
0.847222	156.364
0.900463	160.909
0.946759	162.727
0.99537	166.364
0.988426	171.818
0.946759	169.091
0.900463	165.455
0.844907	161.818
0.798611	158.182
0.747685	154.545
0.696759	150.909
0.648148	145.455
0.594907	140.909
0.546296	136.364
0.497685	131.818
0.446759	124.545
0.395833	121.818
0.349537	114.545
0.296296	106.364
0.247685	100.909
0.194444	90.9091
0.148148	81.8182
0.097222	66.3636
0.074074	56.3636
0.050926	50
0.013889	30.9091
-0.00463	7.27273
