Adsorption isotherm of Water, 4-hydroxy-3-nitrophenylarsonic acid on FeOOH
DOI: 10.1016/j.cej.2016.10.084
Article source: Figure 2
Adsorbate Water: InChIKey XLYOFNOQVPJJNP-UHFFFAOYSA-N
Adsorbate 4-hydroxy-3-nitrophenylarsonic acid: InChIKey XMVJITFPVVRMHC-UHFFFAOYSA-N
Kind: experiment
Temperature: 298 K
Tabular data in the source: 0
pressure (bar)	Water fraction	Water uptake (mmol/g)	4-hydroxy-3-nitrophenylarsonic acid fraction	4-hydroxy-3-nitrophenylarsonic acid uptake (mmol/g)	total uptake (mmol/g)
1.01325			0.00242	0.05652	
1.01325			0.01952	0.06882	
1.01325			0.03431	0.07412	
1.01325			0.07203	0.08351	
1.01325			0.10394	0.09024	
1.01325			0.16776	0.09163	
