Adsorption isotherm of 4-aminophenylarsonic acid, Water on FeOOH
DOI: 10.1016/j.cej.2016.10.084
Article source: Figure 2
Adsorbate 4-aminophenylarsonic acid: InChIKey XKNKHVGWJDPIRJ-UHFFFAOYSA-N
Adsorbate Water: InChIKey XLYOFNOQVPJJNP-UHFFFAOYSA-N
Kind: experiment
Temperature: 298 K
Tabular data in the source: 0
pressure (bar)	4-aminophenylarsonic acid fraction	4-aminophenylarsonic acid uptake (mmol/g)	Water fraction	Water uptake (mmol/g)	total uptake (mmol/g)
1.01325	0.06093	0.14687			
1.01325	0.07619	0.17503			
1.01325	0.0852	0.22906			
1.01325	0.12599	0.28461			
1.01325	0.16593	0.29678			
1.01325	0.35866	0.31197			
