Adsorption isotherm of 4-aminophenylarsonic acid, Water on Fe/MN binary oxide (57:1)
DOI: 10.1016/j.cej.2016.10.084
Article source: Figure 2
Adsorbate 4-aminophenylarsonic acid: InChIKey XKNKHVGWJDPIRJ-UHFFFAOYSA-N
Adsorbate Water: InChIKey XLYOFNOQVPJJNP-UHFFFAOYSA-N
Kind: experiment
Temperature: 298 K
Tabular data in the source: 0
pressure (bar)	4-aminophenylarsonic acid fraction	4-aminophenylarsonic acid uptake (mmol/g)	Water fraction	Water uptake (mmol/g)	total uptake (mmol/g)
1.01325	0.04746	0.1796			
1.01325	0.05953	0.23819			
1.01325	0.06961	0.27853			
1.01325	0.15654	0.33787			
1.01325	0.25365	0.41244			
1.01325	0.50581	0.43828			
1.01325	0.69441	0.45956			
1.01325	0.85314	0.51128			
