Adsorption isotherm of 4-aminophenylarsonic acid, Water on MnO2
DOI: 10.1016/j.cej.2016.10.084
Article source: Figure 2
Adsorbate 4-aminophenylarsonic acid: InChIKey XKNKHVGWJDPIRJ-UHFFFAOYSA-N
Adsorbate Water: InChIKey XLYOFNOQVPJJNP-UHFFFAOYSA-N
Kind: experiment
Temperature: 298 K
Tabular data in the source: 0
pressure (bar)	4-aminophenylarsonic acid fraction	4-aminophenylarsonic acid uptake (mmol/g)	Water fraction	Water uptake (mmol/g)	total uptake (mmol/g)
1.01325	0.07976	0.0563			
1.01325	0.09601	0.09435			
1.01325	0.16978	0.11032			
1.01325	0.20756	0.14989			
1.01325	0.38479	0.19172			
1.01325	0.55902	0.21681			
