Adsorption isotherm of Water, 4-hydroxy-3-nitrophenylarsonic acid on MnO2
DOI: 10.1016/j.cej.2016.10.084
Article source: Figure 2
Adsorbate Water: InChIKey XLYOFNOQVPJJNP-UHFFFAOYSA-N
Adsorbate 4-hydroxy-3-nitrophenylarsonic acid: InChIKey XMVJITFPVVRMHC-UHFFFAOYSA-N
Kind: experiment
Temperature: 298 K
Tabular data in the source: 0
pressure (bar)	Water fraction	Water uptake (mmol/g)	4-hydroxy-3-nitrophenylarsonic acid fraction	4-hydroxy-3-nitrophenylarsonic acid uptake (mmol/g)	total uptake (mmol/g)
1.01325			0.03016	0.01281	
1.01325			0.08002	0.01813	
1.01325			0.11695	0.02653	
1.01325			0.18131	0.04449	
1.01325			0.3887	0.04851	
