Adsorption isotherm of Water, 4-hydroxy-3-nitrophenylarsonic acid on Fe/MN binary oxide (57:1)
DOI: 10.1016/j.cej.2016.10.084
Article source: Figure 2
Adsorbate Water: InChIKey XLYOFNOQVPJJNP-UHFFFAOYSA-N
Adsorbate 4-hydroxy-3-nitrophenylarsonic acid: InChIKey XMVJITFPVVRMHC-UHFFFAOYSA-N
Kind: experiment
Temperature: 298 K
Tabular data in the source: 0
pressure (bar)	Water fraction	Water uptake (mmol/g)	4-hydroxy-3-nitrophenylarsonic acid fraction	4-hydroxy-3-nitrophenylarsonic acid uptake (mmol/g)	total uptake (mmol/g)
1.01325			0.02436	0.12172	
1.01325			0.06034	0.15516	
1.01325			0.09298	0.1807	
1.01325			0.1633	0.21106	
1.01325			0.25375	0.23045	
1.01325			0.38776	0.24554	
