Adsorption isotherm of Acetylene, Ethene on TIFSIX-2-Ni-i
DOI: 10.1016/j.cej.2018.07.104
Article source: Table S6
Adsorbate Acetylene: InChIKey HSFWRNGVRCDJHI-UHFFFAOYSA-N
Adsorbate Ethene: InChIKey VGGSQFUCUMXWEO-UHFFFAOYSA-N
Kind: experiment
Temperature: 298 K
Tabular data in the source: 0
pressure (bar)	Acetylene fraction	Acetylene uptake (mmol/g)	Ethene fraction	Ethene uptake (mmol/g)	total uptake (mmol/g)
1	0.01	0.481	0.99	3.175	
