Adsorption isotherm of Acetylene on TIFSIX-2-Ni-i
DOI: 10.1016/j.cej.2018.07.104
Article source: Figure 3a
Adsorbate Acetylene: InChIKey HSFWRNGVRCDJHI-UHFFFAOYSA-N
Kind: experiment
Temperature: 298 K
Tabular data in the source: 0
pressure (bar)	uptake (mmol/g)
0.000524	0.197
0.00262	0.488
0.00577	0.794
0.00891	1.04
0.00996	1.15
0.0136	1.3
0.0152	1.4
0.0199	1.54
0.0241	1.66
0.0283	1.76
0.0325	1.85
0.0388	1.98
0.0456	2.09
0.0519	2.18
0.0587	2.27
0.0666	2.35
0.0734	2.42
0.0786	2.47
0.0854	2.53
0.0922	2.57
0.098	2.62
0.104	2.67
0.111	2.72
0.119	2.76
0.133	2.83
0.146	2.9
0.159	2.96
0.172	3.02
0.187	3.07
0.2	3.12
0.212	3.16
0.226	3.21
0.238	3.25
0.252	3.29
0.267	3.33
0.292	3.39
0.319	3.46
0.346	3.5
0.373	3.56
0.399	3.6
0.426	3.65
0.452	3.69
0.478	3.73
0.506	3.76
0.534	3.8
0.585	3.86
0.639	3.92
0.692	3.97
0.746	4.01
0.799	4.05
0.854	4.1
0.906	4.13
0.96	4.17
