Adsorption isotherm of Ethene on TIFSIX-2-Ni-i
DOI: 10.1016/j.cej.2018.07.104
Article source: Figure 3a
Adsorbate Ethene: InChIKey VGGSQFUCUMXWEO-UHFFFAOYSA-N
Kind: experiment
Temperature: 298 K
Tabular data in the source: 0
pressure (bar)	uptake (mmol/g)
0.00367	0.0147
0.0126	0.0766
0.0215	0.124
0.0304	0.179
0.0409	0.222
0.0498	0.266
0.0587	0.31
0.0666	0.346
0.0744	0.379
0.0823	0.412
0.0907	0.445
0.0985	0.485
0.107	0.514
0.113	0.539
0.119	0.572
0.133	0.623
0.146	0.663
0.16	0.722
0.172	0.769
0.187	0.827
0.199	0.868
0.211	0.908
0.225	0.951
0.24	1
0.253	1.05
0.266	1.09
0.291	1.17
0.318	1.24
0.345	1.33
0.372	1.4
0.398	1.46
0.425	1.53
0.452	1.6
0.478	1.66
0.506	1.72
0.533	1.78
0.585	1.88
0.639	1.97
0.692	2.05
0.746	2.12
0.799	2.19
0.854	2.24
0.906	2.32
0.96	2.37
