Adsorption isotherm of Nitrogen on ZIF-8
DOI: 10.1021/acs.jced.1c00900
Article source: AIF Supplementary Data
Adsorbate Nitrogen: InChIKey IJGRMHOSHXDMSA-UHFFFAOYSA-N
Kind: experiment
Isotherm type: excess
Temperature: 333 K
Tabular data in the source: 0
pressure (bar)	uptake (mmol/g)
0	0
0.544	0.02132
2.035	0.09705
4.963	0.23909
7.7322	0.3663
10.0268	0.46521
14.8762	0.66094
19.9586	0.84554
25.0962	1.01161
30.2084	1.16017
35.185	1.29368
40.2436	1.4085
