Adsorption isotherm of Nitrogen on ZIF-8
DOI: 10.1021/acs.jced.1c00900
Article source: AIF Supplementary Data
Adsorbate Nitrogen: InChIKey IJGRMHOSHXDMSA-UHFFFAOYSA-N
Kind: experiment
Temperature: 77 K
Tabular data in the source: 0
pressure (bar)	uptake (cm3(STP)/g)
3e-06	0.005512
4e-06	0.461262
6e-06	0.912852
8e-06	1.36142
9e-06	1.80655
9e-06	1.80652
1e-05	1.80642
1e-05	1.80646
1.2e-05	2.13268
1.9e-05	3.87615
3e-05	6.2339
4e-05	8.72546
5e-05	11.2429
6.1e-05	14.2016
7.1e-05	16.9133
8.2e-05	20.0641
9.2e-05	23.2972
0.000103	27.0159
0.000156	48.1699
0.000208	77.4437
0.000259	111.41
0.000309	141.069
0.000361	164.603
0.000412	181.054
0.000519	203.78
0.00062	218.353
0.000729	229.946
0.000828	238.158
0.000938	245.579
0.001033	251.031
0.002099	281.288
0.003099	292.719
0.004126	299.502
0.00516	304.213
0.006199	340.696
0.007313	349.641
0.008272	354.275
0.00928	357.629
0.010254	359.987
0.011803	362.927
0.013349	366.761
0.014907	374.315
0.01647	382.094
0.017971	394.924
0.019414	413.556
0.021525	423.364
0.023712	426.772
0.026776	427.888
0.042684	429.2
0.058937	430
0.074724	430.597
0.090215	431.076
0.103096	431.426
0.13272	432.096
0.1635	432.683
0.19418	433.215
0.22489	433.698
0.255552	434.137
0.286296	434.551
0.317095	434.946
0.347875	435.333
0.37836	435.717
0.409004	436.112
0.439648	436.554
0.470281	436.937
0.500909	437.307
0.531374	437.68
0.561904	438.072
0.592462	438.46
0.623053	438.846
0.653482	439.237
0.684176	439.688
0.714568	440.21
0.745467	440.668
0.775607	441.164
0.806403	441.766
0.827143	442.241
0.847362	442.698
0.867611	443.234
0.887775	443.912
0.907485	444.909
0.91883	445.506
0.928749	446.135
0.938697	446.82
0.948598	447.753
0.958501	448.878
0.969512	450.571
0.978592	452.698
0.989339	456.42
0.993525	458.798
0.998678	462.387
1.00292	467.95
1.0069	475.714
1.01173	497.252
1.0107	496.252
1.00931	493.691
1.0039	481.992
0.998637	472.969
0.993532	467.07
0.986411	462.332
0.981967	460.072
0.976497	458.034
0.956209	453.296
0.936823	450.893
0.91485	449.164
0.893427	448.06
0.872556	447.247
0.852461	446.553
0.831622	445.945
0.811279	445.363
0.790847	444.881
0.770534	444.446
0.750356	444.06
0.729443	443.662
0.70915	443.332
0.679011	442.88
0.648645	442.406
0.617951	441.919
0.587632	441.434
0.556664	440.985
0.526562	440.53
0.497402	439.231
0.466894	437.95
0.435166	437.501
0.404369	437.052
0.374153	436.58
0.343481	436.127
0.313133	435.673
0.28273	435.234
0.252141	434.795
0.221788	434.312
0.191442	433.815
0.160917	433.268
0.130597	432.641
0.100495	431.896
0.089215	431.564
0.079064	431.236
0.069004	430.876
0.058947	430.457
0.048955	429.974
0.038976	429.376
0.029139	428.595
0.019807	427.434
0.010127	423.686
0.008101	420.585
