Adsorption isotherm of Carbon Dioxide on ZIF-8
DOI: 10.1021/acs.jced.1c00900
Article source: AIF Supplementary Data
Adsorbate Carbon Dioxide: InChIKey CURLTUGMZLYLDI-UHFFFAOYSA-N
Kind: experiment
Isotherm type: excess
Temperature: 333 K
Tabular data in the source: 0
pressure (bar)	uptake (mmol/g)
0	0
0.20467	0.06431
0.51967	0.16284
0.995	0.31233
2.999	0.94561
4.99933	1.58198
8.007	2.49363
11.9913	3.53038
17.0123	4.51647
22.9947	5.30768
31.9873	6.0396
44.8693	6.5767
59.9883	6.78668
80.1543	6.63796
97.566	6.12015
110.138	5.47619
125.071	4.51665
140.176	3.72528
160.187	3.07032
190.095	2.51201
239.969	2.01607
299.974	1.68213
