Adsorption isotherm of Methane on ZIF-8
DOI: 10.1021/acs.jced.1c00900
Article source: AIF Supplementary Data
Adsorbate Methane: InChIKey VNWKTOKETHGBQD-UHFFFAOYSA-N
Kind: experiment
Isotherm type: excess
Temperature: 353 K
Tabular data in the source: 0
pressure (bar)	uptake (mmol/g)
0	0
0.211	0.01537
0.502	0.04485
1.006	0.10568
3.011	0.31786
4.999	0.5215
7.99067	0.81199
11.981	1.15675
16.9767	1.53668
25	2.0341
35.3193	2.52021
50.1357	2.99305
70.6833	3.37768
90.0403	3.56236
110.333	3.64754
140.148	3.64286
170.248	3.54632
209.868	3.35599
250.316	3.13054
