Adsorption isotherm of Carbon Dioxide on ZIF-8
DOI: 10.1021/acs.jced.1c00900
Article source: AIF Supplementary Data
Adsorbate Carbon Dioxide: InChIKey CURLTUGMZLYLDI-UHFFFAOYSA-N
Kind: experiment
Isotherm type: excess
Temperature: 353 K
Tabular data in the source: 0
pressure (bar)	uptake (mmol/g)
0	0
0.199	0.0476
0.467	0.10525
0.694	0.15577
1.52	0.33632
2.966	0.65648
4.982	1.09609
7.006	1.52963
10.015	2.13365
15.047	3.01356
19.874	3.69056
30.186	4.69251
39.774	5.26725
49.898	5.6238
61.487	5.83457
69.618	5.91275
