Adsorption isotherm of Carbon Dioxide on ZIF-8
DOI: 10.1021/acs.jced.1c00900
Article source: AIF Supplementary Data
Adsorbate Carbon Dioxide: InChIKey CURLTUGMZLYLDI-UHFFFAOYSA-N
Kind: experiment
Isotherm type: excess
Temperature: 298 K
Tabular data in the source: 0
pressure (bar)	uptake (mmol/g)
0	0
0.195	0.13702
0.44	0.29864
0.704	0.47566
1.496	1.02516
3.016	2.13945
4.907	3.48581
7.116	4.7665
9.818	5.84373
15.189	7.0427
20.391	7.65523
30.273	8.21684
40.521	8.41893
59.282	8.17407
