Adsorption isotherm of Nitrogen on ZIF-8
DOI: 10.1021/acs.jced.1c00900
Article source: AIF Supplementary Data
Adsorbate Nitrogen: InChIKey IJGRMHOSHXDMSA-UHFFFAOYSA-N
Kind: experiment
Temperature: 77 K
Tabular data in the source: 0
pressure (bar)	uptake (cm3(STP)/g)
2e-06	0.008507
4e-06	0.534002
5e-06	1.05365
5e-06	1.05478
7e-06	1.57098
7e-06	1.57157
8e-06	2.08274
9e-06	2.08249
9e-06	2.08274
9e-06	2.59214
9e-06	3.10244
1e-05	3.10229
1e-05	3.10203
1e-05	3.10192
1e-05	3.10179
1.2e-05	3.12629
1.3e-05	3.15493
1.6e-05	3.96101
2.7e-05	6.84089
3.7e-05	9.65061
4.7e-05	12.4977
5.7e-05	15.8621
6.8e-05	19.4914
7.8e-05	23.1257
8.9e-05	26.9672
9.8e-05	30.8961
0.000202	88.6788
0.000305	161.234
0.000408	207.104
0.000513	232.924
0.000619	250.359
0.000719	262.46
0.000826	272.698
0.000929	280.702
0.001035	287.454
0.002091	321.648
0.003155	335.389
0.004147	342.75
0.005145	347.937
0.006185	389.529
0.007261	399.577
0.008318	405.38
0.009272	408.983
0.010258	411.7
0.025753	488.965
0.055433	491.642
0.083197	492.797
0.104664	493.451
0.125051	493.955
0.145639	494.41
0.166253	494.806
0.186954	495.164
0.207547	495.505
0.227996	495.81
0.248709	496.097
0.269273	496.365
0.289793	496.678
0.310346	496.974
0.330766	497.242
0.351171	497.505
0.371989	497.741
0.39268	497.965
0.413231	498.197
0.433678	498.417
0.454163	498.715
0.474908	498.968
0.495321	499.199
0.51581	499.469
0.535091	499.667
0.555633	499.888
0.575973	500.138
0.596476	500.385
0.616889	500.708
0.63745	500.978
0.657882	501.259
0.678438	501.52
0.699072	501.791
0.719384	502.05
0.739974	502.337
0.760343	502.674
0.781073	503.104
0.801579	503.529
0.822194	503.952
0.83794	504.309
0.853384	504.683
0.868638	505.117
0.883842	505.594
0.899046	506.171
0.914073	506.991
0.925852	507.674
0.93612	508.38
0.946278	509.181
0.956597	510.22
0.966398	511.512
0.976218	513.179
0.98528	515.536
0.994754	518.939
1.00514	525.318
1.01538	541.093
1.02018	562.484
1.01869	561.588
1.01313	548.102
0.996622	526.918
0.982867	520.477
0.964102	516.153
0.950167	514.168
0.93451	512.57
0.91881	511.466
0.902684	510.534
0.887219	509.84
0.871354	509.181
0.856095	508.6
0.840802	508.199
0.825613	507.866
0.809989	507.469
0.799104	507.216
0.77888	506.762
0.758448	506.289
0.737871	505.872
0.717404	505.482
0.696828	505.16
0.676235	504.909
0.655359	504.544
0.6348	504.216
0.614324	503.912
0.593738	503.607
0.573202	503.279
0.552829	502.968
0.532144	502.669
0.512315	501.955
0.492682	500.724
0.471347	500.039
0.45021	499.676
0.429513	499.404
0.409032	499.112
0.388621	498.814
0.368142	498.512
0.34715	498.182
0.326321	497.944
0.306145	497.659
0.285665	497.352
0.265121	497.06
0.244661	496.737
0.224146	496.408
0.203503	496.058
0.182848	495.685
0.162519	495.302
0.141944	494.872
0.121641	494.38
0.101109	493.799
0.090315	493.453
0.080145	493.089
0.069845	492.67
0.059806	492.207
0.049629	491.642
0.039525	490.946
0.029605	490.019
0.019273	488.402
0.010232	484.002
