Adsorption isotherm of Nitrogen on ZIF-8
DOI: 10.1021/acs.jced.1c00900
Article source: AIF Supplementary Data
Adsorbate Nitrogen: InChIKey IJGRMHOSHXDMSA-UHFFFAOYSA-N
Kind: experiment
Isotherm type: excess
Temperature: 298 K
Tabular data in the source: 0
pressure (bar)	uptake (mmol/g)
0	0
0.5258	0.04231
2.0006	0.16347
4.9554	0.39175
7.9726	0.60664
9.9334	0.73521
14.9708	1.03689
20.0268	1.29962
24.7898	1.51322
30.2	1.725
35.076	1.90031
40.1862	2.05533
