Adsorption isotherm of Hydrogen on ZIF-8
DOI: 10.1021/acs.jced.1c00900
Article source: AIF Supplementary Data
Adsorbate Hydrogen: InChIKey UFHFLCQGNIYNRP-UHFFFAOYSA-N
Kind: experiment
Isotherm type: excess
Temperature: 353 K
Tabular data in the source: 0
pressure (bar)	uptake (mmol/g)
0	0
0.435	-0.00044
2.014	0.00992
5.047	0.0474
8.0492	0.08489
9.594	0.10107
15.1666	0.16001
18.7616	0.19377
24.9678	0.25024
30.1142	0.29932
35.1574	0.34822
40.646	0.3827
