Adsorption isotherm of Hydrogen on ZIF-8
DOI: 10.1021/acs.jced.1c00900
Article source: AIF Supplementary Data
Adsorbate Hydrogen: InChIKey UFHFLCQGNIYNRP-UHFFFAOYSA-N
Kind: experiment
Isotherm type: excess
Temperature: 333 K
Tabular data in the source: 0
pressure (bar)	uptake (mmol/g)
0	0
2.0384	0.06326
5.046	0.11483
7.892	0.16125
10.0264	0.19678
15.037	0.27007
19.932	0.34302
24.4472	0.39707
30.167	0.47432
33.41	0.51141
39.8148	0.59369
