Adsorption isotherm of Carbon Dioxide on ZIF-8
DOI: 10.1021/acs.jced.1c00900
Article source: AIF Supplementary Data
Adsorbate Carbon Dioxide: InChIKey CURLTUGMZLYLDI-UHFFFAOYSA-N
Kind: experiment
Isotherm type: excess
Temperature: 353 K
Tabular data in the source: 0
pressure (bar)	uptake (mmol/g)
0	0
0.205	0.0485
0.552	0.12548
1.007	0.22375
3.011	0.66408
4.993	1.09881
8.001	1.73449
12.011	2.5087
17.002	3.31973
24.984	4.27775
35.0893	5.05111
49.9897	5.65957
68.0353	5.94419
90.125	5.89594
110.044	5.56898
134.942	4.85917
159.992	4.02009
189.999	3.22188
239.985	2.43947
300.026	1.95248
