Adsorption isotherm of Hydrogen on ZIF-8
DOI: 10.1021/acs.jced.1c00900
Article source: AIF Supplementary Data
Adsorbate Hydrogen: InChIKey UFHFLCQGNIYNRP-UHFFFAOYSA-N
Kind: experiment
Isotherm type: excess
Temperature: 393 K
Tabular data in the source: 0
pressure (bar)	uptake (mmol/g)
0	0
0.5224	-0.00171
2.0574	-0.00246
4.997	0.04225
7.9434	0.06278
9.7484	0.08068
14.5412	0.1096
19.9868	0.17505
24.431	0.17725
30.0542	0.20846
34.9012	0.23321
40.925	0.27549
