Adsorption isotherm of Carbon Dioxide on ZIF-8
DOI: 10.1021/acs.jced.1c00900
Article source: AIF Supplementary Data
Adsorbate Carbon Dioxide: InChIKey CURLTUGMZLYLDI-UHFFFAOYSA-N
Kind: experiment
Isotherm type: excess
Temperature: 333 K
Tabular data in the source: 0
pressure (bar)	uptake (mmol/g)
0	0
0.189	0.06201
0.465	0.14737
0.675	0.21215
1.53	0.48262
3.005	0.95367
5.005	1.59096
6.878	2.16486
9.995	3.038
14.957	4.14166
20.037	4.94509
30.065	5.89439
40.276	6.40293
48.919	6.62987
55.784	6.7208
63.986	6.75003
