Adsorption isotherm of Carbon Dioxide on ZIF-8
DOI: 10.1021/acs.jced.1c00900
Article source: AIF Supplementary Data
Adsorbate Carbon Dioxide: InChIKey CURLTUGMZLYLDI-UHFFFAOYSA-N
Kind: experiment
Isotherm type: excess
Temperature: 393 K
Tabular data in the source: 0
pressure (bar)	uptake (mmol/g)
0	0
0.268	0.03646
0.485	0.06143
0.682	0.08668
1.515	0.18704
2.963	0.36249
4.956	0.60033
7.051	0.84274
10.038	1.17861
15.025	1.69959
20.07	2.16726
30.25	2.93733
39.411	3.45662
50.072	3.89098
61.895	4.21774
68.409	4.3364
