Adsorption isotherm of Methane on ZIF-8
DOI: 10.1021/acs.jced.1c00900
Article source: AIF Supplementary Data
Adsorbate Methane: InChIKey VNWKTOKETHGBQD-UHFFFAOYSA-N
Kind: experiment
Isotherm type: excess
Temperature: 333 K
Tabular data in the source: 0
pressure (bar)	uptake (mmol/g)
0	0
0.23267	0.02931
0.52633	0.07627
1.02933	0.1456
3.01133	0.42422
5.01433	0.694
7.98533	1.05627
11.9983	1.49502
17.0677	1.95849
25.042	2.53672
34.966	3.05264
50.044	3.55244
70.077	3.90574
90.056	4.05975
109.991	4.09444
141.276	4.015
170.132	3.85437
210.813	3.58433
250.155	3.31423
