Adsorption isotherm of Nitrogen on ZIF-8
DOI: 10.1021/acs.jced.1c00900
Article source: AIF Supplementary Data
Adsorbate Nitrogen: InChIKey IJGRMHOSHXDMSA-UHFFFAOYSA-N
Kind: experiment
Isotherm type: excess
Temperature: 353 K
Tabular data in the source: 0
pressure (bar)	uptake (mmol/g)
0	0
0.497	0.01968
2.051	0.08106
5.0586	0.19576
6.8208	0.26143
9.9242	0.36932
15.0208	0.5363
19.9702	0.68367
25.052	0.81985
30.136	0.94464
35.4026	1.06562
40.1342	1.16145
