Adsorption isotherm of Carbon Dioxide on ZIF-8
DOI: 10.1021/acs.jced.1c00900
Article source: AIF Supplementary Data
Adsorbate Carbon Dioxide: InChIKey CURLTUGMZLYLDI-UHFFFAOYSA-N
Kind: experiment
Isotherm type: excess
Temperature: 313 K
Tabular data in the source: 0
pressure (bar)	uptake (mmol/g)
0	0
0.241	0.1145
0.56	0.2632
1.009	0.47479
3.01567	1.46116
4.981	2.43683
7.013	3.36529
9.00533	4.14508
12.001	5.05623
16.0023	5.89976
21.9813	6.67782
28.0073	7.14573
38.0187	7.56357
50.543	7.7312
66.4901	7.55034
81.115	6.80243
87.592	5.76737
92.4857	4.57817
100.135	3.65146
115.052	2.93797
140.162	2.43022
190.266	1.93346
240.125	1.66926
298.584	1.47515
