Adsorption isotherm of Methane on ZIF-8
DOI: 10.1021/acs.jced.1c00900
Article source: AIF Supplementary Data
Adsorbate Methane: InChIKey VNWKTOKETHGBQD-UHFFFAOYSA-N
Kind: experiment
Isotherm type: excess
Temperature: 313 K
Tabular data in the source: 0
pressure (bar)	uptake (mmol/g)
0	0
0.215	0.03965
0.514	0.09957
1.015	0.19863
3.001	0.57812
5.00633	0.93341
7.99767	1.41574
11.9885	1.96278
17.04	2.52505
25.005	3.17594
34.924	3.72052
50.2182	4.21175
69.9962	4.51472
90.061	4.61253
110.014	4.58519
139.875	4.41479
169.947	4.16431
210.814	3.79754
250.928	3.46551
