Adsorption isotherm of Hydrogen on ZIF-8
DOI: 10.1021/acs.jced.1c00900
Article source: AIF Supplementary Data
Adsorbate Hydrogen: InChIKey UFHFLCQGNIYNRP-UHFFFAOYSA-N
Kind: experiment
Isotherm type: excess
Temperature: 298 K
Tabular data in the source: 0
pressure (bar)	uptake (mmol/g)
0	0
2.094	0.09993
4.8834	0.17977
8.0614	0.2545
10.117	0.30978
14.6666	0.40307
20.0882	0.52251
25.0954	0.62015
30.0688	0.70956
35.255	0.8009
40.326	0.88345
