Adsorption isotherm of Nitrogen on ZIF-8
DOI: 10.1021/acs.jced.1c00900
Article source: AIF Supplementary Data
Adsorbate Nitrogen: InChIKey IJGRMHOSHXDMSA-UHFFFAOYSA-N
Kind: experiment
Isotherm type: excess
Temperature: 393 K
Tabular data in the source: 0
pressure (bar)	uptake (mmol/g)
0	0
0.42	0.00562
1.977	0.049
5.0028	0.1242
7.8352	0.19126
10.0976	0.24552
15.1444	0.35656
20.1078	0.45492
25.0506	0.55018
30.181	0.64338
35.0096	0.72251
40.1276	0.79631
