Adsorption isotherm of Methane on Activated Carbon
DOI: 10.1021/je3013217
Adsorbate Methane: InChIKey VNWKTOKETHGBQD-UHFFFAOYSA-N
Temperature: 293 K
Tabular data in the source: 0
pressure (bar)	uptake (cm3(STP)/g)
0.0619835	9.71963
0.103306	14.5794
0.17562	19.4393
0.237603	24.2991
0.278926	27.6636
0.52686	40
0.640496	44.1121
0.805785	51.215
0.929752	54.9533
1.15702	60.1869
1.35331	65.0467
1.45661	67.6636
1.63223	70.2804
1.95248	74.7664
2.54132	82.243
2.80992	85.9813
3.17149	89.7196
3.54339	92.7103
3.75	93.8318
4.05992	96.0748
4.45248	98.6916
4.78306	100.561
4.97934	102.056
