Adsorption isotherm of N-propane on Activated Carbon
DOI: 10.1021/je3013217
Adsorbate N-propane: InChIKey ATUOYWHBWRKTHZ-UHFFFAOYSA-N
Temperature: 358 K
Tabular data in the source: 0
pressure (bar)	uptake (cm3(STP)/g)
0.000155124	3.76176
0.000284394	6.89655
0.0127848	10.0313
0.0294606	14.4201
0.0585076	18.8088
0.0875675	23.511
0.104153	25.7053
0.191035	32.6019
0.372892	42.6332
0.694981	53.2915
1.06229	60.5016
1.12831	61.442
1.61926	67.0846
