Adsorption isotherm of N-Hexane on Activated Carbon
DOI: 10.1021/je3013217
Adsorbate N-Hexane: InChIKey VLKZOEOYAKHREP-UHFFFAOYSA-N
Temperature: 358 K
Tabular data in the source: 0
pressure (bar)	uptake (cm3(STP)/g)
0.00140904	34.1693
0.00442103	7.21003
0.0048864	18.4953
0.00586886	42.3197
0.00597227	44.8276
0.0184727	47.9624
0.0392593	52.0376
0.0599942	54.8589
0.0806903	56.7398
0.109608	57.9937
