Adsorption isotherm of Methane on Activated Carbon
DOI: 10.1021/je3013217
Adsorbate Methane: InChIKey VNWKTOKETHGBQD-UHFFFAOYSA-N
Temperature: 358 K
Tabular data in the source: 0
pressure (bar)	uptake (cm3(STP)/g)
0.177371	1.25392
0.334124	2.50784
0.701225	4.70219
1.13021	7.52351
1.35294	8.77743
