Adsorption isotherm of N-propane on Activated Carbon
DOI: 10.1021/je3013217
Adsorbate N-propane: InChIKey ATUOYWHBWRKTHZ-UHFFFAOYSA-N
Temperature: 293 K
Tabular data in the source: 0
pressure (bar)	uptake (cm3(STP)/g)
0.0258236	20.5607
0.036153	29.5327
0.0464824	37.0093
0.0585334	46.3551
0.0671412	51.9626
0.0757491	54.5794
0.0860785	57.1963
0.106737	59.8131
0.115345	61.3084
0.137726	63.9252
0.161828	66.9159
0.196259	69.5327
0.225526	71.7757
0.275451	74.3925
0.309883	75.8879
0.344314	78.1308
0.375302	79.6262
0.401126	80.3738
0.418342	80.7477
0.435557	81.4953
0.451051	81.8692
0.468267	82.243
0.485483	82.6168
0.500977	83.3645
0.518193	83.7383
0.535408	84.1121
0.552624	84.486
0.568118	85.2336
0.585334	85.6075
0.60255	85.9813
0.619765	86.3551
0.635259	87.1028
0.652475	87.4766
0.669691	87.8505
0.685185	88.2243
0.721338	88.972
0.738554	89.3458
0.755769	89.7196
0.771263	89.7196
0.788479	90.0935
0.805695	90.4673
0.822911	90.8411
