Adsorption isotherm of N-Pentane on Activated Carbon
DOI: 10.1021/je3013217
Adsorbate N-Pentane: InChIKey OFBQJSOFQDEBGM-UHFFFAOYSA-N
Temperature: 293 K
Tabular data in the source: 0
pressure (bar)	uptake (cm3(STP)/g)
0.000115466	0.000115466
0.000577331	38.6965
0.00127013	46.123
0.00196292	49.5248
0.00277119	51.3779
0.00484958	56.32
0.00738983	59.7116
0.00958369	61.8667
0.011893	63.402
0.0144333	64.6264
0.0162807	65.8546
0.0184746	66.1522
0.0212458	67.0657
0.0236706	67.9811
0.0273655	68.8896
0.0323305	70.1006
0.0360254	71.0091
0.0383348	70.9964
0.040875	71.9112
0.0448009	72.1992
0.0487267	72.4871
0.0517288	72.7802
0.0542691	72.7662
0.0561165	73.0657
