Adsorption isotherm of N-Hexane on Activated Carbon
DOI: 10.1021/je3013217
Adsorbate N-Hexane: InChIKey VLKZOEOYAKHREP-UHFFFAOYSA-N
Temperature: 293 K
Tabular data in the source: 0
pressure (bar)	uptake (cm3(STP)/g)
6.6e-05	0.931677
0.000198074	5.59006
0.000462172	12.4224
0.000528197	18.323
0.000594222	25.1553
0.000660246	30.1242
0.000726271	36.0248
0.000792296	42.8571
0.000891333	45.9627
0.00128748	49.3789
0.00171664	51.5528
0.00201375	52.795
0.00234387	54.0373
0.00264099	54.3478
0.0029381	55.5901
0.00323521	56.5217
0.00349931	57.1429
0.00386244	57.764
0.00415955	58.6957
0.00448968	59.3168
0.00478679	59.9379
0.00511691	60.559
0.005348	60.8696
0.00557908	61.1801
0.00590921	61.4907
0.00620632	62.1118
0.00653644	62.4224
0.00686656	62.4224
0.00719669	62.7329
0.00752681	63.0435
0.00782392	63.354
0.00815404	63.354
0.00848417	63.354
0.00881429	63.6646
0.00914441	63.6646
0.00947454	63.6646
0.00980466	63.9752
0.0100688	64.2857
0.0102998	64.2857
0.01063	64.2857
0.0109601	64.5963
0.0112902	64.5963
0.0116203	64.5963
0.0118514	64.9068
0.0125777	64.9068
0.0127758	65.528
0.0131059	65.528
0.013436	65.528
0.0137661	65.8385
0.0140963	65.8385
0.0144264	65.8385
0.0147565	65.8385
0.0150866	66.1491
0.0154168	66.1491
0.0157469	66.1491
