Adsorption isotherm of Ethane on Activated Carbon
DOI: 10.1021/je3013217
Adsorbate Ethane: InChIKey OTMSDBZUPAUEDD-UHFFFAOYSA-N
Temperature: 358 K
Tabular data in the source: 0
pressure (bar)	uptake (cm3(STP)/g)
0.103416	7.83699
0.136496	10.0313
0.243894	14.4201
0.516408	22.884
0.788831	29.1536
1.05708	34.1693
1.09421	34.4828
1.44494	39.8119
1.86167	45.4545
