Adsorption isotherm of Ethane on Activated Carbon
DOI: 10.1021/je3013217
Adsorbate Ethane: InChIKey OTMSDBZUPAUEDD-UHFFFAOYSA-N
Temperature: 293 K
Tabular data in the source: 0
pressure (bar)	uptake (cm3(STP)/g)
0.0310231	12.3364
0.0930694	26.1682
0.124093	30.6542
0.240429	41.8692
0.49637	56.8224
0.798846	67.2897
1.06254	74.3925
1.14786	76.2617
1.42706	81.8692
1.65974	84.8598
1.83812	87.4766
2.07855	90.0935
2.35776	92.3364
2.56716	94.5794
2.76106	96.0748
3.04802	99.0654
3.2109	99.4393
3.39703	100.561
3.59093	102.056
3.7538	102.43
