Adsorption isotherm of Isobutane on Activated Carbon
DOI: 10.1021/je3013217
Adsorbate Isobutane: InChIKey NNPPMTNAJDCUHE-UHFFFAOYSA-N
Temperature: 358 K
Tabular data in the source: 0
pressure (bar)	uptake (cm3(STP)/g)
0.017348	20.6897
0.0549268	31.9749
0.108897	40.7524
0.191669	47.9624
0.394041	55.4859
0.674699	61.442
1.06662	65.5172
1.08313	65.8307
1.44613	68.652
1.86686	71.4734
