Adsorption isotherm of N-Pentane on Activated Carbon
DOI: 10.1021/je3013217
Adsorbate N-Pentane: InChIKey OFBQJSOFQDEBGM-UHFFFAOYSA-N
Temperature: 358 K
Tabular data in the source: 0
pressure (bar)	uptake (cm3(STP)/g)
0.000323175	7.83699
0.00116343	28.2132
0.00477006	15.674
0.00508031	23.1975
0.00548105	32.9154
0.0097211	35.7367
0.022312	41.0658
0.0390525	47.0219
0.0763856	52.3511
0.101283	56.1129
0.175678	60.1881
0.295408	63.6364
0.402728	66.1442
