Adsorption isotherm of Methane on Bituminous A J5
DOI: 10.1007/s10450-012-9421-3
Adsorbate Methane: InChIKey VNWKTOKETHGBQD-UHFFFAOYSA-N
Temperature: 303 K
Tabular data in the source: 0
pressure (bar)	uptake (cm3(STP)/g)
0.937865	7.6779
10.0906	24.2166
16.7597	28.7146
23.6312	32.0071
30.6039	34.697
37.78	36.6332
44.9567	38.8706
