Adsorption isotherm of Methane on Bituminous A H8
DOI: 10.1007/s10450-012-9421-3
Adsorbate Methane: InChIKey VNWKTOKETHGBQD-UHFFFAOYSA-N
Temperature: 303 K
Tabular data in the source: 0
pressure (bar)	uptake (cm3(STP)/g)
2.26057	3.15584
3.59561	4.65784
4.72481	5.70866
6.36692	7.05914
8.31641	8.40869
9.95821	9.60856
12.0092	10.506
13.9578	11.4037
16.4186	12.2999
18.777	13.1965
21.0324	13.7921
23.2877	14.3877
25.0304	14.8342
27.1829	15.2796
29.0278	15.5752
31.0779	16.0208
33.6406	16.6155
35.895	16.7594
38.6626	17.3534
41.6342	17.4951
