Adsorption isotherm of Methane on Bituminous C Q3
DOI: 10.1007/s10450-012-9421-3
Adsorbate Methane: InChIKey VNWKTOKETHGBQD-UHFFFAOYSA-N
Temperature: 303 K
Tabular data in the source: 0
pressure (bar)	uptake (cm3(STP)/g)
1.02829	1.80413
8.92808	6.90082
15.5919	8.83858
22.5624	10.4742
29.5318	11.5074
36.6029	12.2391
43.8793	13.1208
