Adsorption isotherm of Methane on Anthracite A W102
DOI: 10.1007/s10450-012-9421-3
Adsorbate Methane: InChIKey VNWKTOKETHGBQD-UHFFFAOYSA-N
Temperature: 303 K
Tabular data in the source: 0
pressure (bar)	uptake (cm3(STP)/g)
0.418166	4.06501
1.04125	8.12939
1.87141	13.2474
2.69848	16.8593
3.42217	20.0198
4.66062	24.3836
6.20521	28.144
7.74857	31.302
9.90729	34.7593
11.3451	36.4116
16.9902	41.2139
19.6575	42.8625
22.4267	44.2096
24.8875	45.1058
27.0407	45.8523
30.116	46.596
32.6793	47.4919
34.934	47.7863
36.9841	48.232
39.6489	48.6758
42.7233	48.9677
