Adsorption isotherm of Methane on Anthracite C H10
DOI: 10.1007/s10450-012-9421-3
Adsorbate Methane: InChIKey VNWKTOKETHGBQD-UHFFFAOYSA-N
Temperature: 303 K
Tabular data in the source: 0
pressure (bar)	uptake (cm3(STP)/g)
8.53089	13.0767
15.2999	16.3696
21.9641	18.4579
29.034	18.5872
34.9834	21.8826
41.9536	23.3676
