Adsorption isotherm of Methane on Bituminous A J5
DOI: 10.1007/s10450-012-9421-3
Adsorbate Methane: InChIKey VNWKTOKETHGBQD-UHFFFAOYSA-N
Temperature: 303 K
Tabular data in the source: 0
pressure (bar)	uptake (cm3(STP)/g)
1.14031	6.47247
2.48246	11.4383
3.71967	15.1996
5.15995	18.0567
6.49716	20.613
7.93651	23.0183
10.0931	25.4214
12.3515	27.523
15.0194	29.4728
17.9941	31.1205
20.7629	32.317
24.0438	33.3613
27.0172	34.4066
29.7851	35.1512
32.1426	35.596
35.8327	36.3379
38.3947	36.6313
42.0845	37.2226
44.9539	37.5152
