Adsorption isotherm of Methane on Anthracite C J6
DOI: 10.1007/s10450-012-9421-3
Adsorbate Methane: InChIKey VNWKTOKETHGBQD-UHFFFAOYSA-N
Temperature: 303 K
Tabular data in the source: 0
pressure (bar)	uptake (cm3(STP)/g)
1.1397	6.17127
2.58553	11.7392
3.71936	15.049
5.16119	18.6592
6.60116	21.3657
8.65742	24.8233
10.8143	27.3771
12.6626	29.3293
14.921	31.431
17.5883	33.0796
19.8448	34.2776
22.4091	35.6253
24.8702	36.6721
27.6388	37.718
30.099	38.313
32.662	39.0582
35.5321	39.652
39.5295	40.393
41.887	40.8377
44.1417	41.1321
45.6788	41.2781
