Adsorption isotherm of Methane on Anthracite C H10
DOI: 10.1007/s10450-012-9421-3
Adsorbate Methane: InChIKey VNWKTOKETHGBQD-UHFFFAOYSA-N
Temperature: 303 K
Tabular data in the source: 0
pressure (bar)	uptake (cm3(STP)/g)
2.36827	5.71576
3.80793	8.27166
5.24605	10.0746
6.78632	11.7265
9.14719	13.8279
11.0967	15.1774
12.7376	15.9255
14.3787	16.8242
15.6095	17.4229
17.9679	18.3194
19.8137	19.0668
22.4788	19.6612
25.0415	20.2559
27.6042	20.8506
30.269	21.2944
32.3188	21.5894
34.8812	22.0335
37.3408	22.3273
38.5706	22.4742
40.2103	22.6198
41.9524	22.7652
