Adsorption isotherm of Methane on Anthracite C H9
DOI: 10.1007/s10450-012-9421-3
Adsorbate Methane: InChIKey VNWKTOKETHGBQD-UHFFFAOYSA-N
Temperature: 303 K
Tabular data in the source: 0
pressure (bar)	uptake (cm3(STP)/g)
1.036	5.56917
8.74661	18.3471
15.4166	23.2969
21.9813	26.8916
29.0574	30.033
36.0299	32.5722
43.5133	34.5075
