Adsorption isotherm of Methane on Anthracite C H7
DOI: 10.1007/s10450-012-9421-3
Adsorbate Methane: InChIKey VNWKTOKETHGBQD-UHFFFAOYSA-N
Temperature: 303 K
Tabular data in the source: 0
pressure (bar)	uptake (cm3(STP)/g)
0.516921	2.25748
1.03322	4.21376
1.75383	5.86821
2.57782	7.97416
3.50426	10.0798
4.63562	12.1848
5.66391	13.989
6.99957	15.7922
8.84815	17.895
10.4906	19.3961
12.6459	21.1968
14.6975	22.3955
17.2618	23.7432
20.5432	25.0887
22.9019	26.1358
24.952	26.5815
26.695	27.1786
28.7451	27.6243
30.3854	28.0711
32.9478	28.5152
35.1003	28.9605
37.3553	29.4056
39.61	29.7
41.9672	29.9941
44.4268	30.2879
