Adsorption isotherm of Methane on Bituminous A P
DOI: 10.1007/s10450-012-9421-3
Adsorbate Methane: InChIKey VNWKTOKETHGBQD-UHFFFAOYSA-N
Temperature: 303 K
Tabular data in the source: 0
pressure (bar)	uptake (cm3(STP)/g)
8.42658	12.1734
15.1984	16.8217
22.0693	19.813
30.4767	22.6492
38.5756	24.8838
47.3926	27.5681
