Adsorption isotherm of Methane on Bituminous A H8
DOI: 10.1007/s10450-012-9421-3
Adsorbate Methane: InChIKey VNWKTOKETHGBQD-UHFFFAOYSA-N
Temperature: 303 K
Tabular data in the source: 0
pressure (bar)	uptake (cm3(STP)/g)
1.02921	2.25594
8.21272	7.80659
15.0833	10.6473
21.133	12.8882
27.4897	14.9774
34.6655	16.7631
41.7388	18.549
