Adsorption isotherm of Methane on Anthracite C HL7
DOI: 10.1007/s10450-012-9421-3
Adsorbate Methane: InChIKey VNWKTOKETHGBQD-UHFFFAOYSA-N
Temperature: 303 K
Tabular data in the source: 0
pressure (bar)	uptake (cm3(STP)/g)
0.931075	4.36467
8.73982	15.0339
14.9975	18.7801
21.5585	20.5676
27.9137	21.9039
33.9613	23.0905
39.9054	23.8256
