Adsorption isotherm of Methane on Anthracite C H9
DOI: 10.1007/s10450-012-9421-3
Adsorbate Methane: InChIKey VNWKTOKETHGBQD-UHFFFAOYSA-N
Temperature: 303 K
Tabular data in the source: 0
pressure (bar)	uptake (cm3(STP)/g)
1.5486	5.71823
2.37382	8.42658
3.40273	10.5319
4.43194	12.7879
5.46054	14.7426
6.48852	16.3961
7.92695	18.3496
9.36476	20.0019
11.2127	21.8036
13.7782	23.7537
15.9332	25.4038
18.8051	26.9012
21.574	28.0977
24.445	29.1432
26.9055	29.8888
29.2633	30.4841
32.0312	31.2288
34.5939	31.8235
36.7461	32.1182
39.1036	32.5629
41.7685	33.0067
43.3059	33.3033
