Adsorption isotherm of Methane on Anthracite C HL7
DOI: 10.1007/s10450-012-9421-3
Adsorbate Methane: InChIKey VNWKTOKETHGBQD-UHFFFAOYSA-N
Temperature: 303 K
Tabular data in the source: 0
pressure (bar)	uptake (cm3(STP)/g)
1.34183	4.81524
2.47443	7.52267
3.60579	9.62769
5.25037	12.183
6.8931	13.8347
8.43337	15.4866
11.3059	17.2852
14.0751	18.6323
16.7411	19.6785
18.9965	20.2741
21.6622	21.1697
24.9421	21.7622
28.0168	22.2048
30.5792	22.6489
32.4241	22.9445
34.1662	23.0899
36.6255	23.2331
39.8023	23.5247
