Adsorption isotherm of Methane on Bituminous A P
DOI: 10.1007/s10450-012-9421-3
Adsorbate Methane: InChIKey VNWKTOKETHGBQD-UHFFFAOYSA-N
Temperature: 303 K
Tabular data in the source: 0
pressure (bar)	uptake (cm3(STP)/g)
1.23598	3.15893
2.77872	6.01573
3.90947	7.81955
5.3479	9.77305
7.50446	12.1762
10.2761	14.7281
12.636	16.3776
14.5852	17.5766
16.9445	18.9249
19.8158	20.121
22.892	21.3166
25.0449	21.9125
27.1981	22.659
29.7605	23.1031
32.6308	23.8475
35.8086	24.5909
38.4734	25.0347
41.0355	25.3282
44.52	25.7695
47.2873	26.213
