Adsorption isotherm of Methane on Anthracite A W102
DOI: 10.1007/s10450-012-9421-3
Adsorbate Methane: InChIKey VNWKTOKETHGBQD-UHFFFAOYSA-N
Temperature: 303 K
Tabular data in the source: 0
pressure (bar)	uptake (cm3(STP)/g)
0.84127	10.5396
9.08176	31.9004
21.5008	42.4051
28.68	45.8473
35.7546	48.2357
42.7258	50.1725
