Adsorption isotherm of Methane on Anthracite C H7
DOI: 10.1007/s10450-012-9421-3
Adsorbate Methane: InChIKey VNWKTOKETHGBQD-UHFFFAOYSA-N
Temperature: 303 K
Tabular data in the source: 0
pressure (bar)	uptake (cm3(STP)/g)
8.6386	15.6366
16.0264	20.8855
22.5921	24.932
29.462	27.4715
37.048	29.4065
44.5321	31.643
