Adsorption isotherm of Methane on Bituminous C Q3
DOI: 10.1007/s10450-012-9421-3
Adsorbate Methane: InChIKey VNWKTOKETHGBQD-UHFFFAOYSA-N
Temperature: 303 K
Tabular data in the source: 0
pressure (bar)	uptake (cm3(STP)/g)
1.54181	2.40499
3.59438	4.05544
5.13372	5.25562
6.98013	6.30428
8.929	7.35262
11.2877	8.39974
13.6452	8.84444
16.2085	9.74034
18.4632	10.0347
21.5382	10.6279
23.8956	11.0726
25.9451	11.217
28.405	11.6614
30.4545	11.8059
32.9141	12.0997
35.4759	12.2425
37.4229	12.3873
39.5749	12.5314
41.8293	12.6752
43.4689	12.8209
