Adsorption isotherm of Methane on Anthracite C J6
DOI: 10.1007/s10450-012-9421-3
Adsorbate Methane: InChIKey VNWKTOKETHGBQD-UHFFFAOYSA-N
Temperature: 303 K
Tabular data in the source: 0
pressure (bar)	uptake (cm3(STP)/g)
8.55126	23.0164
15.532	29.6219
22.5078	33.8177
30.0972	37.4093
37.6856	40.5491
45.6819	42.7841
