Adsorption isotherm of Methane on Bituminous C P9
DOI: 10.1007/s10450-012-9421-3
Adsorbate Methane: InChIKey VNWKTOKETHGBQD-UHFFFAOYSA-N
Temperature: 303 K
Tabular data in the source: 0
pressure (bar)	uptake (cm3(STP)/g)
0.824605	2.40715
8.00749	7.6566
14.7741	9.74466
21.6419	11.23
29.0213	12.4126
36.5017	12.8419
44.2901	13.5714
