Adsorption isotherm of Methane on Bituminous C P9
DOI: 10.1007/s10450-012-9421-3
Adsorbate Methane: InChIKey VNWKTOKETHGBQD-UHFFFAOYSA-N
Temperature: 303 K
Tabular data in the source: 0
pressure (bar)	uptake (cm3(STP)/g)
1.95288	3.00617
4.10852	4.9575
5.44326	6.30891
7.08537	7.65938
9.95698	9.00615
11.8025	9.603
13.7501	10.0489
15.5956	10.6458
17.7478	10.9405
20.7204	11.534
23.5898	11.8265
25.947	12.1206
27.8943	12.416
30.7634	12.5579
33.1203	12.7014
35.4774	12.9955
37.9368	13.1387
40.2936	13.2822
43.3674	13.273
44.0846	13.2708
