Adsorption isotherm of Propene on Carbon
DOI: 10.1021/Ie049327p
Adsorbate Propene: InChIKey QQONPFPTGQHPMA-UHFFFAOYSA-N
Temperature: 373 K
Tabular data in the source: 0
pressure (bar)	uptake (mmol/g)
0.00169661	0.349244
0.00688425	0.0105858
0.0326268	0.600949
0.0798215	0.699343
0.139888	0.852654
0.277181	0.955624
0.388732	1.04715
0.749128	1.17529
1.02372	1.21419
1.32834	1.25996
1.86035	1.32403
2.44814	1.3492
