Adsorption isotherm of Propene on Carbon Molecular Sieve 4A
DOI: 10.1021/ie049327p
Article source: Figure 1
Adsorbate Propene: InChIKey QQONPFPTGQHPMA-UHFFFAOYSA-N
Kind: experiment
Temperature: 373 K
Tabular data in the source: 0
pressure (bar)	uptake (mmol/g)
0	0
0.0058	0
0.0523	0.60124
0.0872	0.70559
0.1395	0.84969
0.2674	0.94907
0.3663	1.04714
0.3895	1.05839
0.7616	1.17267
0.9709	1.20248
1.0407	1.20745
1.3314	1.26708
1.4419	1.25714
1.8605	1.32174
2.436	1.35155
