Adsorption isotherm of Propene on Carbon Molecular Sieve 4A
DOI: 10.1021/ie049327p
Article source: Table 3
Adsorbate Propene: InChIKey QQONPFPTGQHPMA-UHFFFAOYSA-N
Kind: experiment
Temperature: 373 K
Tabular data in the source: 1
pressure (bar)	uptake (mmol/g)
0.42	0.972
0.4689	0.92
0.4692	0.858
0.4692	0.982
0.4714	0.929
0.4725	1.037
0.4737	0.84
