Adsorption isotherm of N-propane on Carbon
DOI: 10.1021/Ie049327p
Adsorbate N-propane: InChIKey ATUOYWHBWRKTHZ-UHFFFAOYSA-N
Temperature: 373 K
Tabular data in the source: 0
pressure (bar)	uptake (mmol/g)
0.0497885	0.32865
0.26002	0.623831
0.405894	0.749684
0.727676	0.850366
1.1224	0.953336
1.25969	0.951048
1.64583	1.00597
1.86893	0.985371
2.3752	1.038
2.59401	1.03571
