Adsorption isotherm of N-propane on Carbon Molecular Sieve 4A
DOI: 10.1021/ie049327p
Article source: Figure 1
Adsorbate N-propane: InChIKey ATUOYWHBWRKTHZ-UHFFFAOYSA-N
Kind: experiment
Temperature: 373 K
Tabular data in the source: 0
pressure (bar)	uptake (mmol/g)
0.0058	0
0.0536	0.3399
0.2523	0.6296
0.4214	0.7593
0.7356	0.8438
1.1314	0.9581
1.2535	0.9529
1.6374	1.0023
1.8582	0.9869
2.37	1.036
2.5793	1.0357
