Adsorption isotherm of Propene on Carbon Molecular Sieve 4A
DOI: 10.1021/ie049327p
Article source: Table 3
Adsorbate Propene: InChIKey QQONPFPTGQHPMA-UHFFFAOYSA-N
Kind: experiment
Temperature: 373 K
Tabular data in the source: 1
pressure (bar)	uptake (mmol/g)
2.443	1.273
2.4927	1.341
2.4943	1.288
2.4966	1.16
2.4968	1.127
2.4986	1.258
2.5102	1.195
