Adsorption isotherm of Methane on Cu-HKUST-1
DOI: 10.1021/acs.jpclett.5b00893
Article source: Figure 2a- first
Adsorbate Methane: InChIKey VNWKTOKETHGBQD-UHFFFAOYSA-N
Kind: experiment
Temperature: 298 K
Tabular data in the source: 0
pressure (bar)	uptake (mmol/g)
0.014705	0.04021
0.029269	0.0464
0.041899	0.07984
0.051704	0.10128
0.066117	0.1309
0.080787	0.16907
0.093212	0.2117
0.108347	0.24543
0.120912	0.27729
0.135255	0.31198
0.145386	0.33817
0.158356	0.35957
0.173952	0.39267
0.18869	0.42894
0.201518	0.46175
0.215993	0.49707
0.226522	0.51945
0.239351	0.55131
0.252174	0.59045
0.269882	0.62257
0.280482	0.63862
0.291545	0.65403
0.299374	0.67263
0.309769	0.69881
0.320357	0.73037
0.336484	0.75998
0.347268	0.79376
0.353507	0.82283
0.367397	0.84708
0.380103	0.86848
0.3903	0.89467
0.403664	0.91639
0.412611	0.9391
0.425579	0.96335
0.442893	0.992
0.456721	1.01181
0.472989	1.03034
0.48357	1.0695
0.498446	1.09722
0.512275	1.11545
0.524645	1.14509
0.537426	1.1551
0.548219	1.17685
0.560984	1.20744
0.587059	1.24486
0.601282	1.26404
0.613731	1.27722
0.632694	1.30585
0.652178	1.34144
0.673974	1.37131
0.691154	1.40312
0.708592	1.44222
0.73749	1.49355
0.762769	1.53732
0.774809	1.56665
0.788899	1.58836
0.843693	1.63042
0.863336	1.66717
0.881236	1.69544
