Adsorption isotherm of Methane on Cu-HKUST-1
DOI: 10.1021/acs.jpclett.5b00893
Article source: Figure 2a- second
Adsorbate Methane: InChIKey VNWKTOKETHGBQD-UHFFFAOYSA-N
Kind: experiment
Temperature: 298 K
Tabular data in the source: 0
pressure (bar)	uptake (mmol/g)
0.014583	0.03964
0.02671	0.07861
0.038833	0.11291
0.05347	0.14904
0.06434	0.18442
0.095717	0.23806
0.108047	0.28324
0.120761	0.31597
0.134235	0.35273
0.145594	0.37064
0.160799	0.40136
0.173763	0.43372
0.186365	0.46892
0.199896	0.51
0.214326	0.54135
0.227082	0.57095
0.241771	0.60858
0.256358	0.63917
0.269429	0.66725
0.282863	0.69171
0.293206	0.71097
0.307651	0.74599
0.32353	0.77557
0.333222	0.79236
0.346292	0.82246
0.359514	0.86211
0.388275	0.91349
0.402707	0.94158
0.417516	0.96624
0.429242	0.9893
0.448616	1.02074
0.468075	1.05436
0.482319	1.07843
0.497011	1.10668
0.513942	1.1441
0.528967	1.17116
0.546458	1.20504
0.569049	1.24263
0.586413	1.26844
0.614817	1.30148
0.63083	1.30567
0.644631	1.34079
0.661837	1.36685
0.680353	1.39164
0.700386	1.41769
0.710478	1.43573
0.735159	1.48412
0.759635	1.52045
0.774326	1.55356
0.788245	1.56053
0.802572	1.58911
0.818154	1.61844
0.831382	1.64678
0.84859	1.67133
0.862924	1.68408
0.881131	1.69857
