Adsorption isotherm of Nitrogen on PCN-38(ac)
DOI: 10.1039/C3ta12761c
Adsorbate Nitrogen: InChIKey IJGRMHOSHXDMSA-UHFFFAOYSA-N
Temperature: 77 K
Tabular data in the source: 0
pressure (bar)	uptake (cm3(STP)/g)
0.00619484	4.49449
0.00837971	222.108
0.0171192	229.318
0.0367831	241.772
0.0761108	251.604
0.163506	257.503
0.285859	261.436
0.52838	262.091
0.722834	260.125
0.886699	260.125
0.960985	264.058
0.989388	271.268
