Adsorption isotherm of Hydrogen on PCN-39(ac)
DOI: 10.1039/C3ta12761c
Adsorbate Hydrogen: InChIKey UFHFLCQGNIYNRP-UHFFFAOYSA-N
Temperature: 77 K
Tabular data in the source: 0
pressure (bar)	uptake (wt%)
0.011172	0.0101432
0.0286495	0.572748
0.0694304	0.889555
0.133515	1.17905
0.250031	1.42485
0.375287	1.53409
0.567539	1.67065
0.756879	1.77989
1.00156	1.90552
1.19382	1.99838
