Adsorption isotherm of Hydrogen on PCN-38(ac)
DOI: 10.1039/C3ta12761c
Adsorbate Hydrogen: InChIKey UFHFLCQGNIYNRP-UHFFFAOYSA-N
Temperature: 77 K
Tabular data in the source: 0
pressure (bar)	uptake (wt%)
0.011172	0.0101432
0.0373883	0.747538
0.0752562	1.02611
0.174295	1.35384
0.314115	1.57233
0.53841	1.82359
0.733576	1.99838
0.963696	2.18409
1.06274	2.2551
