Adsorption isotherm of Nitrogen on PCN-39(ac)
DOI: 10.1039/C3ta12761c
Adsorbate Nitrogen: InChIKey IJGRMHOSHXDMSA-UHFFFAOYSA-N
Temperature: 77 K
Tabular data in the source: 0
pressure (bar)	uptake (cm3(STP)/g)
0.0586318	0.561717
0.43006	1.21718
0.641993	3.83903
0.753422	7.7718
0.943506	11.7046
