Adsorption isotherm of Toluene on Activated Carbon AT600R1t30
DOI: 10.1016/j.fuproc.2013.10.024
Adsorbate Toluene: InChIKey YXFVVABEGXRONW-UHFFFAOYSA-N
Temperature: 298 K
Tabular data in the source: 0
pressure (bar)	uptake (mmol/g)
0.000469049	2.42336
0.000656669	2.80292
0.00103191	3.15328
0.00178239	3.64964
0.00272049	3.9708
0.00422144	4.26277
0.00553478	4.52555
0.00825527	4.84672
0.0117262	5.16788
0.0136024	5.37226
0.0174486	5.63504
0.0226082	5.9562
0.0289873	6.30657
0.0353663	6.48175
