Adsorption isotherm of Toluene on Activated Carbon AT533R083t60-ox
DOI: 10.1016/j.fuproc.2013.10.024
Adsorbate Toluene: InChIKey YXFVVABEGXRONW-UHFFFAOYSA-N
Temperature: 298 K
Tabular data in the source: 0
pressure (bar)	uptake (mmol/g)
0.00037524	1.69963
0.000656669	2.72527
0.000938099	3.10623
0.00121953	3.36996
0.00197001	3.89744
0.00403382	4.3956
0.00553478	4.60073
0.00825527	4.89377
0.0109758	5.0989
0.0137901	5.27473
0.0176363	5.47985
0.0220453	5.62637
0.0278615	5.8022
0.0356478	5.97802
