Adsorption isotherm of Toluene on Activated Carbon AT400R15t30
DOI: 10.1016/j.fuproc.2013.10.024
Adsorbate Toluene: InChIKey YXFVVABEGXRONW-UHFFFAOYSA-N
Temperature: 298 K
Tabular data in the source: 0
pressure (bar)	uptake (mmol/g)
0.00037524	0.788321
0.000656669	1.22628
0.00112572	1.89781
0.00168858	3.18248
0.0028143	4.0292
0.00412763	4.58394
0.00544097	4.90511
0.00816146	5.28467
0.0116324	5.69343
0.0134148	5.86861
0.017261	6.10219
0.0223268	6.45255
0.0287058	6.80292
0.0348973	7.15328
