Adsorption isotherm of Toluene on Activated Carbon AT400R15t30-ox
DOI: 10.1016/j.fuproc.2013.10.024
Adsorbate Toluene: InChIKey YXFVVABEGXRONW-UHFFFAOYSA-N
Temperature: 298 K
Tabular data in the source: 0
pressure (bar)	uptake (mmol/g)
0.000562859	3.31136
0.00112572	3.54579
0.00215763	3.92674
0.00403382	4.30769
0.00534716	4.42491
0.00806765	4.68864
0.0105067	4.89377
0.0132272	5.0696
0.0169796	5.27473
0.0212948	5.42125
0.0269234	5.65568
0.0348035	5.97802
