Adsorption isotherm of Nitrogen on Activated Carbon AT400R15t30
DOI: 10.1016/j.fuproc.2013.10.024
Adsorbate Nitrogen: InChIKey IJGRMHOSHXDMSA-UHFFFAOYSA-N
Temperature: 77 K
Tabular data in the source: 0
pressure (bar)	uptake (cm3(STP)/g)
0.00726823	155.914
0.00969097	179.211
0.0242274	200.717
0.0363411	213.262
0.0557231	224.014
0.0799505	231.183
0.0969097	241.935
0.145365	254.48
0.198665	267.025
0.249543	274.194
0.297997	279.57
0.34403	284.946
0.390062	290.323
0.489394	297.491
0.583881	301.075
0.680791	302.867
0.777701	306.452
0.877033	308.244
0.925488	310.036
0.969097	310.036
