Adsorption isotherm of Toluene on Activated Carbon AT600R1t30-ox
DOI: 10.1016/j.fuproc.2013.10.024
Adsorbate Toluene: InChIKey YXFVVABEGXRONW-UHFFFAOYSA-N
Temperature: 298 K
Tabular data in the source: 0
pressure (bar)	uptake (mmol/g)
0.00037524	2.49084
0.000750479	2.98901
0.00103191	3.28205
0.00150096	3.51648
0.00206382	3.75092
0.00412763	4.27839
0.00553478	4.54212
0.00834908	4.77656
0.0108819	4.98168
0.0138839	5.12821
0.0179177	5.33333
0.0223268	5.50916
0.0287058	5.62637
0.0355539	5.74359
