Adsorption isotherm of Toluene on Activated Carbon AT400R1t75
DOI: 10.1016/j.fuproc.2013.10.024
Adsorbate Toluene: InChIKey YXFVVABEGXRONW-UHFFFAOYSA-N
Temperature: 298 K
Tabular data in the source: 0
pressure (bar)	uptake (mmol/g)
0.00037524	3.62044
0.000656669	3.85401
0.00112572	4.0292
0.00178239	4.35036
0.0028143	4.61314
0.00403382	4.81752
0.00534716	5.05109
0.00816146	5.28467
0.0114448	5.51825
0.0136962	5.66423
0.017261	5.83942
0.0222329	6.07299
0.0284244	6.33577
0.0349911	6.59854
