Adsorption isotherm of Nitrogen on Activated Carbon AT600R1t30-ox
DOI: 10.1016/j.fuproc.2013.10.024
Adsorbate Nitrogen: InChIKey IJGRMHOSHXDMSA-UHFFFAOYSA-N
Temperature: 77 K
Tabular data in the source: 0
pressure (bar)	uptake (cm3(STP)/g)
0.00969097	244.286
0.0290729	280.714
0.0605686	302.143
0.0872188	321.429
0.0993325	330
0.15021	353.571
0.201088	372.857
0.251965	387.857
0.305266	400.714
0.35372	409.286
0.392484	417.857
0.486971	437.143
0.583881	450
0.680791	462.857
0.780123	473.571
0.877033	484.286
0.966675	488.571
