Adsorption isotherm of Nitrogen on Activated Carbon AT600R1t30
DOI: 10.1016/j.fuproc.2013.10.024
Adsorbate Nitrogen: InChIKey IJGRMHOSHXDMSA-UHFFFAOYSA-N
Temperature: 77 K
Tabular data in the source: 0
pressure (bar)	uptake (cm3(STP)/g)
0.00484549	0.00484549
0.00726823	191.756
0.0121137	211.47
0.0193819	229.391
0.0363411	240.143
0.0508776	252.688
0.0678368	259.857
0.0799505	265.233
0.0993325	274.194
0.152633	293.907
0.198665	308.244
0.249543	318.996
0.30042	327.957
0.34403	335.125
0.390062	344.086
0.486971	353.047
0.583881	362.007
0.683214	370.968
0.780123	374.552
0.877033	378.136
0.942447	381.72
0.973943	405.018
