Adsorption isotherm of Nitrogen on Activated Carbon AT400R1t75
DOI: 10.1016/j.fuproc.2013.10.024
Adsorbate Nitrogen: InChIKey IJGRMHOSHXDMSA-UHFFFAOYSA-N
Temperature: 77 K
Tabular data in the source: 0
pressure (bar)	uptake (cm3(STP)/g)
0.0133555	256.272
0.0182878	274.194
0.0207887	290.323
0.0329719	304.659
0.0475778	318.996
0.0694346	329.749
0.0840318	342.294
0.103449	349.462
0.149559	365.591
0.200523	383.513
0.256307	396.057
0.304805	405.018
0.350864	410.394
0.392085	417.563
0.491452	424.731
0.588414	435.484
0.685332	437.276
0.779845	442.652
0.876773	446.237
0.925227	446.237
0.971277	449.821
