Adsorption isotherm of Nitrogen on Activated Carbon AT400R1t75-ox
DOI: 10.1016/j.fuproc.2013.10.024
Adsorbate Nitrogen: InChIKey IJGRMHOSHXDMSA-UHFFFAOYSA-N
Temperature: 77 K
Tabular data in the source: 0
pressure (bar)	uptake (cm3(STP)/g)
0.0121137	321.429
0.0290729	370.714
0.0557231	402.857
0.084796	426.429
0.0993325	435
0.15021	460.714
0.20351	482.143
0.254388	497.143
0.307688	507.857
0.35372	514.286
0.390062	522.857
0.486971	537.857
0.583881	550.714
0.680791	561.429
0.780123	567.857
0.877033	574.286
0.964252	576.429
