Adsorption isotherm of Nitrogen on Activated Carbon AT400R15t30-ox
DOI: 10.1016/j.fuproc.2013.10.024
Adsorbate Nitrogen: InChIKey IJGRMHOSHXDMSA-UHFFFAOYSA-N
Temperature: 77 K
Tabular data in the source: 0
pressure (bar)	uptake (cm3(STP)/g)
0.0314957	289.286
0.0581458	317.143
0.0775278	334.286
0.101755	351.429
0.147787	375
0.201088	394.286
0.249543	411.429
0.305266	424.286
0.35372	437.143
0.390062	445.714
0.484549	465
0.583881	484.286
0.683214	505.714
0.777701	527.143
0.87461	555
0.97152	578.571
