Adsorption isotherm of Toluene on Activated Carbon AT400R1t75-ox
DOI: 10.1016/j.fuproc.2013.10.024
Adsorbate Toluene: InChIKey YXFVVABEGXRONW-UHFFFAOYSA-N
Temperature: 298 K
Tabular data in the source: 0
pressure (bar)	uptake (mmol/g)
0.00028143	0.351648
0.000750479	1.99267
0.00112572	2.81319
0.00206382	4.21978
0.0038462	4.92308
0.00562859	5.12821
0.00834908	5.42125
0.0111634	5.62637
0.0136962	5.77289
0.0178239	5.91941
0.022702	6.06593
0.0287996	6.24176
0.0354601	6.35897
