Adsorption isotherm of Toluene on Activated Carbon AT467R117t45
DOI: 10.1016/j.fuproc.2013.10.024
Adsorbate Toluene: InChIKey YXFVVABEGXRONW-UHFFFAOYSA-N
Temperature: 298 K
Tabular data in the source: 0
pressure (bar)	uptake (mmol/g)
0.000656669	3.29927
0.00103191	3.70803
0.00168858	4.05839
0.00272049	4.46715
0.00422144	4.78832
0.00562859	5.0219
0.00834908	5.40146
0.0117262	5.69343
0.0136024	5.86861
0.0174486	6.07299
0.0224206	6.36496
0.028612	6.65693
0.0348973	6.94891
