Adsorption isotherm of Nitrogen on Activated Carbon AT467R117t45-ox
DOI: 10.1016/j.fuproc.2013.10.024
Adsorbate Nitrogen: InChIKey IJGRMHOSHXDMSA-UHFFFAOYSA-N
Temperature: 77 K
Tabular data in the source: 0
pressure (bar)	uptake (cm3(STP)/g)
0.00969097	265.714
0.0314957	310.714
0.0629913	340.714
0.084796	360
0.0993325	370.714
0.152633	398.571
0.201088	422.143
0.251965	439.286
0.305266	452.143
0.35372	465
0.390062	473.571
0.486971	495
0.581458	514.286
0.683214	529.286
0.780123	546.429
0.877033	563.571
0.97152	578.571
