Adsorption isotherm of Nitrogen on Activated Carbon AT467R117t45
DOI: 10.1016/j.fuproc.2013.10.024
Adsorbate Nitrogen: InChIKey IJGRMHOSHXDMSA-UHFFFAOYSA-N
Temperature: 77 K
Tabular data in the source: 0
pressure (bar)	uptake (cm3(STP)/g)
0.00969097	238.351
0.0169592	256.272
0.0218047	267.025
0.0363411	279.57
0.0460321	290.323
0.0557231	299.283
0.0702596	306.452
0.0823733	317.204
0.0969097	320.789
0.147787	347.67
0.196242	365.591
0.249543	381.72
0.302843	396.057
0.346452	405.018
0.387639	412.186
0.486971	426.523
0.583881	439.068
0.680791	449.821
0.777701	455.197
0.923065	465.95
0.966675	467.742
