Adsorption isotherm of Toluene on Activated Carbon AT467R117t45-ox
DOI: 10.1016/j.fuproc.2013.10.024
Adsorbate Toluene: InChIKey YXFVVABEGXRONW-UHFFFAOYSA-N
Temperature: 298 K
Tabular data in the source: 0
pressure (bar)	uptake (mmol/g)
0.00028143	0.879121
0.00103191	3.28205
0.00150096	3.72161
0.00197001	4.04396
0.00553478	5.18681
0.00806765	5.53846
0.0110696	5.8022
0.0137901	6.00733
0.0174486	6.24176
0.0219515	6.47619
0.0276739	6.73993
0.034053	6.85714
