Adsorption isotherm of Toluene on Activated Carbon AT533R083t60
DOI: 10.1016/j.fuproc.2013.10.024
Adsorbate Toluene: InChIKey YXFVVABEGXRONW-UHFFFAOYSA-N
Temperature: 298 K
Tabular data in the source: 0
pressure (bar)	uptake (mmol/g)
0.00037524	2.77372
0.000562859	2.91971
0.00112572	3.18248
0.00168858	3.44526
0.00262668	3.67883
0.00403382	3.85401
0.00544097	4
0.00825527	4.20438
0.0119139	4.37956
0.0138839	4.46715
0.0173548	4.58394
0.0224206	4.72993
0.0287058	4.84672
0.0347097	4.9635
