Adsorption isotherm of Nitrogen on Activated Carbon AT533R083t60-ox
DOI: 10.1016/j.fuproc.2013.10.024
Adsorbate Nitrogen: InChIKey IJGRMHOSHXDMSA-UHFFFAOYSA-N
Temperature: 77 K
Tabular data in the source: 0
pressure (bar)	uptake (cm3(STP)/g)
0.00726823	227.143
0.0290729	257.143
0.0533003	282.857
0.0726823	289.286
0.101755	302.143
0.142942	317.143
0.201088	332.143
0.251965	342.857
0.305266	351.429
0.35372	360
0.385216	362.143
0.484549	379.286
0.581458	385.714
0.678368	394.286
0.775278	400.714
0.87461	405
0.964252	409.286
