Adsorption isotherm of Nitrogen on Activated Carbon AT533R083t60
DOI: 10.1016/j.fuproc.2013.10.024
Adsorbate Nitrogen: InChIKey IJGRMHOSHXDMSA-UHFFFAOYSA-N
Temperature: 77 K
Tabular data in the source: 0
pressure (bar)	uptake (cm3(STP)/g)
0.00969097	186.38
0.0169592	209.677
0.0339184	225.806
0.0533003	243.728
0.075105	258.065
0.094487	267.025
0.135674	284.946
0.196242	299.283
0.249543	308.244
0.297997	317.204
0.341607	324.373
0.385216	329.749
0.482126	338.71
0.581458	345.878
0.675945	354.839
0.777701	360.215
0.872188	363.799
0.920642	365.591
0.964252	370.968
