Adsorption isotherm of Nitrogen on COF-ETTA-ETTCA-S
DOI: 10.1021/acsami.0c08984
Article source: Figure 2
Adsorbate Nitrogen: InChIKey IJGRMHOSHXDMSA-UHFFFAOYSA-N
Kind: experiment
Temperature: 77 K
Tabular data in the source: 0
pressure (bar)	uptake ()
0.010126	0.55126
0.027577	4.03144
0.051375	4.90148
0.075172	5.77152
0.100556	5.77152
0.151324	6.64157
0.202093	8.38166
0.252861	9.2517
0.302042	9.2517
0.354397	10.1217
0.405165	13.6019
0.451174	12.7319
0.505115	13.6019
0.555883	15.342
0.608237	17.0821
0.655832	17.0821
0.706601	17.9521
0.763715	19.6922
0.80655	19.6922
0.858905	22.3024
0.908086	24.9125
0.931884	26.6526
0.944576	26.6526
0.954095	27.5226
0.960441	31.0028
0.971547	35.353
0.981066	39.7033
0.990585	44.0535
0.992171	51.0138
1.0001	59.7143
