Adsorption isotherm of Nitrogen on COF-ETTA-ETTCA
DOI: 10.1021/acsami.0c08984
Article source: Figure 2
Adsorbate Nitrogen: InChIKey IJGRMHOSHXDMSA-UHFFFAOYSA-N
Kind: experiment
Temperature: 77 K
Tabular data in the source: 0
pressure (bar)	uptake ()
0.008539	10.9918
0.010126	24.0425
0.008539	37.0931
0.008539	46.6636
0.008539	58.8442
0.010126	70.1548
0.011712	81.4654
0.011712	88.4257
0.013299	97.1262
0.022818	114.527
0.046615	128.448
0.078345	133.668
0.103729	141.498
0.154497	150.199
0.203679	159.769
0.254447	166.73
0.305215	176.3
0.351224	183.261
0.405165	191.091
0.454347	200.661
0.508288	206.752
0.554296	215.452
0.609824	223.283
0.655832	230.243
0.706601	239.813
0.758955	246.774
0.81131	252.864
0.857318	262.435
0.909673	271.135
0.935057	277.225
0.947749	280.706
0.954095	285.056
0.966787	292.016
0.97472	298.976
0.985825	305.937
1.0001	323.338
1.00169	344.219
0.987412	330.298
0.979479	319.857
0.96996	309.417
0.957268	301.587
0.944576	295.496
0.931884	288.536
0.909673	285.926
0.862078	274.615
0.81131	265.915
0.757369	257.214
0.708187	249.384
0.663765	243.294
0.609824	236.333
0.555883	227.633
0.508288	220.672
0.454347	211.972
0.408338	205.882
0.35281	196.311
0.306802	191.091
0.252861	180.65
0.154497	163.25
0.100556	152.809
0.073586	146.719
0.051375	140.628
0.19892	171.95
