Adsorption isotherm of Carbon Dioxide on [In2(pydc)3(H2O)]*0.5I2*0.5H2O
DOI: 10.1039/C3ce41337c
Adsorbate Carbon Dioxide: InChIKey CURLTUGMZLYLDI-UHFFFAOYSA-N
Temperature: 293 K
Tabular data in the source: 0
pressure (bar)	uptake (cm3(STP)/g)
0.575206	2.09185
1.15041	3.02091
2.15702	4.99561
4.17023	8.13104
6.18342	11.499
8.62809	14.2848
10.9289	16.7219
13.5173	18.6934
14.9553	20.0858
18.4065	22.1718
20.9949	23.5619
23.5834	24.952
26.747	25.992
29.623	26.9164
32.0676	27.7254
35.0875	28.7657
37.9634	29.6901
40.9833	30.6142
44.0031	30.8406
46.3039	31.6499
49.4676	32.3411
52.1998	33.1495
53.9254	33.146
54.5006	33.2611
55.651	33.6076
