Adsorption isotherm of Carbon Dioxide on CD-MOF-2
DOI: 10.1021/ja206525x
Adsorbate Carbon Dioxide: InChIKey CURLTUGMZLYLDI-UHFFFAOYSA-N
Temperature: 273 K
Tabular data in the source: 0
pressure (bar)	uptake (cm3(STP)/g)
0.00401593	15.1217
0.0218665	29.937
0.17103	39.4219
0.223501	43.0364
0.270933	45.5938
0.335522	48.4487
0.389264	51.3067
0.501007	55.9629
0.601792	60.3198
0.719399	64.0669
0.819905	67.6678
0.935629	70.5081
1.03132	73.6566
1.07039	74.5528
