Adsorption isotherm of Carbon Dioxide on CD-MOF-2
DOI: 10.1021/ja206525x
Adsorbate Carbon Dioxide: InChIKey CURLTUGMZLYLDI-UHFFFAOYSA-N
Temperature: 283 K
Tabular data in the source: 0
pressure (bar)	uptake (cm3(STP)/g)
-0.00479802	8.01649
0.00259527	23.8934
0.0538035	32.4988
0.225542	40.1625
0.282272	42.7172
0.326605	45.2754
0.383391	47.9813
0.498122	52.3342
0.603165	55.6313
0.706827	59.3824
0.817958	62.3753
0.925934	65.2178
1.0307	67.7588
1.07752	68.6528
