Adsorption isotherm of Carbon Dioxide on CD-MOF-2
DOI: 10.1021/ja206525x
Adsorbate Carbon Dioxide: InChIKey CURLTUGMZLYLDI-UHFFFAOYSA-N
Temperature: 298 K
Tabular data in the source: 0
pressure (bar)	uptake (cm3(STP)/g)
-0.00663463	3.02647
0.00524912	22.6828
0.052746	29.6258
0.168089	35.642
0.277949	39.3914
0.32809	40.8894
0.379893	42.6893
0.481894	46.1385
0.591252	48.5269
0.697623	51.2187
0.804105	54.2129
0.914791	55.9961
1.02094	58.083
1.06643	59.5823
