Adsorption isotherm of Methane on CD-MOF-2
DOI: 10.1021/ja206525x
Adsorbate Methane: InChIKey VNWKTOKETHGBQD-UHFFFAOYSA-N
Temperature: 298 K
Tabular data in the source: 0
pressure (bar)	uptake (cm3(STP)/g)
-0.00425905	1.05982
0.0623714	1.0408
0.119649	0.873232
0.171062	1.61471
0.276598	2.03828
0.379313	3.2188
0.487893	3.49028
0.550042	3.92623
0.603004	4.66726
0.713412	5.69436
0.76914	5.52723
0.824923	5.51131
0.936769	6.23554
1.04236	6.81033
