Adsorption isotherm of Water on CuBTC
DOI: 10.1021/ja302787x
Adsorbate Water: InChIKey XLYOFNOQVPJJNP-UHFFFAOYSA-N
Temperature: 298 K
Tabular data in the source: 0
pressure (bar)	uptake (mmol/g)
0.00144597	6.69743
0.00460082	8.2025
0.00775566	9.70758
0.0109105	10.0978
0.0173516	10.6933
0.0235299	11.8447
0.0298396	12.9968
