Adsorption isotherm of Water on MIL-100(Fe)
DOI: 10.1021/ja302787x
Adsorbate Water: InChIKey XLYOFNOQVPJJNP-UHFFFAOYSA-N
Temperature: 298 K
Tabular data in the source: 0
pressure (bar)	uptake (mmol/g)
0.00157797	0.185028
0.00473884	2.22033
0.00789916	4.07061
0.0109697	19.983
0.0174645	38.1157
0.023646	39.2259
0.0300893	39.966
