Adsorption isotherm of Water on CuBTC
DOI: 10.1021/ja302787x
Adsorbate Water: InChIKey XLYOFNOQVPJJNP-UHFFFAOYSA-N
Temperature: 298 K
Tabular data in the source: 0
pressure (bar)	uptake (mmol/g)
0.00157742	3.14547
0.00473227	13.322
0.00775566	21.8333
0.011042	22.9435
0.0173516	24.4237
0.0235299	25.3488
0.0298396	29.2344
