Adsorption isotherm of Water on CuBTC
DOI: 10.1021/ja302787x
Adsorbate Water: InChIKey XLYOFNOQVPJJNP-UHFFFAOYSA-N
Temperature: 298 K
Tabular data in the source: 0
pressure (bar)	uptake (mmol/g)
0.00157742	6.88401
0.00460082	8.75991
0.00775566	10.4508
0.0107791	11.3977
0.0173516	12.1798
0.0235299	13.5169
0.0298396	15.598
