Adsorption isotherm of Water on CuBTC
DOI: 10.1021/ja302787x
Adsorbate Water: InChIKey XLYOFNOQVPJJNP-UHFFFAOYSA-N
Temperature: 298 K
Tabular data in the source: 0
pressure (bar)	uptake (mmol/g)
0.00157742	5.955
0.00460082	11.5469
0.00775566	19.9267
0.0109105	21.4318
0.0173516	22.3989
0.0235299	23.3644
0.0298396	27.6752
