Adsorption isotherm of Water on UiO-66
DOI: 10.1021/ja302787x
Adsorbate Water: InChIKey XLYOFNOQVPJJNP-UHFFFAOYSA-N
Temperature: 298 K
Tabular data in the source: 0
pressure (bar)	uptake (mmol/g)
0.00158509	2.59039
0.00474432	4.07061
0.00764009	5.36581
0.0110721	10.1765
0.0173878	12.2118
0.0234401	14.0621
0.0299026	21.2782
