Adsorption isotherm of Water on CuBTC
DOI: 10.1021/ja302787x
Adsorbate Water: InChIKey XLYOFNOQVPJJNP-UHFFFAOYSA-N
Temperature: 298 K
Tabular data in the source: 0
pressure (bar)	uptake (mmol/g)
0.00157742	7.81302
0.00473227	12.1051
0.00775566	19.1835
0.0109105	19.2021
0.0173516	19.9834
0.0236613	20.9498
0.0298396	24.8882
