Adsorption isotherm of Water on CuBTC
DOI: 10.1021/ja302787x
Adsorbate Water: InChIKey XLYOFNOQVPJJNP-UHFFFAOYSA-N
Temperature: 298 K
Tabular data in the source: 0
pressure (bar)	uptake (mmol/g)
0.00446936	8.38753
0.00788711	11.1948
0.011042	11.7708
0.0173516	12.3656
0.0235299	13.5169
0.0298396	19.3141
