Adsorption isotherm of Water on UiO-66
DOI: 10.1021/ja302787x
Adsorbate Water: InChIKey XLYOFNOQVPJJNP-UHFFFAOYSA-N
Temperature: 298 K
Tabular data in the source: 0
pressure (bar)	uptake (mmol/g)
0.00157852	0.370056
0.00473774	1.85028
0.0079019	4.99575
0.0110699	9.43642
0.0172547	11.6568
0.0235693	13.322
0.0297678	20.168
