Adsorption isotherm of Water on Zeolite 3A
DOI: 10.1007/s10450-020-00283-8
Article source: Figure 7
Adsorbate Water: InChIKey XLYOFNOQVPJJNP-UHFFFAOYSA-N
Kind: experiment
Temperature: 473 K
Tabular data in the source: 0
pressure (bar)	uptake (g/g)
0.1024	0.04926
0.20036	0.07031
0.30276	0.08419
0.40071	0.09367
0.50312	0.09945
0.75245	0.105
1.00178	0.11055
1.50045	0.12188
2.00356	0.12281
2.39982	0.12188
