Adsorption isotherm of Water on Zeolite 3A
DOI: 10.1007/s10450-020-00283-8
Article source: Figure 7
Adsorbate Water: InChIKey XLYOFNOQVPJJNP-UHFFFAOYSA-N
Kind: experiment
Temperature: 573 K
Tabular data in the source: 0
pressure (bar)	uptake (g/g)
0.1024	0.00925
0.20036	0.01411
0.29831	0.01665
0.39626	0.01989
0.49866	0.02035
0.75245	0.03007
1.00178	0.03238
1.5049	0.04972
2.00356	0.05736
2.39982	0.06106
