Adsorption isotherm of Water on Zeolite 3A
DOI: 10.1007/s10450-020-00283-8
Article source: Figure 7
Adsorbate Water: InChIKey XLYOFNOQVPJJNP-UHFFFAOYSA-N
Kind: experiment
Temperature: 623 K
Tabular data in the source: 0
pressure (bar)	uptake (g/g)
0.1024	0.00648
0.20036	0.00833
0.29831	0.00879
0.40071	0.01272
0.50312	0.01503
0.75245	0.01711
1.00178	0.02128
1.50045	0.02637
2.00356	0.03169
2.39982	0.03192
