Adsorption isotherm of Water on Zeolite 3A
DOI: 10.1007/s10450-020-00283-8
Article source: Figure 7
Adsorbate Water: InChIKey XLYOFNOQVPJJNP-UHFFFAOYSA-N
Kind: experiment
Temperature: 523 K
Tabular data in the source: 0
pressure (bar)	uptake (g/g)
0.20036	0.03932
0.29831	0.04718
0.40071	0.05643
0.50312	0.06453
0.748	0.07239
1.00178	0.08627
1.5049	0.10222
2.00356	0.1087
2.39982	0.11194
