Adsorption isotherm of N-Hexane on MIL-88A
DOI: 10.1021/Cm303830b
Adsorbate N-Hexane: InChIKey VLKZOEOYAKHREP-UHFFFAOYSA-N
Temperature: 313 K
Tabular data in the source: 0
pressure (bar)	uptake (mg/g)
0.00153694	-0.0312485
0.00370521	8.70825
0.00749968	14.3889
0.0112941	22.2545
0.0237617	26.4057
0.0362292	30.7755
0.0546595	33.8343
0.082847	37.3301
0.122418	41.4814
0.153316	44.3217
0.176625	46.5066
0.205354	50.0024
0.221074	53.4982
