Adsorption isotherm of N-Nonane on MIL-88B
DOI: 10.1021/Cm303830b
Adsorbate N-Nonane: InChIKey BKIMMITUMNQMOS-UHFFFAOYSA-N
Temperature: 313 K
Tabular data in the source: 0
pressure (bar)	uptake (mg/g)
0.000254	0.202863
0.00446424	3.69866
0.00912239	7.3037
0.0151242	8.83312
0.0201407	9.48858
0.0251572	10.2533
0.0298153	10.144
0.0337568	10.7995
0.0345631	11.6735
0.0354589	12.1104
0.036713	12.5474
