Adsorption isotherm of N-Pentane on MIL-88A
DOI: 10.1021/Cm303830b
Adsorbate N-Pentane: InChIKey OFBQJSOFQDEBGM-UHFFFAOYSA-N
Temperature: 303 K
Tabular data in the source: 0
pressure (bar)	uptake (mg/g)
0.00327013	0.405726
0.00861542	29.0276
0.0246513	39.7335
0.0674137	48.6914
0.12443	57.2124
0.186792	61.8007
0.247372	65.2965
0.300825	67.6998
0.345369	68.5738
0.389913	70.5402
0.438021	70.3217
0.448711	71.1956
0.466529	71.8511
0.491474	73.3805
0.552054	75.3469
0.626888	78.4057
0.708849	82.12
0.762302	84.9604
0.78012	86.4898
