Adsorption isotherm of N-Octane on MIL-88B
DOI: 10.1021/Cm303830b
Adsorbate N-Octane: InChIKey TVMXDCGIABBOFY-UHFFFAOYSA-N
Temperature: 313 K
Tabular data in the source: 0
pressure (bar)	uptake (mg/g)
0.000523	0.0936194
0.00213517	0.967569
0.0055392	2.71547
0.00786827	3.15244
0.0116306	3.91715
0.0144076	4.57261
0.0164679	5.66505
0.0180804	6.539
0.0202303	7.41295
0.0264113	8.06841
0.0297258	9.0516
0.0344735	10.0348
0.0357276	11.2365
