Adsorption isotherm of N-Pentane on MIL-88B
DOI: 10.1021/Cm303830b
Adsorbate N-Pentane: InChIKey OFBQJSOFQDEBGM-UHFFFAOYSA-N
Temperature: 313 K
Tabular data in the source: 0
pressure (bar)	uptake (mg/g)
0.00964421	7.84992
0.0197025	11.8919
0.0322754	14.4045
0.0850814	17.2449
0.125314	18.9928
0.168062	20.4129
0.235956	22.2701
0.291276	23.3625
0.32648	24.455
0.351626	25.4382
0.376772	25.6566
0.417005	26.5306
0.494956	27.5138
0.555306	28.06
0.615656	28.497
0.663433	29.5894
0.779103	31.2281
0.834424	32.4298
0.874657	33.7407
0.899803	35.7071
0.91489	37.018
0.955123	39.3121
