Adsorption isotherm of N-Octane on MIL-88B-Br
DOI: 10.1021/Cm303830b
Adsorbate N-Octane: InChIKey TVMXDCGIABBOFY-UHFFFAOYSA-N
Temperature: 313 K
Tabular data in the source: 0
pressure (bar)	uptake (mg/g)
-6.1e-07	0.0427109
5.57e-05	2.78919
0.000675	4.26806
0.00146418	4.98637
0.00264728	5.8737
0.00394305	6.71877
0.00557686	7.60609
0.00709798	8.3244
0.00878812	8.8737
0.0106473	9.42299
0.0125064	9.76102
0.0165064	10.5216
0.0203374	11.1131
0.0242811	11.6624
0.0277177	12.1695
0.0353233	13.0145
