Adsorption isotherm of N-Hexane on MIL-88B-Br
DOI: 10.1021/Cm303830b
Adsorbate N-Hexane: InChIKey VLKZOEOYAKHREP-UHFFFAOYSA-N
Temperature: 313 K
Tabular data in the source: 0
pressure (bar)	uptake (mg/g)
0.000274	4.89543
0.00242974	6.16266
0.00566335	7.82316
0.0105138	9.52736
0.0218314	11.319
0.0326101	12.8484
0.0477003	14.5089
0.0622516	16.0383
0.0768028	16.8685
0.111295	18.8349
0.126924	19.6652
0.146326	20.4954
0.183512	21.5442
0.219082	22.4618
0.256807	23.5106
0.293994	24.603
