Adsorption isotherm of N-Hexane on MIL-88B-2CF3
DOI: 10.1021/Cm303830b
Adsorbate N-Hexane: InChIKey VLKZOEOYAKHREP-UHFFFAOYSA-N
Temperature: 313 K
Tabular data in the source: 0
pressure (bar)	uptake (mg/g)
0.00182108	44.2411
0.00323215	53.6228
0.0159318	60.3731
0.024751	63.2334
0.0374507	67.8098
0.0575585	72.1575
0.0942465	77.7636
0.150689	83.3698
0.22336	89.6624
0.298499	95.4974
0.354942	96.8703
