Adsorption isotherm of N-Hexane on MIL-88B-2CF3
DOI: 10.1021/Cm303830b
Adsorbate N-Hexane: InChIKey VLKZOEOYAKHREP-UHFFFAOYSA-N
Temperature: 313 K
Tabular data in the source: 0
pressure (bar)	uptake (mg/g)
0.000679	1.01432
0.00230324	49.6278
0.0128636	60.0059
0.040483	69.2916
0.0957219	79.1236
0.15421	84.5857
0.236256	91.6866
0.29312	95.5101
