Adsorption isotherm of N-Heptane on MIL-88B
DOI: 10.1021/Cm303830b
Adsorbate N-Heptane: InChIKey IMNFDUFMRHMDMM-UHFFFAOYSA-N
Temperature: 313 K
Tabular data in the source: 0
pressure (bar)	uptake (mg/g)
0.000223	0.749082
0.00289768	6.42975
0.00637425	9.59782
0.0125251	12.1104
0.0237571	15.2785
0.0291057	16.0432
0.0395354	16.8079
0.0515697	18.0096
0.0641388	19.6482
0.0743011	21.7239
0.0871377	23.4718
0.0924862	24.1272
0.0956954	23.9087
0.100242	24.8919
0.101846	25.3289
0.103718	25.5474
0.105055	26.7491
0.109869	27.8415
