Adsorption isotherm of N-Hexane on MIL-88B-Br
DOI: 10.1021/Cm303830b
Adsorbate N-Hexane: InChIKey VLKZOEOYAKHREP-UHFFFAOYSA-N
Temperature: 313 K
Tabular data in the source: 0
pressure (bar)	uptake (mg/g)
0.000679	1.01432
0.00555258	9.20759
0.0364214	15.7622
0.14365	21.2244
0.220822	23.4093
0.297181	26.1404
