Adsorption isotherm of N-Hexane on MIL-88A
DOI: 10.1021/Cm303830b
Adsorbate N-Hexane: InChIKey VLKZOEOYAKHREP-UHFFFAOYSA-N
Temperature: 313 K
Tabular data in the source: 0
pressure (bar)	uptake (mg/g)
0.000679	0.149791
0.00636492	13.4338
0.0136759	21.8237
0.0299227	28.1162
0.0453571	31.9616
0.0575421	34.7582
0.0729765	36.5061
0.0924726	39.4775
0.116843	41.9246
0.141213	43.6725
0.176956	46.2943
0.210261	49.7901
0.247629	53.2859
0.283372	56.4321
0.332924	63.9481
0.345921	65.8708
0.350795	67.6187
