Adsorption isotherm of N-Heptane on MIL-88B-Br
DOI: 10.1021/Cm303830b
Adsorbate N-Heptane: InChIKey IMNFDUFMRHMDMM-UHFFFAOYSA-N
Temperature: 313 K
Tabular data in the source: 0
pressure (bar)	uptake (mg/g)
-6.79e-05	3.28759
0.00079	4.3602
0.00250639	5.77604
0.00490903	6.97736
0.00834138	8.13578
0.0119453	9.29419
0.0181236	10.4526
0.0270476	11.611
0.0388892	12.8982
0.0450674	13.2414
0.0577671	14.0995
0.0694371	14.7859
0.0819651	15.4295
0.0938067	16.1589
