Adsorption isotherm of N-Heptane on MIL-88B-4CH3
DOI: 10.1021/Cm303830b
Adsorbate N-Heptane: InChIKey IMNFDUFMRHMDMM-UHFFFAOYSA-N
Temperature: 313 K
Tabular data in the source: 0
pressure (bar)	uptake (mg/g)
0.000679	1.01432
0.00230324	128.829
0.00717726	150.132
0.0153006	164.334
0.0372337	180.72
0.0689148	191.098
0.126591	200.93
0.160709	206.392
0.219197	211.855
