Adsorption isotherm of N-Nonane on MIL-88B-4CH3
DOI: 10.1021/Cm303830b
Adsorbate N-Nonane: InChIKey BKIMMITUMNQMOS-UHFFFAOYSA-N
Temperature: 313 K
Tabular data in the source: 0
pressure (bar)	uptake (mg/g)
9.84e-05	0.355924
0.000158	121.483
0.000197	134.863
0.000355	143.314
0.000749	152.469
0.00167584	160.919
0.00212936	164.088
0.00268148	168.666
0.00337162	170.426
0.00421951	173.947
0.0056195	176.764
0.00830119	181.694
0.0112195	181.342
