Adsorption isotherm of N-Pentane on MIL-88C
DOI: 10.1021/Cm303830b
Adsorbate N-Pentane: InChIKey OFBQJSOFQDEBGM-UHFFFAOYSA-N
Temperature: 303 K
Tabular data in the source: 0
pressure (bar)	uptake (mg/g)
0.0146734	0.0811453
0.120285	0.124843
0.163033	0.474423
0.218354	0.780305
0.273674	1.39207
0.301335	1.91644
0.371742	2.30972
0.437121	3.31476
0.53016	3.22736
0.570394	3.70804
0.691093	5.36854
0.741385	6.59207
0.786647	7.7282
0.82688	8.73325
0.867113	9.34501
0.904832	10.3938
0.937521	11.224
0.990327	12.3164
1.0029	12.8408
1.03307	14.2828
1.07582	14.982
1.07582	16.0307
1.09594	17.5164
1.09594	18.5652
