Adsorption isotherm of N-Octane on MIL-88A
DOI: 10.1021/Cm303830b
Adsorbate N-Octane: InChIKey TVMXDCGIABBOFY-UHFFFAOYSA-N
Temperature: 313 K
Tabular data in the source: 0
pressure (bar)	uptake (mg/g)
0.000254	0.405726
0.00321012	3.68304
0.00983903	7.61581
0.0166471	9.36371
0.0251572	12.204
0.0325027	15.0444
0.0392212	17.2293
