Adsorption isotherm of N-Nonane on MIL-88B
DOI: 10.1021/Cm303830b
Adsorbate N-Nonane: InChIKey BKIMMITUMNQMOS-UHFFFAOYSA-N
Temperature: 313 K
Tabular data in the source: 0
pressure (bar)	uptake (mg/g)
0.000117	0.0936194
0.00171034	3.69866
0.00321131	7.19446
0.00511049	8.39614
0.00676461	9.37933
0.00866379	10.144
0.0101648	10.144
0.01139	10.581
0.0120946	12.1104
0.0124315	12.6566
