Adsorption isotherm of N-Octane on MIL-88A
DOI: 10.1021/Cm303830b
Adsorbate N-Octane: InChIKey TVMXDCGIABBOFY-UHFFFAOYSA-N
Temperature: 313 K
Tabular data in the source: 0
pressure (bar)	uptake (mg/g)
0.000164	0.149791
0.00312054	3.82038
0.00706206	5.74307
0.0101973	7.31618
0.0144076	8.19013
0.0170054	9.41366
0.0201407	10.1128
0.0224698	11.5111
0.0250676	12.0355
0.0272175	13.259
0.0300841	13.9582
0.0323236	15.0069
0.0345631	16.2305
0.0368026	16.7548
0.0386837	17.9784
