Adsorption isotherm of N-Heptane on MIL-88A
DOI: 10.1021/Cm303830b
Adsorbate N-Heptane: InChIKey IMNFDUFMRHMDMM-UHFFFAOYSA-N
Temperature: 313 K
Tabular data in the source: 0
pressure (bar)	uptake (mg/g)
0.000758	0.187239
0.0031651	3.02758
0.00744396	4.99396
0.0122577	6.74186
0.0200131	8.27127
0.0277685	11.3301
0.0323148	12.4225
0.0406051	14.1704
0.0491628	16.1368
0.0628017	18.7587
0.074836	21.3805
0.0884748	25.0948
0.0975674	29.2461
0.10666	33.3973
0.115485	36.8931
