Adsorption isotherm of N-Octane on MIL-88C
DOI: 10.1021/Cm303830b
Adsorbate N-Octane: InChIKey TVMXDCGIABBOFY-UHFFFAOYSA-N
Temperature: 313 K
Tabular data in the source: 0
pressure (bar)	uptake (mg/g)
0.000254	-0.0062497
0.00249348	1.12988
0.00697248	2.09123
0.00983903	2.70299
0.0111827	3.00888
0.0127952	4.10131
0.0161096	4.4072
0.0202303	4.80047
0.0237239	4.93157
0.0256947	4.93157
0.0275758	5.23745
0.0299945	5.10636
0.0324131	5.41224
0.0358172	5.84921
0.0387733	6.67946
