Adsorption isotherm of N-Hexane on MIL-88C
DOI: 10.1021/Cm303830b
Adsorbate N-Hexane: InChIKey VLKZOEOYAKHREP-UHFFFAOYSA-N
Temperature: 313 K
Tabular data in the source: 0
pressure (bar)	uptake (mg/g)
0.000679	1.01432
0.0274857	1.56053
0.0689148	3.19919
0.130652	3.19919
0.185891	4.83784
0.240318	7.56894
0.294744	10.8462
0.31424	13.0311
