Adsorption isotherm of N-Hexane on MIL-88B
DOI: 10.1021/Cm303830b
Adsorbate N-Hexane: InChIKey VLKZOEOYAKHREP-UHFFFAOYSA-N
Temperature: 313 K
Tabular data in the source: 0
pressure (bar)	uptake (mg/g)
0.000679	1.2953
0.00636492	7.41295
0.0120513	10.4718
0.0177376	11.455
0.025861	13.3121
0.0323597	13.8583
0.04292	14.9508
0.0510434	15.8247
0.0632285	16.4802
0.0640408	17.4634
0.0681025	17.5726
0.0843492	18.7743
0.100596	19.6482
0.137151	21.5054
0.15421	23.144
0.16477	23.7995
0.176956	24.5642
0.212698	26.3121
0.223259	26.5306
0.270374	29.2617
0.284996	30.4634
0.300431	30.5726
0.319114	32.102
0.326425	32.6482
0.334549	33.5222
