Adsorption isotherm of N-Heptane on MIL-88C
DOI: 10.1021/Cm303830b
Adsorbate N-Heptane: InChIKey IMNFDUFMRHMDMM-UHFFFAOYSA-N
Temperature: 313 K
Tabular data in the source: 0
pressure (bar)	uptake (mg/g)
0.00182796	0.212238
0.00557196	0.911397
0.0165365	1.47946
0.0253617	2.09123
0.0309777	2.39711
0.039268	2.6593
0.0483605	2.96518
0.0574531	3.53325
0.0644062	3.92652
0.0721617	4.3635
0.0807194	4.71308
0.0890097	4.97526
0.093556	5.54333
0.101044	6.37358
0.105858	6.59207
0.109067	7.20383
0.11709	8.60215
