Adsorption isotherm of N-Heptane on MIL-88A
DOI: 10.1021/Cm303830b
Adsorbate N-Heptane: InChIKey IMNFDUFMRHMDMM-UHFFFAOYSA-N
Temperature: 313 K
Tabular data in the source: 0
pressure (bar)	uptake (mg/g)
0.000223	0.499371
0.00369996	3.64559
0.011188	6.44223
0.0165365	7.66576
0.0213502	9.58845
0.0253617	11.1616
0.0344542	12.7347
0.0459537	14.6574
0.0499651	16.58
0.0593251	17.9784
0.0633365	18.8523
0.0740337	21.2994
0.0807194	22.8725
0.0887422	24.4456
0.0895445	25.8439
0.0959628	27.5918
0.10559	31.9616
0.11495	36.8557
