Adsorption isotherm of N-Octane on MIL-88B-2CF3
DOI: 10.1021/Cm303830b
Adsorbate N-Octane: InChIKey TVMXDCGIABBOFY-UHFFFAOYSA-N
Temperature: 313 K
Tabular data in the source: 0
pressure (bar)	uptake (mg/g)
0.000112	0.677886
0.000281	50.537
0.000281	56.4525
0.000844	63.5511
0.00168953	67.4384
0.0025346	69.9737
0.00422474	73.523
0.00625291	76.5652
0.0101966	80.2835
0.015436	84.5089
0.0246754	88.5652
0.0317177	92.1145
0.0393797	95.6638
