Adsorption isotherm of N-Hexane on MIL-88C
DOI: 10.1021/Cm303830b
Adsorbate N-Hexane: InChIKey VLKZOEOYAKHREP-UHFFFAOYSA-N
Temperature: 313 K
Tabular data in the source: 0
pressure (bar)	uptake (mg/g)
0.00798959	0.124843
0.0242363	0.34333
0.0494187	0.8677
0.0607914	1.26098
0.0778505	1.26098
0.110344	1.87274
0.14365	2.5719
0.166395	3.40215
0.189953	4.14501
0.201326	4.62568
0.223259	5.63072
0.241942	5.89291
0.257377	6.41728
0.275248	7.68451
0.293932	9.38871
0.309366	10.6559
0.327238	11.9232
0.343484	13.1467
0.361356	16.2929
