Adsorption isotherm of N-Pentane on MIL-88A
DOI: 10.1021/Cm303830b
Adsorbate N-Pentane: InChIKey OFBQJSOFQDEBGM-UHFFFAOYSA-N
Temperature: 303 K
Tabular data in the source: 0
pressure (bar)	uptake (mg/g)
0.00505189	0.187239
0.0103972	30.12
0.0299966	39.2965
0.0531595	46.0696
0.0870131	52.8427
0.135121	58.0864
0.18501	61.5822
0.233118	65.078
0.279444	66.1704
0.338242	68.3553
0.39704	70.5402
0.439802	70.5402
0.473656	73.3805
0.519982	74.2545
0.612634	77.9688
0.676777	80.8091
0.71954	82.7755
0.756957	84.7419
0.783683	87.1452
