Adsorption isotherm of N-Pentane on MIL-88B
DOI: 10.1021/Cm303830b
Adsorbate N-Pentane: InChIKey OFBQJSOFQDEBGM-UHFFFAOYSA-N
Temperature: 303 K
Tabular data in the source: 0
pressure (bar)	uptake (mg/g)
0.00461507	0.202863
0.0222171	10.7995
0.0398191	13.7491
0.0901105	17.0264
0.175606	20.5222
0.240985	22.1608
0.323966	24.3457
0.371742	25.7659
0.492442	27.2953
0.56285	28.3877
0.613141	28.3877
0.653374	29.4802
0.764016	30.9003
0.831909	32.3205
0.857055	33.8499
0.950094	39.0936
