Adsorption isotherm of N-Heptane on MIL-88B-2CF3
DOI: 10.1021/Cm303830b
Adsorbate N-Heptane: InChIKey IMNFDUFMRHMDMM-UHFFFAOYSA-N
Temperature: 313 K
Tabular data in the source: 0
pressure (bar)	uptake (mg/g)
0.00168831	43.7765
0.00219535	49.861
0.00287141	55.2694
0.00557564	60.5089
0.00844887	63.0441
0.0130123	67.2694
0.0209559	69.8046
0.0322799	74.03
0.0501954	79.1004
0.0743644	83.8328
0.0970123	88.7342
0.116618	92.1145
