Adsorption isotherm of N-Heptane on MIL-88B
DOI: 10.1021/Cm303830b
Adsorbate N-Heptane: InChIKey IMNFDUFMRHMDMM-UHFFFAOYSA-N
Temperature: 313 K
Tabular data in the source: 0
pressure (bar)	uptake (mg/g)
0.000758	0.0936194
0.00369996	6.32051
0.00637425	8.94236
0.0127925	12.2197
0.0240245	14.8415
0.0309777	16.0432
0.0403377	16.6987
0.0526394	18.1188
0.063604	19.4298
0.0732314	21.3961
0.0753708	22.0516
0.0882074	23.3625
0.0930211	23.9087
0.0973	23.581
0.0981022	24.455
0.101311	25.0012
0.104521	25.9844
0.108265	27.4045
