Adsorption isotherm of N-Nonane on MIL-88B-Br
DOI: 10.1021/Cm303830b
Adsorbate N-Nonane: InChIKey BKIMMITUMNQMOS-UHFFFAOYSA-N
Temperature: 313 K
Tabular data in the source: 0
pressure (bar)	uptake (mg/g)
3.92e-05	0.211725
7.87e-05	2.9582
0.000256	4.18356
0.000552	4.81736
0.000986	5.3244
0.00199134	6.5075
0.00250401	7.1413
0.00315472	7.64834
0.00368711	7.94412
0.00435753	8.36665
0.00492936	8.70468
0.00563922	9.00046
0.00705894	9.54975
0.00847866	9.84553
0.00987866	10.1413
0.0112984	10.3526
