Adsorption isotherm of N-Nonane on MIL-88C
DOI: 10.1021/Cm303830b
Adsorbate N-Nonane: InChIKey BKIMMITUMNQMOS-UHFFFAOYSA-N
Temperature: 313 K
Tabular data in the source: 0
pressure (bar)	uptake (mg/g)
0.000117	0.0374478
0.000945	0.736607
0.00140403	1.04249
0.00183287	1.30467
0.00327257	1.65425
0.00474291	2.13493
0.00599881	2.5282
0.00808179	2.87778
0.00949086	3.27106
0.0109918	3.75173
0.0124315	4.01392
0.0130135	4.18871
0.0131361	4.58199
