Adsorption isotherm of N-Nonane on MIL-88A
DOI: 10.1021/Cm303830b
Adsorbate N-Nonane: InChIKey BKIMMITUMNQMOS-UHFFFAOYSA-N
Temperature: 313 K
Tabular data in the source: 0
pressure (bar)	uptake (mg/g)
0.000117	0.149791
0.000546	1.54811
0.00204729	4.69433
0.00367079	6.44223
0.00480417	8.19013
0.00648893	9.41366
0.00900074	11.8607
0.0103792	12.9095
0.0120946	14.3078
0.012891	13.7834
