Adsorption isotherm of N-Hexane on MIL-88A
DOI: 10.1021/Cm303830b
Adsorbate N-Hexane: InChIKey VLKZOEOYAKHREP-UHFFFAOYSA-N
Temperature: 313 K
Tabular data in the source: 0
pressure (bar)	uptake (mg/g)
0.000679	1.01432
0.00474025	15.7622
0.0112389	23.9555
0.0648531	37.611
0.11603	43.6194
0.205387	50.174
0.295557	60.0059
