Adsorption isotherm of N-Nonane on MIL-88B-2CF3
DOI: 10.1021/Cm303830b
Adsorbate N-Nonane: InChIKey BKIMMITUMNQMOS-UHFFFAOYSA-N
Temperature: 313 K
Tabular data in the source: 0
pressure (bar)	uptake (mg/g)
7.87e-05	0.677886
0.000118	34.8187
0.000177	42.5934
0.000236	47.4948
0.000355	53.2413
0.00065	56.7906
0.000907	60.3399
0.0015181	63.5511
0.00218852	66.4244
0.0035688	69.6356
0.00565894	72.6779
0.00849838	76.0582
0.0113773	78.9314
0.0130336	81.4666
