Adsorption isotherm of N-Heptane on MIL-88B-4CH3
DOI: 10.1021/Cm303830b
Adsorbate N-Heptane: InChIKey IMNFDUFMRHMDMM-UHFFFAOYSA-N
Temperature: 313 K
Tabular data in the source: 0
pressure (bar)	uptake (mg/g)
0.000872	136.681
0.00154808	151
0.00267484	158.747
0.00447765	169.075
0.00594244	177.291
0.012365	187.15
0.0145058	191.845
0.0193509	197.714
0.0272382	201.939
0.032534	204.756
0.0434636	209.92
0.0557453	212.737
0.069041	216.024
0.0821115	219.31
0.0932664	221.892
0.105323	224.24
