Adsorption isotherm of N-Octane on MIL-88B-4CH3
DOI: 10.1021/Cm303830b
Adsorbate N-Octane: InChIKey TVMXDCGIABBOFY-UHFFFAOYSA-N
Temperature: 313 K
Tabular data in the source: 0
pressure (bar)	uptake (mg/g)
0.000168	1.06015
0.000281	144.722
0.000732	162.68
0.000901	166.905
0.00140784	172.891
0.00214023	179.933
0.00377404	188.384
0.00591488	194.37
0.00799939	198.595
0.00985854	201.764
0.0122247	205.638
0.01476	210.215
0.0210698	213.384
0.0238304	216.201
0.0268726	219.018
0.03076	221.835
0.03476	222.539
