Adsorption isotherm of N-Hexane on MIL-88B-4CH3
DOI: 10.1021/Cm303830b
Adsorbate N-Hexane: InChIKey VLKZOEOYAKHREP-UHFFFAOYSA-N
Temperature: 313 K
Tabular data in the source: 0
pressure (bar)	uptake (mg/g)
0.00402398	39.9104
0.00402398	59.5748
0.00402398	87.8202
0.00455313	118.568
0.00455313	129.652
0.0093155	148.601
0.0198986	163.618
0.0347148	174.344
0.0537644	182.925
0.0775762	190.075
0.10615	196.153
0.127846	199.371
0.153245	203.304
0.187111	207.595
0.225739	210.812
0.261192	213.673
0.298762	216.891
0.337919	220.108
