Adsorption isotherm of N-Nonane on MIL-88A
DOI: 10.1021/Cm303830b
Adsorbate N-Nonane: InChIKey BKIMMITUMNQMOS-UHFFFAOYSA-N
Temperature: 313 K
Tabular data in the source: 0
pressure (bar)	uptake (mg/g)
0.000117	0.187239
0.00125087	1.93514
0.00253741	3.68304
0.00379332	5.64942
0.00547807	7.39732
0.00676461	8.70825
0.00841874	9.80068
0.0099197	11.3301
0.0113594	11.7671
0.0130135	12.641
0.0132586	15.4814
0.01381	15.2629
