Adsorption isotherm of N-Octane on MIL-88B
DOI: 10.1021/Cm303830b
Adsorbate N-Octane: InChIKey TVMXDCGIABBOFY-UHFFFAOYSA-N
Temperature: 313 K
Tabular data in the source: 0
pressure (bar)	uptake (mg/g)
0.000254	0.202863
0.00204559	0.858325
0.00562878	3.0432
0.011541	4.02639
0.0134222	4.46337
0.01602	5.77429
0.0190658	7.08522
0.0207678	7.95917
0.0261426	8.17765
0.0284716	8.50538
0.0306216	9.16085
0.0343839	10.0348
0.0351901	10.2533
0.0357276	11.455
