Adsorption isotherm of N-Hexane on MIL-88B
DOI: 10.1021/Cm303830b
Adsorbate N-Hexane: InChIKey VLKZOEOYAKHREP-UHFFFAOYSA-N
Temperature: 313 K
Tabular data in the source: 0
pressure (bar)	uptake (mg/g)
0.000679	1.01432
0.00555258	9.20759
0.0364214	15.7622
0.0875985	18.4933
0.115218	20.6782
0.157459	23.4093
0.222446	28.3252
0.277685	31.6026
