Adsorption isotherm of N-Hexane on MIL-88A
DOI: 10.1021/Cm303830b
Adsorbate N-Hexane: InChIKey VLKZOEOYAKHREP-UHFFFAOYSA-N
Temperature: 303 K
Tabular data in the source: 0
pressure (bar)	uptake (mg/g)
0.00153756	0.405726
0.00316442	8.92673
0.00696042	15.6998
0.011841	21.3805
0.0226867	25.3133
0.0400398	30.557
0.0595621	34.4898
0.0779998	37.1116
0.110537	41.4814
0.155004	45.4141
0.176696	47.599
0.207064	50.8763
0.235263	54.5906
