Adsorption isotherm of N-Hexane on MIL-88A
DOI: 10.1021/Cm303830b
Adsorbate N-Hexane: InChIKey VLKZOEOYAKHREP-UHFFFAOYSA-N
Temperature: 313 K
Tabular data in the source: 0
pressure (bar)	uptake (mg/g)
0.000679	0.187239
0.00392791	12.641
0.0136759	21.162
0.0250487	26.1872
0.0437324	32.3049
0.0607914	35.3637
0.108719	42.1368
0.162333	46.0696
0.211074	49.3469
0.245192	53.4982
0.2655	54.5906
0.302868	59.6158
0.349983	67.2629
