Adsorption isotherm of N-Hexane on MIL-88B
DOI: 10.1021/Cm303830b
Adsorbate N-Hexane: InChIKey VLKZOEOYAKHREP-UHFFFAOYSA-N
Temperature: 313 K
Tabular data in the source: 0
pressure (bar)	uptake (mg/g)
0.0014909	-0.0156243
0.00880193	7.3037
0.0153006	10.4718
0.020987	11.3457
0.0299227	13.4214
0.0477941	15.1692
0.0632285	16.1524
0.0681025	17.2449
0.0859739	18.2281
0.102221	19.539
0.135526	21.1777
0.15421	22.9256
0.163958	23.2533
0.174518	24.455
0.198889	25.4382
0.218385	25.9844
0.270374	29.0432
0.286621	30.2449
0.308554	31.2281
0.320739	32.2113
0.329675	32.8667
