Adsorption isotherm of Nitrogen on DMOF-1-NMe2
DOI: 10.1039/c5ce00674k
Article source: Figure 3
Adsorbate Nitrogen: InChIKey IJGRMHOSHXDMSA-UHFFFAOYSA-N
Kind: experiment
Temperature: 77 K
Tabular data in the source: 0
pressure (bar)	uptake (cm3(STP)/g)
0.009168	289.247
0.009182	290.928
0.031361	302.697
0.035261	302.977
0.050881	306.9
0.05478	307.18
0.070387	309.422
0.072983	309.142
0.091185	311.103
0.092482	310.823
0.111979	312.224
0.113275	311.944
0.131473	313.345
0.134069	313.065
0.153562	313.905
0.173054	314.746
0.174351	314.466
0.192544	315.306
0.193846	315.587
0.214631	315.587
0.234121	316.147
0.254909	316.708
0.257505	316.427
0.274395	316.708
0.293885	317.268
0.296483	317.268
0.31467	317.268
0.317268	317.268
0.335457	317.548
0.353644	317.548
0.356246	318.109
0.375729	317.828
0.378327	317.828
0.397813	317.828
0.417303	318.389
0.4186	318.109
0.43809	318.669
0.440688	318.669
0.458867	317.828
0.478379	320.911
0.480953	318.109
0.499163	320.911
0.500439	318.109
0.519947	320.911
0.521226	318.389
0.540732	320.911
0.54331	318.389
0.560218	320.911
0.561497	318.389
0.581	320.63
0.582281	318.389
0.601766	318.389
0.603086	320.911
0.622571	320.911
0.623852	318.669
0.64334	318.949
0.643354	320.63
0.662824	318.669
0.664139	320.63
0.68361	318.949
0.684921	320.35
0.703094	318.669
0.704406	320.35
0.723881	318.949
0.723892	320.35
0.745976	320.35
0.762852	318.949
0.765457	319.79
0.783638	319.229
0.784942	319.79
0.80572	318.949
0.807026	319.79
0.826505	318.949
0.826511	319.79
0.845988	318.669
0.845995	319.51
0.866773	318.669
0.86678	319.51
0.887559	318.949
0.887564	319.51
0.908346	319.229
0.909641	318.669
0.92783	318.949
0.929131	319.229
0.948615	318.949
0.951215	319.229
0.969397	318.669
0.969402	319.229
0.988886	319.229
1.00967	319.51
