Adsorption isotherm of Carbon Dioxide on DMOF-1-NHMe
DOI: 10.1039/c5ce00674k
Article source: Figure 4
Adsorbate Carbon Dioxide: InChIKey CURLTUGMZLYLDI-UHFFFAOYSA-N
Kind: experiment
Temperature: 298 K
Tabular data in the source: 0
pressure (bar)	uptake (mmol/g)
0.013217	0.253687
0.014538	0.058997
0.034363	0.318584
0.038328	0.129794
0.054188	0.389381
0.074013	0.454277
0.075335	0.235988
0.093838	0.289086
0.09516	0.519174
0.113663	0.330383
0.114984	0.584071
0.133488	0.40708
0.134809	0.643068
0.155955	0.471976
0.17578	0.778761
0.178424	0.548673
0.196928	0.837758
0.198249	0.59587
0.216752	0.902655
0.218074	0.672566
0.237899	0.725664
0.259045	0.79056
0.277548	0.849558
0.298695	1.16224
0.300017	0.920354
0.31852	1.22124
0.319842	0.985251
0.339667	1.29204
0.359492	1.35103
0.360813	1.10914
0.380638	1.41593
0.400463	1.48083
0.401784	1.23304
0.421609	1.28614
0.442756	1.35103
0.461259	1.66372
0.462581	1.41003
0.482406	1.47493
0.483727	1.72861
0.503552	1.53982
0.523377	1.59882
0.524698	1.84071
0.543202	1.89971
0.544523	1.66372
0.564348	1.9587
0.584173	2.0118
0.585495	1.79351
0.60532	2.0708
0.625145	2.12979
0.626466	1.9292
0.646291	2.18879
0.664795	2.23009
0.667438	2.0531
0.687262	2.29499
0.689906	2.13569
0.70841	2.19469
0.726912	2.25959
0.728235	2.40708
0.748058	2.46608
0.749381	2.32448
0.767884	2.52507
0.769206	2.38938
0.789031	2.58407
0.808855	2.64307
0.810177	2.51917
0.82868	2.57817
0.830002	2.69617
0.849827	2.64307
0.851149	2.74926
0.869651	2.80236
0.870974	2.70796
0.873616	2.81416
0.890799	2.76696
0.911945	2.83186
0.93177	2.89086
0.933091	2.96165
0.951595	2.94985
0.952916	3.00295
0.97142	3.00885
0.974063	3.05605
0.993888	3.07965
1.01371	3.14454
