Adsorption isotherm of Carbon Dioxide on DMOF-1-NMe2
DOI: 10.1039/c5ce00674k
Article source: Figure 4
Adsorbate Carbon Dioxide: InChIKey CURLTUGMZLYLDI-UHFFFAOYSA-N
Kind: experiment
Temperature: 298 K
Tabular data in the source: 0
pressure (bar)	uptake (mmol/g)
0.014538	0.0046
0.035685	0.165192
0.038328	0.088496
0.054188	0.224189
0.05551	0.129794
0.075335	0.176991
0.09516	0.318584
0.096481	0.230088
0.114984	0.377581
0.117628	0.277286
0.136131	0.324484
0.155955	0.471976
0.157278	0.371681
0.177103	0.525074
0.196928	0.566372
0.198249	0.466077
0.218074	0.625369
0.237899	0.672566
0.23922	0.566372
0.259045	0.613569
0.27887	0.660767
0.300017	0.814159
0.301338	0.713864
0.319842	0.755162
0.339667	0.902655
0.340988	0.80826
0.359492	0.949853
0.360813	0.855457
0.380638	0.99705
0.381959	0.902655
0.400463	1.05015
0.401784	0.949853
0.421609	0.99115
0.441434	1.14454
0.442756	1.04425
0.462581	1.09145
0.463902	1.18584
0.482406	1.23304
0.483727	1.13864
0.503552	1.18584
0.524698	1.32153
0.526021	1.23304
0.545846	1.27434
0.564348	1.32153
0.565669	1.41593
0.585495	1.45723
0.586817	1.36873
0.606642	1.49853
0.626466	1.53982
0.647613	1.58702
0.667438	1.62832
0.66876	1.55162
0.687262	1.66372
0.70841	1.64602
0.729556	1.68732
0.748058	1.73451
0.749381	1.79941
0.769206	1.77581
0.789031	1.82301
0.790352	1.88791
0.810177	1.9292
0.811499	1.87021
0.830002	1.9705
0.831324	1.9174
0.851149	2.0118
0.870974	2.0531
0.89212	2.0472
0.911945	2.0885
0.913266	2.13569
0.93177	2.17109
0.933091	2.12979
0.954238	2.21239
0.974063	2.22419
0.975385	2.24779
0.993888	2.26549
1.01371	2.31268
