Adsorption isotherm of Nitrogen on DMOF-1-NHMe
DOI: 10.1039/c5ce00674k
Article source: Figure 3
Adsorbate Nitrogen: InChIKey IJGRMHOSHXDMSA-UHFFFAOYSA-N
Kind: experiment
Temperature: 77 K
Tabular data in the source: 0
pressure (bar)	uptake (cm3(STP)/g)
0.007979	302.697
0.009305	306.06
0.030155	314.186
0.031468	315.867
0.050979	318.949
0.056189	320.63
0.070487	321.751
0.071788	322.032
0.091285	323.433
0.110783	324.834
0.131579	326.235
0.152369	327.075
0.173163	328.196
0.192653	328.757
0.21344	329.037
0.234234	330.158
0.253722	330.438
0.255019	330.158
0.273208	330.438
0.295293	330.718
0.314786	331.559
0.336874	332.119
0.356362	332.399
0.377147	332.399
0.396637	332.96
0.417424	333.24
0.436909	333.24
0.438215	334.081
0.45902	336.602
0.478483	333.8
0.478533	339.965
0.481138	340.806
0.499268	333.8
0.517508	340.525
0.538241	334.081
0.539592	340.525
0.542193	340.806
0.560327	334.361
0.561676	340.525
0.581114	334.641
0.581162	340.525
0.603245	340.525
0.621384	334.641
0.622731	340.525
0.640872	334.921
0.644812	340.245
0.662957	335.201
0.664296	339.965
0.683777	339.405
0.701931	335.482
0.704561	339.405
0.722718	335.762
0.724044	339.124
0.744827	338.844
0.76299	336.042
0.765609	338.564
0.785076	336.322
0.786393	338.564
0.804567	336.883
0.807178	338.564
0.826662	338.284
0.844844	337.723
0.86433	337.723
0.865631	338.004
0.886415	338.004
0.887714	338.004
0.908499	338.004
0.909798	338.004
0.929283	338.004
0.929286	338.284
0.94747	338.004
0.948769	338.004
0.968253	337.723
0.972152	338.004
1.00854	339.405
1.00984	339.685
