Adsorption isotherm of Carbon Dioxide on DMOF-1-NH2
DOI: 10.1039/c5ce00674k
Article source: Figure 4
Adsorbate Carbon Dioxide: InChIKey CURLTUGMZLYLDI-UHFFFAOYSA-N
Kind: experiment
Temperature: 298 K
Tabular data in the source: 0
pressure (bar)	uptake (mmol/g)
0.011895	0.171091
0.013217	0.053097
0.035685	0.241888
0.037006	0.129794
0.050223	0.165192
0.054188	0.294985
0.074013	0.359882
0.075335	0.224189
0.093838	0.283186
0.09516	0.430678
0.114984	0.489676
0.134809	0.560472
0.155955	0.625369
0.17578	0.542773
0.177103	0.690265
0.196928	0.59587
0.216752	0.660767
0.237899	0.725664
0.257724	0.79056
0.259045	0.949853
0.277548	0.861357
0.27887	1.01475
0.298695	0.926254
0.31852	1.15044
0.319842	0.99115
0.339667	1.22124
0.360813	1.29204
0.380638	1.35693
0.400463	1.26844
0.421609	1.48673
0.441434	1.40413
0.442756	1.55752
0.462581	1.46903
0.482406	1.53982
0.503552	1.60472
0.523377	1.67552
0.524698	1.83481
0.544523	1.9115
0.564348	1.81711
0.584173	2.0413
0.585495	1.88791
0.60532	1.9646
0.625145	2.17109
0.626466	2.0354
0.646291	2.10619
0.666116	2.18289
0.667438	2.31268
0.687262	2.37758
0.70841	2.32448
0.728235	2.39528
0.748058	2.47788
0.749381	2.57817
0.767884	2.55457
0.769206	2.65487
0.789031	2.62537
0.790352	2.71976
0.810177	2.78466
0.830002	2.84956
0.851149	2.91445
0.869651	2.92035
0.870974	2.97935
0.890799	2.99705
0.89212	3.04425
0.910624	3.06785
0.911945	3.10914
0.93177	3.14454
0.952916	3.21534
0.954238	3.25074
0.972741	3.29204
0.974063	3.31563
0.993888	3.36873
1.01371	3.43953
