Adsorption isotherm of Nitrogen on DMOF-1-NH2
DOI: 10.1039/c5ce00674k
Article source: Figure 3
Adsorbate Nitrogen: InChIKey IJGRMHOSHXDMSA-UHFFFAOYSA-N
Kind: experiment
Temperature: 77 K
Tabular data in the source: 0
pressure (bar)	uptake (cm3(STP)/g)
0.008782	401.611
0.010085	402.172
0.030954	412.539
0.032258	413.1
0.051777	417.303
0.056978	417.863
0.072585	420.105
0.092086	422.067
0.094689	422.627
0.112886	424.028
0.134982	425.429
0.153177	426.55
0.173969	427.391
0.175272	427.951
0.193464	428.511
0.214255	429.352
0.215552	429.072
0.233745	429.912
0.238942	429.912
0.254531	430.193
0.275321	430.753
0.277919	430.753
0.294811	431.313
0.29611	431.313
0.315596	431.313
0.335086	431.874
0.336385	431.874
0.357172	432.154
0.358474	432.434
0.376659	432.434
0.377962	432.715
0.397444	432.434
0.41693	432.434
0.416937	433.275
0.437717	432.715
0.437726	433.835
0.458504	432.995
0.479289	432.995
0.479322	437.198
0.498813	437.758
0.500075	433.275
0.500112	437.758
0.519563	433.555
0.520899	438.039
0.540348	433.555
0.540381	437.758
0.561133	433.555
0.561166	437.758
0.580621	433.835
0.581951	437.758
0.602736	437.758
0.62089	433.835
0.623518	437.478
0.641675	433.835
0.643003	437.478
0.66246	433.835
0.662487	437.198
0.683272	437.198
0.701428	433.555
0.704056	437.198
0.722213	433.555
0.72354	436.918
0.741699	433.555
0.744324	436.918
0.762483	433.555
0.765106	436.637
0.783266	433.275
0.78459	436.357
0.80405	433.275
0.805372	436.077
0.824837	433.555
0.826156	436.077
0.845622	433.555
0.84564	435.797
0.866425	435.797
0.884598	434.116
0.887205	435.236
0.906681	434.116
0.906691	435.236
0.927474	435.236
0.945654	434.396
0.962549	435.236
0.967738	434.396
0.987226	434.676
