Adsorption isotherm of Carbon Dioxide, Methane on Zeolite Na-ZSM-5
DOI: 10.1021/jp4110097
Article source: Figure 4
Adsorbate Carbon Dioxide: InChIKey CURLTUGMZLYLDI-UHFFFAOYSA-N
Adsorbate Methane: InChIKey VNWKTOKETHGBQD-UHFFFAOYSA-N
Kind: experiment
Temperature: 393 K
Tabular data in the source: 0
pressure (bar)	Carbon Dioxide fraction	Carbon Dioxide uptake (mmol/g)	Methane fraction	Methane uptake (mmol/g)	total uptake (mmol/g)
1.013	0.97	0.218	0.03	0	
1.013	0.9	0.197	0.1	0	
1.013	0.85	0.177	0.15	0.0003	
1.013	0.8	0.167	0.2	0.0012	
1.013	0.65	0.14	0.35	0.007	
1.013	0.5	0.109	0.5	0.0137	
1.013	0.35	0.0798	0.65	0.0195	
1.013	0.2	0.0467	0.8	0.028	
1.013	0.15	0.035	0.85	0.0313	
1.013	0.1	0.0234	0.9	0.0319	
1.013	0.029	0.0117	0.971	0.0356	
