Adsorption isotherm of Carbon Dioxide, Methane on Zeolite Na-ZSM-5
DOI: 10.1021/jp4110097
Article source: Figure 4
Adsorbate Carbon Dioxide: InChIKey CURLTUGMZLYLDI-UHFFFAOYSA-N
Adsorbate Methane: InChIKey VNWKTOKETHGBQD-UHFFFAOYSA-N
Kind: experiment
Temperature: 323 K
Tabular data in the source: 0
pressure (bar)	Carbon Dioxide fraction	Carbon Dioxide uptake (mmol/g)	Methane fraction	Methane uptake (mmol/g)	total uptake (mmol/g)
1.013	0.97	1.09	0.03	0	
1.013	0.9	1.02	0.1	0.0043	
1.013	0.85	0.967	0.15	0.0079	
1.013	0.8	0.917	0.2	0.0128	
1.013	0.65	0.798	0.35	0.0313	
1.013	0.5	0.664	0.5	0.0493	
1.013	0.35	0.512	0.65	0.0703	
1.013	0.2	0.331	0.8	0.0985	
1.013	0.15	0.265	0.85	0.105	
1.013	0.1	0.187	0.9	0.118	
1.013	0.029	0.074	0.971	0.13	
