Adsorption isotherm of Carbon Dioxide, Methane on Zeolite Na-ZSM-5
DOI: 10.1021/jp4110097
Article source: Figure 4
Adsorbate Carbon Dioxide: InChIKey CURLTUGMZLYLDI-UHFFFAOYSA-N
Adsorbate Methane: InChIKey VNWKTOKETHGBQD-UHFFFAOYSA-N
Kind: experiment
Temperature: 358 K
Tabular data in the source: 0
pressure (bar)	Carbon Dioxide fraction	Carbon Dioxide uptake (mmol/g)	Methane fraction	Methane uptake (mmol/g)	total uptake (mmol/g)
1.013	0.97	0.51	0.03	0	
1.013	0.9	0.457	0.1	0	
1.013	0.85	0.422	0.15	0.0006	
1.013	0.8	0.389	0.2	0.0018	
1.013	0.65	0.333	0.35	0.0094	
1.013	0.5	0.271	0.5	0.0201	
1.013	0.35	0.202	0.65	0.0295	
1.013	0.2	0.127	0.8	0.0426	
1.013	0.15	0.0973	0.85	0.045	
1.013	0.1	0.0662	0.9	0.0484	
1.013	0.029	0.0234	0.971	0.0535	
