Adsorption isotherm of Carbon Dioxide, Methane on Zeolite Na-ZSM-5
DOI: 10.1021/jp4110097
Article source: Figure 4
Adsorbate Carbon Dioxide: InChIKey CURLTUGMZLYLDI-UHFFFAOYSA-N
Adsorbate Methane: InChIKey VNWKTOKETHGBQD-UHFFFAOYSA-N
Kind: experiment
Temperature: 308 K
Tabular data in the source: 0
pressure (bar)	Carbon Dioxide fraction	Carbon Dioxide uptake (mmol/g)	Methane fraction	Methane uptake (mmol/g)	total uptake (mmol/g)
1.013	0.97	1.46	0.03	0	
1.013	0.9	1.4	0.1	0.0052	
1.013	0.85	1.37	0.15	0.0106	
1.013	0.8	1.32	0.2	0.0152	
1.013	0.65	1.17	0.35	0.0371	
1.013	0.5	1.01	0.5	0.0651	
1.013	0.35	0.794	0.65	0.101	
1.013	0.2	0.531	0.8	0.145	
1.013	0.15	0.426	0.85	0.159	
1.013	0.1	0.315	0.9	0.176	
1.013	0.029	0.125	0.971	0.202	
