Adsorption isotherm of Nitrogen on Mordenite
DOI: 10.1016/j.energy.2010.02.010
Adsorbate Nitrogen: InChIKey IJGRMHOSHXDMSA-UHFFFAOYSA-N
Temperature: 77 K
Tabular data in the source: 0
pressure (bar)	uptake (cm3(STP)/g)
0.00400996	32.695
0.00400996	71.4765
0.00400996	106.434
0.00619484	6.4765
0.0127495	117.359
0.0520772	126.098
0.106699	130.468
0.272749	136.477
0.469388	141.392
0.60922	147.401
0.749052	152.317
0.843002	155.048
0.952245	161.603
1.00468	171.434
