Adsorption isotherm of Nitrogen on Mordenite
DOI: 10.1016/j.energy.2010.02.010
Adsorbate Nitrogen: InChIKey IJGRMHOSHXDMSA-UHFFFAOYSA-N
Temperature: 77 K
Tabular data in the source: 0
pressure (bar)	uptake (cm3(STP)/g)
0.00681489	4.19095
0.00681489	46.1405
0.00778594	103.239
0.008757	115.668
0.0505124	124.602
0.079644	127.321
0.268029	133.147
0.415629	139.362
0.561287	144.8
0.700148	149.849
0.752585	151.014
0.842893	154.899
0.955536	160.725
0.985638	165.386
1.0002	170.047
