Adsorption isotherm of Hydrogen on ZSM-5
DOI: 10.1016/j.energy.2010.02.010
Adsorbate Hydrogen: InChIKey UFHFLCQGNIYNRP-UHFFFAOYSA-N
Temperature: 303 K
Tabular data in the source: 0
pressure (bar)	uptake (wt%)
0.343029	0.00075
1.00669	0.00075
2.56614	0.0167726
4.11774	0.0364365
8.67002	0.0823188
10.2874	0.0983412
14.6301	0.132571
17.7122	0.157333
26.2236	0.191563
29.8881	0.199574
33.3861	0.207585
56.3369	0.20977
87.7126	0.20977
