Adsorption isotherm of Hydrogen on Mordenite
DOI: 10.1016/j.energy.2010.02.010
Adsorbate Hydrogen: InChIKey UFHFLCQGNIYNRP-UHFFFAOYSA-N
Temperature: 303 K
Tabular data in the source: 0
pressure (bar)	uptake (wt%)
4.07651	0.0400779
5.56866	0.0582852
7.30692	0.0772208
10.1844	0.109266
14.1951	0.147865
17.8913	0.177725
22.1007	0.206128
29.2927	0.254924
36.9202	0.287697
40.4195	0.308817
51.9799	0.308089
70.2955	0.308089
87.7126	0.307361
