Adsorption isotherm of Nitrogen on ZSM-5
DOI: 10.1016/j.energy.2010.02.010
Adsorbate Nitrogen: InChIKey IJGRMHOSHXDMSA-UHFFFAOYSA-N
Temperature: 77 K
Tabular data in the source: 0
pressure (bar)	uptake (cm3(STP)/g)
0.00511028	61.7766
0.0138498	92.6562
0.0400683	97.8999
0.0939618	106.639
0.147855	114.214
0.251273	121.205
0.344494	125.866
0.443542	130.527
0.586287	134.606
0.680965	138.684
0.774186	142.763
0.867407	151.502
0.953346	164.903
0.982477	188.208
0.99413	238.314
0.997043	294.247
0.999956	356.589
