Adsorption isotherm of Nitrogen on Zeolite USY
DOI: 10.1016/j.energy.2010.02.010
Adsorbate Nitrogen: InChIKey IJGRMHOSHXDMSA-UHFFFAOYSA-N
Temperature: 77 K
Tabular data in the source: 0
pressure (bar)	uptake (cm3(STP)/g)
0.00656687	92.0735
0.00656687	122.37
0.0109366	148.589
0.0327854	157.328
0.0852223	162.572
0.166791	166.068
0.274578	170.146
0.367799	173.642
0.507631	177.721
0.646007	182.382
0.698444	184.13
0.790208	191.704
0.830993	198.695
0.865951	206.852
0.902365	223.749
0.959172	268.611
0.981021	297.743
0.986847	343.188
