Adsorption isotherm of Hydrogen on Mordenite
DOI: 10.1016/j.energy.2010.02.010
Adsorbate Hydrogen: InChIKey UFHFLCQGNIYNRP-UHFFFAOYSA-N
Temperature: 303 K
Tabular data in the source: 0
pressure (bar)	uptake (wt%)
0.169609	0.00147847
0.339595	0.00147847
0.666399	0.00147847
1.03754	0.00147847
2.56614	0.0189575
4.24393	0.037893
7.23377	0.072851
10.2874	0.105624
13.773	0.14131
22.1007	0.206857
30.1904	0.258565
37.2935	0.292067
45.6067	0.312459
53.0365	0.325568
68.895	0.32484
87.7126	0.324112
