Adsorption isotherm of Nitrogen on Mordenite
DOI: 10.1016/j.energy.2010.02.010
Adsorbate Nitrogen: InChIKey IJGRMHOSHXDMSA-UHFFFAOYSA-N
Temperature: 77 K
Tabular data in the source: 0
pressure (bar)	uptake (cm3(STP)/g)
-0.00036	6.4765
0.00619484	58.9135
0.00837971	102.611
0.00837971	116.813
0.0477074	125.552
0.165691	134.292
0.226867	137.569
0.375439	144.124
0.471573	149.04
0.569892	153.409
0.670397	157.233
0.770901	162.149
0.871405	167.611
0.917287	171.981
0.967539	180.174
0.998128	193.283
