Adsorption isotherm of Nitrogen on Mordenite
DOI: 10.1016/j.energy.2010.02.010
Adsorbate Nitrogen: InChIKey IJGRMHOSHXDMSA-UHFFFAOYSA-N
Temperature: 77 K
Tabular data in the source: 0
pressure (bar)	uptake (cm3(STP)/g)
0.00619484	7.56894
0.00619484	58.3673
0.00837971	105.888
0.0127495	117.359
0.0324133	124.46
0.0870352	131.014
0.325186	141.392
0.471573	149.586
0.569892	153.955
0.668212	158.871
0.716279	160.51
0.762161	161.056
0.862665	166.519
0.908548	170.888
0.980649	188.367
