Adsorption isotherm of Hydrogen on Zeolite USY
DOI: 10.1016/j.energy.2010.02.010
Adsorbate Hydrogen: InChIKey UFHFLCQGNIYNRP-UHFFFAOYSA-N
Temperature: 303 K
Tabular data in the source: 0
pressure (bar)	uptake (wt%)
1.03487	0.00202863
2.59848	0.0260622
4.1487	0.0500959
5.78248	0.0752219
7.14297	0.0970706
10.261	0.138583
14.0876	0.187743
18.7661	0.232533
25.7645	0.294802
33.3004	0.345054
41.7609	0.376735
46.4143	0.383289
87.4875	0.383289
