Adsorption isotherm of Hydrogen on Mordenite
DOI: 10.1016/j.energy.2010.02.010
Adsorbate Hydrogen: InChIKey UFHFLCQGNIYNRP-UHFFFAOYSA-N
Temperature: 303 K
Tabular data in the source: 0
pressure (bar)	uptake (wt%)
0.169609	0.00147847
0.336195	0.00147847
0.673138	0.00147847
1.01687	0.00147847
2.56614	0.0189575
4.11774	0.0357082
5.68186	0.0546437
10.2874	0.107809
18.0722	0.177725
21.8795	0.202487
25.4439	0.230162
29.5889	0.245456
40.8283	0.244728
60.4479	0.243999
88.5996	0.243271
