Adsorption isotherm of Hydrogen on Mn3[(Mn4Cl)3(btt)8]2*20CH3OH
DOI: 10.1002/anie.200604362
Adsorbate Hydrogen: InChIKey UFHFLCQGNIYNRP-UHFFFAOYSA-N
Temperature: 77 K
Tabular data in the source: 0
pressure (bar)	uptake (wt%)
0	0.165738
0.0343921	0.266242
0.0896038	0.364561
0.197121	0.482545
0.333698	0.587419
0.476086	0.663889
0.67078	0.74473
0.877098	0.808091
1.08051	0.864898
1.19384	0.893301
