Adsorption isotherm of Hydrogen on HCu[(Cu4Cl)3(btt)8]*3.5HCl
DOI: 10.1002/anie.200604362
Adsorbate Hydrogen: InChIKey UFHFLCQGNIYNRP-UHFFFAOYSA-N
Temperature: 77 K
Tabular data in the source: 0
pressure (bar)	uptake (wt%)
0.146007	0.9551
1.89391	2.82972
6.43844	3.68182
9.06029	3.97023
14.304	4.35039
19.8973	4.6388
26.5393	4.82233
41.9208	5.16317
61.4973	5.53023
83.6956	5.70065
