Adsorption isotherm of Hydrogen on HCu[(Cu4Cl)3(btt)8]*3.5HCl
DOI: 10.1002/anie.200604362
Adsorbate Hydrogen: InChIKey UFHFLCQGNIYNRP-UHFFFAOYSA-N
Temperature: 298 K
Tabular data in the source: 0
pressure (bar)	uptake (wt%)
2.76786	0.0243436
11.8569	0.116108
20.5964	0.155436
28.9863	0.234091
37.551	0.26031
49.0872	0.325856
60.6233	0.378293
69.188	0.443839
78.4519	0.456949
83.6956	0.483167
