Adsorption isotherm of Hydrogen on HCu[(Cu4Cl)3(btt)8]*3.5HCl
DOI: 10.1002/anie.200604362
Adsorbate Hydrogen: InChIKey UFHFLCQGNIYNRP-UHFFFAOYSA-N
Temperature: 77 K
Tabular data in the source: 0
pressure (bar)	uptake (wt%)
0.00242737	0.0302758
0.00823914	0.22036
0.0256744	0.307755
0.0779803	0.425738
0.19131	0.56557
0.33951	0.679183
0.534204	0.775318
0.746333	0.856158
1.01367	0.926074
1.20837	0.967587
