Adsorption isotherm of Hydrogen on HCu[(Cu4Cl)3(btt)8]*3.5HCl
DOI: 10.1002/anie.200604362
Adsorbate Hydrogen: InChIKey UFHFLCQGNIYNRP-UHFFFAOYSA-N
Temperature: 77 K
Tabular data in the source: 0
pressure (bar)	uptake (wt%)
0.146007	0.928881
2.0687	2.75107
3.64181	3.18367
6.08886	3.52451
8.53592	3.74737
14.304	4.02266
19.7225	4.12754
37.7258	4.2193
57.3023	4.12754
83.8704	3.7867
