Adsorption isotherm of Methane on Coal
DOI: 10.1016/j.proeng.2011.11.2149
Adsorbate Methane: InChIKey VNWKTOKETHGBQD-UHFFFAOYSA-N
Temperature: 303 K
Tabular data in the source: 0
pressure (bar)	uptake (cm3(STP)/g)
0.954907	3.15353
2.86472	5.80913
5.09284	9.46058
7.95756	13.278
9.38992	14.9378
11.618	16.5975
14.6419	18.0913
17.8249	19.4191
19.8939	20.249
21.8037	21.0788
24.9867	21.7427
26.4191	22.0747
28.8064	22.7386
31.9894	23.4025
34.8541	23.9004
37.5597	24.3983
40.7427	24.7303
43.9257	25.0622
46.6313	25.5602
49.1777	25.7261
51.0875	25.8921
53.4748	26.0581
55.5438	26.2241
