Adsorption isotherm of Methane on Coal
DOI: 10.1016/j.proeng.2011.11.2149
Adsorbate Methane: InChIKey VNWKTOKETHGBQD-UHFFFAOYSA-N
Temperature: 333 K
Tabular data in the source: 0
pressure (bar)	uptake (cm3(STP)/g)
1.2766	0.824248
2.87234	1.75125
5.26596	2.78019
7.18085	3.39673
8.7766	3.91051
10.2128	4.42456
12.9255	4.83312
15.6383	5.13836
17.234	5.23892
18.8298	5.54609
20.9043	5.74913
23.4574	5.95135
25.8511	6.05053
27.766	6.04723
30.4787	6.14587
32.0745	6.34973
33.3511	6.34754
35.7447	6.34341
37.1809	6.44425
39.8936	6.54288
43.4043	6.53684
46.117	6.73878
48.0319	6.73548
50.4255	6.73136
52.1809	6.83164
54.0957	6.93165
55.6915	6.8256
56.8085	6.82368
