Adsorption isotherm of Methane on Coal
DOI: 10.1016/j.proeng.2011.11.2149
Adsorbate Methane: InChIKey VNWKTOKETHGBQD-UHFFFAOYSA-N
Temperature: 303 K
Tabular data in the source: 0
pressure (bar)	uptake (cm3(STP)/g)
1.11702	1.75428
2.07447	2.47577
3.19149	3.5069
4.62766	4.64079
6.06383	5.87799
6.8617	6.70306
8.1383	7.3207
9.73404	8.2477
11.3298	9.0714
14.0426	9.68657
15.9574	10.1998
18.1915	10.7125
20.1064	11.1224
22.6596	11.6345
25.2128	11.9401
26.9681	12.0403
28.883	12.2437
31.2766	12.4461
33.5106	12.6489
35.4255	12.7489
37.6596	12.9517
40.8511	13.0495
44.0426	13.2506
45.7979	13.3509
46.7553	13.3493
49.4681	13.4479
52.3404	13.6496
54.2553	13.6463
56.0106	13.7465
