Adsorption isotherm of Methane on Coal
DOI: 10.1016/j.proeng.2011.11.2149
Adsorbate Methane: InChIKey VNWKTOKETHGBQD-UHFFFAOYSA-N
Temperature: 323 K
Tabular data in the source: 0
pressure (bar)	uptake (cm3(STP)/g)
1.43236	1.82573
1.90981	2.48963
3.02387	3.81743
3.97878	5.14523
5.09284	6.47303
6.2069	7.80083
7.1618	8.79668
8.11671	9.95851
10.1857	11.2863
11.7772	12.1162
13.3687	12.9461
15.2785	13.7759
17.0292	14.4398
18.7798	14.9378
21.3263	15.7676
23.3952	16.4315
25.1459	16.9295
26.7374	17.2614
28.8064	17.5934
31.0345	18.0913
33.5809	18.4232
35.4907	18.9212
38.8329	19.4191
41.6976	19.751
43.9257	19.917
45.5172	20.249
47.2679	20.4149
49.8143	20.7469
52.5199	21.0788
54.2706	20.9129
56.4987	21.2448
