Adsorption isotherm of Methane on Coal
DOI: 10.1016/j.proeng.2011.11.2149
Adsorbate Methane: InChIKey VNWKTOKETHGBQD-UHFFFAOYSA-N
Temperature: 313 K
Tabular data in the source: 0
pressure (bar)	uptake (cm3(STP)/g)
1.11406	2.98755
2.86472	5.80913
4.29708	8.29876
6.04775	10.4564
7.79841	12.1162
9.23077	13.444
10.9814	14.7718
13.0504	15.9336
15.1194	16.9295
16.87	17.5934
18.3024	18.2573
20.6897	19.2531
22.7586	19.917
25.7825	20.4149
28.0106	20.9129
30.0796	21.2448
32.7851	21.7427
34.8541	22.0747
36.4456	22.2407
39.7878	22.5726
42.3342	22.9046
45.1989	23.2365
47.4271	23.4025
50.6101	23.7344
53.9523	23.9004
56.3395	24.0664
58.0902	24.0664
