Adsorption isotherm of Methane on Coal
DOI: 10.1016/j.proeng.2011.11.2149
Adsorbate Methane: InChIKey VNWKTOKETHGBQD-UHFFFAOYSA-N
Temperature: 333 K
Tabular data in the source: 0
pressure (bar)	uptake (cm3(STP)/g)
1.43236	1.16183
2.86472	2.82158
4.45623	4.48133
5.72944	5.47718
7.1618	6.639
8.59416	7.80083
11.2997	9.29461
13.687	10.2905
16.0743	11.1203
18.7798	12.1162
20.8488	12.7801
23.2361	13.61
25.305	14.1079
27.5332	14.4398
30.2387	14.7718
33.1034	15.2697
35.3316	15.6017
36.9231	15.7676
39.3103	16.0996
42.3342	16.4315
44.7215	16.9295
46.4721	17.0954
47.9045	17.2614
49.9735	17.4274
52.0424	17.7593
54.2706	17.7593
55.7029	17.7593
56.817	17.9253
