Adsorption isotherm of Methane on Coal
DOI: 10.1016/j.proeng.2011.11.2149
Adsorbate Methane: InChIKey VNWKTOKETHGBQD-UHFFFAOYSA-N
Temperature: 293 K
Tabular data in the source: 0
pressure (bar)	uptake (cm3(STP)/g)
1.2766	2.27053
2.55319	4.12784
4.14894	5.77798
5.74468	7.73804
7.5	9.59452
9.41489	10.7276
12.4468	11.962
15.4787	13.0932
18.8298	14.0172
21.383	14.5293
23.617	15.042
26.4894	15.347
29.2021	15.7555
31.7553	15.9577
35.7447	16.2608
39.4149	16.5644
42.9255	16.7649
45.6383	17.0702
49.4681	17.2702
53.2979	17.3669
56.0106	17.4655
57.6064	17.5661
