Adsorption isotherm of Methane on Coal
DOI: 10.1016/j.proeng.2011.11.2149
Adsorbate Methane: InChIKey VNWKTOKETHGBQD-UHFFFAOYSA-N
Temperature: 313 K
Tabular data in the source: 0
pressure (bar)	uptake (cm3(STP)/g)
2.07447	2.37246
3.03191	3.19726
3.98936	4.02206
4.94681	4.84685
6.06383	5.56807
6.70213	6.0835
7.65957	6.59838
8.45745	6.80362
9.89362	7.31768
11.3298	7.72843
12.766	8.03587
14.3617	8.23974
15.7979	8.44387
17.3936	8.75104
18.5106	8.85243
19.1489	8.95463
20.7447	9.1585
22.1809	9.36264
23.7766	9.46319
25.3723	9.56375
26.8085	9.66459
28.0851	9.66239
28.7234	9.76459
30.3191	9.86515
31.7553	9.96599
33.3511	10.1699
34.9468	10.1671
36.7021	10.2674
37.3404	10.3696
38.9362	10.4702
40.5319	10.4674
42.1277	10.4647
43.7234	10.5652
45.3191	10.5625
46.9149	10.5597
47.7128	10.6617
48.3511	10.6606
49.9468	10.6578
51.5426	10.6551
53.1383	10.7556
54.734	10.7529
56.3298	10.8534
58.2447	10.7468
