Adsorption isotherm of Methane on Coal
DOI: 10.1016/j.proeng.2011.11.2149
Adsorbate Methane: InChIKey VNWKTOKETHGBQD-UHFFFAOYSA-N
Temperature: 323 K
Tabular data in the source: 0
pressure (bar)	uptake (cm3(STP)/g)
1.11702	1.44436
2.87234	2.47439
4.14894	3.29864
5.58511	4.12262
7.02128	4.94659
8.1383	5.5645
10.3723	6.07718
12.2872	6.48711
13.883	6.79428
15.3191	6.99842
17.0745	7.20201
19.3085	7.50808
21.383	7.71112
23.4574	7.91416
25.2128	7.91114
26.8085	8.01169
29.2021	8.21418
31.5957	8.31337
33.1915	8.51723
34.1489	8.51558
35.5851	8.61642
38.7766	8.71423
40.2128	8.71175
42.4468	8.81121
45.3191	8.90957
47.3936	8.906
49.4681	8.90243
52.3404	9.00079
54.5745	8.99694
56.3298	8.99392
