Adsorption isotherm of Methane on Coal
DOI: 10.1016/j.proeng.2011.11.2149
Adsorbate Methane: InChIKey VNWKTOKETHGBQD-UHFFFAOYSA-N
Temperature: 293 K
Tabular data in the source: 0
pressure (bar)	uptake (cm3(STP)/g)
0.477454	1.16183
1.11406	2.98755
1.90981	4.97925
3.50133	7.46888
4.93369	10.2905
6.2069	12.4481
7.48011	14.1079
9.54907	16.2656
11.9363	17.9253
13.8462	19.2531
15.5968	20.249
17.3475	21.2448
19.7347	22.7386
22.122	23.5685
23.3952	24.0664
26.4191	25.0622
28.8064	25.7261
31.3528	26.2241
33.4218	26.556
36.7639	27.0539
41.3793	27.8838
45.5172	28.5477
51.0875	29.0456
55.2255	29.3776
57.4536	29.5436
