Adsorption isotherm of Nitrogen on C28H39N5O16Cu2
DOI: 10.1021/cg201594p
Adsorbate Nitrogen: InChIKey IJGRMHOSHXDMSA-UHFFFAOYSA-N
Temperature: 298 K
Tabular data in the source: 0
pressure (bar)	uptake (mmol/g)
0.029142	-0.0390654
0.335361	-0.0128181
0.816562	0.0265529
1.10091	0.0462384
1.38525	0.0659239
1.82271	0.105295
2.01956	0.138104
2.30391	0.144666
2.78511	0.190599
3.02571	0.223408
4.00999	0.295588
5.03801	0.354644
6.02228	0.413701
7.00656	0.492443
8.05645	0.538376
9.04072	0.584309
10.0687	0.649927
11.0311	0.682736
12.1248	0.722107
13.0434	0.754916
14.0933	0.827096
15.0776	0.846782
16.1056	0.879591
17.1118	0.899276
18.0742	0.945209
19.1459	0.964895
20.1958	0.991142
