Adsorption isotherm of Methane on C28H39N5O16Cu2
DOI: 10.1021/cg201594p
Adsorbate Methane: InChIKey VNWKTOKETHGBQD-UHFFFAOYSA-N
Temperature: 298 K
Tabular data in the source: 0
pressure (bar)	uptake (mmol/g)
0.335361	0.111857
0.597834	0.210284
0.816562	0.315273
1.03529	0.394015
1.27589	0.472757
1.75709	0.663051
2.01956	0.735231
2.30391	0.794287
2.80698	0.938647
3.02571	0.991142
4.03186	1.20112
5.01613	1.38485
6.02228	1.52265
7.02843	1.66045
8.07832	1.772
9.04072	1.8573
10.0906	1.94261
11.053	2.01479
12.081	2.08697
13.1091	2.15259
14.0715	2.2182
15.1214	2.25101
16.1056	2.29038
17.1118	2.34288
18.0523	2.38881
19.1022	2.40194
20.174	2.44131
