Adsorption isotherm of Carbon Dioxide on C28H39N5O16Cu2
DOI: 10.1021/cg201594p
Adsorbate Carbon Dioxide: InChIKey CURLTUGMZLYLDI-UHFFFAOYSA-N
Temperature: 298 K
Tabular data in the source: 0
pressure (bar)	uptake (mmol/g)
0.182251	0.203722
0.24787	0.387454
0.357234	0.603994
0.422852	0.794287
0.510343	0.918962
0.575961	1.12238
0.64158	1.25362
0.707198	1.51609
0.729071	1.38485
0.838434	1.68013
0.904053	1.77856
0.991544	1.89667
1.05716	1.98854
1.25402	2.33632
1.53836	2.65785
1.82271	2.9072
2.01956	3.12374
2.26016	3.29434
2.50077	3.44527
2.76324	3.58307
3.02571	3.70774
3.52879	3.94397
4.05373	4.11457
4.57868	4.28518
5.05988	4.38361
6.04415	4.56734
7.11592	4.74451
8.0127	4.87575
9.04072	4.99386
10.0469	5.13166
11.1405	5.22352
12.1248	5.28258
13.1528	5.3482
14.2027	5.44663
15.0557	5.51224
16.0838	5.5713
17.068	5.61723
18.0961	5.66973
19.0147	5.72878
20.0865	5.78128
