Adsorption isotherm of Argon on C46H40N4O10Zn2 (Guest Free)
DOI: 10.1002/anie.200804853
Adsorbate Argon: InChIKey XKRFYHLGVUSROY-UHFFFAOYSA-N
Temperature: 87 K
Tabular data in the source: 0
pressure (bar)	uptake (cm3(STP)/g)
0.00200765	10.6592
0.0113641	12.7878
0.024428	13.1384
0.0356216	13.1343
0.0492016	52.2157
0.100098	91.6389
0.148713	99.7939
0.197294	105.462
0.294395	112.178
0.397079	117.826
0.494123	120.278
0.587437	122.731
0.688221	125.893
0.787122	127.634
0.884171	130.441
0.934566	132.2
