Adsorption isotherm of Benzene on C46H40N4O10Zn2 (Guest Free)
DOI: 10.1002/anie.200804853
Adsorbate Benzene: InChIKey UHOVQNZJYSORNB-UHFFFAOYSA-N
Temperature: 323 K
Tabular data in the source: 0
pressure (bar)	uptake (molecules/unitcell)
0.00114642	0.115942
0.00229284	0.251208
0.00311171	0.405797
0.00409435	0.57971
0.00458568	0.753623
0.005077	0.94686
0.00556832	1.12077
0.00605964	1.35266
0.00638719	1.54589
0.00671474	1.73913
0.00687851	1.93237
0.00720606	2.10628
0.00753361	2.41546
0.00769738	2.6087
0.00786116	2.80193
0.00802493	2.99517
0.00835248	3.18841
0.00851625	3.47826
0.00868003	3.6715
0.00900758	4.05797
0.00917135	4.25121
0.00933512	4.44444
0.0094989	4.63768
0.00982645	5.02415
0.00999022	5.21739
0.0103178	5.58454
0.0104815	5.77778
0.0106453	5.97101
0.0108091	6.16425
0.0109729	6.35749
0.0114642	6.76329
0.0117917	6.95652
0.0121193	7.14976
0.0127744	7.32367
0.0132657	7.42029
0.0145759	7.51691
0.0160499	7.57488
0.0173601	7.65217
0.018834	7.69082
0.0201442	7.69082
0.0216182	7.69082
0.0232559	7.71014
0.0247299	7.72947
0.0293156	7.76812
0.0309533	7.76812
0.0324273	7.76812
0.034065	7.78744
0.035539	7.76812
0.0371767	7.76812
0.0386507	7.78744
0.0401247	7.78744
0.0417624	7.76812
0.0432364	7.78744
0.0447103	7.78744
0.0461843	7.76812
0.047822	7.78744
0.049296	7.80676
0.05077	7.80676
0.0524077	7.78744
0.0540455	7.78744
0.0555194	7.80676
0.0571572	7.82609
0.0586311	7.82609
0.0602689	7.80676
0.0617428	7.80676
0.0633806	7.80676
0.0648546	7.80676
0.0663285	7.80676
0.0679663	7.82609
0.0694402	7.82609
0.071078	7.84541
0.0725519	7.84541
0.0741897	7.84541
0.0758274	7.84541
0.0773014	7.80676
0.0789391	7.80676
0.0804131	7.80676
0.0820508	7.82609
0.0835248	7.78744
