Adsorption isotherm of Nitrogen on MOF-5-C
DOI: 10.1002/jssc.201500690
Article source: Figure 1c
Adsorbate Nitrogen: InChIKey IJGRMHOSHXDMSA-UHFFFAOYSA-N
Kind: experiment
Temperature: 77 K
Tabular data in the source: 0
pressure (bar)	uptake (cm3(STP)/g)
0	51.7335
0	113.914
0	196.82
0	259.042
0.005904	300.579
0.014296	342.115
0.030827	383.735
0.055434	415.075
0.079915	425.688
0.108655	467.432
0.149539	498.939
0.182222	519.998
0.218974	541.1
0.251594	551.796
0.288347	572.897
0.321029	593.957
0.361851	615.1
0.394533	636.159
0.419141	667.499
0.439488	667.707
0.459836	667.915
0.468101	688.725
0.480563	730.303
0.484253	668.165
0.501101	761.602
0.516999	699.588
0.525645	782.578
0.54148	710.201
0.566024	731.177
0.566529	814.084
0.590567	752.154
0.599276	845.507
0.615111	773.13
0.648553	918.55
0.664135	804.72
0.673223	960.253
0.702026	1012.36
0.705146	856.953
0.72676	1064.43
0.72969	877.929
0.755562	1116.54
0.766632	930.12
0.784365	1168.64
0.799505	982.27
0.800896	1210.26
0.817238	1220.79
0.819852	982.478
0.829825	1283.1
0.832377	1034.42
0.848908	1076.04
0.854685	1355.89
0.869572	1128.06
0.871027	1366.42
0.886103	1169.68
0.895887	1439.21
0.906768	1221.71
0.916678	1511.97
0.923362	1273.69
0.928887	1512.09
0.940019	1336.04
0.945924	1636.62
0.956804	1419.11
0.969582	1512.51
0.970973	1740.5
0.986429	1605.94
0.992207	1885.8
0.999207	1699.34
1.00779	1771.96
1.01236	1854.91
1.01274	1917.09
