Adsorption isotherm of Ethene on IRMOF-74-IV
DOI: 10.1007/s10450-017-9862-9
Article source: Figure 3
Adsorbate Ethene: InChIKey VGGSQFUCUMXWEO-UHFFFAOYSA-N
Kind: experiment
Temperature: 318 K
Tabular data in the source: 0
pressure (bar)	uptake (mmol/g)
0.00272	0.0607
0.01264	0.3097
0.09952	2.031
0.19997	3.1711
0.3989	4.5766
0.59858	5.3946
0.79981	6.1488
1.00046	6.7593
