Adsorption isotherm of N-propane on IRMOF-74-II
DOI: 10.1007/s10450-017-9862-9
Article source: Figure 3
Adsorbate N-propane: InChIKey ATUOYWHBWRKTHZ-UHFFFAOYSA-N
Kind: experiment
Temperature: 318 K
Tabular data in the source: 0
pressure (bar)	uptake (mmol/g)
0.00292	0.0818
0.01994	3.0773
0.02611	4.5291
0.03959	5.1987
0.04761	5.761
0.07101	6.4358
0.09011	6.8958
0.20071	8.4703
0.39899	10.0601
0.60046	11.0432
0.80187	11.4811
1.00035	11.932
