Adsorption isotherm of Ethene on IRMOF-74-III
DOI: 10.1007/s10450-017-9862-9
Article source: Figure 3
Adsorbate Ethene: InChIKey VGGSQFUCUMXWEO-UHFFFAOYSA-N
Kind: experiment
Temperature: 318 K
Tabular data in the source: 0
pressure (bar)	uptake (mmol/g)
0.00233	0.0575
0.01905	0.3768
0.03052	0.6578
0.04024	0.9101
0.04685	1.1145
0.05171	1.2901
0.07483	1.5647
0.09077	1.7755
0.1993	2.9651
0.3988	3.9896
0.59932	4.507
0.79704	4.878
1.0002	5.1596
