Adsorption isotherm of Propene on Mg-MOF-74
DOI: 10.1007/s10450-017-9862-9
Article source: Figure 2
Adsorbate Propene: InChIKey QQONPFPTGQHPMA-UHFFFAOYSA-N
Kind: experiment
Isotherm type: excess
Temperature: 318 K
Tabular data in the source: 0
pressure (bar)	uptake (mmol/g)
0.001715	0.183357
0.015437	1.02962
0.018868	1.77715
0.026587	2.41185
0.03259	3.44147
0.041166	3.85049
0.046312	4.2031
0.054031	4.68265
0.068611	5.10578
0.091767	5.5007
0.119211	5.811
0.143225	6.00846
0.168096	6.16361
0.213551	6.40339
0.264151	6.55853
0.313894	6.69958
0.358491	6.81241
0.41681	6.85472
0.462264	7.00987
0.508576	7.06629
0.559177	7.13681
0.607204	7.19323
0.657804	7.23554
0.704117	7.27786
0.754717	7.37659
0.80446	7.39069
0.854202	7.4048
0.901372	7.433
0.95283	7.47532
1.00171	7.46121
