Adsorption isotherm of N-propane on Mg-MOF-74
DOI: 10.1007/s10450-017-9862-9
Article source: Figure 2
Adsorbate N-propane: InChIKey ATUOYWHBWRKTHZ-UHFFFAOYSA-N
Kind: experiment
Temperature: 318 K
Tabular data in the source: 0
pressure (bar)	uptake (mmol/g)
0.00266	0.0709
0.02024	4.8795
0.02961	5.333
0.03897	5.6409
0.05422	5.8193
0.07143	5.9412
0.0916	6.1117
0.19877	6.4949
0.40226	6.7187
0.60084	6.9342
0.7999	7.0446
1.00436	7.0094
