Adsorption isotherm of Ethane on Mg-MOF-74
DOI: 10.1007/s10450-017-9862-9
Article source: Figure 2
Adsorbate Ethane: InChIKey OTMSDBZUPAUEDD-UHFFFAOYSA-N
Kind: experiment
Temperature: 318 K
Tabular data in the source: 0
pressure (bar)	uptake (mmol/g)
0.00428	0.032
0.10124	0.6215
0.19704	1.4548
0.39761	3.2303
0.59774	4.4285
0.7994	5.2547
0.99871	5.9782
