Adsorption isotherm of Propene on Mg-MOF-74
DOI: 10.1007/s10450-017-9862-9
Article source: Figure 2
Adsorbate Propene: InChIKey QQONPFPTGQHPMA-UHFFFAOYSA-N
Kind: experiment
Temperature: 318 K
Tabular data in the source: 0
pressure (bar)	uptake (mmol/g)
0.00335	0.0642
0.01016	5.7602
0.01745	6.453
0.03402	6.8251
0.03958	7.0561
0.05527	7.1844
0.06547	7.2615
0.08119	7.4797
0.09688	7.5952
0.19872	8.0321
0.39896	8.4539
0.60137	8.5366
0.80286	8.6499
1.00491	8.5799
