Adsorption isotherm of N-propane on Mg-MOF-74
DOI: 10.1007/s10450-017-9862-9
Article source: Figure 2
Adsorbate N-propane: InChIKey ATUOYWHBWRKTHZ-UHFFFAOYSA-N
Kind: experiment
Isotherm type: excess
Temperature: 318 K
Tabular data in the source: 0
pressure (bar)	uptake (mmol/g)
0.023156	0.240113
0.030875	0.762712
0.035163	0.960452
0.039451	1.29944
0.046312	1.68079
0.0506	2.23164
0.072899	3.09322
0.084048	3.5452
0.114923	4.22316
0.145798	4.54802
0.17753	4.80226
0.214408	4.98588
0.247856	5.09887
0.281304	5.22599
0.346484	5.40961
0.41681	5.55085
0.476844	5.62147
0.543739	5.72034
0.611492	5.80509
0.674957	5.86158
0.733276	5.91808
0.803602	5.96045
0.868782	6.03107
0.93482	6.0452
1	6.05932
