Adsorption isotherm of Ethane on IRMOF-74-II
DOI: 10.1007/s10450-017-9862-9
Article source: Figure 3
Adsorbate Ethane: InChIKey OTMSDBZUPAUEDD-UHFFFAOYSA-N
Kind: experiment
Temperature: 318 K
Tabular data in the source: 0
pressure (bar)	uptake (mmol/g)
0.00136	0.0766
0.04562	0.2007
0.19916	1.1763
0.39902	2.4139
0.59859	3.4981
0.79962	4.5743
1.00067	5.3447
