Adsorption isotherm of Ethane on IRMOF-74-III
DOI: 10.1007/s10450-017-9862-9
Article source: Figure 3
Adsorbate Ethane: InChIKey OTMSDBZUPAUEDD-UHFFFAOYSA-N
Kind: experiment
Temperature: 318 K
Tabular data in the source: 0
pressure (bar)	uptake (mmol/g)
0.00291	0.0606
0.04892	0.3795
0.19954	1.6041
0.39838	2.6808
0.59559	3.6318
0.79712	4.2583
0.99681	4.6518
