Adsorption isotherm of N-propane on Mg-MOF-74
DOI: 10.1007/s10450-017-9862-9
Article source: Figure 3
Adsorbate N-propane: InChIKey ATUOYWHBWRKTHZ-UHFFFAOYSA-N
Kind: experiment
Temperature: 318 K
Tabular data in the source: 0
pressure (bar)	uptake (mmol/g)
0.00165	0.0879
0.01707	4.9827
0.02643	5.5301
0.03846	5.7877
0.05514	6.0518
0.07303	6.0775
0.09706	6.2965
0.2012	6.5541
0.40064	6.8955
0.60202	6.9728
0.80193	7.0629
1.00429	7.0887
