Adsorption isotherm of Propene on IRMOF-74-III
DOI: 10.1007/s10450-017-9862-9
Article source: Figure 3
Adsorbate Propene: InChIKey QQONPFPTGQHPMA-UHFFFAOYSA-N
Kind: experiment
Temperature: 318 K
Tabular data in the source: 0
pressure (bar)	uptake (mmol/g)
0.00242	0.636
0.02117	4.1551
0.04121	4.5461
0.06725	4.8349
0.09095	5.0005
0.20066	5.795
0.40035	7.2805
0.60105	8.9986
0.80079	10.7683
0.99854	12.3828
