Adsorption isotherm of Ethane on Mg-MOF-74
DOI: 10.1007/s10450-017-9862-9
Article source: Figure 3
Adsorbate Ethane: InChIKey OTMSDBZUPAUEDD-UHFFFAOYSA-N
Kind: experiment
Temperature: 318 K
Tabular data in the source: 0
pressure (bar)	uptake (mmol/g)
-0.00435	0.0188
0.05203	0.4288
0.10411	0.8033
0.20148	1.5272
0.39837	3.2586
0.5968	4.5441
0.80142	5.3024
1.0011	5.9796
