Adsorption isotherm of Ethene on Mg-MOF-74
DOI: 10.1007/s10450-017-9862-9
Article source: Figure 2
Adsorbate Ethene: InChIKey VGGSQFUCUMXWEO-UHFFFAOYSA-N
Kind: experiment
Temperature: 318 K
Tabular data in the source: 0
pressure (bar)	uptake (mmol/g)
0.0025	0.048
0.00988	0.1454
0.01925	0.3156
0.03655	0.8221
0.0573	1.3651
0.08024	1.8677
0.09825	2.2811
0.19599	4.1883
0.39632	6.0944
0.60032	7.0428
0.79955	7.5795
1.00186	7.9492
