Adsorption isotherm of Ethene on Mg-MOF-74
DOI: 10.1007/s10450-017-9862-9
Article source: Figure 2
Adsorbate Ethene: InChIKey VGGSQFUCUMXWEO-UHFFFAOYSA-N
Kind: experiment
Isotherm type: excess
Temperature: 318 K
Tabular data in the source: 0
pressure (bar)	uptake (mmol/g)
0	0.49505
0.007705	0.763791
0.030822	1.34371
0.042808	1.7256
0.049658	1.88119
0.054795	1.99434
0.063356	2.17822
0.072774	2.37624
0.098459	2.85714
0.125	3.23904
0.14726	3.47949
0.202911	3.94625
0.248288	4.314
0.297089	4.59689
0.354452	4.8232
0.399829	5.02122
0.454623	5.1768
0.501712	5.34654
0.548801	5.44555
0.597603	5.58699
0.649829	5.686
0.703767	5.77086
0.750856	5.88402
0.799658	5.95474
0.853596	6.0396
0.898116	6.11032
0.952911	6.19519
0.999144	6.23762
