Adsorption isotherm of N-propane on IRMOF-74-III
DOI: 10.1007/s10450-017-9862-9
Article source: Figure 3
Adsorbate N-propane: InChIKey ATUOYWHBWRKTHZ-UHFFFAOYSA-N
Kind: experiment
Temperature: 318 K
Tabular data in the source: 0
pressure (bar)	uptake (mmol/g)
0.00293	0.0971
0.01922	3.655
0.02976	4.0741
0.04028	4.2939
0.05662	4.4013
0.07258	4.524
0.09049	4.8153
0.19767	5.2652
0.40017	6.1444
0.60052	6.9827
0.80126	7.8109
1.00124	8.7412
