Adsorption isotherm of Ethane on IRMOF-74-IV
DOI: 10.1007/s10450-017-9862-9
Article source: Figure 3
Adsorbate Ethane: InChIKey OTMSDBZUPAUEDD-UHFFFAOYSA-N
Kind: experiment
Temperature: 318 K
Tabular data in the source: 0
pressure (bar)	uptake (mmol/g)
0.00212	0.044
0.04679	0.4947
0.19839	1.811
0.40022	2.9647
0.60078	3.9406
0.79995	4.6475
0.9964	5.2714
