Adsorption isotherm of Propene on IRMOF-74-IV
DOI: 10.1007/s10450-017-9862-9
Article source: Figure 3
Adsorbate Propene: InChIKey QQONPFPTGQHPMA-UHFFFAOYSA-N
Kind: experiment
Temperature: 318 K
Tabular data in the source: 0
pressure (bar)	uptake (mmol/g)
0.00234	0.0771
0.02007	4.5705
0.03004	5.1198
0.04062	5.7871
0.04863	6.1671
0.07026	6.8043
0.08895	7.2824
0.19934	9.1009
0.40163	10.774
0.60326	12.154
0.79867	13.1429
1.00029	13.9846
