Adsorption isotherm of Ethene on Mg-MOF-74
DOI: 10.1007/s10450-017-9862-9
Article source: Figure 3
Adsorbate Ethene: InChIKey VGGSQFUCUMXWEO-UHFFFAOYSA-N
Kind: experiment
Temperature: 318 K
Tabular data in the source: 0
pressure (bar)	uptake (mmol/g)
0.00136	0.0383
0.01109	0.4055
0.01944	0.5748
0.03733	0.9676
0.05774	1.4849
0.08223	2.0054
0.09934	2.462
0.19613	4.3078
0.39896	6.1858
0.59709	7.0805
0.79831	7.5919
0.99973	8.0045
