Adsorption isotherm of N-propane on IRMOF-74-IV
DOI: 10.1007/s10450-017-9862-9
Article source: Figure 3
Adsorbate N-propane: InChIKey ATUOYWHBWRKTHZ-UHFFFAOYSA-N
Kind: experiment
Temperature: 318 K
Tabular data in the source: 0
pressure (bar)	uptake (mmol/g)
0.00253	0.0716
0.01979	3.522
0.02975	4.0128
0.04126	4.3911
0.04965	4.7387
0.06953	5.1732
0.08727	5.623
0.19922	7.2077
0.39935	8.6988
0.59935	9.7422
0.80127	10.3734
1.00076	11.1591
