Adsorption isotherm of Ethane on Mg-MOF-74
DOI: 10.1007/s10450-017-9862-9
Article source: Figure 2
Adsorbate Ethane: InChIKey OTMSDBZUPAUEDD-UHFFFAOYSA-N
Kind: experiment
Isotherm type: excess
Temperature: 318 K
Tabular data in the source: 0
pressure (bar)	uptake (mmol/g)
0.023136	0.253521
0.047986	0.323944
0.067695	0.464789
0.098543	0.633803
0.140531	0.929577
0.17395	1.12676
0.207369	1.38028
0.241645	1.59155
0.277635	1.78873
0.34533	2.19718
0.414739	2.57747
0.485004	2.95775
0.550985	3.25352
0.617823	3.52113
0.688089	3.76056
0.75407	4.01408
0.827763	4.19718
0.96144	4.52113
0.998286	4.60563
