Adsorption isotherm of Propene on IRMOF-74-II
DOI: 10.1007/s10450-017-9862-9
Article source: Figure 3
Adsorbate Propene: InChIKey QQONPFPTGQHPMA-UHFFFAOYSA-N
Kind: experiment
Temperature: 318 K
Tabular data in the source: 0
pressure (bar)	uptake (mmol/g)
0.00176	0.0616
0.01489	4.9599
0.02646	5.8324
0.03743	6.5305
0.04951	6.9107
0.06764	7.4606
0.09257	8.1647
0.19805	10.3404
0.40018	12.6708
0.59857	13.3599
0.79984	13.8133
1.00051	14.1949
