Adsorption isotherm of Propene on Mg-MOF-74
DOI: 10.1007/s10450-017-9862-9
Article source: Figure 3
Adsorbate Propene: InChIKey QQONPFPTGQHPMA-UHFFFAOYSA-N
Kind: experiment
Temperature: 318 K
Tabular data in the source: 0
pressure (bar)	uptake (mmol/g)
0.00253	0.072
0.00686	5.8312
0.01334	6.3393
0.02542	6.6785
0.03479	7.0586
0.05325	7.2956
0.09579	7.6315
0.20044	8.1046
0.39842	8.6296
0.6002	8.5805
0.80123	8.6955
0.9968	8.646
