Adsorption isotherm of Ethene on IRMOF-74-II
DOI: 10.1007/s10450-017-9862-9
Article source: Figure 3
Adsorbate Ethene: InChIKey VGGSQFUCUMXWEO-UHFFFAOYSA-N
Kind: experiment
Temperature: 318 K
Tabular data in the source: 0
pressure (bar)	uptake (mmol/g)
0.00194	0.0556
0.02152	0.1924
0.04184	0.5103
0.06094	0.7678
0.08126	0.9971
0.10036	1.2667
0.19828	2.4175
0.39997	4.1198
0.59968	5.2066
0.8002	6.1105
0.99988	6.8455
