Adsorption isotherm of Nitric oxide on CuBTC
DOI: 10.1063/1.3479041
Adsorbate Nitric oxide: InChIKey MWUXSHHQAYIFBG-UHFFFAOYSA-N
Temperature: 300 K
Tabular data in the source: 0
pressure (bar)	uptake (coverage)
1.04407e-05	0.0046332
1.99356e-05	0.0046332
3.9742e-05	0.00926641
6.11674e-05	0.0277992
9.82902e-05	0.0648649
0.000195943	0.120463
0.000390625	0.203861
0.000575838	0.259459
0.000966095	0.333591
0.00201081	0.412355
0.00400867	0.454054
0.00616964	0.467954
0.00991402	0.47722
0.0197642	0.49112
0.0394013	0.495753
0.0580818	0.495753
0.10174	0.500386
0.194263	0.495753
0.404336	0.500386
0.596048	0.500386
1	0.500386
