Adsorption isotherm of Hydrogen sulfide on CuBTC
DOI: 10.1063/1.3479041
Adsorbate Hydrogen sulfide: InChIKey RWSOTUBLDIXVET-UHFFFAOYSA-N
Temperature: 550 K
Tabular data in the source: 0
pressure (bar)	uptake (coverage)
0.000102586	0.00926641
0.000195781	0.023166
0.000407024	0.0555985
0.000599405	0.0833977
0.00100413	0.125097
0.00199512	0.217761
0.00396287	0.319691
0.00608906	0.366023
0.0101953	0.421622
0.0202978	0.458687
0.0404306	0.481853
0.0595813	0.49112
0.0957106	0.500386
0.199109	0.514286
0.379927	0.532819
0.584355	0.551351
1.02222	0.588417
