Adsorption isotherm of Carbon monoxide on CuBTC
DOI: 10.1063/1.3479041
Adsorbate Carbon monoxide: InChIKey UGFAIRIUMAVXCW-UHFFFAOYSA-N
Temperature: 550 K
Tabular data in the source: 0
pressure (bar)	uptake (coverage)
0.000389978	0.046332
0.000599805	0.0648649
0.00096241	0.106564
0.00191285	0.189961
0.0039668	0.291892
0.00583593	0.34749
0.0097699	0.407722
0.0194442	0.454054
0.0957415	0.49112
0.199242	0.495753
0.396998	0.509653
