Adsorption isotherm of Pyridine on CuBTC
DOI: 10.1063/1.3479041
Adsorbate Pyridine: InChIKey JUJWROOIHBZHMG-UHFFFAOYSA-N
Temperature: 550 K
Tabular data in the source: 0
pressure (bar)	uptake (coverage)
9.84306e-06	0.440154
1.96029e-05	0.467954
3.90472e-05	0.49112
9.65073e-05	0.509653
0.000200734	0.528185
0.00039977	0.555985
0.000588627	0.588417
0.000985598	0.644015
0.00195601	0.769112
0.00388705	0.857143
0.00596857	0.922008
0.0099954	0.972973
