Adsorption isotherm of Pyridine on CuBTC
DOI: 10.1063/1.3479041
Adsorbate Pyridine: InChIKey JUJWROOIHBZHMG-UHFFFAOYSA-N
Temperature: 300 K
Tabular data in the source: 0
pressure (bar)	uptake (coverage)
1e-05	1.00077
1.99356e-05	1.00077
3.80645e-05	1.00077
6.11674e-05	1.00077
9.82902e-05	1.00077
0.000195943	1.00077
0.00040784	1.00077
0.000601215	1.00077
0.000966095	1.00077
0.00192593	1.00077
0.00383946	1.00077
0.00590935	1.00077
0.0103509	1.00077
