Adsorption isotherm of Acetylene on CuBTC
DOI: 10.1063/1.3479041
Adsorbate Acetylene: InChIKey HSFWRNGVRCDJHI-UHFFFAOYSA-N
Temperature: 300 K
Tabular data in the source: 0
pressure (bar)	uptake (coverage)
1e-05	0.0787645
1.99356e-05	0.171429
3.9742e-05	0.273359
6.11674e-05	0.366023
9.82902e-05	0.444788
0.000195943	0.467954
0.000390625	0.481853
0.000575838	0.495753
0.000966095	0.495753
0.00201081	0.500386
0.00383946	0.500386
0.00590935	0.500386
0.00991402	0.500386
0.0197642	0.500386
0.0394013	0.509653
0.0580818	0.509653
0.10174	0.523552
0.194263	0.542085
0.404336	0.588417
0.596048	0.630116
1	0.718147
