Adsorption isotherm of Acetylene on CuBTC
DOI: 10.1063/1.3479041
Adsorbate Acetylene: InChIKey HSFWRNGVRCDJHI-UHFFFAOYSA-N
Temperature: 550 K
Tabular data in the source: 0
pressure (bar)	uptake (coverage)
9.82902e-05	2.22e-16
0.000204579	2.22e-16
0.000407765	0.0046332
0.000601008	0.00926641
0.00100816	0.0138996
0.00200882	0.0277992
0.00400065	0.0555985
0.00615219	0.0787645
0.00986802	0.12973
0.0196101	0.217761
0.0389511	0.319691
0.0598398	0.370656
0.104626	0.421622
0.208263	0.46332
0.38056	0.486486
0.585329	0.505019
1.02512	0.509653
