Adsorption isotherm of Nitric oxide on CuBTC
DOI: 10.1063/1.3479041
Adsorbate Nitric oxide: InChIKey MWUXSHHQAYIFBG-UHFFFAOYSA-N
Temperature: 550 K
Tabular data in the source: 0
pressure (bar)	uptake (coverage)
0.00100867	2.22e-16
0.00201081	2.22e-16
0.00400793	0.0046332
0.00590636	0.0138996
0.0094879	0.023166
0.0206006	0.046332
0.0392898	0.0787645
0.0578416	0.11583
0.0968322	0.176062
0.20084	0.273359
0.398985	0.370656
0.613157	0.412355
0.983981	0.449421
