Adsorption isotherm of Hydrogen sulfide on CuBTC
DOI: 10.1063/1.3479041
Adsorbate Hydrogen sulfide: InChIKey RWSOTUBLDIXVET-UHFFFAOYSA-N
Temperature: 300 K
Tabular data in the source: 0
pressure (bar)	uptake (coverage)
1.04407e-05	0.47722
2.1731e-05	0.49112
4.14935e-05	0.49112
6.11674e-05	0.500386
9.82902e-05	0.500386
0.000195943	0.505019
0.000374136	0.500386
0.000575838	0.505019
0.000966095	0.500386
0.00201081	0.505019
0.00383946	0.514286
0.00590935	0.518919
0.0103509	0.537452
0.0197642	0.565251
0.0411368	0.630116
0.0606415	0.694981
0.0974451	0.801544
0.202822	0.889575
0.404336	0.926641
0.570892	0.949807
1	0.96834
