Adsorption isotherm of Ammonia on CuBTC
DOI: 10.1063/1.3479041
Adsorbate Ammonia: InChIKey QGZKDVFQNNGYKY-UHFFFAOYSA-N
Temperature: 300 K
Tabular data in the source: 0
pressure (bar)	uptake (coverage)
0.0197642	0.996139
0.0394013	1.00077
0.0580818	1.00077
0.0974451	1.00077
0.194263	1.00077
0.387271	1.00077
0.596048	1.00077
0.957797	0.996139
