Adsorption isotherm of Ammonia on CuBTC
DOI: 10.1063/1.3479041
Adsorbate Ammonia: InChIKey QGZKDVFQNNGYKY-UHFFFAOYSA-N
Temperature: 550 K
Tabular data in the source: 0
pressure (bar)	uptake (coverage)
9.85462e-06	0.407722
2.04734e-05	0.458687
4.07746e-05	0.486486
9.64584e-05	0.523552
0.000200567	0.551351
0.000382138	0.611583
0.00058707	0.662548
0.000981002	0.773745
0.00195016	0.85251
0.00371433	0.922008
0.00570624	0.972973
0.0095704	0.982239
0.019066	1.00077
0.0364049	1.00077
0.0560312	1.00077
0.0981454	1.00077
0.195626	1.00541
0.389989	1.00541
0.60033	1.00077
1.00718	1.00077
