Adsorption isotherm of Carbon monoxide on CuBTC
DOI: 10.1063/1.3479041
Adsorbate Carbon monoxide: InChIKey UGFAIRIUMAVXCW-UHFFFAOYSA-N
Temperature: 300 K
Tabular data in the source: 0
pressure (bar)	uptake (coverage)
0.0606415	0.505019
0.0974451	0.509653
0.194263	0.523552
0.404336	0.542085
0.596048	0.560618
1	0.597683
