Adsorption isotherm of Water on CuBTC
DOI: 10.1063/1.3479041
Adsorbate Water: InChIKey XLYOFNOQVPJJNP-UHFFFAOYSA-N
Temperature: 550 K
Tabular data in the source: 0
pressure (bar)	uptake (coverage)
3.97292e-05	0.00926641
0.000102518	0.0277992
0.000204103	0.0648649
0.000406004	0.125097
0.00062395	0.166795
0.000999793	0.24556
0.00198587	0.34749
0.00394766	0.426255
0.00581179	0.46332
0.01017	0.49112
