Adsorption isotherm of Water on CuBTC
DOI: 10.1063/1.3479041
Adsorbate Water: InChIKey XLYOFNOQVPJJNP-UHFFFAOYSA-N
Temperature: 300 K
Tabular data in the source: 0
pressure (bar)	uptake (coverage)
1e-05	0.500386
2.08137e-05	0.518919
4.14935e-05	0.532819
5.85855e-05	0.560618
0.000102622	0.657915
0.000195943	0.750579
0.00040784	0.83861
0.000601215	0.884942
0.00100867	0.917375
0.00201081	0.959073
0.00383946	0.977606
0.00590935	0.982239
