Adsorption isotherm of Nitrogen on MpRu-2ex
DOI: 10.1039/B618773k
Adsorbate Nitrogen: InChIKey IJGRMHOSHXDMSA-UHFFFAOYSA-N
Temperature: 77 K
Tabular data in the source: 0
pressure (bar)	uptake (cm3(STP)/g)
0.000865	107.402
0.00801532	127.138
0.0180263	146.016
0.035188	164.036
0.0723718	186.346
0.125287	209.514
0.195364	236.973
0.296904	279.019
0.348389	376.841
0.412746	424.036
0.45422	430.042
0.600095	438.623
0.798884	454.069
0.85895	460.933
0.913296	471.23
0.95191	487.534
0.973362	514.135
0.983373	557.039
0.989093	620.537
