Adsorption isotherm of Nitrogen on OH-TFP-TTA
DOI: 10.1021/acsami.0c00013
Article source: Figure 3
Adsorbate Nitrogen: InChIKey IJGRMHOSHXDMSA-UHFFFAOYSA-N
Kind: experiment
Temperature: 77 K
Tabular data in the source: 0
pressure (bar)	uptake (cm3(STP)/g)
0	12.549
0	25.098
0	34.5098
0	43.9216
0	53.3333
0	65.8824
0	72.1569
0	84.7059
0	94.1176
0	106.667
0	119.216
0	128.627
0.001369	138.039
0.002739	150.588
0.008216	316.863
0.035601	382.745
0.062986	489.412
0.084894	561.569
0.112279	583.529
0.123233	583.529
0.142403	589.804
0.169788	599.216
0.191696	605.49
0.216343	608.627
0.238251	614.902
0.264993	619.995
0.291407	623.021
0.315178	624.534
0.340271	627.56
0.365363	630.586
0.390456	636.638
0.416869	636.638
0.443282	639.664
0.468375	639.664
0.492146	642.689
0.51856	644.202
0.544973	648.741
0.567424	648.741
0.597799	651.767
0.62025	653.28
0.645343	654.793
0.670435	659.332
0.696848	662.358
0.721941	662.358
0.748354	665.384
0.774767	666.897
0.798539	669.923
0.823631	674.461
0.850044	677.487
0.873816	682.026
0.900229	686.565
0.926642	695.643
0.950414	712.285
0.972865	736.492
0.999279	783.394
0.966262	751.622
0.938528	736.492
0.909474	722.876
0.88174	716.824
0.856648	713.798
0.830234	707.746
0.822311	703.207
0.794577	701.695
0.776088	701.695
0.745712	694.13
0.721941	692.617
0.698169	691.104
0.669114	691.104
0.647984	686.565
0.621571	683.539
0.595158	683.539
0.570065	682.026
0.544973	679
0.51856	680.513
0.497429	659.332
0.467054	644.202
0.427434	636.638
0.401021	635.125
0.291407	623.021
0.23858	618.482
0.214808	612.43
0.189716	603.353
0.161982	598.814
0.13821	592.762
0.085384	562.503
0.065574	518.627
0.03652	380.949
0.010107	318.918
