Adsorption isotherm of Nitrogen on TFP-TAPB
DOI: 10.1021/acsami.0c00013
Article source: Figure S3
Adsorbate Nitrogen: InChIKey IJGRMHOSHXDMSA-UHFFFAOYSA-N
Kind: experiment
Temperature: 77 K
Tabular data in the source: 0
pressure (bar)	uptake (cm3(STP)/g)
0	32
0.002799	41.8462
0.002799	50.4615
0.005598	60.3077
0.011196	98.4615
0.036387	129.231
0.067177	147.692
0.089569	151.385
0.111961	155.077
0.141351	158.769
0.165143	160
0.190334	161.231
0.212727	164.923
0.237918	166.154
0.268707	168.615
0.293898	168.615
0.31909	169.846
0.344281	171.692
0.366673	172.308
0.394664	172.308
0.419855	174.769
0.442247	174.769
0.467439	176
0.49263	178.462
0.52062	178.462
0.54861	179.692
0.571003	179.692
0.596194	182.154
0.624184	183.385
0.649376	184.615
0.677366	184.615
0.696959	185.846
0.727749	188.308
0.750141	188.308
0.778131	189.538
0.803323	192
0.825715	194.462
0.850906	196.923
0.876097	200.615
0.904088	205.538
0.923681	212.923
0.948872	224
0.979662	246.154
1.00205	289.231
0.968465	254.769
0.937676	232.615
0.909686	219.077
0.884494	212.923
0.859303	209.231
0.831313	206.769
0.806122	208
0.800523	204.308
0.772533	203.077
0.750141	203.077
0.72495	201.846
0.699758	201.846
0.668969	200.615
0.649376	200.615
0.621385	198.154
0.593395	196.923
0.573802	196.923
0.545811	194.462
0.52062	194.462
0.495429	192
0.473037	188.308
0.442247	187.077
0.403061	187.077
0.37507	184.615
0.366673	184.615
0.344281	184.615
0.313492	184.615
0.291099	183.385
0.268707	182.154
0.240717	179.692
0.212727	179.692
0.190334	177.231
0.167942	177.231
0.137153	174.769
0.11476	173.538
0.08677	168.615
0.061579	164.923
0.039186	147.692
0.008397	115.692
