Adsorption isotherm of Nitrogen on CF3-TFP-TAPB
DOI: 10.1021/acsami.0c00013
Article source: Figure 3
Adsorbate Nitrogen: InChIKey IJGRMHOSHXDMSA-UHFFFAOYSA-N
Kind: experiment
Temperature: 77 K
Tabular data in the source: 0
pressure (bar)	uptake (cm3(STP)/g)
0.000862	14.8148
0.000862	22.3796
0.000862	34.4832
0.000862	43.5609
0.000862	51.1256
0.000862	57.1774
0.000862	66.2551
0.000862	75.3328
0.000862	87.4365
0.000862	98.0271
0.000862	105.592
0.000862	114.67
0.000862	123.747
0.000862	134.338
0.000862	141.903
0.008786	231.167
0.032558	311.353
0.058971	409.695
0.094629	462.648
0.113118	470.213
0.139531	482.317
0.164624	489.881
0.191037	494.42
0.216129	500.472
0.239901	506.524
0.264993	511.063
0.291407	515.602
0.315178	518.627
0.33895	521.653
0.366684	527.705
0.391776	530.731
0.41819	533.757
0.441961	535.27
0.468375	538.296
0.492146	541.322
0.51988	544.348
0.543652	548.886
0.571386	548.886
0.597799	553.425
0.62025	554.938
0.645343	559.477
0.670435	559.477
0.698169	564.016
0.723261	565.529
0.748354	567.042
0.776088	570.068
0.799859	576.12
0.822311	576.12
0.848724	580.658
0.875137	583.684
0.902871	588.223
0.924001	594.275
0.953056	601.84
0.978148	616.969
1.0006	648.741
0.964941	619.995
0.937208	603.353
0.909474	595.788
0.883061	592.762
0.857968	588.223
0.823631	586.71
0.798539	580.658
0.774767	579.146
0.745712	576.12
0.724582	574.607
0.695527	573.094
0.671756	573.094
0.645343	571.581
0.621571	570.068
0.596478	568.555
0.571386	565.529
0.543652	565.529
0.51856	560.99
0.492146	559.477
0.467054	553.425
0.440641	545.861
0.416869	541.322
0.393097	538.296
0.366684	535.27
0.344233	530.731
0.31782	526.192
0.290086	523.166
0.264333	518.627
0.23858	512.576
0.213488	508.037
0.187075	501.985
0.160662	497.446
0.13821	486.855
0.110477	477.778
0.085384	459.622
0.062933	430.876
0.05765	411.208
0.032558	311.353
0.011427	232.68
