Adsorption isotherm of Nitrogen on CF3-TFP-TTA
DOI: 10.1021/acsami.0c00013
Article source: Figure 3
Adsorbate Nitrogen: InChIKey IJGRMHOSHXDMSA-UHFFFAOYSA-N
Kind: experiment
Temperature: 77 K
Tabular data in the source: 0
pressure (bar)	uptake (cm3(STP)/g)
0.000862	14.8148
0.000862	23.8925
0.000862	35.9961
0.000862	45.0738
0.000862	51.1256
0.000862	58.6904
0.000862	67.7681
0.000862	76.8458
0.000862	82.8976
0.000862	90.4624
0.000862	99.5401
0.000862	111.644
0.000862	125.26
0.001522	135.851
0.000862	144.929
0.011427	214.524
0.068216	374.897
0.085384	385.488
0.113118	399.104
0.140191	408.182
0.165944	412.721
0.189716	420.286
0.216129	421.799
0.23858	423.312
0.266314	426.337
0.291407	430.876
0.315178	432.389
0.341592	432.389
0.364043	435.415
0.391776	436.928
0.41951	441.467
0.443282	441.467
0.465733	444.493
0.494788	444.493
0.521201	447.519
0.544973	450.545
0.570065	450.545
0.596478	452.058
0.618929	452.058
0.646663	453.571
0.673076	456.596
0.695527	456.596
0.72062	459.622
0.749674	459.622
0.774767	462.648
0.799859	462.648
0.824952	467.187
0.850044	468.7
0.873816	471.726
0.900229	476.265
0.926642	482.317
0.953056	492.907
0.976827	505.011
1.00192	536.783
0.966262	511.063
0.937208	497.446
0.909474	492.907
0.883061	486.855
0.859289	482.317
0.846082	480.804
0.824952	479.291
0.798539	476.265
0.774767	473.239
0.747033	471.726
0.72062	471.726
0.696848	468.7
0.671756	465.674
0.646663	464.161
0.62025	464.161
0.595158	461.135
0.570065	459.622
0.544973	459.622
0.51856	459.622
0.496108	456.596
0.468375	452.058
0.443282	447.519
0.39838	442.98
0.371967	439.954
0.336309	439.954
0.315178	436.928
0.288765	433.902
0.262352	432.389
0.23858	430.876
0.212167	426.337
0.185754	421.799
0.159341	418.773
0.13689	412.721
0.111797	405.156
0.086705	394.565
0.058971	373.384
0.033879	299.25
0.008786	214.524
