Adsorption isotherm of Nitrogen on Recovered OH-TFP-TTA
DOI: 10.1021/acsami.0c00013
Article source: Figure S8
Adsorbate Nitrogen: InChIKey IJGRMHOSHXDMSA-UHFFFAOYSA-N
Kind: experiment
Temperature: 77 K
Tabular data in the source: 0
pressure (bar)	uptake (cm3(STP)/g)
0	13.1387
0	19.708
0	26.2774
0	33.9416
0	45.9854
0	56.9343
0	65.6934
0	72.2628
0	83.2117
0	89.781
0	100.73
0.010065	197.08
0.033551	245.255
0.053682	300
0.090589	337.226
0.107364	343.796
0.13756	352.555
0.157691	354.745
0.184532	359.124
0.211373	363.504
0.238214	367.883
0.258345	367.883
0.288541	371.168
0.312027	372.263
0.335513	374.453
0.365709	374.453
0.39255	376.642
0.416036	376.642
0.442877	378.832
0.469719	381.022
0.493204	381.022
0.520046	383.212
0.543531	385.401
0.570373	389.781
0.597214	387.591
0.624055	387.591
0.650896	391.971
0.674382	391.971
0.694512	396.35
0.724709	396.35
0.75155	396.35
0.775036	396.35
0.801877	400.73
0.825363	407.299
0.855559	409.489
0.87569	413.869
0.905886	420.438
0.926017	429.197
0.952858	448.905
0.976344	490.511
1.00319	560.584
0.972988	532.117
0.942792	512.409
0.915951	499.27
0.909241	492.701
0.879045	481.752
0.852204	475.182
0.825363	468.613
0.798522	462.044
0.775036	459.854
0.754905	453.285
0.728064	453.285
0.694512	448.905
0.674382	446.715
0.647541	446.715
0.617344	444.526
0.597214	444.526
0.567017	440.146
0.546887	440.146
0.520046	433.577
0.493204	394.161
0.466363	384.307
0.419392	381.022
0.395906	378.832
0.365709	378.832
0.338868	376.642
0.312027	378.832
0.291897	372.263
0.265055	370.073
0.231504	370.073
0.211373	367.883
0.187887	365.693
0.161046	361.314
0.134205	356.934
0.110719	352.555
0.083878	345.985
0.058715	320.803
0.057037	300
0.030196	245.255
0.00671	197.08
