Adsorption isotherm of Nitrogen on TFP-TTA
DOI: 10.1021/acsami.0c00013
Article source: Figure S3
Adsorbate Nitrogen: InChIKey IJGRMHOSHXDMSA-UHFFFAOYSA-N
Kind: experiment
Temperature: 77 K
Tabular data in the source: 0
pressure (bar)	uptake (cm3(STP)/g)
0	12
0	23.0769
0	30.4615
0	38.7692
0	70.1538
0.028146	100.615
0.059106	112.615
0.081623	119.077
0.106954	124.615
0.1351	127.385
0.160431	128.308
0.185762	132
0.216723	134.769
0.236425	136.615
0.261756	137.538
0.287087	140.308
0.315233	143.077
0.33775	143.077
0.365896	144.923
0.388412	146.769
0.419373	147.692
0.44189	148.615
0.461592	150.462
0.489737	152.308
0.517883	154.154
0.543215	156
0.568546	156.923
0.596692	158.769
0.622023	160.615
0.647354	161.538
0.672685	163.385
0.695202	164.308
0.726163	166.154
0.748679	168
0.77401	169.846
0.799342	171.692
0.824673	174.462
0.84719	175.385
0.876743	178.615
0.917554	180
0.942885	182.769
0.951329	183.692
0.979475	186.462
1.01888	212.308
0.965402	194.769
0.934442	194.769
0.906296	196.615
0.880965	196.615
0.858448	195.692
0.827488	196.615
0.802156	197.538
0.77964	197.538
0.751494	197.538
0.726163	197.538
0.703646	197.538
0.681129	197.538
0.652983	197.538
0.624838	197.538
0.602321	198.462
0.57699	198.462
0.551658	198.462
0.523513	198.462
0.467221	197.538
0.419373	196.615
0.396856	195.692
0.365896	196.615
0.33775	196.615
0.312419	196.615
0.287087	193.846
0.261756	193.846
0.23924	192.923
0.205465	192
0.18717	191.077
0.160431	188.308
0.1351	187.385
0.109769	185.538
0.084437	180.923
0.061921	171.692
0.033775	156.923
0.007036	131.077
0.388412	196.154
0.47285	198.462
0.515069	199.385
