Adsorption isotherm of Nitrogen on MIL-53(Al)
DOI: 10.1080/01496395.2011.594481
Adsorbate Nitrogen: InChIKey IJGRMHOSHXDMSA-UHFFFAOYSA-N
Temperature: 77 K
Tabular data in the source: 0
pressure (bar)	uptake (cm3(STP)/g)
0.00412989	125.332
0.00600012	139.655
0.0114906	152.785
0.0205677	156.366
0.0368998	161.141
0.0514241	167.109
0.0677466	169.496
0.084069	171.883
0.102204	174.271
0.118522	175.464
0.134839	176.658
0.149349	179.045
0.165672	181.432
0.181985	181.432
0.198307	183.82
0.216437	185.013
0.234567	186.207
0.250885	187.401
0.269015	188.594
0.285333	189.788
0.303468	192.175
0.319776	190.981
0.337911	193.369
0.354224	193.369
0.372354	194.562
0.390484	195.756
0.408609	195.756
0.42674	196.95
0.444865	196.95
0.462995	198.143
0.479313	199.337
0.497438	199.337
0.515568	200.531
0.533694	200.531
0.551824	201.724
0.569954	202.918
0.586272	204.111
0.604402	205.305
0.622532	206.499
0.640662	207.692
0.65698	208.886
0.67511	210.08
0.69324	211.273
0.711375	213.66
0.727693	214.854
0.745828	217.241
0.762145	218.435
0.78028	220.822
0.796608	224.403
0.814748	227.984
0.83108	232.759
0.845599	237.533
0.860123	243.501
0.880109	255.438
0.889235	270.955
0.907432	288.859
0.923817	306.764
0.932981	331.83
0.951217	359.284
0.967602	377.188
0.973121	397.48
