Adsorption isotherm of Oxygen on Zeolite 5A
DOI: 10.1021/je8006919
Article source: Table 2
Adsorbate Oxygen: InChIKey MYMOFIZGZYHOMD-UHFFFAOYSA-N
Kind: experiment
Temperature: 273 K
Tabular data in the source: 1
pressure (bar)	uptake (mmol/g)
0.092	0.00154
0.186	0.0362
0.341	0.0679
0.6	0.117
0.948	0.179
1.411	0.2563
2.106	0.3683
3.48	0.567
5.379	0.7991
7.413	1.0268
8.545	1.1652
9.344	1.2366
