Adsorption isotherm of Nitrogen on Zeolite 5A
DOI: 10.1021/je8006919
Article source: Table 1
Adsorbate Nitrogen: InChIKey IJGRMHOSHXDMSA-UHFFFAOYSA-N
Kind: experiment
Temperature: 343 K
Tabular data in the source: 1
pressure (bar)	uptake (mmol/g)
0.121	0.013
0.26	0.0289
0.478	0.0533
0.758	0.0844
1.159	0.1329
2.071	0.2264
3.6	0.3639
5.779	0.5268
8.331	0.6899
9.352	0.7692
