Adsorption isotherm of Oxygen on Zeolite 5A
DOI: 10.1021/je8006919
Article source: Table 2
Adsorbate Oxygen: InChIKey MYMOFIZGZYHOMD-UHFFFAOYSA-N
Kind: experiment
Temperature: 343 K
Tabular data in the source: 1
pressure (bar)	uptake (mmol/g)
0.08	0.0014
0.216	0.0109
0.437	0.0237
0.93	0.0522
1.315	0.0777
2.123	0.1205
3.734	0.2098
5.8	0.3165
8.262	0.4366
9.484	0.501
