Adsorption isotherm of Nitrogen on Zeolite 5A
DOI: 10.1021/je8006919
Article source: Table 1
Adsorbate Nitrogen: InChIKey IJGRMHOSHXDMSA-UHFFFAOYSA-N
Kind: experiment
Temperature: 303 K
Tabular data in the source: 1
pressure (bar)	uptake (mmol/g)
0.042	0.0086
0.13	0.0299
0.333	0.0866
0.634	0.1674
0.887	0.23
1.175	0.2994
1.625	0.3934
2.085	0.4848
3.038	0.645
4.27	0.828
6.095	1.0588
7.766	1.2249
9.19	1.3472
