Adsorption isotherm of Oxygen on Zeolite 5A
DOI: 10.1021/je8006919
Article source: Table 2
Adsorbate Oxygen: InChIKey MYMOFIZGZYHOMD-UHFFFAOYSA-N
Kind: experiment
Temperature: 303 K
Tabular data in the source: 1
pressure (bar)	uptake (mmol/g)
0.086	0.01
0.188	0.0226
0.332	0.0372
0.613	0.0679
0.961	0.1022
1.432	0.1504
2.148	0.2138
3.559	0.3455
5.482	0.5089
7.479	0.683
8.59	0.7679
9.317	0.8348
