Adsorption isotherm of Oxygen on Zeolite 5A
DOI: 10.1021/je8006919
Article source: Table 2
Adsorbate Oxygen: InChIKey MYMOFIZGZYHOMD-UHFFFAOYSA-N
Kind: experiment
Temperature: 283 K
Tabular data in the source: 1
pressure (bar)	uptake (mmol/g)
0.079	0.01
0.188	0.027
0.329	0.0491
0.607	0.0893
0.942	0.1411
1.413	0.2094
2.124	0.3089
3.525	0.4866
5.417	0.7054
7.427	0.9063
8.59	1.0179
9.363	1.0893
