Adsorption isotherm of Oxygen on Zeolite 5A
DOI: 10.1021/je8006919
Article source: Table 2
Adsorbate Oxygen: InChIKey MYMOFIZGZYHOMD-UHFFFAOYSA-N
Kind: experiment
Temperature: 283 K
Tabular data in the source: 1
pressure (bar)	uptake (mmol/g)
0.061	0.031
0.108	0.0572
0.268	0.1411
0.585	0.2816
0.909	0.4009
1.465	0.5721
2.287	0.7777
3.676	1.0405
5.62	1.311
8.284	1.5704
9.467	1.6654
