Adsorption isotherm of Nitrogen on Zeolite 5A
DOI: 10.1021/je8006919
Article source: Table 1
Adsorbate Nitrogen: InChIKey IJGRMHOSHXDMSA-UHFFFAOYSA-N
Kind: experiment
Temperature: 273 K
Tabular data in the source: 1
pressure (bar)	uptake (mmol/g)
0.056	0.031
0.11	0.0736
0.221	0.1521
0.462	0.2997
0.79	0.4537
1.172	0.6036
2.081	0.8839
3.473	1.182
5.088	1.4282
6.559	1.6039
8.508	1.7869
9.458	1.8673
