Adsorption isotherm of Carbon Dioxide on MIL-53(Cr)
DOI: 10.1021/Jp911484g
Adsorbate Carbon Dioxide: InChIKey CURLTUGMZLYLDI-UHFFFAOYSA-N
Temperature: 300 K
Tabular data in the source: 0
pressure (bar)	uptake (molecules/unitcell)
0.75188	1.63707
1.99248	1.91506
4.69925	2.28571
5.56391	2.44015
5.93985	2.44015
6.16541	2.44015
7.14286	2.47104
10	2.62548
15	2.74903
