Adsorption isotherm of Carbon Dioxide on MIL-53(Cr)
DOI: 10.1021/Jp911484g
Adsorbate Carbon Dioxide: InChIKey CURLTUGMZLYLDI-UHFFFAOYSA-N
Temperature: 300 K
Tabular data in the source: 0
pressure (bar)	uptake (molecules/unitcell)
0.148559	0.307388
0.295964	0.860931
0.519524	1.16817
0.70443	1.72163
0.889624	2.21356
1.00112	2.42872
1.48372	3.47388
1.96762	4.24212
2.48988	4.82566
2.97508	5.31697
3.49864	5.62359
3.98456	5.96106
4.47091	6.20621
4.95726	6.45137
5.18197	6.51245
5.36933	6.54283
5.55626	6.66553
5.78111	6.69583
5.96833	6.75699
6.19304	6.81807
6.3429	6.84853
6.56761	6.9096
6.79218	7.00145
7.20468	7.00061
7.39161	7.1233
7.61647	7.15361
7.76632	7.18407
7.99118	7.21438
8.96533	7.39699
9.97726	7.518
11.9635	7.79084
14.9999	8.03077
