Adsorption isotherm of Carbon Dioxide on MIL-53(Cr)
DOI: 10.1021/Jp911484g
Adsorbate Carbon Dioxide: InChIKey CURLTUGMZLYLDI-UHFFFAOYSA-N
Temperature: 300 K
Tabular data in the source: 0
pressure (bar)	uptake (molecules/unitcell)
0.037594	0.277992
0.075188	0.525097
0.225564	0.772201
0.488722	1.14286
0.676692	1.26641
0.864662	1.42085
0.977444	1.51351
1.50376	1.76062
1.99248	1.91506
2.44361	2.03861
2.96992	2.13127
3.53383	2.16216
3.98496	2.25483
4.51128	2.34749
5.03759	2.34749
5.18797	2.34749
5.37594	2.40927
5.56391	2.40927
5.78947	2.40927
6.01504	2.44015
6.20301	2.47104
6.39098	2.50193
6.57895	2.44015
6.76692	2.47104
6.99248	2.50193
7.18045	2.47104
7.78195	2.50193
7.96992	2.53282
8.98496	2.62548
10	2.62548
11.9925	2.71815
15	2.71815
