Adsorption isotherm of Carbon Dioxide on MIL-53(Cr)
DOI: 10.1021/Jp911484g
Adsorbate Carbon Dioxide: InChIKey CURLTUGMZLYLDI-UHFFFAOYSA-N
Temperature: 300 K
Tabular data in the source: 0
pressure (bar)	uptake (molecules/unitcell)
0.037594	0.276923
0.150376	0.4
0.18797	0.584615
0.263158	0.769231
0.488722	1.16923
0.676692	1.32308
1.01504	1.53846
1.50376	1.78462
1.99248	1.90769
2.5188	2.03077
2.96992	2.12308
3.49624	2.21538
3.94737	2.27692
4.47368	2.95385
4.96241	3.6
5.18797	3.6
5.37594	3.81538
5.56391	4.06154
5.78947	4.30769
5.97744	4.61538
6.16541	4.83077
6.39098	5.13846
6.57895	5.38462
6.76692	5.63077
6.99248	5.96923
7.18045	6.21538
7.36842	6.52308
7.59398	6.83077
7.78195	7.13846
7.96992	7.16923
8.94737	7.35385
9.96241	7.47692
11.9925	7.72308
14.9624	8
