Adsorption isotherm of Carbon Dioxide on MIL-53(Cr)
DOI: 10.1021/Jp911484g
Adsorbate Carbon Dioxide: InChIKey CURLTUGMZLYLDI-UHFFFAOYSA-N
Temperature: 300 K
Tabular data in the source: 0
pressure (bar)	uptake (molecules/unitcell)
0.18797	0.892308
0.300752	1.35385
0.338346	1.66154
0.676692	2
1.05263	2.15385
2.40602	2.46154
2.85714	2.64615
3.64662	2.67692
4.66165	2.98462
5.22556	3.56923
5.37594	3.75385
6.01504	4.70769
6.57895	5.50769
6.69173	5.72308
7.21805	6.21538
7.93233	6.61538
8.57143	6.86154
9.17293	7.07692
9.73684	7.26154
10.3759	7.35385
12.1053	7.66154
13.5714	7.90769
14.812	8.09231
