Adsorption isotherm of 1-Butanol, Water on CAL TR
DOI: 10.1007/s10450-017-9918-x
Article source: Figure 2
Adsorbate 1-Butanol: InChIKey LRHPLDYGYMQRHN-UHFFFAOYSA-N
Adsorbate Water: InChIKey XLYOFNOQVPJJNP-UHFFFAOYSA-N
Kind: experiment
Temperature: 298 K
Tabular data in the source: 0
pressure (bar)	1-Butanol fraction	1-Butanol uptake (mg/g)	Water fraction	Water uptake (mg/g)	total uptake (mg/g)
1.01325	2.23558	156.223			
1.01325	3.99039	257.618			
1.01325	5.38461	322.21			
1.01325	8.99039	380.043			
1.01325	12.4519	410.086			
1.01325	15.4567	430.365			
1.01325	17.9327	447.639			
