Adsorption isotherm of 1-Butanol, Water on AC 207C
DOI: 10.1007/s10450-017-9918-x
Article source: Figure 2
Adsorbate 1-Butanol: InChIKey LRHPLDYGYMQRHN-UHFFFAOYSA-N
Adsorbate Water: InChIKey XLYOFNOQVPJJNP-UHFFFAOYSA-N
Kind: experiment
Temperature: 298 K
Tabular data in the source: 0
pressure (bar)	1-Butanol fraction	1-Butanol uptake (mg/g)	Water fraction	Water uptake (mg/g)	total uptake (mg/g)
1.01325	1.92308	175			
1.01325	3.00481	259.12			
1.01325	5	363.519			
1.01325	6.94711	435.622			
1.01325	8.96635	497.21			
1.01325	11.9471	537.768			
1.01325	14.9519	552.039			
