Adsorption isotherm of 1-Butanol, Water on SP 207
DOI: 10.1007/s10450-017-9918-x
Article source: Figure 2
Adsorbate 1-Butanol: InChIKey LRHPLDYGYMQRHN-UHFFFAOYSA-N
Adsorbate Water: InChIKey XLYOFNOQVPJJNP-UHFFFAOYSA-N
Kind: experiment
Temperature: 298 K
Tabular data in the source: 0
pressure (bar)	1-Butanol fraction	1-Butanol uptake (mg/g)	Water fraction	Water uptake (mg/g)	total uptake (mg/g)
1.01325	2.40385	95.3863			
1.01325	3.60577	141.202			
1.01325	5.02404	181.009			
1.01325	8.48558	237.339			
1.01325	11.9712	293.67			
1.01325	15.9615	331.223			
1.01325	20.1923	365.021			
