Adsorption isotherm of 1-Butanol, Water on SP 207
DOI: 10.1007/s10450-017-9918-x
Article source: Figure 5
Adsorbate 1-Butanol: InChIKey LRHPLDYGYMQRHN-UHFFFAOYSA-N
Adsorbate Water: InChIKey XLYOFNOQVPJJNP-UHFFFAOYSA-N
Kind: experiment
Temperature: 298 K
Tabular data in the source: 0
pressure (bar)	1-Butanol fraction	1-Butanol uptake (mg/g)	Water fraction	Water uptake (mg/g)	total uptake (mg/g)
1.01325	2.40341	95.5285			
1.01325	3.58266	143.801			
1.01325	5.09883	181.911			
1.01325	8.55234	239.075			
1.01325	12.0058	294.334			
1.01325	15.9647	332.444			
1.01325	20.2044	366.108			
