Adsorption isotherm of Nitrogen on MIL-53(Al)
DOI: 10.1039/C0cc04759g
Adsorbate Nitrogen: InChIKey IJGRMHOSHXDMSA-UHFFFAOYSA-N
Temperature: 77 K
Tabular data in the source: 0
pressure (bar)	uptake (cm3(STP)/g)
0.00619484	308.325
0.0127495	314.88
0.0345982	321.434
0.0586318	324.166
0.102329	326.35
0.167876	326.897
0.25964	327.989
0.347035	329.628
0.432245	329.628
0.526195	329.082
0.61359	328.535
0.6988	329.082
0.792749	328.535
0.87796	327.989
0.945691	328.535
0.967539	329.628
0.989388	333.997
