Adsorption isotherm of Nitrogen on MIL-53(Cr)
DOI: 10.1039/C0cc04759g
Adsorbate Nitrogen: InChIKey IJGRMHOSHXDMSA-UHFFFAOYSA-N
Temperature: 77 K
Tabular data in the source: 0
pressure (bar)	uptake (cm3(STP)/g)
0.00619484	330.174
0.0105646	338.367
0.0280436	345.468
0.0542621	348.745
0.102329	351.477
0.17006	352.569
0.233422	352.569
0.296783	353.661
0.371069	353.115
0.43443	352.569
0.502161	352.023
0.567707	351.477
0.637623	350.93
0.70317	349.838
0.768716	349.292
0.840817	348.745
0.904178	348.745
0.969724	349.838
0.987203	353.115
