Adsorption isotherm of Nitrogen on MIL-47
DOI: 10.1039/C0cc04759g
Adsorbate Nitrogen: InChIKey IJGRMHOSHXDMSA-UHFFFAOYSA-N
Temperature: 77 K
Tabular data in the source: 0
pressure (bar)	uptake (cm3(STP)/g)
0.00619484	235.132
0.0127495	248.787
0.0324133	262.443
0.0564469	266.266
0.0979595	268.997
0.148212	271.182
0.25527	273.367
0.34922	273.913
0.436615	274.46
0.530565	274.46
0.620144	274.46
0.709724	273.913
0.801489	273.913
0.884514	274.46
0.945691	276.098
0.971909	278.283
0.987203	282.107
