Adsorption isotherm of Argon on COF-300
DOI: 10.1021/ja8096256
Article source: Figure 3
Adsorbate Argon: InChIKey XKRFYHLGVUSROY-UHFFFAOYSA-N
Kind: experiment
Isotherm type: excess
Temperature: 87 K
Tabular data in the source: 0
pressure (bar)	uptake (cm3(STP)/g)
0.003166	2.39362
0.003166	12.766
0.003166	22.3404
0.002714	29.5213
0.003619	42.2872
0.003166	54.6543
0.003619	67.4202
0.003619	80.5851
0.003166	95.3457
0.004071	110.904
0.003619	125.665
0.003619	140.426
0.004523	172.739
0.00588	195.08
0.00588	212.633
0.006785	224.601
0.008142	234.176
0.010856	243.75
0.014023	253.324
0.015832	258.91
0.021713	272.473
0.031212	293.218
0.042068	311.968
0.051115	323.936
0.061519	334.309
0.072375	341.489
0.082327	348.271
0.09273	355.053
0.104039	362.633
0.128013	376.197
0.156059	394.149
0.180033	411.702
0.204007	428.457
0.23748	448.803
0.270954	462.766
0.30488	472.34
0.354637	483.112
0.406205	492.287
0.458224	499.468
0.508887	504.255
0.560906	510.239
0.608855	512.234
0.660422	515.824
0.717417	519.415
0.762199	522.207
0.815123	523.803
0.865334	526.197
0.914187	528.59
0.969825	534.176
1.00873	544.947
0.006785	315.957
0.009499	375
0.012213	418.484
0.049305	472.739
0.104039	489.495
0.200388	501.463
0.301713	508.644
0.408466	513.431
0.503006	517.42
0.612926	520.612
0.708823	523.803
0.806529	526.596
