Adsorption isotherm of Nitrogen on COF-300
DOI: 10.1021/ja8096256
Article source: Figure S37
Adsorbate Nitrogen: InChIKey IJGRMHOSHXDMSA-UHFFFAOYSA-N
Kind: experiment
Isotherm type: excess
Temperature: 77 K
Tabular data in the source: 0
pressure (bar)	uptake (cm3(STP)/g)
0	18.1543
0	29.5008
0	41.3011
0	52.6475
0.000523	62.1785
0.001568	74.4327
0.000523	83.9637
0.000523	93.9486
0	107.11
0	117.095
0.000523	137.519
0.001568	152.95
0.001568	163.843
0.00209	173.374
0.002613	183.812
0.003135	194.251
0.005748	203.782
0.007316	215.582
0.011496	227.383
0.017767	240.545
0.026651	255.068
0.038147	276.399
0.046508	290.923
0.060095	311.346
0.067411	321.331
0.079952	332.224
0.089358	342.663
0.100332	349.47
0.124893	363.994
0.151543	378.064
0.179762	387.595
0.201709	393.041
0.252921	406.203
0.305177	418.003
0.35273	425.265
0.401329	431.619
0.453585	437.519
0.505319	442.511
0.55653	446.596
0.608786	450.227
0.65843	455.219
0.710686	458.396
0.761375	462.481
0.811541	465.204
0.863797	467.02
0.914486	471.558
0.964129	474.281
1.00802	505.144
0.000523	321.785
0.001045	353.101
0.003135	371.71
0.006271	384.871
0.011496	401.21
0.02038	411.649
0.045463	427.534
0.095106	440.696
0.194394	452.95
0.295248	459.304
0.404464	463.389
0.498525	466.112
0.606173	467.927
0.700235	470.197
0.80945	472.012
0.900899	473.828
