Adsorption isotherm of Nitrogen on MIL-101
DOI: 10.1016/j.ces.2014.11.058
Article source: Figure 3
Adsorbate Nitrogen: InChIKey IJGRMHOSHXDMSA-UHFFFAOYSA-N
Kind: experiment
Temperature: 77 K
Tabular data in the source: 0
pressure (bar)	uptake (cm3(STP)/g)
0.002128	48.111
0.002128	49.458
0.002138	50.552
0.002138	51.811
0.005928	178.753
0.013182	213.394
0.033012	256.872
0.057401	293.766
0.085508	332.229
0.11474	368.296
0.146708	397.225
0.189174	420.944
0.224151	446.401
0.247132	466.651
0.307917	477.514
0.366604	485.645
0.414125	490.862
0.458344	493.771
0.546101	502.512
0.58734	507.021
0.622804	509.214
0.658268	512.487
0.695738	518.653
0.808138	530.528
0.866045	534.892
0.919231	540.959
0.967066	548.241
1.00798	589.55
