Adsorption isotherm of Nitrogen on Mesoporous Y-Al binary oxide
DOI: 10.1016/j.jtice.2016.05.003
Article source: Figure 3- Y AL binary oxide
Adsorbate Nitrogen: InChIKey IJGRMHOSHXDMSA-UHFFFAOYSA-N
Kind: experiment
Temperature: 77 K
Tabular data in the source: 0
pressure (bar)	uptake (cm3(STP)/g)
0.079287	30.862
0.101609	33.117
0.122958	35.954
0.143922	38.646
0.162363	43.596
0.190704	47.743
0.207402	51.673
0.256129	54.417
0.25768	54.727
0.303296	62.077
0.310095	58.436
0.350655	67.169
0.364061	62.072
0.402878	69.495
0.412393	66.291
0.451991	76.553
0.46345	70.874
0.495864	80.554
0.513718	76.476
0.538563	86.302
0.559537	83.17
0.593694	98.019
0.6133	93.65
0.66454	123.13
0.666678	108.279
0.714412	160.691
0.717533	159.851
0.74021	193.231
0.766402	222.276
0.773231	154.79
0.807945	231.956
0.822911	191.623
0.8557	233.991
0.876867	224.889
0.906757	236.317
0.934318	237.552
0.952566	238.061
0.956447	236.75
0.978577	240.097
0.985568	238.349
0.993917	241.989
0.99799	243.153
1.00382	246.065
