Adsorption isotherm of Nitrogen on Mesoporous Alumina
DOI: 10.1016/j.jtice.2016.05.003
Article source: Figure 3- MA
Adsorbate Nitrogen: InChIKey IJGRMHOSHXDMSA-UHFFFAOYSA-N
Kind: experiment
Temperature: 77 K
Tabular data in the source: 0
pressure (bar)	uptake (cm3(STP)/g)
0.065395	65.937
0.079469	68.305
0.101406	71.728
0.122755	74.861
0.142939	77.411
0.163032	80.106
0.182932	82.765
0.203501	85.57
0.244751	91.362
0.2531	92.018
0.306863	99.631
0.343836	104.912
0.358204	106.879
0.396444	113.071
0.407114	114.346
0.455355	122.942
0.462143	126.182
0.500667	137.216
0.505521	133.54
0.554957	148.776
0.555697	148.342
0.608143	168.987
0.608963	171.147
0.657113	195.296
0.662909	274.663
0.709802	226.974
0.710663	226.553
0.762197	279.403
0.763372	278.027
0.811502	280.208
0.826549	276.24
0.837319	281.156
0.847999	278.062
0.862458	282.032
0.875266	281.923
0.889147	282.143
0.898945	282.544
0.906038	282.654
0.920983	283.092
0.933983	283.675
0.947764	284.113
0.9597	284.769
0.973095	285.061
0.992316	286.555
1.00154	287.976
1.00794	288.814
