Adsorption isotherm of Nitrogen on Mesoporous Alumina
DOI: 10.1016/j.jtice.2016.05.003
Article source: Figure 3- MA
Adsorbate Nitrogen: InChIKey IJGRMHOSHXDMSA-UHFFFAOYSA-N
Kind: experiment
Temperature: 77 K
Tabular data in the source: 0
pressure (bar)	uptake (cm3(STP)/g)
0.065253	66.221
0.079236	68.334
0.102055	71.395
0.121955	74.929
0.143608	77.371
0.16292	80.213
0.182436	82.763
0.20341	85.751
0.248165	91.8
0.25467	92.711
0.305738	99.671
0.307683	99.744
0.344181	105.136
0.358265	106.849
0.395441	113.188
0.406121	114.828
0.456125	123.28
0.462528	126.302
0.50088	137.519
0.505348	133.697
0.554765	162.861
0.55515	163.038
0.607099	169.347
0.609247	228.425
0.65768	195.199
0.662554	274.988
0.710116	276.987
0.710521	277.798
0.762359	257.99
0.762835	258.077
0.811482	280.688
0.826042	277.742
0.8374	281.274
0.847401	279.892
0.861485	281.969
0.877981	281.717
0.888468	282.374
0.897213	282.63
0.905947	282.485
0.921571	283.398
0.93371	283.727
0.947885	284.384
0.962638	284.204
0.973227	285.225
0.99109	286.756
0.991283	286.76
1.00798	289.125
