Adsorption isotherm of Water on ZIF-8
DOI: 10.1039/C2jm31541f
Adsorbate Water: InChIKey XLYOFNOQVPJJNP-UHFFFAOYSA-N
Temperature: 274 K
Tabular data in the source: 0
pressure (bar)	uptake (volume/volume)
49.8507	130.607
52.5763	132.71
55.64	136.215
58.7021	140.421
61.0848	143.224
64.1485	146.729
66.8725	149.533
69.9362	153.037
72.3205	155.14
75.0429	158.645
78.105	162.85
80.8274	166.355
81.8481	167.757
84.9118	171.262
87.9771	174.065
91.3821	177.57
94.4458	181.075
97.1698	183.879
100.233	187.383
100.913	188.785
