Adsorption isotherm of Water on ZIF-8
DOI: 10.1039/C2jm31541f
Adsorbate Water: InChIKey XLYOFNOQVPJJNP-UHFFFAOYSA-N
Temperature: 274 K
Tabular data in the source: 0
pressure (bar)	uptake (mmol/g)
55.1351	7.65075
55.8108	7.59548
59.1892	7.65075
66.6216	7.65075
70	7.65075
75.7432	7.67839
79.1216	7.67839
81.4865	7.70603
