Adsorption isotherm of Water on ZIF-8
DOI: 10.1039/C2jm31541f
Adsorbate Water: InChIKey XLYOFNOQVPJJNP-UHFFFAOYSA-N
Temperature: 269 K
Tabular data in the source: 0
pressure (bar)	uptake (mmol/g)
29.4915	9.28643
31.8644	9.4799
34.5763	9.61809
37.6271	9.78392
40	9.89447
43.0508	9.97739
46.4407	10.0327
49.4915	10.1156
51.8644	10.2538
54.5763	10.1985
57.6271	10.2538
66.1017	10.309
69.4915	10.309
71.8644	10.2538
74.9153	10.309
78.3051	10.3367
82.3729	10.3367
85.7627	10.3367
89.1525	10.3367
