Adsorption isotherm of Water on ZIF-8
DOI: 10.1039/C2jm31541f
Adsorbate Water: InChIKey XLYOFNOQVPJJNP-UHFFFAOYSA-N
Temperature: 269 K
Tabular data in the source: 0
pressure (bar)	uptake (mmol/g)
49.8305	9.09296
52.8814	9.14824
55.9322	9.20352
59.322	9.25879
62.3729	9.31407
65.4237	9.36935
68.8136	9.39698
71.8644	9.4799
73.2203	9.4799
76.6102	9.50754
79.661	9.56281
83.0508	9.59045
86.1017	9.61809
89.4915	9.61809
92.8814	9.61809
97.9661	9.61809
101.356	9.61809
