Adsorption isotherm of Water on ZIF-8
DOI: 10.1039/C2jm31541f
Adsorbate Water: InChIKey XLYOFNOQVPJJNP-UHFFFAOYSA-N
Temperature: 269 K
Tabular data in the source: 0
pressure (bar)	uptake (volume/volume)
28.4193	99.7487
38.8329	114.07
51.321	127.638
61.3816	138.945
71.4423	150.251
81.503	161.558
90.8717	172.864
