Adsorption isotherm of Water on ZIF-8
DOI: 10.1039/C2jm31541f
Adsorbate Water: InChIKey XLYOFNOQVPJJNP-UHFFFAOYSA-N
Temperature: 274 K
Tabular data in the source: 0
pressure (bar)	uptake (volume/volume)
50.5477	124.299
54.9734	129.206
60.4198	135.514
65.5265	141.121
68.5902	144.626
70.9729	147.43
75.0588	151.636
78.4638	155.14
81.8688	158.645
85.2722	162.85
88.6772	166.355
90.7186	169.159
95.1459	173.364
98.2096	176.869
100.592	179.673
