Adsorption isotherm of Methane on ZIF-8
DOI: 10.1039/C2jm31541f
Adsorbate Methane: InChIKey VNWKTOKETHGBQD-UHFFFAOYSA-N
Temperature: 300 K
Tabular data in the source: 0
pressure (bar)	uptake (mmol/g)
2.93765	0.762255
3.52518	0.824346
4.02878	0.948529
4.61631	1.05719
5.1199	1.18137
6.04317	1.41422
6.71463	1.60049
7.30216	1.66258
7.72182	1.77124
8.47722	1.86438
9.06475	1.95752
9.65228	2.06618
10.2398	2.15931
10.8273	2.26797
11.4988	2.36111
12.1703	2.45425
14.1847	2.79575
14.7722	2.88889
15.3597	2.98203
15.8633	3.04412
16.5348	3.13725
17.542	3.23039
18.717	3.3701
19.6403	3.5098
20.2278	3.5719
20.8993	3.63399
21.7386	3.72712
22.3261	3.74265
22.9976	3.82026
23.753	3.89788
24.6763	3.99101
25.4317	4.0531
26.1031	4.14624
26.8585	4.17729
27.6139	4.23938
28.5372	4.28595
29.2926	4.33252
30.1319	4.39461
30.8873	4.44118
31.6427	4.50327
