Adsorption isotherm of Water on ZIF-8
DOI: 10.1039/C2jm31541f
Adsorbate Water: InChIKey XLYOFNOQVPJJNP-UHFFFAOYSA-N
Temperature: 269 K
Tabular data in the source: 0
pressure (bar)	uptake (volume/volume)
50.9871	132.915
63.1309	147.236
71.4771	165.327
82.2333	178.141
92.294	189.447
102.007	200
