Adsorption isotherm of Water on ZIF-8
DOI: 10.1039/C2jm31541f
Adsorbate Water: InChIKey XLYOFNOQVPJJNP-UHFFFAOYSA-N
Temperature: 269 K
Tabular data in the source: 0
pressure (bar)	uptake (volume/volume)
50.9558	119.347
55.814	125.377
60.3262	131.407
62.7553	134.422
66.5737	139.698
70.3904	144.221
72.4734	147.236
75.252	151.759
78.7227	156.281
82.8854	160.804
