Adsorption isotherm of Water on ZIF-8
DOI: 10.1039/C2jm31541f
Adsorbate Water: InChIKey XLYOFNOQVPJJNP-UHFFFAOYSA-N
Temperature: 274 K
Tabular data in the source: 0
pressure (bar)	uptake (volume/volume)
51.5795	120.794
54.3051	122.897
57.3688	126.402
60.4341	129.206
63.1565	132.71
65.8805	135.514
68.9442	139.019
71.6666	142.523
72.6873	143.925
75.4113	146.729
78.4766	149.533
81.5403	153.037
82.9023	154.439
85.6247	157.944
88.6884	161.449
92.7728	166.355
95.8365	169.86
98.9018	172.664
101.283	176.168
