Adsorption isotherm of Water on ZIF-8
DOI: 10.1039/C2jm31541f
Adsorbate Water: InChIKey XLYOFNOQVPJJNP-UHFFFAOYSA-N
Temperature: 274 K
Tabular data in the source: 0
pressure (bar)	uptake (mmol/g)
50.0676	10
54.4595	10.0829
59.8649	10.1935
64.9324	10.1935
71.0135	10.1935
77.4324	10.2211
81.4865	10.2211
84.527	10.2487
88.9189	10.2211
91.2838	10.2487
95	10.2487
98.0405	10.2487
100.405	10.2487
