Adsorption isotherm of Water on ZIF-8
DOI: 10.1039/C2jm31541f
Adsorbate Water: InChIKey XLYOFNOQVPJJNP-UHFFFAOYSA-N
Temperature: 274 K
Tabular data in the source: 0
pressure (bar)	uptake (mmol/g)
50.4054	8.50754
53.4459	8.53518
56.8243	8.56281
60.2027	8.59045
63.2432	8.61809
66.2838	8.67337
69.6622	8.72864
72.7027	8.8392
75.7432	8.8392
79.1216	8.86683
82.1622	8.89447
85.5405	8.94975
88.5811	9.00503
91.9595	9.0603
95	9.0603
98.3784	9.0603
101.757	9.08794
