Adsorption isotherm of Water on ZIF-8
DOI: 10.1039/C2jm31541f
Adsorbate Water: InChIKey XLYOFNOQVPJJNP-UHFFFAOYSA-N
Temperature: 274 K
Tabular data in the source: 0
pressure (bar)	uptake (mmol/g)
29.4595	5.0804
31.8243	5.21859
33.8514	5.4397
35.8784	5.6608
37.9054	5.88191
39.9324	6.10302
42.2973	6.26884
44.6622	6.46231
47.027	6.62814
49.7297	6.82161
52.0946	6.9598
54.4595	7.15327
57.1622	7.29146
59.8649	7.45729
61.8919	7.59548
66.6216	7.73367
69.6622	7.81658
73.0405	7.92714
75.4054	8.06533
78.4459	8.20352
80.8108	8.34171
83.8514	8.42462
87.2297	8.4799
90.2703	8.53518
93.6486	8.61809
96.6892	8.70101
99.7297	8.78392
102.77	8.89447
105.473	9.00503
108.514	9.14322
111.216	9.30905
