Adsorption isotherm of Water on ZIF-8
DOI: 10.1039/C2jm31541f
Adsorbate Water: InChIKey XLYOFNOQVPJJNP-UHFFFAOYSA-N
Temperature: 274 K
Tabular data in the source: 0
pressure (bar)	uptake (volume/volume)
29.8641	64.7196
32.5865	68.2243
34.966	72.4299
37.6868	76.6355
40.0648	81.5421
42.7872	85.0467
45.508	89.2523
48.2288	93.4579
50.9496	97.6636
53.3307	101.168
56.0515	105.374
58.7723	109.579
61.1518	113.785
63.8758	116.589
66.9379	120.794
69.6603	124.299
72.3811	128.505
74.7638	131.308
77.8259	135.514
80.5467	139.72
81.9071	141.822
84.6295	145.327
87.6932	148.832
90.414	153.037
93.138	155.841
95.8588	160.047
98.9225	163.551
101.645	167.056
104.024	171.262
106.745	175.467
109.466	179.673
112.188	183.178
