Adsorption isotherm of Water on ZIF-8
DOI: 10.1039/C2jm31541f
Adsorbate Water: InChIKey XLYOFNOQVPJJNP-UHFFFAOYSA-N
Temperature: 269 K
Tabular data in the source: 0
pressure (bar)	uptake (mmol/g)
50.1695	9.75628
52.8814	9.78392
56.2712	9.86683
59.322	9.94975
62.3729	10.0603
64.7458	10.2538
66.1017	10.4472
68.1356	10.6683
69.8305	10.8894
71.5254	11.0829
74.5763	11.1106
77.9661	11.1106
81.3559	11.1106
84.7458	11.1382
87.7966	11.1658
91.1864	11.1935
94.2373	11.1935
97.6271	11.1935
101.017	11.1935
