Adsorption isotherm of Water on ZIF-8
DOI: 10.1039/C2jm31541f
Adsorbate Water: InChIKey XLYOFNOQVPJJNP-UHFFFAOYSA-N
Temperature: 269 K
Tabular data in the source: 0
pressure (bar)	uptake (volume/volume)
49.9282	123.869
55.8279	131.407
61.0339	138.191
64.1568	141.96
72.1361	151.005
76.9926	156.281
82.1985	163.065
87.401	168.342
91.9115	173.618
96.7697	179.648
101.278	184.171
