Adsorption isotherm of Water on ZIF-8
DOI: 10.1039/C2jm31541f
Adsorbate Water: InChIKey XLYOFNOQVPJJNP-UHFFFAOYSA-N
Temperature: 269 K
Tabular data in the source: 0
pressure (bar)	uptake (volume/volume)
28.3532	71.1055
30.7805	73.3668
33.5591	77.8894
36.3377	82.4121
39.1146	86.1809
41.8915	89.9497
44.6683	93.7186
47.4469	98.2412
50.2238	102.01
53.0006	105.779
56.1235	109.548
59.2464	113.317
61.6772	117.085
64.8001	120.854
67.577	124.623
70.7016	129.146
73.1307	132.161
75.9093	136.683
78.6879	141.206
81.4665	145.729
83.8991	150.251
86.6777	154.774
89.1103	159.296
91.8889	163.819
94.3197	167.588
97.0983	172.111
100.223	176.633
102.652	179.648
105.086	184.925
107.865	189.447
110.298	193.97
112.382	197.739
