Adsorption isotherm of Water on ZIF-8
DOI: 10.1039/C2jm31541f
Adsorbate Water: InChIKey XLYOFNOQVPJJNP-UHFFFAOYSA-N
Temperature: 269 K
Tabular data in the source: 0
pressure (bar)	uptake (mmol/g)
52.2034	8.04271
55.2542	8.15327
58.3051	8.29146
61.3559	8.40201
63.3898	8.5402
66.4407	8.5402
69.4915	8.62312
74.2373	8.73367
77.2881	8.84422
80.678	8.92714
82.7119	9.01005
