Adsorption isotherm of Water on ZIF-8
DOI: 10.1039/C2jm31541f
Adsorbate Water: InChIKey XLYOFNOQVPJJNP-UHFFFAOYSA-N
Temperature: 274 K
Tabular data in the source: 0
pressure (bar)	uptake (volume/volume)
55.337	119.393
58.4039	121.495
61.1279	124.299
65.5552	128.505
68.6205	131.308
71.6858	134.112
75.7717	138.318
78.837	141.121
81.9007	144.626
