Adsorption isotherm of Methane on ZIF-8
DOI: 10.1039/C2jm31541f
Adsorbate Methane: InChIKey VNWKTOKETHGBQD-UHFFFAOYSA-N
Temperature: 300 K
Tabular data in the source: 0
pressure (bar)	uptake (mmol/g)
6.54676	1.5384
6.71463	1.60049
7.30216	1.66258
7.72182	1.77124
8.47722	1.86438
9.06475	1.95752
9.65228	2.06618
10.2398	2.15931
10.8273	2.26797
11.4988	2.36111
12.1703	2.45425
12.5899	2.51634
13.765	2.65605
14.2686	2.73366
14.94	2.8268
15.9472	2.9665
16.6187	3.05964
18.2974	3.27696
19.3046	3.40114
20.4796	3.5098
21.0671	3.58742
22.3261	3.74265
22.9976	3.82026
23.753	3.89788
24.6763	3.99101
25.4317	4.0531
26.1031	4.14624
26.8585	4.17729
27.6139	4.23938
28.4532	4.34804
29.2086	4.41013
29.964	4.48775
30.8873	4.54984
