Adsorption isotherm of Water on ZIF-8
DOI: 10.1039/C2jm31541f
Adsorbate Water: InChIKey XLYOFNOQVPJJNP-UHFFFAOYSA-N
Temperature: 269 K
Tabular data in the source: 0
pressure (bar)	uptake (mmol/g)
27.7966	5.96985
30.5085	6.0804
32.8814	6.24623
35.5932	6.41206
38.3051	6.57789
40.339	6.77136
43.0508	6.93719
45.7627	7.07538
48.4746	7.26884
50.8475	7.43467
53.5593	7.54523
56.9492	7.6005
60	7.68342
63.0508	7.76633
66.1017	7.90452
69.1525	8.01508
71.8644	8.15327
74.5763	8.26382
77.6271	8.42965
80.339	8.56784
83.0508	8.70603
85.0847	8.8995
87.4576	9.09296
89.8305	9.28643
92.2034	9.45226
97.9661	9.70101
100.678	9.8392
103.39	9.97739
105.763	10.1709
108.136	10.3367
110.847	10.5025
113.22	10.6407
