Adsorption isotherm of Water on ZIF-8
DOI: 10.1039/C2jm31541f
Adsorbate Water: InChIKey XLYOFNOQVPJJNP-UHFFFAOYSA-N
Temperature: 274 K
Tabular data in the source: 0
pressure (bar)	uptake (mmol/g)
49.7297	9.6407
52.7703	9.69598
55.8108	9.80653
59.1892	9.91709
61.5541	10
64.9324	10.0276
67.973	10.0553
71.3514	10.0829
72.7027	10.1106
76.4189	10.2211
82.1622	10.3869
86.2162	10.3869
91.6216	10.3869
96.6892	10.3869
101.419	10.3869
