Adsorption isotherm of Nitrogen on Por-sp2c-COF
DOI: 10.1002/anie.201902543
Article source: Figure 2c
Adsorbate Nitrogen: InChIKey IJGRMHOSHXDMSA-UHFFFAOYSA-N
Kind: experiment
Temperature: 77 K
Tabular data in the source: 0
pressure (bar)	uptake ()
0	89.5522
0.003061	98.9339
0.009184	110.021
0.015306	118.55
0.021428	126.226
0.029081	134.755
0.039795	144.989
0.050509	150.959
0.061224	155.224
0.07806	160.341
0.090305	163.753
0.105611	166.311
0.119386	168.87
0.131631	172.281
0.146937	174.84
0.166834	176.546
0.18214	178.252
0.200507	179.957
0.218874	181.663
0.280863	188.06
0.345148	194.883
0.41479	202.132
0.479074	208.102
0.54489	213.646
0.607644	220.896
0.67652	225.16
0.705602	228.571
0.774478	236.247
0.844885	246.482
0.906109	258.422
0.938251	266.098
0.974985	295.949
0.991822	372.708
1.01019	452.026
0.965802	302.772
0.938251	288.273
0.910701	279.318
0.880089	271.215
0.847946	266.098
0.824988	263.539
0.791315	262.687
0.76759	259.275
0.732387	255.864
0.707132	253.305
0.678051	251.599
0.6505	250.746
0.619889	248.188
0.590807	244.776
0.564787	243.923
0.537237	243.07
0.505094	241.365
0.480605	239.659
0.449993	236.247
0.420912	234.542
0.3903	231.13
0.358158	230.277
0.333668	227.719
0.306118	225.16
0.275506	221.748
0.249486	219.19
0.218874	216.631
0.191324	214.925
0.160712	210.661
0.131631	207.249
0.102549	200.426
0.076529	194.456
0.045918	179.957
0.018367	154.371
0.012245	147.548
0.003061	132.196
