Adsorption isotherm of N-Butane, 1-butene on Zeolite 5A
DOI: 10.1016/s1004-9541(07)60095-0
Article source: Table 5
Adsorbate N-Butane: InChIKey IJDNQMDRQITEOD-UHFFFAOYSA-N
Adsorbate 1-butene: InChIKey VXNZUUAINFGPBY-UHFFFAOYSA-N
Kind: experiment
Temperature: 300 K
Tabular data in the source: 1
pressure (bar)	N-Butane fraction	N-Butane uptake (wt%)	1-butene fraction	1-butene uptake (wt%)	total uptake (wt%)
0.00284			0.33	1.34681	0
0.01301			0.33	4.33335	0
0.02372			0.33	4.43965	0
0.04872			0.33	4.61618	0
0.07509			0.33	4.73425	0
0.0994			0.33	4.81937	0
0.19981			0.33	5.04772	0
0.2987			0.33	5.20862	0
0.4991			0.33	5.45271	0
0.69922			0.33	5.64583	0
0.89975			0.33	5.81956	0
