Adsorption isotherm of 1-butene on H-ZSM-5 (Si/Al: 120)
DOI: 10.1016/S1004-9541(07)60095-0
Adsorbate 1-butene: InChIKey VXNZUUAINFGPBY-UHFFFAOYSA-N
Temperature: 300 K
Tabular data in the source: 0
pressure (bar)	uptake (wt%)
0.00073	0.56455
0.01301	4.85782
0.024	5.22171
0.04831	5.38003
0.07509	5.49979
0.09954	5.59305
0.20008	5.82926
0.29884	5.99851
0.49992	6.24723
0.69881	6.43639
0.89783	6.59668
