Adsorption isotherm of 1-butene on H-ZSM-5 (Si/Al: 120)
DOI: 10.1016/S1004-9541(07)60095-0
Adsorbate 1-butene: InChIKey VXNZUUAINFGPBY-UHFFFAOYSA-N
Temperature: 300 K
Tabular data in the source: 0
pressure (bar)	uptake (wt%)
0	1.30612
0.0408511	2.69596
0.190638	3.11177
0.292766	3.19861
0.394894	3.36709
0.497021	3.3723
0.599149	3.62241
0.708085	3.79123
0.810213	3.71481
0.91234	3.88328
1.00085	3.96943
1.10979	4.05662
1.20511	4.14312
1.31404	4.14868
1.40255	4.23482
1.5183	4.24073
