Adsorption isotherm of N-Butane, 1-butene on Zeolite 5A
DOI: 10.1016/s1004-9541(07)60095-0
Article source: Table 5
Adsorbate N-Butane: InChIKey IJDNQMDRQITEOD-UHFFFAOYSA-N
Adsorbate 1-butene: InChIKey VXNZUUAINFGPBY-UHFFFAOYSA-N
Kind: experiment
Temperature: 300 K
Tabular data in the source: 1
pressure (bar)	N-Butane fraction	N-Butane uptake (wt%)	1-butene fraction	1-butene uptake (wt%)	total uptake (wt%)
0.0001			0.5	0.52807	0.52807
0.01397			0.5	4.61801	4.61801
0.01974			0.5	4.70522	4.70522
0.03911			0.5	4.77126	4.77126
0.05985			0.5	4.84056	4.84056
0.07921			0.5	4.91588	4.91588
0.09968			0.5	4.98105	4.98105
0.20008			0.5	5.17224	5.17224
0.29911			0.5	5.31969	5.31969
0.49896			0.5	5.55224	5.55224
0.70004			0.5	5.74481	5.74481
0.89907			0.5	5.91453	5.91453
