Adsorption isotherm of 1-butene on ZSM-5
DOI: 10.1016/S1004-9541(07)60095-0
Adsorbate 1-butene: InChIKey VXNZUUAINFGPBY-UHFFFAOYSA-N
Temperature: 300 K
Tabular data in the source: 0
pressure (bar)	uptake (wt%)
0.0137339	2.14504
0.0686695	2.56024
0.192275	2.81403
0.288412	2.98394
0.398283	3.15455
0.501288	3.15986
0.597425	3.32976
0.693562	3.41719
0.796567	3.4225
0.899571	3.67524
1.00258	3.68055
1.10558	3.8508
1.20172	3.93823
1.31159	4.02637
1.39399	3.94814
1.50386	4.03628
