Adsorption isotherm of N-Butane on H-ZSM-5 (Si/Al: 120)
DOI: 10.1016/S1004-9541(07)60095-0
Adsorbate N-Butane: InChIKey IJDNQMDRQITEOD-UHFFFAOYSA-N
Temperature: 300 K
Tabular data in the source: 0
pressure (bar)	uptake (wt%)
0.00908654	2.72212
0.0231357	3.30016
0.0709449	3.715
0.138744	3.71849
0.199764	3.72164
0.267564	3.72513
0.328443	3.56332
0.389603	3.73142
0.457333	3.65244
0.525132	3.65593
0.586222	3.74156
0.654021	3.74505
0.721821	3.74855
0.78962	3.75204
0.84386	3.75484
0.91173	3.84081
0.965969	3.84361
1.03377	3.8471
1.08801	3.8499
1.14903	3.85304
1.21683	3.85654
1.2847	3.94251
1.3525	3.946
1.41352	3.94915
1.47447	3.86982
