Adsorption isotherm of 1-butene on ZSM-5
DOI: 10.1016/S1004-9541(07)60095-0
Adsorbate 1-butene: InChIKey VXNZUUAINFGPBY-UHFFFAOYSA-N
Temperature: 300 K
Tabular data in the source: 0
pressure (bar)	uptake (wt%)
0.000538402	1.03373
0.00870807	0.719492
0.00950397	2.24762
0.0142091	3.28154
0.0188441	4.18062
0.0234322	4.98982
0.0652871	5.35125
0.102882	5.53271
0.132119	5.66886
0.173834	5.76062
0.232239	5.89808
0.273953	5.98984
0.328168	6.08216
0.369859	6.12898
0.41155	6.1758
0.449074	6.22243
0.532456	6.31607
0.570004	6.40764
0.607528	6.45427
0.649219	6.50109
0.69091	6.54791
0.728435	6.59454
0.770126	6.64135
0.807627	6.64304
0.849318	6.68986
0.891032	6.78162
