Adsorption isotherm of 1-butene on H-ZSM-5 (Si/Al: 20)
DOI: 10.1016/S1004-9541(07)60095-0
Adsorbate 1-butene: InChIKey VXNZUUAINFGPBY-UHFFFAOYSA-N
Temperature: 300 K
Tabular data in the source: 0
pressure (bar)	uptake (wt%)
0.04858	5.0001
0.09954	5.22019
0.19994	5.73018
0.2987	6.03831
0.49923	6.37573
0.59305	6.52369
0.69963	6.68923
0.89934	7.02135
