Adsorption isotherm of N-Butane on H-ZSM-5 (Si/Al: 50)
DOI: 10.1016/s1004-9541(07)60095-0
Article source: Table 2
Adsorbate N-Butane: InChIKey IJDNQMDRQITEOD-UHFFFAOYSA-N
Kind: experiment
Temperature: 300 K
Tabular data in the source: 1
pressure (bar)	uptake (mmol/g)
0	0
9e-05	0.01467
0.00083	0.27585
0.00132	0.4134
0.00299	0.60527
0.00499	0.67868
0.00717	0.71797
0.00998	0.74593
0.02499	0.79963
0.04998	0.83156
0.09817	0.86678
0.19843	0.90903
0.2987	0.94212
0.49786	0.98365
0.69867	1.02441
0.89769	1.07377
