Adsorption isotherm of 1-butene on H-ZSM-5 (Si/Al: 120)
DOI: 10.1016/S1004-9541(07)60095-0
Adsorbate 1-butene: InChIKey VXNZUUAINFGPBY-UHFFFAOYSA-N
Temperature: 300 K
Tabular data in the source: 0
pressure (bar)	uptake (mmol/g)
0.0196721	0.857143
0.0262295	0.942857
0.0655738	1.06667
0.111475	1.13333
0.170492	1.14286
0.236066	1.17143
0.27541	1.18095
0.314754	1.2
0.354098	1.2
0.413115	1.20952
0.439344	1.21905
0.531148	1.2381
0.557377	1.2381
0.622951	1.2381
0.662295	1.25714
0.727869	1.26667
0.760656	1.26667
0.82623	1.28571
0.865574	1.29524
0.92459	1.30476
0.963934	1.30476
1.02951	1.30476
1.0623	1.30476
1.14098	1.32381
1.21967	1.33333
1.25246	1.34286
1.34426	1.3619
1.42951	1.3619
1.44918	1.37143
1.52787	1.38095
1.56721	1.38095
