Adsorption isotherm of N-Butane on H-ZSM-5 (Si/Al: 120)
DOI: 10.1016/S1004-9541(07)60095-0
Adsorbate N-Butane: InChIKey IJDNQMDRQITEOD-UHFFFAOYSA-N
Temperature: 300 K
Tabular data in the source: 0
pressure (bar)	uptake (wt%)
0.013617	1.71498
0.0817021	2.45315
0.217872	2.70499
0.340426	2.71125
0.415319	2.71507
0.483404	2.63691
0.544681	2.64003
0.612766	2.64351
0.680851	2.64698
0.748936	2.65046
0.817021	2.65393
0.878298	2.65706
0.939574	2.66018
1.00085	2.66331
1.06894	2.66678
1.13702	2.67026
1.20511	2.5921
1.26638	2.67686
1.32766	2.67998
1.38894	2.68311
1.45702	2.68658
1.5183	2.68971
