Adsorption isotherm of 1-butene on H-ZSM-5 (Si/Al: 50)
DOI: 10.1016/S1004-9541(07)60095-0
Adsorbate 1-butene: InChIKey VXNZUUAINFGPBY-UHFFFAOYSA-N
Temperature: 300 K
Tabular data in the source: 0
pressure (bar)	uptake (wt%)
0.0051538	1.97776
0.0138828	2.87703
0.014556	4.18043
0.0398607	5.17033
0.0895647	5.39728
0.139222	5.53435
0.172304	5.58078
0.230203	5.67327
0.271573	5.76501
0.333604	5.85769
0.374951	5.90449
0.412165	5.95111
0.449379	5.99772
0.52794	6.09114
0.569309	6.18289
0.6065	6.18456
0.639582	6.23099
0.680929	6.27779
0.73054	6.32497
0.771886	6.37177
0.8091	6.41839
0.846291	6.42006
