Adsorption isotherm of 1-butene on Silicalite MFI
DOI: 10.1016/s1004-9541(07)60095-0
Article source: Table 3
Adsorbate 1-butene: InChIKey VXNZUUAINFGPBY-UHFFFAOYSA-N
Kind: experiment
Temperature: 300 K
Tabular data in the source: 1
pressure (bar)	uptake (mmol/g)
0	0
0.00127	0.257
0.0025	0.382
0.00425	0.51301
0.0127	0.71312
0.04938	0.8442
0.09865	0.88902
0.1987	0.94103
0.29835	0.96901
0.39799	0.98
0.4979	0.998
0.59768	1.01991
0.69759	1.03982
0.79737	1.0501
0.89702	1.0702
0.99638	1.08991
1.09589	1.1204
1.19553	1.13
1.29832	1.15011
1.39851	1.16022
1.49993	1.18003
1.59916	1.19001
