Adsorption isotherm of 1-butene on H-ZSM-5 (Si/Al: 50)
DOI: 10.1016/S1004-9541(07)60095-0
Adsorbate 1-butene: InChIKey VXNZUUAINFGPBY-UHFFFAOYSA-N
Temperature: 300 K
Tabular data in the source: 0
pressure (bar)	uptake (wt%)
0.00037	0.09781
0.01315	4.74193
0.024	5.00307
0.04872	5.12017
0.07482	5.22828
0.0994	5.31277
0.19953	5.61377
0.29829	5.85561
0.49978	6.10257
0.69935	6.25835
0.89948	6.46239
