Adsorption isotherm of 1-butene on ZSM-5
DOI: 10.1016/S1004-9541(07)60095-0
Adsorbate 1-butene: InChIKey VXNZUUAINFGPBY-UHFFFAOYSA-N
Kind: experiment
Temperature: 300 K
Tabular data in the source: 0
pressure (bar)	uptake (wt%)
0.0001	0.52807
0.01379	4.61801
0.01974	4.70522
0.03911	4.77126
0.05985	4.84056
0.09968	4.98105
0.20008	5.17224
0.29911	5.31969
0.49896	5.55224
0.70004	5.74481
0.89907	5.91453
