Adsorption isotherm of N-Butane, 1-butene on Zeolite 5A
DOI: 10.1016/s1004-9541(07)60095-0
Article source: Table 5
Adsorbate N-Butane: InChIKey IJDNQMDRQITEOD-UHFFFAOYSA-N
Adsorbate 1-butene: InChIKey VXNZUUAINFGPBY-UHFFFAOYSA-N
Kind: experiment
Temperature: 300 K
Tabular data in the source: 1
pressure (bar)	N-Butane fraction	N-Butane uptake (wt%)	1-butene fraction	1-butene uptake (wt%)	total uptake (wt%)
0.00073			0.5	0.56455	0
0.01301			0.5	4.85782	0
0.024			0.5	5.22171	0
0.04831			0.5	5.38003	0
0.07509			0.5	5.49979	0
0.09954			0.5	5.59305	0
0.20008			0.5	5.82926	0
0.29884			0.5	5.99851	0
0.49992			0.5	6.24723	0
0.69881			0.5	6.43639	0
0.89783			0.5	6.59668	0
