Adsorption isotherm of 1-butene on H-ZSM-5 (Si/Al: 120)
DOI: 10.1016/S1004-9541(07)60095-0
Adsorbate 1-butene: InChIKey VXNZUUAINFGPBY-UHFFFAOYSA-N
Temperature: 300 K
Tabular data in the source: 0
pressure (bar)	uptake (wt%)
0.0663929	0.828165
0.208474	1.00044
0.30988	1.17061
0.397729	1.34009
0.506194	1.34568
0.614519	1.43374
0.702367	1.60321
0.810972	1.52634
0.8991	1.53088
0.987088	1.61789
1.09555	1.62348
1.19696	1.79366
1.27831	1.79785
1.38663	1.88591
1.49538	1.72657
