Adsorption isotherm of N-Butane on H-ZSM-5 (Si/Al: 20)
DOI: 10.1016/s1004-9541(07)60095-0
Article source: Table 2
Adsorbate N-Butane: InChIKey IJDNQMDRQITEOD-UHFFFAOYSA-N
Kind: experiment
Temperature: 300 K
Tabular data in the source: 1
pressure (bar)	uptake (mmol/g)
0	0
9e-05	0.0205
0.00066	0.26122
0.00099	0.34583
0.00299	0.60357
0.00502	0.67236
0.00705	0.7184
0.01062	0.73479
0.02499	0.80786
0.04998	0.83871
0.09885	0.86055
0.19884	0.91314
0.29884	0.93709
0.39773	0.9578
0.49813	0.99883
0.59826	1.01889
0.69812	1.03713
0.79756	1.05255
0.89742	1.07325
0.99933	1.09175
