Adsorption isotherm of 1-butene on ZSM-5
DOI: 10.1016/S1004-9541(07)60095-0
Adsorbate 1-butene: InChIKey VXNZUUAINFGPBY-UHFFFAOYSA-N
Temperature: 300 K
Tabular data in the source: 0
pressure (bar)	uptake (mmol/g)
0.0261438	0.7875
0.0588235	0.853125
0.137255	0.88125
0.169935	0.928125
0.20915	0.91875
0.267974	0.9375
0.313725	0.946875
0.366013	0.95625
0.424837	0.975
0.464052	0.984375
0.529412	1.00313
0.562092	1.00313
0.620915	1.0125
0.660131	1.0125
0.738562	1.04062
0.751634	1.04062
0.816993	1.05
0.856209	1.05937
0.934641	1.07812
0.96732	1.07812
1.05229	1.09688
1.13725	1.11563
1.24837	1.13437
1.33333	1.13437
1.35294	1.14375
1.41176	1.14375
1.45098	1.15312
1.54248	1.1625
1.56863	1.18125
