Adsorption isotherm of 1-butene on H-ZSM-5 (Si/Al: 20)
DOI: 10.1016/S1004-9541(07)60095-0
Adsorbate 1-butene: InChIKey VXNZUUAINFGPBY-UHFFFAOYSA-N
Temperature: 300 K
Tabular data in the source: 0
pressure (bar)	uptake (wt%)
0.00478236	1.25864
0.00917005	1.75322
0.0108183	4.94431
0.0146024	4.27032
0.0180847	3.01205
0.0439466	5.08063
0.0813001	5.39691
0.135044	5.44427
0.172258	5.49089
0.230203	5.67327
0.27155	5.72007
0.325316	5.81237
0.36253	5.85899
0.403877	5.90579
0.441114	5.99735
0.478328	6.04397
0.527963	6.13609
0.569309	6.18289
0.606524	6.22951
0.643738	6.27612
0.680952	6.32274
0.726431	6.36973
0.767777	6.41653
0.804991	6.46315
0.846338	6.50995
0.883552	6.55656
