Adsorption isotherm of 1-butene on H-ZSM-5 (Si/Al: 20)
DOI: 10.1016/S1004-9541(07)60095-0
Adsorbate 1-butene: InChIKey VXNZUUAINFGPBY-UHFFFAOYSA-N
Temperature: 300 K
Tabular data in the source: 0
pressure (bar)	uptake (wt%)
0.00571174	2.96655
0.0104871	4.1353
0.0149582	4.71977
0.0360027	5.12521
0.0653105	5.39619
0.102882	5.53271
0.144596	5.62448
0.182144	5.71605
0.215525	5.80744
0.257239	5.8992
0.311454	5.99153
0.353145	6.03834
0.390693	6.12992
0.432384	6.17674
0.474075	6.22355
0.524123	6.31569
0.565814	6.36251
0.620029	6.45483
0.657553	6.50146
0.732601	6.59472
0.770102	6.59641
0.807627	6.64304
0.849318	6.68986
0.891009	6.73667
0.928556	6.82825
0.970224	6.83012
