Adsorption isotherm of N-Butane on H-ZSM-5 (Si/Al: 120)
DOI: 10.1016/S1004-9541(07)60095-0
Adsorbate N-Butane: InChIKey IJDNQMDRQITEOD-UHFFFAOYSA-N
Temperature: 300 K
Tabular data in the source: 0
pressure (bar)	uptake (mmol/g)
0.00655738	0.580952
0.0196721	0.752381
0.0459016	0.838095
0.0983607	0.87619
0.157377	0.895238
0.216393	0.904762
0.27541	0.933333
0.340984	0.942857
0.4	0.952381
0.459016	0.961905
0.52459	0.971429
0.583607	0.990476
0.64918	1
0.708197	1.00952
0.77377	1.02857
0.839344	1.02857
0.898361	1.0381
0.957377	1.05714
1.02295	1.05714
