Adsorption isotherm of N-Butane on ZSM-5
DOI: 10.1016/S1004-9541(07)60095-0
Adsorbate N-Butane: InChIKey IJDNQMDRQITEOD-UHFFFAOYSA-N
Temperature: 300 K
Tabular data in the source: 0
pressure (bar)	uptake (wt%)
0.0137339	2.04082
0.0961373	2.36735
0.199142	2.36735
0.281545	2.28571
0.391416	2.36735
0.494421	2.36735
0.597425	2.28571
0.707296	2.28571
0.8103	2.28571
0.892704	2.36735
1.00944	2.36735
1.09871	2.36735
1.20172	2.28571
1.29785	2.20408
1.40773	2.20408
1.497	2.28571
