Adsorption isotherm of 1-butene on H-ZSM-5 (Si/Al: 120)
DOI: 10.1016/S1004-9541(07)60095-0
Adsorbate 1-butene: InChIKey VXNZUUAINFGPBY-UHFFFAOYSA-N
Temperature: 300 K
Tabular data in the source: 0
pressure (bar)	uptake (wt%)
0.0135593	0.742967
0.0610169	0.910362
0.0949153	1.24201
0.19661	1.32972
0.311864	1.58309
0.39322	1.66975
0.494915	1.75747
0.59661	1.84519
0.698305	1.85043
0.79322	1.85532
0.888136	1.94269
1.01017	2.03145
1.09831	2.11847
1.2	2.20619
1.30847	2.1293
1.41017	2.21702
1.48475	2.30334
