Adsorption isotherm of 1-butene on ZSM-5
DOI: 10.1016/S1004-9541(07)60095-0
Adsorbate 1-butene: InChIKey VXNZUUAINFGPBY-UHFFFAOYSA-N
Temperature: 300 K
Tabular data in the source: 0
pressure (bar)	uptake (wt%)
0.0353884	1.05051
0.0630442	1.13131
0.0975967	1.21212
0.194218	1.29293
0.290839	1.37374
0.401184	1.37374
0.497806	1.45455
0.601324	1.53535
0.704772	1.53535
0.808359	1.69697
0.898015	1.69697
1.01526	1.69697
1.09801	1.69697
1.21533	1.77778
1.29822	1.93939
1.40167	1.93939
1.51202	1.93939
