Adsorption isotherm of 1-butene on H-ZSM-5 (Si/Al: 120)
DOI: 10.1016/S1004-9541(07)60095-0
Adsorbate 1-butene: InChIKey VXNZUUAINFGPBY-UHFFFAOYSA-N
Temperature: 300 K
Tabular data in the source: 0
pressure (bar)	uptake (wt%)
0.0125	0.0125
0.0208333	4.02328
0.025	4.91732
0.05	5.23128
0.0916667	5.45661
0.1375	5.63743
0.175	5.6838
0.225	5.82011
0.266667	5.82197
0.329167	5.95885
0.370833	6.0054
0.408333	6.09646
0.445833	6.14283
0.483333	6.1892
0.529167	6.23594
0.566667	6.327
0.604167	6.37337
0.641667	6.41974
0.683333	6.46629
0.729167	6.55773
0.766667	6.5594
0.808333	6.60596
0.85	6.65251
0.8875	6.65419
