Adsorption isotherm of 1-butene on Zeolite 5A
DOI: 10.1016/s1004-9541(07)60095-0
Article source: Table 3
Adsorbate 1-butene: InChIKey VXNZUUAINFGPBY-UHFFFAOYSA-N
Kind: experiment
Temperature: 300 K
Tabular data in the source: 1
pressure (bar)	uptake (mmol/g)
0.00216	0
0.01092	0
0.04952	0
0.09892	0
0.19898	0
0.2993	0
0.39867	0
0.49845	0
0.59809	0
0.69814	0
0.79778	0
0.8966	0
0.9972	0
1.09685	0
1.19621	0
1.29558	0
1.39508	0
1.50007	0
1.59957	0
