Adsorption isotherm of N-Butane on ZSM-5
DOI: 10.1016/S1004-9541(07)60095-0
Adsorbate N-Butane: InChIKey IJDNQMDRQITEOD-UHFFFAOYSA-N
Temperature: 300 K
Tabular data in the source: 0
pressure (bar)	uptake (wt%)
0.00968304	3.23232
0.0582375	3.55556
0.127203	3.55556
0.196308	3.71717
0.258377	3.71717
0.327412	3.79798
0.389411	3.71717
0.458447	3.79798
0.527482	3.87879
0.589551	3.87879
0.658516	3.87879
0.720585	3.87879
0.782724	3.9596
0.851689	3.9596
0.913689	3.87879
0.982724	3.9596
1.04479	3.9596
1.11383	4.0404
1.169	4.0404
1.23797	4.0404
1.30693	4.0404
1.369	4.0404
1.43797	4.0404
1.5001	4.12121
