Adsorption isotherm of 1-butene on ZSM-5
DOI: 10.1016/S1004-9541(07)60095-0
Adsorbate 1-butene: InChIKey VXNZUUAINFGPBY-UHFFFAOYSA-N
Temperature: 300 K
Tabular data in the source: 0
pressure (bar)	uptake (wt%)
0.00284	1.34681
0.01301	4.33335
0.02372	4.43965
0.04872	4.61618
0.07509	4.73425
0.0994	4.81937
0.19981	5.04772
0.2987	5.20862
0.4991	5.45271
0.69922	5.64583
0.89975	5.81956
