Adsorption isotherm of N-Butane on ZSM-5
DOI: 10.1016/S1004-9541(07)60095-0
Adsorbate N-Butane: InChIKey IJDNQMDRQITEOD-UHFFFAOYSA-N
Temperature: 300 K
Tabular data in the source: 0
pressure (bar)	uptake (wt%)
0.0173806	3.83851
0.0789515	4.41622
0.161703	4.42466
0.313203	4.68502
0.375266	4.69135
0.40285	4.69417
0.471669	4.86446
0.506148	4.86797
0.561316	4.8736
0.623379	4.87994
0.692198	5.05022
0.747366	5.05585
0.816255	5.14452
0.878318	5.15085
0.933486	5.15648
1.00245	5.16351
1.06444	5.25147
1.1265	5.25781
1.1885	5.34576
1.24366	5.35139
1.30573	5.35773
1.37469	5.36476
1.44364	5.3718
1.50571	5.37813
