Adsorption isotherm of N-Butane on ZSM-5
DOI: 10.1016/S1004-9541(07)60095-0
Adsorbate N-Butane: InChIKey IJDNQMDRQITEOD-UHFFFAOYSA-N
Temperature: 300 K
Tabular data in the source: 0
pressure (bar)	uptake (mmol/g)
0.0130719	0.0130719
0.0588235	0.769301
0.156863	0.835846
0.248366	0.864828
0.333333	0.884375
0.366013	0.903431
0.45098	0.922978
0.529412	0.942463
0.633987	0.952819
0.745098	0.95386
0.830065	0.973407
0.96732	0.984069
