Adsorption isotherm of 1-butene on H-ZSM-5 (Si/Al: 120)
DOI: 10.1016/S1004-9541(07)60095-0
Adsorbate 1-butene: InChIKey VXNZUUAINFGPBY-UHFFFAOYSA-N
Temperature: 300 K
Tabular data in the source: 0
pressure (bar)	uptake (wt%)
0.000702264	1.34835
0.010019	3.23641
0.015005	4.80966
0.0486201	5.3505
0.0820712	5.57672
0.123809	5.71343
0.15719	5.80482
0.219762	5.94246
0.261476	6.03422
0.328191	6.12711
0.369906	6.21887
0.40743	6.2655
0.449121	6.31232
0.52836	6.45071
0.565884	6.49734
0.624266	6.58985
0.66179	6.63648
0.728505	6.72937
0.770196	6.77619
0.811887	6.82301
0.849411	6.86964
0.886936	6.91627
0.928673	7.05297
0.966151	7.00971
1.00365	7.0114
