Adsorption isotherm of 1-butene on ZSM-5
DOI: 10.1016/S1004-9541(07)60095-0
Adsorbate 1-butene: InChIKey VXNZUUAINFGPBY-UHFFFAOYSA-N
Temperature: 300 K
Tabular data in the source: 0
pressure (bar)	uptake (wt%)
0.00900484	1.28929
0.0138892	2.66728
0.0231024	4.35658
0.0648858	4.58066
0.123313	4.76104
0.16086	4.85159
0.223431	4.98771
0.265122	5.03401
0.319336	5.1253
0.35686	5.17142
0.394384	5.21753
0.431931	5.30809
0.469432	5.30975
0.523646	5.40105
0.55698	5.40253
0.594528	5.49309
0.632029	5.49476
0.669576	5.58531
0.72791	5.58791
0.765434	5.63402
0.802958	5.68013
0.840482	5.72624
0.882173	5.77254
