Adsorption isotherm of 1-butene on H-ZSM-5 (Si/Al: 50)
DOI: 10.1016/s1004-9541(07)60095-0
Article source: Table 3
Adsorbate 1-butene: InChIKey VXNZUUAINFGPBY-UHFFFAOYSA-N
Kind: experiment
Temperature: 300 K
Tabular data in the source: 1
pressure (bar)	uptake (mmol/g)
0	0
0.01092	0.93032
0.04952	0.98534
0.09892	1.02448
0.19898	1.07192
0.2993	1.10956
0.39867	1.14167
0.49845	1.16979
0.59809	1.19509
0.69814	1.2182
0.79778	1.23974
0.8966	1.26048
0.9972	1.28048
1.09685	1.30023
1.19621	1.31951
1.29558	1.33886
1.39508	1.35838
1.50007	1.37934
1.59957	1.40054
