Adsorption isotherm of 1-butene on H-ZSM-5 (Si/Al: 120)
DOI: 10.1016/s1004-9541(07)60095-0
Article source: Table 3
Adsorbate 1-butene: InChIKey VXNZUUAINFGPBY-UHFFFAOYSA-N
Kind: experiment
Temperature: 300 K
Tabular data in the source: 1
pressure (bar)	uptake (mmol/g)
0	0
0.005	0.5325
0.01078	0.90426
0.04965	1.04592
0.09934	1.09781
0.19884	1.1477
0.29848	1.18183
0.39826	1.20845
0.49831	1.22986
0.59809	1.24829
0.69855	1.2646
0.79819	1.27954
0.89784	1.29332
0.99789	1.30758
1.09808	1.32059
1.19772	1.33371
1.29777	1.34703
1.39755	1.36046
1.49897	1.37427
1.59875	1.38814
