Adsorption isotherm of N-Butane on H-ZSM-5 (Si/Al: 120)
DOI: 10.1016/S1004-9541(07)60095-0
Adsorbate N-Butane: InChIKey IJDNQMDRQITEOD-UHFFFAOYSA-N
Temperature: 300 K
Tabular data in the source: 0
pressure (bar)	uptake (wt%)
0.00680851	3.0519
0.013617	3.62957
0.0340426	4.12547
0.0885106	4.21075
0.156596	4.29673
0.224681	4.30024
0.279149	4.30305
0.340426	4.38868
0.408511	4.30972
0.469787	4.31288
0.524255	4.48063
0.585532	4.48379
0.646809	4.48695
0.708085	4.40763
0.762553	4.49292
0.82383	4.57855
0.891915	4.66453
0.96	4.66804
1.02809	4.67155
1.09617	4.67506
1.15745	4.76069
1.21191	4.7635
1.27319	4.68419
1.33447	4.85229
1.40255	4.77333
1.47064	4.85931
