Adsorption isotherm of N-Butane, 1-butene on Zeolite 5A
DOI: 10.1016/s1004-9541(07)60095-0
Article source: Table 5
Adsorbate N-Butane: InChIKey IJDNQMDRQITEOD-UHFFFAOYSA-N
Adsorbate 1-butene: InChIKey VXNZUUAINFGPBY-UHFFFAOYSA-N
Kind: experiment
Temperature: 300 K
Tabular data in the source: 1
pressure (bar)	N-Butane fraction	N-Butane uptake (wt%)	1-butene fraction	1-butene uptake (wt%)	total uptake (wt%)
0.00518			0.5	1.80904	0
0.01315			0.5	4.97332	0
0.024			0.5	5.20996	0
0.04831			0.5	5.31581	0
0.07495			0.5	5.42953	0
0.09927			0.5	5.60035	0
0.19981			0.5	5.80698	0
0.2987			0.5	5.96792	0
0.49841			0.5	6.21858	0
0.69977			0.5	6.41854	0
0.89851			0.5	6.62051	0
