Adsorption isotherm of 1-butene on ZSM-5
DOI: 10.1016/S1004-9541(07)60095-0
Adsorbate 1-butene: InChIKey VXNZUUAINFGPBY-UHFFFAOYSA-N
Temperature: 300 K
Tabular data in the source: 0
pressure (bar)	uptake (wt%)
0.0755036	0.415868
0.192735	0.42783
0.296244	0.35676
0.392717	0.448236
0.482294	0.53901
0.599455	0.632597
0.696068	0.560823
0.792682	0.489049
0.889084	0.662151
0.99949	0.591785
1.10286	0.683965
1.1994	0.693817
1.29595	0.703668
1.39938	0.714223
1.51662	0.726185
