Adsorption isotherm of 1-butene on H-ZSM-5 (Si/Al: 120)
DOI: 10.1016/S1004-9541(07)60095-0
Adsorbate 1-butene: InChIKey VXNZUUAINFGPBY-UHFFFAOYSA-N
Temperature: 300 K
Tabular data in the source: 0
pressure (bar)	uptake (wt%)
0.0280285	1.07361
0.0963173	1.65445
0.191516	1.98925
0.306776	1.99519
0.401905	2.24752
0.496964	2.41737
0.612363	2.58827
0.700572	2.67529
0.809052	2.68088
0.897191	2.68542
0.99896	2.77314
1.10751	2.86121
1.18894	2.94788
1.29728	2.78852
1.39912	2.95872
1.50089	3.04644
