Adsorption isotherm of N-Butane, 1-butene on Zeolite 5A
DOI: 10.1016/s1004-9541(07)60095-0
Article source: Table 5
Adsorbate N-Butane: InChIKey IJDNQMDRQITEOD-UHFFFAOYSA-N
Adsorbate 1-butene: InChIKey VXNZUUAINFGPBY-UHFFFAOYSA-N
Kind: experiment
Temperature: 300 K
Tabular data in the source: 1
pressure (bar)	N-Butane fraction	N-Butane uptake (wt%)	1-butene fraction	1-butene uptake (wt%)	total uptake (wt%)
0.00037			0.33	0.09781	0.09781
0.01315			0.33	4.74193	4.74193
0.04872			0.33	5.12017	5.12017
0.07482			0.33	5.22828	5.22828
0.0994			0.33	3.3127	3.3127
0.19953			0.33	5.61377	5.61377
0.24			0.33	5.00307	5.00307
0.29829			0.33	5.85561	5.85561
0.49978			0.33	6.10257	6.10257
0.69935			0.33	6.25835	6.25835
0.89948			0.33	6.46239	6.46239
