Adsorption isotherm of N-Butane on H-ZSM-5 (Si/Al: 120)
DOI: 10.1016/s1004-9541(07)60095-0
Article source: Table 2
Adsorbate N-Butane: InChIKey IJDNQMDRQITEOD-UHFFFAOYSA-N
Kind: experiment
Temperature: 300 K
Tabular data in the source: 1
pressure (bar)	uptake (mmol/g)
0	0
0.00456	0.66588
0.01033	0.76938
0.04996	0.85236
0.09906	0.88016
0.19843	0.91326
0.29862	0.93755
0.39785	0.95798
0.49735	0.9767
0.59727	0.99458
0.69677	1.01197
0.79614	1.02879
0.89578	1.04506
0.99584	1.06045
