Adsorption isotherm of 1-butene on H-ZSM-5 (Si/Al: 120)
DOI: 10.1016/S1004-9541(07)60095-0
Adsorbate 1-butene: InChIKey VXNZUUAINFGPBY-UHFFFAOYSA-N
Temperature: 300 K
Tabular data in the source: 0
pressure (bar)	uptake (wt%)
0.00680851	3.10239
0.0204255	2.36839
0.0340426	3.51194
0.0408511	4.32861
0.0885106	4.65758
0.108936	4.65862
0.204255	4.99001
0.306383	5.24012
0.408511	5.4086
0.50383	5.57673
0.599149	5.74485
0.708085	5.83205
0.796596	5.99983
0.91234	6.00573
1.00085	6.09188
1.10298	6.17872
1.1983	6.26522
1.31404	6.27112
1.40936	6.27599
1.51149	6.44446
