Adsorption isotherm of N-Butane on ZSM-5
DOI: 10.1016/S1004-9541(07)60095-0
Adsorbate N-Butane: InChIKey IJDNQMDRQITEOD-UHFFFAOYSA-N
Temperature: 300 K
Tabular data in the source: 0
pressure (bar)	uptake (wt%)
0.00686695	3.83405
0.0618026	4.08977
0.103004	4.1774
0.164807	4.3505
0.226609	4.35694
0.281545	4.52933
0.343348	4.53577
0.40515	4.62554
0.466953	4.71531
0.535622	4.72246
0.597425	4.7289
0.659227	4.81867
0.727897	4.90916
0.796567	4.91631
0.858369	5.00608
0.920172	4.92918
0.981974	5.01896
1.05064	5.02611
1.11245	5.03255
1.17425	5.03898
1.24292	5.12947
1.30472	5.21924
1.37339	5.22639
1.42833	5.23212
1.497	5.23927
