Adsorption isotherm of 1-butene on ZSM-5
DOI: 10.1016/S1004-9541(07)60095-0
Adsorbate 1-butene: InChIKey VXNZUUAINFGPBY-UHFFFAOYSA-N
Temperature: 300 K
Tabular data in the source: 0
pressure (bar)	uptake (wt%)
0.0480687	0.421674
0.103004	0.427396
0.164807	0.350501
0.206009	0.521459
0.260944	0.360515
0.322747	0.366953
0.384549	0.456724
0.47382	0.466023
0.535622	0.472461
0.597425	0.562232
0.679828	0.487482
0.734764	0.493205
0.892704	0.676323
0.954506	0.682761
1.07811	0.612303
1.13305	0.618026
1.20858	0.792561
1.26352	0.71495
1.32532	0.721388
1.40773	0.813305
1.46953	0.736409
1.53133	0.742847
