Adsorption isotherm of N-Butane on H-ZSM-5 (Si/Al: 50)
DOI: 10.1016/S1004-9541(07)60095-0
Adsorbate N-Butane: InChIKey IJDNQMDRQITEOD-UHFFFAOYSA-N
Temperature: 300 K
Tabular data in the source: 0
pressure (bar)	uptake (mmol/g)
0	0.595276
0.0198347	0.74634
0.046281	0.812325
0.0727273	0.849964
0.132231	0.877959
0.165289	0.896662
0.224793	0.915208
0.25124	0.933949
0.330579	0.94293
0.396694	0.951988
0.456198	0.970534
0.522314	0.989041
0.575207	1.01708
0.641322	1.01669
0.700826	1.01633
0.740496	1.035
0.8	1.04409
0.859504	1.06264
0.919008	1.06229
