Adsorption isotherm of N-Butane on H-ZSM-5 (Si/Al: 120)
DOI: 10.1016/S1004-9541(07)60095-0
Adsorbate N-Butane: InChIKey IJDNQMDRQITEOD-UHFFFAOYSA-N
Temperature: 300 K
Tabular data in the source: 0
pressure (bar)	uptake (wt%)
0.00680851	0.979939
0.0408511	1.30821
0.108936	1.31168
0.177021	1.31515
0.238298	1.23665
0.306383	1.32175
0.36766	1.32488
0.435745	1.24672
0.490213	1.2495
0.544681	1.17065
0.605957	1.25541
0.667234	1.1769
0.735319	1.18037
0.803404	1.18385
0.871489	1.18732
0.939574	1.19079
1.00085	1.19392
1.06894	1.19739
1.13702	1.20087
1.20511	1.20434
1.25957	1.12549
1.32085	1.29188
1.37532	1.21303
1.4366	1.29779
1.48426	1.21858
