Adsorption isotherm of 1-butene on Zeolite 5A
DOI: 10.1016/s1004-9541(07)60095-0
Article source: Table 3
Adsorbate 1-butene: InChIKey VXNZUUAINFGPBY-UHFFFAOYSA-N
Kind: experiment
Temperature: 300 K
Tabular data in the source: 1
pressure (bar)	uptake (mmol/g)
0.00127	0
0.0025	0
0.00425	0
0.0127	0
0.04938	0
0.09865	0
0.1987	0
0.29835	0
0.39799	0
0.4979	0
0.59768	0
0.69759	0
0.79737	0
0.89702	0
0.99638	0
1.09589	0
1.19553	0
1.29832	0
1.39851	0
1.49993	0
1.5991	0
