Adsorption isotherm of N-Butane on Zeolite 5A
DOI: 10.1016/s1004-9541(07)60095-0
Article source: Table 2
Adsorbate N-Butane: InChIKey IJDNQMDRQITEOD-UHFFFAOYSA-N
Kind: experiment
Temperature: 300 K
Tabular data in the source: 1
pressure (bar)	uptake (mmol/g)
9e-05	0
0.00066	0
0.00099	0
0.00299	0
0.00502	0
0.00705	0
0.01062	0
0.02499	0
0.04998	0
0.09885	0
0.19884	0
0.29884	0
0.39773	0
0.49813	0
0.59826	0
0.69812	0
0.79756	0
0.89742	0
0.99933	0
