Adsorption isotherm of N-Butane on H-ZSM-5 (Si/Al: 120)
DOI: 10.1016/S1004-9541(07)60095-0
Adsorbate N-Butane: InChIKey IJDNQMDRQITEOD-UHFFFAOYSA-N
Temperature: 300 K
Tabular data in the source: 0
pressure (bar)	uptake (wt%)
0.020339	3.38249
0.040678	3.96086
0.108475	4.04683
0.169492	4.04997
0.230508	4.13559
0.298305	4.13909
0.359322	4.05976
0.413559	4.2275
0.474576	4.14817
0.542373	4.15167
0.610169	4.23764
0.671186	4.24078
0.732203	4.16145
0.8	4.16495
0.867797	4.25092
0.935593	4.25441
0.99661	4.25756
1.05763	4.42565
1.11864	4.26385
1.18644	4.34982
1.25424	4.43579
1.31525	4.43893
1.37627	4.52455
1.43729	4.44522
1.50508	4.44872
