Adsorption isotherm of 1-butene on H-ZSM-5 (Si/Al: 50)
DOI: 10.1016/S1004-9541(07)60095-0
Adsorbate 1-butene: InChIKey VXNZUUAINFGPBY-UHFFFAOYSA-N
Temperature: 300 K
Tabular data in the source: 0
pressure (bar)	uptake (wt%)
0.00823045	0.533333
0.0123457	1.82222
0.0164609	2.57778
0.0205761	3.77778
0.0493827	4.66667
0.131687	4.75556
0.17284	4.84444
0.230453	4.93333
0.271605	5.02222
0.320988	5.11111
0.358025	5.15556
0.399177	5.2
0.436214	5.24444
0.473251	5.28889
0.522634	5.33333
0.559671	5.37778
0.596708	5.42222
0.63786	5.46667
0.674897	5.51111
0.72428	5.55556
0.761317	5.6
0.798354	5.6
0.835391	5.64444
0.872428	5.64444
