Adsorption isotherm of N-Butane on Zeolite 5A
DOI: 10.1016/s1004-9541(07)60095-0
Article source: Table 2
Adsorbate N-Butane: InChIKey IJDNQMDRQITEOD-UHFFFAOYSA-N
Kind: experiment
Temperature: 300 K
Tabular data in the source: 1
pressure (bar)	uptake (mmol/g)
9e-05	0
0.00083	0
0.00132	0
0.00299	0
0.00499	0
0.00717	0
0.00998	0
0.02499	0
0.04998	0
0.09817	0
0.19843	0
0.2987	0
0.49786	0
0.69867	0
0.89769	0
