Adsorption isotherm of N-Butane on Zeolite 5A
DOI: 10.1016/s1004-9541(07)60095-0
Article source: Table 2
Adsorbate N-Butane: InChIKey IJDNQMDRQITEOD-UHFFFAOYSA-N
Kind: experiment
Temperature: 300 K
Tabular data in the source: 1
pressure (bar)	uptake (mmol/g)
0.00123	0
0.0025	0
0.00473	0
0.00999	0
0.02499	0
0.04998	0
0.09934	0
0.19857	0
0.29848	0
0.39867	0
0.49804	0
0.59768	0
0.69787	0
0.79724	0
0.89688	0
0.99638	0
