Adsorption isotherm of 1-butene on H-ZSM-5 (Si/Al: 120)
DOI: 10.1016/S1004-9541(07)60095-0
Adsorbate 1-butene: InChIKey VXNZUUAINFGPBY-UHFFFAOYSA-N
Temperature: 300 K
Tabular data in the source: 0
pressure (bar)	uptake (wt%)
0.00147	1.08181
0.01301	4.59234
0.024	4.98204
0.04872	5.17104
0.07509	5.30297
0.09968	5.3998
0.19994	5.65219
0.29897	5.83013
0.49841	6.08808
0.69894	6.27713
0.89865	6.43561
