Adsorption isotherm of N-Butane on H-ZSM-5 (Si/Al: 20)
DOI: 10.1016/S1004-9541(07)60095-0
Adsorbate N-Butane: InChIKey IJDNQMDRQITEOD-UHFFFAOYSA-N
Temperature: 300 K
Tabular data in the source: 0
pressure (bar)	uptake (mmol/g)
0.00658436	0.585788
0.0131687	0.755828
0.0329218	0.821853
0.0855967	0.849888
0.144856	0.877885
0.184362	0.905998
0.243621	0.915097
0.309465	0.924157
0.368724	0.952153
0.434568	0.961213
0.480658	0.998736
0.546502	0.988899
0.579424	1.01705
0.645267	1.00721
0.704527	1.01631
0.744033	1.03498
0.763786	1.03486
0.823045	1.04396
0.882305	1.05306
0.934979	1.07164
1.00082	1.09015
