Adsorption isotherm of 1-butene on H-ZSM-5 (Si/Al: 20)
DOI: 10.1016/s1004-9541(07)60095-0
Article source: Table 3
Adsorbate 1-butene: InChIKey VXNZUUAINFGPBY-UHFFFAOYSA-N
Kind: experiment
Temperature: 300 K
Tabular data in the source: 1
pressure (bar)	uptake (mmol/g)
0	0
0.01081	0.94721
0.04886	1.01012
0.09899	1.0496
0.1483	1.08086
0.19912	1.11076
0.29966	1.13858
0.3991	1.18202
0.49841	1.21689
0.59923	1.23534
0.69949	1.26717
0.79811	1.2827
0.89742	1.31238
0.99851	1.32767
1.09768	1.35643
1.19698	1.38087
1.29807	1.39604
1.39848	1.41317
1.5008	1.42958
1.59942	1.44811
