Adsorption isotherm of 1-butene on H-ZSM-5 (Si/Al: 20)
DOI: 10.1016/S1004-9541(07)60095-0
Adsorbate 1-butene: InChIKey VXNZUUAINFGPBY-UHFFFAOYSA-N
Temperature: 300 K
Tabular data in the source: 0
pressure (bar)	uptake (mmol/g)
0.0395062	0.972995
0.138272	1.0669
0.237037	1.10411
0.269959	1.12282
0.329218	1.14136
0.375309	1.15054
0.434568	1.17854
0.474074	1.20665
0.539918	1.20626
0.566255	1.21555
0.638683	1.24347
0.658436	1.24336
0.730864	1.27127
0.763786	1.26163
0.842798	1.28951
0.862551	1.28939
0.921811	1.30794
0.961317	1.30771
1.02716	1.33567
1.06667	1.33543
1.13251	1.34449
1.18519	1.36308
1.23786	1.37222
1.27737	1.37198
1.34321	1.38104
1.36955	1.38089
1.45514	1.40873
1.4749	1.40861
1.56708	1.42697
