Adsorption isotherm of 1-butene on H-ZSM-5 (Si/Al: 50)
DOI: 10.1016/S1004-9541(07)60095-0
Adsorbate 1-butene: InChIKey VXNZUUAINFGPBY-UHFFFAOYSA-N
Temperature: 300 K
Tabular data in the source: 0
pressure (bar)	uptake (mmol/g)
0.0198347	0.954214
0.0595041	1.02012
0.119008	1.04812
0.165289	1.06674
0.224793	1.08529
0.264463	1.10395
0.330579	1.12246
0.357025	1.13175
0.416529	1.1503
0.449587	1.15955
0.528926	1.16853
0.568595	1.18719
0.628099	1.19629
0.654545	1.20558
0.727273	1.2146
0.766942	1.23327
0.826446	1.24236
0.866116	1.24213
0.932231	1.27009
0.971901	1.2793
1.0314	1.27895
1.06446	1.2882
1.11736	1.30679
1.16364	1.31596
1.22314	1.33451
1.2562	1.34376
1.32231	1.34337
1.35537	1.35263
1.42149	1.37113
1.46116	1.38035
1.5405	1.37988
1.57355	1.38913
