Adsorption isotherm of N-Butane on Silicalite MFI
DOI: 10.1016/s1004-9541(07)60095-0
Article source: Table 2
Adsorbate N-Butane: InChIKey IJDNQMDRQITEOD-UHFFFAOYSA-N
Kind: experiment
Temperature: 300 K
Tabular data in the source: 1
pressure (bar)	uptake (mmol/g)
0	0
0.00123	0.552
0.0025	0.6577
0.00473	0.68316
0.00999	0.73007
0.02499	0.77135
0.04998	0.79939
0.09934	0.82668
0.19857	0.86061
0.29848	0.88527
0.39867	0.906
0.49804	0.92443
0.59768	0.94143
0.69787	0.95749
0.79724	0.97286
0.89688	0.98782
0.99638	1.00199
