Adsorption isotherm of 1-butene on H-ZSM-5 (Si/Al: 50)
DOI: 10.1016/S1004-9541(07)60095-0
Adsorbate 1-butene: InChIKey VXNZUUAINFGPBY-UHFFFAOYSA-N
Temperature: 300 K
Tabular data in the source: 0
pressure (bar)	uptake (wt%)
0.00518	1.80904
0.01315	4.97332
0.024	5.20996
0.04831	5.31581
0.07495	5.42953
0.09927	5.60035
0.19981	5.80698
0.2987	0.29829
0.49841	6.21858
0.69977	6.41854
0.89851	6.62051
