Adsorption isotherm of N-Butane, 1-butene on Zeolite 5A
DOI: 10.1016/s1004-9541(07)60095-0
Article source: Table 5
Adsorbate N-Butane: InChIKey IJDNQMDRQITEOD-UHFFFAOYSA-N
Adsorbate 1-butene: InChIKey VXNZUUAINFGPBY-UHFFFAOYSA-N
Kind: experiment
Temperature: 300 K
Tabular data in the source: 1
pressure (bar)	N-Butane fraction	N-Butane uptake (wt%)	1-butene fraction	1-butene uptake (wt%)	total uptake (wt%)
0.04858			0.33	4.8001	4.8001
0.09954			0.33	5.02019	5.02019
0.19994			0.33	5.53018	5.53018
0.2987			0.33	5.73831	5.73831
0.49923			0.33	6.17473	6.17473
0.59305			0.33	6.32369	6.32369
0.69963			0.33	6.58923	6.58923
0.89934			0.33	6.82135	6.82135
