Adsorption isotherm of N-Butane, 1-butene on Zeolite 5A
DOI: 10.1016/s1004-9541(07)60095-0
Article source: Table 5
Adsorbate N-Butane: InChIKey IJDNQMDRQITEOD-UHFFFAOYSA-N
Adsorbate 1-butene: InChIKey VXNZUUAINFGPBY-UHFFFAOYSA-N
Kind: experiment
Temperature: 300 K
Tabular data in the source: 1
pressure (bar)	N-Butane fraction	N-Butane uptake (wt%)	1-butene fraction	1-butene uptake (wt%)	total uptake (wt%)
0.00147			0.33	1.08181	1.08181
0.01301			0.33	4.59234	4.59234
0.024			0.33	4.98204	4.98204
0.04872			0.33	5.17104	5.17104
0.07509			0.33	5.30297	5.30297
0.09968			0.33	5.39981	5.39981
0.19994			0.33	5.65219	5.65219
0.29897			0.33	5.83013	5.83013
0.49841			0.33	6.08808	6.08808
0.69894			0.33	6.27713	6.27713
0.89865			0.33	6.43561	6.43561
