Adsorption isotherm of N-Butane on ZSM-5
DOI: 10.1016/S1004-9541(07)60095-0
Adsorbate N-Butane: InChIKey IJDNQMDRQITEOD-UHFFFAOYSA-N
Temperature: 300 K
Tabular data in the source: 0
pressure (bar)	uptake (wt%)
0.0137339	2.50143
0.0274678	3.83619
0.0686695	4.09049
0.137339	4.09764
0.206009	4.18813
0.274678	4.27861
0.336481	4.36838
0.40515	4.37554
0.466953	4.54864
0.528755	4.47175
0.590558	4.47818
0.645494	4.56724
0.700429	4.65629
0.769099	4.74678
0.830901	4.75322
0.899571	4.76037
0.961373	4.76681
1.02318	4.77325
1.09185	4.86373
1.16052	4.87089
1.22232	4.79399
1.27725	4.88305
1.33906	4.88948
1.40086	4.89592
1.46953	4.98641
1.5382	4.91023
