Adsorption isotherm of 1-butene on Zeolite 5A
DOI: 10.1016/s1004-9541(07)60095-0
Article source: Table 3
Adsorbate 1-butene: InChIKey VXNZUUAINFGPBY-UHFFFAOYSA-N
Kind: experiment
Temperature: 300 K
Tabular data in the source: 1
pressure (bar)	uptake (mmol/g)
0.005	0
0.01078	0
0.04965	0
0.09934	0
0.19884	0
0.29848	0
0.39826	0
0.49831	0
0.59809	0
0.69855	0
0.79819	0
0.89784	0
0.99789	0
1.09808	0
1.19772	0
1.29777	0
1.39755	0
1.49897	0
1.59875	0
