Adsorption isotherm of Nitrogen on [Zn(dpe)(bdc)]*4H2O
DOI: 10.1002/chem.201100176
Adsorbate Nitrogen: InChIKey IJGRMHOSHXDMSA-UHFFFAOYSA-N
Temperature: 77 K
Tabular data in the source: 0
pressure (bar)	uptake (cm3(STP)/g)
0.000576109	4.21622
0.00475413	4.79279
0.0403154	5.04505
0.0444195	5.08108
0.0744905	5.15315
0.0990908	5.18919
0.126419	5.18919
0.14692	5.22523
0.171521	5.26126
0.196121	5.2973
0.217984	5.2973
0.245322	5.36937
0.269922	5.40541
0.295879	5.36937
0.309553	5.44144
0.323217	5.44144
0.345085	5.47748
0.360115	5.47748
0.373779	5.47748
0.39428	5.51351
0.406578	5.51351
0.420242	5.51351
0.455779	5.58559
0.469443	5.58559
0.489944	5.62162
0.506346	5.65766
0.52001	5.65766
0.555552	5.76577
0.569216	5.76577
0.591083	5.8018
0.603386	5.83784
0.61705	5.83784
0.652592	5.94595
0.666256	5.94595
0.699069	6.09009
0.712734	6.09009
0.751018	6.27027
0.764682	6.27027
0.800233	6.45045
0.813907	6.52252
0.848117	6.88288
0.860439	7.06306
0.870029	7.24324
0.891975	7.85586
0.898846	8.14414
0.905723	8.46847
0.911233	8.79279
0.918109	9.11712
0.931911	10.1261
0.93606	10.4865
0.938837	10.8108
0.941619	11.1712
0.944401	11.5315
0.945817	11.8919
0.951391	12.6847
0.957029	13.9459
0.958444	14.3063
0.95986	14.6667
0.961276	15.027
0.962691	15.3874
0.962775	16
0.9642	16.4324
0.965616	16.7928
0.967032	17.1532
0.967189	18.3063
0.968447	17.5135
