Adsorption isotherm of Carbon Dioxide on NOS-A94
DOI: 10.3390/en9030189
Article source: Figure  4C
Adsorbate Carbon Dioxide: InChIKey CURLTUGMZLYLDI-UHFFFAOYSA-N
Kind: experiment
Temperature: 298 K
Tabular data in the source: 0
pressure (bar)	uptake (mmol/g)
0.0077	0.04975
0.02387	0.16402
0.03453	0.22999
0.0669	0.38931
0.09868	0.52554
0.1097	0.57348
0.12954	0.64051
0.15778	0.73601
0.189	0.8333
0.22114	0.92627
0.25194	1.01166
0.28494	1.09237
0.32032	1.18064
0.38567	1.3168
0.44729	1.44324
0.5084	1.55345
0.56756	1.65826
0.63445	1.77026
0.69396	1.87038
0.76001	1.96039
0.81961	2.04212
0.88184	2.12781
0.95443	2.22537
0.95851	2.23164
1.00894	2.2999
