Adsorption isotherm of Carbon Dioxide on BPL
DOI: 10.3390/en9030189
Article source: Figure  4b
Adsorbate Carbon Dioxide: InChIKey CURLTUGMZLYLDI-UHFFFAOYSA-N
Kind: experiment
Temperature: 298 K
Tabular data in the source: 0
pressure (bar)	uptake (mmol/g)
0.02916	0.09943
0.03643	0.14528
0.04423	0.16896
0.05628	0.19522
0.06426	0.22326
0.08571	0.30374
0.09812	0.34417
0.11168	0.38534
0.13499	0.45893
0.18437	0.58105
0.23277	0.69262
0.28143	0.80201
0.32992	0.89069
0.39623	1.01585
0.46572	1.13376
0.53513	1.25567
0.60587	1.35942
0.67404	1.45442
0.74558	1.55672
0.81304	1.64664
0.88254	1.73148
0.95097	1.81813
1.02118	1.90407
