Adsorption isotherm of Hydrogen on BPL
DOI: 10.3390/en9030189
Article source: Figure  4b
Adsorbate Hydrogen: InChIKey UFHFLCQGNIYNRP-UHFFFAOYSA-N
Kind: experiment
Temperature: 298 K
Tabular data in the source: 0
pressure (bar)	uptake (mmol/g)
0.02021	0.01142
0.04344	0.01814
0.0828	0.02898
0.12145	0.04454
0.14353	0.03998
0.20408	0.04262
0.25523	0.04483
0.30771	0.05504
0.35789	0.06124
0.40975	0.06127
0.46046	0.06493
0.5078	0.0682
0.56063	0.07442
0.61258	0.08099
0.66276	0.08392
0.71214	0.0872
0.76436	0.08942
0.81427	0.09779
0.86365	0.10617
0.91311	0.11381
0.96533	0.11784
1.01719	0.1186
