Adsorption isotherm of Carbon Dioxide on NOS-A94
DOI: 10.3390/en9030189
Article source: Figure  1b
Adsorbate Carbon Dioxide: InChIKey CURLTUGMZLYLDI-UHFFFAOYSA-N
Kind: experiment
Temperature: 273 K
Tabular data in the source: 0
pressure (bar)	uptake (cm3(STP)/g)
0.003423	1.069
0.005349	1.326
0.005558	2.416
0.008126	3.122
0.010692	5.029
0.0109	5.067
0.013892	6.072
0.016673	7.291
0.019665	8.659
0.024157	9.793
0.030363	11.375
0.035286	12.808
0.038066	13.791
0.045988	14.711
0.049404	15.842
0.049841	15.802
0.057113	18.218
0.064604	19.566
0.07103	20.528
0.078521	21.918
0.084516	23.009
0.09158	24.314
0.098432	25.404
0.112352	27.03
0.121777	28.335
0.143188	31.522
0.170389	34.602
0.194379	36.977
0.219438	39.395
0.242141	41.813
0.267203	43.91
0.290555	45.9
0.314118	47.996
0.345394	50.351
0.380527	52.769
0.414376	55.166
0.449936	57.649
0.485499	59.939
0.519994	61.994
0.558345	64.285
0.588767	65.848
0.623262	67.732
0.657329	69.53
0.69225	71.628
0.72503	73.341
0.760385	75.033
0.794664	76.767
0.828946	78.074
0.867086	79.83
0.900726	81.179
0.935009	82.892
0.969933	84.285
1.00293	85.72
1.03786	87.005
1.07214	88.376
1.10621	89.726
1.14049	91.118
1.17134	92.489
1.20306	93.603
