Adsorption isotherm of Carbon Dioxide on NKb-A82
DOI: 10.3390/en9030189
Article source: Figure  1b
Adsorbate Carbon Dioxide: InChIKey CURLTUGMZLYLDI-UHFFFAOYSA-N
Kind: experiment
Temperature: 273 K
Tabular data in the source: 0
pressure (bar)	uptake (cm3(STP)/g)
0.005571	0.342
0.007922	2.139
0.011129	3.764
0.015197	5.132
0.018835	6.608
0.022043	8.019
0.025465	9.623
0.027604	10.756
0.031026	12.103
0.036598	12.895
0.040017	14.905
0.044731	15.482
0.048157	16.637
0.053083	17.642
0.05779	19.246
0.062286	20.593
0.065285	21.32
0.07171	22.454
0.076636	23.523
0.083915	24.978
0.092916	26.176
0.096981	27.779
0.110478	29.298
0.123759	31.287
0.144541	34.175
0.17025	37.426
0.194032	40.336
0.218241	42.946
0.242241	45.342
0.266665	47.759
0.292165	49.706
0.316166	51.589
0.344238	54.007
0.380885	56.404
0.415386	58.822
0.450103	61.112
0.484823	62.996
0.517824	64.965
0.554044	66.87
0.588549	68.582
0.623053	70.509
0.6582	72.136
0.692278	73.592
0.72614	75.026
0.760218	76.739
0.796441	78.088
0.830515	79.566
0.865669	80.701
0.899532	82.093
0.93554	83.592
0.968975	84.663
1.0022	85.883
1.03756	86.997
1.07314	88.389
1.10722	89.396
1.14194	90.489
1.17238	91.538
1.20281	92.481
