Adsorption isotherm of Nitrogen on NOS-A94
DOI: 10.3390/en9030189
Article source: Figure  1a
Adsorbate Nitrogen: InChIKey IJGRMHOSHXDMSA-UHFFFAOYSA-N
Kind: experiment
Temperature: 77 K
Tabular data in the source: 0
pressure (bar)	uptake (cm3(STP)/g)
0.002118	233.011
0.002412	159.795
0.002482	66.989
0.002513	20.496
0.002533	140.508
0.002574	39.964
0.002645	121.101
0.002918	94.136
0.003009	240.085
0.003202	187.478
0.003202	186.88
0.003455	213.906
0.003921	250.544
0.005005	262.999
0.006039	257.558
0.007478	272.056
0.007488	272.068
0.010477	280.459
0.010487	280.466
0.010497	280.472
0.013648	282.649
0.013659	282.652
0.016486	291.234
0.021572	295.225
0.027885	298.127
0.034025	300.788
0.05279	307.802
0.080827	312.641
0.108509	315.484
0.136718	317.36
0.158442	318.389
0.18121	319.237
0.199256	320.266
0.223776	320.57
0.246544	321.296
0.267924	322.628
0.296821	322.327
0.324848	323.478
0.344292	323.297
0.380719	323.904
0.405249	325.115
0.432567	325.479
0.45727	325.42
0.481091	326.208
0.507709	326.088
0.532412	326.029
0.55746	326.394
0.582852	326.939
0.609125	327.001
0.632947	327.003
0.657822	326.944
0.682697	328.215
0.709488	328.035
0.734718	328.581
0.758711	329.187
0.784985	328.886
0.810215	330.218
0.834553	330.159
0.859783	331.127
0.884831	332.096
0.910405	332.763
0.932828	334.759
0.953326	337.058
0.972426	338.571
0.982944	340.143
0.984352	341.957
0.993806	341.897
1.00204	342.563
1.00975	343.712
