Adsorption isotherm of Nitrogen on RKb-A75
DOI: 10.3390/en9030189
Article source: Figure  1a
Adsorbate Nitrogen: InChIKey IJGRMHOSHXDMSA-UHFFFAOYSA-N
Kind: experiment
Temperature: 77 K
Tabular data in the source: 0
pressure (bar)	uptake (cm3(STP)/g)
0.003182	79.811
0.003253	90.569
0.00385	114.571
0.004154	40.81
0.004276	137.062
0.004398	119.891
0.004438	19.952
0.004671	94.257
0.004762	124.728
0.004833	120.591
0.004874	103.507
0.005127	129.867
0.005553	98.67
0.007468	151.572
0.008886	157.437
0.009808	169.188
0.009981	168.985
0.013689	179.626
0.018249	183.193
0.021765	186.458
0.026517	192.626
0.03056	199.155
0.037936	204.537
0.04741	209.918
0.050744	213.788
0.060744	219.29
0.071799	223.704
0.085478	229.691
0.099501	234.226
0.115288	239.971
0.129483	243.418
0.146131	247.288
0.169263	252.066
0.194331	256.058
0.222712	259.929
0.249351	263.739
0.267741	265.191
0.30208	268.881
0.319954	271.24
0.35482	273.782
0.380577	275.537
0.407023	277.352
0.432252	278.805
0.455375	280.801
0.480777	282.012
0.507233	282.497
0.53298	283.768
0.560135	285.281
0.583612	286.673
0.611111	288.126
0.636514	288.793
0.659808	289.217
0.683974	289.944
0.708677	291.155
0.733552	291.459
0.759127	292.669
0.7854	293.275
0.810803	293.882
0.834097	294.427
0.860371	294.912
0.883149	295.941
0.91152	296.427
0.930609	296.791
0.949354	298.243
0.972477	298.305
0.982994	299.091
0.994201	300.241
1.00787	301.995
