Adsorption isotherm of Carbon Dioxide on NKb-A82
DOI: 10.3390/en9030189
Article source: Figure  4a
Adsorbate Carbon Dioxide: InChIKey CURLTUGMZLYLDI-UHFFFAOYSA-N
Kind: experiment
Temperature: 298 K
Tabular data in the source: 0
pressure (bar)	uptake (mmol/g)
0.00892	0.0345
0.02863	0.19683
0.06422	0.39959
0.09544	0.55811
0.11143	0.63998
0.12631	0.68668
0.16239	0.80238
0.19157	0.90657
0.22032	0.98673
0.25681	1.08362
0.28422	1.16273
0.31457	1.24115
0.38216	1.39592
0.4457	1.52735
0.50942	1.65111
0.57153	1.76164
0.63607	1.86486
0.69894	1.96947
0.76071	2.05771
0.82576	2.15814
0.88727	2.24116
0.94777	2.31442
0.95786	2.32802
1.00979	2.39221
