Adsorption isotherm of Carbon Dioxide on Nka-A82
DOI: 10.3390/en9030189
Article source: Figure  3
Adsorbate Carbon Dioxide: InChIKey CURLTUGMZLYLDI-UHFFFAOYSA-N
Kind: experiment
Temperature: 298 K
Tabular data in the source: 0
pressure (bar)	uptake (mmol/g)
2.98	0.0365
0.01388	0.12265
0.02832	0.21619
0.06595	0.43281
0.09538	0.59322
0.1112	0.65969
0.123	0.70524
0.15868	0.85829
0.18755	0.95801
0.2174	1.06798
0.25016	1.17139
0.28528	1.28835
0.31623	1.38233
0.38383	1.57604
0.44727	1.73735
0.50932	1.89168
0.57095	2.03863
0.63633	2.18476
0.69796	2.31285
0.7607	2.43437
0.82621	2.55795
0.88381	2.66019
0.95072	2.77803
0.95752	2.81372
1.01374	2.89586
