Adsorption isotherm of Nitrogen on BPL
DOI: 10.3390/en9030189
Article source: Figure  4C
Adsorbate Nitrogen: InChIKey IJGRMHOSHXDMSA-UHFFFAOYSA-N
Kind: experiment
Temperature: 298 K
Tabular data in the source: 0
pressure (bar)	uptake (mmol/g)
0.02089	0.01366
0.02531	0.02374
0.03703	0.03093
0.06209	0.04458
0.11543	0.07836
0.16477	0.11756
0.21378	0.14738
0.2661	0.17828
0.31435	0.20739
0.36327	0.24118
0.41551	0.27208
0.46486	0.30046
0.51268	0.32992
0.56475	0.36046
0.61308	0.39137
0.66166	0.41867
0.71552	0.44343
0.76223	0.47543
0.81413	0.50488
0.86221	0.53146
0.91216	0.55912
0.96372	0.58497
1.01247	0.6148
