Adsorption isotherm of Carbon Dioxide on RKb-A75
DOI: 10.3390/en9030189
Article source: Figure  3
Adsorbate Carbon Dioxide: InChIKey CURLTUGMZLYLDI-UHFFFAOYSA-N
Kind: experiment
Temperature: 298 K
Tabular data in the source: 0
pressure (bar)	uptake (mmol/g)
0.01222	0.09722
0.06552	0.28311
0.09217	0.34305
0.09745	0.36397
0.10994	0.38738
0.11841	0.4161
0.12854	0.4313
0.15658	0.49738
0.1892	0.5643
0.22113	0.62506
0.25402	0.68829
0.28484	0.74618
0.31718	0.80161
0.38047	0.90714
0.44127	0.99708
0.50831	1.09523
0.57021	1.18641
0.63018	1.26322
0.69305	1.3425
0.76301	1.42918
0.82519	1.50231
0.88488	1.57379
0.95039	1.63708
0.95969	1.65064
1.0091	1.69995
