Adsorption isotherm of Carbon Dioxide on NKb-A82
DOI: 10.3390/en9030189
Article source: Figure  3
Adsorbate Carbon Dioxide: InChIKey CURLTUGMZLYLDI-UHFFFAOYSA-N
Kind: experiment
Temperature: 298 K
Tabular data in the source: 0
pressure (bar)	uptake (mmol/g)
0.00278	0.00944
0.01708	0.13742
0.02985	0.21947
0.06345	0.40574
0.09468	0.56041
0.10843	0.61622
0.12564	0.67859
0.16006	0.80129
0.19255	0.9088
0.21975	0.99211
0.25279	1.08938
0.28416	1.16162
0.31303	1.23796
0.38341	1.40092
0.44504	1.53024
0.50917	1.65258
0.57149	1.76426
0.63617	1.87841
0.69905	1.97573
0.76234	2.0665
0.82467	2.15521
0.88907	2.24475
0.95056	2.31911
0.96027	2.33348
1.01482	2.39306
