Adsorption isotherm of Nitrogen on Rka-A71
DOI: 10.3390/en9030189
Article source: Figure  1a
Adsorbate Nitrogen: InChIKey IJGRMHOSHXDMSA-UHFFFAOYSA-N
Kind: experiment
Temperature: 77 K
Tabular data in the source: 0
pressure (bar)	uptake (cm3(STP)/g)
0.002503	16.082
0.019525	27.752
0.030387	29.204
0.049132	29.93
0.076288	30.174
0.103433	30.538
0.127781	31.507
0.153355	32.718
0.178758	32.598
0.204849	32.902
0.229025	33.448
0.255653	34.054
0.279819	34.6
0.303468	35.689
0.330269	35.328
0.355316	36.66
0.379138	36.298
0.405239	36.965
0.42976	36.845
0.456905	37.391
0.481608	38.723
0.505602	38.422
0.532584	39.33
0.558149	39.211
0.581271	40.482
0.607545	40.181
0.634872	40.606
0.659575	41.394
0.682343	41.395
0.709316	42.243
0.733664	41.942
0.759238	43.576
0.784286	43.094
0.809333	43.216
0.834553	44.064
0.897962	43.766
0.917052	45.641
0.931065	45.098
0.984139	45.524
0.99413	46.311
1.01201	53.93
