Adsorption isotherm of Nitrogen on NKb-A82
DOI: 10.3390/en9030189
Article source: Figure  1a
Adsorbate Nitrogen: InChIKey IJGRMHOSHXDMSA-UHFFFAOYSA-N
Kind: experiment
Temperature: 77 K
Tabular data in the source: 0
pressure (bar)	uptake (cm3(STP)/g)
0.002898	87.969
0.002989	116.506
0.00309	38.392
0.003171	63.543
0.003384	18.078
0.003496	111.246
0.003749	136.941
0.003901	129.807
0.004256	132.407
0.004357	107.316
0.00457	119.468
0.004762	125.393
0.005522	150.559
0.005542	150.665
0.007478	154.172
0.009069	158.707
0.010133	162.818
0.01224	165.539
0.012605	168.562
0.015938	172.915
0.020164	177.813
0.026476	180.534
0.032444	183.315
0.049791	188.637
0.059782	190.995
0.078182	193.656
0.107617	196.258
0.135826	198.013
0.158249	198.74
0.178737	199.164
0.19959	200.072
0.225337	200.739
0.24776	201.405
0.268076	201.709
0.297156	202.497
0.323429	202.68
0.343573	202.983
0.38158	203.167
0.406273	203.894
0.430804	204.621
0.458121	204.864
0.482469	204.382
0.509087	204.504
0.53221	205.05
0.560236	205.596
0.583186	205.355
0.608234	205.659
0.635206	205.6
0.659899	206.206
0.684947	206.329
0.711575	206.088
0.736096	206.453
0.763413	206.757
0.78689	206.637
0.810884	206.759
0.836458	206.882
0.862732	207.307
0.88708	207.127
0.910375	207.309
0.930518	207.673
0.951705	207.977
0.968525	208.22
0.984636	208.342
0.994272	208.645
1.00689	208.283
