Adsorption isotherm of Hydrogen on Nka-A82
DOI: 10.3390/en9030189
Article source: Figure  4b
Adsorbate Hydrogen: InChIKey UFHFLCQGNIYNRP-UHFFFAOYSA-N
Kind: experiment
Temperature: 298 K
Tabular data in the source: 0
pressure (bar)	uptake (mmol/g)
0.01968	0.00742
0.02943	0.00786
0.05177	0.04909
0.13306	0.07988
0.19343	0.09742
0.24148	0.1105
0.29317	0.13088
0.34707	0.14438
0.39485	0.16255
0.44724	0.18076
0.49733	0.19459
0.54786	0.2146
0.59839	0.23388
0.6491	0.25171
0.69999	0.27245
0.74919	0.28881
0.80061	0.30302
0.85105	0.32412
0.90122	0.33867
0.95167	0.35868
1.00299	0.3856
