Adsorption isotherm of Carbon Dioxide on NOS-A94
DOI: 10.3390/en9030189
Article source: Figure  3
Adsorbate Carbon Dioxide: InChIKey CURLTUGMZLYLDI-UHFFFAOYSA-N
Kind: experiment
Temperature: 298 K
Tabular data in the source: 0
pressure (bar)	uptake (mmol/g)
0.00361	0.03364
0.02124	0.15302
0.02999	0.21578
0.06289	0.38195
0.09676	0.52023
0.10759	0.56536
0.12591	0.63266
0.15437	0.72909
0.18796	0.82882
0.21892	0.91911
0.25237	1.00448
0.28346	1.0837
0.319	1.16949
0.38521	1.30701
0.44809	1.43263
0.50819	1.55046
0.56815	1.65639
0.6345	1.76685
0.69419	1.86007
0.76067	1.95822
0.82036	2.04324
0.88296	2.12703
0.95611	2.21946
0.96096	2.2268
1.00927	2.29872
