Adsorption isotherm of Carbon Dioxide on Rka-A71
DOI: 10.3390/en9030189
Article source: Figure  1b
Adsorbate Carbon Dioxide: InChIKey CURLTUGMZLYLDI-UHFFFAOYSA-N
Kind: experiment
Temperature: 273 K
Tabular data in the source: 0
pressure (bar)	uptake (cm3(STP)/g)
0.004707	1.219
0.005773	2.523
0.008966	5.58
0.008977	5.582
0.012174	7.013
0.019238	8.189
0.022234	9.258
0.034647	12.145
0.036369	10.884
0.045995	14.049
0.049633	14.819
0.051983	16.681
0.052833	16.892
0.063112	18.432
0.064389	19.737
0.075956	21.106
0.085807	21.983
0.090729	23.138
0.098224	24.528
0.108075	25.811
0.115997	27.159
0.141271	29.363
0.16505	31.331
0.192473	33.172
0.209181	34.499
0.241533	36.169
0.258671	37.624
0.292308	39.209
0.343089	41.586
0.346727	42.227
0.385297	43.705
0.407794	44.99
0.447218	46.661
0.479359	47.839
0.518574	48.847
0.547716	49.854
0.588427	51.226
0.619714	51.955
0.654857	53.005
0.692785	54.035
0.722999	54.956
0.76136	55.729
0.79179	56.33
0.826287	57.359
0.864861	58.324
0.900646	59.161
0.933006	59.89
0.968364	60.449
1.00137	60.794
1.03458	61.587
1.06908	62.274
1.10294	63.004
1.14195	63.52
1.17259	64.1
1.20367	64.487
