Adsorption isotherm of Carbon Dioxide on RKb-A75
DOI: 10.3390/en9030189
Article source: Figure  1b
Adsorbate Carbon Dioxide: InChIKey CURLTUGMZLYLDI-UHFFFAOYSA-N
Kind: experiment
Temperature: 273 K
Tabular data in the source: 0
pressure (bar)	uptake (cm3(STP)/g)
0.005138	0.877
0.008772	2.459
0.015836	4.042
0.024185	5.304
0.031252	6.181
0.039174	7.485
0.045387	7.806
0.055669	9.047
0.06616	10.609
0.077941	11.657
0.088438	12.598
0.100216	13.797
0.109429	14.631
0.122283	15.637
0.14542	17.242
0.171555	19.168
0.195979	20.667
0.218046	22.058
0.242467	23.599
0.268394	24.948
0.290888	26.297
0.315954	27.752
0.34788	29.23
0.381301	30.986
0.415157	32.677
0.450936	34.369
0.485003	35.975
0.519501	37.432
0.554641	38.974
0.588708	40.323
0.623848	41.887
0.656204	43.257
0.692844	44.735
0.728199	45.978
0.760982	47.285
0.797194	48.656
0.829977	49.984
0.864048	50.97
0.898331	52.299
0.933686	53.648
0.969256	54.634
1.0029	55.963
1.03718	57.034
1.07168	58.127
1.10682	59.327
1.14197	60.399
1.16982	61.257
1.20175	62.285
