Adsorption isotherm of Hydrogen on NKb-A82
DOI: 10.3390/en9030189
Article source: Figure  4b
Adsorbate Hydrogen: InChIKey UFHFLCQGNIYNRP-UHFFFAOYSA-N
Kind: experiment
Temperature: 298 K
Tabular data in the source: 0
pressure (bar)	uptake (mmol/g)
0.00372	0.01057
0.06791	0.01033
0.13315	0.02755
0.19512	0.03311
0.2445	0.04293
0.29459	0.05385
0.34503	0.06914
0.39698	0.08044
0.44627	0.0928
0.49707	0.10373
0.54813	0.11648
0.59778	0.12521
0.64999	0.14015
0.69875	0.14888
0.75035	0.15872
0.80097	0.17037
0.85212	0.17985
0.90132	0.19622
0.95238	0.21659
1.00185	0.23223
