Adsorption isotherm of Carbon Dioxide on BPL
DOI: 10.3390/en9030189
Article source: Figure  3
Adsorbate Carbon Dioxide: InChIKey CURLTUGMZLYLDI-UHFFFAOYSA-N
Kind: experiment
Temperature: 298 K
Tabular data in the source: 0
pressure (bar)	uptake (mmol/g)
0.01291	0.01725
0.01457	0.03079
0.01763	0.04761
0.01846	0.05663
0.02124	0.06771
0.02526	0.08454
0.02915	0.10095
0.03484	0.12475
0.03817	0.14936
0.04331	0.17316
0.04581	0.18137
0.05206	0.20311
0.05678	0.21789
0.06066	0.23143
0.06344	0.24784
0.06719	0.25892
0.06983	0.27123
0.07454	0.28764
0.08107	0.31391
0.09079	0.33402
0.09731	0.35044
0.10397	0.36563
0.10703	0.38286
0.1198	0.42349
0.13174	0.45714
0.15561	0.5183
0.18046	0.57904
0.20419	0.63405
0.22765	0.69233
0.25208	0.74242
0.27679	0.79537
0.30025	0.84628
0.32482	0.89226
0.35702	0.94974
0.39255	1.01338
0.42545	1.07497
0.46084	1.1341
0.4979	1.18872
0.52997	1.24538
0.56522	1.29631
0.60117	1.34969
0.63449	1.40431
0.66808	1.44908
0.70514	1.50042
0.74095	1.5493
0.77412	1.59407
0.8084	1.64007
0.84519	1.68403
0.87933	1.72593
0.91417	1.77235
0.94734	1.8085
0.9819	1.85615
1.01841	1.89642
