Adsorption isotherm of Carbon Dioxide on Nka-A82
DOI: 10.3390/en9030189
Article source: Figure  1b
Adsorbate Carbon Dioxide: InChIKey CURLTUGMZLYLDI-UHFFFAOYSA-N
Kind: experiment
Temperature: 273 K
Tabular data in the source: 0
pressure (bar)	uptake (cm3(STP)/g)
0.003211	0.706
0.009629	2.63
0.013472	4.13
0.013476	4.127
0.016253	5.859
0.020741	8.04
0.021175	7.943
0.023091	8.98
0.02994	10.627
0.032078	11.354
0.034859	12.38
0.040639	13.663
0.045776	14.733
0.049837	16.144
0.050903	17.405
0.053895	18.603
0.063317	20.25
0.069311	21.276
0.074019	22.345
0.078941	23.543
0.089008	24.826
0.096499	26.43
0.103344	28.398
0.108478	30.044
0.121322	32.226
0.143163	35.712
0.1695	39.883
0.193053	43.177
0.218109	46.449
0.24188	49.615
0.268009	52.482
0.290926	55.177
0.315128	57.702
0.345113	60.954
0.381527	64.398
0.4128	67.543
0.448787	70.732
0.484989	73.556
0.518192	76.295
0.552468	78.928
0.586743	81.474
0.623376	83.957
0.655725	86.397
0.690431	88.687
0.726637	90.956
0.760058	92.904
0.79498	95.237
0.829686	97.527
0.86568	99.347
0.898459	101.381
0.932954	103.372
0.968305	104.978
1.00216	106.798
1.03537	108.511
1.07179	110.395
1.10436	112.172
1.13928	113.607
1.17206	115.128
1.20271	116.498
