Adsorption isotherm of Carbon Dioxide on NOS-A94
DOI: 10.3390/en9030189
Article source: Figure  4a
Adsorbate Carbon Dioxide: InChIKey CURLTUGMZLYLDI-UHFFFAOYSA-N
Kind: experiment
Temperature: 298 K
Tabular data in the source: 0
pressure (bar)	uptake (mmol/g)
0.00732	0.04424
0.0133	0.07664
0.0229	0.14945
0.03158	0.23096
0.06489	0.38984
0.09963	0.52573
0.10897	0.5752
0.12798	0.64385
0.15606	0.73724
0.18751	0.83621
0.22056	0.92962
0.25267	1.01396
0.2826	1.09343
0.32018	1.17778
0.38532	1.31513
0.44609	1.43924
0.50812	1.55639
0.56788	1.66551
0.63436	1.77431
0.69445	1.86533
0.76017	1.96437
0.81959	2.04808
0.88262	2.13771
0.95396	2.23015
0.95682	2.2347
1.00783	2.30375
