Adsorption isotherm of Nitrogen on Nka-A82
DOI: 10.3390/en9030189
Article source: Figure  1a
Adsorbate Nitrogen: InChIKey IJGRMHOSHXDMSA-UHFFFAOYSA-N
Kind: experiment
Temperature: 77 K
Tabular data in the source: 0
pressure (bar)	uptake (cm3(STP)/g)
0.002249	163.483
0.002523	79.867
0.002867	192.443
0.003131	49.94
0.003232	24.789
0.003982	212.092
0.004256	187.908
0.004316	207.195
0.004468	201.512
0.004722	227.086
0.004894	109.372
0.005218	215.538
0.00532	161.01
0.005512	196.917
0.006981	220.436
0.008765	232.105
0.011065	237.002
0.013	242.504
0.015645	247.038
0.020741	252.964
0.026355	256.229
0.032495	259.796
0.049163	266.267
0.075619	271.709
0.097353	274.008
0.126606	276.187
0.152362	277.941
0.176184	279.333
0.19423	279.879
0.218568	280.061
0.242572	281.514
0.27147	281.939
0.296517	282.424
0.317016	282.788
0.347139	283.455
0.380952	283.82
0.406516	283.821
0.431746	284.367
0.45732	284.852
0.480787	284.612
0.507415	285.218
0.531409	285.703
0.556457	285.402
0.581504	286.31
0.608832	286.191
0.635105	286.374
0.659626	286.678
0.683974	287.042
0.709538	286.862
0.73564	287.166
0.759289	287.288
0.786079	287.471
0.806223	287.835
0.835475	287.777
0.862103	288.201
0.88627	288.384
0.911317	288.446
0.931815	288.75
0.949851	288.872
0.970704	289.175
0.991019	289.176
1.00853	289.54
