Adsorption isotherm of Nitrogen on NKb-A82
DOI: 10.3390/en9030189
Article source: Figure  4C
Adsorbate Nitrogen: InChIKey IJGRMHOSHXDMSA-UHFFFAOYSA-N
Kind: experiment
Temperature: 298 K
Tabular data in the source: 0
pressure (bar)	uptake (mmol/g)
0.00781	0.00792
0.01579	0.01836
0.02437	0.03312
0.05001	0.05723
0.10122	0.10255
0.15251	0.1587
0.201	0.20439
0.25288	0.26413
0.3018	0.30946
0.34995	0.36273
0.40328	0.41634
0.45075	0.46023
0.49992	0.50304
0.55249	0.55233
0.60004	0.59982
0.64998	0.64587
0.70186	0.70165
0.74993	0.734
0.80216	0.77825
0.84955	0.82863
0.8988	0.87071
0.95002	0.91243
0.99817	0.94911
