Adsorption isotherm of Nitrogen on NOS-A94
DOI: 10.3390/en9030189
Article source: Figure  4C
Adsorbate Nitrogen: InChIKey IJGRMHOSHXDMSA-UHFFFAOYSA-N
Kind: experiment
Temperature: 298 K
Tabular data in the source: 0
pressure (bar)	uptake (mmol/g)
0.00848	0.02378
0.02987	0.05943
0.04967	0.07093
0.09953	0.09931
0.15268	0.1641
0.20134	0.20907
0.25229	0.25728
0.30325	0.30225
0.35004	0.33929
0.40312	0.38245
0.45068	0.42706
0.49918	0.46662
0.55132	0.5087
0.60041	0.54321
0.64831	0.58602
0.70012	0.62954
0.74904	0.66189
0.80212	0.70144
0.84909	0.74317
0.89878	0.77046
0.95076	0.80966
0.99756	0.83804
