Adsorption isotherm of Carbon Dioxide on Nka-A82
DOI: 10.3390/en9030189
Article source: Figure  4a
Adsorbate Carbon Dioxide: InChIKey CURLTUGMZLYLDI-UHFFFAOYSA-N
Kind: experiment
Temperature: 298 K
Tabular data in the source: 0
pressure (bar)	uptake (mmol/g)
0.00278	0.03205
0.00691	0.06758
0.01198	0.15535
0.02637	0.23234
0.03587	0.25291
0.06777	0.44347
0.09621	0.59955
0.11295	0.67133
0.12431	0.71558
0.16006	0.86611
0.1884	0.96681
0.21926	1.07344
0.24962	1.17206
0.2862	1.29055
0.31664	1.38917
0.38323	1.5805
0.44746	1.74885
0.50799	1.8942
0.57154	2.04478
0.63534	2.18944
0.6983	2.31146
0.75941	2.43522
0.82564	2.55864
0.8812	2.6601
0.9476	2.78108
0.95601	2.81558
1.01089	2.90415
