Adsorption isotherm of Carbon Dioxide on Nka-A82
DOI: 10.3390/en9030189
Article source: Figure  4C
Adsorbate Carbon Dioxide: InChIKey CURLTUGMZLYLDI-UHFFFAOYSA-N
Kind: experiment
Temperature: 298 K
Tabular data in the source: 0
pressure (bar)	uptake (mmol/g)
0.00685	0.05804
0.01284	0.1233
0.02722	0.23433
0.06789	0.44087
0.09915	0.59983
0.111	0.67841
0.12346	0.72671
0.16094	0.86437
0.18909	0.96492
0.21902	1.0734
0.25066	1.17249
0.28661	1.29863
0.31663	1.38943
0.38297	1.58077
0.44626	1.74363
0.50811	1.89675
0.57185	2.03256
0.63523	2.18387
0.69727	2.30562
0.76033	2.43314
0.82619	2.5574
0.88085	2.65717
0.94681	2.77386
0.95579	2.81063
1.00944	2.89994
