Adsorption isotherm of Nitrogen on Nka-A82
DOI: 10.3390/en9030189
Article source: Figure  4C
Adsorbate Nitrogen: InChIKey IJGRMHOSHXDMSA-UHFFFAOYSA-N
Kind: experiment
Temperature: 298 K
Tabular data in the source: 0
pressure (bar)	uptake (mmol/g)
0.01197	0.02413
0.02053	0.04719
0.02622	0.05548
0.04924	0.07742
0.10128	0.14258
0.15325	0.19764
0.20165	0.25198
0.2537	0.31534
0.30058	0.36861
0.3517	0.41826
0.40299	0.47404
0.45122	0.52803
0.50013	0.58093
0.55176	0.62914
0.60008	0.67771
0.6484	0.72593
0.70131	0.77414
0.74954	0.81803
0.80168	0.87345
0.8506	0.91589
0.89875	0.95581
0.95064	1.00114
0.9988	1.04575
