Adsorption isotherm of Methane on BPL
DOI: 10.3390/en9030189
Article source: Figure  4a
Adsorbate Methane: InChIKey VNWKTOKETHGBQD-UHFFFAOYSA-N
Kind: experiment
Temperature: 298 K
Tabular data in the source: 0
pressure (bar)	uptake (mmol/g)
0.01008	0.00385
0.01655	0.0164
0.02193	0.03383
0.03378	0.04151
0.06193	0.07535
0.11075	0.13152
0.16554	0.18771
0.21579	0.23831
0.26713	0.28613
0.31737	0.32803
0.36972	0.37167
0.41853	0.41286
0.47012	0.45267
0.51961	0.49004
0.57052	0.52393
0.62085	0.55747
0.67042	0.59588
0.7205	0.62802
0.77217	0.66052
0.82207	0.6951
0.87206	0.72864
0.92256	0.75556
0.97313	0.78979
1.01279	0.81286
