Adsorption isotherm of Carbon Dioxide on BPL
DOI: 10.3390/en9030189
Article source: Figure  4a
Adsorbate Carbon Dioxide: InChIKey CURLTUGMZLYLDI-UHFFFAOYSA-N
Kind: experiment
Temperature: 298 K
Tabular data in the source: 0
pressure (bar)	uptake (mmol/g)
0.00833	0.0439
0.02095	0.09233
0.03272	0.13415
0.03886	0.16272
0.05417	0.22021
0.06838	0.26343
0.08318	0.31152
0.09571	0.35682
0.10992	0.39516
0.13573	0.46382
0.18256	0.58476
0.23224	0.69805
0.28074	0.79949
0.33109	0.90199
0.3932	1.02192
0.46439	1.13699
0.53373	1.25102
0.60256	1.35633
0.67206	1.45713
0.74214	1.55548
0.81114	1.64617
0.87954	1.73408
0.94937	1.81746
1.01828	1.90745
