Adsorption isotherm of Methane on NOS-A94
DOI: 10.3390/en9030189
Article source: Figure  4a
Adsorbate Methane: InChIKey VNWKTOKETHGBQD-UHFFFAOYSA-N
Kind: experiment
Temperature: 298 K
Tabular data in the source: 0
pressure (bar)	uptake (mmol/g)
0.00732	0.04424
0.00918	0.05713
0.0159	0.07526
0.04969	0.13906
0.09894	0.23075
0.15382	0.31863
0.20475	0.38839
0.25492	0.46058
0.30635	0.52233
0.35744	0.58687
0.40736	0.64095
0.45676	0.69469
0.50743	0.74181
0.55751	0.79171
0.60843	0.83674
0.65775	0.88386
0.70926	0.92715
0.76034	0.9687
0.81084	1.00816
0.86167	1.04797
0.91082	1.08812
0.96182	1.12793
1.0014	1.15413
