Adsorption isotherm of Hydrogen on NOS-A94
DOI: 10.3390/en9030189
Article source: Figure  4b
Adsorbate Hydrogen: InChIKey UFHFLCQGNIYNRP-UHFFFAOYSA-N
Kind: experiment
Temperature: 298 K
Tabular data in the source: 0
pressure (bar)	uptake (mmol/g)
0.01578	0.06553
0.02588	0.08196
0.05283	0.08108
0.10328	0.08546
0.15328	0.09711
0.20487	0.11458
0.25514	0.12878
0.30549	0.1477
0.35664	0.16008
0.40637	0.1739
0.45726	0.19428
0.50779	0.21175
0.55894	0.22595
0.61009	0.2416
0.66027	0.26015
0.71062	0.27798
0.76195	0.29473
0.81115	0.31291
0.86071	0.33255
0.91487	0.37766
1.00033	0.39249
1.00406	0.39368
