Adsorption isotherm of Methane on NKb-A82
DOI: 10.3390/en9030189
Article source: Figure  4a
Adsorbate Methane: InChIKey VNWKTOKETHGBQD-UHFFFAOYSA-N
Kind: experiment
Temperature: 298 K
Tabular data in the source: 0
pressure (bar)	uptake (mmol/g)
0.02514	0.06309
0.04984	0.07707
0.09824	0.13603
0.15312	0.21206
0.20454	0.26824
0.25471	0.32198
0.30537	0.36979
0.35688	0.41761
0.40654	0.46264
0.45729	0.50837
0.50686	0.54608
0.55812	0.59634
0.60811	0.63719
0.65835	0.67247
0.70969	0.70427
0.75993	0.74303
0.80958	0.77378
0.86151	0.80628
0.91082	0.8419
0.96115	0.86952
1.0003	0.89537
