Adsorption isotherm of Carbon Dioxide on BPL
DOI: 10.3390/en9030189
Article source: Figure  4C
Adsorbate Carbon Dioxide: InChIKey CURLTUGMZLYLDI-UHFFFAOYSA-N
Kind: experiment
Temperature: 298 K
Tabular data in the source: 0
pressure (bar)	uptake (mmol/g)
0.0161	0.07605
0.02831	0.12218
0.03823	0.14812
0.04672	0.17623
0.05503	0.20398
0.06571	0.24362
0.07725	0.27569
0.0864	0.31498
0.10116	0.35137
0.11482	0.39786
0.13559	0.46488
0.18549	0.58341
0.23368	0.6987
0.28163	0.80353
0.33034	0.90007
0.39553	1.01857
0.4648	1.13741
0.53432	1.25121
0.60478	1.35491
0.67321	1.45573
0.74206	1.55151
0.81109	1.64223
0.88182	1.73042
0.95051	1.81393
1.01886	1.90105
