Adsorption isotherm of Carbon Dioxide on NKb-A82
DOI: 10.3390/en9030189
Article source: Figure  4C
Adsorbate Carbon Dioxide: InChIKey CURLTUGMZLYLDI-UHFFFAOYSA-N
Kind: experiment
Temperature: 298 K
Tabular data in the source: 0
pressure (bar)	uptake (mmol/g)
0.01845	0.12906
0.02827	0.19647
0.03223	0.24225
0.064	0.40878
0.09781	0.57062
0.11297	0.64992
0.12755	0.70182
0.16402	0.81533
0.19396	0.91046
0.22051	0.99514
0.25563	1.0964
0.28439	1.16485
0.31392	1.24412
0.38265	1.40227
0.44553	1.53376
0.50987	1.65875
0.57311	1.76354
0.63499	1.87267
0.69916	1.97314
0.76038	2.05883
0.82507	2.1474
0.88798	2.24318
0.94869	2.32239
0.95862	2.33246
1.01153	2.38572
