Adsorption isotherm of Methane on Nka-A82
DOI: 10.3390/en9030189
Article source: Figure  4a
Adsorbate Methane: InChIKey VNWKTOKETHGBQD-UHFFFAOYSA-N
Kind: experiment
Temperature: 298 K
Tabular data in the source: 0
pressure (bar)	uptake (mmol/g)
0.0085	0.04877
0.02028	0.09442
0.04734	0.14915
0.09694	0.26279
0.15275	0.38166
0.2036	0.47301
0.25512	0.55775
0.30689	0.64318
0.35791	0.71886
0.40564	0.78861
0.45732	0.85907
0.50741	0.9229
0.55707	0.98499
0.60783	1.04291
0.65808	1.09978
0.70849	1.15387
0.7595	1.20378
0.80941	1.25473
0.85991	1.30637
0.9099	1.3521
0.96175	1.40201
1.00082	1.43901
