Adsorption isotherm of Carbon Dioxide on Nka-A82
DOI: 10.3390/en9030189
Article source: Figure  4b
Adsorbate Carbon Dioxide: InChIKey CURLTUGMZLYLDI-UHFFFAOYSA-N
Kind: experiment
Temperature: 298 K
Tabular data in the source: 0
pressure (bar)	uptake (mmol/g)
0.00425	0.05709
0.01648	0.15567
0.02712	0.22734
0.06682	0.4326
0.09669	0.59346
0.11309	0.66808
0.12301	0.71286
0.15918	0.84941
0.18807	0.97029
0.21759	1.07118
0.24897	1.17208
0.2861	1.29338
0.31633	1.38373
0.38361	1.58158
0.44743	1.74378
0.50762	1.89142
0.57144	2.042
0.63633	2.18677
0.69864	2.3108
0.76007	2.43301
0.82638	2.56144
0.88293	2.66399
0.94897	2.78696
0.95668	2.81573
1.01067	2.90046
