Adsorption isotherm of Carbon Dioxide on NKb-A82
DOI: 10.3390/en9030189
Article source: Figure  4b
Adsorbate Carbon Dioxide: InChIKey CURLTUGMZLYLDI-UHFFFAOYSA-N
Kind: experiment
Temperature: 298 K
Tabular data in the source: 0
pressure (bar)	uptake (mmol/g)
0.00425	0.0153
0.01684	0.13168
0.03004	0.22518
0.06478	0.40715
0.09589	0.55602
0.11123	0.63609
0.12594	0.68308
0.16122	0.79455
0.19313	0.90237
0.22007	0.98979
0.25526	1.08782
0.28372	1.16362
0.31492	1.24308
0.38379	1.39406
0.44629	1.53336
0.50976	1.64832
0.57225	1.76073
0.63563	1.87278
0.69963	1.97066
0.76186	2.06816
0.8264	2.16024
0.88907	2.24721
0.95024	2.3269
0.95892	2.3335
1.01282	2.39315
