Adsorption isotherm of Carbon Dioxide on Rka-A71
DOI: 10.3390/en9030189
Article source: Figure  3
Adsorbate Carbon Dioxide: InChIKey CURLTUGMZLYLDI-UHFFFAOYSA-N
Kind: experiment
Temperature: 298 K
Tabular data in the source: 0
pressure (bar)	uptake (mmol/g)
0.00597	0.01027
0.01902	0.03941
0.03123	0.08455
0.06455	0.19371
0.08815	0.27168
0.10952	0.33201
0.12438	0.40709
0.15533	0.46621
0.19059	0.54749
0.21877	0.61152
0.24847	0.68253
0.28248	0.75068
0.31385	0.80693
0.38061	0.90591
0.44252	1.02128
0.50651	1.10712
0.56577	1.20239
0.63129	1.28127
0.69944	1.3704
0.75718	1.43901
0.8195	1.49573
0.88224	1.56517
0.94622	1.60631
0.95844	1.65104
1.00938	1.68478
