Adsorption isotherm of Methane on Dehydroxylated UiO-66
DOI: 10.1021/Ja404514r
Adsorbate Methane: InChIKey VNWKTOKETHGBQD-UHFFFAOYSA-N
Temperature: 270 K
Tabular data in the source: 0
pressure (bar)	uptake (cm3(STP)/g)
1.2591	32.2537
2.77873	60.793
4.30581	80.6548
6.09237	98.0418
7.62583	110.466
9.67292	124.138
11.4659	134.087
14.0287	146.529
17.3626	160.225
20.4422	170.197
23.7803	178.934
27.6331	187.679
31.487	195.186
35.3419	201.452
39.7126	206.488
43.5696	210.276
46.9109	215.294
51.2826	219.09
55.6555	221.647
60.0272	225.443
63.628	227.986
67.2308	228.05
