Adsorption isotherm of Nitrogen on Hydroxylated UiO-66
DOI: 10.1021/Ja404514r
Adsorbate Nitrogen: InChIKey IJGRMHOSHXDMSA-UHFFFAOYSA-N
Temperature: 300 K
Tabular data in the source: 0
pressure (bar)	uptake (mmol/g)
0.37169	0.025281
1.68261	0.294021
3.12463	0.523432
5.87757	0.838054
10.5969	1.29688
17.6759	1.77537
26.8524	2.18175
29.9986	2.28663
