Adsorption isotherm of Carbon Dioxide on Hydroxylated UiO-66
DOI: 10.1021/Ja404514r
Adsorbate Carbon Dioxide: InChIKey CURLTUGMZLYLDI-UHFFFAOYSA-N
Temperature: 300 K
Tabular data in the source: 0
pressure (bar)	uptake (mmol/g)
0.140349	1.12365
0.905055	2.27726
1.74623	3.35222
3.27564	4.34852
5.03447	5.21373
8.24623	6.18381
11.6874	6.91793
14.8992	7.46852
18.9521	7.83558
24.2286	8.09776
28.6639	8.25507
30.4992	8.30751
