Adsorption isotherm of Nitrogen on UiO-66-S4
DOI: 10.1021/Ja404514r
Adsorbate Nitrogen: InChIKey IJGRMHOSHXDMSA-UHFFFAOYSA-N
Temperature: 77 K
Tabular data in the source: 0
pressure (bar)	uptake (cm3(STP)/g)
0.00628236	46.4708
0.00674178	65.5052
0.00813793	89.978
0.0095948	113.091
0.0098232	147.081
0.0104183	191.948
0.0122834	238.175
0.0155415	280.322
0.0237359	307.514
0.034994	333.347
0.0534449	349.662
0.0996937	357.82
0.199563	360.539
0.323249	365.977
0.499528	368.696
0.68627	371.416
0.899487	382.292
0.999938	412.204
1.02374	446.194
