Adsorption isotherm of Nitrogen on Hydroxylated UiO-66
DOI: 10.1021/Ja404514r
Adsorbate Nitrogen: InChIKey IJGRMHOSHXDMSA-UHFFFAOYSA-N
Temperature: 77 K
Tabular data in the source: 0
pressure (bar)	uptake (cm3(STP)/g)
0.00188262	22.5977
0.00197	53.1859
0.00218998	93.3876
0.00239799	121.354
0.00250929	163.304
0.00287514	193.892
0.00300859	237.589
0.00349977	257.69
0.00452576	276.043
0.0086717	289.152
0.0161206	304.009
0.0343374	317.993
0.0903862	327.606
0.241549	331.976
0.442297	333.724
0.665339	338.094
0.809885	344.211
0.886808	358.194
1.00086	405.388
1.01611	394.9
