Adsorption isotherm of Nitrogen on UiO-66-S3p
DOI: 10.1021/Ja404514r
Adsorbate Nitrogen: InChIKey IJGRMHOSHXDMSA-UHFFFAOYSA-N
Temperature: 77 K
Tabular data in the source: 0
pressure (bar)	uptake (cm3(STP)/g)
0.00313841	34.2344
0.00340777	98.1356
0.00392441	170.195
0.00457286	221.859
0.00690227	253.13
0.0130275	281.682
0.0245885	307.514
0.0503921	333.347
0.0855568	348.302
0.173291	360.539
0.319469	378.214
0.487913	395.888
0.670313	419.002
0.818701	451.632
0.91013	504.656
0.976688	588.952
0.999938	693.641
0.999938	784.734
