Adsorption isotherm of Carbon Dioxide on UiO-66-S1
DOI: 10.1021/Ja404514r
Adsorbate Carbon Dioxide: InChIKey CURLTUGMZLYLDI-UHFFFAOYSA-N
Temperature: 300 K
Tabular data in the source: 0
pressure (bar)	uptake (mmol/g)
0.29329	0.756586
1.8227	2.51323
3.96388	4.00768
6.64035	5.26617
10.0815	6.07894
14.4403	6.97037
19.5639	7.57339
24.0756	7.78314
29.2756	7.99289
31.1109	8.04533
