Adsorption isotherm of Nitrogen on UiO-66-S1
DOI: 10.1021/Ja404514r
Adsorbate Nitrogen: InChIKey IJGRMHOSHXDMSA-UHFFFAOYSA-N
Temperature: 77 K
Tabular data in the source: 0
pressure (bar)	uptake (cm3(STP)/g)
0.00313841	5.68274
0.00397085	24.7172
0.00451938	50.5496
0.00578577	96.776
0.00785575	128.047
0.00883639	156.598
0.0107925	187.869
0.0146538	209.623
0.0266989	234.096
0.0547172	249.051
0.129139	258.569
0.255484	262.647
0.505439	269.445
0.719332	273.524
0.942822	283.041
1.03586	310.233
1.04811	346.943
