Adsorption isotherm of Carbon Dioxide on UiO-66-S3p
DOI: 10.1021/Ja404514r
Adsorbate Carbon Dioxide: InChIKey CURLTUGMZLYLDI-UHFFFAOYSA-N
Temperature: 300 K
Tabular data in the source: 0
pressure (bar)	uptake (mmol/g)
0.160399	0.106119
0.509978	1.08931
1.38393	2.35654
2.95704	3.60192
5.49149	5.04393
7.93855	6.18007
13.357	7.99351
18.6007	8.97671
24.8058	9.78511
31.0982	10.2876
33.5453	10.4843
