Adsorption isotherm of Methane on Dehydroxylated UiO-66
DOI: 10.1021/Ja404514r
Adsorbate Methane: InChIKey VNWKTOKETHGBQD-UHFFFAOYSA-N
Temperature: 298 K
Tabular data in the source: 0
pressure (bar)	uptake (cm3(STP)/g)
0.76354	9.93088
1.52389	23.5807
3.82089	45.9354
6.12321	62.0919
8.17243	73.2852
10.479	84.4831
13.3003	95.6901
16.8925	108.15
19.4575	118.113
22.282	125.601
26.1348	134.347
29.2155	143.079
32.2984	149.332
35.3834	153.106
38.2089	159.354
41.8065	165.616
45.1477	170.634
47.7191	173.159
51.3188	176.942
55.4321	181.973
60.0612	185.774
63.6609	189.557
67.519	192.105
