Adsorption isotherm of Methane on UiO-66-S1
DOI: 10.1021/Ja404514r
Adsorbate Methane: InChIKey VNWKTOKETHGBQD-UHFFFAOYSA-N
Temperature: 300 K
Tabular data in the source: 0
pressure (bar)	uptake (mmol/g)
0.433639	0.209743
4.71599	1.70857
9.30423	2.6568
15.5748	3.4521
23.2219	4.06386
28.7278	4.46151
36.9866	4.88974
45.3983	5.2568
56.4101	5.50151
62.0689	5.68504
