Adsorption isotherm of Hydrogen on UiO-66-S1
DOI: 10.1021/Ja404514r
Adsorbate Hydrogen: InChIKey UFHFLCQGNIYNRP-UHFFFAOYSA-N
Temperature: 300 K
Tabular data in the source: 0
pressure (bar)	uptake (mmol/g)
0.633875	-0.00749208
6.92631	0.0187264
18.2003	0.0646088
28.1633	0.0973819
36.8154	0.143264
47.8272	0.182592
58.5767	0.22192
62.5095	0.228474
