Adsorption isotherm of Carbon Dioxide on Hydroxylated UiO-66
DOI: 10.1021/Ja404514r
Adsorbate Carbon Dioxide: InChIKey CURLTUGMZLYLDI-UHFFFAOYSA-N
Temperature: 240 K
Tabular data in the source: 0
pressure (bar)	uptake (mmol/g)
0.140349	0.127343
0.216819	2.72297
0.29329	4.82045
0.828584	6.49844
1.28741	7.57339
1.74623	8.38617
2.43447	9.1465
3.73447	9.77575
5.41682	10.1952
7.40505	10.5099
9.54623	10.8245
