Adsorption isotherm of Methane on UiO-66-S3p
DOI: 10.1021/Ja404514r
Adsorbate Methane: InChIKey VNWKTOKETHGBQD-UHFFFAOYSA-N
Temperature: 300 K
Tabular data in the source: 0
pressure (bar)	uptake (mmol/g)
0.433639	0.0284008
2.11599	0.900166
3.79834	1.51193
7.46893	2.35311
13.2807	3.31664
19.8572	4.06605
25.3631	4.61664
31.7866	5.09075
39.1278	5.53428
47.3866	5.93193
52.1278	6.10017
59.9278	6.34487
64.3631	6.54369
