Adsorption isotherm of Methane on Dehydroxylated UiO-66
DOI: 10.1021/Ja404514r
Adsorbate Methane: InChIKey VNWKTOKETHGBQD-UHFFFAOYSA-N
Temperature: 240 K
Tabular data in the source: 0
pressure (bar)	uptake (cm3(STP)/g)
0.743335	33.4842
1.23676	58.2864
1.98435	86.812
2.48416	104.176
3.49442	126.508
5.0215	146.37
7.06221	167.48
8.85302	179.909
10.9001	193.581
13.463	206.024
16.2853	215.991
19.366	224.723
22.7031	234.7
27.0716	242.215
30.4118	248.472
34.2678	253.499
39.6668	259.793
43.7823	262.346
48.153	267.382
52.5269	268.699
56.8975	273.735
61.2714	275.052
65.1306	276.36
