Adsorption isotherm of Carbon Dioxide on Hydroxylated UiO-66
DOI: 10.1021/Ja404514r
Adsorbate Carbon Dioxide: InChIKey CURLTUGMZLYLDI-UHFFFAOYSA-N
Temperature: 240 K
Tabular data in the source: 0
pressure (bar)	uptake (mmol/g)
0.206312	4.13239
0.341868	3.41793
0.362722	4.84648
0.522112	5.76464
0.827483	6.68262
1.2766	7.44735
1.28554	8.05958
1.73317	8.72228
2.47277	9.3846
3.35835	10.0467
4.38618	10.4536
5.55777	10.7072
