Adsorption isotherm of Hydrogen on Hydroxylated UiO-66
DOI: 10.1021/Ja404514r
Adsorbate Hydrogen: InChIKey UFHFLCQGNIYNRP-UHFFFAOYSA-N
Temperature: 300 K
Tabular data in the source: 0
pressure (bar)	uptake (mmol/g)
1.76976	0.0231362
3.13065	0.0308483
5.17182	0.0385604
9.39125	0.0771208
16.0597	0.115681
27.0843	0.208226
35.7946	0.269923
46.4103	0.347044
57.4339	0.416452
61.9247	0.439589
