Adsorption isotherm of Nitrogen on UiO-66-S3
DOI: 10.1021/Ja404514r
Adsorbate Nitrogen: InChIKey IJGRMHOSHXDMSA-UHFFFAOYSA-N
Temperature: 77 K
Tabular data in the source: 0
pressure (bar)	uptake (cm3(STP)/g)
0.00496533	100.855
0.00526613	181.071
0.00558516	225.938
0.0071502	257.209
0.0092621	274.884
0.0148272	299.357
0.0289904	319.751
0.0560197	342.864
0.103275	345.583
0.19723	352.381
0.330945	359.179
0.582067	364.618
0.771937	376.854
0.953978	408.125
0.999938	429.878
