Adsorption isotherm of Carbon Dioxide on Hydroxylated UiO-66
DOI: 10.1021/Ja404514r
Adsorbate Carbon Dioxide: InChIKey CURLTUGMZLYLDI-UHFFFAOYSA-N
Temperature: 270 K
Tabular data in the source: 0
pressure (bar)	uptake (mmol/g)
0.329951	2.60162
0.636812	3.62164
1.3846	4.84517
1.83074	5.40583
2.57108	6.11917
3.31068	6.78149
4.04953	7.39279
5.37231	8.00335
6.6936	8.51187
8.30388	8.81594
10.2076	9.22167
11.8164	9.4237
14.0099	9.67601
16.4938	9.8259
18.6858	9.97617
20.8778	10.1264
22.4851	10.2264
24.3836	10.275
27.1587	10.3735
29.2032	10.4219
