Adsorption isotherm of Nitrogen on UiO-66-S1
DOI: 10.1021/Ja404514r
Adsorbate Nitrogen: InChIKey IJGRMHOSHXDMSA-UHFFFAOYSA-N
Temperature: 77 K
Tabular data in the source: 0
pressure (bar)	uptake (cm3(STP)/g)
0.00169351	19.9758
0.00188262	33.959
0.00197	62.7994
0.00218998	95.1355
0.00247162	137.085
0.00287514	176.413
0.00287514	215.741
0.00305443	234.093
0.00344725	255.068
0.00419617	272.547
0.00756823	289.152
0.0253754	319.741
0.0565591	331.976
0.165505	339.841
0.42912	343.337
0.809885	352.077
0.971038	362.564
