Adsorption isotherm of Methane on UiO-66-S1
DOI: 10.1021/Ja404514r
Adsorbate Methane: InChIKey VNWKTOKETHGBQD-UHFFFAOYSA-N
Temperature: 270 K
Tabular data in the source: 0
pressure (bar)	uptake (mmol/g)
0.280697	0.60739
2.72776	1.95327
5.93952	3.20739
9.45717	4.12504
14.9631	4.85915
22.1513	5.65445
31.6336	6.20504
41.4219	6.5721
48.916	6.72504
57.6336	6.78621
62.8336	6.78621
