Adsorption isotherm of Methane on Hydroxylated UiO-66
DOI: 10.1021/Ja404514r
Adsorbate Methane: InChIKey VNWKTOKETHGBQD-UHFFFAOYSA-N
Temperature: 300 K
Tabular data in the source: 0
pressure (bar)	uptake (mmol/g)
0.58658	0.270919
2.72776	1.21915
5.32776	2.1368
8.8454	2.77915
13.7395	3.54386
21.5395	4.36974
36.5278	5.19563
46.0101	5.5321
56.2572	5.74621
62.3748	5.80739
