Adsorption isotherm of Methane on Hydroxylated UiO-66
DOI: 10.1021/Ja404514r
Adsorbate Methane: InChIKey VNWKTOKETHGBQD-UHFFFAOYSA-N
Temperature: 240 K
Tabular data in the source: 0
pressure (bar)	uptake (mmol/g)
0.739521	0.179155
0.739521	1.92268
1.50423	3.42151
3.18658	4.46151
5.4807	5.74621
8.53952	6.60268
13.8925	7.24504
21.6925	7.91798
29.4925	8.19327
35.916	8.40739
45.5513	8.46857
56.8689	8.34621
61.7631	8.16268
63.5983	8.16268
