Adsorption isotherm of Methane on Hydroxylated UiO-66
DOI: 10.1021/Ja404514r
Adsorbate Methane: InChIKey VNWKTOKETHGBQD-UHFFFAOYSA-N
Temperature: 125 K
Tabular data in the source: 0
pressure (bar)	uptake (mmol/g)
0.127756	0.0262134
0.127756	4.58386
0.127756	9.87563
0.127756	12.0168
0.280697	13.0568
0.892462	13.5462
1.65717	13.8521
