Adsorption isotherm of Methane on Hydroxylated UiO-66
DOI: 10.1021/Ja404514r
Adsorbate Methane: InChIKey VNWKTOKETHGBQD-UHFFFAOYSA-N
Temperature: 240 K
Tabular data in the source: 0
pressure (bar)	uptake (cm3(STP)/g)
0.523617	30.9917
1.06171	54.5455
1.31508	74.3802
1.5612	97.9339
2.68565	120.248
3.53019	136.364
4.37474	152.479
6.09278	169.835
8.10038	188.43
10.6992	203.306
14.1739	218.182
17.6534	230.579
21.1401	239.256
25.7924	249.174
31.3205	259.091
37.1454	266.529
42.9728	272.727
48.5106	277.686
54.6323	282.645
60.1749	285.124
67.175	288.843
74.1751	292.562
