Adsorption isotherm of Methane on Hydroxylated UiO-66
DOI: 10.1021/Ja404514r
Adsorbate Methane: InChIKey VNWKTOKETHGBQD-UHFFFAOYSA-N
Temperature: 270 K
Tabular data in the source: 0
pressure (bar)	uptake (mmol/g)
0.433639	0.362684
1.81011	1.49445
4.10423	2.84033
7.77482	4.15563
13.4336	5.13445
21.9983	5.96033
30.716	6.41915
39.7395	6.75563
49.6807	7.00033
55.9513	7.00033
61.1513	7.00033
64.2101	6.90857
