Adsorption isotherm of Methane on UiO-66-S3p
DOI: 10.1021/Ja404514r
Adsorbate Methane: InChIKey VNWKTOKETHGBQD-UHFFFAOYSA-N
Temperature: 300 K
Tabular data in the source: 0
pressure (bar)	uptake (mmol/g)
0.58658	0.193514
2.72776	1.3078
6.55129	2.26914
11.2925	3.42713
17.4101	4.49772
24.5983	5.63385
32.8572	6.70444
42.1866	7.46914
52.1278	8.38679
61.1513	9.17335
64.6689	9.43553
