Adsorption isotherm of Methane on UiO-66-S1
DOI: 10.1021/Ja404514r
Adsorbate Methane: InChIKey VNWKTOKETHGBQD-UHFFFAOYSA-N
Temperature: 240 K
Tabular data in the source: 0
pressure (bar)	uptake (mmol/g)
0.127756	0.0568017
1.19834	2.74857
3.03364	4.2168
6.70423	5.56268
8.99834	6.20504
14.1983	7.15327
21.9983	7.73445
28.8807	8.00974
36.6807	8.1321
45.5513	8.19327
56.1042	8.10151
62.0689	7.94857
63.4454	7.91798
