Adsorption isotherm of Carbon Dioxide on Dehydroxylated UiO-66
DOI: 10.1021/Ja404514r
Adsorbate Carbon Dioxide: InChIKey CURLTUGMZLYLDI-UHFFFAOYSA-N
Temperature: 298 K
Tabular data in the source: 0
pressure (bar)	uptake (mmol/g)
0.291971	0.462428
0.583942	1.15607
1.0219	1.6185
1.45985	2.19653
2.0438	2.77457
2.77372	3.2948
3.21168	3.75723
3.94161	4.16185
4.67153	4.50867
5.54745	4.91329
6.42336	5.31792
7.29927	5.72254
8.46715	6.06936
9.63504	6.41618
10.6569	6.7052
12.4088	7.10983
14.0146	7.39884
15.7664	7.63006
17.2263	7.86127
19.1241	8.09249
21.0219	8.20809
22.9197	8.3815
24.5255	8.49711
26.5693	8.61272
28.4672	8.72832
30.073	8.78613
32.4088	8.90173
34.3066	9.01734
35.7664	9.01734
36.6423	9.07514
