Adsorption isotherm of Hydrogen on Hydroxylated UiO-66
DOI: 10.1021/Ja404514r
Adsorbate Hydrogen: InChIKey UFHFLCQGNIYNRP-UHFFFAOYSA-N
Temperature: 300 K
Tabular data in the source: 0
pressure (bar)	uptake (mmol/g)
0.633875	-0.000937
4.82883	0.0121718
13.0877	0.0449449
22.6574	0.077718
31.965	0.130155
40.8793	0.162928
50.8423	0.195701
57.3969	0.22192
62.1162	0.228474
