Adsorption isotherm of Nitrogen on UiO-66-S1
DOI: 10.1021/Ja404514r
Adsorbate Nitrogen: InChIKey IJGRMHOSHXDMSA-UHFFFAOYSA-N
Temperature: 300 K
Tabular data in the source: 0
pressure (bar)	uptake (mmol/g)
0.549464	0.115681
1.23288	0.18509
1.7827	0.308483
3.15199	0.501285
5.34145	0.77892
7.11855	0.96401
9.30521	1.17995
12.5831	1.45758
15.9967	1.72751
21.3165	2.02828
26.227	2.30591
29.4993	2.46015
30.8623	2.51414
