Adsorption isotherm of Carbon Dioxide on Hydroxylated UiO-66
DOI: 10.1021/Ja404514r
Adsorbate Carbon Dioxide: InChIKey CURLTUGMZLYLDI-UHFFFAOYSA-N
Temperature: 270 K
Tabular data in the source: 0
pressure (bar)	uptake (mmol/g)
0.0638782	0.940116
0.29329	2.25104
0.752113	3.79793
1.51682	5.0302
2.74035	6.18381
4.57564	7.41608
6.258	7.99289
8.858	8.64835
12.758	9.09407
16.3521	9.27759
21.3227	9.46112
24.8403	9.48734
