Adsorption isotherm of Carbon Dioxide on UiO-66-S3p
DOI: 10.1021/Ja404514r
Adsorbate Carbon Dioxide: InChIKey CURLTUGMZLYLDI-UHFFFAOYSA-N
Temperature: 300 K
Tabular data in the source: 0
pressure (bar)	uptake (mmol/g)
0.0730036	0.205998
1.03435	1.98886
2.78225	3.40465
4.35536	4.58449
6.97721	5.97407
9.77384	7.28499
12.8327	8.25507
17.2024	9.33003
21.4848	10.3001
26.6411	11.1653
33.1083	12.0568
