Adsorption isotherm of Methane on Hydroxylated UiO-66
DOI: 10.1021/Ja404514r
Adsorbate Methane: InChIKey VNWKTOKETHGBQD-UHFFFAOYSA-N
Temperature: 270 K
Tabular data in the source: 0
pressure (bar)	uptake (cm3(STP)/g)
1.66978	42.1488
3.6436	78.0992
5.07209	94.2149
6.7853	114.05
8.80256	127.686
10.8174	142.562
13.129	154.959
16.3166	167.355
19.509	177.273
23.8644	189.669
29.3901	200.826
33.4632	208.264
37.8307	214.463
42.4902	220.661
47.1521	225.62
52.9818	230.579
58.5196	235.537
62.0185	238.017
67.2667	241.736
71.0599	242.975
74.5587	245.455
