Adsorption isotherm of Hydrogen on UiO-66-S1
DOI: 10.1021/Ja404514r
Adsorbate Hydrogen: InChIKey UFHFLCQGNIYNRP-UHFFFAOYSA-N
Temperature: 300 K
Tabular data in the source: 0
pressure (bar)	uptake (mmol/g)
1.76976	0.0231362
2.99495	0.0385604
4.89936	0.0308483
5.85244	0.0462725
10.6157	0.0771208
18.1012	0.131105
27.7649	0.215938
36.4755	0.285347
47.9069	0.347044
57.9777	0.40874
62.0608	0.439589
