Adsorption isotherm of Nitrogen on UiO-66-S2
DOI: 10.1021/Ja404514r
Adsorbate Nitrogen: InChIKey IJGRMHOSHXDMSA-UHFFFAOYSA-N
Temperature: 77 K
Tabular data in the source: 0
pressure (bar)	uptake (cm3(STP)/g)
0.00431166	58.7072
0.00565124	121.249
0.00658502	153.879
0.00723481	193.308
0.00823422	239.534
0.0131817	270.805
0.0276579	300.716
0.0553646	318.391
0.10825	327.908
0.22185	336.066
0.523594	342.864
0.790313	355.1
0.988245	375.494
