Adsorption isotherm of Nitrogen on Hydroxylated UiO-66
DOI: 10.1021/Ja404514r
Adsorbate Nitrogen: InChIKey IJGRMHOSHXDMSA-UHFFFAOYSA-N
Temperature: 300 K
Tabular data in the source: 0
pressure (bar)	uptake (mmol/g)
0.139902	0.0848329
0.550164	0.131105
0.961824	0.208226
1.78445	0.347044
3.15513	0.570694
5.34634	0.886889
6.03081	0.979434
8.08142	1.19537
10.4073	1.48072
14.094	1.77378
18.0543	2.09769
22.2839	2.3599
27.0591	2.65296
29.7868	2.79949
30.4688	2.83805
