Adsorption isotherm of Carbon Dioxide on UiO-66-S1
DOI: 10.1021/Ja404514r
Adsorbate Carbon Dioxide: InChIKey CURLTUGMZLYLDI-UHFFFAOYSA-N
Temperature: 270 K
Tabular data in the source: 0
pressure (bar)	uptake (mmol/g)
0.216819	1.41205
0.446231	2.74919
1.28741	4.29608
2.74035	5.63322
3.58153	6.55087
5.26388	7.31121
6.86976	7.83558
8.78153	8.22886
11.2286	8.67457
14.9756	8.98919
18.7992	9.1465
23.3874	9.25138
24.2286	9.25138
