Adsorption isotherm of Carbon Dioxide on UiO-66-S1
DOI: 10.1021/Ja404514r
Adsorbate Carbon Dioxide: InChIKey CURLTUGMZLYLDI-UHFFFAOYSA-N
Temperature: 300 K
Tabular data in the source: 0
pressure (bar)	uptake (mmol/g)
0.247794	0.205998
1.20914	1.75289
3.13183	3.03759
5.05452	4.08633
7.41418	4.95154
10.7352	5.60701
14.3184	6.15759
18.2512	6.55087
24.4562	6.99659
29.4377	7.41608
33.8075	7.67827
