Adsorption isotherm of Methane on UiO-66-S1
DOI: 10.1021/Ja404514r
Adsorbate Methane: InChIKey VNWKTOKETHGBQD-UHFFFAOYSA-N
Temperature: 300 K
Tabular data in the source: 0
pressure (bar)	uptake (mmol/g)
0.433639	0.0842701
2.11599	0.936371
5.17482	1.81032
9.91599	2.72797
17.1042	3.58007
24.5983	4.30108
35.4572	4.93469
45.5513	5.612
55.0336	6.04898
63.2925	6.37671
