Adsorption isotherm of Carbon Dioxide on Dehydroxylated UiO-66
DOI: 10.1021/Ja404514r
Adsorbate Carbon Dioxide: InChIKey CURLTUGMZLYLDI-UHFFFAOYSA-N
Temperature: 240 K
Tabular data in the source: 0
pressure (bar)	uptake (mmol/g)
0.291971	3.12139
0.437956	4.45087
0.583942	5.49133
0.875912	6.18497
1.0219	6.82081
1.16788	7.45665
1.45985	7.91908
1.89781	8.55491
2.33577	9.24855
3.35766	9.88439
4.52555	10.4046
5.83942	10.7514
7.15328	11.0405
8.32117	11.1561
9.63504	11.3873
10.8029	11.4451
