Adsorption isotherm of Carbon Dioxide on Hydroxylated UiO-66
DOI: 10.1021/Ja404514r
Adsorbate Carbon Dioxide: InChIKey CURLTUGMZLYLDI-UHFFFAOYSA-N
Temperature: 298 K
Tabular data in the source: 0
pressure (bar)	uptake (mmol/g)
0.304627	0.866958
0.459548	1.47901
0.76194	2.19291
1.35704	2.95745
1.9514	3.67098
2.83549	4.23108
3.86631	4.84201
4.74891	5.30007
5.63076	5.7071
6.80458	6.11377
7.9784	6.52044
9.44419	6.92673
10.7625	7.23117
12.226	7.48441
13.6889	7.68662
15.5904	7.9393
17.1984	8.09031
18.6612	8.29252
20.7072	8.44298
22.6065	8.54259
24.3605	8.69342
26.259	8.74202
29.0349	8.89154
31.2261	8.99078
33.4174	9.09003
35.7538	9.13807
