Adsorption isotherm of Carbon Dioxide on UiO-66-S1
DOI: 10.1021/Ja404514r
Adsorbate Carbon Dioxide: InChIKey CURLTUGMZLYLDI-UHFFFAOYSA-N
Temperature: 300 K
Tabular data in the source: 0
pressure (bar)	uptake (mmol/g)
0.160399	0.106119
1.29653	1.78847
2.78225	2.85906
4.70494	3.88595
7.0646	4.73805
10.2982	5.34982
14.0562	5.80864
18.2512	6.13637
24.2814	6.5078
29.3503	6.83553
32.3217	6.96662
34.0696	7.05402
