Adsorption isotherm of Nitrogen on UiO-66-S5
DOI: 10.1021/Ja404514r
Adsorbate Nitrogen: InChIKey IJGRMHOSHXDMSA-UHFFFAOYSA-N
Temperature: 77 K
Tabular data in the source: 0
pressure (bar)	uptake (cm3(STP)/g)
0.00218998	60.9265
0.00266576	125.599
0.00310097	186.775
0.00401005	242.708
0.012279	302.137
0.0224839	330.103
0.0308883	347.582
0.0486212	359.817
0.0648056	366.809
0.168027	375.548
0.277014	378.782
0.42529	380.796
0.66906	382.005
0.875022	389.256
0.97147	409.398
1.03077	464.991
