Adsorption isotherm of Nitrogen on UiO-66-S1
DOI: 10.1021/Ja404514r
Adsorbate Nitrogen: InChIKey IJGRMHOSHXDMSA-UHFFFAOYSA-N
Temperature: 300 K
Tabular data in the source: 0
pressure (bar)	uptake (mmol/g)
0.37169	0.0318357
1.9448	0.294021
5.3532	0.654525
9.15488	1.02158
15.7095	1.44108
25.9347	1.82125
29.9986	1.95889
30.3919	1.98511
