Adsorption isotherm of Methane on Hydroxylated UiO-66
DOI: 10.1021/Ja404514r
Adsorbate Methane: InChIKey VNWKTOKETHGBQD-UHFFFAOYSA-N
Temperature: 298 K
Tabular data in the source: 0
pressure (bar)	uptake (cm3(STP)/g)
1.42607	17.3554
2.56017	34.7107
4.56536	54.5455
6.28823	69.4215
8.8846	85.5372
11.7778	99.1736
15.5468	112.81
19.6055	127.686
25.4159	142.562
30.3577	153.719
34.7228	161.157
38.7959	168.595
44.9104	177.273
50.7354	184.711
56.2707	190.909
62.1005	195.868
67.9279	202.066
71.7211	203.306
74.9279	205.785
