Adsorption isotherm of Methane on UiO-66-S1
DOI: 10.1021/Ja404514r
Adsorbate Methane: InChIKey VNWKTOKETHGBQD-UHFFFAOYSA-N
Temperature: 300 K
Tabular data in the source: 0
pressure (bar)	uptake (mmol/g)
0.127756	0.0131067
1.50423	0.624871
3.6454	1.35899
5.93952	1.90958
9.30423	2.42958
13.1278	2.91899
18.9395	3.43899
24.9042	3.82134
34.0807	4.28017
41.8807	4.57075
51.0572	4.86134
61.4572	5.07546
64.8219	5.12134
