Adsorption isotherm of Carbon Dioxide on Dehydroxylated UiO-66
DOI: 10.1021/Ja404514r
Adsorbate Carbon Dioxide: InChIKey CURLTUGMZLYLDI-UHFFFAOYSA-N
Temperature: 270 K
Tabular data in the source: 0
pressure (bar)	uptake (mmol/g)
0.437956	1.96532
0.729927	2.77457
1.16788	3.64162
1.45985	4.45087
2.0438	5.08671
2.62774	5.83815
3.35766	6.41618
4.08759	6.99422
5.10949	7.63006
6.27737	8.03468
7.44526	8.49711
9.34307	8.84393
11.0949	9.13295
12.8467	9.36416
14.7445	9.53757
16.2044	9.71098
18.2482	9.82659
20.146	9.88439
22.0438	10
24.2336	10.1156
26.4234	10.1734
28.0292	10.2312
