Adsorption isotherm of Carbon Dioxide on UiO-66-S1
DOI: 10.1021/Ja404514r
Adsorbate Carbon Dioxide: InChIKey CURLTUGMZLYLDI-UHFFFAOYSA-N
Temperature: 240 K
Tabular data in the source: 0
pressure (bar)	uptake (mmol/g)
0.140349	0.310872
0.140349	2.40835
0.29329	4.26986
0.828584	5.89541
1.13447	7.23255
2.28153	8.62213
3.04623	9.40869
4.958	10.0641
7.0227	10.405
9.54623	10.7196
