Adsorption isotherm of Methane on PCN-5
DOI: 10.1021/Ic070338v
Adsorbate Methane: InChIKey VNWKTOKETHGBQD-UHFFFAOYSA-N
Temperature: 195 K
Tabular data in the source: 0
pressure (bar)	uptake (cm3(STP)/g)
0.00423246	4.11531
0.0126974	5.87535
0.0211623	8.22362
0.0380921	10.5672
0.0507895	12.9132
0.0677193	14.6685
0.0888816	15.8333
0.110044	16.9981
0.131206	18.7512
0.156601	19.9136
0.173531	21.669
0.198925	22.2432
0.232785	23.9893
0.270877	25.733
0.317434	26.8838
0.359759	28.6251
0.393618	29.7829
0.440175	30.9337
0.469803	32.0938
0.529057	33.2376
0.562917	34.3954
0.605241	35.5486
0.634868	36.1204
0.660263	36.6947
0.681425	37.2712
0.711053	37.2549
0.736447	38.4174
0.778772	38.9823
0.795702	38.9729
0.825329	39.5448
0.850724	40.119
0.880351	40.1027
0.914211	41.2605
0.952303	41.2395
0.99886	42.3903
