Adsorption isotherm of Carbon Dioxide on PCN-5
DOI: 10.1021/Ic070338v
Adsorbate Carbon Dioxide: InChIKey CURLTUGMZLYLDI-UHFFFAOYSA-N
Temperature: 195 K
Tabular data in the source: 0
pressure (bar)	uptake (cm3(STP)/g)
0.00423246	20.6897
0.00846491	27.7833
0.0126974	34.8768
0.0169298	41.3793
0.0253947	49.064
0.0338596	52.6108
0.0380921	56.1576
0.0507895	59.7044
0.0592544	63.8424
0.0804167	67.9803
0.0973465	70.936
0.114276	73.3005
0.131206	75.665
0.152368	78.6207
0.173531	79.803
0.198925	81.5764
0.228553	83.3498
0.27511	86.3054
0.317434	88.0788
0.355526	90.4433
0.397851	91.6256
0.440175	92.8079
0.4825	94.5813
0.520592	95.7635
0.562917	96.3547
0.601009	97.5369
0.639101	98.1281
0.664496	99.3103
0.68989	99.9015
0.70682	100.493
0.736447	101.084
0.766075	101.084
0.787237	102.266
0.821096	102.857
0.850724	103.448
0.880351	104.039
0.901513	105.222
0.943838	105.222
0.973465	106.404
1.00309	106.995
