Adsorption isotherm of Nitrogen on PCN-5
DOI: 10.1021/Ic070338v
Adsorbate Nitrogen: InChIKey IJGRMHOSHXDMSA-UHFFFAOYSA-N
Temperature: 77 K
Tabular data in the source: 0
pressure (bar)	uptake (cm3(STP)/g)
0.00240763	30.8323
0.00310136	16.6653
0.00338701	10.8319
0.00365225	5.4151
0.00565181	44.5809
0.0250761	47.9059
0.0406645	49.5659
0.0523354	51.2276
0.0640471	52.0559
0.0757792	52.4675
0.0953055	53.7091
0.114873	54.1174
0.134399	55.359
0.153966	55.7673
0.173533	56.1756
0.189183	56.5855
0.228317	57.4021
0.267451	58.2186
0.306585	59.0352
0.34574	59.4351
0.384874	60.2516
0.424029	60.6515
0.463163	61.468
0.49838	62.2863
0.537493	63.5195
0.584483	63.916
0.615782	64.7359
0.635349	65.1442
0.658834	65.5508
0.674484	65.9607
0.694051	66.369
0.717535	66.7756
0.733185	67.1856
0.752752	67.5938
0.772319	68.0021
0.795783	68.8254
0.819288	68.8153
0.831	69.6436
0.854485	70.0502
0.877969	70.4568
0.901433	71.2801
0.921001	71.6883
0.93665	72.0983
0.944404	73.7616
0.956095	75.0066
0.963848	76.67
