Adsorption isotherm of Hydrogen on PCN-5
DOI: 10.1021/Ic070338v
Adsorbate Hydrogen: InChIKey UFHFLCQGNIYNRP-UHFFFAOYSA-N
Temperature: 77 K
Tabular data in the source: 0
pressure (bar)	uptake (cm3(STP)/g)
0.00424932	0.394089
0.00849864	3.94089
0.012748	7.0936
0.0254959	13.0049
0.0382439	14.9754
0.0424932	18.1281
0.0552411	20.0985
0.0594905	22.069
0.0764877	24.8276
0.0849864	27.5862
0.101984	29.9507
0.118981	32.3153
0.152975	36.2562
0.182721	39.0148
0.191219	40.9852
0.216715	42.9557
0.267707	46.8966
0.301702	50.0493
0.369691	53.202
0.416433	54.3842
0.43768	55.5665
0.475924	56.3547
0.526915	57.931
0.556661	59.1133
0.603403	60.2956
0.641647	61.4778
0.68839	62.6601
0.718135	63.4483
0.735132	63.8424
0.74788	64.2365
0.773376	64.6305
0.803121	65.4187
0.828617	66.2069
0.862612	66.2069
0.883858	66.9951
0.905105	67.3892
0.93485	68.1773
0.960346	68.5714
0.99859	70.1478
1.02409	69.7537
1.04533	70.1478
1.06233	70.5419
1.06658	70.5419
