Adsorption isotherm of Carbon Dioxide on [Ru2(4-Cl-2-OMePhCO2)4(THF)2 ]
DOI: 10.1021/Ja4076056
Adsorbate Carbon Dioxide: InChIKey CURLTUGMZLYLDI-UHFFFAOYSA-N
Temperature: 195 K
Tabular data in the source: 0
pressure (bar)	uptake (mol/mol)
0.0477074	0.25906
0.0673713	0.455699
0.0782957	0.78343
0.108884	1.63553
0.156951	2.1599
0.220312	2.2036
0.314262	2.2473
0.423506	2.29099
0.52401	2.31284
0.624514	2.31284
0.725018	2.35654
0.829892	2.40024
0.932581	2.40024
0.978464	2.37839
