Adsorption isotherm of Oxygen on [Rh2(4-Cl-2-OMePhCO2)4(THF)2 ]
DOI: 10.1021/Ja4076056
Adsorbate Oxygen: InChIKey MYMOFIZGZYHOMD-UHFFFAOYSA-N
Temperature: 90 K
Tabular data in the source: 0
pressure (bar)	uptake (mol/mol)
0.0180263	0.623917
0.0180263	1.73943
0.0323278	2.28288
0.0480593	2.61182
0.0838129	2.78343
0.116706	2.88354
0.209665	3.02656
0.311206	3.14097
0.414176	3.19817
0.518576	3.26968
0.615826	3.34119
0.718796	3.39839
0.818906	3.4699
0.919016	3.55571
0.969071	3.77023
