Adsorption isotherm of Carbon Dioxide on [Rh2(4-Cl-2-OMePhCO2)4(THF)2 ]
DOI: 10.1021/Ja4076056
Adsorbate Carbon Dioxide: InChIKey CURLTUGMZLYLDI-UHFFFAOYSA-N
Temperature: 195 K
Tabular data in the source: 0
pressure (bar)	uptake (mol/mol)
0.0108756	0.0804628
0.0423388	0.638219
0.0637909	0.995754
0.0738019	1.31039
0.0823828	1.65362
0.116706	2.09696
0.219676	2.39729
0.311206	2.52601
0.417036	2.61182
0.515716	2.66902
0.618686	2.71193
0.718796	2.78343
0.821767	2.84064
0.924737	2.91215
0.976222	2.92645
