Adsorption isotherm of Nitrogen on [Rh2(4-Cl-2-OMePhCO2)4(THF)2 ]
DOI: 10.1021/Ja4076056
Adsorbate Nitrogen: InChIKey IJGRMHOSHXDMSA-UHFFFAOYSA-N
Temperature: 77 K
Tabular data in the source: 0
pressure (bar)	uptake (mol/mol)
0.035188	1.53921
0.0595005	1.72513
0.120997	1.86814
0.206805	2.02546
0.318356	2.11127
0.418466	2.16847
0.520007	2.22568
0.618686	2.29718
0.715936	2.34009
0.820337	2.39729
0.919016	2.4831
0.970502	2.59751
