Adsorption isotherm of Oxygen on [Ru2(4-Cl-2-OMePhCO2)4(THF)2 ]
DOI: 10.1021/Ja4076056
Adsorbate Oxygen: InChIKey MYMOFIZGZYHOMD-UHFFFAOYSA-N
Temperature: 90 K
Tabular data in the source: 0
pressure (bar)	uptake (mol/mol)
0.0105646	0.0842701
0.0258587	1.52629
0.0367831	2.09435
0.0455226	2.50948
0.0520772	2.88091
0.108884	3.07755
0.213758	3.18679
0.314262	3.23049
0.419136	3.27419
0.526195	3.25234
0.620144	3.25234
0.725018	3.33973
0.816783	3.31788
0.923842	3.36158
0.969724	3.64561
