Adsorption isotherm of Nitrogen on [Ru2(4-Cl-2-OMePhCO2)4(THF)2 ]
DOI: 10.1021/Ja4076056
Adsorbate Nitrogen: InChIKey IJGRMHOSHXDMSA-UHFFFAOYSA-N
Temperature: 77 K
Tabular data in the source: 0
pressure (bar)	uptake (mol/mol)
0.0193041	0.0624214
0.0782957	0.0842701
0.115439	0.127968
0.215943	0.106119
0.320817	0.106119
0.412581	0.106119
0.51527	0.106119
0.61796	0.171665
0.722834	0.171665
0.823338	0.193514
0.928212	0.280909
0.969724	0.455699
