Adsorption isotherm of Nitric oxide on [Ru2(4-Cl-2-OMePhCO2)4(THF)2 ]
DOI: 10.1021/Ja4076056
Adsorbate Nitric oxide: InChIKey MWUXSHHQAYIFBG-UHFFFAOYSA-N
Temperature: 121 K
Tabular data in the source: 0
pressure (bar)	uptake (mol/mol)
0.0036	0.171665
0.0149343	0.412001
0.0171192	0.892673
0.0193041	2.05066
0.0258587	3.18679
0.0302285	3.66746
0.0586318	3.9515
0.111069	4.06074
0.312077	4.21368
0.52401	4.38847
0.52838	5.41536
0.615775	6.15822
0.722834	7.03217
0.812413	7.57839
0.895439	7.86242
0.952245	8.36494
0.952245	8.64898
