Adsorption isotherm of Nitric oxide on [Rh2(4-Cl-2-OMePhCO2)4(THF)2 ]
DOI: 10.1021/Ja4076056
Adsorbate Nitric oxide: InChIKey MWUXSHHQAYIFBG-UHFFFAOYSA-N
Temperature: 121 K
Tabular data in the source: 0
pressure (bar)	uptake (mol/mol)
0.00944547	0.0804628
0.0194565	1.11017
0.0194565	1.4677
0.0294675	2.81204
0.0380483	3.21248
0.05521	3.52711
0.102405	3.74163
0.218246	4.09916
0.319786	4.61402
0.421327	5.05736
0.521437	5.32909
0.612966	5.4578
0.714506	5.55791
0.814616	5.78673
0.916156	5.95835
0.960491	6.34449
