Adsorption isotherm of Nitric oxide on [Ru2(4-Cl-2-OMePhCO2)4(THF)2 ]
DOI: 10.1021/Ja4076056
Adsorbate Nitric oxide: InChIKey MWUXSHHQAYIFBG-UHFFFAOYSA-N
Temperature: 121 K
Tabular data in the source: 0
pressure (bar)	uptake (mol/mol)
0.00282611	0.237211
0.0122177	0.280909
0.0155547	1.28595
0.0198032	2.07251
0.0226844	2.77167
0.0276018	3.40528
0.0335852	3.64561
0.0561054	3.88595
0.108995	3.97335
0.211744	4.14814
0.508135	4.30108
0.547965	5.41536
0.609025	6.07082
0.752315	6.94477
0.811284	7.53469
0.915398	7.99351
0.957797	8.67083
