Adsorption isotherm of Nitric oxide on [Rh2(4-Cl-2-OMePhCO2)4(THF)2 ]
DOI: 10.1021/Ja4076056
Adsorbate Nitric oxide: InChIKey MWUXSHHQAYIFBG-UHFFFAOYSA-N
Temperature: 121 K
Tabular data in the source: 0
pressure (bar)	uptake (mol/mol)
0.00235388	0.619871
0.00713634	0.859307
0.0101295	1.08466
0.0114952	1.52128
0.0145186	2.3241
0.0198215	2.80297
0.0238462	3.18325
0.0351911	3.39452
0.0509327	3.52128
0.103621	3.76072
0.208772	4.09874
0.296337	4.53536
0.392935	5.00015
0.608781	5.46494
0.807229	5.76072
0.943196	5.9579
0.980626	6.29593
