Adsorption isotherm of Nitrogen on ZnO-NRs
DOI: 10.1016/j.ultsonch.2016.05.004
Article source: Figure 4
Adsorbate Nitrogen: InChIKey IJGRMHOSHXDMSA-UHFFFAOYSA-N
Kind: experiment
Temperature: 77 K
Tabular data in the source: 0
pressure (bar)	uptake (cm3(STP)/g)
0.000871	107.78
0.000942	108.13
0.026203	163.05
0.066966	192.21
0.110667	212.21
0.153345	227.05
0.184705	234.64
0.193379	238.76
0.232014	247.84
0.238985	247.25
0.269616	255.62
0.294369	258.43
0.305312	262.49
0.340351	269.09
0.351081	270.07
0.37473	275.43
0.406901	278.05
0.409404	281.9
0.453987	288.7
0.462366	287.72
0.504082	296.88
0.518845	297.53
0.556528	305.9
0.575627	307.07
0.611324	315.31
0.632846	317.34
0.666789	324.86
0.690439	327.8
0.720917	334.86
0.748397	337.02
0.777994	344.6
0.806861	348.46
0.833672	355.39
0.866136	360.49
0.887587	367.35
0.925928	375.13
0.942525	382.13
0.965951	422.66
0.972193	432.53
0.972558	449.99
0.973146	462.6
