Adsorption isotherm of Nitrogen on Magnetic Activated Carbon Nanoparticles Coated with Hexamine-Silicotunstate-Methylene Blue Hybrid
DOI: 10.1155/2017/8575096
Article source: Figure 2
Adsorbate Nitrogen: InChIKey IJGRMHOSHXDMSA-UHFFFAOYSA-N
Kind: experiment
Temperature: 77 K
Tabular data in the source: 0
pressure (bar)	uptake (cm3(STP)/g)
0.08806	3.49
0.133817	3.773
0.141619	2.851
0.172421	3.294
0.184347	4.088
0.19758	3.42
0.222738	3.45
0.23662	4.403
0.271961	3.796
0.285407	4.717
0.322714	3.984
0.336808	5
0.373679	4.457
0.387773	5.378
0.423561	4.454
0.438526	5.756
0.474739	5.023
0.489491	6.166
0.52462	5.465
0.541105	6.672
0.574501	5.939
0.593378	7.177
0.623734	6.539
0.648244	8.349
0.673616	7.331
0.702462	9.839
0.721764	8.313
0.75517	11.934
0.770784	9.644
0.799195	14.251
0.818062	11.421
0.856463	18.887
0.861874	14.437
0.887904	17.074
0.910458	20.187
0.927612	33.056
0.962558	52.058
0.971647	40.522
0.988173	72.237
0.995762	66.866
1.01319	122.479
