Adsorption isotherm of Methylene blue, Water on Magnetic Activated Carbon Nanoparticles Coated with Hexamine-Silicotunstate-Methylene Blue Hybrid
DOI: 10.1155/2017/8575096
Article source: Figure 5
Adsorbate Methylene blue: InChIKey CXKWCBBOMKCUKX-UHFFFAOYSA-M
Adsorbate Water: InChIKey XLYOFNOQVPJJNP-UHFFFAOYSA-N
Kind: experiment
Temperature: 298 K
Tabular data in the source: 0
pressure (bar)	Methylene blue fraction	Methylene blue uptake (mg/g)	Water fraction	Water uptake (mg/g)	total uptake (mg/g)
1.01325	0.024	0.043			
1.01325	2.2468	6.271			
1.01325	3.4756	32.892			
1.01325	20.1207	45.643			
1.01325	34.3346	35.912			
