Adsorption isotherm of Carbon Dioxide on Cu2I2(BTTP4)
DOI: 10.1021/Ic4012229
Adsorbate Carbon Dioxide: InChIKey CURLTUGMZLYLDI-UHFFFAOYSA-N
Temperature: 298 K
Tabular data in the source: 0
pressure (bar)	uptake (wt%)
0.000797	0.0172057
0.00192128	0.338441
0.00585642	0.960835
0.00979155	1.64346
0.0156943	2.14539
0.0246888	2.6674
0.0449267	3.39018
0.0603861	3.89211
0.0758456	4.33381
0.0856834	4.73535
0.0986132	5.05659
0.112948	5.47821
0.124192	5.89983
0.134873	6.26122
0.143305	6.70292
0.151175	7.12454
0.158202	7.76701
