Adsorption isotherm of Carbon Dioxide on Cu2I2(BTTP4)
DOI: 10.1021/Ic4012229
Adsorbate Carbon Dioxide: InChIKey CURLTUGMZLYLDI-UHFFFAOYSA-N
Temperature: 195 K
Tabular data in the source: 0
pressure (bar)	uptake (wt%)
0.00153735	0.0932074
0.008899	1.95035
0.0273031	3.25537
0.0530689	4.46
0.0935579	5.26309
0.152451	5.96579
0.255514	6.56811
0.353056	7.01985
0.481885	7.57197
0.597831	7.92332
0.689851	8.17429
0.77267	8.42525
0.866531	8.57583
0.969594	8.72641
1.04873	8.92718
1.09474	8.92718
