Adsorption isotherm of Carbon Dioxide on Cu2I2(BTTP4)
DOI: 10.1021/Ic4012229
Adsorbate Carbon Dioxide: InChIKey CURLTUGMZLYLDI-UHFFFAOYSA-N
Temperature: 195 K
Tabular data in the source: 0
pressure (bar)	uptake (wt%)
0.00153735	0.0932074
0.0199415	5.56425
0.0273031	8.92718
0.0438668	15.4021
0.0530689	18.0623
0.0696326	20.0198
0.0953984	20.9233
0.137728	22.0276
0.198461	22.7303
0.268397	23.2824
0.360418	23.8345
0.457959	24.2361
0.544459	24.5372
0.636479	24.7882
0.732181	24.9388
0.81868	25.0392
0.912541	25.1897
0.980636	25.3905
1.05425	25.3905
1.09474	25.4909
