Adsorption isotherm of Methanol on Cu2I2(BTTP4)
DOI: 10.1021/Ic4012229
Adsorbate Methanol: InChIKey OKKJLVBELUTLKV-UHFFFAOYSA-N
Temperature: 298 K
Tabular data in the source: 0
pressure (bar)	uptake (wt%)
0.000797	0.0172057
0.00276452	0.679754
0.00669966	1.50292
0.00894831	2.28593
0.0109159	3.1091
0.0126024	3.61103
0.0170997	3.91219
0.0260943	4.27358
0.0373375	4.61489
0.0502672	4.99636
0.0662889	5.41798
0.0823105	5.69906
0.0949591	6.02029
0.114073	6.62261
0.126721	7.08439
0.134029	7.24501
0.139089	7.58632
0.146116	8.3091
0.150613	8.83111
