Adsorption isotherm of Nitrogen on UiO-67
DOI: 10.1021/La302869m
Adsorbate Nitrogen: InChIKey IJGRMHOSHXDMSA-UHFFFAOYSA-N
Temperature: 77 K
Tabular data in the source: 0
pressure (bar)	uptake (cm3(STP)/g)
0.00658518	286.476
0.00801532	308.644
0.0123058	321.515
0.0194565	331.526
0.0523498	342.252
0.102405	352.263
0.181063	355.838
0.25543	357.268
0.328367	357.268
0.384143	357.984
0.459941	358.699
0.537168	357.984
0.637278	357.268
0.713076	356.553
0.801745	355.838
0.877542	356.553
0.923307	360.844
0.961921	364.419
0.991954	380.866
