Adsorption isotherm of Nitrogen on UiO-66
DOI: 10.1021/La302869m
Adsorbate Nitrogen: InChIKey IJGRMHOSHXDMSA-UHFFFAOYSA-N
Temperature: 77 K
Tabular data in the source: 0
pressure (bar)	uptake (cm3(STP)/g)
0.00658518	7.5985
0.00801532	141.317
0.00944547	179.931
0.00944547	220.69
0.0266072	251.438
0.0595005	262.164
0.131008	267.885
0.226827	269.315
0.304055	270.745
0.402735	272.175
0.55576	275.035
0.65587	275.75
0.75312	276.465
0.85466	277.18
0.924737	282.901
0.970502	291.482
0.986233	306.498
