Adsorption isotherm of Nitrogen on UiO-66
DOI: 10.1021/La302869m
Adsorbate Nitrogen: InChIKey IJGRMHOSHXDMSA-UHFFFAOYSA-N
Temperature: 77 K
Tabular data in the source: 0
pressure (bar)	uptake (cm3(STP)/g)
0.00801532	150.613
0.0337579	158.479
0.0780923	159.909
0.15246	162.769
0.225397	162.054
0.278312	162.769
0.35125	163.484
0.45422	163.484
0.55433	165.629
0.65444	166.344
0.75169	167.059
0.85323	169.205
0.929027	175.64
0.95334	181.361
0.967641	188.512
0.987663	205.673
