Adsorption isotherm of Nitrogen on UiO-67
DOI: 10.1021/La302869m
Adsorbate Nitrogen: InChIKey IJGRMHOSHXDMSA-UHFFFAOYSA-N
Temperature: 77 K
Tabular data in the source: 0
pressure (bar)	uptake (cm3(STP)/g)
0.00229475	338.677
0.00944547	370.855
0.0137359	385.871
0.0223168	398.028
0.0509196	409.469
0.103835	422.34
0.15818	429.491
0.225397	431.636
0.301195	433.066
0.376992	434.496
0.45279	435.211
0.528587	435.211
0.601525	435.926
0.728807	435.926
0.828917	435.926
0.900425	437.356
0.941899	440.217
0.977652	446.652
0.989093	453.088
