Adsorption isotherm of Nitrogen on UiO-67
DOI: 10.1021/La302869m
Adsorbate Nitrogen: InChIKey IJGRMHOSHXDMSA-UHFFFAOYSA-N
Temperature: 77 K
Tabular data in the source: 0
pressure (bar)	uptake (cm3(STP)/g)
0.00944547	185.651
0.0180263	209.964
0.0523498	217.83
0.128147	223.55
0.203945	224.98
0.276882	225.695
0.362691	225.695
0.439919	224.265
0.508565	224.265
0.615826	222.835
0.691624	222.835
0.764561	221.405
0.838928	222.835
0.901855	222.835
0.941899	225.695
0.979082	232.846
0.994814	247.863
