Adsorption isotherm of Nitrogen on UiO-66
DOI: 10.1021/La302869m
Adsorbate Nitrogen: InChIKey IJGRMHOSHXDMSA-UHFFFAOYSA-N
Temperature: 77 K
Tabular data in the source: 0
pressure (bar)	uptake (cm3(STP)/g)
0.00515504	149.183
0.00515504	187.797
0.00515504	227.841
0.0123058	285.046
0.0308976	305.068
0.0595005	311.504
0.128147	315.079
0.202515	318.655
0.278312	319.37
0.35268	318.655
0.521437	322.23
0.620117	320.085
0.75312	320.085
0.85323	322.23
0.924737	325.805
0.971932	335.101
0.990524	352.263
