Adsorption isotherm of Nitrogen on {[ZnL(HCO2)(H2O)]*DMF}
DOI: 10.1039/C3dt51123e
Adsorbate Nitrogen: InChIKey IJGRMHOSHXDMSA-UHFFFAOYSA-N
Temperature: 77 K
Tabular data in the source: 0
pressure (bar)	uptake (ml/g)
0.00515504	1.34086
0.00944547	3.22865
0.0237469	4.51578
0.0523498	5.28806
0.129577	6.06033
0.209665	6.83261
0.306915	8.20555
0.409885	9.14944
0.507135	10.3508
0.608675	11.8095
0.711646	13.6973
0.761701	14.5554
0.816046	16.1857
0.860381	17.8161
0.906145	20.991
0.95763	27.4267
0.980513	35.6643
0.994814	57.0306
