Adsorption isotherm of Methanol on {[ZnL(HCO2)(H2O)]*DMF}
DOI: 10.1039/C3dt51123e
Adsorbate Methanol: InChIKey OKKJLVBELUTLKV-UHFFFAOYSA-N
Temperature: 298 K
Tabular data in the source: 0
pressure (bar)	uptake (ml/g)
0.00843546	9.16484
0.050689	11.9113
0.0999848	14.6578
0.163365	18.3198
0.263365	20.1508
0.352097	22.8972
0.454914	24.7282
0.55914	29.3057
0.676041	33.8831
0.763365	36.6296
0.850689	40.2916
0.905619	41.2071
0.966182	43.0381
0.984492	43.9536
