Adsorption isotherm of Water on {[ZnL(HCO2)(H2O)]*DMF}
DOI: 10.1039/C3dt51123e
Adsorbate Water: InChIKey XLYOFNOQVPJJNP-UHFFFAOYSA-N
Temperature: 298 K
Tabular data in the source: 0
pressure (bar)	uptake (ml/g)
0.00421011	17.4043
0.0873087	41.2071
0.180266	63.1789
0.280266	89.7282
0.343647	113.531
0.387309	140.996
0.411252	181.278
0.44083	260.01
0.474633	335.996
0.518295	421.137
0.560548	470.573
0.592942	498.954
0.647872	520.01
0.699985	530.08
0.781675	544.728
0.849281	560.292
0.905619	575.855
0.950689	600.573
0.97745	614.306
