Adsorption isotherm of Carbon Dioxide on {[ZnL(HCO2)(H2O)]*DMF}
DOI: 10.1039/C3dt51123e
Adsorbate Carbon Dioxide: InChIKey CURLTUGMZLYLDI-UHFFFAOYSA-N
Temperature: 195 K
Tabular data in the source: 0
pressure (bar)	uptake (ml/g)
0.00372489	4.25835
0.00372489	18.9316
0.00515504	7.60489
0.00515504	14.1263
0.00658518	21.5917
0.0108756	24.6808
0.0223168	26.9118
0.0394785	29.1428
0.0780923	31.5455
0.126717	33.6049
0.178202	35.3211
0.25257	36.694
0.305485	37.8095
0.402735	38.925
0.504275	40.298
0.608675	41.5851
0.708785	42.529
0.813186	43.9877
0.913296	45.0174
0.95906	45.7039
