Adsorption isotherm of Ethanol on {[ZnL(HCO2)(H2O)]*DMF}
DOI: 10.1039/C3dt51123e
Adsorbate Ethanol: InChIKey LFQSCWFLJHTTHZ-UHFFFAOYSA-N
Temperature: 298 K
Tabular data in the source: 0
pressure (bar)	uptake (ml/g)
0.00843546	1.8409
0.050689	2.75639
0.105619	1.8409
0.184492	1.8409
0.257731	1.8409
0.314069	1.8409
0.416886	1.8409
0.515478	1.8409
0.618295	1.8409
0.715478	1.8409
0.778858	1.8409
0.876041	3.67188
0.918295	6.41836
0.953506	10.0803
