Adsorption isotherm of Nitrogen on [Co2L(DPE)] 2DMF 5H2O
DOI: 10.1039/C3ce40621k
Adsorbate Nitrogen: InChIKey IJGRMHOSHXDMSA-UHFFFAOYSA-N
Temperature: 77 K
Tabular data in the source: 0
pressure (bar)	uptake (cm3(STP)/g)
14.9313	1.21212
20.5432	1.93939
24.2845	2.42424
48.5408	4.24242
95.1884	7.75758
147.358	10.0606
195.803	12.2424
249.815	14.1818
298.237	15.8788
341.071	17.3333
393.211	19.0303
439.735	19.8788
495.589	21.4545
540.248	22.1818
588.631	23.0303
638.862	23.6364
681.667	24.4848
733.763	25.2121
780.265	25.5758
845.388	26.5455
