Adsorption isotherm of Nitrogen on [Co2L(DPE)] 2DMF 5H2O
DOI: 10.1039/C3ce40621k
Adsorbate Nitrogen: InChIKey IJGRMHOSHXDMSA-UHFFFAOYSA-N
Temperature: 77 K
Tabular data in the source: 0
pressure (bar)	uptake (cm3(STP)/g)
0.00656707	4.07136
0.00998499	9.49569
0.0135614	15.0708
0.0184746	19.7432
0.0266266	25.3218
0.0362739	30.1486
0.0384239	34.3671
0.0419797	35.5747
0.0471892	36.1812
0.0705426	36.6511
0.093896	37.121
0.11725	37.5909
0.140444	37.9101
0.158905	38.075
0.175237	38.3888
0.195827	38.4048
0.211842	38.4172
0.23259	38.5839
0.294678	38.9332
0.331282	38.9616
0.379168	38.8481
0.429499	38.8871
0.481959	38.7772
0.527557	38.6619
0.57576	38.8499
0.625932	38.7382
0.673817	38.6247
0.719414	38.5094
0.769588	38.3977
0.817948	38.7364
0.834122	38.8995
0.863705	38.7719
0.893446	38.7949
0.918611	38.8144
0.948352	38.8375
0.964684	39.1513
0.99064	39.9245
1.01234	40.9955
