Adsorption isotherm of Nitrogen on [Zn2L(DPE)] 2.5DMF 2H2O
DOI: 10.1039/C3ce40621k
Adsorbate Nitrogen: InChIKey IJGRMHOSHXDMSA-UHFFFAOYSA-N
Temperature: 77 K
Tabular data in the source: 0
pressure (bar)	uptake (cm3(STP)/g)
53.9893	1.45455
104.254	2.78788
158.221	3.75758
210.34	4.9697
251.29	5.93939
299.68	6.90909
348.063	7.75758
400.176	8.84848
448.57	9.93939
495.093	10.7879
543.476	11.6364
595.584	12.6061
636.523	13.3333
686.771	14.303
733.296	15.1515
785.397	16
831.921	16.8485
