Adsorption isotherm of Nitrogen on [Zn2L(DPE)] 2.5DMF 2H2O
DOI: 10.1039/C3ce40621k
Adsorbate Nitrogen: InChIKey IJGRMHOSHXDMSA-UHFFFAOYSA-N
Temperature: 77 K
Tabular data in the source: 0
pressure (bar)	uptake (cm3(STP)/g)
0.00214997	4.21853
0.00785568	9.64464
0.0158492	15.0725
0.0171378	20.6458
0.0248143	25.7722
0.0274397	30.443
0.0438815	37.3834
0.0442881	39.944
0.0486363	41.9052
0.0732577	43.5809
0.0995332	44.6555
0.12762	45.2796
0.150657	45.4481
0.173852	45.7673
0.201781	46.2407
0.233968	46.4163
0.247695	46.4269
0.307019	46.3223
0.332185	46.3418
0.386616	45.9322
0.441365	45.824
0.484675	45.707
0.534372	45.1431
0.581782	44.5774
0.629667	44.464
0.679206	43.7493
0.729379	43.6376
0.774342	42.9195
0.822069	42.6552
0.842976	42.9727
0.872559	42.845
0.886286	42.8556
0.91981	42.1286
0.943005	42.4478
0.973065	42.7723
0.998859	43.3947
1.01386	44.6111
