Adsorption isotherm of Nitrogen on [Zn2L(DPE)] 2.5DMF 2H2O
DOI: 10.1039/C3ce40621k
Adsorbate Nitrogen: InChIKey IJGRMHOSHXDMSA-UHFFFAOYSA-N
Temperature: 77 K
Tabular data in the source: 0
pressure (bar)	uptake (cm3(STP)/g)
22.4702	3.39394
46.811	7.0303
95.3743	11.7576
145.763	15.7576
196.113	18.9091
244.586	21.697
291.183	24.1212
345.201	26.1818
389.91	28
440.197	29.8182
488.608	31.2727
538.879	32.7273
585.414	33.8182
631.977	35.5152
684.101	36.8485
732.507	38.1818
780.901	39.2727
833.019	40.4848
