Adsorption isotherm of Nitrogen on [Co2L(DPE)] 2DMF 5H2O
DOI: 10.1039/C3ce40621k
Adsorbate Nitrogen: InChIKey IJGRMHOSHXDMSA-UHFFFAOYSA-N
Temperature: 77 K
Tabular data in the source: 0
pressure (bar)	uptake (cm3(STP)/g)
27.913	0.484848
53.9555	0.727273
107.906	1.33333
148.834	1.81818
199.065	2.42424
253.015	3.0303
305.106	3.63636
346.022	3.87879
394.394	4.48485
442.766	5.09091
492.998	5.69697
537.639	6.06061
584.168	7.0303
639.961	7.27273
695.775	8
738.564	8.48485
783.228	9.33333
831.6	9.93939
