Adsorption isotherm of Carbon Dioxide on NH2-MIL-53(Al)
DOI: 10.1039/C3cp55416c
Adsorbate Carbon Dioxide: InChIKey CURLTUGMZLYLDI-UHFFFAOYSA-N
Temperature: 273 K
Tabular data in the source: 0
pressure (bar)	uptake (mmol/g)
0.0096823	0.586047
0.0505671	1.36744
0.0992869	1.69302
0.292052	1.95349
0.484284	2.08372
0.983173	2.27907
1.16378	2.34419
1.80377	2.4093
2.13511	2.47442
2.7039	2.60465
3.31024	2.66977
4.05266	2.73488
4.96147	2.8
7.43515	2.86512
9.41304	2.86512
13.1868	2.93023
16.6998	3.06047
21.149	3.1907
24.2003	3.1907
