Adsorption isotherm of Carbon Dioxide on NH2-MIL-53(Al)
DOI: 10.1039/C3cp55416c
Adsorbate Carbon Dioxide: InChIKey CURLTUGMZLYLDI-UHFFFAOYSA-N
Temperature: 298 K
Tabular data in the source: 0
pressure (bar)	uptake (mmol/g)
7.02296	2.15691
8.26552	2.1555
10.0531	2.27346
12.6302	2.33131
16.9344	2.32877
21.2995	2.86525
26.8491	4.35897
29.6722	5.31537
36.1443	6.09144
