Adsorption isotherm of Methane on NH2-MIL-53(Al)
DOI: 10.1039/C3cp55416c
Adsorbate Methane: InChIKey VNWKTOKETHGBQD-UHFFFAOYSA-N
Temperature: 298 K
Tabular data in the source: 0
pressure (bar)	uptake (mmol/g)
0.0100055	0.107915
0.0506819	0.241213
0.102494	0.329194
0.308937	0.677104
0.504917	1.002
0.992499	1.52157
1.23078	1.71631
1.84094	2.6669
2.08204	2.79668
2.50576	3.12086
3.10806	3.35877
3.62552	3.55338
5.24723	4.05065
7.14134	4.48302
8.32933	4.65605
9.13629	4.78576
12.0529	5.11015
15.4177	5.3913
17.9784	5.52116
20.3371	5.69411
26.0094	5.9321
