Adsorption isotherm of Carbon Dioxide on NH2-MIL-53(Al)
DOI: 10.1039/C3cp55416c
Adsorbate Carbon Dioxide: InChIKey CURLTUGMZLYLDI-UHFFFAOYSA-N
Temperature: 263 K
Tabular data in the source: 0
pressure (bar)	uptake (mmol/g)
0.00661011	0.195349
0.00902295	0.325581
0.01367	0.716279
0.0186628	0.911628
0.0263789	1.17209
0.0360077	1.30233
0.0564332	1.43256
0.0797396	1.56279
0.108828	1.62791
0.133909	1.69302
0.182789	1.82326
0.258196	1.82326
0.340424	1.88837
0.480939	1.95349
0.634103	2.0186
0.895839	2.08372
1.26561	2.14884
1.72759	2.27907
2.44068	2.34419
3.33104	2.4093
4.70598	2.47442
6.42273	2.53953
8.76718	2.66977
12.388	2.8
13.2954	3.45116
14.2692	4.10233
15.8497	4.68837
17.0106	5.33953
18.8982	5.9907
20.2824	6.64186
22.5289	7.22791
25.0288	7.87907
27.8016	8.46512
30.8866	9.11628
34.3084	9.70233
