Adsorption isotherm of Methane on NH2-MIL-53(Al)
DOI: 10.1039/C3cp55416c
Adsorbate Methane: InChIKey VNWKTOKETHGBQD-UHFFFAOYSA-N
Temperature: 298 K
Tabular data in the source: 0
pressure (bar)	uptake (mmol/g)
0.050643	0.0901323
0.102381	0.113364
0.298772	0.115874
0.502643	0.117093
0.985303	0.0970876
1.184	0.119101
1.76226	0.09845
2.05357	0.0988085
2.54437	0.120893
3.05717	0.121324
3.67291	0.100171
4.02643	0.121969
5.14316	0.122543
7.42352	0.0802371
9.48244	0.0808107
13.277	0.0815995
18.5922	0.103971
25.2482	0.104688
