Adsorption isotherm of Carbon Dioxide on NH2-MIL-53(Al)
DOI: 10.1039/C3cp55416c
Adsorbate Carbon Dioxide: InChIKey CURLTUGMZLYLDI-UHFFFAOYSA-N
Temperature: 257 K
Tabular data in the source: 0
pressure (bar)	uptake (mmol/g)
0.00193378	0.390698
0.00261503	0.586047
0.00365685	0.781395
0.0049451	1.04186
0.00668718	1.23721
0.00935134	1.43256
0.0130769	1.49767
0.0176837	1.62791
0.0247289	1.69302
0.0334404	1.82326
0.045221	1.75814
0.0591351	1.95349
0.0799674	2.08372
0.104573	1.95349
0.136748	2.21395
0.191227	2.21395
0.267411	2.27907
0.373956	2.27907
0.522938	2.4093
0.707147	2.4093
0.924741	2.53953
1.29315	2.60465
1.69106	2.73488
2.36478	2.8
3.30689	2.86512
4.47188	2.93023
6.25345	3.06047
7.64716	3.64651
7.90788	4.29767
8.45629	4.94884
8.7448	5.6
9.35126	6.25116
9.6703	6.83721
10.6937	7.68372
11.4354	8.33488
12.2287	8.98605
13.5229	9.57209
