Adsorption isotherm of Carbon Dioxide on NH2-MIL-53(Al)
DOI: 10.1039/C3cp55416c
Adsorbate Carbon Dioxide: InChIKey CURLTUGMZLYLDI-UHFFFAOYSA-N
Temperature: 298 K
Tabular data in the source: 0
pressure (bar)	uptake (mmol/g)
0.0209618	0.193548
0.0287862	0.387097
0.0409492	0.580645
0.0524068	0.709677
0.0694764	0.903226
0.109855	1.03226
0.150859	1.29032
0.207171	1.41935
0.294707	1.6129
0.419228	1.67742
0.500012	1.74194
0.711279	1.80645
0.976787	1.87097
1.59985	2
2.44208	2.12903
3.59849	2.25806
5.894	2.32258
8.6852	2.32258
15.2641	2.51613
20.2358	2.90323
22.4926	3.54839
24.1351	4.12903
26.8269	4.77419
29.8188	5.35484
35.5648	5.93548
40.9487	6.51613
47.1487	7.09677
