Adsorption isotherm of Carbon Dioxide on NH2-MIL-53(Al)
DOI: 10.1039/C3cp55416c
Adsorbate Carbon Dioxide: InChIKey CURLTUGMZLYLDI-UHFFFAOYSA-N
Temperature: 263 K
Tabular data in the source: 0
pressure (bar)	uptake (mmol/g)
0.01	0.325581
0.0502913	0.976744
0.1	1.36744
0.290195	1.75814
0.50291	1.88837
0.966207	2.08372
1.18749	2.14884
1.85635	2.27907
2.28145	2.34419
2.80388	2.34419
3.21707	2.47442
4.09204	2.47442
4.85926	2.47442
6.85204	2.60465
8.71565	2.73488
10.3498	2.8
13.1644	2.86512
16.1793	2.86512
19.8843	2.86512
25.2924	2.99535
30.0338	2.99535
