Adsorption isotherm of Carbon Dioxide on NH2-MIL-53(Al)
DOI: 10.1039/C3cp55416c
Adsorbate Carbon Dioxide: InChIKey CURLTUGMZLYLDI-UHFFFAOYSA-N
Temperature: 257 K
Tabular data in the source: 0
pressure (bar)	uptake (mmol/g)
0.00967023	0.976744
0.0500068	1.75814
0.0977892	1.95349
0.295713	2.21395
0.489013	2.4093
0.988895	2.53953
1.09353	2.60465
1.86999	2.73488
2.36478	2.8
2.9904	2.86512
3.91048	2.93023
4.782	2.99535
6.91528	3.12558
8.45629	3.12558
10	3.25581
12.2287	3.32093
15.9912	3.32093
18.9104	3.45116
