Adsorption isotherm of Carbon Dioxide on NH2-MIL-53(Al)
DOI: 10.1039/C3cp55416c
Adsorbate Carbon Dioxide: InChIKey CURLTUGMZLYLDI-UHFFFAOYSA-N
Temperature: 298 K
Tabular data in the source: 0
pressure (bar)	uptake (mmol/g)
0.01	0
0.04884	0.451613
0.102376	0.709677
0.294707	1.16129
0.500012	1.41935
0.976787	1.6129
1.16501	1.74194
1.71668	1.87097
2.12095	1.93548
2.71438	2.06452
3.59849	2.12903
4.60543	2.19355
6.78625	2.25806
8.38436	2.32258
10.7303	2.45161
14.2253	2.45161
19.5353	2.51613
26.8269	2.58065
36.8409	2.64516
