Adsorption isotherm of Carbon Dioxide on NH2-MIL-53(Al)
DOI: 10.1039/C3cp55416c
Adsorbate Carbon Dioxide: InChIKey CURLTUGMZLYLDI-UHFFFAOYSA-N
Temperature: 257 K
Tabular data in the source: 0
pressure (bar)	uptake (mmol/g)
0.01	0
0.0500068	0.130233
0.0977892	0.130233
0.295713	0.325581
0.505685	0.390698
0.956269	0.716279
1.16939	0.846512
1.80834	0.976744
2.0679	1.10698
2.36478	1.17209
2.7964	1.23721
3.30689	1.43256
3.65687	1.43256
4.62434	1.62791
7.15105	1.88837
7.90788	2.14884
9.35126	2.08372
11.8255	2.27907
14.9541	2.4093
17.1005	2.53953
19.5551	2.53953
