Adsorption isotherm of Carbon Dioxide on NH2-MIL-53(Al)
DOI: 10.1039/C3cp55416c
Adsorbate Carbon Dioxide: InChIKey CURLTUGMZLYLDI-UHFFFAOYSA-N
Temperature: 263 K
Tabular data in the source: 0
pressure (bar)	uptake (mmol/g)
6.81852	2.7425
7.97774	2.74112
9.02069	3.95743
9.89418	4.74792
11.9078	6.14629
14.8027	7.11828
16.2405	7.78703
19.5727	8.57669
24.3271	9.60956
