Adsorption isotherm of Carbon Dioxide on NH2-MIL-53(Al)
DOI: 10.1039/C3cp55416c
Adsorbate Carbon Dioxide: InChIKey CURLTUGMZLYLDI-UHFFFAOYSA-N
Temperature: 273 K
Tabular data in the source: 0
pressure (bar)	uptake (mmol/g)
0.00307616	0.195349
0.00416794	0.390698
0.00584072	0.586047
0.00791491	0.846512
0.010724	1.04186
0.0150281	1.23721
0.0203553	1.30233
0.0275711	1.36744
0.0457196	1.49767
0.0578998	1.62791
0.0662543	1.62791
0.0928015	1.62791
0.121571	1.82326
0.164668	1.88837
0.230685	1.95349
0.323117	1.95349
0.452658	2.0186
0.634133	2.08372
0.858915	2.14884
1.16378	2.34419
1.62982	2.27907
2.13476	2.4093
2.99109	2.53953
4.19015	2.60465
6.27928	2.66977
8.22981	3.06047
8.23759	3.45116
8.82572	4.10233
9.45584	4.75349
10.4766	5.33953
11.6091	5.9907
12.0163	6.31628
13.7696	6.90233
15.2584	7.55349
17.4844	8.13953
20.0355	8.72558
23.746	9.31163
