Adsorption isotherm of Carbon Dioxide on NH2-MIL-53(Al)
DOI: 10.1039/C3cp55416c
Adsorbate Carbon Dioxide: InChIKey CURLTUGMZLYLDI-UHFFFAOYSA-N
Temperature: 298 K
Tabular data in the source: 0
pressure (bar)	uptake (mmol/g)
0.04884	0.516129
0.0988321	1.09677
0.294707	2.96774
0.500012	4.19355
1.01181	5.6129
1.16501	6
1.77828	6.51613
1.97661	6.70968
2.44208	6.96774
2.91266	7.22581
3.23743	7.29032
3.72761	7.48387
4.94174	7.6129
6.78625	7.93548
8.6852	8.06452
10	8.3871
11.927	8.32258
15.2641	8.51613
19.5353	8.64516
23.2997	8.64516
29.8188	8.64516
35.5648	8.45161
40.9487	8.25806
