Adsorption isotherm of Carbon Dioxide on NH2-MIL-53(Al)
DOI: 10.1039/C3cp55416c
Adsorbate Carbon Dioxide: InChIKey CURLTUGMZLYLDI-UHFFFAOYSA-N
Temperature: 257 K
Tabular data in the source: 0
pressure (bar)	uptake (mmol/g)
0.00967023	0.586047
0.0500068	2.93023
0.0977892	4.8186
0.295713	6.96744
0.505685	7.68372
0.988895	8.46512
1.16939	8.59535
1.80834	8.98605
1.99972	9.05116
2.4454	9.24651
2.89181	9.31163
3.53623	9.50698
4.0439	9.63721
4.94504	9.70233
6.91528	9.89767
8.17749	10.0279
10	10.093
11.8255	10.093
15.4639	10.093
18.9104	10.1581
