Adsorption isotherm of Carbon Dioxide on NH2-MIL-53(Al)
DOI: 10.1039/C3cp55416c
Adsorbate Carbon Dioxide: InChIKey CURLTUGMZLYLDI-UHFFFAOYSA-N
Temperature: 257 K
Tabular data in the source: 0
pressure (bar)	uptake (mmol/g)
5.33698	2.70455
5.59642	2.70455
5.96001	2.81061
6.27172	2.91667
6.53133	2.9697
6.89592	3.34091
7.26049	3.71212
7.62508	4.08333
7.93776	4.45455
8.25066	4.87879
8.66692	5.19697
9.08338	5.56818
9.49946	5.83333
9.91572	6.15152
10.3318	6.41667
10.7995	6.62879
11.2675	6.89394
11.7355	7.15909
12.203	7.31818
12.7225	7.47727
13.1902	7.68939
13.6578	7.84848
14.1774	8.06061
14.6448	8.16667
15.1643	8.32576
15.6318	8.48485
16.1511	8.59091
16.6186	8.75
17.1379	8.85606
17.5536	9.01515
18.073	9.17424
18.5404	9.2803
19.2155	9.43939
19.7349	9.59848
20.358	9.70455
20.9291	9.81061
