Adsorption isotherm of Carbon Dioxide on NH2-MIL-53(Al)
DOI: 10.1039/C3cp55416c
Adsorbate Carbon Dioxide: InChIKey CURLTUGMZLYLDI-UHFFFAOYSA-N
Temperature: 257 K
Tabular data in the source: 0
pressure (bar)	uptake (mmol/g)
7.11246	3.45753
8.62303	4.54675
9.50517	5.5762
10.4689	6.24202
13.0954	7.14915
15.8745	8.17776
17.4816	8.78298
21.1768	9.50857
