Adsorption isotherm of Carbon Dioxide on NH2-MIL-53(Al)
DOI: 10.1039/C3cp55416c
Adsorbate Carbon Dioxide: InChIKey CURLTUGMZLYLDI-UHFFFAOYSA-N
Temperature: 273 K
Tabular data in the source: 0
pressure (bar)	uptake (mmol/g)
4.05437	2.33333
4.70524	2.33333
6.00761	2.43939
6.90285	2.49242
7.71642	2.49242
8.61198	2.59848
9.4259	2.65152
10.2395	2.65152
10.9723	2.75758
11.7862	2.81061
12.5197	3.02273
13.0913	3.39394
13.7441	3.71212
14.3154	4.0303
14.9685	4.40152
15.5398	4.7197
16.1112	5.03788
16.7639	5.35606
17.4166	5.67424
17.9063	5.93939
18.3954	6.09848
19.0478	6.36364
19.7815	6.62879
20.515	6.84091
21.2488	7.10606
21.9819	7.26515
22.7968	7.47727
23.5299	7.63636
24.2633	7.84848
25.0779	8.00758
25.811	8.16667
26.6255	8.32576
27.3587	8.48485
28.0918	8.64394
28.9063	8.80303
29.6395	8.96212
30.454	9.12121
31.1872	9.2803
32.0017	9.43939
32.7348	9.59848
33.4683	9.81061
34.0387	9.9697
