Adsorption isotherm of Carbon Dioxide on NH2-MIL-53(Al)
DOI: 10.1039/C3cp55416c
Adsorbate Carbon Dioxide: InChIKey CURLTUGMZLYLDI-UHFFFAOYSA-N
Temperature: 263 K
Tabular data in the source: 0
pressure (bar)	uptake (mmol/g)
0.00999518	-0.195349
0.0491355	1.30233
0.102334	4.68837
0.298985	5.27442
0.503072	6.18605
1.00633	7.22791
1.1966	7.42326
1.81318	7.87907
2.08248	8.0093
2.47622	8.20465
2.94395	8.33488
3.6236	8.53023
4.0205	8.66047
4.94869	8.85581
6.99359	9.05116
8.60677	9.1814
11.3514	9.37674
15.4924	9.44186
17.7906	9.50698
20.4263	9.50698
