Adsorption isotherm of Carbon Dioxide on NH2-MIL-53(Al)
DOI: 10.1039/C3cp55416c
Adsorbate Carbon Dioxide: InChIKey CURLTUGMZLYLDI-UHFFFAOYSA-N
Temperature: 273 K
Tabular data in the source: 0
pressure (bar)	uptake (mmol/g)
0.00935414	0.260465
0.048976	2.08372
0.0998017	3.84186
0.305197	6.25116
0.506886	7.03256
0.996506	7.87907
1.17991	8.07442
1.76958	8.46512
2.09498	8.59535
2.48096	8.85581
2.93718	8.98605
3.47728	9.11628
3.98025	9.24651
4.8736	9.37674
6.82967	9.57209
8.36123	9.63721
10.2362	9.70233
12.9613	9.76744
15.3398	9.76744
18.7798	9.83256
20.7778	9.83256
