Adsorption isotherm of Carbon Dioxide on NH2-MIL-53(Al)
DOI: 10.1039/C3cp55416c
Adsorbate Carbon Dioxide: InChIKey CURLTUGMZLYLDI-UHFFFAOYSA-N
Temperature: 273 K
Tabular data in the source: 0
pressure (bar)	uptake (mmol/g)
6.6916	2.66166
8.63237	2.65949
9.8098	2.77654
11.9316	3.83815
15.5124	5.54899
16.581	6.19821
20.1461	7.02355
26.094	7.90741
30.7107	8.73302
