Adsorption isotherm of Carbon Dioxide on NH2-MIL-53(Al)
DOI: 10.1039/C3cp55416c
Adsorbate Carbon Dioxide: InChIKey CURLTUGMZLYLDI-UHFFFAOYSA-N
Temperature: 298 K
Tabular data in the source: 0
pressure (bar)	uptake (mmol/g)
6.88801	2.33333
8.39139	2.38636
10.0446	2.38636
11.0965	2.38636
12.7496	2.38636
14.8547	2.49242
16.0576	2.54545
17.8615	2.59848
19.3649	2.65152
20.2689	2.86364
21.4746	3.18182
22.5306	3.55303
23.5865	3.92424
24.642	4.24242
25.8476	4.56061
27.2036	4.87879
28.4087	5.14394
29.7636	5.35606
31.1189	5.62121
32.7744	5.83333
33.9778	5.93939
35.4817	6.04545
36.8354	6.15152
38.1897	6.31061
39.6937	6.41667
41.0479	6.57576
42.5524	6.73485
43.9067	6.89394
45.4107	7
46.765	7.15909
48.2689	7.26515
49.4729	7.42424
