Adsorption isotherm of Carbon Dioxide on NH2-MIL-53(Al)
DOI: 10.1039/C3cp55416c
Adsorbate Carbon Dioxide: InChIKey CURLTUGMZLYLDI-UHFFFAOYSA-N
Temperature: 263 K
Tabular data in the source: 0
pressure (bar)	uptake (mmol/g)
2.83362	2.43939
3.39017	2.49242
4.07035	2.54545
4.87418	2.59848
5.49254	2.65152
6.04935	2.75758
6.54386	2.75758
7.16294	2.9697
7.53381	2.9697
7.7202	3.18182
8.09249	3.5
8.34186	3.97727
8.59051	4.29545
8.96257	4.56061
9.45872	4.93182
9.89283	5.25
10.389	5.62121
10.9467	5.93939
11.3806	6.20455
11.9381	6.4697
12.4956	6.73485
13.1149	7
13.796	7.26515
14.353	7.42424
14.9721	7.63636
15.5294	7.84848
16.2103	8.06061
16.7671	8.16667
17.51	8.43182
18.1286	8.53788
18.6856	8.69697
19.3661	8.80303
20.1704	8.96212
20.9128	9.12121
21.6553	9.2803
22.2121	9.38636
22.8925	9.49242
23.5114	9.65152
24.3156	9.81061
24.9961	9.91667
