Adsorption isotherm of Nitrogen on HFH-COF-7
DOI: 10.1039/d1cc02646a
Article source: Figure S15
Adsorbate Nitrogen: InChIKey IJGRMHOSHXDMSA-UHFFFAOYSA-N
Kind: experiment
Temperature: 77 K
Tabular data in the source: 0
pressure (bar)	uptake (cm3(STP)/g)
0.01904	40.417
0.033736	77.575
0.035369	57.8774
0.053876	87.8673
0.052787	68.3052
0.038635	46.2372
0.074196	99.5076
0.074559	78.4298
0.094154	108.986
0.09742	91.2705
0.112116	119.535
0.13661	128.091
0.127465	101.674
0.15947	112.684
0.172534	131.708
0.201926	116.079
0.211361	136.32
0.250913	139.941
0.257445	115.473
0.290103	139.99
0.296635	116.685
0.329293	139.675
0.335825	118.14
0.368483	139.408
0.37828	119.535
0.407673	140.984
0.414204	120.323
0.446863	141.251
0.453394	121.778
0.486052	141.227
0.489318	122.917
0.525242	141.178
0.538305	124.082
0.564432	142.512
0.574229	124.809
0.603622	142.997
0.616685	125.658
0.642812	142.803
0.656528	127.089
0.684334	142.54
0.695065	127.638
0.721191	144.646
0.733788	130.733
0.760381	145.264
0.773444	131.842
0.800038	144.573
0.813525	134.201
0.841374	145.645
0.851824	133.418
0.877951	148.526
0.891014	136.086
0.915834	153.357
0.930204	138.996
0.937202	164.615
0.95829	156.577
0.962395	172.617
0.95633	142.269
0.98028	182.162
0.993187	191.949
0.985723	169.188
1.01185	197.997
