Adsorption isotherm of Nitrogen on HFH-COF-2
DOI: 10.1039/d1cc02646a
Article source: Figure S15
Adsorbate Nitrogen: InChIKey IJGRMHOSHXDMSA-UHFFFAOYSA-N
Kind: experiment
Temperature: 77 K
Tabular data in the source: 0
pressure (bar)	uptake ()
0.014669	276.78
0.048193	387.468
0.09796	425.838
0.151696	484.834
0.204593	570.3
0.240361	718.264
0.281186	817.822
0.269244	724.239
0.333056	852.365
0.386792	866.698
0.440529	858.51
0.494265	869.464
0.548001	875.107
0.601737	900.224
0.655474	929.297
0.70921	935.493
0.762946	941.8
0.816683	952.588
0.874449	964.256
0.927034	1036.87
0.904004	946.641
0.965984	1214.91
0.984235	1323.95
0.959419	1055.08
0.980578	1590.14
0.976772	1467.05
0.998522	1695.41
1.01064	1798.9
0.935818	1130.9
0.966791	1384.55
0.953517	1279.59
