Adsorption isotherm of Nitrogen on HFH-COF-1 (590 nm)
DOI: 10.1039/d1cc02646a
Article source: Figure 1
Adsorbate Nitrogen: InChIKey IJGRMHOSHXDMSA-UHFFFAOYSA-N
Kind: experiment
Temperature: 77 K
Tabular data in the source: 0
pressure (bar)	uptake (cm3(STP)/g)
0.01301	246.362
0.020663	286.279
0.032908	308.732
0.042091	341.164
0.052805	361.123
0.088009	420.998
0.123212	473.389
0.155355	515.8
0.190558	553.222
0.230354	750.312
0.228823	677.963
0.215048	620.582
0.260965	810.187
0.306883	850.104
0.371168	872.557
0.398718	880.042
0.433922	882.536
0.335964	862.578
0.47984	902.495
0.50739	914.969
0.551777	919.958
0.579328	927.443
0.614532	937.422
0.651266	942.412
0.683408	947.401
0.71555	962.37
0.755346	979.834
0.798202	999.792
0.831875	1032.22
0.860956	1052.18
0.897691	1079.63
0.929833	1109.56
0.978812	1239.29
1.00789	1354.05
0.969628	1087.11
0.932894	1009.77
0.89616	987.318
0.851773	967.36
0.816569	954.886
0.753815	939.917
0.71402	932.432
0.680347	927.443
0.654327	919.958
0.614532	909.979
0.58545	902.495
