Adsorption isotherm of Nitrogen on HFH-COF-6
DOI: 10.1039/d1cc02646a
Article source: Figure S15
Adsorbate Nitrogen: InChIKey IJGRMHOSHXDMSA-UHFFFAOYSA-N
Kind: experiment
Temperature: 77 K
Tabular data in the source: 0
pressure (bar)	uptake ()
0.009764	51.7813
0.015969	64.6151
0.040463	77.1826
0.053526	104.69
0.060057	89.334
0.067678	117.077
0.086184	132.779
0.091316	105.457
0.116509	144.265
0.120802	116.699
0.1515	155.584
0.158032	123.791
0.19069	161.077
0.197222	132.579
0.22988	164.073
0.236412	138.827
0.26907	165.904
0.275602	143.377
0.30826	166.903
0.314791	143.044
0.34745	168.54
0.353981	143.377
0.386639	170.232
0.393171	146.29
0.425829	171.564
0.432361	148.093
0.465019	173.395
0.468285	150.124
0.504209	176.058
0.510741	152.754
0.543399	177.223
0.54993	154.308
0.582589	178.388
0.58912	156.971
0.621778	179.886
0.62831	159.246
0.660968	181.551
0.6675	157.914
0.700158	181.718
0.70669	160.189
0.739348	183.632
0.74588	163.296
0.778538	184.852
0.781804	166.437
0.817728	186.156
0.824259	169.566
0.856917	187.544
0.863449	171.009
0.89844	189.95
0.902639	174.227
0.933991	198.849
0.941829	182.383
0.97419	208.911
0.971221	191.538
0.996259	221.334
0.990816	231.155
0.997348	206.187
