Adsorption isotherm of Nitrogen on HFH-COF-1 (72h)
DOI: 10.1039/d1cc02646a
Article source: Figure S12
Adsorbate Nitrogen: InChIKey IJGRMHOSHXDMSA-UHFFFAOYSA-N
Kind: experiment
Temperature: 77 K
Tabular data in the source: 0
pressure (bar)	uptake (cm3(STP)/g)
0.009782	252.137
0.019564	286.325
0.027716	331.909
0.040758	351.852
0.05054	371.795
0.086407	431.624
0.123905	474.359
0.14999	508.547
0.189118	565.527
0.229877	682.336
0.229877	633.903
0.264113	819.088
0.309763	839.031
0.339109	856.125
0.368455	864.672
0.370085	847.578
0.391279	876.068
0.39454	861.823
0.428777	878.917
0.436928	864.672
0.472796	870.37
0.476056	893.162
0.507033	887.464
0.507033	915.954
0.549421	873.219
0.551051	904.558
0.590179	893.162
0.586919	933.048
0.624416	898.86
0.626047	927.35
0.652132	915.954
0.655393	935.897
0.679848	921.652
0.68963	950.142
0.725497	930.199
0.727127	975.783
0.754843	947.293
0.761364	990.029
0.79071	950.142
0.797231	1015.67
0.829838	952.991
0.834729	1049.86
0.865705	972.934
0.860814	1061.25
0.898312	981.482
0.89179	1095.44
0.926027	1118.23
0.934179	1015.67
0.963525	1061.25
0.976568	1243.59
0.999392	1349
