Adsorption isotherm of Nitrogen on HFH-COF-8
DOI: 10.1039/d1cc02646a
Article source: Figure S15
Adsorbate Nitrogen: InChIKey IJGRMHOSHXDMSA-UHFFFAOYSA-N
Kind: experiment
Temperature: 77 K
Tabular data in the source: 0
pressure (bar)	uptake ()
-0.001813	213.436
-0.00585	173.736
-0.00585	141.042
-0.00821	105.345
0.006536	255.764
0.000756	73.3182
0.000756	40.6239
0.000756	12.6003
0.020941	284.015
0.051502	320.011
0.095076	343.176
0.142786	357.892
0.189029	365.898
0.235272	371.57
0.281514	374.572
0.327757	377.241
0.373999	382.246
0.422719	384.206
0.46731	404.858
0.487954	454.849
0.501717	387.806
0.513461	486.927
0.545758	394.923
0.55897	499.011
0.592	401.929
0.605212	503.681
0.638243	408.935
0.651455	505.349
0.684485	418.276
0.697698	505.349
0.730728	430.286
0.74394	509.686
0.776971	437.626
0.790183	510.02
0.82569	446.967
0.836425	514.023
0.869456	461.518
0.882668	518.027
0.911735	480.595
0.932581	514.431
0.97155	525.518
1.00422	553.924
1.01259	580.858
