Adsorption isotherm of Nitrogen on HFH-COF-3
DOI: 10.1039/d1cc02646a
Article source: Figure S15
Adsorbate Nitrogen: InChIKey IJGRMHOSHXDMSA-UHFFFAOYSA-N
Kind: experiment
Temperature: 77 K
Tabular data in the source: 0
pressure (bar)	uptake (cm3(STP)/g)
0.018539	31.5981
0.037441	56.8289
0.049662	77.7132
0.075896	91.6431
0.109137	104.605
0.102619	89.4805
0.144985	118.104
0.135208	104.746
0.171056	134.005
0.18735	151.815
0.180833	125.736
0.206904	167.717
0.197127	134.641
0.210163	149.907
0.236234	181.173
0.272082	190.51
0.259046	174.078
0.311189	194.22
0.350295	196.27
0.387074	195.522
0.429906	197.279
0.46715	202.247
0.506723	204.45
0.545829	209.486
0.587264	211.273
0.624043	212.666
0.666409	216.456
0.702257	223.161
0.718551	210.546
0.741364	226.207
0.757658	213.09
0.78047	229.776
0.796765	216.482
0.819577	232.95
0.835872	223.055
0.874978	240.031
0.912456	249.293
0.911478	234.377
0.951414	258.502
0.940156	242.137
0.976819	275.849
0.976004	254.223
0.997187	291.242
1.01837	294.931
0.302687	182.682
0.337034	186.034
0.367088	186.034
0.405729	189.385
0.422903	191.061
0.457251	194.413
0.500185	197.765
0.534532	199.441
0.555999	201.117
0.577467	202.793
0.616108	206.145
0.641868	206.145
0.654748	206.145
0.667629	207.821
0.693389	209.497
