Adsorption isotherm of Nitrogen on HFH-COF-1 (12h)
DOI: 10.1039/d1cc02646a
Article source: Figure S12
Adsorbate Nitrogen: InChIKey IJGRMHOSHXDMSA-UHFFFAOYSA-N
Kind: experiment
Temperature: 77 K
Tabular data in the source: 0
pressure (bar)	uptake (cm3(STP)/g)
0.008152	123.932
0.017934	158.12
0.029346	166.667
0.052171	198.006
0.086407	229.345
0.115753	237.892
0.128796	260.684
0.14836	269.231
0.156512	269.231
0.184227	289.174
0.226616	320.513
0.231507	374.644
0.262483	423.077
0.280417	417.379
0.29835	440.171
0.311393	437.322
0.329327	445.869
0.368455	448.718
0.383128	440.171
0.404322	440.171
0.433668	448.718
0.476056	445.869
0.511924	468.661
0.511924	448.718
0.5429	448.718
0.5429	468.661
0.583658	448.718
0.583658	465.812
0.622786	448.718
0.622786	477.208
0.655393	457.265
0.655393	474.359
0.69126	462.963
0.687999	482.906
0.722236	454.416
0.725497	488.604
0.766255	457.265
0.756473	497.151
0.793971	474.359
0.793971	497.151
0.834729	474.359
0.833099	511.396
0.854293	525.641
0.865705	480.057
0.901572	494.302
0.89179	537.037
0.932549	559.829
0.934179	505.698
0.965155	542.735
0.974937	599.715
1.00591	639.601
