Adsorption isotherm of Nitrogen on HFH-COF-9
DOI: 10.1039/d1cc02646a
Article source: Figure S15
Adsorbate Nitrogen: InChIKey IJGRMHOSHXDMSA-UHFFFAOYSA-N
Kind: experiment
Temperature: 77 K
Tabular data in the source: 0
pressure (bar)	uptake (cm3(STP)/g)
-0.003675	14.2131
0.009306	81.3836
0.016295	151.923
0.023137	245.27
0.021288	193.533
0.03793	302.512
0.07303	318.723
0.112819	334.214
0.154425	350.066
0.194366	355.35
0.234307	357.992
0.274248	364.596
0.314189	369.22
0.35413	373.843
0.394546	374.409
0.435676	385.236
0.467961	428.134
0.471955	378.599
0.496586	485.992
0.513894	392.336
0.532351	513.624
0.553835	393.657
0.571428	537.453
0.593776	396.299
0.616123	546.511
0.633717	401.583
0.655113	555.569
0.673658	408.188
0.693153	565.759
0.713599	416.114
0.732143	574.817
0.75354	423.379
0.77351	585.856
0.793481	429.323
0.813451	590.48
0.835799	434.418
0.855769	598.594
0.874875	444.094
0.893333	609.634
0.913969	468.952
0.932366	643.678
0.951247	497.485
0.962564	704.742
0.973691	540.283
0.9832	760.443
0.986529	873.164
0.986529	825.61
0.987955	583.875
1.01094	681.626
1.00484	627.466
1.01316	778.055
1.01316	730.501
1.02181	866.824
1.01648	825.61
