Adsorption isotherm of Nitrogen on HFH-COF-1 (510 nm)
DOI: 10.1039/d1cc02646a
Article source: Figure 1
Adsorbate Nitrogen: InChIKey IJGRMHOSHXDMSA-UHFFFAOYSA-N
Kind: experiment
Temperature: 77 K
Tabular data in the source: 0
pressure (bar)	uptake (cm3(STP)/g)
0.003066	237.5
0.012263	277.5
0.019928	307.5
0.032191	327.5
0.044454	352.5
0.078178	410
0.119567	457.5
0.154823	505
0.17935	542.5
0.223804	675
0.265193	817.5
0.301982	830
0.323443	842.5
0.36943	852.5
0.404687	857.5
0.433812	865
0.4752	872.5
0.502793	885
0.550313	912.5
0.58557	927.5
0.613162	930
0.63309	932.5
0.671412	942.5
0.72813	962.5
0.767985	980
0.801709	995
0.830834	1022.5
0.861492	1050
0.893683	1082.5
0.924342	1112.5
0.981059	1237.5
1.00405	1342.5
0.990256	1222.5
0.982592	1140
0.968796	1082.5
0.935072	1017.5
0.904414	987.5
0.858427	962.5
0.826236	955
0.790979	942.5
0.757255	935
0.723531	927.5
0.695939	927.5
0.648419	915
0.616228	915
0.584037	902.5
0.54878	892.5
0.505859	890
