Adsorption isotherm of Nitrogen on HFH-COF-1 (430 nm)
DOI: 10.1039/d1cc02646a
Article source: Figure 1
Adsorbate Nitrogen: InChIKey IJGRMHOSHXDMSA-UHFFFAOYSA-N
Kind: experiment
Temperature: 77 K
Tabular data in the source: 0
pressure (bar)	uptake (cm3(STP)/g)
0.003066	245
0.012263	290
0.024526	300
0.03679	335
0.049053	360
0.08431	415
0.124165	462.5
0.15329	505
0.191613	555
0.22687	622.5
0.233002	685
0.233002	757.5
0.259061	810
0.300449	827.5
0.331107	840
0.364831	855
0.383226	857.5
0.412351	857.5
0.432279	872.5
0.449141	850
0.479799	855
0.479799	885
0.510457	885
0.515056	857.5
0.542648	870
0.544181	905
0.582504	907.5
0.580971	867.5
0.617761	882.5
0.617761	907.5
0.659149	920
0.659149	885
0.688274	930
0.692873	897.5
0.717399	907.5
0.729663	935
0.758788	940
0.761854	910
0.789446	940
0.790979	920
0.830834	927.5
0.820104	942.5
0.853828	967.5
0.866091	942.5
0.899815	957.5
0.898282	980
0.939671	980
0.936605	1012.5
0.973394	1137.5
1.00558	1217.5
1.01172	1292.5
0.970329	1020
