Adsorption isotherm of Nitrogen on HFH-COF-5
DOI: 10.1039/d1cc02646a
Article source: Figure S15
Adsorbate Nitrogen: InChIKey IJGRMHOSHXDMSA-UHFFFAOYSA-N
Kind: experiment
Temperature: 77 K
Tabular data in the source: 0
pressure (bar)	uptake (cm3(STP)/g)
0.00183	100.411
0.006251	8.87865
0.009073	32.0454
0.024436	121.66
0.042816	142.4
0.062569	163.344
0.072281	190.445
0.101251	176.987
0.113913	204.151
0.144347	227.601
0.144706	197.532
0.186845	240.354
0.184211	211.412
0.232934	247.083
0.232934	221.782
0.279023	253.043
0.279023	225.896
0.325112	256.696
0.325112	228.242
0.371201	259.964
0.371201	231.651
0.417291	262.656
0.417291	234.663
0.464577	265.866
0.46338	238.047
0.509469	278.036
0.509469	241.508
0.555558	281.304
0.555558	245.007
0.601647	283.035
0.601647	246.698
0.647736	284.573
0.647736	248.217
0.693825	285.726
0.693825	250.89
0.739914	286.495
0.739914	254.504
0.786004	289.187
0.786004	260.003
0.832093	292.071
0.832093	263.732
0.881108	294.449
0.878182	267.577
0.927014	304.941
0.924271	274.691
0.97036	320.255
0.973951	283.899
1.00987	335.52
1.01206	313.988
1.00723	293.263
