Adsorption isotherm of Nitrogen on HFH-COF-4
DOI: 10.1039/d1cc02646a
Article source: Figure S15
Adsorbate Nitrogen: InChIKey IJGRMHOSHXDMSA-UHFFFAOYSA-N
Kind: experiment
Temperature: 77 K
Tabular data in the source: 0
pressure (bar)	uptake ()
0.001059	9.94473
0.011714	90.8513
0.050335	119.56
0.099278	147.943
0.147555	162.934
0.194167	179.712
0.240779	190.897
0.287391	200.218
0.334003	211.403
0.380616	220.103
0.427228	225.696
0.47384	227.56
0.520452	236.881
0.567064	249.93
0.613676	259.251
0.660288	263.601
0.706901	276.029
0.753513	282.243
0.800125	294.671
0.846737	315.488
0.894886	364.221
0.888022	304.862
0.923012	452.282
0.943661	514.234
0.938751	368.844
0.949395	677.352
0.94662	594.187
0.955776	753.111
0.970296	822.587
0.970402	453.129
0.982578	892.958
0.981817	544.475
0.988053	634.095
0.999891	960.815
0.995452	731.724
1.00522	800.742
1.00988	882.518
