Adsorption isotherm of Nitrogen on HFH-COF-1 (660 nm)
DOI: 10.1039/d1cc02646a
Article source: Figure 1
Adsorbate Nitrogen: InChIKey IJGRMHOSHXDMSA-UHFFFAOYSA-N
Kind: experiment
Temperature: 77 K
Tabular data in the source: 0
pressure (bar)	uptake (cm3(STP)/g)
0.006888	211.435
0.031377	268.815
0.048214	293.763
0.086478	361.123
0.124743	388.565
0.158416	423.493
0.19362	463.41
0.21964	563.202
0.265557	662.994
0.293108	667.983
0.343617	687.942
0.40178	702.911
0.435453	715.385
0.473717	717.879
0.50586	722.869
0.545655	730.353
0.594634	737.838
0.632899	742.827
0.655857	747.817
0.68953	752.807
0.723203	760.291
0.759937	762.786
0.795141	775.26
0.836467	770.27
0.867079	785.239
0.903813	785.239
0.942078	815.177
0.969628	842.62
0.833406	817.672
0.862487	837.63
0.89616	865.073
0.934425	897.505
0.980342	984.823
0.998709	1039.71
