Adsorption isotherm of Nitrogen on HFH-COF-1 (48h)
DOI: 10.1039/d1cc02646a
Article source: Figure S12
Adsorbate Nitrogen: InChIKey IJGRMHOSHXDMSA-UHFFFAOYSA-N
Kind: experiment
Temperature: 77 K
Tabular data in the source: 0
pressure (bar)	uptake ()
0.006521	246.439
0.019564	289.174
0.035867	317.664
0.05054	346.154
0.086407	411.681
0.122275	451.567
0.153251	482.906
0.190749	525.641
0.228246	605.413
0.264113	782.051
0.29835	807.692
0.311393	776.353
0.337478	816.239
0.368455	807.692
0.368455	824.786
0.384758	830.484
0.404322	813.39
0.438559	841.88
0.441819	821.937
0.480947	850.427
0.482578	836.182
0.513554	836.182
0.515184	864.672
0.551051	864.672
0.551051	836.182
0.580397	853.276
0.582028	873.219
0.619525	878.917
0.617895	861.823
0.650502	864.672
0.655393	887.464
0.68963	893.162
0.69126	864.672
0.722236	876.068
0.720606	896.011
0.759734	913.105
0.759734	893.162
0.797231	893.162
0.795601	921.652
0.823317	935.897
0.826577	913.105
0.852663	950.142
0.865705	910.256
0.901572	933.048
0.899942	970.085
0.934179	967.236
0.934179	1012.82
0.970046	1007.12
0.966786	1081.2
1.00754	1166.67
