Adsorption isotherm of Nitrogen on HFH-COF-1 (24h)
DOI: 10.1039/d1cc02646a
Article source: Figure S12
Adsorbate Nitrogen: InChIKey IJGRMHOSHXDMSA-UHFFFAOYSA-N
Kind: experiment
Temperature: 77 K
Tabular data in the source: 0
pressure (bar)	uptake ()
0.006521	186.61
0.019564	220.798
0.030976	252.137
0.04728	286.325
0.084777	323.362
0.123905	366.097
0.14999	400.285
0.190749	428.775
0.233137	505.698
0.229877	582.621
0.260853	633.903
0.299981	650.997
0.337478	662.393
0.34563	662.393
0.368455	665.242
0.402691	679.487
0.441819	679.487
0.477687	688.034
0.502142	693.732
0.54127	702.279
0.585288	702.279
0.614634	713.675
0.655393	719.373
0.686369	725.071
0.725497	733.618
0.764625	753.561
0.793971	756.41
0.829838	745.014
0.829838	782.051
0.868966	827.635
0.903203	864.672
0.945591	901.709
0.979828	992.878
1.00265	1035.61
0.971677	827.635
0.932549	784.9
0.898312	767.806
0.860814	753.561
0.79234	730.769
0.758103	736.467
0.722236	722.222
