Adsorption isotherm of N-Octane on Zeolite 5A
DOI: 10.1007/s10450-009-9191-8
Adsorbate N-Octane: InChIKey TVMXDCGIABBOFY-UHFFFAOYSA-N
Temperature: 573 K
Tabular data in the source: 0
pressure (bar)	uptake (g Adsorbate / 100g Adsorbent)
2.22e-16	0.886427
0.0164948	1.06373
0.0494845	1.24107
0.0659794	1.44053
0.115464	1.67329
0.148454	1.88386
0.214433	2.10556
0.329897	2.36057
0.593814	2.6047
0.659794	2.66019
0.775258	2.73792
0.890722	2.81564
0.940206	2.87111
1.07216	2.91561
1.22062	2.97122
1.36907	3.02683
1.50103	3.08241
1.64948	3.12694
1.76495	3.17142
1.9134	3.19379
2.07835	3.22726
2.2268	3.2607
2.39175	3.28309
2.54021	3.31654
2.70515	3.35001
2.85361	3.37237
3.01856	3.40584
3.16701	3.42821
3.29897	3.45055
3.44742	3.47292
3.61237	3.48423
3.76082	3.49551
3.92577	3.5179
4.09072	3.52921
4.23918	3.5405
4.40412	3.56289
4.56907	3.5742
4.73402	3.5855
4.88247	3.60787
5.04742	3.61918
5.21237	3.63049
5.36082	3.64177
5.52577	3.66416
5.69072	3.67547
5.83918	3.68676
6.00412	3.70915
6.16907	3.72046
6.31753	3.73174
6.48247	3.75413
6.64742	3.76544
6.77938	3.7767
6.94433	3.77693
7.10928	3.78824
7.27423	3.78847
7.43918	3.79978
7.60412	3.81109
7.76907	3.81131
7.91753	3.8226
