Adsorption isotherm of N-Nonane on Zeolite 5A
DOI: 10.1007/s10450-009-9191-8
Adsorbate N-Nonane: InChIKey BKIMMITUMNQMOS-UHFFFAOYSA-N
Temperature: 573 K
Tabular data in the source: 0
pressure (bar)	uptake (g Adsorbate / 100g Adsorbent)
0.0164948	0.0164948
0.0329897	1.32969
0.0659794	1.75078
0.0824742	1.96133
0.148454	2.12763
0.230928	2.30503
0.346392	2.47139
0.676289	2.63806
0.824742	2.68258
0.973196	2.73819
1.10515	2.73837
1.25361	2.76074
1.41856	2.77205
1.56701	2.79441
1.71546	2.82786
1.84742	2.81696
1.99588	2.82825
2.16082	2.82848
2.32577	2.83979
2.49072	2.8511
2.65567	2.85132
2.82062	2.86263
2.98557	2.86286
3.13402	2.87415
3.28247	2.88543
3.43093	2.87456
3.57938	2.88584
3.74433	2.88607
3.90928	2.8863
4.07423	2.88653
4.23918	2.88676
4.40412	2.88699
4.56907	2.88721
4.73402	2.88744
4.89897	2.88767
5.06392	2.8879
5.22887	2.88813
5.39381	2.88836
5.55876	2.89967
5.72371	2.89989
5.88866	2.90012
6.05361	2.90035
6.21856	2.90058
6.38351	2.90081
6.54845	2.90104
6.69691	2.91232
6.79588	2.90138
6.96082	2.90161
7.12577	2.90184
7.29072	2.90206
7.45567	2.90229
7.62062	2.90252
7.78557	2.90275
7.95052	2.90298
