Adsorption isotherm of N-Heptane on Zeolite 5A
DOI: 10.1007/s10450-009-9191-8
Adsorbate N-Heptane: InChIKey IMNFDUFMRHMDMM-UHFFFAOYSA-N
Temperature: 573 K
Tabular data in the source: 0
pressure (bar)	uptake (g Adsorbate / 100g Adsorbent)
0.0164948	0.221629
0.0989691	0.43227
0.230928	0.543256
0.296907	0.587669
0.412371	0.63215
0.51134	0.70985
0.643299	0.754354
0.791753	0.798881
0.923711	0.854465
1.08866	0.865774
1.23711	0.89922
1.40206	0.92161
1.55052	0.955056
1.71546	0.988526
1.88041	0.999834
2.02887	1.0222
2.19381	1.03351
2.34227	1.05588
2.50722	1.06718
2.67216	1.08957
2.82062	1.10086
2.98557	1.12325
3.15052	1.13456
3.29897	1.15692
3.46392	1.16823
3.62887	1.17954
3.79381	1.17977
3.95876	1.19108
4.10722	1.20236
4.27216	1.21367
4.43711	1.22498
4.60206	1.22521
4.76701	1.23652
4.91546	1.24781
5.08041	1.25911
5.24536	1.27042
5.41031	1.28173
5.57526	1.28196
5.72371	1.29325
5.88866	1.30455
6.05361	1.31586
6.21856	1.32717
6.38351	1.3274
6.53196	1.33869
6.69691	1.35
6.86186	1.3613
7.0268	1.36153
7.19175	1.36176
7.3567	1.37307
7.52165	1.3733
7.6866	1.38461
7.85155	1.38484
