Adsorption isotherm of N-decane on Zeolite 5A
DOI: 10.1007/s10450-009-9191-8
Adsorbate N-decane: InChIKey DIOQZVSQGTUSAI-UHFFFAOYSA-N
Temperature: 573 K
Tabular data in the source: 0
pressure (bar)	uptake (g Adsorbate / 100g Adsorbent)
0.0164948	0.188388
0.0494845	0.310318
0.115464	0.443373
0.214433	0.498912
0.346392	0.499095
0.527835	0.521507
0.659794	0.510609
0.824742	0.510838
0.973196	0.499963
1.12165	0.511249
1.2866	0.500397
1.45155	0.500625
1.61649	0.500854
1.68247	0.500945
1.81443	0.490048
1.97938	0.490276
2.14433	0.490505
2.30928	0.490733
2.47423	0.490962
2.63918	0.48011
2.80412	0.480338
2.96907	0.480567
3.13402	0.480795
3.28247	0.481001
3.41443	0.481183
3.57938	0.470332
3.74433	0.47056
3.90928	0.470788
4.07423	0.471017
4.23918	0.471245
4.40412	0.471474
4.56907	0.471702
4.73402	0.471931
4.89897	0.461079
5.06392	0.461307
5.22887	0.461536
5.39381	0.461764
5.55876	0.461993
5.72371	0.462221
5.88866	0.46245
6.05361	0.451598
6.21856	0.451826
6.38351	0.452055
6.54845	0.452283
6.69691	0.452489
6.79588	0.452626
6.96082	0.452854
7.12577	0.453083
7.29072	0.453311
7.45567	0.45354
7.62062	0.442688
7.78557	0.442916
7.95052	0.443145
