Adsorption isotherm of Hydrogen on Mg2(dobdc)
DOI: 10.1021/acs.jpcc.6b10363
Article source: Figure 2
Adsorbate Hydrogen: InChIKey UFHFLCQGNIYNRP-UHFFFAOYSA-N
Kind: experiment
Temperature: 77 K
Tabular data in the source: 0
pressure (bar)	uptake (g/l)
0.00519	0.503
0.00857	3.355
0.01109	10.11
0.01195	5.056
0.01531	13.362
0.02801	14.563
0.04663	15.413
0.06102	15.813
0.11013	16.613
0.20835	18.214
0.31672	19.413
0.3853	20.163
0.55295	21.763
0.70366	22.962
0.86792	23.911
0.98646	24.811
