Adsorption isotherm of Nitrogen on C5H4BaN2O5
DOI: 10.1002/ejic.201200417
Adsorbate Nitrogen: InChIKey IJGRMHOSHXDMSA-UHFFFAOYSA-N
Temperature: 77 K
Tabular data in the source: 0
pressure (bar)	uptake (cm3(STP)/g)
0.0239097	12.8349
0.0487217	12.9456
0.069992	13.0004
0.0965689	13.2231
0.121377	13.3899
0.194036	13.778
0.268456	14.3343
0.31808	14.5556
0.364151	14.8893
0.388959	15.056
0.413767	15.2228
0.463387	15.5002
0.511242	15.6656
0.534273	15.8885
0.559081	16.0552
0.580343	16.2221
0.608701	16.3326
0.658309	16.7782
0.679564	17.0572
0.704368	17.28
0.729172	17.5028
0.753984	17.6134
0.778792	17.7802
0.803592	18.059
0.828404	18.1697
0.851435	18.3926
0.876227	18.7835
0.899262	18.9504
0.924046	19.4534
0.948791	20.517
0.966428	21.8052
