Adsorption isotherm of Nitrogen, Oxygen on Zeolite 5A
DOI: 10.1021/je00039a022
Article source: Table IV
Adsorbate Nitrogen: InChIKey IJGRMHOSHXDMSA-UHFFFAOYSA-N
Adsorbate Oxygen: InChIKey MYMOFIZGZYHOMD-UHFFFAOYSA-N
Kind: experiment
Temperature: 298 K
Tabular data in the source: 0
pressure (bar)	Nitrogen fraction	Nitrogen uptake (mmol/g)	Oxygen fraction	Oxygen uptake (mmol/g)	total uptake (mmol/g)
1.04	0.847	0.165584	0.153	0.096416	0.262
1.04	0.847	0.167005	0.153	0.095995	0.263
1.04	0.621	0.069053	0.379	0.129947	0.199
1.04	0.26	0.0142	0.74	0.1278	0.142
1.04	0.928	0.241678	0.072	0.056322	0.298
1.04	0.915	0.231378	0.085	0.062622	0.294
1.04	0.724	0.103026	0.276	0.119974	0.223
1.04	0.472	0.038925	0.528	0.134075	0.173
1.04	0.474	0.038802	0.526	0.135198	0.174
