Adsorption isotherm of Nitrogen on Zeolite 5A
DOI: 10.1021/je00039a022
Article source: Table I
Adsorbate Nitrogen: InChIKey IJGRMHOSHXDMSA-UHFFFAOYSA-N
Kind: experiment
Temperature: 298 K
Tabular data in the source: 0
pressure (bar)	uptake (mmol/g)
0.341	0.124
0.726	0.241
1.025	0.327
1.491	0.441
1.954	0.544
2.741	0.698
3.17	0.76
3.633	0.829
4.024	0.881
4.429	0.933
