Adsorption isotherm of Nitrogen, Oxygen on Zeolite 5A
DOI: 10.1021/je00039a022
Article source: Table IV
Adsorbate Nitrogen: InChIKey IJGRMHOSHXDMSA-UHFFFAOYSA-N
Adsorbate Oxygen: InChIKey MYMOFIZGZYHOMD-UHFFFAOYSA-N
Kind: experiment
Temperature: 298 K
Tabular data in the source: 0
pressure (bar)	Nitrogen fraction	Nitrogen uptake (mmol/g)	Oxygen fraction	Oxygen uptake (mmol/g)	total uptake (mmol/g)
3	0.848	0.408654	0.152	0.213346	0.622
3	0.478	0.100531	0.522	0.338469	0.439
3	0.254	0.037224	0.746	0.338776	0.376
3	0.628	0.176853	0.372	0.324147	0.501
