Adsorption isotherm of Nitrogen, Oxygen on Zeolite 5A
DOI: 10.1021/je00039a022
Article source: Table IV
Adsorbate Nitrogen: InChIKey IJGRMHOSHXDMSA-UHFFFAOYSA-N
Adsorbate Oxygen: InChIKey MYMOFIZGZYHOMD-UHFFFAOYSA-N
Kind: experiment
Temperature: 298 K
Tabular data in the source: 0
pressure (bar)	Nitrogen fraction	Nitrogen uptake (mmol/g)	Oxygen fraction	Oxygen uptake (mmol/g)	total uptake (mmol/g)
4	0.85	0.505304	0.15	0.255696	0.761
4	0.257	0.0478	0.743	0.4302	0.478
