Adsorption isotherm of Nitrogen, Oxygen on Zeolite 5A
DOI: 10.1021/je00039a022
Article source: Table IV
Adsorbate Nitrogen: InChIKey IJGRMHOSHXDMSA-UHFFFAOYSA-N
Adsorbate Oxygen: InChIKey MYMOFIZGZYHOMD-UHFFFAOYSA-N
Kind: experiment
Temperature: 319 K
Tabular data in the source: 0
pressure (bar)	Nitrogen fraction	Nitrogen uptake (mmol/g)	Oxygen fraction	Oxygen uptake (mmol/g)	total uptake (mmol/g)
1.04	0.26	0.01104	0.74	0.08496	0.096
1.04	0.851	0.113226	0.149	0.053774	0.167
1.04	0.492	0.030771	0.508	0.086229	0.117
1.04	0.631	0.052003	0.369	0.080997	0.133
