Adsorption isotherm of Oxygen on Zeolite 5A
DOI: 10.1021/je00039a022
Article source: Table II
Adsorbate Oxygen: InChIKey MYMOFIZGZYHOMD-UHFFFAOYSA-N
Kind: experiment
Temperature: 298 K
Tabular data in the source: 0
pressure (bar)	uptake (mmol/g)
0.293	0.034
0.689	0.078
1.106	0.125
1.552	0.174
2.027	0.223
2.499	0.271
2.962	0.314
3.537	0.367
4.048	0.413
