Adsorption isotherm of Hydrogen on Mg3(BPT)2(H2O)4
DOI: 10.1021/Ic901056d
Adsorbate Hydrogen: InChIKey UFHFLCQGNIYNRP-UHFFFAOYSA-N
Temperature: 308 K
Tabular data in the source: 0
pressure (bar)	uptake (wt%)
0.0309742	0.00101432
0.0637473	0.0255941
0.118369	0.0370647
0.183915	0.0556362
0.599041	0.0884093
0.784756	0.0966026
1.00324	0.112443
2.01921	0.177989
3.01333	0.208577
3.99652	0.218409
