Adsorption isotherm of Hydrogen on Mg3(BPT)2(H2O)4
DOI: 10.1021/Ic901056d
Adsorbate Hydrogen: InChIKey UFHFLCQGNIYNRP-UHFFFAOYSA-N
Temperature: 87 K
Tabular data in the source: 0
pressure (bar)	uptake (wt%)
0.0111985	0.0290271
0.0644657	0.16012
0.131629	0.258439
0.201108	0.350204
0.305326	0.4518
0.407229	0.533733
0.527659	0.625498
0.636509	0.691044
0.805575	0.792641
1.01633	0.89096
