Adsorption isotherm of Hydrogen on Mg3(BPT)2(H2O)4
DOI: 10.1021/Ic901056d
Adsorbate Hydrogen: InChIKey UFHFLCQGNIYNRP-UHFFFAOYSA-N
Temperature: 77 K
Tabular data in the source: 0
pressure (bar)	uptake (wt%)
0.00425056	0.0421363
0.0598338	0.310876
0.133945	0.507514
0.233531	0.687767
0.342382	0.825414
0.451232	0.923733
0.553135	1.01877
0.687461	1.12037
0.856526	1.22197
0.993168	1.29407
