Adsorption isotherm of Hydrogen on Mg3(BPT)2(H2O)4
DOI: 10.1021/Ic901056d
Adsorbate Hydrogen: InChIKey UFHFLCQGNIYNRP-UHFFFAOYSA-N
Temperature: 77 K
Tabular data in the source: 0
pressure (bar)	uptake (wt%)
0.00888249	0.0148566
0.0297262	0.131092
0.0783615	0.339092
0.117733	0.446151
0.180264	0.586857
0.282167	0.745915
0.418809	0.904974
0.583242	1.04874
0.726832	1.14356
1.00243	1.30262
