Adsorption isotherm of Nitrogen on Mg3(BPT)2(H2O)4
DOI: 10.1021/Ic901056d
Adsorbate Nitrogen: InChIKey IJGRMHOSHXDMSA-UHFFFAOYSA-N
Temperature: 77 K
Tabular data in the source: 0
pressure (bar)	uptake (cm3(STP)/g)
0.0193041	7.56894
0.0236738	158.325
0.0236738	168.157
0.0367831	180.72
0.128548	192.737
0.185355	195.468
0.342665	198.745
0.436615	202.569
0.764346	207.485
0.978464	217.317
