Adsorption isotherm of Hydrogen on ASMS 3A
DOI: 10.1021/Jp202572w
Adsorbate Hydrogen: InChIKey UFHFLCQGNIYNRP-UHFFFAOYSA-N
Temperature: 77 K
Tabular data in the source: 0
pressure (bar)	uptake (mmol/g)
0.0741194	0.0496454
0.14313	0.0943262
0.209627	0.114184
0.281242	0.134043
0.342612	0.158865
0.404027	0.158865
0.45517	0.178723
0.51144	0.193617
0.565197	0.183688
0.611222	0.203546
0.654697	0.21844
0.700704	0.248227
0.739143	0.21844
0.777491	0.238298
0.808181	0.248227
0.877264	0.253191
0.902799	0.282979
0.933598	0.233333
0.956592	0.253191
0.979623	0.253191
1.00007	0.268085
1.02317	0.228369
1.04104	0.253191
