Adsorption isotherm of Carbon Dioxide on ASMS 5A
DOI: 10.1021/Jp202572w
Adsorbate Carbon Dioxide: InChIKey CURLTUGMZLYLDI-UHFFFAOYSA-N
Temperature: 283 K
Tabular data in the source: 0
pressure (bar)	uptake (mmol/g)
0.284421	0.360915
0.568842	0.598592
0.832947	0.774648
1.13768	0.924296
1.40179	1.03873
1.66589	1.13556
1.93	1.21479
2.21442	1.30282
2.47853	1.36444
3.02705	1.47007
3.57558	1.5757
4.14442	1.65493
5.11958	1.77817
6.05411	1.875
6.48074	1.91021
6.90737	1.94542
7.29337	1.98944
7.69968	2.02465
8.08568	2.05986
8.43105	2.09507
8.75611	2.12148
9.12179	2.15669
9.44684	2.1919
9.75158	2.21831
