Adsorption isotherm of Water on ASMS 3A
DOI: 10.1021/Jp202572w
Adsorbate Water: InChIKey XLYOFNOQVPJJNP-UHFFFAOYSA-N
Temperature: 283 K
Tabular data in the source: 0
pressure (bar)	uptake (mmol/g)
0.000924532	0.618182
0.00201716	1.16364
0.00367011	1.6
0.00546315	2
0.00722816	2.47273
0.0085169	2.98182
0.00907723	3.63636
0.00927334	4.4
0.00930135	5.16364
0.00941342	5.96364
0.0108983	6.4
0.0120469	7.01818
0.012159	7.74545
