Adsorption isotherm of Carbon Dioxide on ASMS 3A
DOI: 10.1021/Jp202572w
Adsorbate Carbon Dioxide: InChIKey CURLTUGMZLYLDI-UHFFFAOYSA-N
Temperature: 283 K
Tabular data in the source: 0
pressure (bar)	uptake (mmol/g)
0.0842464	0.10922
0.163402	0.203546
0.247703	0.282979
0.326904	0.352482
0.398455	0.407092
0.472575	0.456738
0.531358	0.496454
0.595269	0.531206
0.710314	0.59078
0.761448	0.615603
0.8126	0.630496
0.858625	0.650355
0.904641	0.675177
0.942981	0.7
0.983879	0.724823
1.01712	0.739716
