Adsorption isotherm of Water on ASMS 5A
DOI: 10.1021/Jp202572w
Adsorbate Water: InChIKey XLYOFNOQVPJJNP-UHFFFAOYSA-N
Temperature: 283 K
Tabular data in the source: 0
pressure (bar)	uptake (mmol/g)
0.00137279	0.472727
0.00238137	1.12727
0.00324987	1.74545
0.00445456	2.29091
0.00582735	2.8
0.00717213	3.34545
0.00834881	3.89091
0.00890913	4.61818
0.00899318	5.41818
0.00902119	6.25455
0.00930135	7.01818
0.0106461	7.49091
0.012075	8
0.012187	9.63636
0.012243	8.8
