Adsorption isotherm of Carbon Dioxide on ASMS 3A
DOI: 10.1021/Jp202572w
Adsorbate Carbon Dioxide: InChIKey CURLTUGMZLYLDI-UHFFFAOYSA-N
Temperature: 293 K
Tabular data in the source: 0
pressure (bar)	uptake (mmol/g)
0.0482502	0.0425499
0.0581828	0.0520036
0.0695368	0.0614606
0.080888	0.0724893
0.0908234	0.0803713
0.102177	0.0898283
0.113531	0.0992854
0.123464	0.108739
0.134818	0.118196
0.146172	0.127653
0.157526	0.13711
0.168883	0.144995
0.178818	0.152877
0.190172	0.162334
0.201529	0.17022
0.212883	0.179677
0.221403	0.184412
0.232756	0.193869
0.244113	0.201754
0.261147	0.214368
0.272504	0.222253
0.285282	0.230142
0.298063	0.236459
0.303737	0.242759
0.315094	0.250645
0.327869	0.260105
0.350585	0.274304
0.363364	0.282193
0.408796	0.310591
0.421577	0.316908
0.441454	0.329528
0.454234	0.335845
0.467018	0.34059
0.501091	0.362675
0.513872	0.368992
0.52665	0.37688
0.539428	0.384769
0.560734	0.392678
0.573515	0.398995
0.586293	0.406883
0.599074	0.4132
0.611855	0.419517
0.630316	0.428991
0.6431	0.433736
0.655881	0.440053
0.670083	0.446374
0.682864	0.452691
0.698476	0.465301
0.711268	0.465331
0.724049	0.471648
0.73683	0.477965
0.755296	0.484296
0.768077	0.490613
0.779431	0.50007
0.792223	0.5001
0.814948	0.509584
0.827729	0.515901
0.840513	0.520646
0.854715	0.526966
0.863229	0.534845
0.876021	0.534875
0.888802	0.541192
0.903007	0.54594
0.944195	0.563326
0.956979	0.568072
0.971181	0.574392
0.983965	0.579137
0.99817	0.583886
1.01095	0.590203
1.02089	0.596513
1.03368	0.599687
1.04646	0.604432
1.06066	0.610752
1.07061	0.613919
1.08339	0.618664
1.09617	0.624981
