Adsorption isotherm of Oxygen on ASMS 3A
DOI: 10.1021/Jp202572w
Adsorbate Oxygen: InChIKey MYMOFIZGZYHOMD-UHFFFAOYSA-N
Temperature: 283 K
Tabular data in the source: 0
pressure (bar)	uptake (mmol/g)
0.712267	0.0174825
1.3634	0.0437063
1.99411	0.0786713
2.62481	0.113636
3.21488	0.13986
3.78467	0.157343
4.31367	0.183566
4.82239	0.201049
5.33112	0.218531
5.83991	0.227273
6.73522	0.262238
7.16253	0.27972
7.56948	0.297203
7.97635	0.323427
8.74969	0.340909
9.46188	0.367133
9.78748	0.375874
