Adsorption isotherm of Oxygen on ASMS 5A
DOI: 10.1021/Jp202572w
Adsorbate Oxygen: InChIKey MYMOFIZGZYHOMD-UHFFFAOYSA-N
Temperature: 283 K
Tabular data in the source: 0
pressure (bar)	uptake (mmol/g)
2.62074	0.114437
3.27084	0.140845
3.79905	0.167254
4.30695	0.184859
5.32274	0.22007
5.76968	0.228873
6.70421	0.255282
7.09021	0.264085
7.51684	0.290493
7.90284	0.299296
8.28884	0.308099
8.63421	0.316901
8.97958	0.34331
9.32495	0.34331
9.65	0.369718
