Adsorption isotherm of Hydrogen on ASMS 3A
DOI: 10.1021/Jp202572w
Adsorbate Hydrogen: InChIKey UFHFLCQGNIYNRP-UHFFFAOYSA-N
Temperature: 77 K
Tabular data in the source: 0
pressure (bar)	uptake (mmol/g)
0.0558618	0.238298
0.116978	0.402128
0.173057	0.521277
0.234309	0.610638
0.29302	0.690071
0.35174	0.764539
0.407956	0.80922
0.459009	0.878723
0.512674	0.91844
0.558618	0.982979
0.602075	1.0078
0.645532	1.03262
0.691539	1.06241
0.727328	1.08227
0.768217	1.11206
0.803989	1.14184
0.839778	1.1617
0.867908	1.17163
0.898571	1.19645
0.926756	1.1766
0.952273	1.21631
0.977835	1.23121
1.00086	1.23617
1.02382	1.27092
1.04429	1.27589
