Adsorption isotherm of Nitrogen on ASMS 5A
DOI: 10.1021/Jp202572w
Adsorbate Nitrogen: InChIKey IJGRMHOSHXDMSA-UHFFFAOYSA-N
Temperature: 77 K
Tabular data in the source: 0
pressure (bar)	uptake (mmol/g)
0.055975	0.397112
0.117039	0.433213
0.18828	0.451264
0.259521	0.505415
0.320584	0.541516
0.384192	0.559567
0.4478	0.559567
0.50632	0.577617
0.569928	0.577617
0.628447	0.613718
0.681878	0.631769
0.732764	0.613718
0.778562	0.66787
0.829448	0.703971
0.870157	0.722022
0.915955	0.722022
0.951576	0.758123
0.987196	0.812274
1.01518	0.974729
1.02282	1.35379
