Adsorption isotherm of Hydrogen on ASMS 5A
DOI: 10.1021/Jp202572w
Adsorbate Hydrogen: InChIKey UFHFLCQGNIYNRP-UHFFFAOYSA-N
Temperature: 77 K
Tabular data in the source: 0
pressure (bar)	uptake (mmol/g)
0.0508864	0.397112
0.106861	0.613718
0.167925	0.794224
0.236622	0.938628
0.297685	1.06498
0.366382	1.15523
0.435079	1.22744
0.55975	1.35379
0.613181	1.40794
0.669156	1.44404
0.717498	1.48014
0.763296	1.51625
0.809094	1.55235
0.852347	1.5704
0.887968	1.6065
0.921044	1.6426
0.951576	1.6426
0.987196	1.62455
1.01264	1.6787
1.04063	1.6787
