Adsorption isotherm of Nitrogen on ASMS 5A
DOI: 10.1021/Jp202572w
Adsorbate Nitrogen: InChIKey IJGRMHOSHXDMSA-UHFFFAOYSA-N
Temperature: 77 K
Tabular data in the source: 0
pressure (bar)	uptake (mmol/g)
0	0.938628
0.00763296	1.76895
0.0508864	2.20217
0.106861	2.40072
0.170469	2.50903
0.234077	2.61733
0.30023	2.70758
0.361293	2.81588
0.419813	2.87004
0.473244	2.94224
0.52413	3.03249
0.575016	3.12274
0.620814	3.213
0.666612	3.30325
0.707321	3.44765
0.732764	3.71841
0.753119	4.04332
0.783651	4.25993
0.82436	4.36823
0.865069	4.44043
0.910867	4.44043
0.946487	4.49458
0.982108	4.54874
1.01264	4.65704
