Adsorption isotherm of Water on ASMS 3A
DOI: 10.1021/Jp202572w
Adsorbate Water: InChIKey XLYOFNOQVPJJNP-UHFFFAOYSA-N
Temperature: 283 K
Tabular data in the source: 0
pressure (bar)	uptake (mmol/g)
0.00123271	0.545455
0.00232534	1.09091
0.00355805	1.63636
0.00518298	2.10909
0.00686395	2.54545
0.00823674	3.01818
0.00904921	3.63636
0.00932937	4.36364
0.00949747	5.05455
0.00963755	5.85455
0.00977763	6.58182
0.0111504	7.09091
0.0119629	7.67273
0.012131	8.43636
0.012159	9.2
