Adsorption isotherm of Carbon Dioxide on ASMS 3A
DOI: 10.1021/Jp202572w
Adsorbate Carbon Dioxide: InChIKey CURLTUGMZLYLDI-UHFFFAOYSA-N
Temperature: 283 K
Tabular data in the source: 0
pressure (bar)	uptake (mmol/g)
0.262617	0.244755
0.52566	0.437063
0.789059	0.585664
1.07303	0.708042
1.33678	0.812937
1.60075	0.891608
1.88507	0.97028
2.12883	1.03147
2.37266	1.08392
2.84003	1.18007
3.06357	1.22378
3.51073	1.30245
3.89697	1.36364
4.44605	1.42483
4.93413	1.47727
5.42221	1.52972
5.86966	1.57343
6.3171	1.61713
6.76462	1.6521
7.19185	1.67832
7.59859	1.72203
8.00546	1.74825
8.39184	1.79196
8.77851	1.8007
9.46992	1.87937
9.81574	1.90559
