Adsorption isotherm of Carbon Dioxide on ASMS 3A
DOI: 10.1021/Jp202572w
Adsorbate Carbon Dioxide: InChIKey CURLTUGMZLYLDI-UHFFFAOYSA-N
Temperature: 303 K
Tabular data in the source: 0
pressure (bar)	uptake (mmol/g)
0.0482698	0.031548
0.0596293	0.0378616
0.0809355	0.0457704
0.089444	0.0567924
0.100798	0.0662494
0.115009	0.0678547
0.123517	0.0788767
0.134874	0.086762
0.147663	0.0883639
0.156174	0.0978142
0.168953	0.105703
0.181739	0.108876
0.191672	0.11833
0.201604	0.127784
0.214394	0.129386
0.22575	0.137271
0.245635	0.145176
0.255568	0.15463
0.275453	0.162536
0.286807	0.171993
0.323722	0.194083
0.354964	0.209874
0.404672	0.231995
0.440175	0.249368
0.488461	0.271486
0.532492	0.288878
0.577941	0.307846
0.616281	0.328369
0.663155	0.345768
0.722809	0.369484
0.754056	0.382132
0.783885	0.393204
0.809452	0.402694
0.833598	0.412182
0.869112	0.423267
0.898941	0.43434
0.944391	0.453307
0.999784	0.475442
1.03815	0.483391
1.07365	0.500763
1.09354	0.503954
