Adsorption isotherm of Nitrogen on ASMS 3A
DOI: 10.1021/Jp202572w
Adsorbate Nitrogen: InChIKey IJGRMHOSHXDMSA-UHFFFAOYSA-N
Temperature: 283 K
Tabular data in the source: 0
pressure (bar)	uptake (mmol/g)
0.691913	0.0174825
1.36347	0.034965
1.99439	0.0437063
3.1951	0.0699301
3.74446	0.0961538
4.29396	0.104895
4.80275	0.113636
5.3114	0.13986
5.79991	0.13986
6.24764	0.148601
6.71572	0.157343
7.12267	0.174825
7.55005	0.183566
7.93671	0.192308
8.30302	0.201049
8.66933	0.20979
9.03565	0.218531
9.36132	0.218531
9.68692	0.227273
