Adsorption isotherm of Methane on ASMS 3A
DOI: 10.1021/Jp202572w
Adsorbate Methane: InChIKey VNWKTOKETHGBQD-UHFFFAOYSA-N
Temperature: 283 K
Tabular data in the source: 0
pressure (bar)	uptake (mmol/g)
0.712338	0.00874126
1.38404	0.00874126
2.01503	0.00874126
2.60531	0.00874126
3.21595	0.00874126
3.76552	0.00874126
4.33538	0.0174825
4.82389	0.0174825
5.37332	0.034965
5.84162	0.0174825
6.33005	0.0262238
6.7575	0.0262238
7.2053	0.0262238
7.63275	0.0262238
8.01941	0.034965
8.36544	0.034965
8.75218	0.034965
9.13884	0.0437063
9.46451	0.0437063
9.79012	0.0524476
