Adsorption isotherm of Water on ASMS 5A
DOI: 10.1021/Jp202572w
Adsorbate Water: InChIKey XLYOFNOQVPJJNP-UHFFFAOYSA-N
Temperature: 283 K
Tabular data in the source: 0
pressure (bar)	uptake (mmol/g)
0.000840484	0.618182
0.00165295	1.27273
0.00299773	1.81818
0.00459465	2.36364
0.00627561	2.72727
0.00767642	3.27273
0.00865698	3.85455
0.0088531	4.61818
0.00896516	5.41818
0.00916127	6.21818
0.0106741	6.69091
0.012159	7.2
0.012187	8
