Adsorption isotherm of Methane on ASMS 5A
DOI: 10.1021/Jp202572w
Adsorbate Methane: InChIKey VNWKTOKETHGBQD-UHFFFAOYSA-N
Temperature: 283 K
Tabular data in the source: 0
pressure (bar)	uptake (mmol/g)
0.690737	0.0616197
1.40179	0.114437
2.03158	0.158451
2.66137	0.202465
3.27084	0.237676
3.81937	0.264085
4.36789	0.299296
4.85547	0.325704
5.36337	0.34331
6.33853	0.396127
6.80579	0.413732
7.23242	0.431338
7.59811	0.440141
8.00442	0.457746
8.37011	0.475352
8.77642	0.484155
9.10147	0.492958
9.42653	0.501761
9.77189	0.510563
