Adsorption isotherm of Nitrogen on ASMS 5A
DOI: 10.1021/Jp202572w
Adsorbate Nitrogen: InChIKey IJGRMHOSHXDMSA-UHFFFAOYSA-N
Temperature: 283 K
Tabular data in the source: 0
pressure (bar)	uptake (mmol/g)
0.670421	0.0352113
1.36116	0.0528169
1.99095	0.0880282
2.58011	0.114437
3.18958	0.140845
3.73811	0.167254
4.28663	0.184859
4.75389	0.193662
5.26179	0.211268
5.70874	0.228873
6.176	0.237676
6.62295	0.255282
7.45589	0.28169
7.82158	0.308099
8.20758	0.308099
8.51232	0.325704
8.85768	0.334507
9.20305	0.360915
9.48747	0.352113
9.79221	0.369718
