Adsorption isotherm of Carbon Dioxide on ASMS 3A
DOI: 10.1021/Jp202572w
Adsorbate Carbon Dioxide: InChIKey CURLTUGMZLYLDI-UHFFFAOYSA-N
Temperature: 283 K
Tabular data in the source: 0
pressure (bar)	uptake (mmol/g)
0.0816783	0.114184
0.163384	0.213475
0.242549	0.302837
0.32175	0.37234
0.393301	0.42695
0.462312	0.471631
0.526204	0.516312
0.584997	0.551064
0.710278	0.610638
0.761412	0.635461
0.807437	0.655319
0.853453	0.680142
0.894378	0.690071
0.940404	0.709929
0.98132	0.724823
1.02223	0.744681
