Adsorption isotherm of Ethene on Clinoptilolite
DOI: 10.3390/ma10101159
Article source: Figure 2
Adsorbate Ethene: InChIKey VGGSQFUCUMXWEO-UHFFFAOYSA-N
Kind: experiment
Temperature: 373 K
Tabular data in the source: 0
pressure (bar)	uptake (cm3(STP)/g)
3.2e-05	0.087
0.000125	2.134
0.000188	3.201
0.000327	5.858
0.000693	10.256
0.001355	15.831
0.001942	19.076
0.002646	21.776
0.003374	23.235
0.004113	24.368
0.004695	24.913
0.005394	25.501
0.005994	26.024
0.006617	26.351
0.007391	26.787
0.008067	26.983
0.00869	27.289
0.009464	27.594
0.010093	27.877
0.010215	28.182
0.010722	28.335
0.011444	28.466
