Adsorption isotherm of Ethane on Clinoptilolite
DOI: 10.3390/ma10101159
Article source: Figure 2
Adsorbate Ethane: InChIKey OTMSDBZUPAUEDD-UHFFFAOYSA-N
Kind: experiment
Temperature: 373 K
Tabular data in the source: 0
pressure (bar)	uptake (cm3(STP)/g)
3.2e-05	0.087
0.000317	1.045
0.000631	1.699
0.001306	3.659
0.002657	6.229
0.003961	7.623
0.005381	8.669
0.006802	9.367
0.008072	9.803
0.009504	10.239
0.01011	10.545
0.010249	10.98
0.010634	11.024
0.011344	11.242
