Adsorption isotherm of Ethane on Clinoptilolite
DOI: 10.3390/ma10101159
Article source: Figure 2
Adsorbate Ethane: InChIKey OTMSDBZUPAUEDD-UHFFFAOYSA-N
Kind: experiment
Temperature: 473 K
Tabular data in the source: 0
pressure (bar)	uptake (cm3(STP)/g)
2.1e-05	0.056
0.000337	0.351
0.000701	0.637
0.001393	0.888
0.002861	1.839
0.004133	2.567
0.005433	3.166
0.006808	3.667
0.008126	4.331
0.009538	4.704
0.01009	5.052
0.01023	5.372
0.010679	5.433
0.011427	5.651
