Adsorption isotherm of Ethene on Clinoptilolite
DOI: 10.3390/ma10101159
Article source: Figure 2
Adsorbate Ethene: InChIKey VGGSQFUCUMXWEO-UHFFFAOYSA-N
Kind: experiment
Temperature: 573 K
Tabular data in the source: 0
pressure (bar)	uptake (cm3(STP)/g)
5.1e-05	0.0418
0.000361	0.3006
0.000734	0.6511
0.001437	1.1847
0.002145	1.7345
0.002775	2.1656
0.003439	2.5858
0.004099	3.0384
0.004768	3.4748
0.005442	3.8302
0.006126	4.218
0.006785	4.5409
0.007445	4.9287
0.008105	5.2301
0.008832	5.5961
0.009487	5.8921
0.010127	6.1935
0.010238	6.2581
0.010811	6.4246
0.01148	6.7097
