Adsorption isotherm of Methane on Clinoptilolite
DOI: 10.3390/ma10101159
Article source: Figure 2
Adsorbate Methane: InChIKey VNWKTOKETHGBQD-UHFFFAOYSA-N
Kind: experiment
Temperature: 673 K
Tabular data in the source: 0
pressure (bar)	uptake (cm3(STP)/g)
4.1e-05	0.00586
0.000349	0.0066
0.00075	0.00935
0.001458	0.00685
0.00279	0.01245
0.004205	0.01542
0.005466	0.01569
0.00687	0.02131
0.008143	0.02159
0.009534	0.0219
0.010124	0.02203
0.010195	0.02735
0.010655	0.02745
0.011444	0.03028
