Adsorption isotherm of Ethene on Clinoptilolite
DOI: 10.3390/ma10101159
Article source: Figure 2
Adsorbate Ethene: InChIKey VGGSQFUCUMXWEO-UHFFFAOYSA-N
Kind: experiment
Temperature: 298 K
Tabular data in the source: 0
pressure (bar)	uptake (cm3(STP)/g)
2.5e-05	8.864
3.1e-05	5.286
3.4e-05	10.666
3.4e-05	7.636
3.6e-05	0.925
5.5e-05	12.467
0.000135	14.321
0.000175	15.574
0.000192	16.828
0.000328	22.728
0.000648	28.028
0.00127	33.612
0.001992	37.498
0.002646	40.288
0.003261	42.19
0.003974	44.014
0.004616	45.289
0.005262	46.225
0.005917	46.952
0.006577	47.574
0.007223	48.249
0.007923	48.688
0.008601	49.311
0.009202	49.724
0.009836	49.981
0.010027	50.372
0.010531	50.734
0.011231	50.886
