Adsorption isotherm of Ethane on Clinoptilolite
DOI: 10.3390/ma10101159
Article source: Figure 2
Adsorbate Ethane: InChIKey OTMSDBZUPAUEDD-UHFFFAOYSA-N
Kind: experiment
Temperature: 673 K
Tabular data in the source: 0
pressure (bar)	uptake (cm3(STP)/g)
4.1e-05	0.00586
0.000361	0.03314
0.000703	0.03852
0.001481	0.09707
0.00286	0.19024
0.004168	0.23298
0.0055	0.30756
0.006833	0.3397
0.008153	0.33999
0.009521	0.36682
0.010098	0.41471
0.010205	0.39351
0.010747	0.42016
0.011383	0.45745
