Adsorption isotherm of Ethene on Clinoptilolite
DOI: 10.3390/ma10101159
Article source: Figure 2
Adsorbate Ethene: InChIKey VGGSQFUCUMXWEO-UHFFFAOYSA-N
Kind: experiment
Temperature: 673 K
Tabular data in the source: 0
pressure (bar)	uptake (cm3(STP)/g)
4.1e-05	0.00586
0.000197	0.05269
0.000349	0.08031
0.000712	0.14975
0.00144	0.28697
0.002098	0.4105
0.002771	0.49067
0.003398	0.56241
0.004062	0.64258
0.004717	0.70169
0.005446	0.82189
0.006147	0.95261
0.006755	1.03698
0.007457	1.1298
0.008102	1.17206
0.008747	1.28803
0.009467	1.36821
0.01015	1.39363
0.010235	1.39576
0.010749	1.41272
0.011469	1.51185
