Adsorption isotherm of Ethane on Clinoptilolite
DOI: 10.3390/ma10101159
Article source: Figure 2
Adsorbate Ethane: InChIKey OTMSDBZUPAUEDD-UHFFFAOYSA-N
Kind: experiment
Temperature: 298 K
Tabular data in the source: 0
pressure (bar)	uptake (cm3(STP)/g)
2.8e-05	0.164
3.6e-05	0.925
0.000111	3.915
0.000127	6.02
0.000149	7.632
0.000166	8.882
0.000332	15.001
0.000684	21.612
0.001244	27.333
0.001979	30.915
0.002569	32.885
0.003276	34.558
0.003927	35.903
0.004652	36.655
0.005224	37.474
0.005853	38.128
0.006555	38.617
0.007213	39.139
0.007825	39.727
0.008521	40.018
0.009184	40.179
0.009847	40.734
0.01006	40.831
0.010515	41.124
0.011246	41.251
