Adsorption isotherm of Methane on Clinoptilolite
DOI: 10.3390/ma10101159
Article source: Figure 2
Adsorbate Methane: InChIKey VNWKTOKETHGBQD-UHFFFAOYSA-N
Kind: experiment
Temperature: 473 K
Tabular data in the source: 0
pressure (bar)	uptake (cm3(STP)/g)
2.1e-05	0.056
0.00033	0.198
0.000686	0.246
0.001354	0.316
0.002861	0.532
0.004138	0.725
0.005578	0.992
0.006847	1.338
0.008161	1.479
0.009452	1.697
0.010083	1.743
0.010187	1.742
0.010774	1.737
0.011427	1.756
