Adsorption isotherm of Methane on Clinoptilolite
DOI: 10.3390/ma10101159
Article source: Figure 2
Adsorbate Methane: InChIKey VNWKTOKETHGBQD-UHFFFAOYSA-N
Kind: experiment
Temperature: 373 K
Tabular data in the source: 0
pressure (bar)	uptake (cm3(STP)/g)
3.2e-05	0.087
0.000703	0.405
0.001378	0.734
0.002728	1.476
0.004019	2.08
0.005413	2.657
0.006733	3.316
0.008098	3.893
0.009441	4.443
0.01005	4.69
0.010182	4.855
0.010695	5.102
0.011421	5.459
