Adsorption isotherm of Methane on Clinoptilolite
DOI: 10.3390/ma10101159
Article source: Figure 2
Adsorbate Methane: InChIKey VNWKTOKETHGBQD-UHFFFAOYSA-N
Kind: experiment
Temperature: 298 K
Tabular data in the source: 0
pressure (bar)	uptake (cm3(STP)/g)
6.3e-05	0.35
0.000313	1.184
0.00066	1.965
0.001293	3.58
0.001944	5.038
0.002585	6.497
0.00328	7.85
0.00394	9.204
0.004617	10.453
0.005339	11.44
0.005919	12.481
0.00657	13.26
0.00722	14.3
0.007871	14.975
0.008522	15.963
0.009128	16.638
0.009823	17.469
0.010002	17.781
0.010501	18.144
0.01117	18.766
