Adsorption isotherm of Methane on Clinoptilolite
DOI: 10.3390/ma10101159
Article source: Figure 2
Adsorbate Methane: InChIKey VNWKTOKETHGBQD-UHFFFAOYSA-N
Kind: experiment
Temperature: 573 K
Tabular data in the source: 0
pressure (bar)	uptake (cm3(STP)/g)
5.1e-05	0.0418
0.000739	0.0365
0.001455	0.0866
0.002834	0.0927
0.004174	0.1074
0.005491	0.165
0.006816	0.2054
0.008195	0.2286
0.009512	0.1833
0.01009	0.1822
0.010252	0.1734
0.010775	0.181
0.011484	0.1539
