Adsorption isotherm of Ethane on Clinoptilolite
DOI: 10.3390/ma10101159
Article source: Figure 2
Adsorbate Ethane: InChIKey OTMSDBZUPAUEDD-UHFFFAOYSA-N
Kind: experiment
Temperature: 573 K
Tabular data in the source: 0
pressure (bar)	uptake (cm3(STP)/g)
5.1e-05	0.0418
0.000392	0.1143
0.000738	0.1737
0.001463	0.1981
0.002857	0.3757
0.004181	0.519
0.005483	0.7139
0.006962	0.8227
0.008148	1.0006
0.00958	1.0237
0.010174	1.0483
0.010258	1.0568
0.010805	1.0986
0.011452	1.1489
