Adsorption isotherm of Ethene on Clinoptilolite
DOI: 10.3390/ma10101159
Article source: Figure 2
Adsorbate Ethene: InChIKey VGGSQFUCUMXWEO-UHFFFAOYSA-N
Kind: experiment
Temperature: 473 K
Tabular data in the source: 0
pressure (bar)	uptake (cm3(STP)/g)
2.1e-05	0.056
0.00036	1.355
0.000679	2.983
0.001285	5.368
0.001945	7.735
0.002665	9.566
0.003303	11.193
0.003985	12.666
0.004608	13.758
0.005328	14.874
0.005988	15.684
0.006671	16.546
0.007354	17.279
0.008036	18.064
0.008712	18.721
0.009365	19.149
0.010055	19.755
0.010211	19.958
0.010686	20.26
0.011383	20.662
