Adsorption isotherm of 1-Propanol on CUGDIT
DOI: 10.1021/acs.inorgchem.5b00592
Article source: Figure 3
Adsorbate 1-Propanol: InChIKey BDERNNFJNOPAEC-UHFFFAOYSA-N
Kind: experiment
Temperature: 298 K
Tabular data in the source: 0
pressure (bar)	uptake (cm3(STP)/g)
0.000956	10.653
0.001282	12.457
0.001672	10.247
0.001705	12.655
0.002161	13.053
0.002519	12.649
0.002876	11.442
0.003626	14.246
0.004082	14.042
0.004829	11.227
0.005579	15.035
0.00649	15.63
0.006815	13.019
0.007792	15.821
0.008312	13.61
0.009419	16.612
0.010037	13.799
0.011828	18.2
0.012934	15.784
0.013523	24.007
0.015895	15.562
0.017266	27.191
0.018824	16.745
0.021363	17.329
0.022864	28.154
0.023836	17.913
0.025303	23.521
0.027519	30.328
