Adsorption isotherm of Ethanol on CUGDIT
DOI: 10.1021/acs.inorgchem.5b00592
Article source: Figure 3
Adsorbate Ethanol: InChIKey LFQSCWFLJHTTHZ-UHFFFAOYSA-N
Kind: experiment
Temperature: 298 K
Tabular data in the source: 0
pressure (bar)	uptake (cm3(STP)/g)
0.000671	9.655
0.000863	19.086
0.000956	20.992
0.000994	14.069
0.00255	22.693
0.003598	22.691
0.004325	22.187
0.005147	24.392
0.005739	24.591
0.007058	24.789
0.007421	23.283
0.00929	26.489
0.010972	24.578
0.011431	27.687
0.014159	25.473
0.0153	27.878
0.018574	25.261
0.020805	26.459
0.022859	31.27
0.023866	36.284
0.025092	27.654
0.027921	38.636
0.03015	28.278
0.031394	42.927
0.032412	48.499
0.033213	54.23
0.033652	59.166
0.034453	65.057
0.03463	28.744
0.034677	71.905
0.034828	78.275
0.036063	84.483
0.038604	29.53
0.040112	87.181
0.042216	29.521
0.046191	30.466
0.046357	89.164
0.049162	31.324
0.052086	31.886
0.053899	38.138
0.054022	45.027
0.054371	50.019
0.054472	89.964
0.054636	56.592
0.0549	62.027
0.055365	67.84
0.05563	74.792
0.057302	82.436
0.059233	91.279
0.059801	87.233
0.06293	90.069
0.066573	92.019
0.067202	90.437
0.071333	92.639
0.071706	92.448
0.075147	93.261
