Adsorption isotherm of Carbon Dioxide on CUGDIT
DOI: 10.1021/acs.inorgchem.5b00592
Article source: Figure 3
Adsorbate Carbon Dioxide: InChIKey CURLTUGMZLYLDI-UHFFFAOYSA-N
Kind: experiment
Temperature: 195 K
Tabular data in the source: 0
pressure (bar)	uptake (cm3(STP)/g)
0.000777	6.336
0.012594	7.252
0.013308	27.023
0.017927	32.671
0.029278	6.948
0.041633	36.718
0.062688	7.865
0.062854	39.849
0.073956	7.332
0.084126	44.124
0.089201	8.019
0.104269	48.717
0.109831	8.326
0.131652	53.238
0.154053	57.086
0.160982	9.288
0.180141	60.261
0.187639	10.828
0.209378	64.782
0.213727	14.003
0.231365	22.948
0.23182	69.881
0.243202	76.806
0.254957	25.353
0.261958	82.384
0.278797	86.136
0.283116	34.299
0.297543	91.426
0.301789	37.666
0.314455	97.486
0.33609	102.607
0.341061	46.131
0.360997	50.171
0.363172	104.669
0.379525	54.748
0.386277	105.815
0.406193	59.024
0.413784	106.198
0.432871	63.758
0.438339	106.581
0.459487	66.813
0.465867	107.651
0.486684	72.31
0.494368	108.416
0.513787	75.212
0.525324	109.257
0.534541	78.877
0.560712	83.305
0.575429	110.022
0.586904	88.039
0.613344	93.316
0.623245	110.388
0.662133	99.81
0.672438	111.255
0.723858	104.862
0.726582	111.835
0.774843	112.462
0.78056	108.039
0.822152	112.32
0.837821	109.532
0.889521	111.121
0.893612	113.141
0.940568	111.749
0.94063	113.288
0.997229	113.531
0.99726	114.444
