Adsorption isotherm of Nitrogen on CUGDIT
DOI: 10.1021/acs.inorgchem.5b00592
Article source: Figure 3
Adsorbate Nitrogen: InChIKey IJGRMHOSHXDMSA-UHFFFAOYSA-N
Kind: experiment
Temperature: 77 K
Tabular data in the source: 0
pressure (bar)	uptake (cm3(STP)/g)
0.003313	3.847
0.008157	3.943
0.022666	3.656
0.029019	3.464
0.050216	3.994
0.052941	4.09
0.07049	4.139
0.078353	4.091
0.098912	3.563
0.105264	3.563
0.145804	3.71
0.156098	3.758
0.199059	3.904
0.211167	3.857
0.250187	3.859
0.258657	3.715
0.298285	3.573
0.307657	3.477
0.352158	4.008
0.362443	4.008
0.399648	3.866
0.411746	3.818
0.451982	3.724
0.502532	4.448
0.554591	4.787
0.606013	4.741
0.659015	5.4
0.667009	5.279
0.712007	5.584
0.712341	4.494
0.759264	5.283
0.766883	5.284
0.806531	5.528
0.813401	5.71
0.858013	6.136
0.866403	6.015
0.91062	6.018
0.918615	5.957
0.958272	6.262
0.969327	6.384
1.00325	6.083
1.00743	6.022
