Adsorption isotherm of Methanol on CUGDIT
DOI: 10.1021/acs.inorgchem.5b00592
Article source: Figure 3
Adsorbate Methanol: InChIKey OKKJLVBELUTLKV-UHFFFAOYSA-N
Kind: experiment
Temperature: 298 K
Tabular data in the source: 0
pressure (bar)	uptake (cm3(STP)/g)
0.002534	12.614
0.002669	7.697
0.004093	7.445
0.004607	17.427
0.005277	9.851
0.006334	21.037
0.006753	11.003
0.007965	25.199
0.008475	12.958
0.010792	16.316
0.011995	27.351
0.013627	31.964
0.016001	18.467
0.01893	19.533
0.019034	31
0.023926	22.394
0.023953	34.339
0.027396	23.585
0.027814	35.848
0.033442	25.648
0.033631	39.583
0.037149	27.953
0.039128	40.931
0.045416	29.974
0.048646	44.861
0.053369	31.398
0.056685	49.311
0.059688	33.46
0.059814	54.404
0.062402	60.931
0.064287	66.98
0.064628	79.323
0.065002	72.793
0.065733	85.294
0.066137	91.744
0.069905	36.156
0.074333	96.831
0.07825	38.296
0.08223	99.55
0.08704	39.879
0.090154	102.006
0.094346	42.399
0.100166	104.451
0.104068	46.559
0.107042	105.947
0.110452	51.734
0.113505	60.705
0.115251	66.834
0.116801	108.566
0.117183	73.089
0.118371	78.895
0.121331	84.811
0.124322	91.714
0.124364	109.95
0.12679	97.485
0.131913	104.486
0.13384	112.607
0.138394	109.615
0.140822	115.186
0.144869	112.195
0.149986	117.485
0.152401	116.526
0.159739	121.654
0.161885	122.925
