Adsorption isotherm of Hydrogen on CUGDIT
DOI: 10.1021/acs.inorgchem.5b00592
Article source: Figure 3
Adsorbate Hydrogen: InChIKey UFHFLCQGNIYNRP-UHFFFAOYSA-N
Kind: experiment
Temperature: 77 K
Tabular data in the source: 0
pressure (bar)	uptake (cm3(STP)/g)
0.0044	3.733
0.0187	3.915
0.0413	4.583
0.05258	4.583
0.08267	4.403
0.09847	4.283
0.09885	4.283
0.11351	4.162
0.12442	4.163
0.13609	4.103
0.15114	4.225
0.20342	4.045
0.24857	4.048
0.29859	3.565
0.34824	3.204
0.39301	3.327
0.40053	3.328
0.44644	3.694
0.49726	4.423
0.54351	3.88
0.59618	3.822
0.64545	3.643
0.69511	3.645
0.69887	3.403
0.74178	4.132
0.79181	3.953
0.80309	3.832
0.84373	3.955
0.85464	3.956
0.89076	4.139
0.90017	4.2
0.94004	3.96
0.94681	3.899
0.9732	5.718
0.9876	8.445
0.99139	9.354
