Adsorption isotherm of 2-Propanol on CUGDIT
DOI: 10.1021/acs.inorgchem.5b00592
Article source: Figure 3
Adsorbate 2-Propanol: InChIKey KFZMGEQAYNKOFK-UHFFFAOYSA-N
Kind: experiment
Temperature: 298 K
Tabular data in the source: 0
pressure (bar)	uptake (cm3(STP)/g)
0.000815	2.43
0.003605	2.22
0.006661	2.41
0.00779	2.406
0.01058	2.396
0.016692	2.575
0.021208	2.158
0.022005	2.356
0.026722	2.339
0.027319	2.337
0.031969	2.32
0.033032	2.517
0.038214	2.499
0.039144	2.697
0.04386	2.479
0.044723	2.476
0.049572	2.258
0.050436	2.657
0.055086	2.44
