Adsorption isotherm of Nitrogen on NU-1103
DOI: 10.1021/ja512973b
Article source: Figure 4b- in water
Adsorbate Nitrogen: InChIKey IJGRMHOSHXDMSA-UHFFFAOYSA-N
Kind: experiment
Temperature: 77 K
Tabular data in the source: 0
pressure (bar)	uptake (cm3(STP)/g)
0.000193	30.03
0.001327	67.08
0.002087	107.83
0.0038	150.92
0.004114	197.13
0.005249	224.82
0.005634	253.87
0.006009	279.21
0.006009	279.22
0.008096	366.77
0.010001	403.04
0.013294	431.31
0.014489	459
0.016394	495.66
0.018735	518.86
0.022666	554.73
0.026334	579.5
0.028867	608.94
0.032799	637.99
0.037166	669.19
0.040844	699.41
0.045019	733.92
0.047684	760.44
0.052882	793.58
0.059397	844.86
0.063774	878.4
0.068526	909.6
0.073714	941.77
0.078274	970.43
0.08334	1003.97
0.088984	1037.89
0.093665	1067.53
0.098802	1097.94
0.103868	1126.61
0.109755	1157.22
0.115338	1181.78
0.122998	1213.95
0.130851	1250.41
0.138076	1281.8
0.144854	1312.8
0.152454	1346.14
0.15828	1373.05
0.162404	1405.03
0.166264	1431.74
0.170003	1465.47
0.171199	1505.25
0.172283	1589.01
0.173164	1597.48
0.182476	1623.02
0.193814	1636.08
0.20573	1645.43
0.213269	1652.45
0.220108	1660.24
0.226948	1669.8
0.23785	1673.69
0.248996	1679.73
0.260588	1684.02
0.27225	1690.06
0.284156	1693.95
0.293792	1697.85
0.304563	1700.19
0.347393	1711.48
0.401936	1725.5
0.45275	1731.91
0.503687	1741.06
0.529727	1742.41
0.555575	1746.89
0.605184	1752.33
0.655492	1757.57
0.705789	1762.62
0.732144	1766.12
0.75781	1768.65
0.806719	1771.75
0.857463	1775.43
0.90847	1779.7
0.939384	1784.37
0.999764	1804.63
