Adsorption isotherm of Nitrogen on NU-1103
DOI: 10.1021/ja512973b
Article source: Figure 4a- NU1103
Adsorbate Nitrogen: InChIKey IJGRMHOSHXDMSA-UHFFFAOYSA-N
Kind: experiment
Temperature: 77 K
Tabular data in the source: 0
pressure (bar)	uptake (cm3(STP)/g)
0.010792	126.06
0.012096	171.48
0.013586	218.31
0.014889	238.33
0.046588	716.57
0.04752	731.03
0.049195	771.23
0.051366	791.88
0.05428	810.18
0.056946	826.11
0.061719	852.5
0.064943	871.16
0.103755	1108
0.109459	1156.78
0.119503	1193.58
0.123719	1229.17
0.133761	1266.17
0.142564	1307.88
0.153413	1354.71
0.161906	1396.81
0.16724	1449.32
0.170342	1500.84
0.171832	1544.69
0.172516	1619.61
0.174006	1627.27
0.193903	1662.72
0.213984	1679.31
0.231586	1692.54
0.258175	1708.76
0.274103	1719.03
0.290714	1717.32
0.311475	1721.72
0.355418	1736.03
0.409585	1747.42
0.459415	1756.05
0.509616	1763.11
0.559756	1772.92
0.610266	1779.38
0.660964	1789.98
0.710483	1793.1
0.760808	1793.87
0.81169	1798.96
0.861086	1807.78
0.911411	1813.07
0.960931	1822.88
0.989937	1840.28
1.00897	1866.49
