Adsorption isotherm of Nitrogen on NU-1103
DOI: 10.1021/ja512973b
Article source: Figure 4b- before activation step
Adsorbate Nitrogen: InChIKey IJGRMHOSHXDMSA-UHFFFAOYSA-N
Kind: experiment
Temperature: 77 K
Tabular data in the source: 0
pressure (bar)	uptake (cm3(STP)/g)
2e-06	71.84
7.1e-05	74.28
0.002665	125.76
0.005016	180.93
0.005401	205.31
0.005411	324.04
0.005472	361.08
0.006039	271.79
0.008076	409.24
0.012959	456.03
0.016131	500.29
0.018157	525.64
0.022221	564.05
0.027854	614.35
0.032302	654.9
0.038189	700.92
0.043205	742.64
0.046944	781.05
0.053034	823.94
0.056266	852.99
0.061778	896.08
0.06654	923.38
0.067736	926.3
0.07414	969.58
0.078142	997.66
0.085488	1039.19
0.088913	1063.56
0.096907	1110.35
0.104132	1150.71
0.113443	1193.8
0.120425	1224.22
0.129169	1267.11
0.139119	1308.83
0.148441	1356.01
0.157885	1403.98
0.161948	1455.45
0.165241	1502.05
0.166132	1543.97
0.166892	1625.08
0.168169	1631.7
0.186671	1662.7
0.208284	1677.71
0.227485	1688.05
0.243454	1696.82
0.262908	1705.21
0.277235	1713.78
0.289465	1719.63
0.296751	1722.36
0.305302	1724.51
0.347636	1730.36
0.406323	1746.73
0.454483	1755.7
0.506068	1762.33
0.556578	1770.52
0.606896	1775.98
0.65766	1783.19
0.708677	1790.02
0.759056	1795.67
0.810134	1799.77
0.860259	1805.62
0.91153	1813.41
0.960581	1825.31
0.989601	1839.93
1.00037	1856.7
1.00595	1883.99
