Adsorption isotherm of Nitrogen on NU-1101
DOI: 10.1021/ja512973b
Article source: Figure 4a- NU1101
Adsorbate Nitrogen: InChIKey IJGRMHOSHXDMSA-UHFFFAOYSA-N
Kind: experiment
Temperature: 77 K
Tabular data in the source: 0
pressure (bar)	uptake (cm3(STP)/g)
0.109593	1020.29
0.145603	1044.85
0.170248	1054.27
0.202094	1061.92
0.233628	1068.39
0.257466	1074.28
0.275654	1076.63
0.291793	1079.17
0.307497	1079.95
0.331271	1082.1
0.358521	1084.84
0.381116	1087.38
0.406442	1089.92
0.430402	1091.48
0.457031	1093.82
0.48186	1094.4
0.507558	1097.14
0.532636	1099.29
0.55734	1101.24
0.583038	1100.83
0.60824	1102.78
0.633565	1103.75
0.659138	1104.72
0.684215	1103.72
0.709417	1105.67
0.734369	1106.05
0.760378	1109.18
0.785083	1110.54
0.810407	1109.94
0.835733	1109.93
0.861182	1110.89
0.886259	1111.86
0.911274	1113.42
0.961242	1113.79
0.99172	1116.72
1.00755	1119.66
