Adsorption isotherm of Nitrogen on NU-1104
DOI: 10.1021/ja512973b
Article source: Figure 4a- NU1104
Adsorbate Nitrogen: InChIKey IJGRMHOSHXDMSA-UHFFFAOYSA-N
Kind: experiment
Temperature: 77 K
Tabular data in the source: 0
pressure (bar)	uptake (cm3(STP)/g)
0.010045	40.62
0.01017	40.54
0.011348	121.94
0.01203	168.35
0.012589	200.59
0.01265	206.53
0.012774	266.86
0.015688	322.51
0.021456	372.47
0.025735	421.05
0.031439	472.19
0.03485	507.59
0.039562	551.65
0.043035	597.08
0.047128	621.87
0.051531	670.06
0.053391	696.02
0.060832	739.89
0.063375	785.51
0.068707	828.99
0.073358	868.13
0.077885	915.14
0.083342	953.1
0.089791	989.5
0.095868	1018.82
0.102442	1054.03
0.110627	1105.18
0.120424	1135.69
0.13202	1182.33
0.136981	1230.72
0.150934	1274.81
0.161537	1310.63
0.173443	1361.6
0.181443	1406.06
0.188387	1466.25
0.192232	1527.8
0.20141	1603.34
0.221563	1641.75
0.238678	1689.59
0.250956	1708.9
0.267265	1718.39
0.281217	1726.31
0.301433	1729.52
0.326484	1736.89
0.346142	1743.25
0.367722	1750.99
0.389302	1752.44
0.409269	1757.03
0.427189	1760.24
0.450133	1765.04
0.4701	1766.88
0.490317	1769.9
0.507865	1771.93
0.530189	1776.92
0.550218	1778.17
0.57062	1780.21
0.591083	1782.84
0.608942	1783.88
0.631142	1785.14
0.651481	1785.8
0.67151	1787.44
0.691106	1789.67
0.711445	1788.76
0.734885	1788.84
0.759504	1790.9
0.786664	1794.73
0.811407	1796.39
0.836396	1796.08
0.861511	1798.72
0.886811	1801.17
0.910188	1803.61
0.937721	1804.3
0.962836	1805.37
1.00041	1808.25
