Adsorption isotherm of Nitrogen on 300 K MCM-41
DOI: 10.1021/acs.langmuir.6b02814
Article source: Figure 8
Adsorbate Nitrogen: InChIKey IJGRMHOSHXDMSA-UHFFFAOYSA-N
Kind: experiment
Temperature: 300 K
Tabular data in the source: 0
pressure (bar)	uptake (mmol/g)
0.0102	0.000441
0.20048	0.007956
0.39823	0.015903
0.69739	0.02754
0.99362	0.039549
