Adsorption isotherm of Nitrogen on MCM-41_900C
DOI: 10.1021/acs.langmuir.6b02814
Article source: Figure 5
Adsorbate Nitrogen: InChIKey IJGRMHOSHXDMSA-UHFFFAOYSA-N
Kind: experiment
Temperature: 77 K
Tabular data in the source: 0
pressure (bar)	uptake (mmol/g)
0.000535	3.3494
0.002206	4.1815
0.00447	4.9634
0.014942	6.3372
0.021602	6.8175
0.025883	7.0398
0.030879	7.2811
0.061202	8.4484
0.079039	8.9846
0.103056	9.5152
0.122556	9.9062
0.142886	10.2916
0.163338	10.8446
0.183788	11.2635
0.203526	11.8053
0.243842	13.721
0.344204	17.4072
0.455479	17.8432
0.557837	18.1005
0.659007	18.3746
0.749238	18.5313
0.812721	18.6824
0.85219	18.7607
0.887022	18.9116
0.919121	18.9955
0.952409	19.314
0.967508	19.3197
0.984867	19.7274
0.996758	20.2077
1.00318	20.5707
