Adsorption isotherm of Nitrogen on MCM-41_500C
DOI: 10.1021/acs.langmuir.6b02814
Article source: Figure 5
Adsorbate Nitrogen: InChIKey IJGRMHOSHXDMSA-UHFFFAOYSA-N
Kind: experiment
Temperature: 77 K
Tabular data in the source: 0
pressure (bar)	uptake (mmol/g)
0.011772	7.1936
0.043182	9.4672
0.060536	10.132
0.080812	10.6461
0.104011	11.3021
0.113159	11.5459
0.124005	11.803
0.144375	12.357
0.163896	12.7515
0.17776	13.1637
0.203788	13.8507
0.212937	14.2053
0.244156	15.8496
0.277832	18.9651
0.302827	20.2858
0.312446	20.5561
0.344321	20.9817
0.357051	21.1103
0.376053	21.3749
0.412408	21.537
0.444131	21.66
0.456368	21.755
0.478467	21.8277
0.513158	21.9563
0.545237	22.057
0.556643	22.1296
0.578147	22.2247
0.613196	22.2304
0.647294	22.3479
0.659532	22.3814
0.67961	22.4988
0.713946	22.6051
0.749351	22.7448
0.780123	22.8623
0.813628	23.0076
0.846775	23.1362
0.854498	23.2144
0.879567	23.3876
0.887884	23.4435
0.912359	23.6502
0.921864	23.6838
0.938853	23.7565
0.954537	24.0078
0.968319	24.287
0.976519	24.5383
0.9865	24.9069
0.991372	25.1079
0.998027	25.4932
1.00349	26.1911
