Adsorption isotherm of Nitrogen on MCM-41_700C
DOI: 10.1021/acs.langmuir.6b02814
Article source: Figure 5
Adsorbate Nitrogen: InChIKey IJGRMHOSHXDMSA-UHFFFAOYSA-N
Kind: experiment
Temperature: 77 K
Tabular data in the source: 0
pressure (bar)	uptake (mmol/g)
9.4e-05	4.2728
0.002253	5.2652
0.005122	6.0457
0.015377	7.6178
0.020141	8.0191
0.026567	8.3311
0.030616	8.6098
0.059773	9.9247
0.079047	10.543
0.09927	11.0832
0.122824	11.679
0.141978	12.197
0.162674	12.581
0.183134	12.9986
0.203356	13.4997
0.242375	14.4631
0.342789	21.1295
0.454226	22.0142
0.557418	22.3839
0.658781	22.6683
0.750134	22.9053
0.813276	23.1374
0.852919	23.2773
0.888029	23.3956
0.918891	23.5362
0.953061	23.8449
0.968636	24.0126
0.986196	24.4148
0.995453	24.8172
1.00301	25.2993
