Adsorption isotherm of Nitrogen on MCM-41
DOI: 10.1021/acs.langmuir.6b02814
Article source: Figure 7
Adsorbate Nitrogen: InChIKey IJGRMHOSHXDMSA-UHFFFAOYSA-N
Kind: experiment
Temperature: 300 K
Tabular data in the source: 0
pressure (bar)	uptake (mmol/g)
0.04844	1.8394
0.09883	2.8482
0.14978	3.5308
0.24913	4.2983
0.29923	4.8878
0.34906	5.5006
0.40028	5.8494
0.44925	6.2216
0.49851	6.4384
0.54917	7.0978
0.59927	7.2447
0.65021	7.7954
0.70172	7.9734
0.74985	8.4542
0.80022	8.6633
0.84863	8.9811
0.89957	9.2678
0.94855	9.5312
