Adsorption isotherm of Nitrogen on 2650 K MCM-41
DOI: 10.1021/acs.langmuir.6b02814
Article source: Figure 8
Adsorbate Nitrogen: InChIKey IJGRMHOSHXDMSA-UHFFFAOYSA-N
Kind: experiment
Temperature: 300 K
Tabular data in the source: 0
pressure (bar)	uptake (mmol/g)
0.00943	0.000487
0.19797	0.00638
0.39991	0.013386
0.69733	0.022727
0.99786	0.032789
