Adsorption isotherm of Nitrogen on MCM-41
DOI: 10.1021/acs.langmuir.6b02814
Article source: Figure 7
Adsorbate Nitrogen: InChIKey IJGRMHOSHXDMSA-UHFFFAOYSA-N
Kind: experiment
Temperature: 77 K
Tabular data in the source: 0
pressure (bar)	uptake (mmol/g)
0.00234	4.327
0.00277	4.4198
0.0032	4.4903
0.0132	5.5022
0.0184	5.7807
0.02361	6.0929
0.02727	6.2256
0.05822	7.1561
0.07875	7.6179
0.10041	8.0254
0.12109	8.3956
0.14092	8.742
0.15963	9.0985
0.18045	9.4925
0.20071	10.0834
0.24109	11.9851
0.34346	14.0286
0.45307	14.4221
0.55688	14.6916
0.65733	14.918
0.7502	15.1714
0.8098	15.3547
