Adsorption isotherm of Krypton on 300 K MCM-41
DOI: 10.1021/acs.langmuir.6b02814
Article source: Figure 8
Adsorbate Krypton: InChIKey DNNSSWSSYDEUBZ-UHFFFAOYSA-N
Kind: experiment
Temperature: 300 K
Tabular data in the source: 0
pressure (bar)	uptake (mmol/g)
0.00695	0.000853
0.19674	0.013224
0.39714	0.026154
0.6991	0.044925
0.99698	0.06238
