Adsorption isotherm of Argon on 300 K MCM-41
DOI: 10.1021/acs.langmuir.6b02814
Article source: Figure 8
Adsorbate Argon: InChIKey XKRFYHLGVUSROY-UHFFFAOYSA-N
Kind: experiment
Temperature: 300 K
Tabular data in the source: 0
pressure (bar)	uptake (mmol/g)
0.0061	0.000672
0.19493	0.008911
0.39822	0.017869
0.69608	0.03158
0.9949	0.044619
