Adsorption isotherm of Xenon on 2650 K MCM-41
DOI: 10.1021/acs.langmuir.6b02814
Article source: Figure 8
Adsorbate Xenon: InChIKey FHNFHKCVQCLJFQ-UHFFFAOYSA-N
Kind: experiment
Temperature: 300 K
Tabular data in the source: 0
pressure (bar)	uptake (mmol/g)
0.00555	0.001752
0.19356	0.028111
0.39559	0.056624
0.69389	0.093111
0.99536	0.128663
