Adsorption isotherm of Krypton on 2650 K MCM-41
DOI: 10.1021/acs.langmuir.6b02814
Article source: Figure 8
Adsorbate Krypton: InChIKey DNNSSWSSYDEUBZ-UHFFFAOYSA-N
Kind: experiment
Temperature: 300 K
Tabular data in the source: 0
pressure (bar)	uptake (mmol/g)
0.00623	0.00086
0.19537	0.013558
0.39725	0.02629
0.69801	0.046002
0.99972	0.067198
