Adsorption isotherm of Nitrogen on MCM-41
DOI: 10.1021/acs.langmuir.6b02814
Article source: Figure 5
Adsorbate Nitrogen: InChIKey IJGRMHOSHXDMSA-UHFFFAOYSA-N
Kind: experiment
Temperature: 77 K
Tabular data in the source: 0
pressure (bar)	uptake (mmol/g)
0.012952	7.9889
0.032302	9.6964
0.061082	11.1858
0.081611	11.9937
0.101538	12.5133
0.12521	13.2086
0.144087	13.7423
0.164163	14.262
0.184838	14.8027
0.205664	15.4629
0.244286	17.9806
0.250596	18.8719
0.253459	19.1072
0.304271	22.3137
0.356102	22.9708
0.4569	23.6491
0.558879	24.0373
0.660383	24.3139
0.751428	24.68
0.811808	24.8795
0.853885	25.1463
0.889068	25.3017
0.918071	25.5353
0.940896	25.7802
0.954924	26.0254
0.96729	26.2817
0.97847	26.7166
0.987038	27.2631
0.993228	27.7762
0.998706	28.3339
1.00229	29.1483
1.0042	29.9404
