Adsorption isotherm of Argon on 2650 K MCM-41
DOI: 10.1021/acs.langmuir.6b02814
Article source: Figure 8
Adsorbate Argon: InChIKey XKRFYHLGVUSROY-UHFFFAOYSA-N
Kind: experiment
Temperature: 300 K
Tabular data in the source: 0
pressure (bar)	uptake (mmol/g)
0.00679	0.000447
0.19582	0.008275
0.39652	0.016458
0.69673	0.028899
0.99827	0.041136
