Adsorption isotherm of Nitrogen on MCM-41_1000C
DOI: 10.1021/acs.langmuir.6b02814
Article source: Figure 5
Adsorbate Nitrogen: InChIKey IJGRMHOSHXDMSA-UHFFFAOYSA-N
Kind: experiment
Temperature: 77 K
Tabular data in the source: 0
pressure (bar)	uptake (mmol/g)
0.002888	0.0462
0.011983	0.0853
0.01965	0.0937
0.030052	0.0937
0.044854	0.1189
0.059297	0.1274
0.079388	0.1274
0.10254	0.1643
0.121712	0.1573
0.14313	0.175
0.163126	0.1751
0.181623	0.1681
0.20117	0.1541
0.254006	0.1916
0.302787	0.1741
0.353363	0.3073
0.40639	0.2587
0.454039	0.2634
0.505972	0.3031
0.558095	0.3034
0.608871	0.3106
0.657999	0.3671
0.709823	0.3954
0.750528	0.4652
0.782388	0.4654
0.812584	0.4934
0.832556	0.5103
0.852528	0.5494
0.873094	0.5607
0.88751	0.5444
0.901851	0.5444
0.918931	0.611
0.927233	0.6154
0.939311	0.6377
0.947974	0.6567
0.954416	0.6779
0.960257	0.699
0.967297	0.7764
0.975835	0.8187
0.98647	0.9665
0.991413	1.0791
0.997856	1.2269
1.00115	1.4098
1.0052	1.5576
