Adsorption isotherm of Xenon on 300 K MCM-41
DOI: 10.1021/acs.langmuir.6b02814
Article source: Figure 8
Adsorbate Xenon: InChIKey FHNFHKCVQCLJFQ-UHFFFAOYSA-N
Kind: experiment
Temperature: 300 K
Tabular data in the source: 0
pressure (bar)	uptake (mmol/g)
0.00599	0.001587
0.19582	0.022464
0.39491	0.045755
0.69419	0.080881
0.99485	0.110913
