Adsorption isotherm of Hydrogen on Carbon
DOI: 10.1016/j.micromeso.2011.10.011
Adsorbate Hydrogen: InChIKey UFHFLCQGNIYNRP-UHFFFAOYSA-N
Temperature: 77 K
Tabular data in the source: 0
pressure (bar)	uptake (mmol/cm3)
0.0273249	0.2823
0.0587426	0.733004
0.0924988	1.18371
0.141923	1.97244
0.186364	2.53582
0.254433	3.32455
0.325548	4.22596
0.493057	6.08512
0.77639	8.78934
1.10203	11.3246
1.37394	13.0147
1.66907	14.3105
2.46314	17.4654
3.45118	20.3386
4.83555	23.1555
6.68792	25.4091
9.9986	27.8879
13.4746	29.5217
19.1262	31.6062
