Adsorption isotherm of Hydrogen on Carbon
DOI: 10.1016/j.micromeso.2011.10.011
Adsorbate Hydrogen: InChIKey UFHFLCQGNIYNRP-UHFFFAOYSA-N
Temperature: 77 K
Tabular data in the source: 0
pressure (bar)	uptake (mmol/cm3)
0.0276817	1.80343
0.0602866	3.66258
0.099986	5.80343
0.138288	7.66258
0.196289	9.4654
0.251153	11.5499
0.329799	13.4091
0.512623	16.4513
0.766383	19.5499
1.16072	22.1415
1.60536	24.0569
2.05407	25.2964
3.36279	27.7189
5.87426	30.8175
6.86371	31.4936
19.3759	35.2119
