Adsorption isotherm of Hydrogen on Carbon
DOI: 10.1016/j.micromeso.2011.10.011
Adsorbate Hydrogen: InChIKey UFHFLCQGNIYNRP-UHFFFAOYSA-N
Temperature: 77 K
Tabular data in the source: 0
pressure (bar)	uptake (mmol/cm3)
0.0267843	0.493468
0.0614153	1.58038
0.0911788	2.43846
0.190654	4.8411
0.327182	7.70139
0.512022	10.6761
0.811912	13.7652
1.12856	16.7971
1.65356	19.829
2.52045	22.4033
3.54988	24.5199
4.99975	27.0941
6.76895	29.0391
10.4544	31.6706
14.9195	32.8147
19.4163	33.9588
