Adsorption isotherm of Hydrogen on Carbon
DOI: 10.1016/j.micromeso.2011.10.011
Adsorbate Hydrogen: InChIKey UFHFLCQGNIYNRP-UHFFFAOYSA-N
Temperature: 77 K
Tabular data in the source: 0
pressure (bar)	uptake (mmol/cm3)
0.0254096	1.23714
0.0582632	2.61008
0.094854	4.15463
0.13898	5.87081
0.190654	7.75859
0.318675	11.763
0.518811	14.9093
0.780454	18.3417
1.14352	21.2591
1.6977	24.0622
2.45492	26.2932
3.59694	28.5243
4.80603	30.1832
7.04179	32.1854
9.91785	33.9588
14.1538	35.5034
20.7381	37.1623
