Adsorption isotherm of Hydrogen on Carbon
DOI: 10.1016/j.micromeso.2011.10.011
Adsorbate Hydrogen: InChIKey UFHFLCQGNIYNRP-UHFFFAOYSA-N
Temperature: 77 K
Tabular data in the source: 0
pressure (bar)	uptake (mmol/cm3)
0.0282334	1.00832
0.0606117	1.86641
0.0986774	3.41096
0.137161	4.7839
0.251407	7.87301
0.398656	11.2481
0.666347	14.4517
0.963555	17.5408
1.39333	20.5155
2.0415	23.2613
2.95206	25.7212
3.99667	27.895
5.70366	29.84
8.24764	31.5562
11.6162	33.6728
17.2457	34.8169
20.4668	35.9038
