Adsorption isotherm of Hydrogen on Carbon
DOI: 10.1016/j.micromeso.2011.10.011
Adsorbate Hydrogen: InChIKey UFHFLCQGNIYNRP-UHFFFAOYSA-N
Temperature: 77 K
Tabular data in the source: 0
pressure (bar)	uptake (mmol/cm3)
0.0260879	3.63978
0.0567484	7.18654
0.0973861	10.0468
0.13898	12.6783
0.241666	16.3395
0.388291	19.829
0.623875	22.4605
0.914101	24.2338
1.4118	26.5221
2.32892	28.1238
3.41233	29.7828
4.93432	31.499
6.94964	32.6431
8.69385	33.6156
13.2517	34.9885
19.6738	36.3615
