Adsorption isotherm of Hydrogen on Carbon
DOI: 10.1016/j.micromeso.2011.10.011
Adsorbate Hydrogen: InChIKey UFHFLCQGNIYNRP-UHFFFAOYSA-N
Temperature: 77 K
Tabular data in the source: 0
pressure (bar)	uptake (mmol/cm3)
0.0264548	0.789342
0.0606831	2.08512
0.0980661	3.26822
0.140103	4.45131
0.264548	7.15554
0.403277	9.74709
0.647496	12.564
0.961763	15.0429
1.43786	17.6908
2.44738	21.1274
4.1657	24.4513
7.18303	27.4936
10.1958	29.1274
14.7565	30.6485
20.2774	31.7753
