Adsorption isotherm of Hydrogen on Carbon
DOI: 10.1016/j.micromeso.2011.10.011
Adsorbate Hydrogen: InChIKey UFHFLCQGNIYNRP-UHFFFAOYSA-N
Temperature: 77 K
Tabular data in the source: 0
pressure (bar)	uptake (mmol/cm3)
0.0269746	0.169624
0.0579896	0.56399
0.094323	0.84568
0.132159	1.24005
0.254451	2.53582
0.405901	3.71892
0.660219	5.63441
0.94323	7.49357
1.46611	9.69075
2.05421	12.2823
2.93478	14.8175
4.27519	17.8034
6.1078	20.226
8.55783	23.0992
12.4665	25.4091
20.1463	28.564
