Adsorption isotherm of Hydrogen on Carbon
DOI: 10.1016/j.micromeso.2011.10.011
Adsorbate Hydrogen: InChIKey UFHFLCQGNIYNRP-UHFFFAOYSA-N
Temperature: 77 K
Tabular data in the source: 0
pressure (bar)	uptake (mmol/cm3)
0.737131	7.21188
1.13099	9.69075
1.62632	12.4513
2.36912	15.2682
3.45118	18.3105
3.92921	19.4936
5.72381	21.8034
8.23061	24.6767
11.8353	26.7612
13.8288	27.6062
19.8852	29.6344
