Adsorption isotherm of Hydrogen on Carbon
DOI: 10.1016/j.micromeso.2011.10.011
Adsorbate Hydrogen: InChIKey UFHFLCQGNIYNRP-UHFFFAOYSA-N
Temperature: 77 K
Tabular data in the source: 0
pressure (bar)	uptake (mmol/cm3)
0.0273249	0.169624
0.062679	0.394976
0.099986	0.84568
0.17925	1.57807
0.338467	2.87385
0.506016	4.56399
0.796797	6.6485
0.943163	7.77526
1.35623	10.0851
2.00146	13.0147
2.84093	15.7189
4.08514	18.3668
5.87426	21.1274
8.66896	23.2682
11.3835	25.1837
14.5653	26.3668
20.4079	28.395
