Adsorption isotherm of Hydrogen on Carbon
DOI: 10.1016/j.micromeso.2011.10.011
Adsorbate Hydrogen: InChIKey UFHFLCQGNIYNRP-UHFFFAOYSA-N
Temperature: 77 K
Tabular data in the source: 0
pressure (bar)	uptake (mmol/cm3)
0.0269727	0.338638
0.0557722	0.451314
0.0937066	0.902018
0.145653	1.57807
0.188797	2.25413
0.254433	3.04286
0.421979	4.56399
0.622738	6.76117
1.14576	10.4795
1.90026	14.8175
3.4067	18.6485
5.65004	22.3105
7.7137	24.226
11.5322	26.4795
18.8797	29.5781
