Adsorption isotherm of Hydrogen on Carbon
DOI: 10.1016/j.micromeso.2011.10.011
Adsorbate Hydrogen: InChIKey UFHFLCQGNIYNRP-UHFFFAOYSA-N
Temperature: 77 K
Tabular data in the source: 0
pressure (bar)	uptake (mmol/cm3)
0.0276817	0.0569478
0.0610737	0.225962
0.0974252	0.676666
0.201449	1.12737
0.31721	2.42315
0.526097	3.71892
0.8072	5.4654
1.20678	7.38089
1.60536	9.74709
2.27869	12.7893
3.54189	15.7189
5.09309	18.6485
7.04411	20.564
11.5322	23.9443
19.3759	27.0429
