Adsorption isotherm of Hydrogen on C36H24N6O10Zn2K0.14
DOI: 10.1021/La803014k
Adsorbate Hydrogen: InChIKey UFHFLCQGNIYNRP-UHFFFAOYSA-N
Temperature: 87 K
Tabular data in the source: 0
pressure (bar)	uptake (wt%)
0.00585694	0.00585694
0.0146423	0.172249
0.049784	0.465072
0.105425	0.648804
0.163994	0.763636
0.216707	0.838278
0.263562	0.895694
0.319203	0.947368
0.368987	0.993301
0.415842	1.02775
0.465626	1.06794
0.518339	1.09665
0.57398	1.12536
0.623764	1.14833
0.673548	1.17129
0.723332	1.2
0.773116	1.22871
0.825828	1.25742
0.875612	1.28038
0.928324	1.30335
0.978108	1.32632
