Adsorption isotherm of Nitrogen on Zn2(NDC)2(diPyTz)
DOI: 10.1021/La803014k
Adsorbate Nitrogen: InChIKey IJGRMHOSHXDMSA-UHFFFAOYSA-N
Temperature: 77 K
Tabular data in the source: 0
pressure (bar)	uptake (cm3(STP)/g)
0.00255663	113.694
0.0102265	118.471
0.0204531	120.382
0.0383495	122.293
0.0588025	124.204
0.0741423	125.159
0.0894821	125.159
0.0997086	127.07
0.145728	128.025
0.194304	128.981
0.240323	130.892
0.291456	132.803
0.342589	134.713
0.388608	137.58
0.439741	138.535
0.488317	140.446
0.531779	143.312
0.585469	143.312
0.634045	147.134
0.680064	148.089
0.72864	150
0.777216	152.866
0.828349	155.732
0.879481	158.599
0.925501	162.42
0.966407	185.35
