Adsorption isotherm of Hydrogen on C36H24N6O10Zn2K0.14
DOI: 10.1021/La803014k
Adsorbate Hydrogen: InChIKey UFHFLCQGNIYNRP-UHFFFAOYSA-N
Temperature: 77 K
Tabular data in the source: 0
pressure (bar)	uptake (wt%)
0.00468513	0.307309
0.00506269	0.0741987
0.0148105	0.455707
0.0479497	0.794953
0.10986	0.970111
0.161534	1.06575
0.213251	1.13489
0.265002	1.18284
0.316761	1.2255
0.368555	1.24696
0.415149	1.27899
0.469526	1.30577
0.51872	1.33251
0.565339	1.34865
0.617133	1.37011
0.671536	1.38099
0.720747	1.39715
0.772541	1.41861
0.82176	1.42946
0.873554	1.45093
0.920157	1.47766
0.974542	1.49914
1.0108	1.50992
