Adsorption isotherm of Nitrogen on C36H22N6O9Zn2Li0.10
DOI: 10.1021/La803014k
Adsorbate Nitrogen: InChIKey IJGRMHOSHXDMSA-UHFFFAOYSA-N
Temperature: 77 K
Tabular data in the source: 0
pressure (bar)	uptake (cm3(STP)/g)
0.0153398	152.866
0.0613592	159.554
0.107379	163.376
0.155955	171.019
0.207087	174.841
0.253107	176.752
0.304239	180.573
0.352815	183.439
0.401391	185.35
0.447411	190.127
0.5011	192.994
0.547119	198.726
0.595695	203.503
0.641715	209.236
0.692847	214.968
0.738867	221.656
0.787443	228.344
0.838575	235.032
0.884595	242.675
0.933171	257.006
