Adsorption isotherm of Hydrogen on Zn2(NDC)2(diPyTz)
DOI: 10.1021/La803014k
Adsorbate Hydrogen: InChIKey UFHFLCQGNIYNRP-UHFFFAOYSA-N
Temperature: 87 K
Tabular data in the source: 0
pressure (bar)	uptake (wt%)
0.00582328	0.0942857
0.00873491	0.115714
0.0116466	0.145714
0.0203815	0.231429
0.032028	0.287143
0.0436746	0.342857
0.0669677	0.402857
0.0698793	0.432857
0.0815259	0.454286
0.0931724	0.48
0.154317	0.574286
0.203815	0.625714
0.256224	0.668571
0.305722	0.698571
0.35522	0.732857
0.407629	0.758571
0.457127	0.78
0.509537	0.801429
0.559034	0.818571
0.611444	0.84
0.660942	0.852857
0.713351	0.87
0.762849	0.882857
0.812347	0.895714
0.861845	0.908571
0.917166	0.921429
0.960841	0.93
1.00743	0.942857
