Adsorption isotherm of Nitrogen on C36H24N6O10Zn2K0.14
DOI: 10.1021/La803014k
Adsorbate Nitrogen: InChIKey IJGRMHOSHXDMSA-UHFFFAOYSA-N
Temperature: 77 K
Tabular data in the source: 0
pressure (bar)	uptake (cm3(STP)/g)
0.00255663	150
0.0153398	157.643
0.0588025	159.554
0.107379	163.376
0.155955	166.242
0.204531	167.197
0.255663	171.019
0.304239	172.93
0.350259	175.796
0.398835	179.618
0.452524	184.395
0.495987	186.306
0.547119	191.083
0.593139	193.949
0.644271	198.726
0.692847	208.28
0.741423	214.013
0.787443	219.745
0.836019	225.478
0.884595	232.166
0.933171	238.854
