Adsorption isotherm of Hydrogen on C36H22N6O9Zn2Li0.10
DOI: 10.1021/La803014k
Adsorbate Hydrogen: InChIKey UFHFLCQGNIYNRP-UHFFFAOYSA-N
Temperature: 87 K
Tabular data in the source: 0
pressure (bar)	uptake (wt%)
0.00582328	0.00582328
0.0116466	0.166816
0.0524095	0.430493
0.104819	0.602691
0.16014	0.704933
0.21255	0.774888
0.267871	0.8287
0.317369	0.871749
0.366866	0.920179
0.419276	0.947085
0.468774	0.990135
0.521183	1.01704
0.570681	1.03857
0.620179	1.06009
0.672588	1.08161
0.722086	1.09776
0.771584	1.13004
0.823994	1.15157
0.876403	1.17309
0.928812	1.18924
0.981222	1.20538
