Adsorption isotherm of Hydrogen on C36H24N6O10Zn2Li0.70
DOI: 10.1021/La803014k
Adsorbate Hydrogen: InChIKey UFHFLCQGNIYNRP-UHFFFAOYSA-N
Temperature: 77 K
Tabular data in the source: 0
pressure (bar)	uptake (wt%)
0	0.0150943
0.00247134	0.0301887
0.00494268	0.100629
0.00988537	0.145912
0.0469555	0.261635
0.106268	0.322013
0.160637	0.357233
0.212535	0.38239
0.264434	0.402516
0.31386	0.41761
0.365759	0.427673
0.417657	0.437736
0.467084	0.45283
0.51651	0.462893
0.57088	0.472956
0.617835	0.48805
0.669734	0.493082
0.721632	0.503145
0.771059	0.508176
0.822957	0.513208
0.872384	0.518239
0.924282	0.52327
0.97618	0.533333
