Adsorption isotherm of Hydrogen on C36H22N6O9Zn2Li0.10
DOI: 10.1021/La803014k
Adsorbate Hydrogen: InChIKey UFHFLCQGNIYNRP-UHFFFAOYSA-N
Temperature: 77 K
Tabular data in the source: 0
pressure (bar)	uptake (wt%)
0.0072937	0.296727
0.012262	0.429203
0.0608896	0.805616
0.104738	0.932998
0.15642	1.02333
0.213319	1.09251
0.262488	1.13515
0.316856	1.16722
0.366032	1.20456
0.415235	1.22601
0.461812	1.26864
0.51878	1.29543
0.565382	1.32216
0.619785	1.33304
0.668979	1.35979
0.723372	1.37597
0.772583	1.39212
0.821803	1.40297
0.871006	1.42442
0.920234	1.42998
0.966845	1.45141
1.01088	1.46224
