Adsorption isotherm of Hydrogen on C36H24N6O10Zn2Na0.24
DOI: 10.1021/La803014k
Adsorbate Hydrogen: InChIKey UFHFLCQGNIYNRP-UHFFFAOYSA-N
Temperature: 77 K
Tabular data in the source: 0
pressure (bar)	uptake (wt%)
0.0122105	0.460991
0.0479068	0.821443
0.109792	1.01249
0.161474	1.10283
0.213182	1.17727
0.259733	1.2358
0.311493	1.27845
0.365852	1.31582
0.415038	1.34787
0.46424	1.36931
0.518591	1.41198
0.567802	1.42813
0.617013	1.44429
0.668798	1.47105
0.720575	1.50311
0.769778	1.52455
0.821589	1.53542
0.870783	1.56217
0.925185	1.57305
0.97697	1.59981
