Adsorption isotherm of Nitrogen on C36H24N6O10Zn2Na0.24
DOI: 10.1021/La803014k
Adsorbate Nitrogen: InChIKey IJGRMHOSHXDMSA-UHFFFAOYSA-N
Temperature: 77 K
Tabular data in the source: 0
pressure (bar)	uptake (cm3(STP)/g)
0.00766989	165.287
0.0153398	166.242
0.0639158	169.108
0.107379	171.019
0.158511	173.885
0.204531	176.752
0.253107	179.618
0.304239	181.529
0.350259	184.395
0.398835	188.217
0.447411	191.083
0.495987	195.86
0.544563	199.682
0.593139	204.459
0.641715	211.146
0.690291	215.924
0.738867	222.611
0.787443	227.389
0.836019	239.809
0.884595	246.497
0.930614	254.14
