Adsorption isotherm of Hydrogen on C36H24N6O10Zn2Na0.24
DOI: 10.1021/La803014k
Adsorbate Hydrogen: InChIKey UFHFLCQGNIYNRP-UHFFFAOYSA-N
Temperature: 87 K
Tabular data in the source: 0
pressure (bar)	uptake (wt%)
0.00291164	0.0183673
0.00582328	0.0979592
0.0116466	0.177551
0.0494978	0.483673
0.107731	0.673469
0.16014	0.783673
0.209638	0.869388
0.264959	0.936735
0.317369	0.985714
0.369778	1.03469
0.413453	1.07143
0.468774	1.12041
0.521183	1.15714
0.567769	1.19388
0.617267	1.21837
0.669677	1.2551
0.724998	1.28571
0.774496	1.30408
0.823994	1.32857
0.873491	1.35918
0.922989	1.3898
0.975399	1.42653
