Adsorption isotherm of Hydrogen on Zn2(NDC)2(diPyTz)
DOI: 10.1021/La803014k
Adsorbate Hydrogen: InChIKey UFHFLCQGNIYNRP-UHFFFAOYSA-N
Temperature: 77 K
Tabular data in the source: 0
pressure (bar)	uptake (wt%)
0.00216237	0.264912
0.00239405	0.121867
0.00489965	0.17486
0.00978214	0.360316
0.0199848	0.461032
0.0353959	0.54588
0.0405187	0.582993
0.0611384	0.651975
0.074044	0.683831
0.0869581	0.710388
0.0998808	0.731648
0.15158	0.811389
0.203331	0.859341
0.255108	0.8914
0.306885	0.923459
0.356079	0.950206
0.405281	0.971656
0.457084	0.98782
0.508869	1.01458
0.563271	1.02546
0.6099	1.0363
0.656536	1.04184
0.70833	1.06331
0.76015	1.06888
0.80937	1.07973
0.866355	1.09592
0.910392	1.10675
0.959611	1.1176
1.00625	1.12314
