Adsorption isotherm of Carbon Dioxide on ZIF-8
DOI: 10.1021/Jp3107167
Adsorbate Carbon Dioxide: InChIKey CURLTUGMZLYLDI-UHFFFAOYSA-N
Temperature: 273 K
Tabular data in the source: 0
pressure (bar)	uptake (mmol/g)
0.0157256	0.0231049
0.0282641	0.0398229
0.0463753	0.0523615
0.0575207	0.0628103
0.0686661	0.0857976
0.0867773	0.104605
0.111854	0.140131
0.141111	0.179837
0.173154	0.227901
0.23724	0.309402
0.26789	0.349107
0.297146	0.390902
0.32501	0.426428
0.352873	0.466134
0.389096	0.520467
0.425318	0.574801
0.462934	0.622865
0.479652	0.658391
0.503336	0.689738
0.535379	0.735712
0.578567	0.794225
0.613396	0.848559
0.652405	0.904983
0.690021	0.961406
0.72903	1.01574
0.766645	1.07007
0.807047	1.13068
0.84327	1.1871
0.885065	1.24979
0.917108	1.30204
0.95751	1.371
0.989553	1.41488
1.02438	1.45877
1.08568	1.5549
1.1233	1.6155
1.15673	1.6761
1.18599	1.72417
