Adsorption isotherm of Carbon Dioxide on ZIF-69
DOI: 10.1021/Jp3107167
Adsorbate Carbon Dioxide: InChIKey CURLTUGMZLYLDI-UHFFFAOYSA-N
Temperature: 298 K
Tabular data in the source: 0
pressure (bar)	uptake (mmol/g)
0.0812046	0.192375
0.0937432	0.223722
0.162009	0.376274
0.213556	0.49957
0.269283	0.591519
0.319437	0.706456
0.380737	0.798405
0.426711	0.898713
0.483831	0.978124
0.536772	1.06798
0.593892	1.15784
0.642653	1.23725
0.702559	1.32084
0.749927	1.40026
0.809834	1.47131
0.855808	1.54445
0.918501	1.61759
0.964476	1.68237
1.02717	1.75551
1.05503	1.79104
