Adsorption isotherm of Carbon Dioxide on ZIF-71
DOI: 10.1021/Jp3107167
Adsorbate Carbon Dioxide: InChIKey CURLTUGMZLYLDI-UHFFFAOYSA-N
Temperature: 298 K
Tabular data in the source: 0
pressure (bar)	uptake (mmol/g)
0.102102	0.100426
0.203804	0.184016
0.302719	0.252978
0.401634	0.31985
0.500549	0.382543
0.602251	0.432697
0.701166	0.484941
0.800081	0.541365
0.903176	0.58316
1.00348	0.631224
