Adsorption isotherm of Carbon Dioxide on ZIF-69
DOI: 10.1021/Jp3107167
Adsorbate Carbon Dioxide: InChIKey CURLTUGMZLYLDI-UHFFFAOYSA-N
Temperature: 298 K
Tabular data in the source: 0
pressure (bar)	uptake (mmol/g)
0.0993159	0.213273
0.201017	0.418069
0.299933	0.618686
0.401634	0.808854
0.499156	0.976034
0.600858	1.13904
0.702559	1.28323
0.804261	1.42533
0.898997	1.56326
1.00627	1.70954
