Adsorption isotherm of Carbon Dioxide on ZIF-71
DOI: 10.1021/Jp3107167
Adsorbate Carbon Dioxide: InChIKey CURLTUGMZLYLDI-UHFFFAOYSA-N
Temperature: 298 K
Tabular data in the source: 0
pressure (bar)	uptake (mmol/g)
0.0491617	0.0168356
0.0617002	0.0356434
0.0784183	0.0544512
0.110461	0.0857976
0.171761	0.127593
0.220522	0.161029
0.276249	0.196555
0.333369	0.232081
0.389096	0.263427
0.442036	0.296863
0.499156	0.32612
0.550704	0.357466
0.605037	0.390902
0.659371	0.418069
0.710918	0.445236
0.763859	0.480762
0.818193	0.507929
0.873919	0.537185
0.92268	0.568532
0.986766	0.595698
1.03274	0.624955
1.0829	0.650032
