Adsorption isotherm of Carbon Dioxide on ZIF-8
DOI: 10.1021/Jp3107167
Adsorbate Carbon Dioxide: InChIKey CURLTUGMZLYLDI-UHFFFAOYSA-N
Temperature: 273 K
Tabular data in the source: 0
pressure (bar)	uptake (mmol/g)
0.103495	0.125503
0.201017	0.265517
0.301326	0.401351
0.404421	0.547634
0.499156	0.687648
0.602251	0.84229
0.699773	0.990663
0.798688	1.14322
0.901783	1.30622
1.00348	1.47967
