Adsorption isotherm of Argon on IRMOF-1
DOI: 10.1063/1.4712025
Adsorbate Argon: InChIKey XKRFYHLGVUSROY-UHFFFAOYSA-N
Temperature: 150 K
Tabular data in the source: 0
pressure (bar)	uptake (molecules/unitcell)
0.0118249	0.561717
0.047405	1.87264
0.168427	9.08272
0.429338	18.9147
0.83407	42.5113
1.52541	82.4945
2.12613	121.822
3.3437	157.217
5.75697	194.579
13.006	211.621
27.6614	214.242
46.2096	167.049
46.2096	193.268
50.5894	132.965
55.3844	110.679
77.195	98.2256
