Adsorption isotherm of Carbon Dioxide on IRMOF-1
DOI: 10.1063/1.4712025
Adsorbate Carbon Dioxide: InChIKey CURLTUGMZLYLDI-UHFFFAOYSA-N
Temperature: 210 K
Tabular data in the source: 0
pressure (bar)	uptake (molecules/unitcell)
0.0418986	3.74541
0.315008	18.4933
0.435176	34.8799
0.435176	136.477
0.457025	75.3
0.478873	163.241
0.806604	180.174
1.39652	188.913
1.90997	194.922
2.78392	199.838
3.37383	201.477
4.08392	203.115
4.61921	203.115
5.01249	204.208
