Adsorption isotherm of Carbon Dioxide on IRMOF-1
DOI: 10.1063/1.4712025
Adsorbate Carbon Dioxide: InChIKey CURLTUGMZLYLDI-UHFFFAOYSA-N
Temperature: 240 K
Tabular data in the source: 0
pressure (bar)	uptake (molecules/unitcell)
0.0637473	1.01432
0.599041	11.9387
1.12341	25.5941
1.46207	40.342
1.7024	64.9219
1.8335	93.8715
1.98644	120.09
2.25955	138.661
2.58728	150.678
3.0898	159.418
3.87635	167.065
4.55366	171.981
5.00156	174.712
