Adsorption isotherm of Carbon Dioxide on IRMOF-1
DOI: 10.1063/1.4712025
Adsorbate Carbon Dioxide: InChIKey CURLTUGMZLYLDI-UHFFFAOYSA-N
Temperature: 230 K
Tabular data in the source: 0
pressure (bar)	uptake (molecules/unitcell)
0.085596	2.65297
0.588117	16.3084
0.948621	32.1488
1.13434	50.174
1.23265	91.1404
1.27635	126.098
1.44022	147.401
1.7898	162.149
2.22677	168.703
2.89316	175.804
3.76711	180.72
4.4335	183.451
4.99064	185.636
