Adsorption isotherm of Argon on IRMOF-1
DOI: 10.1063/1.4712025
Adsorbate Argon: InChIKey XKRFYHLGVUSROY-UHFFFAOYSA-N
Temperature: 120 K
Tabular data in the source: 0
pressure (bar)	uptake (molecules/unitcell)
0.00313323	1.87264
0.00901189	4.49449
0.0229722	7.7718
0.050355	14.9819
0.103912	30.0575
0.178909	58.2424
0.249364	92.3264
0.289987	121.822
0.347564	162.461
0.470032	190.646
0.675209	212.931
1.16253	231.284
2.54827	247.016
4.95049	257.503
