Adsorption isotherm of Argon on IRMOF-1
DOI: 10.1063/1.4712025
Adsorbate Argon: InChIKey XKRFYHLGVUSROY-UHFFFAOYSA-N
Temperature: 298 K
Tabular data in the source: 0
pressure (bar)	uptake (molecules/unitcell)
0.317473	1.87264
1.43605	3.18357
4.66047	6.46088
11.5267	16.9483
25.2666	32.6794
44.8356	56.9315
81.9988	85.7718
141.18	117.234
266.114	147.385
501.606	173.604
863.632	202.444
1399.83	224.73
