Adsorption isotherm of Argon on IRMOF-1
DOI: 10.1063/1.4712025
Adsorbate Argon: InChIKey XKRFYHLGVUSROY-UHFFFAOYSA-N
Temperature: 200 K
Tabular data in the source: 0
pressure (bar)	uptake (molecules/unitcell)
0.136348	2.5281
0.514582	3.18357
1.27272	9.08272
2.70684	18.9147
5.1022	36.6121
9.05384	62.8306
15.1248	100.847
26.839	132.965
44.8356	146.73
84.5117	142.797
117.793	120.511
154.562	91.0155
196.778	77.2508
