Adsorption isotherm of Carbon Dioxide on IRMOF-1
DOI: 10.1063/1.4712025
Adsorbate Carbon Dioxide: InChIKey CURLTUGMZLYLDI-UHFFFAOYSA-N
Temperature: 200 K
Tabular data in the source: 0
pressure (bar)	uptake (molecules/unitcell)
0.0746717	7.02272
0.238537	23.4093
0.238537	143.031
0.249462	68.1992
0.249462	109.166
0.249462	170.342
0.391478	183.451
0.730134	195.468
1.35282	202.023
2.05198	206.939
2.75114	210.762
3.57047	212.401
4.32425	212.947
4.96879	214.04
