Adsorption isotherm of Argon on IRMOF-1
DOI: 10.1063/1.4712025
Adsorbate Argon: InChIKey XKRFYHLGVUSROY-UHFFFAOYSA-N
Temperature: 298 K
Tabular data in the source: 0
pressure (bar)	uptake (molecules/unitcell)
1.43605	1.21718
4.80329	5.14995
11.184	11.7046
20.4542	21.5365
40.9539	37.2676
66.3809	53.6542
104.395	64.797
164.18	69.3852
250.524	64.1415
359.882	47.0995
601.198	37.9231
