Adsorption isotherm of Carbon Dioxide on IRMOF-1
DOI: 10.1063/1.4712025
Adsorbate Carbon Dioxide: InChIKey CURLTUGMZLYLDI-UHFFFAOYSA-N
Temperature: 185 K
Tabular data in the source: 0
pressure (bar)	uptake (molecules/unitcell)
0.0637473	8.66137
0.0746717	88.4093
0.0746717	155.594
0.0746717	190.006
0.19484	202.569
0.4461	211.855
0.872151	217.317
1.42929	221.687
2.28139	223.871
