Adsorption isotherm of Argon on IRMOF-1
DOI: 10.1063/1.4712025
Adsorbate Argon: InChIKey XKRFYHLGVUSROY-UHFFFAOYSA-N
Temperature: 150 K
Tabular data in the source: 0
pressure (bar)	uptake (molecules/unitcell)
0.00901189	1.87264
0.0275333	2.5281
0.0680982	5.14995
0.168427	9.73819
0.380507	20.881
0.739206	38.5785
1.16253	64.797
1.77392	98.2256
2.39898	130.343
3.24428	158.528
4.52189	184.747
8.78463	208.999
16.066	225.385
37.4082	240.461
95.3573	244.394
