Adsorption isotherm of Carbon Dioxide on IRMOF-1
DOI: 10.1063/1.4712025
Adsorbate Carbon Dioxide: InChIKey CURLTUGMZLYLDI-UHFFFAOYSA-N
Temperature: 220 K
Tabular data in the source: 0
pressure (bar)	uptake (molecules/unitcell)
0.0637473	2.65297
0.347781	15.216
0.577193	31.6026
0.653663	49.6278
0.675512	79.6698
0.686436	113.535
0.719209	143.577
0.828453	159.418
1.18896	173.619
1.7024	181.813
2.53265	188.913
3.35198	192.737
4.16039	195.468
5.01249	197.653
