Adsorption isotherm of Argon on IRMOF-1
DOI: 10.1063/1.4712025
Adsorbate Argon: InChIKey XKRFYHLGVUSROY-UHFFFAOYSA-N
Temperature: 175 K
Tabular data in the source: 0
pressure (bar)	uptake (molecules/unitcell)
0.0893549	2.5281
0.272999	5.14995
0.675209	11.0491
1.27272	20.881
2.32765	37.9231
4.25698	68.7298
6.11523	102.814
8.26999	127.721
12.2441	157.217
22.3929	184.747
39.7362	206.377
62.492	215.553
125.123	224.73
243.075	231.94
309.467	237.184
