Adsorption isotherm of Argon on IRMOF-1
DOI: 10.1063/1.4712025
Adsorbate Argon: InChIKey XKRFYHLGVUSROY-UHFFFAOYSA-N
Temperature: 250 K
Tabular data in the source: 0
pressure (bar)	uptake (molecules/unitcell)
1.27272	3.18357
2.87529	5.80541
6.11523	13.0155
13.8154	28.7466
22.3929	50.3768
42.2089	75.2844
72.6726	90.36
107.595	98.881
164.18	91.671
243.075	70.6962
