Adsorption isotherm of Argon on IRMOF-1
DOI: 10.1063/1.4712025
Adsorbate Argon: InChIKey XKRFYHLGVUSROY-UHFFFAOYSA-N
Temperature: 120 K
Tabular data in the source: 0
pressure (bar)	uptake (molecules/unitcell)
0.0017657	1.21718
0.00555992	3.18357
0.0114733	4.49449
0.0320187	9.73819
0.0723359	21.5365
0.136348	39.8894
0.201868	66.7634
0.249364	100.847
0.289987	130.999
0.358215	172.293
0.530352	198.511
0.785207	218.175
1.52541	238.494
4.66047	253.57
