Adsorption isotherm of Carbon Dioxide on IRMOF-1
DOI: 10.1063/1.4712025
Adsorbate Carbon Dioxide: InChIKey CURLTUGMZLYLDI-UHFFFAOYSA-N
Temperature: 200 K
Tabular data in the source: 0
pressure (bar)	uptake (molecules/unitcell)
0.0746717	6.4765
0.238537	23.4093
0.238537	51.8126
0.238537	80.7622
0.249462	114.082
0.249462	147.947
0.260386	173.073
0.391478	183.451
0.664588	195.468
1.10156	201.477
1.90997	208.577
2.67467	212.401
3.50492	215.132
4.42257	216.224
5.00156	217.863
