Adsorption isotherm of Carbon Dioxide on IRMOF-1
DOI: 10.1063/1.4712025
Adsorbate Carbon Dioxide: InChIKey CURLTUGMZLYLDI-UHFFFAOYSA-N
Temperature: 185 K
Tabular data in the source: 0
pressure (bar)	uptake (molecules/unitcell)
0.0309742	9.20759
0.0746717	64.3757
0.0746717	160.51
0.0746717	188.913
0.085596	113.535
0.0965204	23.9555
0.227613	205.3
0.664588	214.04
1.17803	218.955
1.73518	220.594
2.25955	221.14
