Adsorption isotherm of Carbon Dioxide on IRMOF-1
DOI: 10.1063/1.4712025
Adsorbate Carbon Dioxide: InChIKey CURLTUGMZLYLDI-UHFFFAOYSA-N
Temperature: 210 K
Tabular data in the source: 0
pressure (bar)	uptake (molecules/unitcell)
0.118369	5.38406
0.336857	21.7706
0.424251	33.7874
0.435176	84.0395
0.435176	134.838
0.467949	161.603
0.62089	173.619
0.992319	185.09
1.50576	191.645
2.1503	197.653
2.90408	202.569
3.71249	204.754
4.32425	206.392
4.97971	207.485
