Adsorption isotherm of Argon on IRMOF-1
DOI: 10.1063/1.4712025
Adsorbate Argon: InChIKey XKRFYHLGVUSROY-UHFFFAOYSA-N
Temperature: 225 K
Tabular data in the source: 0
pressure (bar)	uptake (molecules/unitcell)
0.272999	1.21718
0.941108	4.49449
2.25844	11.0491
5.1022	23.5029
11.184	45.1331
18.1278	73.9735
31.2113	102.158
46.2096	128.377
81.9988	159.839
174.397	185.402
309.467	197.2
444.555	214.898
720.565	231.284
