Adsorption isotherm of Carbon Dioxide on IRMOF-1
DOI: 10.1063/1.4712025
Adsorbate Carbon Dioxide: InChIKey CURLTUGMZLYLDI-UHFFFAOYSA-N
Temperature: 220 K
Tabular data in the source: 0
pressure (bar)	uptake (molecules/unitcell)
0.0309742	1.56053
0.402403	17.4009
0.642739	39.7958
0.675512	73.6614
0.697361	117.359
0.730134	146.308
0.915848	164.334
1.45114	177.443
2.27047	185.636
3.19904	189.46
4.05114	193.283
4.60828	193.283
4.96879	195.468
