Adsorption isotherm of Carbon Dioxide on IRMOF-1
DOI: 10.1063/1.4712025
Adsorbate Carbon Dioxide: InChIKey CURLTUGMZLYLDI-UHFFFAOYSA-N
Temperature: 240 K
Tabular data in the source: 0
pressure (bar)	uptake (molecules/unitcell)
0.0528229	2.10675
0.402403	6.4765
0.861226	16.8547
1.30913	32.695
1.58223	50.174
1.77887	81.8547
1.94274	112.443
2.24862	137.023
2.63097	150.678
3.15534	158.871
3.87635	164.88
4.58644	170.342
5.00156	171.981
