Adsorption isotherm of Carbon Dioxide on IRMOF-1
DOI: 10.1063/1.4712025
Adsorbate Carbon Dioxide: InChIKey CURLTUGMZLYLDI-UHFFFAOYSA-N
Temperature: 205 K
Tabular data in the source: 0
pressure (bar)	uptake (molecules/unitcell)
0.085596	5.38406
0.304083	55.0899
0.304083	93.8715
0.315008	26.6866
0.315008	135.384
0.325932	164.88
0.424251	179.628
0.773831	190.552
1.28728	198.745
1.88812	203.115
2.5982	206.392
3.51585	210.762
4.45534	212.401
5.01249	214.04
