Adsorption isotherm of Argon on IRMOF-1
DOI: 10.1063/1.4712025
Adsorbate Argon: InChIKey XKRFYHLGVUSROY-UHFFFAOYSA-N
Temperature: 200 K
Tabular data in the source: 0
pressure (bar)	uptake (molecules/unitcell)
0.347564	3.18357
0.76186	7.11634
1.94205	14.9819
3.55178	28.0911
6.30263	49.0659
11.184	83.1499
19.2559	122.478
33.1536	160.494
64.4071	183.436
128.957	199.167
266.114	218.831
516.977	233.906
