Adsorption isotherm of Carbon Dioxide on IRMOF-1
DOI: 10.1063/1.4712025
Adsorbate Carbon Dioxide: InChIKey CURLTUGMZLYLDI-UHFFFAOYSA-N
Temperature: 230 K
Tabular data in the source: 0
pressure (bar)	uptake (molecules/unitcell)
0.0965204	2.10675
0.577193	15.7622
1.02509	37.0647
1.17803	57.821
1.21081	87.8631
1.2982	126.645
1.49484	149.04
1.94274	164.334
2.74022	171.434
3.43938	176.897
4.09484	179.628
5.02341	182.905
