Adsorption isotherm of Argon on IRMOF-1
DOI: 10.1063/1.4712025
Adsorbate Argon: InChIKey XKRFYHLGVUSROY-UHFFFAOYSA-N
Temperature: 275 K
Tabular data in the source: 0
pressure (bar)	uptake (molecules/unitcell)
1.39335	3.83903
5.25856	9.73819
10.8515	20.2256
18.1278	33.9903
32.1678	52.3432
55.3844	81.839
95.3573	111.335
202.808	149.352
393.993	174.915
619.622	197.856
1167.94	225.385
