Adsorption isotherm of Carbon Dioxide on IRMOF-1
DOI: 10.1063/1.4712025
Adsorbate Carbon Dioxide: InChIKey CURLTUGMZLYLDI-UHFFFAOYSA-N
Temperature: 205 K
Tabular data in the source: 0
pressure (bar)	uptake (molecules/unitcell)
0.0637473	4.83784
0.282235	26.6866
0.315008	65.4681
0.315008	105.888
0.315008	140.846
0.336857	165.426
0.4461	179.628
0.948621	192.737
1.64778	199.292
2.25955	203.115
2.89316	205.3
3.57047	207.485
4.25871	209.67
4.97971	210.216
