Adsorption isotherm of Carbon Dioxide on IRMOF-1
DOI: 10.1063/1.4712025
Adsorbate Carbon Dioxide: InChIKey CURLTUGMZLYLDI-UHFFFAOYSA-N
Temperature: 190 K
Tabular data in the source: 0
pressure (bar)	uptake (molecules/unitcell)
0.0309742	5.38406
0.085596	60.5521
0.0965204	101.519
0.0965204	156.687
0.107445	21.2244
0.107445	184.544
0.27131	197.107
0.478873	208.031
0.883075	213.493
1.54946	216.771
2.17215	220.048
2.75114	221.14
3.4066	222.233
