Adsorption isotherm of Argon on IRMOF-1
DOI: 10.1063/1.4712025
Adsorbate Argon: InChIKey XKRFYHLGVUSROY-UHFFFAOYSA-N
Temperature: 225 K
Tabular data in the source: 0
pressure (bar)	uptake (molecules/unitcell)
0.442495	1.21718
1.94205	7.11634
5.58579	20.2256
11.184	42.5113
23.7864	77.9063
49.0852	114.612
81.9988	118.545
136.982	111.99
179.741	90.36
