Adsorption isotherm of Argon on IRMOF-1
DOI: 10.1063/1.4712025
Adsorbate Argon: InChIKey XKRFYHLGVUSROY-UHFFFAOYSA-N
Temperature: 175 K
Tabular data in the source: 0
pressure (bar)	uptake (molecules/unitcell)
0.0841202	1.87264
0.298874	5.14995
0.695901	11.7046
1.52541	22.8474
2.87529	45.1331
4.95049	79.8726
9.05384	126.41
14.6751	160.494
23.7864	176.881
42.2089	179.503
68.4151	163.116
84.5117	142.797
110.892	97.5701
128.957	85.7718
179.741	81.839
