Adsorption isotherm of Carbon Dioxide on IRMOF-1
DOI: 10.1063/1.4712025
Adsorbate Carbon Dioxide: InChIKey CURLTUGMZLYLDI-UHFFFAOYSA-N
Temperature: 190 K
Tabular data in the source: 0
pressure (bar)	uptake (molecules/unitcell)
0.0309742	6.4765
0.0965204	68.7454
0.0965204	103.157
0.107445	38.1572
0.107445	165.426
0.118369	135.93
0.118369	186.182
0.282235	197.653
0.599041	209.67
1.14526	213.493
1.7461	216.224
2.32509	217.863
2.80576	218.409
3.41753	219.502
