Adsorption isotherm of Argon on IRMOF-1
DOI: 10.1063/1.4712025
Adsorbate Argon: InChIKey XKRFYHLGVUSROY-UHFFFAOYSA-N
Temperature: 250 K
Tabular data in the source: 0
pressure (bar)	uptake (molecules/unitcell)
1.67	4.49449
5.75697	14.9819
9.3313	26.7802
18.1278	47.755
33.1536	77.9063
55.3844	110.024
125.123	149.352
243.075	174.915
565.978	207.688
917.376	229.318
