Adsorption isotherm of Argon on IRMOF-1
DOI: 10.1063/1.4712025
Adsorbate Argon: InChIKey XKRFYHLGVUSROY-UHFFFAOYSA-N
Temperature: 275 K
Tabular data in the source: 0
pressure (bar)	uptake (molecules/unitcell)
2.4725	3.18357
6.30263	9.08272
13.006	19.5701
24.5153	33.9903
44.8356	52.3432
60.6339	68.7298
98.2795	79.2172
179.741	77.9063
274.269	68.0743
406.067	49.7214
