Adsorption isotherm of Nitrogen on TPB-TP-COF
DOI: 10.1002/chem.202000722
Article source: Figure S10a
Adsorbate Nitrogen: InChIKey IJGRMHOSHXDMSA-UHFFFAOYSA-N
Kind: experiment
Temperature: 77 K
Tabular data in the source: 0
pressure (bar)	uptake (cm3(STP)/g)
0.041496	32.1333
0.076374	34.5487
0.102533	35.7219
0.128691	36.55
0.15485	37.3782
0.181008	38.1373
0.207167	38.9655
0.233325	39.5866
0.259484	40.2767
0.285642	40.9668
0.307441	41.4499
0.355398	41.657
0.425154	41.933
0.477471	42.2091
0.507989	42.8992
0.555947	43.3133
0.625703	43.8654
0.658401	44.7211
0.708538	45.5216
0.760855	46.6258
0.808812	47.7991
0.861129	49.8694
0.911266	53.251
0.952684	59.8762
0.974171	69.6957
0.987562	82.6641
0.996281	114.189
0.996281	99.6963
1.005	128.474
0.028981	30.0093
0.01493	28.0074
0.00966	25.3383
0.006148	23.3364
0.006148	21.3346
0.000878	15.329
0.204987	64.5414
0.244224	64.8352
0.283462	63.9184
0.333599	64.4241
0.385916	62.8897
0.436053	62.4395
0.486191	62.6873
0.536328	61.71
0.586465	60.2673
0.638782	59.8992
0.688919	59.9945
0.741236	59.1565
0.791373	58.818
0.84151	59.679
0.893827	61.5522
0.93797	65.9493
0.971867	79.5696
0.994102	114.534
0.165984	64.7081
0.123829	63.7071
0.090457	63.0399
0.046546	60.0371
0.028981	57.7016
0.021956	55.6997
0.01493	53.3642
0.011417	50.3614
0.007904	47.6923
0.002635	44.0222
0.000878	42.354
0.000878	41.3531
0.071136	62.7062
