Adsorption isotherm of Nitrogen on TPB-DBBA-COF
DOI: 10.1002/chem.202000722
Article source: Figure 2b
Adsorbate Nitrogen: InChIKey IJGRMHOSHXDMSA-UHFFFAOYSA-N
Kind: experiment
Temperature: 77 K
Tabular data in the source: 0
pressure (bar)	uptake (cm3(STP)/g)
1.01325	717.685
1.00994	655.463
1.00829	623.056
0.996721	591.944
0.980191	563.426
0.95705	541.389
0.915727	518.056
0.864486	507.685
0.813245	503.796
0.757045	494.722
0.705804	489.537
0.656216	485.648
0.616545	480.463
0.550428	477.87
0.510757	473.981
0.459516	467.5
0.411581	463.611
0.363646	457.13
0.297529	446.759
0.266123	435.093
0.219841	378.056
0.223146	365.093
0.20827	344.352
0.193394	328.796
0.173558	314.537
0.143805	295.093
0.125623	278.241
0.107441	266.574
0.0843	245.833
0.077688	236.759
0.046282	218.611
0.018182	192.685
0.014876	168.056
0.011571	148.611
0.008265	123.981
0.006612	103.241
0.004959	91.5741
0.004959	73.4259
0.004959	50.0926
0.003306	28.0556
0	7.31482
1.00829	706.018
0.996721	633.426
0.975232	584.167
0.950438	553.056
0.904156	531.018
0.854568	519.352
0.801674	512.87
0.74878	506.389
0.699192	503.796
0.646298	494.722
0.595057	490.833
0.542163	486.944
0.492575	484.352
0.442987	480.463
0.390093	475.278
0.340505	466.204
0.29257	459.722
0.24794	448.056
0.193394	353.426
0.147111	319.722
0.115706	295.093
0.089259	274.352
