Adsorption isotherm of Carbon Dioxide on MIL-47(V)
DOI: 10.1021/Nn901132k
Adsorbate Carbon Dioxide: InChIKey CURLTUGMZLYLDI-UHFFFAOYSA-N
Temperature: 230 K
Tabular data in the source: 0
pressure (bar)	uptake (molecules/unitcell)
0.00353357	0.0398406
0.04947	0.796813
0.0989399	1.75299
0.151943	2.94821
0.201413	4.22311
0.250883	5.25896
0.300353	6.05578
0.349823	6.69323
0.399293	7.09163
0.448763	7.4502
0.498233	7.72908
0.55477	7.92829
0.600707	8.08765
0.650177	8.28685
0.699647	8.48606
0.749117	8.60558
0.996466	8.7251
