Adsorption isotherm of Carbon Dioxide on MIL-47(V)
DOI: 10.1021/Nn901132k
Adsorbate Carbon Dioxide: InChIKey CURLTUGMZLYLDI-UHFFFAOYSA-N
Temperature: 230 K
Tabular data in the source: 0
pressure (bar)	uptake (molecules/unitcell)
0.0212014	0.278884
0.0388693	0.59761
0.0565371	0.996016
0.0742049	1.4741
0.0883392	1.83267
0.0989399	2.27092
0.113074	2.70916
0.123675	3.10757
0.137809	3.6255
0.151943	4.14343
0.166078	4.7012
0.183746	5.13944
0.19788	5.45817
0.204947	5.77689
0.226148	6.05578
0.24735	6.33466
0.265018	6.61355
0.293286	6.93227
0.325088	7.13147
0.353357	7.37052
0.392226	7.56972
0.427562	7.72908
0.477032	7.92829
0.526502	8.08765
0.59364	8.24701
0.64311	8.40637
0.706714	8.48606
0.812721	8.64542
0.872792	8.68526
0.922261	8.7251
0.989399	8.80478
