Adsorption isotherm of Ethane on CuBTC
DOI: 10.1016/j.seppur.2015.06.012
Article source: Figure 1a
Adsorbate Ethane: InChIKey OTMSDBZUPAUEDD-UHFFFAOYSA-N
Kind: experiment
Temperature: 348 K
Tabular data in the source: 0
pressure (bar)	uptake (mmol/g)
0	0
0.114294	0.5
0.205922	0.833333
0.389982	1.22222
0.504999	1.47222
0.735275	1.88889
0.988297	2.44444
1.44925	3.13889
1.93375	3.69444
2.58021	4.27778
3.06536	4.61111
4.15172	5.16667
5.12289	5.52778
5.46979	5.63889
6.14069	5.77778
7.18163	6.02778
