Adsorption isotherm of Ethane on CuBTC
DOI: 10.1016/j.seppur.2015.06.012
Article source: Figure 1a
Adsorbate Ethane: InChIKey OTMSDBZUPAUEDD-UHFFFAOYSA-N
Kind: experiment
Temperature: 323 K
Tabular data in the source: 0
pressure (bar)	uptake (mmol/g)
0	0
0.046154	0.390415
0.138462	0.892501
0.207692	1.1715
0.230769	1.31096
0.346154	1.75738
0.484615	2.17602
0.784615	3.15274
0.969231	3.57155
1.52308	4.57709
2.14615	5.1369
2.53846	5.47285
3.18462	5.80975
4.08462	6.17546
5.07692	6.48577
5.42308	6.57068
6.13846	6.68484
7.15385	6.88373
