Adsorption isotherm of Ethene on CuBTC
DOI: 10.1016/j.seppur.2015.06.012
Article source: Figure 1b
Adsorbate Ethene: InChIKey VGGSQFUCUMXWEO-UHFFFAOYSA-N
Kind: experiment
Temperature: 373 K
Tabular data in the source: 0
pressure (bar)	uptake (mmol/g)
0	0
0.046296	0.222222
0.092593	0.472222
0.162037	0.722222
0.300926	1.05556
0.486111	1.41667
0.787037	2.11111
0.925926	2.27778
1.45833	3
1.99074	3.58333
2.59259	4.02778
3.00926	4.27778
4.07407	4.83333
5.06944	5.19444
5.48611	5.33333
6.08796	5.55556
7.10648	5.83333
