Adsorption isotherm of Ethane on Cu-BTC
DOI: 10.1016/j.seppur.2015.06.012
Article source: Figure 1
Adsorbate Ethane: InChIKey OTMSDBZUPAUEDD-UHFFFAOYSA-N
Kind: experiment
Temperature: 373 K
Tabular data in the source: 0
pressure (bar)	uptake (mmol/g)
0.0622	0
0.0883	0
0.1857	0
0.2827	0
0.4152	0
0.5037	0
1.0611	0
1.5397	0
2.1783	0
3.0213	0
4.0609	0
5.1011	0
6.0619	0
7.0584	0
