Adsorption isotherm of Ethane on Cu-BTC
DOI: 10.1016/j.seppur.2015.06.012
Article source: Figure 1
Adsorbate Ethane: InChIKey OTMSDBZUPAUEDD-UHFFFAOYSA-N
Kind: experiment
Temperature: 348 K
Tabular data in the source: 0
pressure (bar)	uptake (mmol/g)
0.044	0
0.079	0
0.1231	0
0.1849	0
0.2637	0
0.4402	0
0.5193	0
1.0316	0
1.9522	0
3.0702	0
4.1545	0
5.0973	0
6.1291	0
7.117	0
