Adsorption isotherm of Ethane on CuBTC
DOI: 10.1016/j.seppur.2015.06.012
Article source: Figure 1a
Adsorbate Ethane: InChIKey OTMSDBZUPAUEDD-UHFFFAOYSA-N
Kind: experiment
Temperature: 373 K
Tabular data in the source: 0
pressure (bar)	uptake (mmol/g)
0.023077	0
0.045994	0.055556
0.13766	0.277778
0.20633	0.472222
0.390224	0.722222
0.481811	0.972222
0.803606	1.41667
1.03357	1.69444
1.53966	2.25
2.11482	2.86111
2.55248	3.13889
3.0129	3.52778
4.07276	4.11111
5.11002	4.52778
5.45585	4.63889
6.05529	4.83333
7.06987	5.11111
