Adsorption isotherm of Ethene on CuBTC
DOI: 10.1016/j.seppur.2015.06.012
Article source: Figure 1b
Adsorbate Ethene: InChIKey VGGSQFUCUMXWEO-UHFFFAOYSA-N
Kind: experiment
Temperature: 348 K
Tabular data in the source: 0
pressure (bar)	uptake (mmol/g)
0	0
0.091106	0.416667
0.158894	0.916667
0.227003	1.30556
0.318109	1.72222
0.432372	2.11111
0.730208	2.86111
0.890865	3.16667
1.39623	3.97222
2.01747	4.61111
2.52412	4.97222
2.98486	5.25
4.02188	5.75
5.05938	6.08333
5.47444	6.19444
5.93558	6.33333
7.04247	6.61111
