Adsorption isotherm of Ethene on CuBTC
DOI: 10.1016/j.seppur.2015.06.012
Article source: Figure 1
Adsorbate Ethene: InChIKey VGGSQFUCUMXWEO-UHFFFAOYSA-N
Kind: experiment
Temperature: 348 K
Tabular data in the source: 0
pressure (bar)	uptake (mmol/g)
0.0266	0.1184
0.0799	0.2906
0.1241	0.5489
0.186	0.8826
0.239	1.1948
0.3451	1.7546
0.4517	2.1205
0.9058	3.175
1.4142	3.9388
1.9856	4.5624
3.0044	5.2501
4.0237	5.6685
5.0522	6.0116
5.9287	6.258
7.0378	6.5579
