Adsorption isotherm of Ethene on CuBTC
DOI: 10.1016/j.seppur.2015.06.012
Article source: Figure 1
Adsorbate Ethene: InChIKey VGGSQFUCUMXWEO-UHFFFAOYSA-N
Kind: experiment
Temperature: 323 K
Tabular data in the source: 0
pressure (bar)	uptake (mmol/g)
0.0176	0.1507
0.0261	0.3337
0.0614	0.549
0.0874	0.9366
0.1135	1.2704
0.1486	1.5718
0.21	2.1316
0.3606	2.8528
0.4938	3.294
0.9121	4.3702
1.501	5.1661
2.0369	5.6606
3.0468	6.2621
4.0305	6.6376
5.0769	6.9483
6.0788	7.1622
7.0897	7.3761
