Adsorption isotherm of Ethene on CuBTC
DOI: 10.1016/j.seppur.2015.06.012
Article source: Figure 1b
Adsorbate Ethene: InChIKey VGGSQFUCUMXWEO-UHFFFAOYSA-N
Kind: experiment
Temperature: 323 K
Tabular data in the source: 0
pressure (bar)	uptake (mmol/g)
0	0
0.02322	0.25
0.02322	0.527778
0.069659	0.888889
0.116099	1.16667
0.139319	1.52778
0.208978	2.13889
0.348297	2.83333
0.464396	3.33333
0.905573	4.33333
1.48607	5.16667
2.04334	5.66667
2.55418	5.97222
3.06502	6.22222
4.10991	6.63889
5.08514	6.91667
5.45666	7.02778
6.13003	7.19444
7.12848	7.36111
