Adsorption isotherm of Ethene on Cu-BTC
DOI: 10.1016/j.seppur.2015.06.012
Article source: Figure 1
Adsorbate Ethene: InChIKey VGGSQFUCUMXWEO-UHFFFAOYSA-N
Kind: experiment
Temperature: 373 K
Tabular data in the source: 0
pressure (bar)	uptake (mmol/g)
0.0356	0
0.0533	0
0.0799	0
0.16	0
0.2222	0
0.3555	0
0.5069	0
0.9346	0
1.4967	0
1.9878	0
2.9706	0
4.0254	0
5.0806	0
6.0555	0
7.0395	0
