Adsorption isotherm of Ethane on CuBTC
DOI: 10.1016/j.seppur.2015.06.012
Article source: Figure 1
Adsorbate Ethane: InChIKey OTMSDBZUPAUEDD-UHFFFAOYSA-N
Kind: experiment
Temperature: 323 K
Tabular data in the source: 0
pressure (bar)	uptake (mmol/g)
0.0437	0.1945
0.0875	0.3567
0.1221	0.5943
0.1919	0.9185
0.2878	1.3832
0.384	1.783
0.5247	2.1939
0.9994	3.5995
1.5473	4.5843
2.523	5.4954
3.1628	5.8436
4.0608	6.2254
5.057	6.532
6.0982	6.7416
7.1307	6.9188
