Adsorption isotherm of Carbon Dioxide on [Ni2(m2-OH)(COO)2]
DOI: 10.1039/c5ta03493k
Article source: Figure  3b
Adsorbate Carbon Dioxide: InChIKey CURLTUGMZLYLDI-UHFFFAOYSA-N
Kind: experiment
Temperature: 273 K
Tabular data in the source: 0
pressure (bar)	uptake (cm3(STP)/g)
0.01303	4.551
0.04025	10.193
0.06629	15.063
0.09265	19.375
0.11868	23.288
0.14555	27.147
0.17359	30.821
0.19995	34.201
0.22715	37.263
0.25401	40.563
0.28071	43.731
0.30773	46.367
0.33409	49.322
0.36094	51.931
0.38747	54.939
0.41517	57.627
0.44068	60.156
0.46737	62.765
0.49456	65.188
0.52007	67.717
0.54726	70.326
0.57293	72.722
0.60063	75.145
0.62732	77.408
0.65519	79.857
0.68103	82.307
0.7062	84.41
0.73423	86.7
0.76058	88.963
0.78744	91.412
0.81395	93.489
0.83996	95.725
0.86749	97.829
0.89367	99.932
0.92154	101.983
0.94721	104.059
0.97406	106.322
1.00075	108.399
1.02675	110.103
1.05327	112.1
1.08029	114.071
