Adsorption isotherm of Carbon Dioxide on [Ni2(m2-OH)(COO)2]
DOI: 10.1039/c5ta03493k
Article source: Figure  3a
Adsorbate Carbon Dioxide: InChIKey CURLTUGMZLYLDI-UHFFFAOYSA-N
Kind: experiment
Temperature: 273 K
Tabular data in the source: 0
pressure (bar)	uptake (cm3(STP)/g)
0.01459	4.407
0.0392	10.497
0.06721	15.544
0.09234	20.084
0.12206	24.517
0.14635	26.867
0.17267	30.445
0.20018	33.676
0.22634	36.853
0.25351	40.111
0.27865	43.235
0.30616	46.012
0.333	48.923
0.35984	51.886
0.38582	54.503
0.41283	57.146
0.43984	59.79
0.46634	62.433
0.49334	64.862
0.51916	67.532
0.54583	69.855
0.57131	72.472
0.599	74.794
0.62652	77.331
0.65166	79.627
0.67952	82.003
0.70585	84.139
0.73132	86.542
0.75816	88.731
0.78585	91
0.81116	93.243
0.83885	95.512
0.86688	97.728
0.89202	99.917
0.91716	102.053
0.94587	104.295
0.97187	106.137
0.99922	108.166
1.02453	110.034
1.0512	111.849
1.07804	113.771
