Adsorption isotherm of Carbon Dioxide on [Ni2(m2-OH)(COO)2]
DOI: 10.1039/c5ta03493k
Article source: Figure  3a
Adsorbate Carbon Dioxide: InChIKey CURLTUGMZLYLDI-UHFFFAOYSA-N
Kind: experiment
Temperature: 283 K
Tabular data in the source: 0
pressure (bar)	uptake (cm3(STP)/g)
0.0151	3.712
0.0404	7.879
0.06707	11.136
0.09339	14.608
0.1192	18.106
0.14638	21.016
0.17475	23.793
0.19988	26.837
0.22774	29.347
0.25492	31.75
0.27989	34.286
0.30571	36.609
0.33374	39.038
0.35972	41.388
0.38589	43.577
0.41171	45.579
0.43753	47.635
0.46607	49.663
0.49308	51.799
0.51856	53.801
0.54642	55.616
0.57275	57.645
0.59756	59.541
0.62814	61.356
0.6526	63.385
0.6791	65.226
0.70543	67.015
0.7299	68.723
0.75997	70.618
0.78392	72.247
0.8111	74.062
0.8388	75.396
0.86513	77.371
0.89129	78.813
0.91814	80.494
0.94685	82.069
0.97199	83.67
0.99867	85.218
1.02517	86.713
1.05168	88.181
1.07869	89.862
