Adsorption isotherm of Carbon Dioxide on [Ni2(m2-OH)(COO)2]
DOI: 10.1039/c5ta03493k
Article source: Figure  3a
Adsorbate Carbon Dioxide: InChIKey CURLTUGMZLYLDI-UHFFFAOYSA-N
Kind: experiment
Temperature: 295 K
Tabular data in the source: 0
pressure (bar)	uptake (cm3(STP)/g)
0.01393	1.575
0.04263	4.593
0.06658	7.076
0.09308	9.479
0.11992	11.801
0.14523	13.937
0.17207	16.473
0.19976	18.502
0.22711	20.291
0.25293	22.293
0.27892	24.322
0.30577	26.137
0.33244	27.845
0.35928	29.473
0.3868	31.181
0.41178	32.783
0.43896	34.358
0.46597	36.146
0.49248	37.347
0.51949	38.868
0.54583	40.47
0.57233	41.964
0.59816	43.459
0.62534	44.793
0.65236	46.1
0.67682	47.462
0.70333	49.01
0.7317	50.237
0.75855	51.438
0.78471	52.852
0.81207	54.079
0.83874	55.2
0.8661	56.508
0.89277	57.495
0.91911	58.989
0.94494	59.95
0.97178	61.23
0.99829	62.298
1.02598	63.658
1.05249	64.458
1.07866	65.606
