Adsorption isotherm of Nitrogen on [Ni2(m2-OH)(COO)2]
DOI: 10.1039/c5ta03493k
Article source: Figure 2a
Adsorbate Nitrogen: InChIKey IJGRMHOSHXDMSA-UHFFFAOYSA-N
Kind: experiment
Temperature: 77 K
Tabular data in the source: 0
pressure (bar)	uptake (cm3(STP)/g)
0.006566	38.81
0.007093	21.29
0.007245	65.03
0.007356	13.62
0.007761	46.49
0.007913	58.72
0.008096	70.15
0.008157	75.81
0.008187	81.25
0.008775	162.06
0.008846	182.62
0.008876	176.73
0.009018	149.89
0.009089	63.69
0.009423	114.21
0.009535	134.05
0.009565	139.61
0.009758	162.02
0.009798	165.26
0.009981	166.1
0.010102	205.94
0.010224	240.55
0.010649	195.8
0.010963	280.81
0.01147	218.4
0.011612	218.83
0.013071	299.06
0.014307	317.89
0.018157	332.37
0.024338	343.67
0.037804	351.93
0.062376	360.05
0.079044	362.95
0.099501	365.42
0.119675	369.19
0.138967	371.8
0.15826	372.82
0.180764	375
0.199752	375.58
0.22021	376.46
0.239208	377.77
0.257325	378.64
0.27603	379.95
0.299699	381.84
0.318698	381.84
0.34032	382.72
0.361943	383.88
0.381519	384.32
0.40606	384.91
0.424177	385.2
0.440541	386.22
0.463339	386.81
0.485833	386.96
0.504538	387.98
0.525573	388.56
0.543984	388.71
0.566478	389.73
0.584899	391.19
0.604475	392.06
0.624638	393.81
0.645683	395.55
0.665259	396.42
0.68367	397.3
0.703246	397.45
0.724281	397.75
0.743574	398.47
0.762562	398.62
0.784478	398.78
0.806101	398.93
0.825089	398.21
0.844665	399.23
0.864241	399.09
0.88557	399.09
0.904265	399.1
0.927641	399.4
0.948098	399.4
0.964452	399.26
0.984909	399.85
1.00594	400.29
