Adsorption isotherm of Nitrogen on [Ni2(m2-OH)(COO)2]
DOI: 10.1039/c5ta03493k
Article source: Figure  3b
Adsorbate Nitrogen: InChIKey IJGRMHOSHXDMSA-UHFFFAOYSA-N
Kind: experiment
Temperature: 273 K
Tabular data in the source: 0
pressure (bar)	uptake (cm3(STP)/g)
0.01248	0.718
0.04012	0.931
0.06625	1.091
0.09272	1.357
0.11918	1.623
0.14615	1.782
0.17228	2.102
0.19874	2.261
0.22504	2.447
0.25234	2.687
0.27931	2.846
0.30494	3.086
0.3314	3.219
0.35871	3.485
0.3845	3.644
0.41197	3.857
0.43827	4.097
0.46557	4.363
0.49137	4.629
0.51867	4.682
0.5453	4.948
0.57177	5.187
0.59857	5.32
0.6252	5.533
0.65183	5.746
0.67847	5.906
0.70544	6.092
0.73173	6.331
0.75853	6.491
0.7855	6.677
0.81163	6.89
0.83826	7.129
0.86439	7.369
0.89187	7.661
0.91816	7.741
0.94513	7.874
0.97159	8.034
0.99722	8.247
1.02536	8.38
1.05301	8.672
1.0788	8.752
