Adsorption isotherm of Hydrogen on [Ni2(m2-OH)(COO)2]
DOI: 10.1039/c5ta03493k
Article source: Figure  2b
Adsorbate Hydrogen: InChIKey UFHFLCQGNIYNRP-UHFFFAOYSA-N
Kind: experiment
Temperature: 87 K
Tabular data in the source: 0
pressure (bar)	uptake (cm3(STP)/g)
0.01276	6.456
0.04076	14.988
0.06626	22.161
0.09283	29.13
0.11868	35.151
0.14679	40.711
0.17383	45.989
0.1992	50.678
0.22565	55.443
0.25245	59.722
0.27936	63.591
0.3083	67.87
0.33438	71.509
0.36022	74.993
0.38714	78.58
0.41393	81.988
0.44001	85.038
0.46609	88.317
0.49324	91.034
0.52016	94.16
0.54707	96.876
0.57446	99.899
0.60113	102.231
0.62709	104.896
0.65519	107.151
0.68079	109.714
0.70662	111.764
0.73484	114.045
0.7608	116.069
0.78676	118.247
0.81474	120.579
0.84177	122.527
0.86629	124.27
0.89403	126.166
0.92154	128.063
0.94761	130.292
0.97524	132.009
0.99988	133.598
1.025	135.136
1.05548	137.212
1.08108	138.852
