Adsorption isotherm of Methane on [Ni2(m2-OH)(COO)2]
DOI: 10.1039/c5ta03493k
Article source: Figure  3b
Adsorbate Methane: InChIKey VNWKTOKETHGBQD-UHFFFAOYSA-N
Kind: experiment
Temperature: 273 K
Tabular data in the source: 0
pressure (bar)	uptake (cm3(STP)/g)
0.01317	1.092
0.04204	1.998
0.065	2.558
0.09218	3.331
0.11868	3.864
0.14536	4.584
0.17236	5.198
0.19803	6.024
0.2247	6.531
0.25205	7.357
0.27855	8.104
0.30505	8.85
0.33206	9.49
0.3589	10.183
0.38608	10.876
0.41174	11.57
0.43875	12.369
0.46576	12.983
0.49244	13.569
0.51961	14.263
0.54629	14.876
0.57245	15.489
0.59895	16.129
0.6258	16.743
0.65281	17.409
0.67931	17.97
0.70632	18.53
0.73333	19.223
0.75932	19.783
0.78549	20.397
0.813	21.063
0.83984	21.57
0.86685	22.184
0.89251	22.77
0.91952	23.251
0.94687	23.811
0.97438	24.451
1.00055	25.011
1.02638	25.598
1.05254	26.025
1.07955	26.692
