Adsorption isotherm of Hydrogen on [Ni2(m2-OH)(COO)2]
DOI: 10.1039/c5ta03493k
Article source: Figure  2b
Adsorbate Hydrogen: InChIKey UFHFLCQGNIYNRP-UHFFFAOYSA-N
Kind: experiment
Temperature: 77 K
Tabular data in the source: 0
pressure (bar)	uptake (cm3(STP)/g)
0.01176	15.205
0.03867	35.535
0.06377	48.53
0.09183	61.036
0.1193	72.235
0.14556	81.024
0.173	89.555
0.19914	97.241
0.22765	104.412
0.25366	110.534
0.28062	116.5
0.3071	122.108
0.33394	127.357
0.36065	132.247
0.38689	136.547
0.41503	141
0.44019	145.301
0.46774	149.523
0.49254	153.106
0.52235	156.866
0.54703	160.346
0.5754	163.825
0.60056	166.971
0.62739	169.963
0.65516	172.8
0.68151	175.69
0.70845	178.374
0.73325	180.853
0.76043	183.614
0.78844	186.093
0.81466	188.161
0.84006	190.795
0.86854	192.939
0.89512	195.162
0.92087	197.359
0.94793	199.171
0.97463	201.214
1.00407	203.282
1.02886	204.735
1.05723	206.675
1.08059	208.103
