Adsorption isotherm of Methane on ZIF-8
DOI: 10.1021/Ja909263x
Adsorbate Methane: InChIKey VNWKTOKETHGBQD-UHFFFAOYSA-N
Temperature: 14 K
Tabular data in the source: 0
pressure (bar)	uptake (mmol/g)
0.0193974	0.00744048
0.0517424	0.00744048
0.0840778	0.014881
0.116404	0.0297619
0.148749	0.0297619
0.187553	0.0372024
0.219888	0.0446429
0.252233	0.0446429
0.284569	0.0520833
0.31367	0.0595238
0.346015	0.0595238
0.375116	0.0669643
0.407461	0.0669643
0.439796	0.0744048
0.472141	0.0744048
0.504476	0.0818452
0.536821	0.0818452
0.569157	0.0892857
0.601502	0.0892857
0.633847	0.0892857
0.662948	0.0967262
0.695283	0.104167
0.727628	0.104167
0.759963	0.111607
0.792308	0.111607
0.824653	0.111607
0.856998	0.111607
0.886099	0.119048
0.918435	0.126488
0.947545	0.126488
0.97989	0.126488
1.01223	0.133929
1.04457	0.133929
1.07367	0.141369
1.10602	0.141369
1.13835	0.14881
1.17069	0.15625
1.20303	0.15625
1.23538	0.15625
1.26771	0.16369
