Adsorption isotherm of Nitrogen on ZIF-8
DOI: 10.1021/Ja909263x
Adsorbate Nitrogen: InChIKey IJGRMHOSHXDMSA-UHFFFAOYSA-N
Temperature: 77 K
Tabular data in the source: 0
pressure (bar)	uptake (cm3(STP)/g)
0.084463	26.0757
0.0857673	25.5656
0.169241	40.8702
0.191414	36.789
0.201848	38.8296
0.237064	50.5632
0.247498	40.8702
0.292791	43.7303
0.293147	54.1343
0.338758	45.1687
0.34271	55.6647
0.387789	46.607
0.390968	56.685
0.436208	49.0043
0.439227	59.2358
0.487691	50.6824
0.495311	61.7866
0.531819	51.881
0.543569	64.8475
0.583303	54.2783
0.584001	65.8678
0.625738	67.3983
0.62927	56.4359
0.673997	69.9491
0.676462	59.3126
0.713125	71.9897
0.716913	61.7099
0.743123	75.0506
0.752461	63.3879
0.775751	65.066
0.777035	78.1115
0.79659	66.5044
0.805729	82.7029
0.814976	69.6208
0.82138	88.8248
0.832137	72.0181
0.848073	75.8537
0.853987	105.15
0.86703	118.924
0.869524	84.2442
0.87616	136.269
0.881169	91.9155
0.89442	205.65
0.900169	108.696
0.905072	119.244
0.907462	262.788
0.911201	129.792
0.91268	316.354
0.917897	346.453
0.918555	158.799
0.923459	176.779
0.930939	355.126
0.935104	242.224
0.938781	269.314
0.941845	305.992
0.943684	319.416
0.949199	361.248
0.95349	355.136
0.957025	366.349
0.961458	368.081
