Adsorption isotherm of Nitrogen on Mb@Tb-mesoMOF
DOI: 10.1021/Ic301280n
Adsorbate Nitrogen: InChIKey IJGRMHOSHXDMSA-UHFFFAOYSA-N
Temperature: 77 K
Tabular data in the source: 0
pressure (bar)	uptake (cm3(STP)/g)
0.00842358	19.972
0.0224629	69.8661
0.0477336	89.9245
0.109507	105.188
0.168472	115.455
0.219013	125.678
0.277978	140.927
0.32852	151.151
0.359406	161.274
0.412756	166.53
0.474529	176.811
0.536302	187.092
0.584035	187.337
0.626153	192.535
0.693542	197.863
0.752507	203.147
0.794625	213.328
0.833935	228.476
0.864821	243.581
0.898516	283.611
0.909747	323.527
