Adsorption isotherm of Nitrogen on Tb-mesoMOF
DOI: 10.1021/Ic301280n
Adsorbate Nitrogen: InChIKey IJGRMHOSHXDMSA-UHFFFAOYSA-N
Temperature: 77 K
Tabular data in the source: 0
pressure (bar)	uptake (cm3(STP)/g)
0.00561572	0.00561572
0.0140393	214.307
0.0224629	284.101
0.0477336	314.124
0.0786201	354.14
0.112314	384.206
0.154432	419.297
0.182511	444.352
0.202166	464.382
0.233052	499.416
0.258323	539.403
0.269555	574.336
0.283594	629.212
0.311673	649.285
0.353791	664.448
0.370638	679.481
0.381869	704.449
0.387485	744.336
0.398716	789.233
0.421179	794.331
0.471721	804.554
0.522262	799.831
0.569996	805.058
0.620537	805.318
0.665463	805.548
0.716005	815.772
0.780585	816.103
0.836743	821.373
0.895708	816.693
0.926594	821.834
0.949057	821.949
