Adsorption isotherm of Nitrogen on SBA-15
DOI: 10.1021/Ic301280n
Adsorbate Nitrogen: InChIKey IJGRMHOSHXDMSA-UHFFFAOYSA-N
Temperature: 77 K
Tabular data in the source: 0
pressure (bar)	uptake (cm3(STP)/g)
0.0123289	148.568
0.0295894	179.472
0.0493157	191.793
0.0863025	219.539
0.103563	225.676
0.133152	234.87
0.155345	244.087
0.175071	250.216
0.221921	265.547
0.246579	277.852
0.273702	277.766
0.295894	286.983
0.342744	305.409
0.387129	314.556
0.443842	332.951
0.483294	345.209
0.535076	363.62
0.576994	378.966
0.62631	400.481
0.675626	428.188
0.700283	496.22
0.724941	567.349
0.742202	663.269
0.774257	725.087
0.880286	752.613
0.934533	767.92
0.966588	811.161
