Adsorption isotherm of Methane on Zeolite 5A
DOI: 10.1007/s10450-020-00206-7
Article source: Figure 3c
Adsorbate Methane: InChIKey VNWKTOKETHGBQD-UHFFFAOYSA-N
Kind: experiment
Isotherm type: excess
Temperature: 253 K
Tabular data in the source: 0
pressure (bar)	uptake (mmol/g)
1.00151	2.3251
4.98406	4.52675
14.9866	5.28395
24.9157	5.45679
35.2129	5.47325
44.7928	5.4321
54.6294	5.35803
64.8467	5.25103
70.1217	5.25103
74.919	5.18518
80.0444	5.01235
