Adsorption isotherm of Nitrogen on Zeolite 13X
DOI: 10.1007/s10450-020-00206-7
Article source: Figure S1b
Adsorbate Nitrogen: InChIKey IJGRMHOSHXDMSA-UHFFFAOYSA-N
Kind: experiment
Isotherm type: excess
Temperature: 293 K
Tabular data in the source: 0
pressure (bar)	uptake (mmol/g)
0.5	0.26976
0.58824	0.35714
0.7549	0.38374
1.04902	0.50912
1.53922	0.6535
2.0098	0.82447
2.5098	0.93845
3.0098	1.09802
3.5098	1.19301
4.0098	1.32979
4.5098	1.40957
4.9902	1.53495
6.0049	1.68123
7	1.8541
8.0098	1.99468
9	2.12386
10	2.24164
