Adsorption isotherm of Carbon Dioxide on Zeolite 5A
DOI: 10.1007/s10450-020-00206-7
Article source: Figure 3a
Adsorbate Carbon Dioxide: InChIKey CURLTUGMZLYLDI-UHFFFAOYSA-N
Kind: experiment
Isotherm type: excess
Temperature: 343 K
Tabular data in the source: 0
pressure (bar)	uptake (mmol/g)
3.4e-05	0.024024
5.3e-05	0.032893
7.3e-05	0.024024
9.2e-05	0.041762
0.000248	0.050631
0.000442	0.0595
0.000665	0.06837
0.000827	0.06837
0.001049	0.094977
0.003276	0.210274
0.005316	0.281226
0.007482	0.352178
0.009219	0.396523
0.010233	0.42313
0.020852	0.662594
0.030771	0.88432
0.041297	1.07057
0.052855	1.25682
0.060366	1.36325
0.07368	1.54063
0.08025	1.62932
0.08824	1.72688
0.09795	1.79783
0.10369	1.87765
0.118424	2.03729
0.130214	2.11711
0.137845	2.1792
0.155946	2.33884
0.169852	2.40979
0.18325	2.51622
0.203416	2.61378
0.221555	2.72908
0.241311	2.81777
0.260347	2.90646
0.283562	3.01289
0.311793	3.10157
0.359496	3.27009
0.41845	3.39425
0.473398	3.49181
0.520529	3.57163
0.57781	3.65145
0.641394	3.74901
0.725619	3.8377
0.81315	3.91753
0.919929	3.99735
1.04073	4.08604
1.56522	4.30776
2.07095	4.4674
2.58841	4.5827
3.0999	4.66252
3.57417	4.76895
4.08207	4.8133
4.61811	4.87538
5.17518	4.91972
6.37684	5.00842
7.21422	5.04389
8.16156	5.09711
9.14608	5.13258
10.2494	5.16806
12.3918	5.22127
11.2698	5.18579
