Adsorption isotherm of Carbon Dioxide on ZSM-5(58) Zeolite
DOI: 10.1007/s10450-020-00206-7
Article source: Figure 7a
Adsorbate Carbon Dioxide: InChIKey CURLTUGMZLYLDI-UHFFFAOYSA-N
Kind: experiment
Isotherm type: excess
Temperature: 313 K
Tabular data in the source: 0
pressure (bar)	uptake (mmol/g)
9.3e-05	0.030075
0.000124	0.030075
0.000277	0.0401
0.000468	0.010025
0.000686	0.0401
0.000884	0.0401
0.001106	0.050125
0.003144	0.050125
0.00538	0.06015
0.007281	0.070175
0.009385	0.070175
0.010552	0.080201
0.022378	0.140351
0.031188	0.160401
0.040596	0.220551
0.050817	0.260652
0.061175	0.280702
0.070823	0.320802
0.077328	0.350877
0.083611	0.350877
0.098707	0.401003
0.116528	0.441103
0.132298	0.501253
0.148744	0.561404
0.168874	0.591479
0.191728	0.631579
0.221968	0.681704
0.242355	0.741855
0.267211	0.81203
0.309357	0.862155
0.354669	0.922306
0.406619	1.01253
0.466177	1.07268
0.508995	1.13283
0.600895	1.23308
0.68891	1.31328
0.767018	1.36341
0.837468	1.45363
0.941568	1.51378
1.01806	1.55388
2.03626	1.99499
3.0685	2.25564
4.15312	2.39599
5.04871	2.49624
7.03639	2.66667
9.15878	2.74687
11.1338	2.81704
12.6406	2.86717
14.9228	2.92732
17.2765	2.96742
20.3958	3.00752
