Adsorption isotherm of Argon on ZSM-5(58) Zeolite
DOI: 10.1007/s10450-020-00206-7
Article source: Figure 2
Adsorbate Argon: InChIKey XKRFYHLGVUSROY-UHFFFAOYSA-N
Kind: experiment
Isotherm type: excess
Temperature: 87 K
Tabular data in the source: 0
pressure (bar)	uptake (cm3(STP)/g)
1e-06	7.69231
2e-06	11.5385
2e-06	14.2308
2e-06	15.7692
3e-06	19.2308
4e-06	21.5385
5e-06	26.5385
7e-06	29.2308
2.5e-05	52.6923
4.6e-05	61.5385
6.6e-05	66.5385
8.8e-05	70
0.00021	78.0769
0.000451	81.9231
0.000627	84.6154
0.000812	87.3077
0.001045	89.6154
0.003226	104.231
0.005302	107.692
0.007183	110
0.008634	110.385
0.010283	112.308
0.02088	115.769
0.029892	117.308
0.040124	118.077
0.051436	118.846
0.065335	120.769
0.082989	121.154
0.104448	122.308
0.135135	123.462
0.178083	124.615
0.245728	125
0.317922	127.308
0.37174	128.077
0.430688	135
0.552119	140.385
0.67597	144.231
0.805075	148.846
0.907349	153.077
0.941358	158.846
1.02261	165.385
