Adsorption isotherm of Methane on ZSM-5(295) Zeolite
DOI: 10.1007/s10450-020-00206-7
Article source: Figure S4c
Adsorbate Methane: InChIKey VNWKTOKETHGBQD-UHFFFAOYSA-N
Kind: experiment
Isotherm type: excess
Temperature: 363 K
Tabular data in the source: 0
pressure (bar)	uptake (mmol/g)
0.99415	0.17041
2.8655	0.44379
4.91228	0.6497
10	1.04024
14.9708	1.25325
20	1.39882
24.9708	1.52308
29.883	1.59763
34.9708	1.67574
39.883	1.69704
44.8538	1.7574
49.8246	1.7787
54.9123	1.8213
59.8246	1.82485
64.7953	1.8426
69.7076	1.83905
74.8538	1.85325
79.7661	1.8497
