Adsorption isotherm of Carbon Dioxide on ZSM-5(58) Zeolite
DOI: 10.1007/s10450-020-00206-7
Article source: Figure S3a
Adsorbate Carbon Dioxide: InChIKey CURLTUGMZLYLDI-UHFFFAOYSA-N
Kind: experiment
Isotherm type: excess
Temperature: 273 K
Tabular data in the source: 0
pressure (bar)	uptake (mmol/g)
3.6e-05	0.020202
4.7e-05	0.024342
6.9e-05	0.036761
8.7e-05	0.032621
0.000272	0.040901
0.00044	0.05332
0.000645	0.0616
0.000836	0.0616
0.001009	0.0616
0.003161	0.111277
0.004984	0.152674
0.006996	0.189932
0.008903	0.23133
0.010179	0.252028
0.020974	0.450737
0.028922	0.550091
0.038142	0.674284
0.048972	0.773638
0.058023	0.860573
0.068136	0.947508
0.077898	1.00546
0.088266	1.07998
0.097373	1.14208
0.113328	1.24557
0.126141	1.31595
0.142931	1.40288
0.15909	1.46912
0.172398	1.53535
0.191889	1.60159
0.206092	1.63885
0.21938	1.69266
0.235618	1.75476
0.25081	1.79616
0.259926	1.8417
0.294524	1.88309
0.345858	1.99073
0.381539	2.08594
0.436201	2.15632
0.472688	2.23083
0.51682	2.26809
0.570139	2.33019
0.62337	2.39228
0.675514	2.42954
0.738582	2.47922
0.81478	2.53304
0.906897	2.58271
0.965369	2.62825
1.90242	2.91389
2.84281	3.0712
3.81656	3.14986
4.72833	3.22851
6.69716	3.35271
8.67578	3.42308
10.5582	3.48932
12.3985	3.54728
14.0488	3.58039
16.3508	3.63421
19.5465	3.67975
