Adsorption isotherm of Carbon Dioxide on ZSM-5(295) Zeolite
DOI: 10.1007/s10450-020-00206-7
Article source: Figure S4a
Adsorbate Carbon Dioxide: InChIKey CURLTUGMZLYLDI-UHFFFAOYSA-N
Kind: experiment
Isotherm type: excess
Temperature: 363 K
Tabular data in the source: 0
pressure (bar)	uptake (mmol/g)
0.252449	0.134884
0.521665	0.260465
0.791682	0.372093
0.991692	0.437209
1.99028	0.788372
2.98289	0.995349
3.97775	1.20465
4.87984	1.32558
6.92755	1.6
8.97219	1.73023
11.0069	1.87907
12.9515	1.96279
14.925	2.05116
16.6347	2.11163
19.9859	2.1907
