Adsorption isotherm of Nitrogen on Zeolite 5A
DOI: 10.1007/s10450-020-00206-7
Article source: Figure 3b
Adsorbate Nitrogen: InChIKey IJGRMHOSHXDMSA-UHFFFAOYSA-N
Kind: experiment
Isotherm type: excess
Temperature: 313 K
Tabular data in the source: 0
pressure (bar)	uptake (mmol/g)
0.189472	0.033905
0.487896	0.168041
0.979181	0.334115
1.97776	0.596001
2.95825	0.813175
3.94398	0.998411
4.96426	1.16129
5.89922	1.29543
6.89915	1.4136
7.91535	1.52538
8.93729	1.62758
9.89953	1.70742
