Adsorption isotherm of Carbon Dioxide on Zeolite 4A
DOI: 10.1007/s10450-020-00206-7
Article source: Figure 7a
Adsorbate Carbon Dioxide: InChIKey CURLTUGMZLYLDI-UHFFFAOYSA-N
Kind: experiment
Isotherm type: excess
Temperature: 313 K
Tabular data in the source: 0
pressure (bar)	uptake (mmol/g)
1.1e-05	0.0401
3.3e-05	0.050125
5.5e-05	0.06015
7.6e-05	0.080201
0.000246	0.120301
0.000455	0.210526
0.000622	0.270677
0.000833	0.360902
0.001033	0.421053
0.003114	0.892231
0.005173	1.18296
0.007281	1.38346
0.00957	1.55388
0.010348	1.59398
0.021312	2.07519
0.029994	2.28571
0.040201	2.43609
0.051819	2.56642
0.061175	2.62657
0.070823	2.69674
0.081994	2.75689
0.09309	2.83709
0.101641	2.86717
0.118826	2.92732
0.132298	2.96742
0.154668	3.03759
0.168874	3.06767
0.182593	3.09774
0.20529	3.1579
0.219811	3.18797
0.235359	3.21804
0.262044	3.2381
0.303374	3.3183
0.354669	3.37845
0.410608	3.42857
0.439652	3.5188
0.508995	3.5188
0.572265	3.56892
0.630957	3.60902
0.68891	3.64912
0.716347	3.72932
0.805392	3.70927
0.879366	3.74937
0.950806	3.77945
1.03814	3.85965
1.53414	4.0401
2.05624	4.11028
2.57395	4.23058
3.0986	4.30075
3.51795	4.35088
4.11277	4.401
5.09824	4.49123
7.24554	4.59148
9.15878	4.6817
11.243	4.73183
13.144	4.802
15.2171	4.82205
17.2765	4.87218
20.798	4.90226
