Adsorption isotherm of Nitrogen on Zeolite 5A
DOI: 10.1007/s10450-020-00206-7
Article source: Figure 3b
Adsorbate Nitrogen: InChIKey IJGRMHOSHXDMSA-UHFFFAOYSA-N
Kind: experiment
Isotherm type: excess
Temperature: 293 K
Tabular data in the source: 0
pressure (bar)	uptake (mmol/g)
0.477104	0.314953
0.982315	0.564064
1.96516	0.931342
2.97721	1.21878
3.94398	1.43914
4.96426	1.62438
5.93704	1.78087
6.89915	1.9214
7.91535	2.03957
8.88035	2.15135
9.963	2.25035
