Adsorption isotherm of Carbon Dioxide on Zeolite 4A
DOI: 10.1007/s10450-020-00206-7
Article source: Figure S2a
Adsorbate Carbon Dioxide: InChIKey CURLTUGMZLYLDI-UHFFFAOYSA-N
Kind: experiment
Isotherm type: excess
Temperature: 363 K
Tabular data in the source: 0
pressure (bar)	uptake (mmol/g)
0.000124	0.047749
0.00024	0.066849
0.000422	0.066849
0.000632	0.085948
0.000808	0.085948
0.000995	0.095498
0.003037	0.133697
0.005022	0.171896
0.006825	0.229195
0.008616	0.267394
0.009982	0.296044
0.020585	0.48704
0.029742	0.601637
0.039436	0.716235
0.04858	0.821282
0.056283	0.907231
0.067653	1.00273
0.074629	1.04093
0.08334	1.09823
0.097748	1.18418
0.111184	1.25102
0.128028	1.33697
0.144737	1.40382
0.161631	1.47067
0.178296	1.54707
0.201564	1.61391
0.222347	1.67121
0.239329	1.72851
0.264006	1.78581
0.294821	1.84311
0.33741	1.93861
0.386152	2.00546
0.420774	2.05321
0.45291	2.0914
0.481558	2.13915
0.524734	2.17735
0.571781	2.2251
0.654379	2.29195
0.721851	2.3588
0.786571	2.40655
0.846646	2.4352
0.980909	2.5116
1.47037	2.76944
1.9737	2.84584
2.43133	2.97954
2.92249	2.98909
3.30389	3.09413
3.82783	3.09413
4.77357	3.22783
6.89701	3.29468
8.60104	3.42838
10.088	3.44748
12.5804	3.53342
14.0489	3.54297
16.2768	3.60982
19.8063	3.62892
