Adsorption isotherm of Methane on ZSM-5(295) Zeolite
DOI: 10.1007/s10450-020-00206-7
Article source: Figure 7c
Adsorbate Methane: InChIKey VNWKTOKETHGBQD-UHFFFAOYSA-N
Kind: experiment
Isotherm type: excess
Temperature: 313 K
Tabular data in the source: 0
pressure (bar)	uptake (mmol/g)
1.00571	0.457317
3.03443	1.02439
5.0076	1.34146
10.0285	1.75
15.066	1.93293
20.0837	2.09756
25.076	2.14024
30.0008	2.21341
35.0847	2.21951
39.8788	2.29878
44.9425	2.2622
49.7917	2.31098
55.1641	2.26829
60.0813	2.29878
64.696	2.2561
70.0629	2.27439
74.5903	2.25
79.8635	2.20732
