Adsorption isotherm of Nitrogen on Zeolite 13X
DOI: 10.1007/s10450-020-00206-7
Article source: Figure S1b
Adsorbate Nitrogen: InChIKey IJGRMHOSHXDMSA-UHFFFAOYSA-N
Kind: experiment
Isotherm type: excess
Temperature: 363 K
Tabular data in the source: 0
pressure (bar)	uptake (mmol/g)
1.01961	0.14818
1.52941	0.25456
2.01961	0.27736
2.5098	0.32295
3	0.36094
3.5	0.39894
4.0098	0.44833
4.5	0.47872
4.9902	0.53191
6.0098	0.6003
6.9902	0.68769
7.9902	0.75228
8.98039	0.82447
9.9902	0.88906
