Adsorption isotherm of Methane on ZSM-5(58) Zeolite
DOI: 10.1007/s10450-020-00206-7
Article source: Figure S3c
Adsorbate Methane: InChIKey VNWKTOKETHGBQD-UHFFFAOYSA-N
Kind: experiment
Isotherm type: excess
Temperature: 363 K
Tabular data in the source: 0
pressure (bar)	uptake (mmol/g)
1.18859	0.21854
3.13788	0.52791
4.99208	0.72942
10.1268	1.11542
15.0713	1.32829
20.0634	1.49574
25.0079	1.59792
30	1.68874
34.9921	1.73699
39.8415	1.80511
44.8336	1.82781
49.8257	1.87606
54.7702	1.88458
59.7623	1.90728
64.7544	1.9158
69.8891	1.93567
74.786	1.93283
79.7306	1.94134
