Adsorption isotherm of Argon on Zeolite 5A
DOI: 10.1007/s10450-020-00206-7
Article source: Figure 2
Adsorbate Argon: InChIKey XKRFYHLGVUSROY-UHFFFAOYSA-N
Kind: experiment
Isotherm type: excess
Temperature: 87 K
Tabular data in the source: 0
pressure (bar)	uptake (cm3(STP)/g)
1e-06	2.69231
2e-06	3.07692
2e-06	4.61539
2e-06	5.38461
3e-06	6.15385
4e-06	7.30769
6e-06	10
7e-06	11.9231
2.5e-05	40
4.4e-05	70.3846
6.8e-05	90.3846
8.8e-05	106.154
0.000204	133.462
0.000422	145.769
0.000633	150.385
0.000834	152.692
0.00105	154.615
0.00311	163.462
0.005064	165.769
0.007183	167.692
0.008875	167.692
0.010189	168.846
0.0205	172.308
0.031012	173.846
0.040124	174.615
0.049578	176.154
0.059593	176.538
0.067784	176.538
0.077101	176.538
0.086895	178.077
0.100675	178.462
0.126707	179.231
0.148156	180.769
0.202561	182.308
0.254939	183.846
0.30085	185.385
0.355028	186.538
0.415128	188.846
0.472188	189.615
0.522471	189.615
0.583451	190.385
0.639671	191.538
0.71433	191.538
0.775989	191.538
0.827603	191.923
0.907349	192.692
0.985669	194.231
1.06094	195
