Adsorption isotherm of Nitrogen on ZSM-5(295) Zeolite
DOI: 10.1007/s10450-020-00206-7
Article source: Figure 7b
Adsorbate Nitrogen: InChIKey IJGRMHOSHXDMSA-UHFFFAOYSA-N
Kind: experiment
Isotherm type: excess
Temperature: 313 K
Tabular data in the source: 0
pressure (bar)	uptake (mmol/g)
1.00652	0.141615
1.52778	0.223602
2.02004	0.264596
2.51107	0.331677
3.00215	0.372671
3.50291	0.428571
3.99532	0.465839
4.51277	0.521739
5.01513	0.559006
5.9862	0.637267
6.99603	0.711801
7.99245	0.775155
8.99831	0.834783
10	0.898137
