Adsorption isotherm of Nitrogen on Zeolite 4A
DOI: 10.1007/s10450-020-00206-7
Article source: Figure S2b
Adsorbate Nitrogen: InChIKey IJGRMHOSHXDMSA-UHFFFAOYSA-N
Kind: experiment
Isotherm type: excess
Temperature: 363 K
Tabular data in the source: 0
pressure (bar)	uptake (mmol/g)
0.42394	0.01758
0.7181	0.02813
1.0036	0.06329
1.53136	0.09845
2.00721	0.14065
2.50901	0.17229
3.01947	0.20745
3.52127	0.25316
4.00577	0.27778
4.49892	0.31997
5.00937	0.3481
5.99567	0.40436
7.00793	0.46765
8.00288	0.51688
8.99784	0.59775
10.0101	0.61885
