Adsorption isotherm of Methane on Zeolite 5A
DOI: 10.1007/s10450-020-00206-7
Article source: Figure 3c
Adsorbate Methane: InChIKey VNWKTOKETHGBQD-UHFFFAOYSA-N
Kind: experiment
Isotherm type: excess
Temperature: 283 K
Tabular data in the source: 0
pressure (bar)	uptake (mmol/g)
1	1.34979
4.99907	2.99588
9.98497	3.67078
20.0037	4.20576
29.9336	4.45267
40.075	4.57613
49.9156	4.61728
59.9685	4.61728
70.1217	4.60905
79.804	4.5679
