Adsorption isotherm of Methane on Zeolite 13X
DOI: 10.1007/s10450-020-00206-7
Article source: Figure 7c
Adsorbate Methane: InChIKey VNWKTOKETHGBQD-UHFFFAOYSA-N
Kind: experiment
Isotherm type: excess
Temperature: 313 K
Tabular data in the source: 0
pressure (bar)	uptake (mmol/g)
1.00857	0.743902
2.98305	1.60976
5.0076	2.08537
10	3.04878
15.066	3.44512
19.9697	3.80488
25.076	3.94512
29.9155	4.14024
35.285	4.18293
40.1064	4.30488
44.8148	4.29268
49.7917	4.37805
54.851	4.36585
59.5705	4.41463
64.8804	4.37805
69.2698	4.40244
74.5903	4.37805
79.6366	4.35366
