Adsorption isotherm of Nitrogen on Zeolite 5A
DOI: 10.1007/s10450-020-00206-7
Article source: Figure 3b
Adsorbate Nitrogen: InChIKey IJGRMHOSHXDMSA-UHFFFAOYSA-N
Kind: experiment
Isotherm type: excess
Temperature: 353 K
Tabular data in the source: 0
pressure (bar)	uptake (mmol/g)
0.489457	0.062648
0.988613	0.136104
1.95889	0.263853
2.95825	0.385215
3.96926	0.506577
4.93263	0.583226
5.95604	0.679038
6.92123	0.758881
7.91535	0.848306
8.90877	0.91218
9.93122	0.98883
