Adsorption isotherm of Methane on ZSM-5(295) Zeolite
DOI: 10.1007/s10450-020-00206-7
Article source: Figure S4c
Adsorbate Methane: InChIKey VNWKTOKETHGBQD-UHFFFAOYSA-N
Kind: experiment
Isotherm type: excess
Temperature: 273 K
Tabular data in the source: 0
pressure (bar)	uptake (mmol/g)
0.93567	1.13609
2.8655	1.7858
4.97076	2.09822
9.88304	2.38225
14.8538	2.48166
20.0585	2.54556
24.9123	2.61302
30	2.60947
34.9708	2.64497
39.7661	2.62012
44.9123	2.62367
49.7661	2.58462
54.7368	2.57751
59.6491	2.56331
64.7368	2.54556
69.7661	2.50296
74.7953	2.48166
79.8246	2.4355
