Adsorption isotherm of Nitrogen on ZSM-5(295) Zeolite
DOI: 10.1007/s10450-020-00206-7
Article source: Figure S4b
Adsorbate Nitrogen: InChIKey IJGRMHOSHXDMSA-UHFFFAOYSA-N
Kind: experiment
Isotherm type: excess
Temperature: 363 K
Tabular data in the source: 0
pressure (bar)	uptake (mmol/g)
0.73201	0.03514
1.01988	0.05179
1.56271	0.08693
2.03153	0.10912
2.53324	0.12947
3.02673	0.15536
4.00548	0.20345
6.00411	0.29038
6.99931	0.30888
7.99452	0.36806
9.00617	0.39026
10.0014	0.4402
