Adsorption isotherm of Methane on Zeolite 13X
DOI: 10.1007/s10450-020-00206-7
Article source: Figure S1c
Adsorbate Methane: InChIKey VNWKTOKETHGBQD-UHFFFAOYSA-N
Kind: experiment
Isotherm type: excess
Temperature: 363 K
Tabular data in the source: 0
pressure (bar)	uptake (mmol/g)
1.06101	0.3589
3.04156	0.79141
5.09284	1.01227
10.1857	1.65644
15.2078	2.02454
20.2299	2.40184
25.1813	2.58589
30.1326	2.82515
35.2255	2.92638
40.1061	3.09202
44.9867	3.12883
50.0088	3.24847
55.0309	3.28528
59.9823	3.3589
65.0044	3.3589
69.9558	3.41411
74.9779	3.43252
79.9293	3.45092
