Adsorption isotherm of Carbon Dioxide on ZSM-5(58) Zeolite
DOI: 10.1007/s10450-020-00206-7
Article source: Figure S3a
Adsorbate Carbon Dioxide: InChIKey CURLTUGMZLYLDI-UHFFFAOYSA-N
Kind: experiment
Isotherm type: excess
Temperature: 343 K
Tabular data in the source: 0
pressure (bar)	uptake (mmol/g)
0.000765	0.003643
0.000914	0.007783
0.001009	0.011923
0.021736	0.040901
0.029974	0.074019
0.039529	0.098857
0.049411	0.111277
0.058023	0.123696
0.066931	0.131975
0.075166	0.144395
0.080729	0.152674
0.092295	0.160954
0.099127	0.177513
0.108381	0.181653
0.1185	0.202351
0.127272	0.214771
0.142931	0.235469
0.160517	0.260308
0.178664	0.289286
0.202446	0.322404
0.223332	0.347243
0.242013	0.367942
0.262257	0.40106
0.286742	0.413479
0.324909	0.471436
0.371458	0.500414
0.40253	0.537672
0.428483	0.56251
0.468488	0.591489
0.503165	0.624607
0.530847	0.657725
0.570139	0.678424
0.628959	0.711542
0.663561	0.73638
0.719067	0.765359
0.786202	0.806756
0.836893	0.839874
0.890851	0.877132
0.923232	0.897831
0.956791	0.91439
1.00943	0.943368
1.95405	1.32837
2.94614	1.59331
3.92014	1.7796
4.98846	1.92449
7.00282	2.11492
8.99113	2.23911
10.7484	2.33433
12.735	2.41298
14.8217	2.47094
16.6453	2.52062
20.077	2.57857
