Adsorption isotherm of Carbon Dioxide on Zeolite 13X
DOI: 10.1007/s10450-020-00206-7
Article source: Figure SI1a
Adsorbate Carbon Dioxide: InChIKey CURLTUGMZLYLDI-UHFFFAOYSA-N
Kind: experiment
Isotherm type: excess
Temperature: 253 K
Tabular data in the source: 0
pressure (bar)	uptake (mmol/g)
3.2e-05	0.135
5.2e-05	0.21
7.2e-05	0.285
8.8e-05	0.33
0.000212	0.6
0.000402	0.855
0.000595	1.005
0.000808	1.17
0.00101	1.245
0.003081	1.845
0.004882	2.175
0.006918	2.46
0.009016	2.655
0.01008	2.76
0.019684	3.45
0.029493	3.825
0.040081	4.185
0.049405	4.425
0.059223	4.62
0.06904	4.815
0.080484	4.95
0.087507	5.04
0.099206	5.16
0.110913	5.31
0.122284	5.43
0.144555	5.55
0.166184	5.655
0.188402	5.775
0.199209	5.82
0.219632	5.91
0.245549	6.015
0.266975	6.045
0.298479	6.12
0.3337	6.24
0.394476	6.33
0.428897	6.39
0.521348	6.57
0.591053	6.645
0.651649	6.69
0.749148	6.765
0.849309	6.855
0.962862	6.945
1.44268	7.275
1.93345	7.395
2.41667	7.485
3.37712	7.665
3.8824	7.68
4.85273	7.74
6.87654	7.815
8.5952	7.92
10.3033	7.95
11.6808	7.98
13.2426	7.98
16.0971	8.01
19.8417	8.025
