Adsorption isotherm of Carbon Dioxide on ZSM-5(295) Zeolite
DOI: 10.1007/s10450-020-00206-7
Article source: Figure 7a
Adsorbate Carbon Dioxide: InChIKey CURLTUGMZLYLDI-UHFFFAOYSA-N
Kind: experiment
Isotherm type: excess
Temperature: 313 K
Tabular data in the source: 0
pressure (bar)	uptake (mmol/g)
0.259498	0.441103
0.519032	0.83208
0.813294	1.11278
1.03814	1.27318
2.05624	1.83459
3.0986	2.06516
4.11277	2.27569
5.14826	2.38597
7.17514	2.54637
9.06979	2.64662
11.1338	2.74687
13.273	2.79699
15.5172	2.81704
17.79	2.85714
20.0014	2.91729
