Adsorption isotherm of Nitrogen on Zeolite 13X
DOI: 10.1007/s10450-020-00206-7
Article source: Figure 7b
Adsorbate Nitrogen: InChIKey IJGRMHOSHXDMSA-UHFFFAOYSA-N
Kind: experiment
Isotherm type: excess
Temperature: 313 K
Tabular data in the source: 0
pressure (bar)	uptake (mmol/g)
1.00162	0.484472
1.51789	0.592547
2.00696	0.719255
2.51107	0.808696
3.00215	0.91677
3.49723	0.991304
3.99532	1.10311
4.50545	1.17764
4.99076	1.26335
5.99592	1.40124
6.99603	1.55031
8.00544	1.66956
8.99831	1.78509
9.96758	1.87826
