Adsorption isotherm of Carbon Dioxide on Zeolite 13X
DOI: 10.1007/s10450-020-00206-7
Article source: Figure 7a
Adsorbate Carbon Dioxide: InChIKey CURLTUGMZLYLDI-UHFFFAOYSA-N
Kind: experiment
Isotherm type: excess
Temperature: 313 K
Tabular data in the source: 0
pressure (bar)	uptake (mmol/g)
3.2e-05	0.050125
6.5e-05	0.070175
0.000212	0.140351
0.003114	0.761905
0.005173	0.992481
0.00714	1.18296
0.009294	1.32331
0.010247	1.36341
0.0209	1.85464
0.040994	2.36592
0.049834	2.53634
0.059409	2.77694
0.070135	2.90727
0.081197	3.03759
0.090403	3.16792
0.101641	3.25815
0.115396	3.40852
0.12974	3.54887
0.151677	3.69925
0.170531	3.80952
0.191728	3.94988
0.221968	4.10025
0.252007	4.21053
0.283333	4.3208
0.309357	4.46115
0.361663	4.6416
0.402668	4.75188
0.461648	4.91228
0.508995	5.00251
0.561199	5.11278
0.612744	5.21303
0.675588	5.26316
0.730473	5.35338
0.789817	5.43358
0.879366	5.51378
0.969555	5.60401
1.02805	5.67418
1.51924	6.06516
2.05624	6.29574
2.49965	6.43609
3.58732	6.63659
4.03324	6.74687
5.04871	6.84712
6.96802	7.01754
8.98167	7.13785
11.243	7.22807
12.7646	7.27819
14.2118	7.30827
15.3664	7.32832
17.446	7.3584
20.3958	7.38847
