Adsorption isotherm of Carbon Dioxide on ZSM-5(295) Zeolite
DOI: 10.1007/s10450-020-00206-7
Article source: Figure S4a
Adsorbate Carbon Dioxide: InChIKey CURLTUGMZLYLDI-UHFFFAOYSA-N
Kind: experiment
Isotherm type: excess
Temperature: 273 K
Tabular data in the source: 0
pressure (bar)	uptake (mmol/g)
0.001025	0.023256
0.003058	0.051163
0.005045	0.069767
0.007223	0.07907
0.009277	0.106977
0.010168	0.116279
0.021012	0.223256
0.02885	0.293023
0.039944	0.376744
0.049619	0.437209
0.060115	0.511628
0.0687	0.576744
0.079831	0.651163
0.090474	0.725581
0.1	0.776744
0.116203	0.860465
0.1306	0.939535
0.1505	1.05116
0.16774	1.13023
0.179318	1.18605
0.203222	1.26977
0.213654	1.32093
0.230313	1.38605
0.254564	1.45581
0.261016	1.48837
0.279031	1.54419
0.305849	1.60465
0.352453	1.73488
0.396119	1.85116
0.452686	1.93954
0.500352	2.02326
0.553036	2.09767
0.601154	2.15814
0.637306	2.21395
0.692755	2.26512
0.746773	2.30698
0.791682	2.35349
0.818547	2.37674
0.853413	2.41395
0.889765	2.44651
0.935437	2.47442
0.991692	2.50233
1.98199	2.8093
2.98289	2.95349
3.89565	3.05581
4.92072	3.12558
6.92755	3.22326
8.89765	3.29302
10.9611	3.34884
12.9515	3.38605
14.801	3.42326
16.9146	3.44186
19.9859	3.48837
