Adsorption isotherm of Argon on ZSM-5(295) Zeolite
DOI: 10.1007/s10450-020-00206-7
Article source: Figure 2
Adsorbate Argon: InChIKey XKRFYHLGVUSROY-UHFFFAOYSA-N
Kind: experiment
Isotherm type: excess
Temperature: 87 K
Tabular data in the source: 0
pressure (bar)	uptake (cm3(STP)/g)
1e-06	6.53846
2e-06	9.61539
2e-06	11.5385
2e-06	12.3077
3e-06	15.3846
4e-06	18.4615
6e-06	23.0769
7e-06	25.7692
2.5e-05	48.8462
4.8e-05	59.6154
6.8e-05	63.0769
9.2e-05	67.6923
0.000218	75.7692
0.000451	80
0.000669	81.9231
0.000882	83.8462
0.001041	83.8462
0.003081	102.308
0.005302	108.077
0.007384	110.385
0.008957	110.769
0.010668	111.154
0.020689	115
0.030447	117.308
0.042012	118.846
0.050965	119.615
0.060699	120.577
0.07163	120.769
0.08073	120.769
0.104448	122.692
0.130252	123.462
0.153709	123.462
0.200706	124.615
0.262072	126.538
0.309268	126.538
0.364963	127.308
0.418964	128.462
0.4854	128.462
0.547064	129.615
0.628009	131.154
0.67597	133.077
0.754866	134.615
0.835252	138.077
0.924197	141.923
0.994778	146.923
1.03207	150.385
