Adsorption isotherm of Nitrogen on ZSM-5(58) Zeolite
DOI: 10.1007/s10450-020-00206-7
Article source: Figure S3b
Adsorbate Nitrogen: InChIKey IJGRMHOSHXDMSA-UHFFFAOYSA-N
Kind: experiment
Isotherm type: excess
Temperature: 293 K
Tabular data in the source: 0
pressure (bar)	uptake (mmol/g)
0.43081	0.23806
0.71097	0.33757
0.99114	0.43493
1.52541	0.59502
2.02059	0.714
2.50274	0.82866
2.99792	0.91736
3.52567	1.00389
4.01759	1.07529
4.49648	1.14668
5.00469	1.21158
6.01459	1.32191
7.00495	1.41277
8.01486	1.49065
9.00521	1.55772
9.99557	1.62046
