Adsorption isotherm of Nitrogen on ZSM-5(58) Zeolite
DOI: 10.1007/s10450-020-00206-7
Article source: Figure S3b
Adsorbate Nitrogen: InChIKey IJGRMHOSHXDMSA-UHFFFAOYSA-N
Kind: experiment
Isotherm type: excess
Temperature: 363 K
Tabular data in the source: 0
pressure (bar)	uptake (mmol/g)
0.43081	0.04335
0.71097	0.04768
1.03023	0.06282
1.51889	0.10177
2.00756	0.11475
2.49622	0.15585
2.98488	0.17748
3.50612	0.20777
4.01433	0.23157
4.49648	0.25537
5.01121	0.277
5.99505	0.32027
7.01147	0.3657
8.01486	0.41329
8.99218	0.45656
10.0216	0.47819
