Adsorption isotherm of Nitrogen on Zeolite 4A
DOI: 10.1007/s10450-020-00206-7
Article source: Figure 7b
Adsorbate Nitrogen: InChIKey IJGRMHOSHXDMSA-UHFFFAOYSA-N
Kind: experiment
Isotherm type: excess
Temperature: 313 K
Tabular data in the source: 0
pressure (bar)	uptake (mmol/g)
1.00325	0.376398
1.52283	0.525466
2.01676	0.581366
2.51107	0.704348
3.00215	0.760248
3.50291	0.86087
3.99532	0.909317
4.50545	1.00248
4.99887	1.08074
5.99592	1.17391
6.98468	1.30435
7.97948	1.39006
8.96913	1.50186
9.96758	1.56522
