Adsorption isotherm of Nitrogen on Zeolite 4A
DOI: 10.1007/s10450-020-00206-7
Article source: Figure S2b
Adsorbate Nitrogen: InChIKey IJGRMHOSHXDMSA-UHFFFAOYSA-N
Kind: experiment
Isotherm type: excess
Temperature: 293 K
Tabular data in the source: 0
pressure (bar)	uptake (mmol/g)
0.40663	0.218
0.68349	0.31294
1.0036	0.35865
1.51406	0.57314
1.99856	0.66104
2.50901	0.83333
3.01081	0.89662
3.52127	1.0443
4.00577	1.09705
4.50757	1.23066
5.00937	1.30802
6.00433	1.42053
6.99928	1.59283
8.00288	1.66667
8.99784	1.80028
10.0014	1.85654
