Adsorption isotherm of Methane on Zeolite 4A
DOI: 10.1007/s10450-020-00206-7
Article source: Figure S2c
Adsorbate Methane: InChIKey VNWKTOKETHGBQD-UHFFFAOYSA-N
Kind: experiment
Isotherm type: excess
Temperature: 273 K
Tabular data in the source: 0
pressure (bar)	uptake (mmol/g)
0.99265	1.25666
2.97794	2.49088
5.02941	2.67602
10.0588	3.25386
15.0221	3.29874
19.8529	3.51753
24.9485	3.50631
29.9779	3.62412
34.8088	3.59607
39.8382	3.64095
44.8676	3.60168
49.7647	3.62412
54.5956	3.57924
59.6912	3.57363
64.6544	3.52875
69.6177	3.51753
74.5809	3.45582
79.6103	3.42777
