Adsorption isotherm of Carbon Dioxide on ZSM-5(58) Zeolite
DOI: 10.1007/s10450-020-00206-7
Article source: Figure S3a
Adsorbate Carbon Dioxide: InChIKey CURLTUGMZLYLDI-UHFFFAOYSA-N
Kind: experiment
Isotherm type: excess
Temperature: 363 K
Tabular data in the source: 0
pressure (bar)	uptake (mmol/g)
0.002996	0.011923
0.005029	0.011923
0.007059	0.011923
0.009063	0.011923
0.01027	0.007783
0.019529	0.032621
0.029443	0.036761
0.039883	0.04918
0.048972	0.04918
0.059068	0.05746
0.069985	0.074019
0.080012	0.082298
0.088266	0.090578
0.096507	0.094718
0.106464	0.107137
0.119563	0.119556
0.130726	0.136115
0.142931	0.140255
0.157677	0.160954
0.170866	0.169233
0.190184	0.181653
0.211686	0.189932
0.229393	0.210631
0.257617	0.22305
0.284194	0.239609
0.324909	0.272727
0.368157	0.305845
0.413454	0.343103
0.460199	0.372081
0.51682	0.4052
0.570139	0.430038
0.62337	0.454877
0.693847	0.483855
0.745204	0.512833
0.786202	0.529392
0.867313	0.56665
0.923232	0.583209
0.956791	0.599768
0.982758	0.616327
1.95405	1.00133
2.91996	1.22073
3.92014	1.38218
4.9002	1.53535
6.81779	1.75476
8.67578	1.87067
10.5582	2.01143
12.5096	2.08594
15.0887	2.17288
16.9451	2.21841
19.5465	2.28879
