Adsorption isotherm of Methane on Zeolite 13X
DOI: 10.1007/s10450-020-00206-7
Article source: Figure S1c
Adsorbate Methane: InChIKey VNWKTOKETHGBQD-UHFFFAOYSA-N
Kind: experiment
Isotherm type: excess
Temperature: 273 K
Tabular data in the source: 0
pressure (bar)	uptake (mmol/g)
0.99027	1.71166
3.18302	3.18405
4.95137	3.80061
10.0442	4.61043
15.2078	4.8589
20.2299	5.09816
25.1813	5.16258
30.2741	5.29141
35.2255	5.2638
40.1061	5.33742
45.2697	5.30061
49.9381	5.31902
54.9602	5.2638
59.9823	5.28221
65.0044	5.22699
69.9558	5.19018
74.9072	5.13497
79.9293	5.07975
