Adsorption isotherm of Carbon Dioxide on Zeolite 4A
DOI: 10.1007/s10450-020-00206-7
Article source: Figure S2a
Adsorbate Carbon Dioxide: InChIKey CURLTUGMZLYLDI-UHFFFAOYSA-N
Kind: experiment
Isotherm type: excess
Temperature: 273 K
Tabular data in the source: 0
pressure (bar)	uptake (mmol/g)
1.8e-05	0.028649
3.2e-05	0.200546
4.9e-05	0.315143
6.9e-05	0.439291
8.5e-05	0.534789
0.000207	0.993179
0.000396	1.41337
0.000602	1.67121
0.000778	1.84311
0.000959	1.97681
0.002964	2.57844
0.005084	2.78854
0.006578	2.89359
0.008722	2.97954
0.010106	3.03683
0.019599	3.20873
0.029021	3.34243
0.038011	3.43793
0.046824	3.51432
0.056283	3.57162
0.066014	3.62892
0.076482	3.69577
0.091933	3.77217
0.113249	3.84857
0.128028	3.90587
0.153891	3.98226
0.180497	4.03001
0.201564	4.08731
0.222347	4.15416
0.2483	4.19236
0.277282	4.24966
0.33741	4.34516
0.390918	4.40246
0.45291	4.4693
0.524734	4.5457
0.578838	4.59345
0.638521	4.6412
0.721851	4.6985
0.776982	4.7367
0.867673	4.794
0.980909	4.86085
1.48852	5.05184
1.94964	5.15689
2.43133	5.26194
2.95856	5.30969
3.34467	5.39563
3.82783	5.41473
4.77357	5.53888
6.72986	5.62483
8.3926	5.72988
10.7261	5.77763
11.9781	5.81582
13.8776	5.86357
16.2768	5.87312
20.2982	5.90177
