Adsorption isotherm of Nitrogen on Zeolite 5A
DOI: 10.1007/s10450-020-00206-7
Article source: Figure 3b
Adsorbate Nitrogen: InChIKey IJGRMHOSHXDMSA-UHFFFAOYSA-N
Kind: experiment
Isotherm type: excess
Temperature: 333 K
Tabular data in the source: 0
pressure (bar)	uptake (mmol/g)
0.487896	0.088198
0.988613	0.199979
1.96516	0.385215
2.97721	0.532126
3.9566	0.691813
4.94842	0.8004
5.93704	0.928149
6.92123	1.01757
7.94068	1.12616
8.96589	1.19323
9.93122	1.29223
