Adsorption isotherm of Carbon Dioxide on Zeolite 5A
DOI: 10.1007/s10450-020-00206-7
Article source: Figure 3a
Adsorbate Carbon Dioxide: InChIKey CURLTUGMZLYLDI-UHFFFAOYSA-N
Kind: experiment
Isotherm type: excess
Temperature: 253 K
Tabular data in the source: 0
pressure (bar)	uptake (mmol/g)
4e-06	0.091954
6e-06	0.147126
8e-06	0.165517
9e-06	0.165517
2.7e-05	0.349425
4.9e-05	0.478161
7e-05	0.588506
8.7e-05	0.715808
0.000199	1.177
0.000398	1.81113
0.000605	2.25902
0.000789	2.5783
0.000991	2.8355
0.003066	3.81997
0.005022	4.15699
0.007001	4.36098
0.009132	4.4674
0.010041	4.52949
0.019698	4.8133
0.028521	4.9552
0.040521	5.05276
0.049929	5.10597
0.059231	5.16806
0.068944	5.2124
0.077261	5.26562
0.087406	5.27449
0.098884	5.31883
0.111869	5.35431
0.130214	5.38978
0.151568	5.45187
0.163525	5.47847
0.186762	5.51395
0.215336	5.54943
0.253039	5.59377
0.300178	5.64699
0.3561	5.68246
0.402862	5.71794
0.464497	5.75341
0.551031	5.8155
0.641394	5.87758
0.732539	5.92192
0.844613	5.94853
1.02116	6.00175
2.04168	6.25008
3.04161	6.34764
4.00531	6.42746
5.02991	6.49841
7.14608	6.61371
9.14608	6.67579
10.9534	6.74674
12.0439	6.77335
13.4968	6.79996
