Adsorption isotherm of Methane on Zeolite 5A
DOI: 10.1007/s10450-020-00206-7
Article source: Figure 3c
Adsorbate Methane: InChIKey VNWKTOKETHGBQD-UHFFFAOYSA-N
Kind: experiment
Isotherm type: excess
Temperature: 343 K
Tabular data in the source: 0
pressure (bar)	uptake (mmol/g)
1.00907	0.403292
4.99907	1.25926
10.0151	1.88477
20.0037	2.52675
30.0238	2.88066
40.1958	3.06173
50.066	3.22634
59.7884	3.29218
69.9111	3.36626
80.0444	3.39095
