Adsorption isotherm of Nitrogen on ZSM-5(295) Zeolite
DOI: 10.1007/s10450-020-00206-7
Article source: Figure S4b
Adsorbate Nitrogen: InChIKey IJGRMHOSHXDMSA-UHFFFAOYSA-N
Kind: experiment
Isotherm type: excess
Temperature: 293 K
Tabular data in the source: 0
pressure (bar)	uptake (mmol/g)
0.45236	0.11652
0.72378	0.17941
1.01988	0.2238
1.52981	0.31813
2.03153	0.40321
2.52502	0.47534
3.01851	0.56042
3.52022	0.61591
4.00548	0.67324
4.51542	0.73798
5.01714	0.78422
6.01234	0.89334
7.02399	0.96917
8.01097	1.04871
9.00617	1.13009
9.99315	1.17633
