Adsorption isotherm of Carbon Dioxide on Zeolite 13X
DOI: 10.1007/s10450-020-00206-7
Article source: Figure SI1a
Adsorbate Carbon Dioxide: InChIKey CURLTUGMZLYLDI-UHFFFAOYSA-N
Kind: experiment
Isotherm type: excess
Temperature: 363 K
Tabular data in the source: 0
pressure (bar)	uptake (mmol/g)
4.8e-05	0.015
5.6e-05	0.045
7.7e-05	0.03
0.00011	0.06
0.000234	0.045
0.000444	0.075
0.000603	0.075
0.000843	0.075
0.001083	0.105
0.003169	0.135
0.005308	0.21
0.006918	0.255
0.008768	0.27
0.01008	0.33
0.021402	0.585
0.029907	0.69
0.040081	0.84
0.049405	0.93
0.058403	1.05
0.068084	1.14
0.077187	1.23
0.089981	1.29
0.103444	1.395
0.115651	1.485
0.125742	1.605
0.146585	1.68
0.173282	1.8
0.191048	1.89
0.210634	1.965
0.232229	2.04
0.256038	2.13
0.286251	2.28
0.347955	2.43
0.378316	2.535
0.441025	2.7
0.493068	2.79
0.551251	2.925
0.6163	3.015
0.679485	3.165
0.749148	3.27
0.814516	3.39
0.861234	3.465
0.976381	3.6
1.5043	4.08
1.98812	4.47
2.4506	4.635
3.47262	4.95
3.8824	5.19
4.85273	5.325
6.87654	5.595
8.47619	5.835
10.5946	5.94
12.1798	6.06
14.3981	6.15
16.5523	6.24
20.1202	6.345
