Adsorption isotherm of Methane on Zeolite 5A
DOI: 10.1007/s10450-020-00206-7
Article source: Figure 3c
Adsorbate Methane: InChIKey VNWKTOKETHGBQD-UHFFFAOYSA-N
Kind: experiment
Isotherm type: excess
Temperature: 313 K
Tabular data in the source: 0
pressure (bar)	uptake (mmol/g)
1	0.73251
4.96909	2.00823
10.0151	2.69959
20.064	3.35803
30.0238	3.64609
40.1958	3.80247
50.066	3.92593
59.7884	3.98354
70.1217	4
80.2856	4.01646
