Adsorption isotherm of Methane on ZSM-5(58) Zeolite
DOI: 10.1007/s10450-020-00206-7
Article source: Figure 7c
Adsorbate Methane: InChIKey VNWKTOKETHGBQD-UHFFFAOYSA-N
Kind: experiment
Isotherm type: excess
Temperature: 313 K
Tabular data in the source: 0
pressure (bar)	uptake (mmol/g)
3.0172	1.15854
5.0076	1.46342
10.0285	1.87805
15.0232	2.06098
19.9697	2.18293
25.2192	2.2439
30.0863	2.29268
35.0847	2.32927
40.1064	2.36585
44.9425	2.37195
49.7917	2.39634
60.0813	2.39024
64.5122	2.39024
69.4672	2.39024
74.1669	2.35976
79.6366	2.35976
