Adsorption isotherm of Nitrogen on ZSM-5(58) Zeolite
DOI: 10.1007/s10450-020-00206-7
Article source: Figure 7b
Adsorbate Nitrogen: InChIKey IJGRMHOSHXDMSA-UHFFFAOYSA-N
Kind: experiment
Isotherm type: excess
Temperature: 313 K
Tabular data in the source: 0
pressure (bar)	uptake (mmol/g)
1.00815	0.186335
1.52036	0.264596
2.01676	0.324224
2.51107	0.391304
3.00703	0.439752
3.49723	0.499379
4.00181	0.547826
4.49084	0.596273
5.00699	0.64472
5.97648	0.726708
7.0074	0.804969
7.99245	0.864596
8.99831	0.931677
10.0163	0.985714
