Adsorption isotherm of Methane on Zeolite 4A
DOI: 10.1007/s10450-020-00206-7
Article source: Figure S2c
Adsorbate Methane: InChIKey VNWKTOKETHGBQD-UHFFFAOYSA-N
Kind: experiment
Isotherm type: excess
Temperature: 363 K
Tabular data in the source: 0
pressure (bar)	uptake (mmol/g)
1.05882	0.26367
3.11029	0.65638
5.09559	0.85273
10.125	1.38569
15.0882	1.64937
19.9853	1.92426
25.0809	2.02525
30.1103	2.17111
35.0735	2.23843
40.0368	2.34502
44.8676	2.36185
49.6985	2.44039
54.7941	2.44039
59.6912	2.49649
64.8529	2.48527
69.75	2.50771
74.5809	2.51332
79.8088	2.5021
