Adsorption isotherm of Carbon Dioxide on Zeolite 5A
DOI: 10.1007/s10450-020-00206-7
Article source: Figure 3a
Adsorbate Carbon Dioxide: InChIKey CURLTUGMZLYLDI-UHFFFAOYSA-N
Kind: experiment
Isotherm type: excess
Temperature: 283 K
Tabular data in the source: 0
pressure (bar)	uptake (mmol/g)
2.9e-05	0.050631
4.9e-05	0.094977
7.6e-05	0.121584
9.5e-05	0.15706
0.000207	0.263488
0.000442	0.431999
0.000634	0.547297
0.000827	0.653725
0.00102	0.751284
0.003095	1.53176
0.005167	2.07277
0.007272	2.47187
0.009219	2.72908
0.010331	2.87098
0.020655	3.51842
0.03048	3.85544
0.039383	4.03282
0.050886	4.19246
0.062109	4.29002
0.071612	4.38758
0.082568	4.4408
0.092528	4.49401
0.104678	4.5561
0.120694	4.60044
0.137845	4.67139
0.154473	4.72461
0.176424	4.76008
0.197706	4.80443
0.234537	4.86651
0.27042	4.91086
0.308848	4.96407
0.369879	5.02615
0.42244	5.0705
0.48247	5.11484
0.572352	5.17693
0.666212	5.23901
0.775464	5.28336
0.877294	5.31883
1.04073	5.35431
1.53648	5.50351
2.0283	5.53595
2.49796	5.65489
3.006	5.68733
3.61736	5.77384
3.92255	5.75221
4.50683	5.8279
5.05968	5.81709
6.23128	5.9144
7.15945	5.92522
8.13124	5.97928
9.1287	5.99009
10.2485	6.02253
11.1132	6.05497
13.529	6.0766
