Adsorption isotherm of Argon on Zeolite 13X
DOI: 10.1007/s10450-020-00206-7
Article source: Figure 2
Adsorbate Argon: InChIKey XKRFYHLGVUSROY-UHFFFAOYSA-N
Kind: experiment
Isotherm type: excess
Temperature: 87 K
Tabular data in the source: 0
pressure (bar)	uptake (cm3(STP)/g)
1e-06	0.384615
2e-06	1.15385
2e-06	0.769231
2e-06	1.53846
3e-06	1.53846
4e-06	1.92308
5e-06	2.69231
8e-06	3.84615
2.6e-05	9.61539
4.6e-05	15.7692
6.7e-05	21.5385
8.6e-05	27.6923
0.000201	58.4615
0.000415	116.538
0.000594	141.154
0.000797	154.231
0.001022	162.308
0.00311	189.615
0.005064	197.692
0.007117	202.308
0.009124	205
0.010189	206.154
0.020689	211.923
0.029892	215
0.041246	217.308
0.051912	219.231
0.06126	220
0.070325	221.154
0.079991	221.154
0.090152	221.923
0.100675	222.692
0.115571	223.846
0.133897	225
0.153709	225.385
0.166977	226.154
0.18139	226.923
0.198868	226.923
0.250291	227.692
0.298095	228.846
0.361621	229.615
0.40756	230.385
0.459334	231.154
0.503594	232.308
0.557222	233.077
0.610914	233.846
0.682217	234.615
0.754866	235.769
0.858624	236.538
0.950058	238.077
1.01325	240.769
