Adsorption isotherm of Carbon Dioxide on ZSM-5(58) Zeolite
DOI: 10.1007/s10450-020-00206-7
Article source: Figure S3a
Adsorbate Carbon Dioxide: InChIKey CURLTUGMZLYLDI-UHFFFAOYSA-N
Kind: experiment
Isotherm type: excess
Temperature: 293 K
Tabular data in the source: 0
pressure (bar)	uptake (mmol/g)
3.4e-05	0.007783
6e-05	0.016062
7.9e-05	0.016062
0.000101	0.016062
0.000286	0.020202
0.000481	0.016062
0.000617	0.016062
0.000814	0.032621
0.002996	0.05746
0.004984	0.074019
0.007122	0.090578
0.008746	0.111277
0.010362	0.131975
0.021736	0.210631
0.028922	0.264448
0.038829	0.343103
0.048537	0.417619
0.060132	0.471436
0.068136	0.512833
0.080729	0.56251
0.089856	0.603908
0.099127	0.661865
0.115369	0.73224
0.128413	0.769498
0.15351	0.848154
0.164873	0.889551
0.178664	0.947508
0.195345	1.00133
0.223332	1.051
0.248581	1.10896
0.262257	1.16278
0.274226	1.19175
0.294524	1.24557
0.342785	1.35734
0.398953	1.436
0.452056	1.50224
0.555075	1.66369
0.836893	1.96175
0.982758	2.08594
1.95405	2.46266
2.91996	2.64895
3.8853	2.78142
4.94413	2.86422
6.94059	2.99669
8.91124	3.07534
10.7484	3.12916
12.6218	3.17884
14.8217	3.21609
16.9451	3.25749
19.7217	3.29889
