Adsorption isotherm of Methane on Zeolite 4A
DOI: 10.1007/s10450-020-00206-7
Article source: Figure 7c
Adsorbate Methane: InChIKey VNWKTOKETHGBQD-UHFFFAOYSA-N
Kind: experiment
Isotherm type: excess
Temperature: 313 K
Tabular data in the source: 0
pressure (bar)	uptake (mmol/g)
1.01433	0.585366
3.00863	1.41463
4.99336	1.72561
10	2.39634
15.066	2.60976
20.0266	2.84146
25.0047	2.87805
30.1291	3.0061
35.0847	3.0122
40.1064	3.09756
44.9425	3.08537
49.7917	3.12195
55.0073	3.09146
60.0813	3.11585
64.5122	3.09146
70.0629	3.10366
75.0161	3.06707
79.8635	3.05488
