Adsorption isotherm of Methane on ZSM-5(58) Zeolite
DOI: 10.1007/s10450-020-00206-7
Article source: Figure S3c
Adsorbate Methane: InChIKey VNWKTOKETHGBQD-UHFFFAOYSA-N
Kind: experiment
Isotherm type: excess
Temperature: 273 K
Tabular data in the source: 0
pressure (bar)	uptake (mmol/g)
1.0935	1.26585
3.13788	1.97256
5.08716	2.19395
10.0792	2.49196
15.1189	2.59413
20.0634	2.69063
25.0555	2.7105
29.9525	2.74172
34.9445	2.73321
39.9366	2.75875
44.8336	2.74172
49.7306	2.7474
54.7702	2.72185
59.7623	2.69347
64.6117	2.67644
69.7464	2.66793
74.5483	2.57427
79.683	2.57711
