Adsorption isotherm of Carbon Dioxide on Zeolite 5A
DOI: 10.1007/s10450-020-00206-7
Article source: Figure 3a
Adsorbate Carbon Dioxide: InChIKey CURLTUGMZLYLDI-UHFFFAOYSA-N
Kind: experiment
Isotherm type: excess
Temperature: 313 K
Tabular data in the source: 0
pressure (bar)	uptake (mmol/g)
3.3e-05	0.050631
5.6e-05	0.086108
6.9e-05	0.077239
0.000105	0.086108
0.000232	0.148191
0.000418	0.174798
0.00064	0.236881
0.000835	0.281226
0.001039	0.316702
0.003095	0.582773
0.005022	0.795629
0.007135	0.964141
0.008875	1.10605
0.010233	1.2036
0.020655	1.8067
0.029907	2.19693
0.040138	2.49848
0.050886	2.78229
0.059796	2.96854
0.072295	3.14592
0.079492	3.27896
0.089931	3.39425
0.10174	3.51842
0.117306	3.60711
0.133975	3.72241
0.153014	3.8377
0.165084	3.91753
0.181519	3.97074
0.209291	4.0683
0.243612	4.14812
0.288996	4.25455
0.336389	4.36984
0.406703	4.45854
0.48247	4.52949
0.572352	4.596
0.653685	4.66252
0.760883	4.71574
0.88566	4.76895
1.04073	4.82217
2.06115	5.13258
3.07062	5.25675
3.54041	5.34987
4.08207	5.37205
4.48847	5.41639
5.02991	5.443
5.96696	5.52282
7.01171	5.55829
7.85753	5.60264
8.80537	5.62038
9.77435	5.64699
10.85	5.68246
12.8712	5.71794
15.2691	5.76228
