Adsorption isotherm of Hydrogen on [Al(OH) (SBPDC)]
DOI: 10.1016/j.micromeso.2015.02.023
Article source: Figure 11
Adsorbate Hydrogen: InChIKey UFHFLCQGNIYNRP-UHFFFAOYSA-N
Kind: experiment
Temperature: 77 K
Tabular data in the source: 0
pressure (bar)	uptake (mmol/g)
0.010122	0.815812
0.012253	0.552569
0.051864	2.10412
0.054001	1.87014
0.089077	2.57317
0.093514	2.92435
0.135076	3.30574
0.137318	3.59835
0.178868	3.92123
0.178915	4.15528
0.220449	4.39039
0.220495	4.62443
0.262016	4.80104
0.262057	5.00583
0.303614	5.35796
0.305763	5.18249
0.345124	5.47606
0.347347	5.6809
0.386715	6.00373
0.388852	5.76974
0.430403	6.09262
0.432615	6.23895
0.474149	6.47407
0.476309	6.3571
0.513475	6.5921
0.513492	6.67987
0.55502	6.88573
0.557181	6.76876
0.59653	7.00382
0.596548	7.09159
0.640241	7.20974
0.640258	7.2975
0.683941	7.35714
0.683964	7.47417
0.723273	7.50444
0.723302	7.65071
0.764801	7.71029
0.767001	7.79812
0.806328	7.91615
0.808506	7.88695
0.845666	8.0927
0.847844	8.0635
0.867519	8.18103
0.893721	8.18171
0.915585	8.32855
0.933059	8.35826
0.957095	8.44664
0.974569	8.47635
1.01608	8.6237
