Adsorption isotherm of Carbon Dioxide on [Al(OH) (SBPDC)]
DOI: 10.1016/j.micromeso.2015.02.023
Article source: Figure 9
Adsorbate Carbon Dioxide: InChIKey CURLTUGMZLYLDI-UHFFFAOYSA-N
Kind: experiment
Temperature: 298 K
Tabular data in the source: 0
pressure (bar)	uptake (mmol/g)
0.010605	0.114571
0.053531	0.295311
0.064262	0.247932
0.09431	0.457045
0.105042	0.390679
0.13509	0.485867
0.137237	0.590316
0.17587	0.61912
0.178016	0.714075
0.218795	0.828341
0.261721	0.952118
0.300354	0.961935
0.3025	1.06638
0.34328	1.17116
0.345426	1.06674
0.384059	1.19048
0.426985	1.28578
0.429131	1.38074
0.469911	1.47601
0.51069	1.58079
0.553616	1.67608
0.596542	1.78087
0.637321	1.81919
0.6781	1.97143
0.718881	2.00025
0.761807	2.14302
0.804731	2.22882
0.845512	2.3146
0.869121	2.36227
0.888438	2.37193
0.912046	2.44807
0.929217	2.45771
0.952826	2.53386
0.972143	2.55301
1.01292	2.6293
