Adsorption isotherm of Nitrogen on [Al(OH) (SBPDC)] (CE)
DOI: 10.1016/j.micromeso.2015.02.023
Article source: Figure 7
Adsorbate Nitrogen: InChIKey IJGRMHOSHXDMSA-UHFFFAOYSA-N
Kind: experiment
Temperature: 77 K
Tabular data in the source: 0
pressure (bar)	uptake (cm3(STP)/g)
0.025743	393.718
0.029703	391.836
0.061386	401.225
0.081188	406.388
0.10099	409.2
0.10297	411.08
0.122772	412.011
0.140594	413.884
0.150495	416.7
0.162376	415.754
0.182178	417.626
0.2	420.439
0.223762	420.428
0.249505	421.826
0.251485	423.236
0.275248	423.225
0.30099	424.623
0.30297	426.033
0.336634	427.428
0.346535	426.483
0.39604	428.811
0.40198	430.219
0.447525	430.667
0.451485	433.017
0.49703	432.055
0.50099	448.511
0.548515	433.911
0.552475	449.897
0.59604	435.77
0.60198	450.814
0.647525	437.627
0.651485	452.201
0.69505	439.955
0.70297	454.058
0.746535	442.752
0.752475	456.386
0.794059	446.022
0.80198	459.184
0.821782	448.83
0.827723	460.583
0.845545	451.64
0.853465	462.922
0.871287	455.39
0.877228	465.732
0.89505	459.14
0.906931	469.009
0.920792	463.36
0.946535	468.991
0.950495	476.983
0.974257	484.495
0.982178	484.961
0.988119	493.423
