Adsorption isotherm of Carbon Dioxide on [Al(OH) (SBPDC)]
DOI: 10.1016/j.micromeso.2015.02.023
Article source: Figure 8
Adsorbate Carbon Dioxide: InChIKey CURLTUGMZLYLDI-UHFFFAOYSA-N
Kind: experiment
Temperature: 273 K
Tabular data in the source: 0
pressure (bar)	uptake (mmol/g)
0.010028	0.164179
0.033992	0.279104
0.052024	0.525373
0.055982	0.443284
0.093949	0.689552
0.095979	0.78806
0.135905	0.935821
0.135934	1.01791
0.177883	1.24776
0.179841	1.14925
0.219797	1.3791
0.219833	1.47761
0.259781	1.69104
0.261733	1.57612
0.303688	1.82239
0.303712	1.88806
0.34562	2.00299
0.345649	2.08507
0.387551	2.18358
0.38758	2.26567
0.427494	2.3806
0.427525	2.46269
0.47142	2.56119
0.471455	2.6597
0.511386	2.82388
0.51335	2.74179
0.555288	2.93881
0.555317	3.0209
0.597219	3.1194
0.597243	3.18507
0.639143	3.28358
0.639167	3.34925
0.681075	3.46418
0.681093	3.51343
0.720995	3.59552
0.721025	3.67761
0.762932	3.79254
0.762944	3.82537
0.804851	3.9403
0.806863	3.98955
0.84877	4.10448
0.848794	4.17015
0.872742	4.23582
0.888702	4.26866
0.914661	4.38358
0.930621	4.41642
0.958573	4.53134
0.97454	4.5806
1.01447	4.72836
