Adsorption isotherm of Hydrogen on DUT-5
DOI: 10.1016/j.micromeso.2015.02.023
Article source: Figure 11
Adsorbate Hydrogen: InChIKey UFHFLCQGNIYNRP-UHFFFAOYSA-N
Kind: experiment
Temperature: 77 K
Tabular data in the source: 0
pressure (bar)	uptake (mmol/g)
0.010023	0.318469
0.012189	0.230759
0.053804	0.87545
0.056011	0.992529
0.0932	1.34455
0.097596	1.49094
0.134774	1.78446
0.136975	1.87228
0.178515	2.13665
0.178525	2.19516
0.220071	2.48879
0.222248	2.45959
0.261604	2.7239
0.261621	2.81167
0.300971	3.04672
0.303138	2.95901
0.344688	3.2819
0.346859	3.22344
0.386198	3.39999
0.388405	3.51707
0.429909	3.6059
0.429926	3.69367
0.469253	3.81171
0.469271	3.89947
0.512964	4.01762
0.515159	4.07619
0.554486	4.19423
0.554497	4.25274
0.596002	4.34158
0.598197	4.40014
0.637529	4.54743
0.639707	4.51824
0.681228	4.69484
0.681235	4.72409
0.722745	4.84219
0.764254	4.96028
0.805776	5.13688
0.849463	5.22578
0.873495	5.28491
0.888791	5.34381
0.919378	5.43237
0.932485	5.46196
0.963065	5.52126
0.976178	5.58011
1.0155	5.66889
