Adsorption isotherm of Nitrogen on [Al(OH) (SBPDC)] (MW)
DOI: 10.1016/j.micromeso.2015.02.023
Article source: Figure 7
Adsorbate Nitrogen: InChIKey IJGRMHOSHXDMSA-UHFFFAOYSA-N
Kind: experiment
Temperature: 77 K
Tabular data in the source: 0
pressure (bar)	uptake (cm3(STP)/g)
0.007921	358.46
0.009901	366.923
0.027723	373.498
0.029703	381.021
0.061386	383.357
0.083168	387.578
0.10099	390.862
0.10297	396.974
0.122772	393.673
0.140594	395.075
0.150495	401.653
0.162376	397.416
0.180198	399.288
0.2	400.69
0.20198	405.391
0.221782	402.09
0.247525	403.489
0.249505	407.72
0.275248	404.886
0.30099	406.285
0.334653	411.441
0.346535	407.674
0.39604	413.293
0.39802	409.531
0.447525	415.62
0.49505	412.777
0.50297	430.171
0.548515	414.162
0.550495	431.089
0.59604	416.021
0.6	432.006
0.647525	417.407
0.649505	432.453
0.69703	419.735
0.70297	434.309
0.746535	422.063
0.754455	435.695
0.794059	426.272
0.80198	436.143
0.807921	436.611
0.821782	428.14
0.833663	437.539
0.847525	431.89
0.859406	438.938
0.871287	434.7
0.887129	440.335
0.89703	437.979
0.914851	442.673
0.920792	441.73
0.944554	446.891
0.946535	445.95
0.974257	454.871
0.980198	460.041
0.988119	472.263
0.990099	489.66
