Adsorption isotherm of Benzene on DUT-5
DOI: 10.1016/j.micromeso.2015.02.023
Article source: Figure 5
Adsorbate Benzene: InChIKey UHOVQNZJYSORNB-UHFFFAOYSA-N
Kind: experiment
Temperature: 77 K
Tabular data in the source: 0
pressure (bar)	uptake (cm3(STP)/g)
0.000624	0.000624
0.002911	263.712
0.007484	338.504
0.009771	361.357
0.012058	369.668
0.06237	415.374
0.114969	429.917
0.119543	429.917
0.165281	436.15
0.172141	436.15
0.215593	442.382
0.22474	442.382
0.268191	448.615
0.272765	448.615
0.318503	452.77
0.371102	454.848
0.421414	461.08
0.474012	465.235
0.526611	465.235
0.576923	473.546
0.627235	475.623
0.629522	477.701
0.679834	479.778
0.714137	486.011
0.730146	483.934
0.769023	492.244
0.782744	490.166
0.826195	502.632
0.835343	500.554
0.885655	515.097
0.93368	544.183
0.935967	560.803
0.983992	648.061
