Adsorption isotherm of Carbon Dioxide on DUT-5
DOI: 10.1016/j.micromeso.2015.02.023
Article source: Figure 9
Adsorbate Carbon Dioxide: InChIKey CURLTUGMZLYLDI-UHFFFAOYSA-N
Kind: experiment
Temperature: 298 K
Tabular data in the source: 0
pressure (bar)	uptake (mmol/g)
0.008459	0.076579
0.040653	0.076848
0.0428	0.143322
0.051385	0.095926
0.079286	0.210083
0.113627	0.191384
0.147968	0.334077
0.182308	0.381833
0.216649	0.429589
0.218795	0.363151
0.25099	0.420383
0.28533	0.534594
0.287476	0.47765
0.319671	0.525388
0.321818	0.591862
0.356157	0.639618
0.388352	0.69685
0.390499	0.630412
0.424838	0.687662
0.45918	0.735418
0.493519	0.783174
0.527861	0.83093
0.530007	0.88791
0.562202	0.88818
0.598688	0.92646
0.633029	1.05017
0.667369	1.03147
0.70171	1.12669
0.73605	1.16495
0.770391	1.19372
0.804731	1.26996
0.841219	1.27976
0.873414	1.33699
0.875559	1.35599
0.890583	1.37511
0.907753	1.38475
0.922777	1.41335
0.944241	1.43252
0.959265	1.46113
0.978581	1.48028
1.01292	1.51854
