Adsorption isotherm of Nitrogen on [Al(OH) (SBPDC)] (reflux)
DOI: 10.1016/j.micromeso.2015.02.023
Article source: Figure 7
Adsorbate Nitrogen: InChIKey IJGRMHOSHXDMSA-UHFFFAOYSA-N
Kind: experiment
Temperature: 77 K
Tabular data in the source: 0
pressure (bar)	uptake (cm3(STP)/g)
0.027723	388.075
0.029703	385.723
0.063366	394.641
0.083168	398.393
0.10099	400.736
0.10297	403.557
0.122772	403.077
0.142574	404.949
0.152475	408.236
0.162376	406.82
0.180198	408.222
0.2	409.624
0.20198	411.504
0.225743	411.022
0.251485	412.421
0.275248	413.35
0.30099	414.279
0.348515	415.667
0.350495	418.017
0.39802	417.524
0.4	418.934
0.449505	418.441
0.451485	420.321
0.49901	419.828
0.50297	421.237
0.546535	420.746
0.552475	422.624
0.59802	421.192
0.60396	423.07
0.647525	422.109
0.651485	423.988
0.69901	423.496
0.70099	424.905
0.748515	423.943
0.752475	425.822
0.8	425.799
0.807921	427.206
0.823762	425.788
0.833663	427.664
0.849505	427.187
0.861386	428.592
0.875248	428.115
0.887129	429.99
0.89901	429.044
0.918812	432.327
0.924752	430.913
0.946535	434.665
0.956436	437.952
0.968317	439.827
0.976238	446.876
0.978218	444.995
0.986139	454.395
0.990099	467.56
