Adsorption isotherm of Nitrogen on [Al(OH) (SBPDC)]
DOI: 10.1016/j.micromeso.2015.02.023
Article source: Figure 5
Adsorbate Nitrogen: InChIKey IJGRMHOSHXDMSA-UHFFFAOYSA-N
Kind: experiment
Temperature: 77 K
Tabular data in the source: 0
pressure (bar)	uptake (cm3(STP)/g)
0.000624	0.000624
0.002911	276.177
0.009771	305.263
0.016632	301.108
0.06237	326.039
0.114969	334.349
0.119543	330.194
0.165281	340.582
0.169854	336.427
0.215593	344.737
0.222453	338.504
0.268191	348.892
0.270478	340.582
0.302495	350.97
0.32079	346.814
0.368815	350.97
0.373389	355.125
0.419127	357.202
0.421414	350.97
0.474012	355.125
0.478586	367.59
0.524324	380.055
0.526611	355.125
0.576923	359.28
0.627235	361.357
0.629522	384.211
0.679834	390.443
0.730146	392.521
0.782744	402.909
0.821622	409.141
0.833056	382.133
0.87422	419.529
0.883368	392.521
0.931393	438.227
0.93368	415.374
0.981705	463.158
