Adsorption isotherm of Carbon Dioxide on DUT-5
DOI: 10.1016/j.micromeso.2015.02.023
Article source: Figure 8
Adsorbate Carbon Dioxide: InChIKey CURLTUGMZLYLDI-UHFFFAOYSA-N
Kind: experiment
Temperature: 273 K
Tabular data in the source: 0
pressure (bar)	uptake (mmol/g)
0.01001	0.114925
0.023953	0.08209
0.053911	0.229851
0.05788	0.180597
0.093795	0.262687
0.095818	0.344776
0.135702	0.377612
0.137719	0.443284
0.177604	0.476119
0.177627	0.541791
0.219499	0.558209
0.219529	0.640299
0.2614	0.656716
0.26143	0.738806
0.303308	0.771642
0.303331	0.837313
0.345204	0.853731
0.345228	0.919403
0.387099	0.935821
0.387128	1.01791
0.42703	1.1
0.429001	1.03433
0.470889	1.1
0.470925	1.19851
0.512791	1.19851
0.512815	1.26418
0.552699	1.29701
0.55471	1.34627
0.594588	1.36269
0.596606	1.42836
0.636484	1.44478
0.638495	1.49403
0.680379	1.54328
0.680397	1.59254
0.722293	1.67463
0.724268	1.62537
0.764181	1.7403
0.806071	1.80597
0.806078	1.82239
0.847961	1.87164
0.847973	1.90448
0.86992	1.95373
0.889856	1.95373
0.91181	2.0194
0.929752	2.0194
0.955693	2.08507
0.973653	2.13433
1.01354	2.18358
