Adsorption isotherm of Hydrogen on IRMOF-8
DOI: 10.1021/Nl072941g
Adsorbate Hydrogen: InChIKey UFHFLCQGNIYNRP-UHFFFAOYSA-N
Temperature: 300 K
Tabular data in the source: 0
pressure (bar)	uptake (mg/g)
1.26775	11.6735
1.26775	16.0432
1.79212	18.0096
2.31649	21.1777
5.46271	24.8919
10.4442	28.8247
14.6392	31.0096
19.8829	32.539
30.3703	35.7071
40.5955	38.0012
59.9972	41.06
69.698	43.0264
89.8862	44.9928
100.636	46.6314
