Adsorption isotherm of Hydrogen on IRMOF-8
DOI: 10.1021/Nl072941g
Adsorbate Hydrogen: InChIKey UFHFLCQGNIYNRP-UHFFFAOYSA-N
Temperature: 300 K
Tabular data in the source: 0
pressure (bar)	uptake (mg/g)
1.52994	0.421351
5.98708	0.967569
9.91985	1.62303
15.4257	2.27849
20.4072	2.93396
30.1081	4.35412
40.0711	5.66505
50.5585	6.97597
59.735	7.95917
69.9602	9.16085
79.9232	10.2533
90.1484	11.455
100.111	12.3289
