Adsorption isotherm of Hydrogen on IRMOF-8
DOI: 10.1021/Nl072941g
Adsorbate Hydrogen: InChIKey UFHFLCQGNIYNRP-UHFFFAOYSA-N
Temperature: 77 K
Tabular data in the source: 0
pressure (bar)	uptake (mg/g)
0.303703	0.549963
0.403333	0.724753
0.500341	0.877694
0.599972	1.0219
0.702224	1.15736
0.801854	1.29719
0.901484	1.4108
1.00374	1.50257
