Adsorption isotherm of Hydrogen on IRMOF-8
DOI: 10.1021/Nl072941g
Adsorbate Hydrogen: InChIKey UFHFLCQGNIYNRP-UHFFFAOYSA-N
Temperature: 77 K
Tabular data in the source: 0
pressure (bar)	uptake (mg/g)
0.743381	60.5272
1.00557	68.3928
1.26775	74.1608
2.84086	83.3373
4.67615	86.7457
9.65767	92.5138
15.1635	95.3978
19.8829	97.7575
30.6325	101.166
40.3333	102.739
50.5585	102.739
59.9972	104.05
79.661	105.623
100.111	106.41
