Adsorption isotherm of Hydrogen on IRMOF-8
DOI: 10.1021/Nl072941g
Adsorbate Hydrogen: InChIKey UFHFLCQGNIYNRP-UHFFFAOYSA-N
Temperature: 77 K
Tabular data in the source: 0
pressure (bar)	uptake (mg/g)
1.52994	7.04149
1.79212	14.6449
3.62741	24.3457
4.93834	30.9003
10.182	43.223
15.9501	48.4667
20.1451	51.6129
30.8946	58.6919
39.8089	61.5759
50.0341	63.9356
70.4846	67.0818
91.1972	68.3928
100.111	69.1793
