Adsorption isotherm of Hydrogen on IRMOF-8
DOI: 10.1021/Nl072941g
Adsorbate Hydrogen: InChIKey UFHFLCQGNIYNRP-UHFFFAOYSA-N
Temperature: 77 K
Tabular data in the source: 0
pressure (bar)	uptake (mg/g)
0.274862	0.812148
0.327299	0.903913
0.371871	0.978199
0.447904	1.0787
0.52656	1.14425
0.676005	1.27534
0.804476	1.37585
1.00374	1.50257
