Adsorption isotherm of Oxazepam, Carbamazepine, Water on PBFG4
DOI: 10.1016/j.jenvman.2017.01.029
Article source: Figure 3
Adsorbate Oxazepam: InChIKey ADIMAYPTOBDMTL-UHFFFAOYSA-N
Adsorbate Carbamazepine: InChIKey FFGPTBGBLSHEPO-UHFFFAOYSA-N
Adsorbate Water: InChIKey XLYOFNOQVPJJNP-UHFFFAOYSA-N
Kind: experiment
Temperature: 298 K
Tabular data in the source: 0
pressure (bar)	Oxazepam fraction	Oxazepam uptake (mmol/kg)	Carbamazepine fraction	Carbamazepine uptake (mmol/kg)	Water fraction	Water uptake (mmol/kg)	total uptake (mmol/kg)
1.01325	0.0301	1.33	0.0044	0.67			
1.01325	2.0496	229.56	2.8603	275.22			
1.01325	2.3502	242.66	3.2096	295.23			
1.01325	2.7495	255.1	3.4454	291.63			
1.01325	3.6511	262.67	4.2489	306.23			
1.01325	5.0722	282.91	6.3668	324.65			
1.01325	5.6863	303.79	7.0087	346.9			
1.01325	8.464	314.74	10.4978	346.9			
1.01325	11.3103	325.7	13.476	366.44			
1.01325	12.5811	331.95	14.8646	374.08			
