Adsorption isotherm of Paroxetine, Water on PS800-150-HCl
DOI: 10.1016/j.jenvman.2017.01.029
Article source: Figure 3
Adsorbate Paroxetine: InChIKey AHOUBRCZNHFOSL-YOEHRIQHSA-N
Adsorbate Water: InChIKey XLYOFNOQVPJJNP-UHFFFAOYSA-N
Kind: experiment
Temperature: 298 K
Tabular data in the source: 0
pressure (bar)	Paroxetine fraction	Paroxetine uptake (mmol/kg)	Water fraction	Water uptake (mmol/kg)	total uptake (mmol/kg)
1.01325	0.011	0.147			
1.01325	0.5683	54.877			
1.01325	1.5987	57.897			
1.01325	1.9877	61.577			
1.01325	4.1582	60.15			
1.01325	4.8924	68.318			
1.01325	7.0823	61.044			
