Adsorption isotherm of Oxazepam, Water on PBFG4
DOI: 10.1016/j.jenvman.2017.01.029
Article source: Figure 3
Adsorbate Oxazepam: InChIKey ADIMAYPTOBDMTL-UHFFFAOYSA-N
Adsorbate Water: InChIKey XLYOFNOQVPJJNP-UHFFFAOYSA-N
Kind: experiment
Temperature: 298 K
Tabular data in the source: 0
pressure (bar)	Oxazepam fraction	Oxazepam uptake (mmol/kg)	Water fraction	Water uptake (mmol/kg)	total uptake (mmol/kg)
1.01325	0.0301	1.33			
1.01325	1.6079	295.24			
1.01325	2.0545	314.12			
1.01325	3.1536	324.14			
1.01325	3.9565	340.36			
1.01325	6.1116	337.76			
1.01325	6.9274	362.64			
1.01325	8.0267	390.19			
1.01325	9.8212	404.89			
