Adsorption isotherm of Paroxetine, Carbamazepine, Water on PS800-150-HCl
DOI: 10.1016/j.jenvman.2017.01.029
Article source: Figure 3
Adsorbate Paroxetine: InChIKey AHOUBRCZNHFOSL-YOEHRIQHSA-N
Adsorbate Carbamazepine: InChIKey FFGPTBGBLSHEPO-UHFFFAOYSA-N
Adsorbate Water: InChIKey XLYOFNOQVPJJNP-UHFFFAOYSA-N
Kind: experiment
Temperature: 298 K
Tabular data in the source: 0
pressure (bar)	Paroxetine fraction	Paroxetine uptake (mmol/kg)	Carbamazepine fraction	Carbamazepine uptake (mmol/kg)	Water fraction	Water uptake (mmol/kg)	total uptake (mmol/kg)
1.01325	0.011	0.147	0.0384	0.25			
1.01325	0.3497	36.928	2.6893	49.007			
1.01325	1.5744	45.318	3.9677	51.875			
1.01325	2.6591	62.315	6.7938	50.993			
1.01325	4.1253	60.775	9.3155	50.699			
1.01325	5.4735	65.635	5.1315	50.852			
1.01325	8.3344	70.28	7.8933	51.282			
