Adsorption isotherm of Oxazepam, Paroxetine, Carbamazepine, Water on PBFG4
DOI: 10.1016/j.jenvman.2017.01.029
Article source: Figure 3
Adsorbate Oxazepam: InChIKey ADIMAYPTOBDMTL-UHFFFAOYSA-N
Adsorbate Paroxetine: InChIKey AHOUBRCZNHFOSL-YOEHRIQHSA-N
Adsorbate Carbamazepine: InChIKey FFGPTBGBLSHEPO-UHFFFAOYSA-N
Adsorbate Water: InChIKey XLYOFNOQVPJJNP-UHFFFAOYSA-N
Kind: experiment
Temperature: 298 K
Tabular data in the source: 0
pressure (bar)	Oxazepam fraction	Oxazepam uptake (mmol/kg)	Paroxetine fraction	Paroxetine uptake (mmol/kg)	Carbamazepine fraction	Carbamazepine uptake (mmol/kg)	Water fraction	Water uptake (mmol/kg)	total uptake (mmol/kg)
1.01325	0.0301	1.33	0.0137	0.68	0.0044	0.67			
1.01325	2.2795	174.81	0.7432	155.24	1.7555	211.19			
1.01325	3.0259	175.95	1.5118	156.63	2.3231	217.48			
1.01325	3.4262	181.56	1.9604	161.84	2.9651	224			
1.01325	5.8062	202.59	3.626	187.18	3.3057	232.54			
1.01325	10.9392	199.66	4.9416	198.52	5.0349	262.64			
1.01325	12.6269	211.45	7.3813	213.07	6.6037	283			
1.01325	1.0998	137.78	1.0791	154.86	8.7457	342.2			
1.01325	4.538	191.69	2.8449	180.33	10.4232	413.17			
1.01325	7.6454	201.9	6.4205	205.57	11.3105	419.59			
