Adsorption isotherm of Carbamazepine, Water on PBFG4
DOI: 10.1016/j.jenvman.2017.01.029
Article source: Figure 3
Adsorbate Carbamazepine: InChIKey FFGPTBGBLSHEPO-UHFFFAOYSA-N
Adsorbate Water: InChIKey XLYOFNOQVPJJNP-UHFFFAOYSA-N
Kind: experiment
Temperature: 298 K
Tabular data in the source: 0
pressure (bar)	Carbamazepine fraction	Carbamazepine uptake (mmol/kg)	Water fraction	Water uptake (mmol/kg)	total uptake (mmol/kg)
1.01325	0.0044	0.67			
1.01325	1.2592	380.72			
1.01325	1.5504	399.26			
1.01325	2.8466	412.46			
1.01325	4.8153	426.72			
1.01325	7.1375	470.23			
1.01325	11.7125	484.5			
1.01325	12.6275	496.98			
