Adsorption isotherm of Paroxetine, Carbamazepine, Water on PBFG4
DOI: 10.1016/j.jenvman.2017.01.029
Article source: Figure 3
Adsorbate Paroxetine: InChIKey AHOUBRCZNHFOSL-YOEHRIQHSA-N
Adsorbate Carbamazepine: InChIKey FFGPTBGBLSHEPO-UHFFFAOYSA-N
Adsorbate Water: InChIKey XLYOFNOQVPJJNP-UHFFFAOYSA-N
Kind: experiment
Temperature: 298 K
Tabular data in the source: 0
pressure (bar)	Paroxetine fraction	Paroxetine uptake (mmol/kg)	Carbamazepine fraction	Carbamazepine uptake (mmol/kg)	Water fraction	Water uptake (mmol/kg)	total uptake (mmol/kg)
1.01325	0.0137	0.68	0.0044	0.67			
1.01325	0.3554	37.92	0.9687	247.24			
1.01325	1.5589	45.41	1.3924	257.71			
1.01325	2.6693	62.16	2.0691	265.07			
1.01325	4.1162	61.1	2.3057	286.3			
1.01325	5.4674	65.44	3.2575	293.66			
1.01325	8.3011	69.86	4.9245	319.14			
1.01325	0.9434	46.35	7.1913	341.21			
1.01325	3.4965	61.5	8.6218	405.47			
1.01325	6.7022	68.84	9.9807	420.76			
