Adsorption isotherm of Oxazepam, Paroxetine, Carbamazepine, Water on PS800-150-HCl
DOI: 10.1016/j.jenvman.2017.01.029
Article source: Figure 3
Adsorbate Oxazepam: InChIKey ADIMAYPTOBDMTL-UHFFFAOYSA-N
Adsorbate Paroxetine: InChIKey AHOUBRCZNHFOSL-YOEHRIQHSA-N
Adsorbate Carbamazepine: InChIKey FFGPTBGBLSHEPO-UHFFFAOYSA-N
Adsorbate Water: InChIKey XLYOFNOQVPJJNP-UHFFFAOYSA-N
Kind: experiment
Temperature: 298 K
Tabular data in the source: 0
pressure (bar)	Oxazepam fraction	Oxazepam uptake (mmol/kg)	Paroxetine fraction	Paroxetine uptake (mmol/kg)	Carbamazepine fraction	Carbamazepine uptake (mmol/kg)	Water fraction	Water uptake (mmol/kg)	total uptake (mmol/kg)
1.01325	0.0175	0.096	0.011	0.147	0.0384	0.25			
1.01325	1.9236	37.186	0.1938	25.673	1.137	30.318			
1.01325	3.933	41.177	1.1331	47.082	2.5105	31.193			
1.01325	7.7236	42.385	1.9304	55.25	4.6226	33.702			
1.01325	8.8233	46.439	2.2395	71.251	8.7152	32.127			
1.01325	11.0905	47.358	4.9826	77.145	10.6822	31.543			
1.01325	16	44.182	8.7259	83.596	12.8079	31.193			
