Adsorption isotherm of Oxazepam, Paroxetine, Water on PBFG4
DOI: 10.1016/j.jenvman.2017.01.029
Article source: Figure 3
Adsorbate Oxazepam: InChIKey ADIMAYPTOBDMTL-UHFFFAOYSA-N
Adsorbate Paroxetine: InChIKey AHOUBRCZNHFOSL-YOEHRIQHSA-N
Adsorbate Water: InChIKey XLYOFNOQVPJJNP-UHFFFAOYSA-N
Kind: experiment
Temperature: 298 K
Tabular data in the source: 0
pressure (bar)	Oxazepam fraction	Oxazepam uptake (mmol/kg)	Paroxetine fraction	Paroxetine uptake (mmol/kg)	Water fraction	Water uptake (mmol/kg)	total uptake (mmol/kg)
1.01325	0.0301	1.33	0.0137	0.68			
1.01325	1.0965	227.09	0.5796	45.6			
1.01325	1.805	252.85	1.1403	58.25			
1.01325	3.0375	303.49	2.7514	57.2			
1.01325	6.3691	333.11	4.2721	56.14			
1.01325	8.9838	362.48	5.9625	59.15			
1.01325	10.4947	338.33	7.4915	59.9			
1.01325	4.5738	322.97	9.1053	57.04			
