Adsorption isotherm of Oxazepam, Water on PS800-150-HCl
DOI: 10.1016/j.jenvman.2017.01.029
Article source: Figure 3
Adsorbate Oxazepam: InChIKey ADIMAYPTOBDMTL-UHFFFAOYSA-N
Adsorbate Water: InChIKey XLYOFNOQVPJJNP-UHFFFAOYSA-N
Kind: experiment
Temperature: 298 K
Tabular data in the source: 0
pressure (bar)	Oxazepam fraction	Oxazepam uptake (mmol/kg)	Water fraction	Water uptake (mmol/kg)	total uptake (mmol/kg)
1.01325	0.0175	0.096			
1.01325	0.8647	59.978			
1.01325	1.424	65.383			
1.01325	2.092	67.72			
1.01325	4.0742	68.279			
1.01325	7.1697	71.406			
1.01325	9.3148	69.401			
1.01325	11.0798	66.8			
