Adsorption isotherm of Oxazepam, Paroxetine, Water on PS800-150-HCl
DOI: 10.1016/j.jenvman.2017.01.029
Article source: Figure 3
Adsorbate Oxazepam: InChIKey ADIMAYPTOBDMTL-UHFFFAOYSA-N
Adsorbate Paroxetine: InChIKey AHOUBRCZNHFOSL-YOEHRIQHSA-N
Adsorbate Water: InChIKey XLYOFNOQVPJJNP-UHFFFAOYSA-N
Kind: experiment
Temperature: 298 K
Tabular data in the source: 0
pressure (bar)	Oxazepam fraction	Oxazepam uptake (mmol/kg)	Paroxetine fraction	Paroxetine uptake (mmol/kg)	Water fraction	Water uptake (mmol/kg)	total uptake (mmol/kg)
1.01325	0.0175	0.096	0.011	0.147			
1.01325	1.5259	37.322	0.559	47.68			
1.01325	1.9397	42.193	1.1283	60.611			
1.01325	3.5216	43.653	2.758	60.941			
1.01325	5.9052	43.156	4.2738	58.862			
1.01325	6.7284	43.45	5.9794	60.953			
1.01325	8.375	45.928	7.4986	62.766			
1.01325	9.7931	46.77	9.1111	60.084			
1.01325	10.6853	50.299	6.6876	61.641			
