Adsorption isotherm of Paroxetine, Water on PBFG4
DOI: 10.1016/j.jenvman.2017.01.029
Article source: Figure 3
Adsorbate Paroxetine: InChIKey AHOUBRCZNHFOSL-YOEHRIQHSA-N
Adsorbate Water: InChIKey XLYOFNOQVPJJNP-UHFFFAOYSA-N
Kind: experiment
Temperature: 298 K
Tabular data in the source: 0
pressure (bar)	Paroxetine fraction	Paroxetine uptake (mmol/kg)	Water fraction	Water uptake (mmol/kg)	total uptake (mmol/kg)
1.01325	0.0137	0.68			
1.01325	2.4032	224.35			
1.01325	3.2865	254.62			
1.01325	4.1098	260.07			
1.01325	5.2914	260.12			
1.01325	7.1705	246.45			
1.01325	7.9473	255.73			
1.01325	9.1562	263.46			
