Adsorption isotherm of Carbamazepine, Water on PS800-150-HCl
DOI: 10.1016/j.jenvman.2017.01.029
Article source: Figure 3
Adsorbate Carbamazepine: InChIKey FFGPTBGBLSHEPO-UHFFFAOYSA-N
Adsorbate Water: InChIKey XLYOFNOQVPJJNP-UHFFFAOYSA-N
Kind: experiment
Temperature: 298 K
Tabular data in the source: 0
pressure (bar)	Carbamazepine fraction	Carbamazepine uptake (mmol/kg)	Water fraction	Water uptake (mmol/kg)	total uptake (mmol/kg)
1.01325	0.0384	0.25			
1.01325	1.1696	57.132			
1.01325	1.9534	65.516			
1.01325	4.1612	69.037			
1.01325	6.9386	72.325			
1.01325	10.1597	74.132			
1.01325	13.2928	68.295			
1.01325	14.1311	71.723			
