Adsorption isotherm of Oxazepam, Carbamazepine, Water on PS800-150-HCl
DOI: 10.1016/j.jenvman.2017.01.029
Article source: Figure 3
Adsorbate Oxazepam: InChIKey ADIMAYPTOBDMTL-UHFFFAOYSA-N
Adsorbate Carbamazepine: InChIKey FFGPTBGBLSHEPO-UHFFFAOYSA-N
Adsorbate Water: InChIKey XLYOFNOQVPJJNP-UHFFFAOYSA-N
Kind: experiment
Temperature: 298 K
Tabular data in the source: 0
pressure (bar)	Oxazepam fraction	Oxazepam uptake (mmol/kg)	Carbamazepine fraction	Carbamazepine uptake (mmol/kg)	Water fraction	Water uptake (mmol/kg)	total uptake (mmol/kg)
1.01325	0.0175	0.096	0.0384	0.25			
1.01325	1.2394	41.806	2.0765	48.818			
1.01325	1.7227	46.478	3.5882	51.619			
1.01325	2.912	50.1	5.7278	53.136			
1.01325	5.0029	51.94	9.0405	50.394			
1.01325	6.5289	49.75	10.2206	49.577			
1.01325	7.577	51.906	11.4561	50.977			
1.01325	8.4296	53.558	12.4707	51.736			
1.01325	10.0697	53.199	13.9891	51.502			
1.01325	11.7315	52.062	15.4454	51.677			
