Adsorption isotherm of Nitrogen on C90H114Cd3Fe3N18O30
DOI: 10.1002/ejic.201000395
Adsorbate Nitrogen: InChIKey IJGRMHOSHXDMSA-UHFFFAOYSA-N
Temperature: 77 K
Tabular data in the source: 0
pressure (bar)	uptake (cm3(STP)/g)
0.047089	1.57706
0.101613	1.93548
0.195791	2.36559
0.245358	2.65233
0.292447	2.7957
0.342015	3.01075
0.389104	3.29749
0.438671	3.51254
0.48576	3.79928
0.582416	4.30108
0.676594	5.01792
0.770772	5.80645
0.867429	7.81362
0.916996	11.1828
0.94178	15.9857
0.954171	20.2867
