Adsorption isotherm of Nitrogen on Fe2(O2)(dobdc)
DOI: 10.1016/j.jssc.2014.03.005
Adsorbate Nitrogen: InChIKey IJGRMHOSHXDMSA-UHFFFAOYSA-N
Temperature: 77 K
Tabular data in the source: 0
pressure (bar)	uptake (cm3(STP)/g)
0.00429041	29.0415
0.0493088	130.882
0.101384	138.427
0.201435	143.522
0.301467	146.712
0.401485	148.474
0.603515	151.519
0.799531	153.144
0.999533	153.334
