Adsorption isotherm of Methane on Fe2(dobdc)
DOI: 10.1016/j.jssc.2014.03.005
Adsorbate Methane: InChIKey VNWKTOKETHGBQD-UHFFFAOYSA-N
Temperature: 298 K
Tabular data in the source: 0
pressure (bar)	uptake (cm3(STP)/g)
0.138568	4.15704
0.391338	7.61171
0.57539	10.8397
0.805065	13.6015
0.966163	16.5996
1.99999	29.9537
4.06495	47.8659
5.99063	59.3062
8.02996	68.1924
10.0228	74.7669
