Adsorption isotherm of Carbon Dioxide on Fe2(O2)(dobdc)
DOI: 10.1016/j.jssc.2014.03.005
Adsorbate Carbon Dioxide: InChIKey CURLTUGMZLYLDI-UHFFFAOYSA-N
Temperature: 298 K
Tabular data in the source: 0
pressure (bar)	uptake (cm3(STP)/g)
0.023672	4.7574
0.0704688	10.4628
0.186366	17.1074
0.372048	29.4529
0.534194	37.9935
0.765236	46.0447
0.996004	52.1912
1.45706	61.151
1.98674	67.7168
3.98867	81.145
6.01256	87.4262
7.99034	92.7637
9.9907	95.2399
