Adsorption isotherm of Nitrogen on Fe2(O2)(dobdc)
DOI: 10.1016/j.jssc.2014.03.005
Adsorbate Nitrogen: InChIKey IJGRMHOSHXDMSA-UHFFFAOYSA-N
Temperature: 298 K
Tabular data in the source: 0
pressure (bar)	uptake (cm3(STP)/g)
0.257009	0.185329
0.373832	0.278215
0.607477	0.844423
0.747664	1.41241
0.957944	2.07417
1.49533	3.30036
1.98598	4.33722
3.97196	8.48423
6.00467	11.7744
8.01402	14.8747
9.97664	17.5004
