Adsorption isotherm of Carbon Dioxide on Fe2(dobdc)
DOI: 10.1016/j.jssc.2014.03.005
Adsorbate Carbon Dioxide: InChIKey CURLTUGMZLYLDI-UHFFFAOYSA-N
Temperature: 298 K
Tabular data in the source: 0
pressure (bar)	uptake (cm3(STP)/g)
0.0480967	14.7527
0.143401	38.0679
0.58407	65.1268
0.977053	80.2901
2.01465	101.997
3.97143	121.148
6.01886	131.235
8.0199	138.472
10.0435	142.849
