Adsorption isotherm of Nitrogen on Fe2(dobdc)
DOI: 10.1016/j.jssc.2014.03.005
Adsorbate Nitrogen: InChIKey IJGRMHOSHXDMSA-UHFFFAOYSA-N
Temperature: 298 K
Tabular data in the source: 0
pressure (bar)	uptake (cm3(STP)/g)
0.0934579	1.61507
0.280374	3.6088
0.490654	5.12654
0.654206	6.16962
0.981308	7.87536
3.01402	15.4454
5.02336	20.6381
6.98598	24.31
10	27.6766
