Adsorption isotherm of Nitrogen on Fe2(dobdc)
DOI: 10.1016/j.jssc.2014.03.005
Adsorbate Nitrogen: InChIKey IJGRMHOSHXDMSA-UHFFFAOYSA-N
Temperature: 77 K
Tabular data in the source: 0
pressure (bar)	uptake (cm3(STP)/g)
0.00599997	-0.0028708
0.0254927	149.27
0.099612	161.196
0.201659	165.932
0.345706	170.648
0.547744	174.379
0.749762	176.196
0.929766	176.589
