Adsorption isotherm of Methane on Fe2(O2)(dobdc)
DOI: 10.1016/j.jssc.2014.03.005
Adsorbate Methane: InChIKey VNWKTOKETHGBQD-UHFFFAOYSA-N
Temperature: 298 K
Tabular data in the source: 0
pressure (bar)	uptake (cm3(STP)/g)
0.0229534	0.229887
0.20651	1.83751
0.39035	4.37104
0.596931	6.44003
0.780487	8.04765
1.00981	9.6521
1.51422	12.8578
1.99561	15.6022
4.01148	22.6381
6.0268	27.8222
8.01901	32.3135
10.0109	35.8789
