Adsorption isotherm of Nitrogen on In-MIL-68(spheres)
DOI: 10.1002/anie.201504873
Article source: Figure 1d
Adsorbate Nitrogen: InChIKey IJGRMHOSHXDMSA-UHFFFAOYSA-N
Kind: experiment
Temperature: 77 K
Tabular data in the source: 0
pressure (bar)	uptake (cm3(STP)/g)
2.1e-05	2.41551
0.017257	9.70297
0.034452	12.1594
0.051647	14.6159
0.098917	19.5595
0.133265	19.6414
0.171927	22.149
0.197688	22.2104
0.232058	24.7078
0.262113	24.7794
0.309361	27.3075
0.352297	27.4099
0.399525	27.5225
0.425308	29.9994
0.468263	32.5172
0.476912	39.7842
0.481268	47.041
0.489918	54.308
0.511199	32.6196
0.511406	56.7747
0.532667	32.6708
0.545775	59.2721
0.567015	32.7527
0.580143	61.7695
0.592776	32.8141
0.605926	64.2464
0.627393	64.2976
0.640024	35.3422
0.653175	66.7745
0.665828	40.2346
0.687296	40.2858
0.687565	71.6874
0.713056	40.3472
0.730541	76.6207
0.738838	42.8241
0.760616	79.1079
0.76462	45.301
0.777833	83.9799
0.794716	50.2037
0.795027	86.4363
0.816204	52.6704
0.82081	88.9132
0.842028	59.9783
0.846591	91.3901
0.863516	62.445
0.876666	93.8773
0.893613	67.3476
0.90249	101.185
0.910869	77.0506
0.928292	106.078
0.936713	86.7741
0.945362	94.0411
0.962599	101.329
0.966976	111.001
0.979939	120.694
0.984294	127.95
0.997279	140.059
1.00599	154.572
1.00607	164.234
