Adsorption isotherm of Carbon Dioxide on In-MIL-68(5:10)
DOI: 10.1002/anie.201504873
Article source: Figure 4b
Adsorbate Carbon Dioxide: InChIKey CURLTUGMZLYLDI-UHFFFAOYSA-N
Kind: experiment
Temperature: 195 K
Tabular data in the source: 0
pressure (bar)	uptake (cm3(STP)/g)
0	0
0.02232	17.8645
0.031248	31.7429
0.058032	43.6753
0.075888	53.6104
0.093744	59.5852
0.098208	91.2769
0.129456	103.218
0.147312	115.133
0.15624	85.4473
0.165169	142.89
0.174096	103.303
0.183024	166.687
0.191953	131.06
0.205345	144.947
0.209808	174.659
0.214273	172.687
0.241057	174.718
0.249984	158.894
0.267841	178.73
0.308017	180.787
0.316944	168.923
0.334801	182.818
0.343729	168.974
0.374977	169.034
0.37944	182.904
0.388369	184.901
0.401761	171.065
0.406224	184.935
0.419616	173.08
0.4464	175.111
0.455329	187.009
0.477649	175.171
0.482113	189.041
0.513361	177.219
0.517825	189.109
0.531217	179.234
0.544609	179.259
0.562465	191.174
0.575857	181.299
0.607105	191.26
0.629426	193.283
0.65621	185.413
0.678529	185.456
0.691921	193.402
0.705313	187.487
0.727633	187.53
0.754417	187.581
0.763346	193.539
0.81245	189.672
0.848162	187.76
0.892802	191.806
0.937441	193.872
0.94637	195.869
0.96869	191.951
0.999938	193.991
1.02672	194.042
