Adsorption isotherm of Carbon Dioxide on In-MIL-68(2:13)
DOI: 10.1002/anie.201504873
Article source: Figure 4b
Adsorbate Carbon Dioxide: InChIKey CURLTUGMZLYLDI-UHFFFAOYSA-N
Kind: experiment
Temperature: 195 K
Tabular data in the source: 0
pressure (bar)	uptake (cm3(STP)/g)
0.004464	0.008535
0.008928	21.7992
0.017856	31.7173
0.02232	37.6664
0.026784	45.5958
0.035712	53.5336
0.04464	65.4319
0.075888	89.254
0.098208	105.138
0.102672	146.731
0.120528	123.003
0.13392	170.553
0.147312	186.42
0.151777	146.825
0.160704	241.891
0.174096	178.551
0.183024	220.152
0.200881	257.81
0.218737	293.488
0.236592	277.68
0.241057	299.471
0.263376	303.474
0.276768	283.698
0.281233	307.468
0.31248	307.528
0.334801	311.531
0.348193	295.715
0.361585	313.563
0.370513	297.738
0.383905	315.586
0.397297	299.77
0.406224	317.608
0.424081	301.801
0.441937	317.677
0.464257	305.838
0.468721	319.708
0.495505	319.759
0.517825	309.901
0.526753	323.779
0.531217	309.927
0.544609	323.814
0.566929	323.856
0.575857	315.953
0.58925	325.879
0.607105	317.992
0.624961	325.947
0.642818	318.061
0.678529	318.129
0.687457	328.047
0.696386	320.143
0.709778	320.169
0.74549	330.138
0.754417	322.235
0.767809	330.181
0.776737	324.257
0.794593	332.212
0.803521	326.289
0.830305	326.34
0.839234	334.278
0.866018	334.329
0.87941	328.414
0.888338	334.372
0.915122	330.463
0.928514	334.449
0.932978	332.477
0.955298	332.52
0.964225	332.537
0.982082	332.571
0.999938	334.585
1.00887	332.622
1.02672	334.636
