Adsorption isotherm of Nitrogen on In-MIL-68(6.5:8.5)
DOI: 10.1002/anie.201504873
Article source: Figure 4a
Adsorbate Nitrogen: InChIKey IJGRMHOSHXDMSA-UHFFFAOYSA-N
Kind: experiment
Temperature: 77 K
Tabular data in the source: 0
pressure (bar)	uptake (cm3(STP)/g)
0	0
0.008697	75.639
0.021744	93.575
0.039138	101.569
0.086974	107.634
0.108718	107.676
0.126113	119.651
0.165251	109.777
0.186994	111.81
0.200041	121.786
0.217435	113.86
0.230482	121.846
0.247876	113.92
0.256574	121.897
0.291364	121.965
0.300061	116.012
0.334851	124.041
0.352245	116.115
0.382686	118.165
0.413127	118.224
0.43922	118.276
0.465312	128.277
0.482707	120.351
0.513148	122.401
0.534892	130.404
0.543589	122.461
0.560984	130.455
0.578378	122.529
0.600123	134.512
0.613168	122.597
0.630564	134.572
0.63926	124.639
0.669702	124.698
0.691445	136.681
0.695794	124.75
0.717538	124.792
0.726235	136.75
0.747978	128.832
0.765374	138.817
0.787117	130.899
0.817558	138.919
0.861045	139.005
0.869742	137.032
0.891486	141.054
0.895835	137.083
0.908881	143.079
0.917578	139.116
0.934973	145.12
0.94367	141.157
0.969763	145.188
0.991507	147.221
1.0002	153.208
