Adsorption isotherm of Nitrogen on In-MIL-68(7.5:7.5)
DOI: 10.1002/anie.201504873
Article source: Figure 4a
Adsorbate Nitrogen: InChIKey IJGRMHOSHXDMSA-UHFFFAOYSA-N
Kind: experiment
Temperature: 77 K
Tabular data in the source: 0
pressure (bar)	uptake (cm3(STP)/g)
0	0
0.004349	9.95879
0.008697	11.9574
0.026092	17.9617
0.052185	18.0129
0.073928	18.0556
0.095672	20.0884
0.126113	22.1382
0.143508	24.1624
0.147856	26.161
0.1696	24.2137
0.195692	28.245
0.200041	24.2735
0.226133	24.3247
0.23918	28.3305
0.252225	24.376
0.260923	28.3732
0.273969	24.4187
0.291364	28.4329
0.321805	30.4828
0.326153	24.5212
0.3392	30.5169
0.352245	26.5625
0.391384	26.6393
0.408778	26.6735
0.430523	30.6963
0.43922	28.7233
0.456615	30.7475
0.469661	30.7732
0.491405	30.8159
0.513148	32.8486
0.521845	34.8558
0.539241	32.8999
0.560984	38.9127
0.578378	32.9767
0.587076	40.954
0.600123	33.0195
0.608819	40.9967
0.630564	33.0792
0.643609	33.1049
0.647958	43.0637
0.656656	35.1205
0.669702	49.0765
0.678399	35.1632
0.700143	37.196
0.70884	63.0837
0.726235	41.2273
0.734933	67.1151
0.747978	43.2601
0.756676	67.1578
0.769722	47.2829
0.778419	69.1905
0.791466	49.3157
0.800164	51.3228
0.813209	55.3285
0.817558	69.2674
0.826256	57.3442
0.830604	69.293
0.847999	69.3272
0.861045	69.3528
0.865394	63.3912
0.87844	69.387
0.887137	65.424
0.904532	69.4382
0.908881	67.4567
0.930625	71.4795
0.94367	69.5151
0.961066	71.5393
0.987158	75.5706
1.0089	79.5934
