Adsorption isotherm of Nitrogen on In-MIL-68(5:10)
DOI: 10.1002/anie.201504873
Article source: Figure 4a
Adsorbate Nitrogen: InChIKey IJGRMHOSHXDMSA-UHFFFAOYSA-N
Kind: experiment
Temperature: 77 K
Tabular data in the source: 0
pressure (bar)	uptake (cm3(STP)/g)
0	0
0.004349	135.332
0.008697	155.241
0.013046	197.041
0.039138	205.052
0.043487	209.041
0.056533	213.046
0.078277	215.079
0.104369	227.071
0.121764	217.155
0.130461	227.122
0.143508	229.138
0.160902	221.212
0.178298	229.206
0.191343	221.271
0.208739	229.266
0.230482	231.298
0.247876	223.372
0.260923	233.348
0.287015	233.4
0.300061	225.465
0.30441	233.434
0.330502	233.485
0.356594	233.536
0.37399	233.57
0.395733	229.633
0.404431	235.62
0.421825	229.684
0.430523	233.681
0.43922	227.728
0.452266	235.714
0.465312	231.76
0.478358	237.755
0.487056	229.812
0.504451	237.807
0.517497	231.862
0.530543	239.848
0.539241	231.905
0.556635	239.899
0.569682	233.955
0.582727	241.941
0.591425	233.997
0.608819	241.992
0.617517	236.039
0.630564	242.034
0.643609	236.09
0.656656	242.086
0.665353	236.133
0.682748	244.127
0.695794	238.182
0.70884	244.178
0.721886	238.234
0.739281	244.238
0.747978	238.285
0.761025	244.281
0.769722	238.328
0.782768	244.323
0.795815	238.379
0.80886	244.375
0.817558	240.412
0.834952	246.416
0.84365	242.453
0.861045	248.457
0.882789	248.5
0.917578	248.568
0.934973	250.593
0.961066	250.644
0.987158	252.685
1.0089	256.708
