Adsorption isotherm of Carbon Dioxide on In-MIL-68(3.5:11.5)
DOI: 10.1002/anie.201504873
Article source: Figure 4a
Adsorbate Carbon Dioxide: InChIKey CURLTUGMZLYLDI-UHFFFAOYSA-N
Kind: experiment
Temperature: 195 K
Tabular data in the source: 0
pressure (bar)	uptake (cm3(STP)/g)
0	0
0.008928	15.8587
0.013392	25.7682
0.02232	31.7258
0.040176	39.6808
0.053568	47.6272
0.075888	61.5312
0.098208	73.4551
0.129456	83.4158
0.147312	132.955
0.15624	99.3086
0.160704	162.684
0.169632	119.136
0.174096	136.967
0.187488	182.537
0.209808	158.817
0.214273	188.529
0.232129	190.543
0.254449	192.566
0.258912	168.812
0.276768	196.569
0.316944	170.903
0.330337	172.909
0.339264	198.668
0.352656	174.932
0.357121	200.683
0.370513	176.946
0.374977	200.717
0.392832	178.969
0.397297	200.76
0.415153	200.794
0.419616	181
0.441937	202.825
0.4464	183.032
0.464257	202.868
0.486577	206.871
0.491041	185.097
0.513361	187.12
0.522289	206.939
0.540145	206.973
0.562465	207.016
0.575857	189.22
0.593713	207.076
0.616034	191.277
0.624961	207.136
0.638353	193.3
0.642818	207.17
0.65621	193.334
0.682994	207.247
0.691921	195.382
0.696386	207.272
0.727633	207.332
0.732098	197.439
0.749954	209.355
0.758882	199.471
0.772274	209.397
0.799058	209.449
0.81245	201.553
0.834769	209.517
0.852626	201.63
0.870481	205.625
0.883873	207.631
0.892802	201.707
0.919586	201.758
0.932978	209.705
0.94637	203.79
0.959762	207.776
0.96869	203.832
0.982082	207.818
0.995474	205.864
1.00887	207.87
1.02672	207.904
