Adsorption isotherm of Nitrogen on In-MIL-68(10:5)
DOI: 10.1002/anie.201504873
Article source: Figure 4a
Adsorbate Nitrogen: InChIKey IJGRMHOSHXDMSA-UHFFFAOYSA-N
Kind: experiment
Temperature: 77 K
Tabular data in the source: 0
pressure (bar)	uptake (cm3(STP)/g)
0	0
0.069579	0.136656
0.113067	2.21212
0.130461	2.24628
0.160902	2.30607
0.208739	2.40002
0.234831	2.45126
0.256574	2.49397
0.273969	2.52813
0.295712	2.57084
0.321805	2.62208
0.37399	2.72457
0.400082	2.77582
0.421825	2.81853
0.447917	4.85982
0.474009	4.91107
0.513148	4.98794
0.526194	5.01356
0.547938	5.05626
0.569682	5.09897
0.595774	5.15021
0.617517	5.19292
0.634912	5.22708
0.656656	5.26979
0.678399	5.31249
0.695794	5.34666
0.717538	5.38936
0.739281	5.43207
0.765374	5.48331
0.782768	5.51748
0.800164	5.55164
0.817558	5.5858
0.834952	7.61002
0.856697	7.65272
0.87844	9.68548
0.904532	9.73672
0.926276	11.7695
0.948019	11.8122
0.956717	11.8293
0.974111	13.8535
0.991507	15.8777
1.00455	17.8934
