Adsorption isotherm of Nitrogen on In-MIL-68(hexagonal rods)
DOI: 10.1002/anie.201504873
Article source: Figure 1d
Adsorbate Nitrogen: InChIKey IJGRMHOSHXDMSA-UHFFFAOYSA-N
Kind: experiment
Temperature: 77 K
Tabular data in the source: 0
pressure (bar)	uptake (cm3(STP)/g)
0	99.0256
2.1e-05	2.41551
0.000436	50.7257
0.001099	128.022
0.001369	159.424
0.001618	188.41
0.001867	217.396
0.001929	224.642
0.006388	243.977
0.006492	256.054
0.010931	272.973
0.011014	282.635
0.019871	314.057
0.028706	343.064
0.03748	364.824
0.046129	372.091
0.059072	379.368
0.080581	384.25
0.093711	413.267
0.106384	389.142
0.123786	415.754
0.136459	391.63
0.153862	418.241
0.162242	394.107
0.179623	418.303
0.188023	396.583
0.205404	420.78
0.213805	399.06
0.23548	423.267
0.243901	403.963
0.265556	425.754
0.273955	404.035
0.304197	425.846
0.329793	406.583
0.329958	425.907
0.35574	428.384
0.364161	409.081
0.385649	411.547
0.385795	428.456
0.415724	414.035
0.428751	430.974
0.441486	414.096
0.454512	431.035
0.462954	414.147
0.484567	431.107
0.493049	419.05
0.50174	431.148
0.514517	419.101
0.527501	431.209
0.544592	421.588
0.553304	436.102
0.56606	421.639
0.583234	421.68
0.583358	436.173
0.613413	436.245
0.621918	426.603
0.634881	436.296
0.643385	426.655
0.664935	436.368
0.686424	438.834
0.694928	429.193
0.712185	438.896
0.725004	431.68
0.737946	438.957
0.74645	429.316
0.763728	441.434
0.785196	441.485
0.798035	436.685
0.81525	441.557
0.82809	436.757
0.841032	444.034
0.849557	436.808
0.866793	444.095
0.87536	441.7
0.892575	446.572
0.901121	441.762
0.918357	449.049
0.926903	444.239
0.948391	446.705
0.974193	451.598
0.999975	454.075
1.00863	461.342
1.013	471.014
