Adsorption isotherm of Nitrogen on In-MIL-68(2:13)
DOI: 10.1002/anie.201504873
Article source: Figure 4a
Adsorbate Nitrogen: InChIKey IJGRMHOSHXDMSA-UHFFFAOYSA-N
Kind: experiment
Temperature: 77 K
Tabular data in the source: 0
pressure (bar)	uptake (cm3(STP)/g)
0	-0.008499
0	23.7624
0.004349	134.662
0.008697	205.958
0.013046	235.669
0.017395	261.42
0.026092	271.338
0.03479	289.177
0.039138	297.106
0.056533	303.081
0.078277	307.084
0.095672	330.88
0.104369	311.095
0.126113	332.92
0.13481	313.135
0.160902	313.186
0.186994	335.019
0.200041	335.044
0.213086	319.228
0.230482	337.084
0.243528	321.268
0.256574	337.135
0.287015	339.175
0.300061	325.339
0.326153	339.251
0.352245	323.461
0.37399	341.325
0.387035	325.509
0.408778	327.532
0.426174	341.427
0.434872	327.583
0.456615	343.467
0.460964	329.614
0.478358	343.509
0.482707	329.656
0.504451	343.56
0.513148	331.696
0.526194	343.603
0.539241	329.767
0.552286	345.634
0.565333	331.798
0.578378	345.685
0.591425	331.849
0.604472	345.736
0.613168	333.872
0.634912	345.795
0.63926	333.923
0.661005	333.965
0.678399	347.86
0.687097	335.996
0.70884	347.92
0.717538	338.036
0.730584	347.962
0.739281	338.078
0.756676	348.013
0.765374	338.129
0.787117	348.073
0.791466	340.161
0.80886	348.115
0.821907	342.2
0.852348	344.24
0.874091	344.282
0.887137	352.229
0.891486	346.297
0.921927	346.356
0.930625	352.314
0.956717	354.345
0.961066	350.393
0.987158	354.404
1.00455	356.419
