Adsorption isotherm of Nitrogen on In-MIL-68(3.5:11.5)
DOI: 10.1002/anie.201504873
Article source: Figure 4a
Adsorbate Nitrogen: InChIKey IJGRMHOSHXDMSA-UHFFFAOYSA-N
Kind: experiment
Temperature: 77 K
Tabular data in the source: 0
pressure (bar)	uptake (cm3(STP)/g)
0	-0.008499
0.004349	164.365
0.013046	196.065
0.017395	213.895
0.03479	225.811
0.047836	231.777
0.056533	235.754
0.086974	241.754
0.108718	241.797
0.117415	249.734
0.13481	245.808
0.143508	249.785
0.152205	245.842
0.173949	245.885
0.178298	249.853
0.195692	247.907
0.213086	253.882
0.217435	249.93
0.230482	253.916
0.234831	249.964
0.265272	255.964
0.295712	258.004
0.334851	258.08
0.3392	254.128
0.356594	254.162
0.382686	258.174
0.395733	254.239
0.404431	260.196
0.408778	254.264
0.430523	254.307
0.443568	254.332
0.456615	254.358
0.460964	264.267
0.478358	264.301
0.487056	258.378
0.504451	268.313
0.513148	258.429
0.530543	268.364
0.543589	258.488
0.552286	270.386
0.565333	260.511
0.587076	272.434
0.608819	272.477
0.613168	262.584
0.634912	272.528
0.63926	262.635
0.661005	272.579
0.665353	262.686
0.687097	272.63
0.695794	262.746
0.70884	274.653
0.717538	264.769
0.734933	272.723
0.74363	266.8
0.761025	274.755
0.765374	266.842
0.787117	274.806
0.795815	266.902
0.80886	274.848
0.817558	268.924
0.830604	274.891
0.84365	270.956
0.861045	274.95
0.882789	276.973
0.917578	277.041
0.934973	279.055
0.961066	281.086
0.987158	283.117
1.01325	283.168
