Adsorption isotherm of Carbon Dioxide on In-MIL-68(6.5:8.5)
DOI: 10.1002/anie.201504873
Article source: Figure 4b
Adsorbate Carbon Dioxide: InChIKey CURLTUGMZLYLDI-UHFFFAOYSA-N
Kind: experiment
Temperature: 195 K
Tabular data in the source: 0
pressure (bar)	uptake (cm3(STP)/g)
0	0
0.026784	15.8928
0.040176	21.859
0.071424	27.8593
0.102672	35.8399
0.107136	51.69
0.120528	53.6958
0.13392	57.6818
0.151777	45.8348
0.15624	77.5265
0.160704	53.7726
0.169632	63.6907
0.183024	71.6371
0.196416	85.5241
0.214273	87.5384
0.2232	79.6347
0.232129	89.5527
0.263376	89.6125
0.285696	81.7344
0.308017	93.6582
0.334801	93.7095
0.339264	85.7972
0.366048	85.8484
0.383905	87.8628
0.388369	93.8119
0.419616	95.8518
0.433008	87.9566
0.450865	89.971
0.464257	95.9372
0.491041	92.028
0.495505	97.9771
0.531217	92.1048
0.535681	98.0539
0.562465	94.1448
0.575857	100.111
0.602642	96.2018
0.616034	102.168
0.629426	96.253
0.647281	102.228
0.65621	96.3042
0.687457	100.324
0.691921	102.313
0.72317	100.393
0.74549	102.416
0.758882	100.461
0.767809	100.478
0.790129	102.501
0.81245	100.563
0.830305	102.578
0.857089	100.649
0.87941	102.672
0.892802	102.697
0.915122	102.74
0.937441	102.783
0.959762	102.825
0.96869	102.842
0.995474	102.893
1.02226	102.945
