Adsorption isotherm of Nitrogen on C14H14FeN2O8
DOI: 10.1007/s11243-012-9610-7
Adsorbate Nitrogen: InChIKey IJGRMHOSHXDMSA-UHFFFAOYSA-N
Temperature: 77 K
Tabular data in the source: 0
pressure (bar)	uptake (cm3(STP)/g)
0	0.523256
0.0290885	1.13622
0.0484809	1.2251
0.0654492	1.5754
0.0872656	1.57728
0.109082	1.57916
0.143019	1.7565
0.225436	1.93801
0.276341	2.11681
0.322398	2.20798
0.375727	2.38699
0.424208	2.39116
0.477536	2.57017
0.528441	2.66176
0.572074	2.75273
0.622979	3.01874
0.67146	3.19733
0.732061	3.55138
0.77327	3.81655
0.826599	4.08277
0.877504	4.61041
0.92356	5.13763
0.976889	5.9271
0.996282	6.62645
1.01083	8.19747
