Adsorption isotherm of Carbon Dioxide on C14H14FeN2O8
DOI: 10.1007/s11243-012-9610-7
Adsorbate Carbon Dioxide: InChIKey CURLTUGMZLYLDI-UHFFFAOYSA-N
Temperature: 195 K
Tabular data in the source: 0
pressure (bar)	uptake (cm3(STP)/g)
0.00484809	1.65739
0.00727213	2.79132
0.0242404	5.93232
0.0290885	7.5025
0.0363606	8.46243
0.0436328	10.12
0.0509049	11.3416
0.0678732	13
0.0702972	13.6979
0.0921136	15.0951
0.104234	16.0555
0.123626	17.2781
0.133322	17.9766
0.143019	18.5007
0.155139	18.8506
0.184227	20.074
0.20362	20.7733
0.261797	22.0865
0.300581	22.9619
0.351486	23.664
0.402391	24.366
0.45572	24.9811
0.509049	25.3345
0.555106	25.6001
0.608435	26.0407
0.654492	26.3063
0.710245	26.66
0.76115	26.7516
0.80963	26.9301
0.865383	27.2838
0.889624	27.5475
0.918712	27.4628
0.942953	27.6393
0.972041	27.6418
0.998706	27.9057
