Adsorption isotherm of Ethane on BPL Carbon
DOI: 10.1021/la951510n
Article source: Figure 4
Adsorbate Ethane: InChIKey OTMSDBZUPAUEDD-UHFFFAOYSA-N
Kind: experiment
Temperature: 308 K
Tabular data in the source: 0
pressure (bar)	uptake (mmol/g)
0.0525	0.887
0.111	1.14
0.226	1.74
0.343	2.06
0.401	2.33
0.459	2.6
0.637	2.82
0.396	2.93
0.696	3.03
0.874	3.26
1.35	3.84
3.27	4.69
7.71	5.6
10.9	5.89
14.6	6.1
18.6	6.22
22.6	6.28
26.3	6.3
30	6.27
