Adsorption isotherm of Methane on BPL Carbon
DOI: 10.1021/la951510n
Article source: Figure 3
Adsorbate Methane: InChIKey VNWKTOKETHGBQD-UHFFFAOYSA-N
Kind: experiment
Temperature: 308 K
Tabular data in the source: 0
pressure (bar)	uptake (mmol/g)
0.18	0.247
0.42	0.429
1.2	0.791
1.98	1.17
4.8	1.96
8.95	2.72
14.9	3.4
20.3	3.81
30	4.3
32.1	4.37
