Adsorption isotherm of Ethane, Methane on BPL Carbon
DOI: 10.1021/la951510n
Article source: Figure 11
Adsorbate Ethane: InChIKey OTMSDBZUPAUEDD-UHFFFAOYSA-N
Adsorbate Methane: InChIKey VNWKTOKETHGBQD-UHFFFAOYSA-N
Kind: experiment
Temperature: 308 K
Tabular data in the source: 0
pressure (bar)	Ethane fraction	Ethane uptake (mmol/g)	Methane fraction	Methane uptake (mmol/g)	total uptake (mmol/g)
0.26	0.25	0.757	0.75	0.124	
0.864	0.25	1.33	0.75	0.317	
1.75	0.25	1.83	0.75	0.509	
3.43	0.25	2.42	0.75	0.798	
10.1	0.25	3.37	0.75	1.56	
16.8	0.25	3.8	0.75	2.19	
