Adsorption isotherm of Methanol on nNiCo
DOI: 10.1021/acsami.5b04109
Article source: Figure 3a
Adsorbate Methanol: InChIKey OKKJLVBELUTLKV-UHFFFAOYSA-N
Kind: experiment
Temperature: 453 K
Tabular data in the source: 0
pressure (bar)	uptake (wt%)
0	0
0.039604	4.273
0.307238	19.5846
0.817429	21.0089
1.60402	21.9881
2.43625	22.6113
3.13008	23.3234
4.83975	23.9466
6.54958	24.6588
9.7379	25.816
11.3092	26.5282
14.5894	27.4184
20.92	29.822
