Adsorption isotherm of Methanol on bNiCo
DOI: 10.1021/acsami.5b04109
Article source: Figure 3a
Adsorbate Methanol: InChIKey OKKJLVBELUTLKV-UHFFFAOYSA-N
Kind: experiment
Temperature: 453 K
Tabular data in the source: 0
pressure (bar)	uptake (wt%)
0.045085	0.712166
0.339305	10.4154
0.809345	15.7567
1.64568	19.0504
2.43379	21.0089
3.31383	22.7003
6.45818	25.2819
9.64649	26.4392
11.3104	27.3294
14.5442	28.0415
20.9185	28.8427
