Adsorption isotherm of Nitrogen on MIL-100(Cr)
DOI: 10.1007/s11164-014-1850-z
Article source: Figure 4
Adsorbate Nitrogen: InChIKey IJGRMHOSHXDMSA-UHFFFAOYSA-N
Kind: experiment
Temperature: 77 K
Tabular data in the source: 0
pressure (bar)	uptake (cm3(STP)/g)
0.007411	128.832
0.007434	119.216
0.009175	198.059
0.009202	186.521
0.009267	159.598
0.0093	146.136
0.009314	140.367
0.009388	109.597
0.009411	99.9819
0.009434	90.3665
0.009578	30.7508
0.009583	28.8277
0.009611	17.2892
0.011012	236.517
0.011036	226.902
0.011063	215.363
0.011073	211.517
0.011156	176.902
0.011388	80.7473
0.011416	69.2088
0.011439	59.5934
0.011481	42.2856
0.011532	21.1317
0.01156	9.59315
0.011569	5.74698
0.012887	259.591
0.012915	248.052
0.014794	269.202
0.016669	292.276
0.018604	290.349
0.018614	286.503
0.018641	274.964
0.022442	299.957
0.024363	303.799
0.039691	351.847
0.070436	411.403
0.089685	434.443
0.108953	449.79
0.126277	470.911
0.155151	505.471
0.166748	499.679
0.172535	501.591
0.201474	509.228
0.207247	516.909
0.213048	513.052
0.257422	524.505
0.261297	518.728
0.30567	530.181
0.311467	528.247
0.353919	535.858
0.365512	531.989
0.404117	533.838
0.406029	541.527
0.454283	545.28
0.456227	539.507
0.50255	543.264
0.504467	549.03
0.552715	554.706
0.554665	547.01
0.604839	554.606
0.604853	548.837
0.651181	550.671
0.653093	558.359
0.69943	556.347
0.703272	564.032
0.741892	560.112
0.743808	565.877
0.770845	561.979
0.772752	571.591
0.801705	573.458
0.803654	565.762
0.821001	577.267
0.822955	567.648
0.84032	571.461
