Adsorption isotherm of Nitrogen on MIL-100(Cr)
DOI: 10.1007/s11164-014-1850-z
Article source: Figure 4
Adsorbate Nitrogen: InChIKey IJGRMHOSHXDMSA-UHFFFAOYSA-N
Kind: experiment
Temperature: 77 K
Tabular data in the source: 0
pressure (bar)	uptake (cm3(STP)/g)
0.018939	166.834
0.044029	189.759
0.065268	205.025
0.092315	218.351
0.10778	222.128
0.132912	227.787
0.148362	237.32
0.154165	237.298
0.175428	242.972
0.194761	246.735
0.212165	248.586
0.258573	254.164
0.304977	261.66
0.314648	261.622
0.34946	263.407
0.359126	265.289
0.405553	263.192
0.411356	263.17
0.461637	266.814
0.50612	268.562
0.513862	266.613
0.554477	268.376
0.568021	266.406
0.604763	270.102
0.614439	268.146
0.655049	271.827
0.664725	269.872
0.7034	273.56
0.715015	269.679
0.742086	273.412
0.757564	271.434
0.773038	271.374
0.786573	273.241
0.802052	271.263
0.815587	273.13
0.819456	273.115
0.831066	271.152
0.838798	273.041
0.856197	276.811
0.862	276.788
0.875544	274.818
0.88715	274.774
0.904558	274.707
0.910361	274.684
0.920023	278.484
0.931629	278.44
0.943229	280.314
0.949032	280.291
0.954844	276.432
0.960628	284.084
0.966436	282.143
0.968356	287.891
0.970295	285.965
0.978027	287.854
0.981896	287.839
0.985746	295.498
0.987694	289.735
0.993488	293.55
0.995417	295.461
