Adsorption isotherm of Nitrogen on MIL-100(Cr)
DOI: 10.1007/s11164-014-1850-z
Article source: Figure 4
Adsorbate Nitrogen: InChIKey IJGRMHOSHXDMSA-UHFFFAOYSA-N
Kind: experiment
Temperature: 77 K
Tabular data in the source: 0
pressure (bar)	uptake (cm3(STP)/g)
0.007649	36.4215
0.009342	136.175
0.009412	107.398
0.0095	70.9468
0.011202	166.863
0.014992	199.463
0.018777	233.981
0.018795	226.307
0.02836	270.395
0.039905	295.291
0.059164	329.749
0.070746	339.297
0.086165	362.259
0.109315	387.111
0.132494	400.451
0.136349	406.191
0.151813	409.969
0.16533	419.51
0.18656	438.613
0.203936	451.975
0.213589	459.612
0.256124	467.123
0.265791	469.004
0.302532	472.7
0.323809	472.618
0.350879	476.352
0.379893	476.24
0.405038	476.144
0.45532	479.788
0.505615	477.676
0.553962	481.328
0.602314	483.061
0.652604	482.868
0.700961	482.682
0.751251	482.489
0.801533	486.133
0.82087	487.977
0.830546	486.022
0.836349	486
0.851823	485.94
0.857621	487.836
0.87503	487.77
0.884696	489.651
0.896306	487.688
0.909846	487.636
0.923386	487.584
0.94079	489.436
0.948531	487.488
0.973644	500.821
0.975583	498.895
0.985222	512.287
0.991034	508.428
0.992922	527.605
