Adsorption isotherm of Nitrogen on MIL-100(Cr)
DOI: 10.1007/s11164-014-1850-z
Article source: Figure 4
Adsorbate Nitrogen: InChIKey IJGRMHOSHXDMSA-UHFFFAOYSA-N
Kind: experiment
Temperature: 77 K
Tabular data in the source: 0
pressure (bar)	uptake (cm3(STP)/g)
0.009017	263.444
0.012827	284.591
0.01285	274.975
0.014706	305.741
0.014729	296.126
0.016613	315.353
0.020437	330.73
0.020451	324.961
0.024285	336.492
0.026215	336.488
0.028141	338.407
0.0339	351.858
0.037701	376.851
0.053126	384.513
0.068445	436.407
0.091541	465.209
0.110805	482.479
0.126203	501.68
0.153137	540.09
0.162794	538.148
0.168581	540.06
0.197529	543.851
0.209085	555.367
0.257338	559.121
0.257352	553.351
0.307517	564.793
0.307531	559.024
0.355766	570.47
0.361572	564.689
0.404024	572.3
0.404034	568.454
0.452292	570.284
0.45613	579.892
0.504392	579.799
0.504406	574.03
0.55459	577.78
0.556507	583.545
0.602835	585.379
0.602848	579.61
0.653019	589.129
0.654968	581.433
0.7013	581.344
0.703198	594.802
0.741813	592.804
0.743757	587.031
0.768854	586.983
0.770761	596.595
0.80164	600.381
0.803598	588.839
0.822876	600.341
0.824829	590.721
0.842181	600.303
0.844125	594.531
0.859541	606.039
0.859569	594.501
0.874985	606.01
0.880796	598.306
0.89042	609.826
0.902022	602.111
0.909711	615.558
0.929003	621.29
0.944419	632.799
0.957909	642.389
0.957974	615.465
0.965594	657.758
0.973274	675.051
0.975335	621.201
0.977256	625.044
0.978941	726.964
0.980834	742.345
0.988821	632.714
