Adsorption isotherm of Hydrogen on MIL-100(Cr)
DOI: 10.1007/s11164-014-1850-z
Article source: Figure 8
Adsorbate Hydrogen: InChIKey UFHFLCQGNIYNRP-UHFFFAOYSA-N
Kind: experiment
Temperature: 298 K
Tabular data in the source: 0
pressure (bar)	uptake (wt%)
0.670732	0.007427
1.52439	0.02122
2.13415	0.033952
2.80488	0.04244
3.47561	0.059416
4.20732	0.068965
5.54878	0.08382
7.0122	0.103979
8.29268	0.122016
9.69512	0.133687
11.0976	0.14748
12.5	0.160212
13.7805	0.172944
17.2561	0.197347
20.6707	0.215385
24.1463	0.233422
27.622	0.24191
31.0366	0.249337
