Adsorption isotherm of Nitrogen on MIL-100(Cr)
DOI: 10.1007/s11164-014-1850-z
Article source: Figure 4
Adsorbate Nitrogen: InChIKey IJGRMHOSHXDMSA-UHFFFAOYSA-N
Kind: experiment
Temperature: 77 K
Tabular data in the source: 0
pressure (bar)	uptake (cm3(STP)/g)
0.033942	334.55
0.058913	386.425
0.08969	432.52
0.107013	453.64
0.124346	470.915
0.145522	495.874
0.145531	492.028
0.184109	505.415
0.197617	507.312
0.222696	514.956
0.259361	520.655
0.313392	530.167
0.367424	539.678
0.404099	541.531
0.460065	549.115
0.502531	550.957
0.554651	552.78
0.604839	554.606
0.655033	554.51
0.70136	556.344
0.707147	558.255
0.747706	550.485
0.763141	554.302
0.770863	554.287
0.780506	558.114
0.799812	558.077
0.811395	558.055
0.822973	559.956
0.836487	559.93
0.861579	561.805
0.873162	561.782
0.880884	561.768
0.894393	563.665
0.894402	559.818
0.913689	567.474
0.915628	563.624
0.923341	567.455
0.93685	569.352
0.936864	563.583
0.948419	575.099
0.952303	565.476
0.958072	575.081
0.963854	578.916
0.965803	571.22
0.969632	584.674
0.97159	573.132
0.973488	586.589
0.975409	590.432
0.979298	578.886
0.981187	596.19
0.981224	580.805
0.986946	609.64
0.986969	600.025
0.990784	619.248
0.990872	582.71
0.996543	632.699
