Adsorption isotherm of Hydrogen on MIL-100(Cr)
DOI: 10.1007/s11164-014-1850-z
Article source: Figure 8
Adsorbate Hydrogen: InChIKey UFHFLCQGNIYNRP-UHFFFAOYSA-N
Kind: experiment
Temperature: 298 K
Tabular data in the source: 0
pressure (bar)	uptake (wt%)
0.060976	0.008488
0.731707	0.020159
1.46341	0.036074
2.07317	0.048806
2.86585	0.064722
3.47561	0.080637
4.14634	0.096552
5.60976	0.123077
6.89024	0.142175
8.35366	0.167639
9.69512	0.186737
11.1585	0.203714
12.439	0.224934
13.9024	0.242971
17.3171	0.285411
20.6707	0.320424
24.0854	0.356499
27.622	0.385146
30.9756	0.408488
