Adsorption isotherm of Hydrogen on [H2N(CH3)2][Zn3(TATB)2-(HCOO)]*HN(CH3)2*3DMF*3H2O
DOI: 10.1021/Ic0624773
Adsorbate Hydrogen: InChIKey UFHFLCQGNIYNRP-UHFFFAOYSA-N
Temperature: 77 K
Tabular data in the source: 0
pressure (bar)	uptake (cm3(STP)/g)
0.0195959	14.1443
0.0447907	23.5559
0.0587878	29.8345
0.0811832	36.1006
0.120375	47.0664
0.139971	51.7618
0.159567	58.0321
0.181962	62.7235
0.204358	65.84
0.24355	72.0813
0.285541	79.8934
0.324733	84.5599
0.366724	90.7971
0.405916	97.0385
0.450707	103.272
0.489898	106.363
0.615872	120.351
0.683058	126.551
0.72505	128.063
0.747445	131.18
0.783838	132.701
0.823029	135.793
0.845425	137.334
0.884617	138.851
0.929407	140.36
0.949003	143.481
0.971399	141.873
1.00499	144.973
1.03019	144.936
