Adsorption isotherm of Nitrogen on [H2N(CH3)2][Zn3(TATB)2-(HCOO)]*HN(CH3)2*3DMF*3H2O
DOI: 10.1021/Ic0624773
Adsorbate Nitrogen: InChIKey IJGRMHOSHXDMSA-UHFFFAOYSA-N
Temperature: 77 K
Tabular data in the source: 0
pressure (bar)	uptake (cm3(STP)/g)
0.00839826	314.948
0.0111977	329.117
0.0195959	338.554
0.0391919	346.399
0.0559884	354.248
0.0727849	358.948
0.086782	360.502
0.100779	363.631
0.114776	365.185
0.131573	366.735
0.153968	368.277
0.195959	369.789
0.237951	371.302
0.274343	372.823
0.319134	374.332
0.355526	375.853
0.4843	380.387
0.523492	381.904
0.551486	383.438
0.596276	383.372
0.635468	383.314
0.67746	384.827
0.736247	386.315
0.789436	389.386
0.825829	386.182
0.853823	386.141
0.893015	387.658
0.91821	389.195
0.971399	389.117
0.996593	389.08
