Adsorption isotherm of Methane on [H2N(CH3)2][Zn3(TATB)2-(HCOO)]*HN(CH3)2*3DMF*3H2O
DOI: 10.1021/Ic0624773
Adsorbate Methane: InChIKey VNWKTOKETHGBQD-UHFFFAOYSA-N
Temperature: 195 K
Tabular data in the source: 0
pressure (bar)	uptake (cm3(STP)/g)
0.0307936	4.67894
0.0503896	14.0988
0.0727849	15.6406
0.0951803	21.9067
0.137172	26.5691
0.176363	31.2357
0.190361	32.7898
0.201558	32.7733
0.24075	35.865
0.33873	48.3188
0.366724	48.2774
0.400317	52.9522
0.431111	56.0564
0.473102	59.144
0.537489	63.7733
0.557085	66.894
0.587878	68.4233
0.652265	74.6275
0.691457	74.5696
0.699855	77.7068
0.716651	77.682
0.747445	80.7862
0.758643	80.7696
0.781038	82.3114
0.814631	83.8366
0.865021	86.9118
0.887416	90.0283
0.904213	88.4287
0.932207	88.3874
0.9658	93.0622
0.990995	93.025
1.00499	93.0043
