Adsorption isotherm of Methane on MIL-53(Cr)
DOI: 10.1021/Ja8094153
Adsorbate Methane: InChIKey VNWKTOKETHGBQD-UHFFFAOYSA-N
Temperature: 303 K
Tabular data in the source: 0
pressure (bar)	uptake (molecules/unitcell)
2.99927	0.0768652
4.30111	0.0824247
5.24386	0.150508
6.31788	0.30456
7.42762	0.672289
8.19654	1.16668
9.1501	2.0889
9.98805	3.26685
10.6767	4.27335
11.3653	5.27985
12.1496	6.13729
