Adsorption isotherm of N-Butane on MIL-53(Cr)
DOI: 10.1021/Ja8094153
Adsorbate N-Butane: InChIKey IJDNQMDRQITEOD-UHFFFAOYSA-N
Temperature: 303 K
Tabular data in the source: 0
pressure (bar)	uptake (molecules/unitcell)
0.0732529	0.235188
0.976661	0.473922
1.15949	1.09392
2.38163	1.54754
3.43617	1.76556
4.52886	1.94105
4.68779	3.09475
5.55024	3.67495
6.45203	4.08449
7.09191	4.25804
7.99612	4.41137
9.84409	4.52602
