Adsorption isotherm of Carbon Dioxide on Cu-MOF
DOI: 10.1016/j.jcis.2014.05.021
Adsorbate Carbon Dioxide: InChIKey CURLTUGMZLYLDI-UHFFFAOYSA-N
Temperature: 318 K
Tabular data in the source: 0
pressure (bar)	uptake (mmol/g)
0.0119118	0.0103093
0.0149229	0.024055
0.0238747	0.0378007
0.0328366	0.0549828
0.038818	0.0687285
0.0537307	0.0893471
0.0656732	0.109966
0.0984995	0.161512
0.131285	0.199313
0.164081	0.24055
0.199826	0.274914
0.235572	0.309278
0.265357	0.33677
0.333847	0.395189
0.399326	0.439863
0.467766	0.4811
0.533224	0.5189
0.601633	0.549828
0.667072	0.580756
0.73548	0.611684
0.800888	0.632302
0.869287	0.659794
0.934684	0.676976
1.01495	0.701031
1.06551	0.721649
