Adsorption isotherm of Carbon Dioxide on Cu-MOF
DOI: 10.1016/j.jcis.2014.05.021
Adsorbate Carbon Dioxide: InChIKey CURLTUGMZLYLDI-UHFFFAOYSA-N
Temperature: 278 K
Tabular data in the source: 0
pressure (bar)	uptake (mmol/g)
0.00615495	0.0721649
0.00621619	0.0927835
0.00925794	0.116838
0.0212616	0.158076
0.0243442	0.195876
0.0333572	0.230241
0.0394202	0.271478
0.0514851	0.333333
0.0664897	0.38488
0.10244	0.487973
0.132347	0.556701
0.165193	0.61512
0.197999	0.659794
0.227825	0.701031
0.26652	0.728522
0.33203	0.783505
0.400449	0.817869
0.465908	0.85567
0.534286	0.876289
0.602674	0.900344
0.668092	0.924399
0.73351	0.948454
0.801868	0.962199
0.867265	0.979381
0.938604	0.996564
1.01589	1.01718
1.07237	1.03093
