Adsorption isotherm of Carbon Dioxide on Cu-MOF
DOI: 10.1016/j.jcis.2014.05.021
Adsorbate Carbon Dioxide: InChIKey CURLTUGMZLYLDI-UHFFFAOYSA-N
Temperature: 298 K
Tabular data in the source: 0
pressure (bar)	uptake (mmol/g)
0.00860779	0.0414201
0.0143268	0.0621302
0.0143687	0.0769231
0.0285698	0.0946746
0.0286368	0.118343
0.0399994	0.133136
0.0542676	0.174556
0.0628587	0.210059
0.0970135	0.278107
0.131135	0.33432
0.165273	0.39645
0.199352	0.43787
0.233424	0.476331
0.267495	0.514793
0.33274	0.568047
0.397968	0.615385
0.46601	0.656805
0.534035	0.692308
0.599213	0.721893
0.670035	0.745562
0.729536	0.769231
0.803179	0.789941
0.868332	0.810651
0.933477	0.828402
1.01561	0.849112
1.06941	0.857988
