Adsorption isotherm of Nitrogen on Cu-MOF
DOI: 10.1016/j.jcis.2014.05.021
Adsorbate Nitrogen: InChIKey IJGRMHOSHXDMSA-UHFFFAOYSA-N
Temperature: 298 K
Tabular data in the source: 0
pressure (bar)	uptake (mmol/g)
0.00569387	0.0118343
0.022675	0.0118343
0.0339958	0.0118343
0.0509853	0.0147929
0.0651362	0.0147929
0.0991068	0.0177515
0.127409	0.0177515
0.167065	0.0295858
0.198214	0.035503
0.229346	0.035503
0.263325	0.0414201
0.331274	0.0502959
0.399224	0.0591716
0.467174	0.0680473
0.532285	0.0739645
0.597404	0.0828402
0.665346	0.0887574
0.730457	0.0946746
0.798415	0.106509
0.866356	0.112426
0.931467	0.118343
1.01074	0.127219
1.06453	0.133136
