Adsorption isotherm of Carbon Dioxide on Cu-MOF
DOI: 10.1016/j.jcis.2014.05.021
Adsorbate Carbon Dioxide: InChIKey CURLTUGMZLYLDI-UHFFFAOYSA-N
Temperature: 298 K
Tabular data in the source: 0
pressure (bar)	uptake (mmol/g)
0.00600184	0.0206186
0.00903338	0.0412371
0.0150454	0.0652921
0.0240278	0.0893471
0.0300194	0.106529
0.0360416	0.134021
0.0510054	0.171821
0.0659692	0.209622
0.0988364	0.274914
0.134664	0.33677
0.16751	0.395189
0.200316	0.439863
0.230142	0.4811
0.268868	0.5189
0.331408	0.573883
0.399857	0.618557
0.468296	0.659794
0.536705	0.690722
0.602144	0.721649
0.667551	0.742268
0.732979	0.769759
0.801358	0.790378
0.866776	0.814433
0.932183	0.835052
1.0154	0.852234
1.06593	0.862543
