Adsorption isotherm of Nitrogen on Cu-MOF
DOI: 10.1016/j.jcis.2014.05.021
Adsorbate Nitrogen: InChIKey IJGRMHOSHXDMSA-UHFFFAOYSA-N
Temperature: 298 K
Tabular data in the source: 0
pressure (bar)	uptake (mmol/g)
0.00858949	0.00378788
0.0258295	0.00606061
0.043087	0.00681818
0.0660737	0.00984848
0.100545	0.0151515
0.135025	0.019697
0.172357	0.0265152
0.20395	0.0318182
0.23557	0.0348485
0.267172	0.0393939
0.333255	0.0484848
0.399337	0.0575758
0.468297	0.0666667
0.531528	0.0734848
0.597619	0.0818182
0.666588	0.0901515
0.732705	0.0962121
0.798805	0.103788
0.8678	0.109848
0.931031	0.116667
1.0144	0.124242
1.06611	0.131818
