Adsorption isotherm of Methane on Cu-MOF
DOI: 10.1016/j.jcis.2014.05.021
Adsorbate Methane: InChIKey VNWKTOKETHGBQD-UHFFFAOYSA-N
Temperature: 298 K
Tabular data in the source: 0
pressure (bar)	uptake (mmol/g)
0.0199118	0.035503
0.0312577	0.0443787
0.0539411	0.0591716
0.0624735	0.0739645
0.0993413	0.100592
0.130549	0.127219
0.16457	0.147929
0.198607	0.174556
0.232636	0.198225
0.266641	0.213018
0.334682	0.254438
0.402682	0.281065
0.46786	0.310651
0.5302	0.337278
0.601013	0.357988
0.669013	0.384615
0.734149	0.399408
0.799294	0.41716
0.86726	0.431953
0.929583	0.452663
1.00887	0.467456
1.06833	0.476331
