Adsorption isotherm of Nitrogen on Cu-MOF
DOI: 10.1016/j.jcis.2014.05.021
Adsorbate Nitrogen: InChIKey IJGRMHOSHXDMSA-UHFFFAOYSA-N
Temperature: 318 K
Tabular data in the source: 0
pressure (bar)	uptake (mmol/g)
0.01724	0.00227273
0.0373578	0.00454545
0.0517288	0.00606061
0.068995	0.00606061
0.0977371	0.00909091
0.132235	0.0121212
0.163846	0.0159091
0.198334	0.019697
0.235727	0.0212121
0.270225	0.0242424
0.333455	0.0310606
0.402459	0.0363636
0.468576	0.0424242
0.531842	0.0462121
0.600846	0.0515152
0.669867	0.055303
0.733107	0.0613636
0.79925	0.0651515
0.865385	0.069697
0.934397	0.0742424
1.01203	0.080303
1.06954	0.0833333
