Adsorption isotherm of Methane on Cu-MOF
DOI: 10.1016/j.jcis.2014.05.021
Adsorbate Methane: InChIKey VNWKTOKETHGBQD-UHFFFAOYSA-N
Temperature: 298 K
Tabular data in the source: 0
pressure (bar)	uptake (mmol/g)
0.00588235	0.0148607
0.0205882	0.0272446
0.0352941	0.0396285
0.0441176	0.0470588
0.0470588	0.0594427
0.0676471	0.0668731
0.1	0.0965944
0.135294	0.126316
0.167647	0.151084
0.2	0.170898
0.235294	0.193189
0.267647	0.213003
0.332353	0.250155
0.397059	0.282353
0.467647	0.309598
0.535294	0.334365
0.6	0.359133
0.667647	0.381424
0.732353	0.401238
0.8	0.418576
0.867647	0.433437
0.932353	0.450774
1.01471	0.468111
1.06471	0.478019
