Adsorption isotherm of Methane on Cu-MOF
DOI: 10.1016/j.jcis.2014.05.021
Adsorbate Methane: InChIKey VNWKTOKETHGBQD-UHFFFAOYSA-N
Temperature: 318 K
Tabular data in the source: 0
pressure (bar)	uptake (mmol/g)
0.0205286	0.00252697
0.0263419	0.0174458
0.0439092	0.0274201
0.0585608	0.0324194
0.0673263	0.0423754
0.102461	0.0623239
0.134662	0.0822664
0.166871	0.0997244
0.202006	0.119673
0.23715	0.137137
0.269369	0.15211
0.336741	0.182064
0.401188	0.209526
0.468568	0.236995
0.533025	0.261973
0.600415	0.286957
0.667814	0.309457
0.732288	0.329466
0.796762	0.349476
0.864198	0.362038
0.931606	0.382053
1.01369	0.399614
1.06646	0.412146
