Adsorption isotherm of Methane on Cu-MOF
DOI: 10.1016/j.jcis.2014.05.021
Adsorbate Methane: InChIKey VNWKTOKETHGBQD-UHFFFAOYSA-N
Temperature: 278 K
Tabular data in the source: 0
pressure (bar)	uptake (mmol/g)
0.00882353	0.0346749
0.0176471	0.0495356
0.0264706	0.0693498
0.0323529	0.0767802
0.0411765	0.0965944
0.0529412	0.123839
0.0676471	0.151084
0.0970588	0.210526
0.132353	0.260062
0.164706	0.304644
0.2	0.344272
0.232353	0.376471
0.267647	0.408669
0.332353	0.465635
0.4	0.512693
0.467647	0.552322
0.532353	0.58452
0.597059	0.619195
0.664706	0.64644
0.735294	0.673684
0.802941	0.695975
0.870588	0.718266
0.932353	0.73808
1.01471	0.762848
1.07059	0.772755
