Adsorption isotherm of Carbon Dioxide on Cu-MOF
DOI: 10.1016/j.jcis.2014.05.021
Adsorbate Carbon Dioxide: InChIKey CURLTUGMZLYLDI-UHFFFAOYSA-N
Temperature: 273 K
Tabular data in the source: 0
pressure (bar)	uptake (cm3(STP)/g)
0.00877767	2.43682
0.00889982	1.21806
0.0145386	4.96763
0.0176493	3.93614
0.0264552	6.09171
0.0412567	8.43432
0.0711235	10.4945
0.0890173	11.9931
0.109965	13.0228
0.13393	13.9584
0.169886	15.2681
0.208888	16.2026
0.235879	16.9505
0.277925	17.5098
0.307923	18.2575
0.340966	18.6299
0.374008	19.0024
0.407052	19.3748
0.452116	19.8401
0.488155	20.3061
0.521209	20.5848
0.557269	20.8632
0.587313	21.1422
0.632405	21.3262
0.653427	21.6058
0.689497	21.7905
0.761638	22.16
0.830748	22.7171
0.89689	22.8995
0.969038	23.1752
1.03816	23.6386
