Adsorption isotherm of Nitrogen on Cu-MOF
DOI: 10.1016/j.jcis.2014.05.021
Adsorbate Nitrogen: InChIKey IJGRMHOSHXDMSA-UHFFFAOYSA-N
Temperature: 278 K
Tabular data in the source: 0
pressure (bar)	uptake (mmol/g)
0.0172051	0.00530303
0.0257946	0.00909091
0.0401482	0.0121212
0.0516067	0.0166667
0.068838	0.019697
0.100388	0.0287879
0.134816	0.0378788
0.169252	0.0462121
0.200802	0.055303
0.238116	0.0636364
0.266797	0.0719697
0.332801	0.0878788
0.401692	0.10303
0.464818	0.118939
0.530848	0.132576
0.599765	0.145455
0.665786	0.159848
0.728938	0.173485
0.797864	0.185606
0.866789	0.197727
0.929941	0.211364
1.01322	0.226515
1.06491	0.236364
