Adsorption isotherm of Hydrogen on Zn4(O)(mip)3
DOI: 10.1016/j.ijhydene.2009.10.001
Adsorbate Hydrogen: InChIKey UFHFLCQGNIYNRP-UHFFFAOYSA-N
Temperature: 293 K
Tabular data in the source: 0
pressure (bar)	uptake (wt%)
10.3887	0.0190476
20.2827	0.047619
40.5654	0.0825397
59.8587	0.0888889
79.6466	0.0857143
98.9399	0.0984127
120.212	0.0984127
