Adsorption isotherm of Hydrogen on ZBDh
DOI: 10.1016/j.ijhydene.2009.10.001
Adsorbate Hydrogen: InChIKey UFHFLCQGNIYNRP-UHFFFAOYSA-N
Temperature: 293 K
Tabular data in the source: 0
pressure (bar)	uptake (wt%)
20.2827	0.11746
41.0601	0.212698
60.3534	0.288889
80.636	0.374603
100.424	0.447619
120.212	0.514286
