Adsorption isotherm of Hydrogen on CND
DOI: 10.1016/j.ijhydene.2009.10.001
Adsorbate Hydrogen: InChIKey UFHFLCQGNIYNRP-UHFFFAOYSA-N
Temperature: 293 K
Tabular data in the source: 0
pressure (bar)	uptake (wt%)
9.89399	0.015873
19.788	0.0603175
40.0707	0.126984
60.3534	0.2
79.6466	0.253968
99.9293	0.288889
119.717	0.330159
