Adsorption isotherm of Hydrogen on ZBDt
DOI: 10.1016/j.ijhydene.2009.10.001
Adsorbate Hydrogen: InChIKey UFHFLCQGNIYNRP-UHFFFAOYSA-N
Temperature: 293 K
Tabular data in the source: 0
pressure (bar)	uptake (wt%)
10.3887	0.0412698
20.2827	0.0793651
40.5654	0.165079
59.8587	0.238095
80.1413	0.304762
99.9293	0.365079
119.717	0.419048
