Adsorption isotherm of Hydrogen on ZBDh
DOI: 10.1016/j.ijhydene.2009.10.001
Adsorbate Hydrogen: InChIKey UFHFLCQGNIYNRP-UHFFFAOYSA-N
Temperature: 269 K
Tabular data in the source: 0
pressure (bar)	uptake (wt%)
20	0.18237
40.6897	0.315038
60.6897	0.4221
79.3103	0.499274
100.69	0.576508
120	0.628104
139.31	0.679701
160	0.718531
175.172	0.748712
