Adsorption isotherm of Hydrogen on ZIDs
DOI: 10.1016/j.ijhydene.2009.10.001
Adsorbate Hydrogen: InChIKey UFHFLCQGNIYNRP-UHFFFAOYSA-N
Temperature: 293 K
Tabular data in the source: 0
pressure (bar)	uptake (wt%)
10.8834	0.00952381
20.7774	0.0285714
40.5654	0.0539683
60.3534	0.0730159
80.636	0.0793651
100.424	0.0857143
119.717	0.0888889
