Adsorption isotherm of Hydrogen on IRMOF-1
DOI: 10.1016/j.ijhydene.2009.10.001
Adsorbate Hydrogen: InChIKey UFHFLCQGNIYNRP-UHFFFAOYSA-N
Temperature: 293 K
Tabular data in the source: 0
pressure (bar)	uptake (wt%)
0.989399	1.11e-16
10.3887	0.047619
19.788	0.0793651
40.5654	0.142857
60.3534	0.190476
79.6466	0.222222
99.9293	0.257143
120.212	0.298413
