Adsorption isotherm of Hydrogen on ZID
DOI: 10.1016/j.ijhydene.2009.10.001
Adsorbate Hydrogen: InChIKey UFHFLCQGNIYNRP-UHFFFAOYSA-N
Temperature: 293 K
Tabular data in the source: 0
pressure (bar)	uptake (wt%)
10.3887	0.0031746
21.7668	0.0285714
40.5654	0.0825397
59.8587	0.11746
79.6466	0.155556
99.9293	0.177778
120.707	0.2
