Adsorption isotherm of Nitrogen on CPWAT
DOI: 10.1016/j.micromeso.2014.10.018
Article source: Figure 4
Adsorbate Nitrogen: InChIKey IJGRMHOSHXDMSA-UHFFFAOYSA-N
Kind: experiment
Temperature: 77 K
Tabular data in the source: 0
pressure (bar)	uptake (cm3(STP)/g)
0	0
0.002035	122.219
0.014242	257.121
0.024416	266.628
0.032554	258.679
0.040693	269.778
0.046797	258.657
0.054935	260.231
0.061039	269.746
0.065108	263.39
0.075282	264.961
0.08342	264.949
0.091559	264.936
0.101732	271.269
0.105802	264.914
0.152597	274.364
0.203464	267.935
0.256364	277.376
0.307231	272.535
0.457793	280.235
0.506625	275.397
0.710089	281.427
0.712123	287.773
0.913552	295.394
0.917621	290.626
0.935934	293.772
0.95628	301.677
0.976626	303.232
0.992904	323.841
0.996973	365.105
1.00715	404.771
