Adsorption isotherm of Nitrogen on CPGLY
DOI: 10.1016/j.micromeso.2014.10.018
Article source: Figure 4
Adsorbate Nitrogen: InChIKey IJGRMHOSHXDMSA-UHFFFAOYSA-N
Kind: experiment
Temperature: 77 K
Tabular data in the source: 0
pressure (bar)	uptake (cm3(STP)/g)
0	205.263
0.002068	117.547
0.004136	264.919
0.014475	298.271
0.022746	307.057
0.033086	300.057
0.039289	310.594
0.045493	300.079
0.0579	303.609
0.062036	312.388
0.064104	303.62
0.070307	305.385
0.080646	307.157
0.08685	307.168
0.093054	308.933
0.101325	317.719
0.107528	308.958
0.153021	321.318
0.20265	316.14
0.254346	326.756
0.306043	323.337
0.454929	341.139
0.510761	337.726
0.711343	348.6
0.713411	359.13
0.909857	364.733
0.913993	377.021
0.936739	370.043
0.953282	387.615
0.95535	375.338
0.971893	385.893
0.97396	391.16
0.99464	403.477
0.998775	428.045
1.00498	468.407
