Adsorption isotherm of Nitrogen on CPTHF_re-activated_deg150
DOI: 10.1016/j.micromeso.2014.10.018
Article source: Figure 4
Adsorbate Nitrogen: InChIKey IJGRMHOSHXDMSA-UHFFFAOYSA-N
Kind: experiment
Temperature: 77 K
Tabular data in the source: 0
pressure (bar)	uptake (cm3(STP)/g)
0.001993	25.5319
0.002091	7.0922
0.003057	225.532
0.00314	209.929
0.003216	195.745
0.003382	164.539
0.003759	93.617
0.003842	78.0142
0.003933	60.9929
0.004038	41.1348
0.005118	238.298
0.005427	180.142
0.005586	150.355
0.005669	134.752
0.005737	121.986
0.005797	110.638
0.015701	249.645
0.0327	255.319
0.058214	260.993
0.085872	263.83
0.109272	266.667
0.136945	266.667
0.162482	268.085
0.188018	269.504
0.194404	269.504
0.21357	268.085
0.239099	270.922
0.266764	272.34
0.29018	272.34
0.29655	275.177
0.315716	273.759
0.34126	273.759
0.362547	273.759
0.392341	275.177
0.398712	278.014
0.415756	275.177
0.426377	279.433
0.441315	272.34
0.466845	275.177
0.492381	276.596
0.500858	283.688
0.511502	283.688
0.515796	276.596
0.545591	278.014
0.571135	278.014
0.596672	279.433
0.600884	287.943
0.620087	279.433
0.628548	289.362
0.647751	280.851
0.669046	279.433
0.696704	282.27
0.698772	293.617
0.720112	283.688
0.747776	285.106
0.75836	296.454
0.771177	287.943
0.79885	287.943
0.811539	303.546
0.822257	289.362
0.84565	293.617
0.856227	306.383
0.868968	312.057
0.87118	296.454
0.894565	302.128
0.907247	319.149
0.915739	323.404
0.917927	312.057
0.94123	333.333
0.945548	321.986
0.962456	344.681
0.962517	333.333
0.973061	351.773
0.983698	353.191
0.987872	368.794
0.998485	374.468
1.00267	388.652
