Adsorption isotherm of Nitrogen on DTHP673
DOI: 10.1016/j.micromeso.2014.10.018
Article source: Figure 4
Adsorbate Nitrogen: InChIKey IJGRMHOSHXDMSA-UHFFFAOYSA-N
Kind: experiment
Temperature: 77 K
Tabular data in the source: 0
pressure (bar)	uptake (cm3(STP)/g)
0	0
0.002367	100.352
0.004735	231.365
0.007102	267.606
0.00947	274.577
0.011837	277.368
0.016572	284.343
0.028409	287.147
0.052083	289.967
0.059185	291.371
0.082859	291.403
0.106533	292.829
0.134943	294.262
0.158616	295.689
0.165718	295.698
0.184658	295.724
0.210699	297.154
0.232006	298.577
0.267517	298.626
0.3196	300.091
0.345641	301.521
0.371682	298.769
0.381152	301.57
0.419031	301.622
0.430868	300.244
0.471114	300.3
0.482951	303.103
0.52083	303.155
0.530299	304.562
0.582382	304.634
0.632098	307.49
0.634465	308.887
0.681813	307.558
0.686548	310.352
0.729161	307.623
0.738631	311.817
0.781244	310.482
0.804919	318.877
0.826225	313.332
0.847532	325.904
0.868839	318.965
0.89488	321.788
0.897247	341.304
0.918554	327.396
0.93039	349.712
0.93986	334.394
0.956432	344.173
0.963535	358.12
0.973004	353.952
0.977739	363.714
0.984842	360.937
0.991943	372.096
0.996678	370.709
1.01088	388.847
