Adsorption isotherm of Nitrogen on CPTHF
DOI: 10.1016/j.micromeso.2014.10.018
Article source: Figure 4
Adsorbate Nitrogen: InChIKey IJGRMHOSHXDMSA-UHFFFAOYSA-N
Kind: experiment
Temperature: 77 K
Tabular data in the source: 0
pressure (bar)	uptake (cm3(STP)/g)
0	0
0.002098	5.67376
0.004197	11.3475
0.010568	14.1844
0.019075	15.6028
0.03184	17.0213
0.055225	22.695
0.076489	26.9504
0.104147	29.7872
0.129676	32.6241
0.157325	36.8794
0.167969	36.8794
0.180718	41.1348
0.193505	38.2979
0.204119	43.9716
0.206255	42.5532
0.229648	46.8085
0.236042	45.3901
0.259426	51.0638
0.261593	43.9716
0.280699	53.9007
0.28285	49.6454
0.306227	56.7376
0.308379	52.4823
0.331756	59.5745
0.333907	55.3191
0.3509	62.4113
0.3573	59.5745
0.382807	66.6667
0.384958	62.4113
0.410465	69.5035
0.412616	65.2482
0.433857	73.7589
0.433895	66.6667
0.461508	78.0142
0.461553	69.5035
0.482832	70.922
0.487037	80.8511
0.508308	83.6879
0.510482	75.1773
0.535943	90.7801
0.53814	78.0142
0.559343	93.617
0.561548	79.4326
0.584948	82.2695
0.586994	97.8723
0.610387	102.128
0.610485	83.6879
0.636006	87.9433
0.638036	106.383
0.661429	110.638
0.663656	92.1986
0.684921	96.4539
0.689072	116.312
0.71248	117.73
0.712571	100.709
0.733752	120.567
0.733842	103.546
0.757115	130.496
0.761493	107.801
0.784742	139.007
0.787014	112.057
0.808278	116.312
0.814498	147.518
0.835913	123.404
0.839989	157.447
0.861412	131.915
0.863345	168.794
0.886865	148.936
0.888828	180.142
0.912146	198.582
0.912326	164.539
0.937584	218.44
0.939871	188.652
0.963128	218.44
0.965114	245.39
0.98834	280.851
0.988461	258.156
0.990469	280.851
1.00515	321.986
1.0094	323.404
