Adsorption isotherm of Nitrogen on CPPET94
DOI: 10.1016/j.micromeso.2014.10.018
Article source: Figure 4
Adsorbate Nitrogen: InChIKey IJGRMHOSHXDMSA-UHFFFAOYSA-N
Kind: experiment
Temperature: 77 K
Tabular data in the source: 0
pressure (bar)	uptake (cm3(STP)/g)
0	0
0.00201	292.035
0.004021	360.619
0.006031	365.044
0.010052	373.894
0.05026	384.956
0.0965	391.593
0.14676	398.23
0.199032	402.655
0.24527	407.08
0.293521	413.717
0.345792	415.929
0.394042	424.779
0.442292	424.779
0.490542	431.416
0.540802	435.841
0.589052	440.265
0.591062	440.265
0.641323	444.69
0.689573	449.115
0.739834	453.54
0.788084	457.965
0.836334	462.389
0.886594	469.027
0.936854	477.876
0.977063	533.186
