Adsorption isotherm of Nitrogen on CPBUT
DOI: 10.1016/j.micromeso.2014.10.018
Article source: Figure 4
Adsorbate Nitrogen: InChIKey IJGRMHOSHXDMSA-UHFFFAOYSA-N
Kind: experiment
Temperature: 77 K
Tabular data in the source: 0
pressure (bar)	uptake (cm3(STP)/g)
0	0
0.000364	86.6928
0.000448	106.854
0.000491	116.935
0.000508	120.967
0.000524	124.999
0.00137	173.39
0.00143	159.277
0.001463	151.213
0.001548	131.051
0.003417	185.491
0.003451	177.426
0.003485	169.362
0.003494	167.346
0.003519	161.297
0.003536	157.265
0.003587	145.168
0.003629	135.088
0.005422	207.672
0.005456	199.608
0.009609	209.697
0.011682	215.749
0.053528	242.042
0.053562	233.978
0.082914	238.068
0.099663	246.166
0.110177	240.139
0.133236	244.217
0.15418	252.323
0.158401	246.283
0.183566	248.349
0.202397	260.483
0.210821	252.436
0.231791	254.493
0.254824	264.62
0.259063	254.548
0.280024	258.622
0.30095	270.76
0.309385	260.696
0.357583	272.889
0.359715	264.829
0.403718	277.013
0.410054	266.945
0.458252	279.138
0.462474	273.098
0.504388	283.262
0.508617	275.206
0.561011	287.407
0.561054	277.326
0.609244	291.535
0.611393	279.442
0.659583	293.651
0.661723	283.575
0.714117	295.776
0.714152	287.711
0.760253	299.9
0.766588	289.832
0.810575	306.048
0.814804	297.992
0.862978	316.233
0.863029	304.137
0.913249	334.478
0.913308	320.366
0.959282	362.796
0.965398	405.147
0.967513	401.119
1.00245	574.575
1.00451	582.644
