Adsorption isotherm of Nitrogen on CPHEX
DOI: 10.1016/j.micromeso.2014.10.018
Article source: Figure 4
Adsorbate Nitrogen: InChIKey IJGRMHOSHXDMSA-UHFFFAOYSA-N
Kind: experiment
Temperature: 77 K
Tabular data in the source: 0
pressure (bar)	uptake (cm3(STP)/g)
0	0
0.000845	294.34
0.000869	288.679
0.001202	207.547
0.001318	320.755
0.003009	267.925
0.004762	341.509
0.010827	366.038
0.023135	371.698
0.029293	373.585
0.043673	375.472
0.055997	377.358
0.062155	379.245
0.070383	377.358
0.078604	377.358
0.088865	381.132
0.097086	381.132
0.107355	383.019
0.156674	384.906
0.20189	384.906
0.255327	384.906
0.304646	386.792
0.454666	390.566
0.503992	390.566
0.705393	394.34
0.709496	396.226
0.904716	403.774
0.908835	401.887
0.933482	405.66
0.947854	409.434
0.970446	413.208
0.972463	422.642
0.986826	428.302
0.992829	467.925
0.998824	509.434
