Adsorption isotherm of Nitrogen on CPMEK
DOI: 10.1016/j.micromeso.2014.10.018
Article source: Figure 4
Adsorbate Nitrogen: InChIKey IJGRMHOSHXDMSA-UHFFFAOYSA-N
Kind: experiment
Temperature: 77 K
Tabular data in the source: 0
pressure (bar)	uptake (cm3(STP)/g)
0	0
0.002174	80.2239
0.002174	225.746
0.004349	238.806
0.010872	246.269
0.052185	257.463
0.10002	263.06
0.102194	266.791
0.150031	270.522
0.15438	272.388
0.20439	276.119
0.256574	283.582
0.30441	287.313
0.306584	287.313
0.35442	289.179
0.408778	298.507
0.456615	302.239
0.508799	304.104
0.556635	309.701
0.558809	309.701
0.608819	315.299
0.610994	313.433
0.661005	320.896
0.663178	320.896
0.713189	326.493
0.765374	330.224
0.811035	337.687
0.813209	335.821
0.861045	343.284
0.865394	339.552
0.91323	348.881
0.965414	388.06
0.967589	371.269
1.0089	524.254
