Adsorption isotherm of Nitrogen on PTA-NH2-MIL-101(Al)
DOI: 10.1016/j.jcat.2012.01.013
Adsorbate Nitrogen: InChIKey IJGRMHOSHXDMSA-UHFFFAOYSA-N
Temperature: 77 K
Tabular data in the source: 0
pressure (bar)	uptake (mmol/g)
0.00651205	8.70395
0.00754725	9.18547
0.00769514	8.1114
0.0140746	9.77831
0.0249773	10.5935
0.0381238	11.1126
0.0435701	11.5572
0.0578079	12.1504
0.0643709	12.4839
0.0709442	12.7434
0.073142	12.7806
0.0852075	13.1514
0.097278	13.4852
0.103867	13.6336
0.111541	13.8931
0.12583	14.1159
0.135708	14.3755
0.145596	14.5611
0.153291	14.6725
0.163163	14.9692
0.16864	15.1916
0.170848	15.1547
0.181822	15.4514
0.193883	15.8592
0.201609	15.7484
0.210369	16.1191
0.219212	15.8972
0.240079	16.3425
0.241206	16.1573
0.258774	16.5654
0.259906	16.3432
0.292915	16.6038
0.304985	16.9376
0.320417	16.8641
0.336888	17.2351
0.339116	17.05
0.356689	17.421
0.35671	17.2729
0.383094	17.6442
0.391932	17.4594
0.407302	17.8303
0.411728	17.6824
0.432554	18.4239
0.439219	18.0167
0.463264	19.388
0.465625	18.24
0.48103	18.3517
0.486339	19.7963
0.502831	20.0192
0.508522	18.6861
0.523749	20.094
0.534911	19.0204
0.547976	20.132
0.559109	19.2806
0.571103	20.1699
0.583311	19.5037
0.594219	20.2819
0.606417	19.6898
0.619548	20.3199
0.636116	19.9872
0.641562	20.4319
0.655928	20.0991
0.669105	20.3959
0.675739	20.2109
0.692221	20.5079
0.70656	20.3603
0.715352	20.5088
0.735194	20.3984
0.741793	20.4727
0.758315	20.4734
0.762711	20.5476
0.781447	20.4742
0.79134	20.6228
0.803461	20.5862
0.813364	20.6606
0.835399	20.6244
0.840886	20.7728
0.857429	20.6253
0.866215	20.8108
0.880545	20.7373
0.892641	20.8859
0.90257	20.7751
0.91796	20.998
0.926797	20.8131
0.934472	21.0727
0.93999	20.9988
0.945467	21.2212
0.94767	21.2213
0.956446	21.4809
0.960837	21.5922
0.962978	22.0367
0.965176	22.0738
