Adsorption isotherm of Nitrogen on Pt/PTA-NH2-MIL-101(Al)
DOI: 10.1016/j.jcat.2012.01.013
Adsorbate Nitrogen: InChIKey IJGRMHOSHXDMSA-UHFFFAOYSA-N
Temperature: 77 K
Tabular data in the source: 0
pressure (bar)	uptake (mmol/g)
0.00693021	5.66693
0.0134525	6.29681
0.0287968	6.85295
0.0672011	7.92849
0.0726627	8.26203
0.0869617	8.41072
0.126534	9.00482
0.166101	9.63596
0.194648	10.3037
0.212236	10.5636
0.21449	10.1934
0.241961	10.6759
0.260661	10.8618
0.265107	10.5657
0.289289	10.937
0.298132	10.7151
0.307979	11.1969
0.323446	10.8642
0.336607	11.2721
0.338836	11.087
0.356409	11.458
0.361957	11.1619
0.385027	11.6073
0.391682	11.2742
0.411453	11.6824
0.411473	11.5342
0.433432	12.0536
0.439	11.6093
0.463029	13.0917
0.463223	11.6843
0.480816	11.9072
0.487201	13.5371
0.503662	13.9822
0.511622	12.1677
0.525671	14.1312
0.536941	12.2797
0.549878	14.3173
0.560032	12.5769
0.572989	14.4663
0.58533	12.8371
0.595009	14.5412
0.609532	13.0603
0.620318	14.7274
0.637024	13.3947
0.643439	14.8023
0.654612	13.6546
0.668748	14.9885
0.679916	13.8778
0.691879	14.9893
0.707402	14.2492
0.716091	15.1384
0.734924	14.3614
0.741421	15.1764
0.759121	14.6215
0.76344	15.2513
0.78113	14.7705
0.790972	15.2894
0.809739	14.9938
0.81519	15.4014
0.835047	15.18
0.84161	15.5136
0.857082	15.1438
0.868031	15.6257
0.882391	15.3299
0.895558	15.7008
0.904406	15.4419
0.917562	15.8868
0.92311	15.5907
0.935176	15.9616
0.939597	15.8506
0.947257	16.2213
0.951606	16.6289
0.957124	16.555
0.963667	17.0367
