Adsorption isotherm of Carbon Dioxide on MC-30
DOI: 10.1007/s10450-015-9651-2
Article source: Figure  6
Adsorbate Carbon Dioxide: InChIKey CURLTUGMZLYLDI-UHFFFAOYSA-N
Kind: experiment
Temperature: 298 K
Tabular data in the source: 0
pressure (bar)	uptake (mmol/g)
0.00747	0.04827
0.00899	0.08259
0.01209	0.11776
0.01458	0.14761
0.02875	0.27848
0.0544	0.4604
0.09209	0.64786
0.14757	0.86319
0.19655	1.03025
0.26096	1.22908
0.32745	1.40502
0.39429	1.56645
0.46134	1.71475
0.52493	1.848
0.59067	1.9776
0.65841	2.10804
0.72263	2.22705
0.78906	2.34409
0.85424	2.45668
0.91992	2.56061
0.9961	2.69019
