Adsorption isotherm of Nitrogen on MC-30
DOI: 10.1007/s10450-015-9651-2
Article source: Figure  4
Adsorbate Nitrogen: InChIKey IJGRMHOSHXDMSA-UHFFFAOYSA-N
Kind: experiment
Temperature: 77 K
Tabular data in the source: 0
pressure (bar)	uptake (mmol/g)
0.005674	0.829
0.005988	2.581
0.006069	2.093
0.00685	4.351
0.006971	4.383
0.011044	8.506
0.013101	9.294
0.026638	10.681
0.04896	12.006
0.073988	13.299
0.101386	14.158
0.103544	15.111
0.122786	15.731
0.147387	16.942
0.150174	17.574
0.176863	17.634
0.199205	18.078
0.20344	18.596
0.223726	18.77
0.251114	20.685
0.257011	20.353
0.278431	20.611
0.302222	20.874
0.30667	20.971
0.356745	21.092
0.361406	20.719
0.400305	20.954
0.407134	21.285
0.451727	21.085
0.455132	21.386
0.503869	21.462
0.505835	21.455
0.555302	21.57
0.555909	21.586
0.6064	21.696
0.608781	21.667
0.634031	21.528
0.655856	21.775
0.662483	21.402
0.687206	21.649
0.707279	21.886
0.714736	21.574
0.737697	21.697
0.758803	21.892
0.765632	21.726
0.788501	21.88
0.810012	22.034
0.815301	21.816
0.839711	21.959
0.860715	22.103
0.865478	21.957
0.888965	22.08
0.907376	22.265
0.913587	22.14
0.938209	22.242
0.960247	22.448
0.983106	22.498
0.988385	22.819
1.00472	23.781
