Adsorption isotherm of Nitrogen on MC-60
DOI: 10.1007/s10450-015-9651-2
Article source: Figure  4
Adsorbate Nitrogen: InChIKey IJGRMHOSHXDMSA-UHFFFAOYSA-N
Kind: experiment
Temperature: 77 K
Tabular data in the source: 0
pressure (bar)	uptake (mmol/g)
0.003658	9.463
0.003911	3.327
0.004185	8.271
0.004225	2.415
0.004337	1.368
0.004377	10.862
0.004377	10.199
0.004408	6.105
0.004418	4.363
0.004874	13.308
0.006941	14.49
0.008582	15.319
0.010649	16.303
0.025118	19.08
0.04662	21.4
0.053034	22.218
0.073917	23.627
0.099157	25.522
0.103392	26.029
0.124174	28.132
0.14909	30.4
0.151369	30.762
0.174745	31.486
0.201637	32.428
0.204221	32.635
0.223776	33.649
0.252522	36.425
0.254174	36.186
0.276111	36.537
0.300115	36.784
0.349257	37.185
0.357951	37.112
0.40223	37.347
0.408431	37.409
0.452092	37.706
0.457786	37.654
0.503514	37.899
0.507557	37.868
0.554734	38.124
0.558047	38.061
0.607504	38.213
0.636058	38.159
0.658298	38.406
0.687379	38.467
0.70889	38.589
0.712203	38.568
0.738072	38.587
0.760211	38.762
0.763423	38.699
0.787842	38.791
0.812667	38.914
0.839153	38.964
0.864606	39.148
0.887789	39.178
0.910547	39.342
0.935483	39.475
0.958656	39.784
0.96662	40.012
0.985244	40.352
0.989479	41.295
1.00435	44.466
