Adsorption isotherm of Nitrogen on CMK-3
DOI: 10.1007/s10450-015-9651-2
Article source: Figure  4
Adsorbate Nitrogen: InChIKey IJGRMHOSHXDMSA-UHFFFAOYSA-N
Kind: experiment
Temperature: 77 K
Tabular data in the source: 0
pressure (bar)	uptake (mmol/g)
0.003405	0.456
0.049771	13.56
0.087727	14.397
0.123211	15.037
0.158168	15.677
0.193956	16.203
0.231923	16.78
0.268025	17.337
0.304228	17.967
0.330917	18.514
0.341881	18.731
0.364942	19.258
0.371356	19.475
0.401146	20.415
0.433823	21.284
0.442192	22.153
0.475589	23.799
0.481324	27.787
0.516251	30.127
0.518683	27.339
0.549668	30.549
0.563641	30.02
0.583196	30.437
0.585051	30.516
0.620332	30.731
0.655816	30.894
0.666374	30.707
0.690895	31.109
0.698139	30.901
0.721414	31.034
0.726895	31.2
0.756492	31.208
0.761974	31.415
0.790528	31.433
0.793628	31.609
0.82746	31.597
0.833459	31.907
0.862326	31.791
0.869044	32.226
0.895531	32.369
0.89698	32.037
0.930184	32.625
0.966195	32.82
0.973024	32.757
1.00333	33.055
