Adsorption isotherm of Carbon Dioxide on MC-60
DOI: 10.1007/s10450-015-9651-2
Article source: Figure  6
Adsorbate Carbon Dioxide: InChIKey CURLTUGMZLYLDI-UHFFFAOYSA-N
Kind: experiment
Temperature: 298 K
Tabular data in the source: 0
pressure (bar)	uptake (mmol/g)
0.00554	0.01506
0.00733	0.03989
0.00988	0.11497
0.00989	0.0727
0.01037	0.09906
0.01126	0.13451
0.01188	0.168
0.01485	0.19199
0.02764	0.31812
0.05467	0.49724
0.0914	0.67941
0.14432	0.88385
0.19669	1.05425
0.26068	1.23606
0.32683	1.40474
0.39464	1.56533
0.46217	1.70526
0.52417	1.83209
0.59102	1.95806
0.65738	2.07818
0.72284	2.19439
0.78879	2.30474
0.85363	2.41174
0.91888	2.51679
0.99743	2.6405
