Adsorption isotherm of Carbon Dioxide on CMK-3
DOI: 10.1007/s10450-015-9651-2
Article source: Figure  6
Adsorbate Carbon Dioxide: InChIKey CURLTUGMZLYLDI-UHFFFAOYSA-N
Kind: experiment
Temperature: 298 K
Tabular data in the source: 0
pressure (bar)	uptake (mmol/g)
0.00353	0.01813
0.00629	0.03878
0.0083	0.06501
0.01078	0.08733
0.01244	0.11022
0.01445	0.13226
0.028	0.22406
0.05165	0.37862
0.09218	0.5739
0.14537	0.79007
0.19594	0.9627
0.26201	1.15288
0.32857	1.33133
0.39527	1.48885
0.46246	1.6338
0.52432	1.75644
0.59013	1.87991
0.65739	2.0017
0.72189	2.10619
0.78728	2.20956
0.85371	2.31182
0.91904	2.40542
0.99773	2.51433
