Adsorption isotherm of Carbon Dioxide on MC-60
DOI: 10.1007/s10450-015-9651-2
Article source: Figure  10
Adsorbate Carbon Dioxide: InChIKey CURLTUGMZLYLDI-UHFFFAOYSA-N
Kind: experiment
Temperature: 308 K
Tabular data in the source: 0
pressure (bar)	uptake (mmol/g)
0.1958	0.1004
2.2825	2.1604
2.9991	2.7072
5.9156	4.8764
5.992	4.932
7.1203	5.4319
10.7506	7.3964
12.7883	8.2243
16.9465	10.1903
17.826	10.4824
22.6315	12.3818
25.0179	12.9997
29.3393	14.1227
32.0377	14.7818
35.2607	15.3851
40.276	16.3177
41.7497	16.5593
45.3778	16.9508
49.8655	17.5823
