Adsorption isotherm of Carbon Dioxide on MIL-101
DOI: 10.1007/s10450-015-9651-2
Article source: Figure  10
Adsorbate Carbon Dioxide: InChIKey CURLTUGMZLYLDI-UHFFFAOYSA-N
Kind: experiment
Temperature: 308 K
Tabular data in the source: 0
pressure (bar)	uptake (mmol/g)
0.292	0.1559
1.2411	0.6883
4.5694	2.5111
9.5541	4.6293
9.6205	4.6759
14.8611	6.1878
20.5568	7.3893
27.3677	8.7015
27.5603	8.7374
34.0363	9.5887
41.2725	10.3932
41.3787	10.4237
49.5943	11.061
