Adsorption isotherm of Carbon Dioxide on MIL-101
DOI: 10.1007/s10450-015-9651-2
Article source: Figure  6
Adsorbate Carbon Dioxide: InChIKey CURLTUGMZLYLDI-UHFFFAOYSA-N
Kind: experiment
Temperature: 298 K
Tabular data in the source: 0
pressure (bar)	uptake (mmol/g)
0.01114	0.02537
0.01439	0.04685
0.0166	0.06499
0.02684	0.12497
0.0496	0.20809
0.05243	0.22818
0.08972	0.3347
0.09332	0.32129
0.14674	0.45316
0.19185	0.55445
0.19573	0.55993
0.25731	0.69904
0.25966	0.70489
0.32789	0.81942
0.39308	0.9094
0.3955	0.92111
0.46367	1.00382
0.52485	1.07204
0.59073	1.14722
0.65586	1.22212
0.65849	1.21513
0.72278	1.28027
0.78548	1.34904
0.78797	1.34149
0.85324	1.40467
0.91843	1.46673
0.91933	1.46645
0.99331	1.5818
0.99421	1.58282
0.99455	1.58319
0.9947	1.58335
0.99532	1.58399
