Adsorption isotherm of Nitrogen on MIL-100
DOI: 10.1007/s10450-015-9651-2
Article source: Figure  4
Adsorbate Nitrogen: InChIKey IJGRMHOSHXDMSA-UHFFFAOYSA-N
Kind: experiment
Temperature: 77 K
Tabular data in the source: 0
pressure (bar)	uptake (mmol/g)
0.003952	12.417
0.004235	16.252
0.004742	17.195
0.005674	17.879
0.006475	21.444
0.008319	23.3
0.009666	24.139
0.010274	25.835
0.010578	25.953
0.025453	30.284
0.047977	34.522
0.052831	35.527
0.071343	37.681
0.097708	40.644
0.10473	41.659
0.124275	44.042
0.148857	49.471
0.153609	50.414
0.174502	51.625
0.197563	53.199
0.203876	53.489
0.22559	54.803
0.248935	60.337
0.252249	60.502
0.279768	60.811
0.300256	61.135
0.304806	61.183
0.352084	61.542
0.354982	61.604
0.402473	62.046
0.408167	61.921
0.4512	62.188
0.456165	62.364
0.502623	62.588
0.505936	62.599
0.553427	62.709
0.557358	62.812
0.60412	63.016
0.608051	63.037
0.63392	63.108
0.657508	63.282
0.661237	63.209
0.685443	63.301
0.708616	63.455
0.71193	63.247
0.734799	63.474
0.759735	63.689
0.762217	63.544
0.786941	63.615
0.810529	63.82
0.812191	63.551
0.836813	63.881
0.859682	63.931
0.864545	63.993
0.88627	64.095
0.909128	64.29
0.913688	64.311
0.935929	64.423
0.958383	64.66
0.962415	64.805
0.986105	65.518
0.989722	66.627
1.00429	69.186
