Adsorption isotherm of Isobutene on Na1ZSM-5
DOI: 10.1002/cjoc.200591593
Adsorbate Isobutene: InChIKey VQTUBCCKSQIDNK-UHFFFAOYSA-N
Temperature: 800 K
Tabular data in the source: 0
pressure (bar)	uptake (molecules*box^-1)
0.493565	3.60685
0.984104	6.58155
1.99522	10.8377
3.00633	13.9039
