Adsorption isotherm of Isobutene on Silicalite MFI
DOI: 10.1002/cjoc.200591593
Adsorbate Isobutene: InChIKey VQTUBCCKSQIDNK-UHFFFAOYSA-N
Temperature: 800 K
Tabular data in the source: 0
pressure (bar)	uptake (molecules*box^-1)
0.503576	3.21785
1.02415	6.21543
2.00523	10.5859
3.00633	13.5149
