Adsorption isotherm of Isobutene on Na2ZSM-5
DOI: 10.1002/cjoc.200591593
Adsorbate Isobutene: InChIKey VQTUBCCKSQIDNK-UHFFFAOYSA-N
Temperature: 800 K
Tabular data in the source: 0
pressure (bar)	uptake (molecules*box^-1)
0.0881196	1.31862
0.503576	3.90432
1.02415	7.03919
2.00022	11.4326
3.01133	14.2013
