Adsorption isotherm of Isobutene on Na4ZSM-5
DOI: 10.1002/cjoc.200591593
Adsorbate Isobutene: InChIKey VQTUBCCKSQIDNK-UHFFFAOYSA-N
Temperature: 800 K
Tabular data in the source: 0
pressure (bar)	uptake (molecules*box^-1)
0.493565	4.15602
1.01414	7.31378
2.01023	11.7758
2.99632	14.6132
