Adsorption isotherm of Isobutene on Na8ZSM-5
DOI: 10.1002/cjoc.200591593
Adsorbate Isobutene: InChIKey VQTUBCCKSQIDNK-UHFFFAOYSA-N
Temperature: 800 K
Tabular data in the source: 0
pressure (bar)	uptake (molecules*box^-1)
0.508582	6.60443
1.02415	9.46471
1.99522	13.5835
3.01634	16.8328
