Adsorption isotherm of Sr2+, Cesium, Water on Immobilized Saccharomyces cerevisiae
DOI: 10.1002/ep.12531
Article source: Figure 6
Adsorbate Sr2+: InChIKey PWYYWQHXAPXYMF-UHFFFAOYSA-N
Adsorbate Cesium: InChIKey TVFDJXOCXUVLDH-UHFFFAOYSA-N
Adsorbate Water: InChIKey XLYOFNOQVPJJNP-UHFFFAOYSA-N
Kind: experiment
Temperature: 303 K
Tabular data in the source: 0
pressure (bar)	Sr2+ fraction	Sr2+ uptake (mg/g)	Cesium fraction	Cesium uptake (mg/g)	Water fraction	Water uptake (mg/g)	total uptake (mg/g)
1.01325	0.238	2.022	0.511	0.198			
1.01325	10	5.427	9.431	1.17			
1.01325	25.118	14.045	24.99	2.05			
1.01325	49.48	23.667	49.42	2.929			
1.01325	100.127	49.12	99.953	5.007			
1.01325	199.843	66.052	199.912	8.102			
1.01325	249.959	71.202	250.005	11.047			
1.01325	299.658	74.071	299.87	15.945			
