Adsorption isotherm of Arsenate, Water on Al-Based Nanoparticle-Impregnated Sawdust (ANIS)
DOI: 10.1002/ep.12531
Article source: Figure 4
Adsorbate Arsenate: InChIKey HAYXDMNJJFVXCI-UHFFFAOYSA-N
Adsorbate Water: InChIKey XLYOFNOQVPJJNP-UHFFFAOYSA-N
Kind: experiment
Temperature: 298 K
Tabular data in the source: 0
pressure (bar)	Arsenate fraction	Arsenate uptake (mg/g)	Water fraction	Water uptake (mg/g)	total uptake (mg/g)
1.01325	0.883	7.3822			
1.01325	6.283	9.1424			
1.01325	13.693	10.7286			
1.01325	25.312	12.4173			
1.01325	35.393	13.8092			
1.01325	43.182	14.2391			
1.01325	55.429	16.1529			
1.01325	68.084	17.9336			
1.01325	80.867	19.0902			
