Adsorption isotherm of Carbon Dioxide, Sr2+, Water on Immobilized Saccharomyces cerevisiae
DOI: 10.1002/ep.12531
Article source: Figure 5
Adsorbate Carbon Dioxide: InChIKey CURLTUGMZLYLDI-UHFFFAOYSA-N
Adsorbate Sr2+: InChIKey PWYYWQHXAPXYMF-UHFFFAOYSA-N
Adsorbate Water: InChIKey XLYOFNOQVPJJNP-UHFFFAOYSA-N
Kind: experiment
Temperature: 303 K
Tabular data in the source: 0
pressure (bar)	Carbon Dioxide fraction	Carbon Dioxide uptake (mg/g)	Sr2+ fraction	Sr2+ uptake (mg/g)	Water fraction	Water uptake (mg/g)	total uptake (mg/g)
1.01325	0.648	2.282	0.648	2.282			
1.01325	10.578	5.501	10.578	5.501			
1.01325	24.405	12.21	24.404	13.54			
1.01325	49.277	19.116	49.693	22.229			
1.01325	99.281	40.043	99.941	48.266			
1.01325	198.909	60.795	199.353	67.271			
1.01325	249.005	62.184	249.597	68.159			
1.01325	299.685	62.274	299.915	68.087			
