Adsorption isotherm of Carbon Dioxide, Cesium, Water on Immobilized Saccharomyces cerevisiae
DOI: 10.1002/ep.12531
Article source: Figure 7
Adsorbate Carbon Dioxide: InChIKey CURLTUGMZLYLDI-UHFFFAOYSA-N
Adsorbate Cesium: InChIKey TVFDJXOCXUVLDH-UHFFFAOYSA-N
Adsorbate Water: InChIKey XLYOFNOQVPJJNP-UHFFFAOYSA-N
Kind: experiment
Temperature: 303 K
Tabular data in the source: 0
pressure (bar)	Carbon Dioxide fraction	Carbon Dioxide uptake (mg/g)	Cesium fraction	Cesium uptake (mg/g)	Water fraction	Water uptake (mg/g)	total uptake (mg/g)
1.01325	0.188	2.049	0.142	0.154			
1.01325	9.677	5.269	9.491	1.047			
1.01325	23.981	13.618	24.507	2.078			
1.01325	49.098	20.642	49.931	2.974			
1.01325	99.33	42.116	99.667	5.609			
1.01325	198.97	63.015	199.619	7.929			
1.01325	249.192	65.285	249.356	9.632			
1.01325	299.113	68.142	299.33	14.519			
