Adsorption isotherm of Sr2+, Water on Immobilized Saccharomyces cerevisiae
DOI: 10.1002/ep.12531
Article source: Figure 4
Adsorbate Sr2+: InChIKey PWYYWQHXAPXYMF-UHFFFAOYSA-N
Adsorbate Water: InChIKey XLYOFNOQVPJJNP-UHFFFAOYSA-N
Kind: experiment
Temperature: 303 K
Tabular data in the source: 0
pressure (bar)	Sr2+ fraction	Sr2+ uptake (mg/g)	Water fraction	Water uptake (mg/g)	total uptake (mg/g)
1.01325	0.183	2.16			
1.01325	10.229	6.358			
1.01325	25.416	13.953			
1.01325	49.832	19.935			
1.01325	100.241	42.014			
1.01325	199.889	65.702			
1.01325	250.138	68.79			
1.01325	300.476	76.725			
