Adsorption isotherm of Carbon Dioxide, Water on Immobilized Saccharomyces cerevisiae
DOI: 10.1002/ep.12531
Article source: Figure 4
Adsorbate Carbon Dioxide: InChIKey CURLTUGMZLYLDI-UHFFFAOYSA-N
Adsorbate Water: InChIKey XLYOFNOQVPJJNP-UHFFFAOYSA-N
Kind: experiment
Temperature: 303 K
Tabular data in the source: 0
pressure (bar)	Carbon Dioxide fraction	Carbon Dioxide uptake (mg/g)	Water fraction	Water uptake (mg/g)	total uptake (mg/g)
1.01325	0.464	0.207			
1.01325	10.107	0.842			
1.01325	25.267	3.15			
1.01325	49.93	5.663			
1.01325	100.185	8.022			
1.01325	199.583	10.857			
1.01325	249.838	14.988			
1.01325	300.278	18.863			
