Adsorption isotherm of Cesium, Water on Immobilized Saccharomyces cerevisiae
DOI: 10.1002/ep.12531
Article source: Figure 4
Adsorbate Cesium: InChIKey TVFDJXOCXUVLDH-UHFFFAOYSA-N
Adsorbate Water: InChIKey XLYOFNOQVPJJNP-UHFFFAOYSA-N
Kind: experiment
Temperature: 303 K
Tabular data in the source: 0
pressure (bar)	Cesium fraction	Cesium uptake (mg/g)	Water fraction	Water uptake (mg/g)	total uptake (mg/g)
1.01325	0.183	2.16			
1.01325	10.229	6.358			
1.01325	24.988	15.279			
1.01325	50.348	22.85			
1.01325	100.185	49.035			
1.01325	200.325	70.574			
1.01325	250.356	73.666			
1.01325	300.414	78.633			
