Adsorption isotherm of Nitrogen on Zeolite MFI-2
DOI: 10.1016/j.apsusc.2009.12.067
Adsorbate Nitrogen: InChIKey IJGRMHOSHXDMSA-UHFFFAOYSA-N
Temperature: 77 K
Tabular data in the source: 0
pressure (bar)	uptake (cm3(STP)/g)
1.27e-08	3.85321
3.6e-08	5.13761
9.16e-08	8.13456
1.59e-07	11.9878
2.21e-07	15.4128
2.91e-07	19.6942
3.83e-07	23.5474
5.64e-07	31.682
7.43e-07	35.5352
9.27e-07	40.2446
9.81e-07	43.6697
1.29e-06	47.0948
1.7e-06	50.948
1.9e-06	55.2294
2.13e-06	59.9388
2.96e-06	63.792
4.12e-06	67.2171
5.73e-06	71.4985
9.4e-06	74.9235
1.63e-05	79.633
3.33e-05	83.4862
0.000105403	87.3394
0.000489738	89.9083
0.00316172	92.4771
0.00578061	93.3333
0.0131669	95.474
0.0193292	95.9021
0.0416931	98.8991
0.0805775	101.468
0.147419	104.037
0.183874	108.318
0.195052	119.021
0.205664	114.312
0.377218	123.303
0.653318	125.872
1.0715	129.297
