Adsorption isotherm of Argon on Zeolite MFI-2
DOI: 10.1016/j.apsusc.2009.12.067
Adsorbate Argon: InChIKey XKRFYHLGVUSROY-UHFFFAOYSA-N
Temperature: 87 K
Tabular data in the source: 0
pressure (bar)	uptake (cm3(STP)/g)
1.27e-07	0.428135
2.88e-07	0.428135
4.73e-07	2.14067
7.33e-07	2.99694
1.08e-06	4.70948
1.42e-06	5.99388
1.97e-06	7.70642
2.9e-06	11.1315
3.06e-06	13.2722
3.82e-06	17.1254
5.03e-06	20.1223
6.27e-06	23.5474
7e-06	27.4006
7.83e-06	30.8257
9.24e-06	34.2508
1.09e-05	38.104
1.36e-05	41.9572
1.7e-05	45.3823
2e-05	49.6636
2.24e-05	52.6606
2.95e-05	55.6575
3.67e-05	58.6544
4.58e-05	62.5076
6.73e-05	65.9327
0.000110429	69.7859
0.000191287	72.7829
0.000296842	74.9235
0.000390594	75.7798
0.000889969	78.7768
0.0011734	84.7706
0.00131113	88.1957
0.00138687	91.6208
0.00215539	97.6147
0.00316581	99.3272
0.00440114	100.612
0.00682975	102.752
0.00949304	103.609
0.0124869	103.609
0.0204694	105.749
0.0466708	110.459
0.0724011	111.743
0.09525	112.171
0.147686	112.171
0.242097	114.312
0.396528	114.312
0.649799	115.596
0.809806	117.737
1.06591	119.45
