Adsorption isotherm of P-Xylene on Zeolite MFI-8
DOI: 10.1016/j.apsusc.2009.12.067
Adsorbate P-Xylene: InChIKey URLKBWYHVLBVBO-UHFFFAOYSA-N
Temperature: 415 K
Tabular data in the source: 0
pressure (bar)	uptake (molecules/unitcell)
0.000133164	1.36778
0.000235703	2.24924
0.000325234	2.5228
0.000448441	3.00912
0.000554479	3.86018
0.000851874	4.19453
0.00109357	4.58967
0.00140354	5.04559
0.00180138	5.50152
0.00215192	5.95745
0.00286369	6.32219
0.00354744	6.65653
0.00423902	7.02128
