Adsorption isotherm of Nitrogen on Zeolite MFI-1
DOI: 10.1016/j.apsusc.2009.12.067
Adsorbate Nitrogen: InChIKey IJGRMHOSHXDMSA-UHFFFAOYSA-N
Temperature: 77 K
Tabular data in the source: 0
pressure (bar)	uptake (cm3(STP)/g)
3.8e-07	4.28135
4.75e-07	9.41896
5.02e-07	14.9847
6.27e-07	19.6942
7.82e-07	25.2599
8.74e-07	30.3976
1.09e-06	34.6789
1.52e-06	39.8165
1.79e-06	44.9541
2.94e-06	50.0917
4.33e-06	55.2294
8.37e-06	59.9388
1.91e-05	65.0765
5.42e-05	69.7859
0.00138205	79.2049
0.00202957	80.4893
0.0039198	81.3456
0.00608084	82.63
0.0111177	83.4862
0.0214721	84.3425
0.0438292	86.4832
0.0643641	87.7676
0.117737	89.9083
0.173046	93.3333
0.228078	98.4709
0.317818	105.749
0.467119	109.174
0.615569	113.884
