Adsorption isotherm of P-Xylene on Zeolite MFI-6
DOI: 10.1016/j.apsusc.2009.12.067
Adsorbate P-Xylene: InChIKey URLKBWYHVLBVBO-UHFFFAOYSA-N
Temperature: 323 K
Tabular data in the source: 0
pressure (bar)	uptake (molecules/unitcell)
7.76e-06	0.425532
1.38e-05	0.851064
1.97e-05	1.33739
2.71e-05	1.82371
3.36e-05	2.34043
4.16e-05	2.73556
5.53e-05	3.1307
7.63e-05	3.49544
0.000109131	3.7386
0.000150636	3.92097
0.000200636	4.04255
0.000297611	4.16413
0.00042599	4.22492
0.000547582	4.25532
0.000655042	4.31611
0.000755909	4.40729
0.000811259	4.71125
0.000868499	5.71429
0.0008701	5.19757
0.000871243	4.83283
0.000898565	6.231
0.000929864	6.68693
0.000962165	7.17325
0.000996	7.53799
0.00110848	7.72036
0.00158631	7.84195
0.0019672	7.87234
0.00262132	7.87234
0.0038883	7.99392
