Adsorption isotherm of Water on Zeolite MFI-5
DOI: 10.1016/j.apsusc.2009.12.067
Adsorbate Water: InChIKey XLYOFNOQVPJJNP-UHFFFAOYSA-N
Temperature: 300 K
Tabular data in the source: 0
pressure (bar)	uptake (cm3(STP)/g)
0.00193544	0.428135
0.0026911	2.14067
0.00317432	3.85321
0.00374489	5.99388
0.00396058	8.99083
0.00523413	20.9786
0.00585932	29.1131
0.00656249	38.5321
0.00737102	55.2294
0.00826113	66.3609
0.00925562	76.6361
0.00978707	79.2049
0.0109322	81.7737
0.0122155	85.1988
0.0170303	93.7615
0.0212417	98.0428
0.0250685	101.04
0.0295796	103.609
0.0348968	105.749
