Adsorption isotherm of Argon on Zeolite MFI-2
DOI: 10.1016/j.apsusc.2009.12.067
Adsorbate Argon: InChIKey XKRFYHLGVUSROY-UHFFFAOYSA-N
Temperature: 87 K
Tabular data in the source: 0
pressure (bar)	uptake (cm3(STP)/g)
1.27e-07	0.856269
5.27e-07	1.71254
1.5e-06	4.70948
3.06e-06	10.2752
4.5e-06	15.4128
6.63e-06	25.6881
8.73e-06	30.3976
9.78e-06	38.5321
1.29e-05	44.9541
1.79e-05	49.6636
2.37e-05	56.0856
3.48e-05	60.7951
6.37e-05	65.5046
0.000487265	80.4893
0.000678414	85.6269
0.000998447	92.4771
0.00394081	98.4709
0.00897915	101.468
0.0204623	104.893
0.0441372	107.89
0.0852855	110.031
0.164717	110.887
0.336392	114.312
0.442999	117.309
0.468042	117.737
0.726804	121.59
0.858027	125.443
