Adsorption isotherm of Argon on ZSM-12
DOI: 10.1016/j.apsusc.2009.12.067
Adsorbate Argon: InChIKey XKRFYHLGVUSROY-UHFFFAOYSA-N
Temperature: 87 K
Tabular data in the source: 0
pressure (bar)	uptake (cm3(STP)/g)
3.84e-06	4.98994
5.53e-06	9.8971
6.94e-06	15.6171
8.71e-06	20.5208
1.04e-05	25.0152
1.25e-05	30.7341
1.5e-05	35.6367
1.97e-05	40.1334
2.59e-05	51.1607
3.56e-05	55.6585
6.13e-05	61.3866
0.000132707	66.3041
0.000300487	71.2228
0.000815897	76.146
0.00242586	81.0716
0.00399738	83.5332
0.00549282	85.1739
0.00789851	86.8158
0.00947142	88.0448
0.0214459	92.9635
0.0386977	97.0601
0.0582311	99.5194
0.0800157	101.16
0.109953	103.209
0.198402	106.897
0.298546	108.54
0.410241	110.589
0.617311	113.457
0.848266	115.506
