Adsorption isotherm of Benzene on Zeolite MFI-6
DOI: 10.1016/j.apsusc.2009.12.067
Adsorbate Benzene: InChIKey UHOVQNZJYSORNB-UHFFFAOYSA-N
Temperature: 283 K
Tabular data in the source: 0
pressure (bar)	uptake (molecules/unitcell)
1.41e-05	1.03343
2.77e-05	1.94529
4.57e-05	2.67477
7.01e-05	3.25228
0.000107643	3.64742
0.000190904	3.98176
0.000254329	4.04255
0.000338716	4.19453
0.000992879	4.49848
0.00147291	4.58967
0.0018925	4.74164
0.00226119	5.13678
0.00234076	5.50152
0.00242257	5.92705
0.00300128	6.231
0.00333661	6.71733
0.00345514	6.99088
0.00370695	7.38602
0.00493317	7.75076
