Adsorption isotherm of Benzene on Zeolite MFI-6
DOI: 10.1016/j.apsusc.2009.12.067
Adsorbate Benzene: InChIKey UHOVQNZJYSORNB-UHFFFAOYSA-N
Temperature: 293 K
Tabular data in the source: 0
pressure (bar)	uptake (molecules/unitcell)
5.09e-05	2.00608
0.000111627	3.16109
0.000154028	3.43465
0.000228329	3.7386
0.000303956	4.01216
0.000558934	4.25532
0.00218178	4.74164
0.00312292	4.80243
0.00335421	4.89362
0.00446663	5.07599
0.0046268	5.25836
0.0047927	5.44073
0.00495645	6.07903
0.00495964	5.89666
0.00532292	6.20061
0.00636415	6.41337
0.00683251	6.62614
0.00707588	6.8693
0.00787681	6.99088
0.00845182	7.35562
0.0093981	7.78116
0.0112376	7.96353
