Adsorption isotherm of Benzene on Zeolite MFI-6
DOI: 10.1016/j.apsusc.2009.12.067
Adsorbate Benzene: InChIKey UHOVQNZJYSORNB-UHFFFAOYSA-N
Temperature: 273 K
Tabular data in the source: 0
pressure (bar)	uptake (molecules/unitcell)
1.41e-05	1.33739
2.67e-05	2.24924
4.57e-05	3.06991
7.8e-05	3.7386
0.00012428	4.01216
0.000198067	4.13374
0.000351505	4.28571
0.000773057	4.65046
0.000993486	4.74164
0.00127553	5.10638
0.00131608	6.38298
0.00136729	5.74468
0.00151692	6.80851
0.00151821	6.56535
0.0016278	7.14286
0.00187764	7.35562
0.00216602	7.53799
0.00241036	7.75076
