Adsorption isotherm of Nitrogen on ZSM-12
DOI: 10.1016/j.apsusc.2009.12.067
Adsorbate Nitrogen: InChIKey IJGRMHOSHXDMSA-UHFFFAOYSA-N
Temperature: 77 K
Tabular data in the source: 0
pressure (bar)	uptake (cm3(STP)/g)
3.63e-07	4.52199
5.46e-07	9.83846
8.22e-07	15.1549
1.13e-06	20.0609
1.55e-06	25.3751
2.04e-06	30.28
2.56e-06	35.5918
3.36e-06	40.4967
4.83e-06	45.812
8.72e-06	50.7249
2.37e-05	56.0563
8.06e-05	60.5772
0.000300901	65.9166
0.00117483	70.4409
0.00193586	72.0862
0.0038252	74.1443
0.00659589	76.1989
0.00992507	77.4337
0.0205227	80.3093
0.0405512	82.3673
0.0583114	84.0092
0.138165	87.2963
0.217561	88.9405
0.312844	90.5824
0.5155	92.6358
0.741269	93.8695
0.811731	95.5045
