Adsorption isotherm of Hydrogen on MOCP-L
DOI: 10.1007/s10934-009-9268-5
Adsorbate Hydrogen: InChIKey UFHFLCQGNIYNRP-UHFFFAOYSA-N
Temperature: 77 K
Tabular data in the source: 0
pressure (bar)	uptake (cm3(STP)/g)
0.00740536	0.000219
0.0219712	0.444477
0.109366	0.684813
0.284156	0.896017
0.517209	1.09994
1.02701	1.27473
1.76987	1.42767
2.81861	1.55876
3.69256	1.65344
4.95979	1.79182
6.22701	1.86464
7.52337	1.93019
9.08191	1.95204
10.0287	1.96661
