Adsorption isotherm of Hydrogen on IRMOF-1
DOI: 10.1007/s10934-009-9268-5
Adsorbate Hydrogen: InChIKey UFHFLCQGNIYNRP-UHFFFAOYSA-N
Temperature: 77 K
Tabular data in the source: 0
pressure (bar)	uptake (cm3(STP)/g)
0.00740536	2.42543
0.0219712	0.495457
0.0219712	3.38677
0.153064	3.68537
0.400683	4.04952
0.925052	4.34812
1.53682	4.52291
2.30881	4.69041
3.40124	4.80694
4.61021	4.89434
6.09592	4.98901
7.78556	5.08369
8.90713	5.14196
9.97043	5.17837
