Adsorption isotherm of Nitrogen on IRMOF-1
DOI: 10.1007/s10934-009-9268-5
Adsorbate Nitrogen: InChIKey IJGRMHOSHXDMSA-UHFFFAOYSA-N
Temperature: 77 K
Tabular data in the source: 0
pressure (bar)	uptake (cm3(STP)/g)
0.00400996	14.2327
0.00400996	205.628
0.00400996	400.955
0.0302285	425.863
0.0804806	442.905
0.207203	448.149
0.381993	449.46
0.572077	446.838
0.768716	445.527
0.910733	448.149
0.95006	457.325
0.980649	484.855
0.991573	579.241
