Adsorption isotherm of Nitrogen on MOCP-L
DOI: 10.1007/s10934-009-9268-5
Adsorbate Nitrogen: InChIKey IJGRMHOSHXDMSA-UHFFFAOYSA-N
Temperature: 77 K
Tabular data in the source: 0
pressure (bar)	uptake (cm3(STP)/g)
0.00219712	118.009
0.0036537	175.69
0.0182195	196.665
0.0590038	208.9
0.136203	213.27
0.264382	221.136
0.462477	228.127
0.666399	235.993
0.803318	244.732
0.880516	256.967
0.937323	270.951
0.963542	301.539
0.982477	360.967
0.986847	430.009
0.992673	513.909
