Adsorption isotherm of Nitrogen on ICOF-PyrBpy
DOI: 10.1021/acsami.1c01791
Article source: Figure 1
Adsorbate Nitrogen: InChIKey IJGRMHOSHXDMSA-UHFFFAOYSA-N
Kind: experiment
Temperature: 77 K
Tabular data in the source: 0
pressure (bar)	uptake ()
0.095872	52.1844
0.094342	63.7453
0.095872	76.5907
0.094342	86.867
0.094342	94.5742
0.094342	102.281
0.094342	107.42
0.094342	116.411
0.094342	126.688
0.094342	134.395
0.094342	142.102
0.094342	151.094
0.094342	153.663
0.094342	160.086
0.094342	167.793
0.097403	178.069
0.103527	184.492
0.124958	214.036
0.150983	234.589
0.169353	252.573
0.192315	288.54
0.212216	333.499
0.241302	342.49
0.264264	348.913
0.287227	354.051
0.31019	354.051
0.331621	359.189
0.354584	357.905
0.380608	359.189
0.40204	364.328
0.425002	364.328
0.451026	368.181
0.467866	369.466
0.495421	369.466
0.515322	373.319
0.539815	374.604
0.565839	375.889
0.587271	378.458
0.613295	378.458
0.631665	379.742
0.654628	382.311
0.680652	383.596
0.703614	384.88
0.725046	384.88
0.746478	388.734
0.772502	390.018
0.793934	393.872
0.818427	396.441
0.839859	399.01
0.853636	402.864
0.862821	405.433
0.867414	406.717
0.872006	408.002
0.876599	410.571
0.887315	411.856
0.911808	418.278
0.931709	431.124
0.947017	445.254
0.954672	456.815
0.960795	468.375
0.968449	486.359
0.976103	508.196
0.985288	555.724
0.996004	600.683
1.00213	645.642
1.00519	704.731
0.991412	662.341
0.977634	599.398
0.962326	557.009
0.954672	530.033
0.950079	518.472
0.947017	503.058
0.937832	485.074
0.928647	461.953
0.917932	450.392
0.894969	432.408
0.875068	422.132
0.862821	415.709
0.856698	413.14
0.849044	410.571
0.838328	408.002
0.826081	405.433
0.800057	400.295
0.761786	396.441
0.740355	395.157
0.728108	392.588
0.702084	390.018
0.676059	390.018
0.651566	386.165
0.627073	384.88
0.602579	382.311
0.578086	382.311
0.552062	382.311
0.526037	378.458
0.501544	377.173
0.47552	374.604
0.452557	374.604
0.426533	370.75
0.40204	369.466
0.374485	368.181
0.34846	366.897
0.323967	364.328
0.299474	359.189
0.276511	357.905
0.252018	352.767
0.232117	348.913
0.210685	337.352
0.189253	293.678
