Adsorption isotherm of Nitrogen on ICOF-PyrBpy
DOI: 10.1021/acsami.1c01791
Article source: Figure 1
Adsorbate Nitrogen: InChIKey IJGRMHOSHXDMSA-UHFFFAOYSA-N
Kind: experiment
Temperature: 77 K
Tabular data in the source: 0
pressure (bar)	uptake (cm3(STP)/g)
0.094342	71.4525
0.118835	108.704
0.138736	116.411
0.16476	126.688
0.184661	138.249
0.209154	152.379
0.232117	157.517
0.25661	162.655
0.279573	162.655
0.302535	169.078
0.33009	169.078
0.34693	170.362
0.372954	174.216
0.417348	176.785
0.464804	183.207
0.513791	184.492
0.556654	187.061
0.60411	194.768
0.650035	197.337
0.694429	199.907
0.743416	205.045
0.789341	210.183
0.833736	219.175
0.881191	228.166
0.924055	246.15
0.962326	287.255
0.983758	336.068
0.996004	391.303
0.999066	436.262
0.999066	478.652
1.00213	509.481
0.98835	423.417
0.968449	332.214
0.917932	267.987
0.858229	242.296
0.809242	232.02
0.764848	225.597
0.721985	221.744
0.672998	217.89
0.630134	216.606
0.587271	215.321
0.538284	211.467
0.49389	210.183
0.451026	208.898
0.406632	205.045
0.359176	203.76
0.339275	203.76
0.317844	203.76
0.294881	201.191
0.268857	201.191
0.248956	198.622
0.227524	194.768
0.206093	194.768
0.18313	181.923
