Adsorption isotherm of Nitrogen on VCOF-PyrBpy
DOI: 10.1021/acsami.1c01791
Article source: Figure 1
Adsorbate Nitrogen: InChIKey IJGRMHOSHXDMSA-UHFFFAOYSA-N
Kind: experiment
Temperature: 77 K
Tabular data in the source: 0
pressure (bar)	uptake ()
0.086687	67.5989
0.09128	98.4278
0.092811	121.55
0.094342	151.094
0.092811	165.224
0.094342	174.216
0.095872	185.777
0.095872	206.329
0.097403	216.606
0.097403	226.882
0.098934	241.012
0.108119	258.995
0.115773	278.263
0.12802	292.393
0.135674	303.954
0.152513	323.222
0.16476	334.783
0.177007	356.62
0.184661	374.604
0.193846	406.717
0.2015	422.132
0.210685	431.124
0.230586	436.262
0.253549	441.4
0.281104	445.254
0.304066	450.392
0.32856	452.961
0.34846	454.245
0.379077	456.815
0.423471	459.384
0.470927	464.522
0.516852	469.66
0.564308	473.514
0.605641	474.798
0.653097	473.514
0.700553	478.652
0.746478	482.505
0.793934	483.79
0.836797	488.928
0.882722	494.066
0.931709	504.343
0.973042	519.757
0.989881	541.594
1.00213	598.114
0.980696	557.009
0.947017	535.172
0.899562	523.611
0.850575	517.188
0.80465	512.05
0.760255	508.196
0.715861	505.627
0.668405	501.773
0.624011	500.489
0.579617	499.204
0.549	477.367
0.492359	468.375
0.447965	465.806
0.403571	461.953
0.359176	458.099
0.337745	456.815
0.314782	454.245
0.294881	451.676
0.273449	449.107
