Adsorption isotherm of Hydrogen on InOF-2-Li+
DOI: 10.1039/C3ta11548h
Adsorbate Hydrogen: InChIKey UFHFLCQGNIYNRP-UHFFFAOYSA-N
Temperature: 77 K
Tabular data in the source: 0
pressure (bar)	uptake (mmol/g)
0.0164278	0.0405726
0.064495	0.78343
0.114966	1.41704
0.208697	2.18175
0.312041	2.99015
0.446629	3.8641
0.578814	4.65066
0.732629	5.37167
0.872024	5.87419
1.02344	6.33301
