Adsorption isotherm of Carbon Dioxide on InOF-2
DOI: 10.1039/C3ta11548h
Adsorbate Carbon Dioxide: InChIKey CURLTUGMZLYLDI-UHFFFAOYSA-N
Temperature: 295 K
Tabular data in the source: 0
pressure (bar)	uptake (mmol/g)
0.0212345	2.40331
0.146209	14.0268
0.288008	26.2621
0.424999	34.521
0.566797	42.4739
0.720613	48.8974
0.905671	55.9327
1.05708	60.8268
