Adsorption isotherm of Methane on InOF-2
DOI: 10.1039/C3ta11548h
Adsorbate Methane: InChIKey VNWKTOKETHGBQD-UHFFFAOYSA-N
Temperature: 273 K
Tabular data in the source: 0
pressure (bar)	uptake (mmol/g)
0.0212345	0.514995
0.165436	4.12004
0.314445	6.93852
0.554781	11.5268
0.73984	14.7385
0.924898	17.7537
1.06429	19.72
