Adsorption isotherm of Carbon Dioxide on InOF-2-Li+
DOI: 10.1039/C3ta11548h
Adsorbate Carbon Dioxide: InChIKey CURLTUGMZLYLDI-UHFFFAOYSA-N
Temperature: 295 K
Tabular data in the source: 0
pressure (bar)	uptake (mmol/g)
0.0164278	3.93272
0.143806	14.0268
0.302428	22.2857
0.446629	31.1563
0.576411	40.0268
0.744646	48.8974
0.857604	55.6268
1.04266	66.9445
