Adsorption isotherm of Nitrogen on InOF-2
DOI: 10.1039/C3ta11548h
Adsorbate Nitrogen: InChIKey IJGRMHOSHXDMSA-UHFFFAOYSA-N
Temperature: 77 K
Tabular data in the source: 0
pressure (bar)	uptake (mmol/g)
0.00182509	0.441964
0.00182509	7.54717
0.00619484	8.35995
0.0236738	8.93675
0.0695562	9.25138
0.119808	9.43491
0.211573	9.64465
0.283674	9.74953
0.384178	9.82818
0.534934	10.0379
0.578632	10.2477
0.670397	10.4836
0.766531	10.5099
0.858296	10.5099
0.974094	10.5099
