Adsorption isotherm of Carbon Dioxide on InOF-2-Li+
DOI: 10.1039/C3ta11548h
Adsorbate Carbon Dioxide: InChIKey CURLTUGMZLYLDI-UHFFFAOYSA-N
Temperature: 273 K
Tabular data in the source: 0
pressure (bar)	uptake (mmol/g)
0.0140244	4.23861
0.244747	37.2739
0.408176	58.3798
0.674949	92.3327
0.855201	113.439
0.994596	127.815
1.05708	133.015
