Adsorption isotherm of Hydrogen on InOF-2-Li+
DOI: 10.1039/C3ta11548h
Adsorbate Hydrogen: InChIKey UFHFLCQGNIYNRP-UHFFFAOYSA-N
Temperature: 77 K
Tabular data in the source: 0
pressure (bar)	uptake (mmol/g)
0.00441096	0.215363
0.0308479	1.24225
0.0837219	2.68427
0.16784	4.01704
0.263974	5.26242
0.379335	6.48595
0.547571	7.77503
0.720613	8.67083
0.903268	9.47923
1.03065	9.93805
