Adsorption isotherm of Nitrogen on InOF-2
DOI: 10.1039/C3ta11548h
Adsorbate Nitrogen: InChIKey IJGRMHOSHXDMSA-UHFFFAOYSA-N
Temperature: 77 K
Tabular data in the source: 0
pressure (bar)	uptake (mmol/g)
0.00400996	16.48
0.00619484	184.278
0.0105646	196.514
0.0455226	208.749
0.0804806	213.119
0.211573	219.236
0.377623	225.354
0.51964	229.724
0.650733	234.967
0.722834	236.715
0.825523	239.337
0.901993	237.589
0.9588	237.589
0.974094	237.589
