Adsorption isotherm of Carbon Dioxide on InOF-2
DOI: 10.1039/C3ta11548h
Adsorbate Carbon Dioxide: InChIKey CURLTUGMZLYLDI-UHFFFAOYSA-N
Temperature: 273 K
Tabular data in the source: 0
pressure (bar)	uptake (mmol/g)
0.0212345	3.62684
0.112562	17.6974
0.201487	30.2386
0.295218	43.0857
0.412982	52.568
0.528344	60.8268
0.665335	67.8621
0.816747	74.2857
1.04747	81.0151
