Adsorption isotherm of Methane on InOF-2-Li+
DOI: 10.1039/C3ta11548h
Adsorbate Methane: InChIKey VNWKTOKETHGBQD-UHFFFAOYSA-N
Temperature: 295 K
Tabular data in the source: 0
pressure (bar)	uptake (mmol/g)
0.0212345	0.383903
0.235134	3.72676
0.429806	6.61079
0.650915	9.82256
0.787907	12.0511
0.941722	14.1486
1.0691	15.8528
