Adsorption isotherm of Hydrogen on InOF-2
DOI: 10.1039/C3ta11548h
Adsorbate Hydrogen: InChIKey UFHFLCQGNIYNRP-UHFFFAOYSA-N
Temperature: 77 K
Tabular data in the source: 0
pressure (bar)	uptake (mmol/g)
0.0020076	0.412001
0.0404614	1.2641
0.105352	2.31284
0.199083	3.27419
0.336075	3.99519
0.473066	4.60696
0.684562	5.15318
0.884041	5.50276
1.07391	5.80864
