Adsorption isotherm of Hydrogen on InOF-2
DOI: 10.1039/C3ta11548h
Adsorbate Hydrogen: InChIKey UFHFLCQGNIYNRP-UHFFFAOYSA-N
Temperature: 87 K
Tabular data in the source: 0
pressure (bar)	uptake (mmol/g)
0.00681432	0.149816
0.0717051	0.827127
0.21831	1.85402
0.417789	2.59688
0.610058	3.12124
0.828764	3.58007
0.953739	3.8204
1.06189	4.03889
