Adsorption isotherm of Methane on InOF-2-Li+
DOI: 10.1039/C3ta11548h
Adsorbate Methane: InChIKey VNWKTOKETHGBQD-UHFFFAOYSA-N
Temperature: 273 K
Tabular data in the source: 0
pressure (bar)	uptake (mmol/g)
0.0212345	0.383903
0.0957387	2.54693
0.194277	5.16878
0.324058	8.90491
0.492293	12.8377
0.607655	15.8528
0.720613	18.8024
0.850394	21.8831
0.980176	24.7671
1.0667	26.8646
