Adsorption isotherm of Nitrogen on InOF-2
DOI: 10.1039/C3ta11548h
Adsorbate Nitrogen: InChIKey IJGRMHOSHXDMSA-UHFFFAOYSA-N
Temperature: 77 K
Tabular data in the source: 0
pressure (bar)	uptake (mmol/g)
0.00619484	170.295
0.0105646	19.9758
0.0105646	104.749
0.0193041	198.262
0.0498923	207.001
0.113254	213.993
0.314262	220.11
0.489052	227.976
0.679136	234.967
0.891069	240.211
0.96317	236.715
