Adsorption isotherm of Nitrogen on InOF-2
DOI: 10.1039/C3ta11548h
Adsorbate Nitrogen: InChIKey IJGRMHOSHXDMSA-UHFFFAOYSA-N
Temperature: 77 K
Tabular data in the source: 0
pressure (bar)	uptake (mmol/g)
0.00400996	0.913897
0.00400996	8.01911
0.00837971	8.8581
0.0324133	9.19894
0.0673713	9.40869
0.117623	9.59222
0.209388	9.74953
0.305523	9.82818
0.392918	9.93306
0.447539	10.0379
0.513086	10.0904
0.593926	10.3001
0.650733	10.5099
0.731573	10.641
0.880144	10.6147
0.969724	10.5885
