Adsorption isotherm of Nitrogen on InOF-2
DOI: 10.1039/C3ta11548h
Adsorbate Nitrogen: InChIKey IJGRMHOSHXDMSA-UHFFFAOYSA-N
Temperature: 77 K
Tabular data in the source: 0
pressure (bar)	uptake (mmol/g)
0.00182509	6.31116
0.00400996	0.914522
0.00837971	7.86242
0.0280436	8.27755
0.0826654	8.56158
0.202833	8.75822
0.366699	8.86746
0.556783	8.95486
0.659472	8.99856
0.818968	9.0204
0.965355	8.95486
