Adsorption isotherm of Nitrogen on InOF-2-Li+
DOI: 10.1039/C3ta11548h
Adsorbate Nitrogen: InChIKey IJGRMHOSHXDMSA-UHFFFAOYSA-N
Temperature: 77 K
Tabular data in the source: 0
pressure (bar)	uptake (mmol/g)
0.00400996	16.48
0.00400996	316.245
0.0149343	338.967
0.0345982	355.572
0.0739259	365.186
0.143842	368.682
0.220312	372.178
0.320817	376.547
0.403842	380.043
0.541489	381.791
0.659472	385.287
0.803674	385.287
0.991573	383.539
