Adsorption isotherm of Methane on InOF-2
DOI: 10.1039/C3ta11548h
Adsorbate Methane: InChIKey VNWKTOKETHGBQD-UHFFFAOYSA-N
Temperature: 295 K
Tabular data in the source: 0
pressure (bar)	uptake (mmol/g)
0.0236379	0.383903
0.263974	3.9234
0.537957	7.52844
0.718209	9.62592
0.869621	11.4612
1.05228	13.3621
