Adsorption isotherm of Nitrogen on [Zn2(obb)2(bpy)]*DMF
DOI: 10.1021/Ic300778m
Adsorbate Nitrogen: InChIKey IJGRMHOSHXDMSA-UHFFFAOYSA-N
Temperature: 77 K
Tabular data in the source: 0
pressure (bar)	uptake (cm3(STP)/g)
0.0252336	1.39068
0.034251	2.79278
0.0684809	2.06445
0.0810977	2.75979
0.122539	2.73061
0.136953	2.72046
0.162178	2.70269
0.176597	3.39676
0.299115	2.60626
0.353169	2.56819
0.454078	3.90558
0.502726	3.87132
0.751374	3.69622
0.800026	4.36618
0.821648	4.35095
0.850481	5.03487
0.873896	3.60993
0.900931	4.99934
0.924354	4.98285
0.947778	4.96635
0.962192	4.9562
