Adsorption isotherm of Cyclohexane on [Cu2(obb)2(bpy)0.5(DMF)]*2DMF
DOI: 10.1021/Ic300778m
Adsorbate Cyclohexane: InChIKey XDTMQSROBMDMFD-UHFFFAOYSA-N
Temperature: 298 K
Tabular data in the source: 0
pressure (bar)	uptake (wt%)
0.000944283	0.0945626
0.00531243	6.3357
0.00944552	7.51773
0.0149138	8.36879
0.0198219	8.93617
0.0249261	9.26714
0.0307879	9.59811
0.0347571	9.8818
0.0400535	10.1182
0.0444041	10.3073
0.0497018	10.4965
0.0544286	10.7801
0.0595369	10.9693
0.0646438	11.2057
0.0699374	11.5366
0.075231	11.8676
0.079575	12.2931
0.085054	12.766
0.089398	13.1915
0.0946849	13.7589
0.0999745	14.2317
0.104885	14.7045
