Adsorption isotherm of Carbon Dioxide on [Zn2(obb)2(bpy)]*DMF
DOI: 10.1021/Ic300778m
Adsorbate Carbon Dioxide: InChIKey CURLTUGMZLYLDI-UHFFFAOYSA-N
Temperature: 273 K
Tabular data in the source: 0
pressure (bar)	uptake (cm3(STP)/g)
0.0515611	4.20669
0.0755978	5.14542
0.089339	5.92574
0.104788	6.39616
0.158022	8.89606
0.183771	9.68011
0.207807	10.6188
0.236986	11.4039
0.315938	13.4462
0.369146	14.8596
0.420635	16.1173
0.468693	17.3739
0.528751	18.3238
0.588805	19.1185
0.660881	20.5377
0.726076	21.1788
0.787849	22.1293
0.854768	23.0813
0.923398	23.8787
