Adsorption isotherm of Argon on [Cu2(obb)2(bpy)0.5(DMF)]*2DMF
DOI: 10.1021/Ic300778m
Adsorbate Argon: InChIKey XKRFYHLGVUSROY-UHFFFAOYSA-N
Temperature: 87 K
Tabular data in the source: 0
pressure (bar)	uptake (cm3(STP)/g)
0.000372202	61.9716
0.00087552	145.774
0.00199635	32.393
0.00251236	118.308
0.00414074	89.4337
0.0064374	171.826
0.00840837	199.994
0.0553565	216.862
0.0950298	222.468
0.131083	225.26
0.163523	226.645
0.199568	228.028
0.232013	230.118
0.253647	232.216
0.304186	246.969
0.345653	251.165
0.383511	254.659
0.415952	256.045
0.441186	257.436
0.473618	257.413
0.506059	258.799
0.542112	261.59
0.578156	262.973
0.614192	262.948
0.646633	264.333
0.684479	265.715
0.715114	266.398
0.754766	268.483
0.787202	269.164
0.819647	271.254
0.857485	271.227
0.889926	272.613
0.924177	275.406
0.960225	277.493
