Adsorption isotherm of Carbon Dioxide on [Cu2(obb)2(bpy)0.5(DMF)]*2DMF
DOI: 10.1021/Ic300778m
Adsorbate Carbon Dioxide: InChIKey CURLTUGMZLYLDI-UHFFFAOYSA-N
Temperature: 298 K
Tabular data in the source: 0
pressure (bar)	uptake (cm3(STP)/g)
0.104758	5.15447
0.130502	5.7833
0.1597	7.34447
0.183736	8.2832
0.212919	9.22352
0.236963	10.4727
0.264427	11.2573
0.315935	13.291
0.329691	14.6921
0.367442	15.3247
0.394929	17.0406
0.420665	17.359
0.475596	19.0833
0.530535	21.1181
0.594057	23.466
0.661006	25.6597
0.724521	27.6972
0.794908	30.2024
0.856708	32.2393
0.921945	34.5877
1.00433	36.7863
