Adsorption isotherm of Nitrogen on [Cu2(obb)2(bpy)0.5(DMF)]*2DMF
DOI: 10.1021/Ic300778m
Adsorbate Nitrogen: InChIKey IJGRMHOSHXDMSA-UHFFFAOYSA-N
Temperature: 77 K
Tabular data in the source: 0
pressure (bar)	uptake (cm3(STP)/g)
0.000934734	155.633
0.00240662	100.703
0.00833224	187.318
0.0155648	191.538
0.0336081	195.751
0.0840837	199.941
0.127352	204.136
0.172405	205.512
0.203036	205.491
0.303953	208.237
0.354404	208.201
0.399448	208.169
0.448097	208.135
0.498551	208.804
0.552601	208.062
0.60306	209.434
0.648105	209.403
0.703964	210.068
0.754419	210.736
0.797662	210.706
0.835508	212.088
0.873346	212.061
0.905782	212.742
0.932818	214.132
0.96706	215.516
0.981479	216.21
0.99591	219.017
