Adsorption isotherm of Nitrogen on [Cu2(obb)2(bpy)0.5(DMF)]*2DMF
DOI: 10.1021/Ic300778m
Adsorbate Nitrogen: InChIKey IJGRMHOSHXDMSA-UHFFFAOYSA-N
Temperature: 273 K
Tabular data in the source: 0
pressure (bar)	uptake (cm3(STP)/g)
0.0171604	0.315748
0.0480392	0.480544
0.0651844	0.175445
0.0926289	0.183965
0.132088	0.506635
0.159536	0.670366
0.186977	0.523674
0.210998	0.841552
0.238443	0.850071
0.265887	0.85859
0.317353	1.18499
0.370527	1.20149
0.421993	1.52789
0.475174	1.85482
0.528352	2.02654
0.595247	2.04731
0.660439	2.53317
0.72562	2.55341
0.790808	2.88406
0.857704	2.90483
0.922892	3.23549
1.00523	3.41626
