Adsorption isotherm of Hydrogen on [Cu2(obb)2(bpy)0.5(DMF)]*2DMF
DOI: 10.1021/Ic300778m
Adsorbate Hydrogen: InChIKey UFHFLCQGNIYNRP-UHFFFAOYSA-N
Temperature: 77 K
Tabular data in the source: 0
pressure (bar)	uptake (cm3(STP)/g)
0.0221811	0.0221811
0.0314233	29.6648
0.051756	40.4807
0.077634	50.9455
0.0924214	55.479
0.103512	59.3155
0.116451	64.1987
0.155268	72.9134
0.18854	80.2334
0.207024	84.4165
0.236599	89.294
0.32902	102.179
0.395564	110.186
0.462107	115.749
0.687616	132.428
0.756007	135.896
0.883549	142.485
0.926063	144.215
1.01294	148.375
