Adsorption isotherm of Benzene on [Cu2(obb)2(bpy)0.5(DMF)]*2DMF
DOI: 10.1021/Ic300778m
Adsorbate Benzene: InChIKey UHOVQNZJYSORNB-UHFFFAOYSA-N
Temperature: 298 K
Tabular data in the source: 0
pressure (bar)	uptake (wt%)
0.000944283	0.0945626
0.00495379	12.2931
0.00984848	13.3333
0.0147512	14.0898
0.0202316	14.5154
0.0253291	15.0827
0.0300599	15.2246
0.0344079	15.5083
0.0398936	15.7447
0.0448111	15.9811
0.04973	16.1702
0.0544581	16.4066
0.0601346	16.5957
0.064672	16.8794
0.0697802	17.0686
0.0746924	17.4941
0.0792325	17.6832
0.0845234	18.1087
0.0892448	18.5816
0.094345	19.0544
0.0990638	19.6217
0.104922	20.0946
0.109261	20.6619
