Adsorption isotherm of Carbon Dioxide on [Cu2(obb)2(bpy)0.5(DMF)]*2DMF
DOI: 10.1021/Ic300778m
Adsorbate Carbon Dioxide: InChIKey CURLTUGMZLYLDI-UHFFFAOYSA-N
Temperature: 273 K
Tabular data in the source: 0
pressure (bar)	uptake (cm3(STP)/g)
0.0773701	7.47413
0.0928418	8.87583
0.106595	10.1218
0.130662	12.3022
0.158159	14.4837
0.183938	16.5094
0.211436	18.6909
0.237214	20.7167
0.264708	22.7429
0.314539	26.3282
0.369523	30.2256
0.421065	33.6562
0.47433	37.3978
0.529299	40.6743
0.594582	44.8852
0.65985	48.4753
0.726845	52.5316
0.79039	55.8108
0.857373	59.4014
0.92263	62.5259
