Adsorption isotherm of Methane on [Cu2(obb)2(bpy)0.5(DMF)]*2DMF
DOI: 10.1021/Ic300778m
Adsorbate Methane: InChIKey VNWKTOKETHGBQD-UHFFFAOYSA-N
Temperature: 273 K
Tabular data in the source: 0
pressure (bar)	uptake (cm3(STP)/g)
0.266058	7.84312
0.411914	10.2166
0.547467	12.1212
0.691611	14.6493
0.834021	16.4008
1.00563	19.5583
