Adsorption isotherm of Carbon Dioxide on [Zn2(obb)2(bpy)]*DMF
DOI: 10.1021/Ic300778m
Adsorbate Carbon Dioxide: InChIKey CURLTUGMZLYLDI-UHFFFAOYSA-N
Temperature: 298 K
Tabular data in the source: 0
pressure (bar)	uptake (cm3(STP)/g)
0.0772598	2.97299
0.106435	3.60288
0.157927	5.01576
0.185387	5.64513
0.211128	6.11875
0.235157	6.74706
0.314098	8.32367
0.369009	9.27198
0.420491	10.2192
0.471968	11.0113
0.528591	11.8049
0.592072	12.4454
0.660702	13.2428
0.729324	13.7297
0.789382	14.6796
0.858008	15.3218
0.924919	15.9634
