Adsorption isotherm of Hydrogen on [Cu2(obb)2(bpy)0.5(DMF)]*2DMF
DOI: 10.1021/Ic300778m
Adsorbate Hydrogen: InChIKey UFHFLCQGNIYNRP-UHFFFAOYSA-N
Temperature: 87 K
Tabular data in the source: 0
pressure (bar)	uptake (cm3(STP)/g)
0.0295749	9.76524
0.0499076	16.0424
0.077634	23.0153
0.107209	28.9401
0.158965	38.6976
0.218115	47.4051
0.269871	54.7187
0.336414	62.0272
0.406654	68.9852
0.469501	74.8984
0.536044	79.4138
0.602588	84.6275
0.665434	87.7477
0.731978	92.6123
0.80037	96.0797
0.909427	101.628
0.996303	105.089
