Adsorption isotherm of Nitrogen on coated HKUST-1
DOI: 10.1021/Ja509960n
Adsorbate Nitrogen: InChIKey IJGRMHOSHXDMSA-UHFFFAOYSA-N
Temperature: 77 K
Tabular data in the source: 0
pressure (bar)	uptake (cm3(STP)/g)
0.00195066	307.219
0.00331987	282.478
0.00408887	324.747
0.00448276	346.397
0.451239	402.541
0.476729	403.599
0.50038	403.624
0.53311	402.628
0.545846	402.641
0.565877	403.693
0.582251	403.711
0.656808	401.728
0.669543	401.741
0.72043	398.703
0.744081	398.728
0.791385	398.778
0.820494	398.809
0.838688	398.828
0.853205	396.782
0.880495	396.811
0.916846	394.787
