Adsorption isotherm of Nitrogen on moisture treated coated ZnBT 1d
DOI: 10.1021/Ja509960n
Adsorbate Nitrogen: InChIKey IJGRMHOSHXDMSA-UHFFFAOYSA-N
Temperature: 77 K
Tabular data in the source: 0
pressure (bar)	uptake (cm3(STP)/g)
-0.00259246	300.864
-0.00243615	343.016
-0.0023607	363.365
-0.00176783	23.2505
-0.00148217	100.286
-0.00139055	124.996
-0.00132048	143.891
-0.00123964	165.694
-0.00116418	186.043
-0.00103482	220.927
-0.000652157	324.126
-0.000425788	385.173
-0.000258707	430.232
0.000220979	59.5937
0.000307214	82.8498
0.000910864	245.642
0.000980934	264.538
0.00102944	277.619
0.00148756	401.167
0.00153607	414.249
0.00201037	42.1572
0.00260863	203.496
0.00538973	453.504
0.0202331	456.456
0.0387683	455.058
0.0387844	459.418
0.0536224	460.916
0.0777199	459.535
0.0925416	456.672
0.112936	456.733
0.129617	455.33
0.205623	452.65
0.229731	454.176
0.25198	454.242
0.279797	455.779
0.302041	454.392
0.327997	454.47
0.346543	455.979
0.370647	456.051
0.394749	456.123
0.420695	453.294
0.441095	454.808
0.461495	456.323
0.48189	456.384
0.500425	454.986
0.52268	456.506
0.535658	456.545
0.557901	455.158
0.57829	453.765
0.596832	453.821
0.617226	453.882
0.637626	455.396
0.656167	455.452
0.680275	456.977
0.69881	455.579
0.717351	455.635
0.737751	457.149
0.756287	455.751
0.784092	454.381
0.804497	457.349
0.830454	457.427
0.845288	457.471
