Adsorption isotherm of Nitrogen on H2O treated coated HKUST-1 3d
DOI: 10.1021/Ja509960n
Adsorbate Nitrogen: InChIKey IJGRMHOSHXDMSA-UHFFFAOYSA-N
Temperature: 77 K
Tabular data in the source: 0
pressure (bar)	uptake (cm3(STP)/g)
-0.00320733	23.7079
-0.00138796	123.71
-0.00105035	42.2669
-0.000300101	83.5048
0.000375126	220.619
0.000862789	147.424
0.00116289	63.9188
0.00153801	184.538
0.00181937	200.002
0.00187563	103.095
0.00256961	241.24
0.0029635	262.89
0.00298226	163.921
0.00438898	341.242
0.00553311	304.13
0.0057957	318.563
0.00693983	281.451
0.00827153	354.648
0.00845909	364.957
0.0285283	368.072
0.0394632	369.114
0.06319	373.263
0.0814587	377.406
0.101584	383.613
0.119834	386.725
0.174546	394
0.198216	395.056
0.271122	402.35
0.294793	403.406
0.314806	403.427
0.332981	402.415
0.66236	406.888
0.68241	408.972
0.702442	410.024
0.716978	409.008
0.735172	409.028
0.753403	411.109
0.778855	410.105
0.797049	410.124
0.81708	411.176
0.835293	412.227
0.858945	412.252
0.873499	412.267
0.888055	412.283
0.913525	412.31
