Adsorption isotherm of Nitrogen on coated ZnBT
DOI: 10.1021/Ja509960n
Adsorbate Nitrogen: InChIKey IJGRMHOSHXDMSA-UHFFFAOYSA-N
Temperature: 77 K
Tabular data in the source: 0
pressure (bar)	uptake (cm3(STP)/g)
-0.00213433	424.412
-0.00168159	46.5066
-0.00160614	66.8557
9.70151e-05	26.1631
0.000301825	81.3963
0.000377281	101.745
0.000538973	145.35
0.000609039	164.246
0.000684495	184.595
0.000759952	204.944
0.000830018	223.84
0.00118574	319.771
0.00122886	331.399
0.00232297	126.46
0.00275954	244.194
0.00281883	260.183
0.00295896	297.974
0.00321766	367.742
0.00350332	444.778
0.00474296	279.084
0.00684495	345.951
0.0128329	460.794
0.0313898	465.21
0.094455	472.666
0.14638	475.729
0.205699	472.999
0.265029	473.177
0.316943	473.332
0.400381	475.035
0.46156	473.765
0.513501	481.188
0.576539	481.376
0.904709	482.358
0.926957	482.425
