Adsorption isotherm of Nitrogen on IRMOF-1
DOI: 10.1021/Ja509960n
Adsorbate Nitrogen: InChIKey IJGRMHOSHXDMSA-UHFFFAOYSA-N
Temperature: 77 K
Tabular data in the source: 0
pressure (bar)	uptake (cm3(STP)/g)
0.0493455	721.08
0.0711192	725.924
0.0951054	735.564
0.112571	745.188
0.132171	750.026
0.14956	750.069
0.173546	759.709
0.1953	762.158
0.210553	766.986
0.232307	769.435
0.247541	771.868
0.271469	774.322
0.286702	776.755
0.310649	781.604
0.33675	784.064
0.351965	784.101
0.369372	786.539
0.391107	786.593
0.408534	791.426
0.430269	791.48
0.445483	791.517
0.467237	793.966
0.486837	798.805
0.504205	796.453
0.521593	796.496
0.543327	796.549
0.569389	794.218
0.58247	799.041
0.602011	796.694
0.617245	799.127
0.636826	801.57
0.660734	801.629
0.678122	801.672
0.699856	801.725
0.717225	799.373
0.738979	801.822
0.754193	801.859
0.780294	804.319
0.793334	804.351
0.81505	802.009
0.834611	802.058
0.849825	802.095
0.873772	806.945
0.895488	804.603
0.910721	807.036
0.936764	802.31
