Adsorption isotherm of Nitrogen on CuBTC
DOI: 10.1021/Ja509960n
Adsorbate Nitrogen: InChIKey IJGRMHOSHXDMSA-UHFFFAOYSA-N
Temperature: 77 K
Tabular data in the source: 0
pressure (bar)	uptake (cm3(STP)/g)
0.0541307	375.315
0.0742749	382.553
0.0962198	388.762
0.114489	392.905
0.134521	393.957
0.154571	396.04
0.174603	397.092
0.196491	400.209
0.214666	399.197
0.231059	400.245
0.25111	402.328
0.271142	403.381
0.291172	404.433
0.311186	404.454
0.329398	405.504
0.347591	405.523
0.367623	406.576
0.385817	406.595
0.405849	407.647
0.425843	406.637
0.447657	405.63
0.465869	406.68
0.485881	406.701
0.507714	406.724
0.524107	407.773
0.542301	407.792
0.564152	408.846
0.584165	408.867
0.60234	407.856
0.622353	407.877
0.636927	408.923
0.656939	408.945
0.678772	408.968
0.702424	408.993
0.720636	410.043
0.738829	410.062
0.757023	410.082
0.778836	409.074
0.793392	409.089
0.81528	412.205
0.838913	411.199
0.853486	412.246
0.877157	413.302
0.897151	412.292
0.911687	411.277
0.940816	412.339
