Adsorption isotherm of Nitrogen on moisture treated coated MOF-5 1d
DOI: 10.1021/Ja509960n
Adsorbate Nitrogen: InChIKey IJGRMHOSHXDMSA-UHFFFAOYSA-N
Temperature: 77 K
Tabular data in the source: 0
pressure (bar)	uptake (cm3(STP)/g)
0.0162945	665.908
0.0207586	680.291
0.0295891	697.079
0.036168	704.281
0.0427665	713.878
0.536827	798.928
0.565062	796.603
0.586797	796.656
0.615071	799.121
0.630286	799.159
0.647674	799.202
0.665061	799.244
0.686815	801.693
0.712917	804.153
0.734651	804.206
0.747672	801.843
0.77158	801.902
0.775928	801.913
0.802009	801.977
0.823725	799.636
0.841112	799.678
0.865059	804.528
