Adsorption isotherm of Nitrogen on ZnBT
DOI: 10.1021/Ja509960n
Adsorbate Nitrogen: InChIKey IJGRMHOSHXDMSA-UHFFFAOYSA-N
Temperature: 77 K
Tabular data in the source: 0
pressure (bar)	uptake (cm3(STP)/g)
0.00919487	479.679
0.0166435	488.422
0.0500436	495.789
0.0704437	497.304
0.092698	498.824
0.107525	497.415
0.135336	497.498
0.153877	497.553
0.168715	499.051
0.185396	497.648
0.200223	496.239
0.228039	497.775
0.246581	497.831
0.263266	497.881
0.2781	497.925
0.30777	499.467
0.324451	498.064
0.339283	498.108
0.359678	498.169
0.37451	498.214
0.404171	496.849
0.418997	495.44
0.439397	496.954
0.459792	497.015
0.478343	499.978
0.500592	500.044
0.509862	500.072
0.537674	500.155
0.558063	498.763
0.572896	498.807
0.587728	498.852
0.617388	497.487
0.635934	498.996
0.65262	499.046
0.678572	497.67
0.698967	497.731
0.713799	497.775
0.728632	497.82
0.750875	496.433
0.774983	497.958
0.79167	498.008
0.8028	499.495
0.826892	496.66
0.854703	496.743
0.863974	496.771
0.888071	495.39
0.91032	495.456
0.921444	495.49
