Adsorption isotherm of Nitrogen on IRMOF-1
DOI: 10.1021/Ja509960n
Adsorbate Nitrogen: InChIKey IJGRMHOSHXDMSA-UHFFFAOYSA-N
Temperature: 77 K
Tabular data in the source: 0
pressure (bar)	uptake (cm3(STP)/g)
0.0479724	19.2799
0.0675337	19.3282
0.0914418	19.3871
0.106695	24.2151
0.126256	24.2634
0.143605	19.5157
0.165379	24.3598
0.187114	24.4134
0.204482	22.061
0.226236	24.5099
0.245777	22.1628
0.263165	22.2057
0.282746	24.6492
0.30448	24.7028
0.319695	24.7403
0.345777	24.8046
0.360971	22.4468
0.380552	24.8903
0.400132	27.3338
0.41752	27.3767
0.432734	27.4142
0.458816	27.4785
0.476204	27.5214
0.495765	27.5696
0.5175	27.6232
0.5371	32.4619
0.556681	34.9054
0.571895	34.9429
0.59361	32.6012
0.617518	32.6602
0.634925	35.0983
0.65668	37.5471
0.67626	39.9906
0.693667	42.4287
0.708863	40.071
0.732771	40.1299
0.750158	40.1728
0.76972	40.221
0.7893	42.6645
0.811054	45.1134
0.828462	47.5515
0.852389	50.0057
0.86543	50.0378
0.887184	52.4867
0.902398	52.5242
0.92196	52.5724
