Adsorption isotherm of Nitrogen on ZnBT
DOI: 10.1021/Ja509960n
Adsorbate Nitrogen: InChIKey IJGRMHOSHXDMSA-UHFFFAOYSA-N
Temperature: 77 K
Tabular data in the source: 0
pressure (bar)	uptake (cm3(STP)/g)
0.0426597	4.48811
0.061195	3.09008
0.0760275	3.13447
0.0945736	4.64345
0.111265	6.14688
0.129806	6.20236
0.146482	3.34528
0.168737	4.86536
0.185428	6.36879
0.209531	6.44091
0.222509	6.47975
0.242898	5.08727
0.263299	6.6018
0.279991	8.10523
0.322623	5.32582
0.344872	5.39239
0.363418	6.90137
0.381959	6.95685
0.4005	7.01233
0.420895	7.07335
0.441284	5.68087
0.459824	5.73635
0.47836	4.33832
0.49876	5.85285
0.519149	4.46037
0.535836	4.5103
0.554377	4.56578
0.574776	6.08031
0.595176	7.59484
0.613712	6.19681
0.635956	4.80988
0.656361	7.77791
0.676745	4.93193
0.693431	4.98186
0.710118	5.03179
0.728664	6.54077
0.749059	6.6018
0.763886	5.19267
0.786135	5.25925
0.80653	5.32027
0.830632	5.39239
0.849184	8.35488
0.871433	8.42145
0.884412	8.46028
0.919639	8.56569
