Adsorption isotherm of Nitrogen on H2O treated HKUST-1 3d
DOI: 10.1021/Ja509960n
Adsorbate Nitrogen: InChIKey IJGRMHOSHXDMSA-UHFFFAOYSA-N
Temperature: 77 K
Tabular data in the source: 0
pressure (bar)	uptake (cm3(STP)/g)
-0.00165055	9.2766
0.0183624	9.29784
0.0311167	10.3423
0.0474722	9.32873
0.0874794	8.34025
0.105692	9.39051
0.123904	10.4408
0.134821	10.4523
0.158472	10.4774
0.189401	10.5103
0.202174	12.5857
0.229446	11.5837
0.244001	11.5991
0.49149	14.9545
0.575162	14.0124
0.767995	13.1861
0.788065	16.3002
0.811717	16.3253
0.844465	16.36
0.868079	14.3232
0.891749	15.3793
0.908198	19.5204
