Adsorption isotherm of Nitrogen on ZnBT
DOI: 10.1021/Ja509960n
Adsorbate Nitrogen: InChIKey IJGRMHOSHXDMSA-UHFFFAOYSA-N
Temperature: 77 K
Tabular data in the source: 0
pressure (bar)	uptake (cm3(STP)/g)
0.0499143	460.905
0.072163	460.972
0.0925578	461.033
0.111104	462.542
0.131498	462.603
0.153747	462.669
0.16858	462.714
0.183412	462.758
0.207504	459.923
0.229759	461.443
0.252013	462.963
0.26684	461.554
0.279818	461.593
0.303922	461.665
0.324322	463.18
0.344711	461.787
0.36696	461.854
0.391062	461.926
0.402181	460.506
0.420727	462.015
0.439274	463.524
0.457814	463.579
0.472652	465.077
0.498614	466.608
0.51716	468.117
0.539409	468.184
0.55609	466.78
0.574631	466.836
0.59688	466.902
0.613566	466.952
0.637675	468.478
0.659923	468.544
0.678464	468.6
0.697	467.202
0.719248	467.268
0.735935	467.318
0.756319	464.472
0.774854	463.074
0.802671	464.611
0.826779	466.137
0.84532	466.192
0.865715	466.253
0.886109	466.314
0.906498	464.922
0.921331	464.966
