Adsorption isotherm of Nitrogen on moisture treated MOF-5 2h
DOI: 10.1021/Ja509960n
Adsorbate Nitrogen: InChIKey IJGRMHOSHXDMSA-UHFFFAOYSA-N
Temperature: 77 K
Tabular data in the source: 0
pressure (bar)	uptake (cm3(STP)/g)
0.000644231	79.0435
0.000761364	93.4151
0.0023817	292.221
0.0024663	35.9342
0.00251835	308.988
0.00262247	55.0963
0.00269405	330.546
0.00309101	112.582
0.00410616	237.136
0.00426234	256.298
0.00437947	270.669
0.00504322	352.108
0.00553778	146.121
0.00588918	189.236
0.00604536	208.398
0.00735335	368.88
0.00752905	390.438
0.00768522	409.6
0.00786743	165.289
0.00788045	433.552
0.00811471	462.295
0.00821232	474.272
0.0106201	503.02
0.0151427	524.588
0.0261857	546.172
0.045864	560.592
0.117842	591.907
0.139597	594.356
0.150503	599.173
0.187452	599.265
0.206993	596.918
0.226574	599.361
0.246194	606.595
0.270141	611.444
0.294068	613.899
0.315803	613.952
0.34631	623.608
