Adsorption isotherm of Nitrogen on IRMOF-1
DOI: 10.1021/Ja509960n
Adsorbate Nitrogen: InChIKey IJGRMHOSHXDMSA-UHFFFAOYSA-N
Temperature: 77 K
Tabular data in the source: 0
pressure (bar)	uptake (cm3(STP)/g)
0.0513628	701.923
0.0731951	713.953
0.0949883	721.192
0.114608	728.426
0.132015	730.864
0.147269	735.692
0.171216	740.542
0.19299	745.386
0.210397	747.824
0.232151	750.273
0.249578	755.106
0.269159	757.55
0.286546	757.593
0.310513	764.837
0.327901	764.88
0.345308	767.318
0.369236	769.773
0.388796	769.821
0.408377	772.264
0.42792	769.917
0.445346	774.751
0.464907	774.799
0.482275	772.446
0.499702	777.28
0.52361	777.339
0.538824	777.376
0.562752	779.831
0.58014	779.873
0.597528	779.916
0.619282	782.365
0.636669	782.408
0.660558	780.072
0.682312	782.521
0.697526	782.558
0.714914	782.601
0.734476	782.649
0.754036	782.697
0.773598	782.746
0.795352	785.194
0.814893	782.847
0.832301	785.286
0.85619	782.949
0.873597	785.387
0.884464	785.414
0.910545	785.478
0.932261	783.137
