Adsorption isotherm of Nitrogen on CuBTC
DOI: 10.1021/Ja509960n
Adsorbate Nitrogen: InChIKey IJGRMHOSHXDMSA-UHFFFAOYSA-N
Temperature: 77 K
Tabular data in the source: 0
pressure (bar)	uptake (cm3(STP)/g)
0.047566	14.4835
0.0711989	13.4776
0.0893926	13.4969
0.107624	15.5781
0.12398	14.5646
0.147631	14.5896
0.165825	14.609
0.184019	14.6283
0.20767	14.6534
0.224044	14.6707
0.244057	14.692
0.264088	15.7442
0.282282	15.7635
0.300439	13.7209
0.32409	13.746
0.344122	14.7982
0.362316	14.8175
0.384166	15.8716
0.40418	15.8928
0.420554	15.9102
0.436928	15.9276
0.45876	15.9507
0.475134	15.9681
0.498805	17.0242
0.520638	17.0473
0.538812	16.0357
0.553349	15.0202
0.578819	15.0472
0.598851	16.0994
0.613425	17.1458
0.635257	17.1689
0.65527	17.1902
0.671644	17.2076
0.689838	17.2269
0.709851	17.2481
0.73896	17.279
0.753516	17.2944
0.76809	18.3408
0.788083	17.3311
0.800819	17.3446
0.824471	17.3697
0.849998	20.4896
0.868173	19.478
0.884547	19.4953
0.908236	21.5823
0.933744	23.6713
