Adsorption isotherm of Nitrogen on CuBTC
DOI: 10.1021/Ja509960n
Adsorbate Nitrogen: InChIKey IJGRMHOSHXDMSA-UHFFFAOYSA-N
Temperature: 77 K
Tabular data in the source: 0
pressure (bar)	uptake (cm3(STP)/g)
0.058032	389.752
0.0726432	392.861
0.0945505	397.008
0.114638	401.153
0.143786	403.245
0.156522	403.259
0.172933	405.338
0.192984	407.421
0.220312	409.512
0.236686	409.53
0.251259	410.576
0.276731	410.603
0.294924	410.622
0.309498	411.669
0.333187	413.756
0.347723	412.74
0.373175	411.736
0.389606	414.846
0.404161	414.862
0.425955	412.823
0.447788	412.846
0.489708	417.014
0.50792	418.065
0.526114	418.084
0.551585	418.111
0.575219	417.105
0.597107	420.221
0.617082	418.181
0.638896	417.173
0.662566	418.229
0.684417	419.283
0.698953	418.267
0.720786	418.291
0.73354	419.335
0.759011	419.362
0.773566	419.378
0.799037	419.405
0.822707	420.461
0.842721	420.482
0.862733	420.503
0.879089	419.49
0.897264	418.478
0.911819	418.493
0.928175	417.48
