Adsorption isotherm of Nitrogen on IRMOF-1
DOI: 10.1021/Ja509960n
Adsorbate Nitrogen: InChIKey IJGRMHOSHXDMSA-UHFFFAOYSA-N
Temperature: 77 K
Tabular data in the source: 0
pressure (bar)	uptake (cm3(STP)/g)
0.00425583	522.166
0.00431439	529.352
0.00450962	553.305
0.00685879	574.867
0.009247	601.22
0.0115962	622.783
0.0160797	639.561
0.0228344	668.32
0.0447839	694.721
0.0535558	704.324
0.079735	716.364
0.103702	723.609
0.114569	723.636
0.127688	733.249
0.151615	735.703
0.16685	738.136
0.188624	742.98
0.221264	747.851
0.238691	752.684
0.258272	755.128
0.275679	757.566
0.2887	755.203
0.310474	760.047
0.332228	762.496
0.362676	764.966
0.388777	767.426
0.404011	769.858
0.419245	772.291
0.423572	769.907
0.451847	772.371
0.469254	774.81
0.490989	774.863
0.506203	774.901
0.523591	774.944
0.540978	774.986
0.554019	775.019
0.575773	777.467
0.590987	777.505
0.599681	777.526
0.62359	777.585
0.64319	782.424
0.662751	782.472
0.690987	780.147
0.695314	777.762
0.714876	777.81
0.736649	782.654
0.749671	780.291
0.760518	777.923
0.784465	782.772
0.806239	787.616
0.81272	782.842
0.832301	785.286
0.856209	785.344
0.871423	785.382
0.895293	780.65
0.895331	785.441
0.91272	785.484
0.93228	785.532
