Adsorption isotherm of Nitrogen on CuBTC
DOI: 10.1021/Ja509960n
Adsorbate Nitrogen: InChIKey IJGRMHOSHXDMSA-UHFFFAOYSA-N
Temperature: 77 K
Tabular data in the source: 0
pressure (bar)	uptake (cm3(STP)/g)
-0.00136921	24.7408
0.000487664	126.805
0.0012004	165.981
0.00195066	107.219
0.00262588	244.333
0.00294474	261.859
0.00300101	64.9516
0.00335738	84.5396
0.0037325	205.159
0.00444524	44.3346
0.004464	145.366
0.00487664	268.046
0.00517673	184.542
0.00521425	286.603
0.00590823	324.749
0.00633962	348.46
0.00673351	370.11
0.00738998	306.193
0.00769009	222.689
0.0122854	375.271
0.0287721	381.474
0.0397446	384.578
0.0726619	393.892
0.105486	398.05
0.129212	402.199
0.156558	405.321
0.18023	406.377
0.205738	408.466
0.234866	409.528
0.265795	409.56
0.314975	412.705
0.32771	412.719
