Adsorption isotherm of Nitrogen on CuBTC
DOI: 10.1021/Ja509960n
Adsorbate Nitrogen: InChIKey IJGRMHOSHXDMSA-UHFFFAOYSA-N
Temperature: 77 K
Tabular data in the source: 0
pressure (bar)	uptake (cm3(STP)/g)
0.0561751	387.688
0.0726432	392.861
0.0926748	393.913
0.109124	398.054
0.134632	400.143
0.163705	398.112
0.562257	404.72
0.598701	407.852
0.620496	405.813
0.647748	403.78
0.680516	404.846
0.705987	404.873
0.76235	402.871
0.773266	402.882
0.798699	400.848
0.818694	399.838
0.842346	399.863
0.85872	399.88
0.876895	398.869
0.902365	398.896
0.916921	398.911
0.931456	397.896
