Adsorption isotherm of Nitrogen on IRMOF-1
DOI: 10.1021/Ja509960n
Adsorbate Nitrogen: InChIKey IJGRMHOSHXDMSA-UHFFFAOYSA-N
Temperature: 77 K
Tabular data in the source: 0
pressure (bar)	uptake (cm3(STP)/g)
0.052443	567.794
0.0764292	577.434
0.0917216	587.052
0.113495	591.897
0.130903	594.335
0.150484	596.778
0.167871	596.821
0.198339	601.687
0.21363	611.305
0.233192	611.353
0.248425	613.786
0.26364	613.824
0.289722	613.888
0.309322	618.727
0.326729	621.165
0.34631	623.608
0.368025	621.267
0.385432	623.705
0.404994	623.753
0.424575	626.196
0.444155	628.64
0.461543	628.683
0.481104	628.731
0.502838	628.785
0.520227	628.827
0.542	633.672
0.559349	628.924
0.57893	631.367
0.59849	631.416
0.620225	631.469
0.635439	631.507
0.657193	633.956
0.676736	631.609
0.696297	631.657
0.715858	631.705
0.735439	634.148
0.757174	634.202
0.774541	631.85
0.791949	634.288
0.81151	634.336
0.833245	634.39
0.852806	634.438
0.86802	634.475
0.887582	634.524
0.91149	634.583
0.928877	634.625
