Adsorption isotherm of Nitrogen on moisture treated ZnBT 1d
DOI: 10.1021/Ja509960n
Adsorbate Nitrogen: InChIKey IJGRMHOSHXDMSA-UHFFFAOYSA-N
Temperature: 77 K
Tabular data in the source: 0
pressure (bar)	uptake (cm3(STP)/g)
0.304078	3.81684
0.430149	2.74058
0.90665	5.61985
