Adsorption isotherm of Nitrogen on pristine ZnBT
DOI: 10.1021/Ja509960n
Adsorbate Nitrogen: InChIKey IJGRMHOSHXDMSA-UHFFFAOYSA-N
Temperature: 77 K
Tabular data in the source: 0
pressure (bar)	uptake (cm3(STP)/g)
-0.00227446	386.621
-0.00212894	425.866
-0.00206427	443.308
8.62356e-05	23.2561
0.000377281	101.745
0.000463517	125.001
0.000533583	143.897
0.000603649	162.793
0.000689885	186.049
0.00201576	43.6107
0.00208043	61.0527
0.0021505	79.9483
0.00262479	207.857
0.00268948	225.299
0.00275415	242.741
0.0028835	277.625
0.0029374	292.16
0.0030452	321.23
0.00312065	341.579
0.00320689	364.835
0.003568	462.22
0.00467829	261.642
0.00919487	479.679
0.0166435	488.422
0.0370706	497.204
0.11865	497.448
0.213201	496.277
0.296629	495.074
0.352246	493.787
0.391192	496.81
0.433841	498.391
0.602555	497.442
0.66374	497.626
0.732329	494.924
0.808346	495.151
0.873244	496.799
