Adsorption isotherm of Nitrogen on coated ZnBT
DOI: 10.1021/Ja509960n
Adsorbate Nitrogen: InChIKey IJGRMHOSHXDMSA-UHFFFAOYSA-N
Temperature: 77 K
Tabular data in the source: 0
pressure (bar)	uptake (cm3(STP)/g)
0.0499574	472.533
0.0740549	471.152
0.109293	474.164
0.129682	472.772
0.166769	474.336
0.189012	472.949
0.226099	474.514
0.246488	473.121
0.28543	474.691
0.305819	473.299
0.326213	473.36
0.346613	474.874
0.366998	472.028
0.381836	473.526
0.424478	473.654
0.441171	475.157
0.456009	476.655
0.478269	479.629
0.502382	482.608
0.537609	482.713
0.559858	482.78
0.593231	482.88
0.613621	481.487
0.632166	482.996
0.656274	484.522
0.672961	484.572
0.689642	483.168
0.713746	483.24
0.730432	483.29
0.754541	484.816
0.77493	483.423
0.791616	483.473
0.806449	483.518
0.824984	482.12
0.850941	482.197
0.871336	482.258
0.888023	482.308
0.945504	483.934
