Adsorption isotherm of Carbon Dioxide on Zeolite 5A
DOI: 10.1021/jacs.5b00838
Article source: Figure 7
Adsorbate Carbon Dioxide: InChIKey CURLTUGMZLYLDI-UHFFFAOYSA-N
Kind: experiment
Temperature: 313 K
Tabular data in the source: 0
pressure (bar)	uptake (mmol/g)
0	0
0.003702	0.762073
0.021179	2.12341
0.065618	3.29549
0.130086	3.86985
0.194462	4.22651
0.25202	4.4468
0.319684	4.58593
0.367055	4.69692
0.455002	4.83696
0.546328	4.97716
0.651154	5.06354
0.752598	5.14978
0.857424	5.23616
0.945336	5.29457
1.05353	5.3539
1.12454	5.41154
1.1854	5.44151
1.20231	5.46949
