Adsorption isotherm of Water on Zn(pyz)2(SiF6)
DOI: 10.1021/jacs.5b00838
Article source: Figure 7
Adsorbate Water: InChIKey XLYOFNOQVPJJNP-UHFFFAOYSA-N
Kind: experiment
Temperature: 313 K
Tabular data in the source: 0
pressure (bar)	uptake (mmol/g)
0.005511	3.12861
0.007712	4.18383
0.010088	4.82384
0.012277	5.23756
0.013736	5.46306
0.017561	5.83801
0.018111	6.10182
0.02012	6.62886
0.022684	7.64611
0.024155	8.51311
0.029073	9.03832
0.034717	9.41213
0.040902	9.63465
0.043449	9.70852
0.050544	9.93048
0.052181	9.96718
0.057818	10.0014
0.061274	10.0747
