Adsorption isotherm of Carbon Dioxide on MIL-100(Fe)
DOI: 10.1021/jacs.5b00838
Article source: Figure 7
Adsorbate Carbon Dioxide: InChIKey CURLTUGMZLYLDI-UHFFFAOYSA-N
Kind: experiment
Temperature: 313 K
Tabular data in the source: 0
pressure (bar)	uptake (mmol/g)
0.00338	7.6e-05
0.027042	0.054663
0.067606	0.163685
0.111549	0.272783
0.158873	0.408984
0.209577	0.491207
0.260282	0.57343
0.321127	0.682908
0.371831	0.765131
0.446197	0.901941
0.540845	1.06624
0.642254	1.20365
0.743662	1.34107
0.848451	1.45154
0.936338	1.56163
1.03775	1.67202
1.11549	1.75485
1.16958	1.83715
1.18986	1.83761
