Adsorption isotherm of Carbon Dioxide on MIL-100(Fe)
DOI: 10.1021/jacs.5b00838
Article source: Figure 7
Adsorbate Carbon Dioxide: InChIKey CURLTUGMZLYLDI-UHFFFAOYSA-N
Kind: experiment
Temperature: 298 K
Tabular data in the source: 0
pressure (bar)	uptake (mmol/g)
0	0
0.023761	0.048828
0.067337	0.146484
0.114875	0.253906
0.162397	0.351562
0.21783	0.458984
0.265337	0.546875
0.324748	0.673828
0.380166	0.771484
0.455381	0.908203
0.546418	1.06445
0.649296	1.2207
0.744264	1.36719
0.839232	1.51367
0.946042	1.66016
1.05284	1.79688
1.11615	1.89453
1.18338	1.97266
1.20321	2.03125
