Adsorption isotherm of Carbon Dioxide on Ni2(dobdc)
DOI: 10.1021/jacs.5b00838
Article source: Figure 7
Adsorbate Carbon Dioxide: InChIKey CURLTUGMZLYLDI-UHFFFAOYSA-N
Kind: experiment
Temperature: 313 K
Tabular data in the source: 0
pressure (bar)	uptake (mmol/g)
0	0
0.013766	0.487107
0.041194	1.21807
0.082228	2.05776
0.126629	2.84354
0.18452	3.46777
0.242343	3.92984
0.3069	4.28409
0.361253	4.55681
0.439369	4.91168
0.534401	5.18623
0.643004	5.48842
0.748182	5.70938
0.849948	5.87612
0.944933	6.04256
1.04331	6.20916
1.12132	6.32078
1.17898	6.40446
1.19934	6.4324
