Adsorption isotherm of Carbon Dioxide on Zeolite 13X
DOI: 10.1021/jacs.5b00838
Article source: Figure 7
Adsorbate Carbon Dioxide: InChIKey CURLTUGMZLYLDI-UHFFFAOYSA-N
Kind: experiment
Temperature: 313 K
Tabular data in the source: 0
pressure (bar)	uptake (mmol/g)
0	0
0.004114	0.86789
0.025542	2.22431
0.070242	3.12023
0.131639	3.77247
0.196209	4.18071
0.250524	4.45312
0.314957	4.69864
0.36918	4.86258
0.453849	5.05432
0.541898	5.24614
0.653564	5.38426
0.751709	5.52207
0.859949	5.60587
0.947929	5.71634
1.05279	5.80006
1.12382	5.85591
1.18471	5.91152
1.20838	5.91205
