Adsorption isotherm of Carbon Dioxide on AX-21
DOI: 10.1021/jacs.5b00838
Article source: Figure 6a
Adsorbate Carbon Dioxide: InChIKey CURLTUGMZLYLDI-UHFFFAOYSA-N
Kind: experiment
Temperature: 313 K
Tabular data in the source: 0
pressure (bar)	uptake (mmol/g)
0	0
0.029316	0.0623
0.04886	0.116956
0.074919	0.163585
0.100977	0.225961
0.123779	0.280541
0.149837	0.327169
0.172638	0.381749
0.198697	0.428377
0.2443	0.529662
0.299674	0.63859
0.348534	0.731924
0.397394	0.825258
0.446254	0.910718
0.498371	1.00398
0.550489	1.08936
0.599349	1.17482
0.651466	1.26808
0.697068	1.33786
0.745928	1.4312
0.801303	1.50863
0.850163	1.58622
0.899023	1.6638
0.947883	1.73351
1	1.8189
