Adsorption isotherm of Nitrogen on AX-21
DOI: 10.1021/jacs.5b00838
Article source: Figure 6a
Adsorbate Nitrogen: InChIKey IJGRMHOSHXDMSA-UHFFFAOYSA-N
Kind: experiment
Temperature: 313 K
Tabular data in the source: 0
pressure (bar)	uptake (mmol/g)
0	0
0.055556	0.01581
0.098039	0.031621
0.150327	0.055336
0.202614	0.071146
0.248366	0.086957
0.297386	0.102767
0.349673	0.110672
0.398693	0.134387
0.45098	0.142292
0.5	0.158103
0.552288	0.173913
0.601307	0.181818
0.653595	0.197628
0.699346	0.213439
0.751634	0.229249
0.800654	0.245059
0.849673	0.26087
0.898693	0.27668
0.95098	0.29249
1.00327	0.3083
