Adsorption isotherm of Carbon Dioxide on Mg2(dobdc)
DOI: 10.1021/jacs.5b00838
Article source: Figure 7
Adsorbate Carbon Dioxide: InChIKey CURLTUGMZLYLDI-UHFFFAOYSA-N
Kind: experiment
Temperature: 313 K
Tabular data in the source: 0
pressure (bar)	uptake (mmol/g)
0	0
0.003735	0.789116
0.021333	2.20408
0.062704	3.56463
0.120876	4.46259
0.189096	5.0068
0.247037	5.36054
0.315153	5.65986
0.366214	5.82313
0.447916	6.09524
0.539793	6.31293
0.648667	6.53061
0.750743	6.7483
0.856195	6.91156
0.944649	7.07483
1.04669	7.21088
1.12154	7.34694
1.18275	7.40136
1.20657	7.45578
