Adsorption isotherm of Water on AX-21
DOI: 10.1021/jacs.5b00838
Article source: Figure 6b
Adsorbate Water: InChIKey XLYOFNOQVPJJNP-UHFFFAOYSA-N
Kind: experiment
Temperature: 313 K
Tabular data in the source: 0
pressure (bar)	uptake (mmol/g)
0.004118	0
0.005851	0.182885
0.011919	0.028739
0.014087	0.134812
0.016037	0.130109
0.018421	0.124362
0.020155	0.120181
0.022105	0.284255
0.024272	0.27903
0.026656	0.273282
0.02904	0.43631
0.031424	0.599339
0.033158	0.763935
0.034675	0.760277
0.037276	1.09156
0.039009	1.42493
0.041176	1.75726
0.043127	2.09011
0.045077	2.92929
0.047028	4.2748
0.048978	6.29541
0.050929	9.83501
0.052879	16.9189
0.055046	25.5213
0.057214	34.2924
0.059381	39.1817
0.061331	40.5272
0.063282	41.0289
0.065016	41.531
