Adsorption isotherm of Carbon Dioxide on Zn(pyz)2(SiF6)
DOI: 10.1021/jacs.5b00838
Article source: Figure 7
Adsorbate Carbon Dioxide: InChIKey CURLTUGMZLYLDI-UHFFFAOYSA-N
Kind: experiment
Temperature: 313 K
Tabular data in the source: 0
pressure (bar)	uptake (mmol/g)
0	0
0.00354	0.6893
0.028319	1.70782
0.053097	2.07819
0.084956	2.25309
0.152212	2.42798
0.247788	2.52058
0.339823	2.56173
0.453097	2.60288
0.587611	2.64403
0.722124	2.68519
0.881416	2.72634
1.03363	2.73663
1.13274	2.7572
