Adsorption isotherm of Carbon Dioxide on CuBTC
DOI: 10.1021/jacs.5b00838
Article source: Figure 7
Adsorbate Carbon Dioxide: InChIKey CURLTUGMZLYLDI-UHFFFAOYSA-N
Kind: experiment
Temperature: 313 K
Tabular data in the source: 0
pressure (bar)	uptake (mmol/g)
0	0
0.017064	0.135979
0.057835	0.245375
0.105431	0.409162
0.153051	0.600069
0.200647	0.763856
0.251634	0.927721
0.309446	1.14598
0.360455	1.33696
0.435263	1.60984
0.527043	1.91022
0.629015	2.23794
0.734378	2.56575
0.836327	2.86636
0.928107	3.16674
1.03003	3.44023
1.10819	3.65894
1.16256	3.82288
1.18975	3.90485
