Adsorption isotherm of Water on La2Cu
DOI: 10.1246/Cl.140249
Adsorbate Water: InChIKey XLYOFNOQVPJJNP-UHFFFAOYSA-N
Temperature: 298 K
Tabular data in the source: 0
pressure (bar)	uptake (mol/mol)
0.000111408	0.0497512
0.000222816	0.323383
0.000612741	0.79602
0.00116978	1.24378
0.00155971	1.36816
0.00245097	1.61692
0.00334223	1.8408
0.00434491	2.08955
0.00612741	2.51244
0.00790995	3.13433
0.00857841	3.43284
0.00913544	3.8806
0.00980389	4.35323
0.009971	4.70149
0.0106394	5.07463
0.0110851	5.62189
0.0116421	6.09453
0.0120878	6.51741
0.0134803	7.21393
0.0143159	7.46269
0.0171568	7.8607
0.0183266	7.9602
0.0211118	8.23383
0.0245097	8.55721
0.0261808	8.68159
0.0293002	8.9801
