Adsorption isotherm of Methanol on La2Cu
DOI: 10.1246/Cl.140249
Adsorbate Methanol: InChIKey OKKJLVBELUTLKV-UHFFFAOYSA-N
Temperature: 298 K
Tabular data in the source: 0
pressure (bar)	uptake (mol/mol)
0.000597482	0.0497512
0.00119496	0.870647
0.00358489	1.59204
0.00597482	2.11443
0.0119496	2.51244
0.0167295	2.66169
0.0194181	2.71144
0.027783	2.8607
0.0325627	2.9602
0.0355502	3.00995
0.0522798	3.18408
0.0603457	3.28358
0.069308	3.35821
0.0776727	3.45771
0.0857387	3.48259
0.0941035	3.55721
0.106651	3.68159
0.115015	3.78109
0.122783	3.85572
0.131446	3.95522
0.139811	4.05473
0.148176	4.1791
0.157138	4.27861
0.164905	4.42786
