Adsorption isotherm of Ethanol on La2Cu
DOI: 10.1246/Cl.140249
Adsorbate Ethanol: InChIKey LFQSCWFLJHTTHZ-UHFFFAOYSA-N
Temperature: 298 K
Tabular data in the source: 0
pressure (bar)	uptake (mol/mol)
0.000279433	0.0497512
0.00125744	0.223881
0.00195603	0.945274
0.00335319	1.81592
0.00461064	2.1393
0.0068461	2.73632
0.00740496	2.78607
0.010339	2.98507
0.0149496	3.23383
0.0183029	3.33333
0.0227738	3.45771
0.0248695	3.58209
0.0297596	3.73134
0.035488	3.95522
0.0414958	4.10448
0.0480624	4.22886
0.0543496	4.37811
0.0613355	4.50249
0.0679021	4.55224
0.0718142	4.60199
0.0757262	4.70149
