Adsorption isotherm of Hydrogen on C35H27N7O9Zn2 Treated
DOI: 10.1021/Ic800854y
Adsorbate Hydrogen: InChIKey UFHFLCQGNIYNRP-UHFFFAOYSA-N
Temperature: 77 K
Tabular data in the source: 0
pressure (bar)	uptake (cm3(STP)/g)
0.00771021	12.3373
0.0128503	23.3991
0.0179905	39.1418
0.0282708	51.9036
0.035981	58.2835
0.0462613	64.2369
0.0539715	70.1912
0.0591116	73.5934
0.0668218	76.9946
0.074532	79.9703
0.0899524	84.645
0.107943	90.5952
0.120793	93.9944
0.143924	98.666
0.164484	102.488
0.187615	105.457
0.208176	108.002
0.249297	112.666
0.292988	116.479
0.331539	119.868
0.37523	122.403
0.416351	124.94
0.457472	127.477
0.501164	129.162
0.542285	130.847
0.580836	132.109
0.621957	132.943
0.663078	135.055
0.686209	135.471
0.704199	135.889
0.72733	136.731
0.74789	136.723
0.786441	137.559
0.807002	138.401
0.845553	138.812
0.884104	139.647
0.912375	140.062
0.938075	140.477
0.963776	140.892
0.986907	140.883
1.0049	141.301
1.03317	141.29
