Adsorption isotherm of Carbon Dioxide on C35H27N7O9Zn2 Treated
DOI: 10.1021/Ic800854y
Adsorbate Carbon Dioxide: InChIKey CURLTUGMZLYLDI-UHFFFAOYSA-N
Temperature: 195 K
Tabular data in the source: 0
pressure (bar)	uptake (cm3(STP)/g)
0.00527042	43.2546
0.00790564	58.8884
0.0158113	73.4772
0.0289873	88.0633
0.0395282	94.3119
0.0553394	99.5155
0.0632451	101.596
0.0764211	105.238
0.0895972	107.316
0.102773	109.915
0.12122	112.511
0.142301	114.585
0.160748	117.181
0.18183	119.255
0.205547	120.806
0.239804	123.395
0.276697	125.982
0.31359	127.526
0.358389	130.109
0.400552	131.651
0.44008	133.194
0.476973	134.739
0.524407	136.278
0.5613	137.301
0.598193	138.325
0.632451	139.871
0.661438	140.898
0.68252	141.408
0.703602	142.44
0.722048	142.43
0.74313	143.462
0.761576	143.974
0.798469	144.997
0.819551	144.465
0.848538	146.014
0.885431	147.037
0.93023	148.578
0.961852	149.604
0.993475	151.151
