Adsorption isotherm of Methane on C35H27N7O9Zn2 Treated
DOI: 10.1021/Ic800854y
Adsorbate Methane: InChIKey VNWKTOKETHGBQD-UHFFFAOYSA-N
Temperature: 195 K
Tabular data in the source: 0
pressure (bar)	uptake (cm3(STP)/g)
0.12987	12.5068
0.519481	22.9262
1.03896	37.5136
1.68831	47.4091
2.20779	51.0519
2.85714	53.651
3.50649	56.7713
4.28571	58.3267
5.19481	59.8807
6.1039	61.9559
8.05195	64.5415
9.35065	65.5703
10.1299	66.0833
11.8182	68.1504
14.026	69.1698
15.974	70.713
17.9221	71.2138
19.8701	72.7571
22.0779	73.2552
23.8961	74.2786
25.974	74.7781
27.9221	75.8002
30	76.2997
31.9481	77.3217
32.987	77.3109
34.1558	77.2987
35.1948	77.809
37.1429	77.7887
38.1818	78.2991
39.2208	78.8094
40.1299	78.7999
43.1169	79.8112
44.6753	80.8373
46.1039	80.8224
47.013	81.3341
48.3117	81.3205
48.961	81.8349
49.8701	83.389
