Adsorption isotherm of Hydrogen on C35H27N7O9Zn2 Treated
DOI: 10.1021/Ic800854y
Adsorbate Hydrogen: InChIKey UFHFLCQGNIYNRP-UHFFFAOYSA-N
Temperature: 77 K
Tabular data in the source: 0
pressure (bar)	uptake (cm3(STP)/g)
0.506757	7.7027
1.00732	18.2432
1.77674	25.5405
2.2835	33.2432
3.05381	40.1351
3.82677	45.8108
4.33706	51.8919
5.11179	56.7568
5.88828	60.8108
6.14299	64.0541
6.92302	66.4865
7.44039	69.3243
9.78492	74.5946
11.3476	78.2432
12.9095	82.2973
15.5193	85.9459
17.6074	88.7838
19.6963	91.2162
23.615	94.8649
27.5347	98.1081
31.7178	100.541
35.6384	103.378
39.8224	105.405
44.0074	107.027
47.6679	109.054
51.8537	110.27
55.7786	111.081
59.9653	111.892
63.6276	113.108
65.7218	113.108
68.0761	113.919
69.9086	113.919
72.001	114.73
74.0953	114.73
76.1895	114.73
78.2829	115.135
80.3762	115.541
82.2087	115.541
83.7785	115.946
85.0874	115.946
87.4434	115.946
89.5368	116.351
92.1546	116.351
94.7715	116.757
97.1275	116.757
98.4373	116.351
100.006	117.162
