Adsorption isotherm of Hydrogen on C35H27N7O9Zn2 Treated
DOI: 10.1021/Ic800854y
Adsorbate Hydrogen: InChIKey UFHFLCQGNIYNRP-UHFFFAOYSA-N
Temperature: 87 K
Tabular data in the source: 0
pressure (bar)	uptake (cm3(STP)/g)
0.00514014	3.41463
0.0205606	16.2195
0.0308408	25.1829
0.0436912	32.8659
0.0591116	39.2683
0.071962	45.2439
0.0873824	49.939
0.105373	55.4878
0.125933	60.1829
0.146494	64.4512
0.169625	68.7195
0.190185	72.9878
0.215886	75.5488
0.233876	78.1098
0.251867	81.0976
0.272427	82.8049
0.292988	84.939
0.313549	86.6463
0.336679	88.7805
0.35981	90.4878
0.38294	92.1951
0.413781	93.9024
0.436912	95.1829
0.460042	96.0366
0.483173	97.7439
0.503734	98.5976
0.529434	99.4512
0.549995	100.305
0.575696	101.159
0.611677	102.439
0.639947	103.72
0.663078	104.573
0.72476	106.28
0.74789	106.707
0.773591	107.561
0.858403	109.268
0.884104	109.695
0.894384	109.695
0.912375	110.549
0.932935	110.976
0.950926	110.976
0.971486	110.976
0.997187	111.402
1.00747	111.829
