Adsorption isotherm of Hydrogen on C35H27N7O9Zn2 Treated
DOI: 10.1021/Ic800854y
Adsorbate Hydrogen: InChIKey UFHFLCQGNIYNRP-UHFFFAOYSA-N
Temperature: 77 K
Tabular data in the source: 0
pressure (bar)	uptake (cm3(STP)/g)
0.00257007	6.80749
0.00514014	15.3171
0.0102803	23.8257
0.0179905	34.4609
0.0231306	42.9695
0.0334109	51.0505
0.0411211	60.8347
0.0539715	68.4891
0.0668218	74.867
0.0771021	79.5437
0.0925225	85.0695
0.107943	90.1697
0.125933	95.2689
0.146494	99.9416
0.185045	106.735
0.223596	111.4
0.257007	115.642
0.298128	119.03
0.346959	122.415
0.390651	124.951
0.434342	127.486
0.488313	129.592
0.529434	130.853
0.575696	132.536
0.624527	133.793
0.670788	135.052
0.72219	136.308
0.778731	137.562
0.830133	138.392
0.889244	139.22
0.940646	140.05
1.01518	141.297
