Adsorption isotherm of Nitrogen on C35H27N7O9Zn2 Treated
DOI: 10.1021/Ic800854y
Adsorbate Nitrogen: InChIKey IJGRMHOSHXDMSA-UHFFFAOYSA-N
Temperature: 77 K
Tabular data in the source: 0
pressure (bar)	uptake (cm3(STP)/g)
0.020346	0.413896
0.0635812	0.0265318
0.122076	0.456346
0.200916	0.489246
0.284844	0.524268
0.368771	0.964695
0.452698	1.40512
0.534082	2.6553
0.696849	4.75025
0.77569	6.40477
0.831641	7.23893
0.849444	7.65176
0.895223	8.48168
0.923198	9.30416
0.943544	9.71806
0.958804	10.5352
0.966434	12.16
