Adsorption isotherm of Hydrogen on C35H27N7O9Zn2 Treated
DOI: 10.1021/Ic800854y
Adsorbate Hydrogen: InChIKey UFHFLCQGNIYNRP-UHFFFAOYSA-N
Temperature: 87 K
Tabular data in the source: 0
pressure (bar)	uptake (cm3(STP)/g)
0.00514014	0.423481
0.0154204	11.4832
0.0231306	20.8418
0.0334109	26.3696
0.0436912	32.323
0.0514014	37.4263
0.0693919	44.6532
0.074532	48.0554
0.0899524	52.3045
0.113083	58.6783
0.133644	62.9254
0.156774	67.1715
0.179905	70.5665
0.203036	73.536
0.223596	76.5065
0.269857	80.7434
0.310978	85.8334
0.35724	89.6447
0.403501	92.1794
0.444622	94.7162
0.490883	97.251
0.534575	98.9357
0.578266	101.046
0.624527	103.155
0.668218	104.414
0.711909	106.099
0.73761	106.94
0.755601	107.358
0.778731	107.774
0.822422	108.608
0.845553	109.45
0.868684	109.866
0.889244	109.858
0.902094	110.278
0.932935	110.692
0.956066	111.533
0.981767	111.949
1.00747	111.938
1.0306	111.929
