Adsorption isotherm of Nitrogen on C35H27N7O9Zn2 Treated
DOI: 10.1021/Ic800854y
Adsorbate Nitrogen: InChIKey IJGRMHOSHXDMSA-UHFFFAOYSA-N
Temperature: 77 K
Tabular data in the source: 0
pressure (bar)	uptake (cm3(STP)/g)
0	43.642
0.00500784	52.284
0.0175274	60.4938
0.0225353	65.2469
0.0250392	64.3827
0.030047	69.5679
0.0375588	71.2963
0.0525823	73.8889
0.0651019	78.2099
0.0826293	79.9383
0.0976528	82.5309
0.122692	84.6914
0.135212	86.4198
0.155243	88.5802
0.175274	89.0123
0.192802	90.7407
0.227856	92.9012
0.272927	94.6296
0.310486	95.4938
0.348045	96.358
0.385603	98.0864
0.42817	98.9506
0.468233	99.8148
0.500784	101.111
0.540846	101.975
0.580909	103.272
0.623475	104.136
0.641003	104.568
0.661034	105.864
0.678562	106.728
0.701097	107.593
0.723632	108.457
0.738656	109.321
0.758687	109.753
0.778718	110.185
0.78623	111.049
0.79875	111.481
0.816277	112.778
0.836308	114.506
0.85634	115.37
0.868859	116.235
0.878875	116.667
0.891395	117.099
0.903914	117.963
0.921442	119.259
0.941473	120.556
0.956496	121.852
0.969016	123.148
