Adsorption isotherm of Nitrogen on UiO-66(Zr)
DOI: 10.1016/j.cej.2015.04.087
Article source: Figure S1- N2 at 283 UiO 66 Zr experiment
Adsorbate Nitrogen: InChIKey IJGRMHOSHXDMSA-UHFFFAOYSA-N
Kind: experiment
Temperature: 283 K
Tabular data in the source: 0
pressure (bar)	uptake (mmol/g)
0.0021	9e-05
0.01311	0.00264
0.03487	0.00781
0.05664	0.01317
0.0989	0.02624
0.11545	0.03159
0.12848	0.03466
0.13629	0.03721
0.18301	0.05107
0.22553	0.06362
0.26754	0.07572
0.35207	0.09959
0.39509	0.11266
0.47534	0.1346
0.55592	0.15715
0.63592	0.17918
0.7165	0.20033
0.79641	0.2234
0.87724	0.24622
0.9385	0.26228
0.96967	0.27184
0.98824	0.27649
0.99984	0.27886
