Adsorption isotherm of Sulfur Hexafluoride on Zeolite 13X
DOI: 10.1016/j.cej.2015.04.087
Article source: Figure S1- SF6 at 273 Zeolite 13X experiment
Adsorbate Sulfur Hexafluoride: InChIKey SFZCNBIFKDRMGX-UHFFFAOYSA-N
Kind: experiment
Temperature: 273 K
Tabular data in the source: 0
pressure (bar)	uptake (mmol/g)
0.00604	0.1142
0.00822	0.2016
0.01115	0.263
0.01231	0.3174
0.01249	0.3181
0.02451	0.4709
0.02652	0.5261
0.02803	0.5543
0.03944	0.759
0.04566	0.8724
0.04809	0.9299
0.05388	1.0047
0.05909	1.0882
0.06396	1.1519
0.07582	1.2424
0.07758	1.2739
0.08683	1.3369
0.09146	1.3738
0.0965	1.4092
0.1055	1.4612
0.11409	1.4981
0.12477	1.5406
0.13596	1.5759
0.18612	1.7087
0.22871	1.7824
0.27164	1.8364
0.31475	1.8841
0.35591	1.9184
0.39691	1.9512
0.43631	1.9721
0.47462	1.9955
0.55375	2.0319
0.63289	2.0588
0.71389	2.0818
0.79437	2.1048
0.87377	2.1176
0.93641	2.1313
0.96815	2.1357
0.98642	2.1458
0.99821	2.1434
