Adsorption isotherm of Nitrogen on UiO-66(Zr)
DOI: 10.1016/j.cej.2015.04.087
Article source: Figure 2- UiO 66 Zr
Adsorbate Nitrogen: InChIKey IJGRMHOSHXDMSA-UHFFFAOYSA-N
Kind: experiment
Temperature: 77 K
Tabular data in the source: 0
pressure (bar)	uptake (cm3(STP)/g)
0.05194	319.04
0.09809	332.19
0.20231	351.35
0.30049	365.51
0.40244	378.52
0.49805	392.54
0.59986	409.41
0.7006	435.29
0.80135	485.59
0.90337	737.2
0.9245	940.66
0.96285	1252.98
0.99056	1336.71
7e-05	64.29
0.00022	85.98
0.0003	92.44
0.00112	206.47
0.00112	206.45
0.00422	259.46
0.00761	279.94
0.00799	280.74
0.02695	305.89
0.04749	317.47
0.06909	327.47
0.0959	334.05
0.20057	354.64
0.2989	367.37
0.39897	380.52
0.696	433
0.79886	471.59
0.8965	594.19
0.94867	920.09
