Adsorption isotherm of Nitrogen on MIL-100(Fe)
DOI: 10.1016/j.cej.2015.04.087
Article source: Figure 2- MIL 100 Fe
Adsorbate Nitrogen: InChIKey IJGRMHOSHXDMSA-UHFFFAOYSA-N
Kind: experiment
Temperature: 77 K
Tabular data in the source: 0
pressure (bar)	uptake (cm3(STP)/g)
7e-05	119.12
7e-05	123.16
0.00014	226.88
0.00015	223.51
0.00015	222.03
0.00097	253.74
0.00308	285.89
0.00451	304.46
0.00806	323.46
0.02475	368.76
0.04363	408.33
0.05035	428.05
0.06455	448.48
0.09566	485.8
0.09876	487.64
0.1952	546.23
0.19867	549.24
0.29602	557.96
0.2998	559.24
0.39873	568.75
0.40092	568.83
0.49467	578.6
0.49714	578.84
0.59547	584
0.5972	585.57
0.69712	590.73
0.6981	590.76
0.79741	599.89
0.79938	600.03
0.8928	611.48
0.90073	612.92
0.91908	623.48
0.94695	632.91
0.96092	672.92
0.98788	765.79
0.98969	771.46
