Adsorption isotherm of Sulfur Hexafluoride on MIL-100(Fe)
DOI: 10.1016/j.cej.2015.04.087
Article source: Figure S1- SF6 at 283 MIL 100 Fe experiment
Adsorbate Sulfur Hexafluoride: InChIKey SFZCNBIFKDRMGX-UHFFFAOYSA-N
Kind: experiment
Temperature: 283 K
Tabular data in the source: 0
pressure (bar)	uptake (mmol/g)
0.01427	0.079
0.03518	0.1481
0.05601	0.2327
0.09682	0.4039
0.11286	0.4752
0.12528	0.5395
0.13645	0.5849
0.17894	0.7756
0.22454	0.9922
0.26812	1.2005
0.34797	1.568
0.39542	1.7804
0.47275	2.0795
0.5532	2.3577
0.63171	2.5898
0.71181	2.7967
0.79209	2.9771
0.87253	3.1358
0.93417	3.2449
0.96666	3.2953
0.98531	3.3303
0.99849	3.3526
