Adsorption isotherm of Sulfur Hexafluoride on UiO-66(Zr)
DOI: 10.1016/j.cej.2015.04.087
Article source: Figure 8- After Storage
Adsorbate Sulfur Hexafluoride: InChIKey SFZCNBIFKDRMGX-UHFFFAOYSA-N
Kind: experiment
Temperature: 293 K
Tabular data in the source: 0
pressure (bar)	uptake (mmol/g)
0.00081	0.01667
0.00114	0.03989
0.00168	0.05149
0.00208	0.05861
0.00336	0.0749
0.0045	0.09119
0.00463	0.10299
0.00604	0.1322
0.00664	0.15148
0.00832	0.18163
0.01081	0.21309
0.01108	0.22957
0.01323	0.26102
0.01592	0.29323
0.01861	0.32599
0.02386	0.37879
0.02904	0.4241
0.03712	0.47839
0.04487	0.52369
0.05558	0.57554
0.06629	0.62028
0.07606	0.65715
0.0925	0.71329
0.10638	0.75259
0.11871	0.7814
0.13604	0.82013
0.15922	0.86634
0.18315	0.90917
0.22521	0.97332
0.26714	1.0281
0.30994	1.07483
0.35268	1.11613
0.43439	1.17925
0.47437	1.21176
0.55507	1.25916
0.63456	1.3
0.71533	1.32774
0.79509	1.34668
0.87566	1.36056
0.93715	1.37035
0.99885	1.37116
