Adsorption isotherm of Nitrogen on Zeolite 13X
DOI: 10.1016/j.cej.2015.04.087
Article source: Figure S1- N2 at 273 Zeolite 13X experiment
Adsorbate Nitrogen: InChIKey IJGRMHOSHXDMSA-UHFFFAOYSA-N
Kind: experiment
Temperature: 273 K
Tabular data in the source: 0
pressure (bar)	uptake (mmol/g)
0.01937	0.01053
0.0244	0.01201
0.03019	0.0138
0.03807	0.02264
0.04637	0.02643
0.05618	0.03422
0.06683	0.04107
0.07648	0.04823
0.093	0.05928
0.10683	0.06844
0.11865	0.07708
0.13635	0.08908
0.15983	0.10498
0.18305	0.12046
0.22473	0.14794
0.26766	0.17469
0.31043	0.20207
0.35269	0.22713
0.43328	0.27525
0.47429	0.29873
0.55429	0.3438
0.63488	0.38719
0.71497	0.42847
0.79456	0.46817
0.87515	0.50776
0.93612	0.53672
0.99726	0.56589
