Adsorption isotherm of Nitrogen on MIL-100(Fe)
DOI: 10.1016/j.cej.2015.04.087
Article source: Figure 3b- MIL 100 Fe experiment
Adsorbate Nitrogen: InChIKey IJGRMHOSHXDMSA-UHFFFAOYSA-N
Kind: experiment
Temperature: 293 K
Tabular data in the source: 0
pressure (bar)	uptake (mmol/g)
0.0002	0.001103
0.01235	0.003204
0.0337	0.006874
0.063	0.012312
0.09677	0.018651
0.11365	0.022388
0.12484	0.024357
0.135	0.026192
0.1818	0.035233
0.22421	0.043475
0.26683	0.051114
0.35146	0.067362
0.39353	0.076005
0.4743	0.091319
0.55446	0.105664
0.63463	0.120877
0.71485	0.13579
0.79529	0.150302
0.87545	0.165015
0.93729	0.176558
0.96749	0.181528
0.98553	0.1858
0.99816	0.189005
