Adsorption isotherm of Nitrogen on Zeolite 13X
DOI: 10.1016/j.cej.2015.04.087
Article source: Figure 2- Zeolite 13X
Adsorbate Nitrogen: InChIKey IJGRMHOSHXDMSA-UHFFFAOYSA-N
Kind: experiment
Temperature: 77 K
Tabular data in the source: 0
pressure (bar)	uptake (cm3(STP)/g)
0.00037	143.3
0.0009	148.3
0.00135	176.5
0.00173	178.02
0.00905	187.59
0.01419	192.59
0.02	194.31
0.02612	195.6
0.03073	193.88
0.03178	198.45
0.03828	197.31
0.04372	197.31
0.04666	193.03
0.04848	199.46
0.05505	197.31
0.0592	199.31
0.06517	198.32
0.07068	199.89
0.07574	199.17
0.08148	199.32
0.08541	200.75
0.09084	201.89
0.09507	201.46
0.10013	201.32
0.1064	200.46
0.12709	199.61
0.14839	200.18
0.15262	201.19
0.178	201.76
0.19778	201.31
0.2033	201.48
0.24725	199.48
0.25216	199.63
0.2971	200.21
0.30117	201.21
0.34739	201.5
0.35193	203.64
0.39777	201.65
0.40207	202.36
0.45041	201.94
0.50048	203.66
0.547	204.81
0.55078	205.1
0.59851	205.82
0.64835	206.83
0.64994	206.69
0.69978	207.26
0.7448	208.92
0.74767	208.99
0.7954	209.99
0.80129	210.28
0.85098	213.84
0.85113	213.86
0.90249	216.87
0.90264	216.89
0.94886	221.59
0.95195	222.74
0.96706	231.3
0.98866	251.88
0.98987	253.38
