Adsorption isotherm of Sulfur Hexafluoride on Zeolite 13X
DOI: 10.1016/j.cej.2015.04.087
Article source: Figure 3a- Zeolite 13X experiment
Adsorbate Sulfur Hexafluoride: InChIKey SFZCNBIFKDRMGX-UHFFFAOYSA-N
Kind: experiment
Temperature: 293 K
Tabular data in the source: 0
pressure (bar)	uptake (mmol/g)
0.00027	0.00589
0.00358	0.02917
0.00507	0.06396
0.00703	0.0923
0.01055	0.11024
0.0117	0.12314
0.0144	0.19675
0.01488	0.20255
0.02258	0.26481
0.02576	0.2923
0.02657	0.31699
0.0313	0.36776
0.03536	0.41068
0.03861	0.43789
0.04415	0.48304
0.0501	0.54532
0.05409	0.58767
0.06125	0.64938
0.06436	0.69258
0.07511	0.7756
0.07761	0.80786
0.08579	0.86311
0.0908	0.89592
0.096	0.93097
0.10398	0.97275
0.11378	1.02125
0.12432	1.07228
0.13541	1.11853
0.18461	1.27208
0.228	1.36673
0.27172	1.43528
0.3147	1.49064
0.35708	1.53169
0.39803	1.56573
0.43743	1.59333
0.47358	1.6142
0.55393	1.65255
0.63422	1.68219
0.7147	1.7051
0.79471	1.72324
0.87553	1.73801
0.93669	1.74698
0.96852	1.75385
0.98548	1.75601
