Adsorption isotherm of Sulfur Hexafluoride on UiO-66(Zr)
DOI: 10.1016/j.cej.2015.04.087
Article source: Figure 3a- UiO 66 Zr experiment
Adsorbate Sulfur Hexafluoride: InChIKey SFZCNBIFKDRMGX-UHFFFAOYSA-N
Kind: experiment
Temperature: 293 K
Tabular data in the source: 0
pressure (bar)	uptake (mmol/g)
0	0.00393
0.00054	0.0859
0.00075	0.09176
0.00399	0.13216
0.00528	0.18127
0.00717	0.21634
0.01082	0.26392
0.01272	0.28394
0.03428	0.4859
0.05389	0.59385
0.0939	0.73201
0.11255	0.78244
0.12499	0.81269
0.13526	0.83397
0.18094	0.91906
0.22521	0.98564
0.26711	1.04129
0.35118	1.13125
0.39585	1.16836
0.47384	1.22636
0.555	1.28042
0.63494	1.32129
0.71489	1.35627
0.79476	1.38816
0.87599	1.41388
0.93776	1.42845
0.9877	1.44084
