Adsorption isotherm of Nitrogen on MIL-100(Fe)
DOI: 10.1016/j.cej.2015.04.087
Article source: Figure S1- N2 at 273 MIL 100 Fe experiment
Adsorbate Nitrogen: InChIKey IJGRMHOSHXDMSA-UHFFFAOYSA-N
Kind: experiment
Temperature: 273 K
Tabular data in the source: 0
pressure (bar)	uptake (mmol/g)
0.09654	0.02539
0.11382	0.03287
0.12489	0.03645
0.13579	0.03971
0.18117	0.05077
0.2237	0.06226
0.26681	0.075
0.3506	0.10049
0.39346	0.11356
0.47306	0.1382
0.55366	0.16243
0.63376	0.1875
0.71445	0.21078
0.7943	0.23417
0.87465	0.25808
0.93588	0.27599
0.96649	0.28631
0.98436	0.29326
