Adsorption isotherm of Sulfur Hexafluoride on MIL-100(Fe)
DOI: 10.1016/j.cej.2015.04.087
Article source: Figure 3a- MIL 100 Fe experiment
Adsorbate Sulfur Hexafluoride: InChIKey SFZCNBIFKDRMGX-UHFFFAOYSA-N
Kind: experiment
Temperature: 293 K
Tabular data in the source: 0
pressure (bar)	uptake (mmol/g)
0.00804	0.04963
0.03224	0.10817
0.05346	0.17234
0.09476	0.29225
0.11064	0.33988
0.12328	0.37995
0.13389	0.41162
0.17822	0.54358
0.2233	0.68397
0.26521	0.8137
0.34685	1.06897
0.39281	1.21833
0.47283	1.44807
0.55211	1.67164
0.63213	1.87584
0.7133	2.06264
0.7919	2.22588
0.87232	2.38265
0.93422	2.48703
0.96565	2.54048
0.98471	2.57266
0.99863	2.59533
