Adsorption isotherm of Sulfur Hexafluoride on MIL-100(Fe)
DOI: 10.1016/j.cej.2015.04.087
Article source: Figure S1- SF6 at 273 MIL 100 Fe experiment
Adsorbate Sulfur Hexafluoride: InChIKey SFZCNBIFKDRMGX-UHFFFAOYSA-N
Kind: experiment
Temperature: 273 K
Tabular data in the source: 0
pressure (bar)	uptake (mmol/g)
0.00942	0.0889
0.03297	0.1959
0.05408	0.328
0.09387	0.5798
0.10951	0.686
0.1233	0.7891
0.13448	0.8709
0.17535	1.1668
0.22295	1.5059
0.26626	1.7939
0.34844	2.269
0.39766	2.5081
0.47103	2.8131
0.55013	3.078
0.631	3.3113
0.71104	3.5052
0.79192	3.67
0.8718	3.8127
0.93434	3.9107
0.96666	3.9601
0.98476	3.9922
0.99865	4.0126
