Adsorption isotherm of Sulfur Hexafluoride on UiO-66(Zr)
DOI: 10.1016/j.cej.2015.04.087
Article source: Figure S1- SF6 at 283 UiO 66 Zr experiment
Adsorbate Sulfur Hexafluoride: InChIKey SFZCNBIFKDRMGX-UHFFFAOYSA-N
Kind: experiment
Temperature: 283 K
Tabular data in the source: 0
pressure (bar)	uptake (mmol/g)
0.00269	-0.0021
0.00395	0.0265
0.00512	0.0894
0.00638	0.176
0.01167	0.2898
0.01503	0.3674
0.03703	0.5874
0.05534	0.6922
0.09657	0.8494
0.11512	0.9067
0.12906	0.948
0.13746	0.9613
0.1828	1.0557
0.22689	1.134
0.26954	1.1984
0.35351	1.3013
0.39709	1.3538
0.47611	1.4259
0.55563	1.4925
0.63549	1.5472
0.71543	1.5991
0.79528	1.644
0.87505	1.6833
0.93627	1.7177
0.96801	1.7359
0.98841	1.7507
0.99941	1.7542
