Adsorption isotherm of Nitrogen on UiO-66(Zr)
DOI: 10.1016/j.cej.2015.04.087
Article source: Figure 3b- UiO 66 Zr experiment
Adsorbate Nitrogen: InChIKey IJGRMHOSHXDMSA-UHFFFAOYSA-N
Kind: experiment
Temperature: 293 K
Tabular data in the source: 0
pressure (bar)	uptake (mmol/g)
0.00027	0.000468
0.00199	0.001035
0.00604	0.001569
0.01434	0.001967
0.01764	0.00327
0.03459	0.006907
0.05634	0.011946
0.0969	0.022394
0.11543	0.025396
0.12737	0.028701
0.13719	0.030101
0.18255	0.040982
0.22606	0.050493
0.26833	0.059904
0.35261	0.078993
0.39557	0.088337
0.47531	0.105891
0.55561	0.12311
0.63597	0.140095
0.71613	0.156846
0.79622	0.173598
0.87672	0.189747
0.93801	0.202293
0.96875	0.208366
0.98701	0.212471
0.99957	0.215241
