Adsorption isotherm of Nitrogen on MIL-100(Fe)
DOI: 10.1016/j.cej.2015.04.087
Article source: Figure S1- N2 at 283 MIL 100 Fe experiment
Adsorbate Nitrogen: InChIKey IJGRMHOSHXDMSA-UHFFFAOYSA-N
Kind: experiment
Temperature: 283 K
Tabular data in the source: 0
pressure (bar)	uptake (mmol/g)
0.09714	0.02195
0.11403	0.02783
0.12285	0.02967
0.13462	0.033
0.1816	0.04258
0.22454	0.05294
0.26664	0.06312
0.35117	0.08471
0.39419	0.09551
0.47436	0.11526
0.55486	0.13501
0.63511	0.15432
0.71519	0.17512
0.79561	0.19496
0.87637	0.21453
0.93746	0.22954
0.96788	0.23744
0.98619	0.24262
0.99871	0.24735
