Adsorption isotherm of Sulfur Hexafluoride on Zeolite 13X
DOI: 10.1016/j.cej.2015.04.087
Article source: Figure S1- SF6 at 283 Zeolite 13X experiment
Adsorbate Sulfur Hexafluoride: InChIKey SFZCNBIFKDRMGX-UHFFFAOYSA-N
Kind: experiment
Temperature: 283 K
Tabular data in the source: 0
pressure (bar)	uptake (mmol/g)
0.01008	0.0915
0.01394	0.1215
0.01478	0.1537
0.01528	0.19
0.01789	0.285
0.02586	0.3653
0.02788	0.4114
0.02973	0.4463
0.0372	0.5399
0.0424	0.6042
0.04761	0.6866
0.05651	0.7907
0.0618	0.8612
0.06684	0.9171
0.0775	1.0163
0.07969	1.0358
0.08951	1.1071
0.09438	1.1371
0.09984	1.1742
0.10849	1.221
0.11689	1.2664
0.12772	1.3076
0.13855	1.3468
0.18826	1.4859
0.23041	1.5691
0.27324	1.6272
0.3164	1.6811
0.35763	1.7203
0.39953	1.7567
0.43874	1.784
0.47594	1.8058
0.55496	1.85
0.63507	1.8817
0.71484	1.9126
0.79478	1.9303
0.87514	1.9612
0.93685	1.9698
0.96759	1.9755
0.98589	1.9853
0.99908	1.986
