Adsorption isotherm of Nitrogen on Zeolite 13X
DOI: 10.1016/j.cej.2015.04.087
Article source: Figure S1- N2 at 283 Zeolite 13X experiment
Adsorbate Nitrogen: InChIKey IJGRMHOSHXDMSA-UHFFFAOYSA-N
Kind: experiment
Temperature: 283 K
Tabular data in the source: 0
pressure (bar)	uptake (mmol/g)
0.01336	0.00587
0.0189	0.00947
0.02445	0.01113
0.02999	0.0128
0.03747	0.01666
0.0457	0.02069
0.05595	0.02603
0.0667	0.03138
0.07653	0.03664
0.09316	0.04584
0.10643	0.05233
0.11903	0.05873
0.13608	0.06767
0.15952	0.07959
0.18304	0.09203
0.22478	0.11412
0.26821	0.13524
0.31072	0.15602
0.35272	0.17661
0.43411	0.21588
0.47502	0.23473
0.555	0.27164
0.63581	0.30723
0.71587	0.34107
0.79635	0.37517
0.87642	0.40919
0.93808	0.43383
0.99874	0.45847
