Adsorption isotherm of Nitrogen on Zeolite 13X
DOI: 10.1016/j.cej.2015.04.087
Article source: Figure 3b- Zeolite 13X experiment
Adsorbate Nitrogen: InChIKey IJGRMHOSHXDMSA-UHFFFAOYSA-N
Kind: experiment
Temperature: 293 K
Tabular data in the source: 0
pressure (bar)	uptake (mmol/g)
0.00021	3.3e-05
0.01427	0.004106
0.01757	0.004974
0.02168	0.005842
0.02491	0.006576
0.03012	0.009281
0.03754	0.011318
0.04501	0.013755
0.05654	0.018063
0.06711	0.020766
0.07699	0.024673
0.09291	0.030751
0.1067	0.035927
0.11912	0.040167
0.13689	0.046411
0.15967	0.055161
0.18307	0.063809
0.2254	0.079069
0.26822	0.094095
0.31055	0.109021
0.35296	0.123545
0.43427	0.151493
0.47489	0.165416
0.5551	0.191459
0.63511	0.217201
0.71574	0.242475
0.79602	0.266913
0.8761	0.291017
0.93786	0.308209
0.99859	0.325335
