Adsorption isotherm of Sulfur Hexafluoride on UiO-66(Zr)
DOI: 10.1016/j.cej.2015.04.087
Article source: Figure 8- Before Storage
Adsorbate Sulfur Hexafluoride: InChIKey SFZCNBIFKDRMGX-UHFFFAOYSA-N
Kind: experiment
Temperature: 293 K
Tabular data in the source: 0
pressure (bar)	uptake (mmol/g)
0.00054	0.00995
0.0006	0.01142
0.00457	0.09456
0.00604	0.13969
0.00724	0.18538
0.01169	0.22526
0.0133	0.27815
0.01451	0.29042
0.03483	0.48439
0.05402	0.58959
0.09432	0.72921
0.11339	0.78254
0.12525	0.81079
0.1363	0.83474
0.18106	0.91629
0.225	0.98811
0.2672	1.04627
0.35268	1.1313
0.39556	1.17016
0.47437	1.22992
0.55473	1.27976
0.63469	1.32116
0.71512	1.35658
0.79508	1.39106
0.87551	1.41486
0.93707	1.43253
0.9869	1.44085
