Adsorption isotherm of Nitrogen on UiO-66(Zr)
DOI: 10.1016/j.cej.2015.04.087
Article source: Figure S1- N2 at 273 UiO 66 Zr experiment
Adsorbate Nitrogen: InChIKey IJGRMHOSHXDMSA-UHFFFAOYSA-N
Kind: experiment
Temperature: 273 K
Tabular data in the source: 0
pressure (bar)	uptake (mmol/g)
0.00252	-0.00284
0.01367	-0.0001
0.03498	0.00895
0.05569	0.01601
0.09847	0.03128
0.11541	0.03792
0.12514	0.04097
0.13655	0.04477
0.18226	0.06141
0.22528	0.07636
0.26856	0.09206
0.35201	0.12176
0.39462	0.13661
0.47472	0.16378
0.55532	0.19212
0.63525	0.21834
0.71501	0.24489
0.7962	0.27322
0.8758	0.3005
0.93719	0.32104
0.96839	0.33252
0.9855	0.33989
0.99884	0.34463
