Adsorption isotherm of Sulfur Hexafluoride on UiO-66(Zr)
DOI: 10.1016/j.cej.2015.04.087
Article source: Figure S1- SF6 at 273 UiO 66 Zr experiment
Adsorbate Sulfur Hexafluoride: InChIKey SFZCNBIFKDRMGX-UHFFFAOYSA-N
Kind: experiment
Temperature: 273 K
Tabular data in the source: 0
pressure (bar)	uptake (mmol/g)
0.00235	0.0323
0.00359	0.1528
0.00552	0.3094
0.00559	0.3111
0.01046	0.3701
0.01264	0.4387
0.03517	0.6535
0.05317	0.7526
0.09465	0.9201
0.11316	0.9877
0.12562	1.0183
0.13605	1.0474
0.17999	1.1542
0.22501	1.2499
0.26735	1.3276
0.3517	1.4576
0.39614	1.5164
0.47476	1.6095
0.55508	1.6853
0.63522	1.7563
0.71536	1.8148
0.7961	1.8653
0.87557	1.9112
0.93644	1.9454
0.96852	1.9648
0.98872	1.9788
1.00009	1.9858
