Adsorption isotherm of Carbon Dioxide on JUC-132
DOI: 10.1039/c5cc01281c
Article source: Figure 3a
Adsorbate Carbon Dioxide: InChIKey CURLTUGMZLYLDI-UHFFFAOYSA-N
Kind: experiment
Temperature: 273 K
Tabular data in the source: 0
pressure (bar)	uptake (mmol/g)
0.010624	0.143836
0.021248	0.27226
0.031872	0.354452
0.042497	0.446918
0.051793	0.52911
0.10093	0.842466
0.151394	1.10445
0.203187	1.31507
0.253652	1.49486
0.304117	1.64384
0.35591	1.7774
0.407703	1.89041
0.458167	1.99829
0.50996	2.09075
0.559097	2.17295
0.61089	2.25514
0.660027	2.32705
0.711819	2.39897
0.763612	2.46575
0.812749	2.5274
0.864542	2.57877
0.915007	2.63014
0.965471	2.67637
1.00664	2.7226
