Adsorption isotherm of Methane on JUC-132
DOI: 10.1039/c5cc01281c
Article source: Figure 3a
Adsorbate Methane: InChIKey VNWKTOKETHGBQD-UHFFFAOYSA-N
Kind: experiment
Temperature: 273 K
Tabular data in the source: 0
pressure (bar)	uptake (mmol/g)
0.010624	0.010274
0.029216	0.020548
0.042497	0.025685
0.054449	0.025685
0.083665	0.030822
0.103586	0.035959
0.15405	0.05137
0.205843	0.066781
0.256308	0.082192
0.306773	0.097603
0.357238	0.113014
0.407703	0.128425
0.459495	0.138699
0.50996	0.15411
0.560425	0.164384
0.61089	0.184932
0.661355	0.195205
0.711819	0.210616
0.763612	0.226027
0.814077	0.236301
0.864542	0.246575
0.916335	0.261986
0.965471	0.27226
1.00664	0.282534
