Adsorption isotherm of Methane on JUC-132
DOI: 10.1039/c5cc01281c
Article source: Figure 3a
Adsorbate Methane: InChIKey VNWKTOKETHGBQD-UHFFFAOYSA-N
Kind: experiment
Temperature: 298 K
Tabular data in the source: 0
pressure (bar)	uptake (mmol/g)
0.010624	0.010274
0.029216	0.010274
0.042497	0.015411
0.054449	0.010274
0.083665	0.015411
0.104914	0.015411
0.15405	0.025685
0.205843	0.035959
0.256308	0.041096
0.306773	0.05137
0.358566	0.056507
0.409031	0.066781
0.459495	0.077055
0.50996	0.082192
0.560425	0.092466
0.612218	0.10274
0.661355	0.107877
0.711819	0.113014
0.763612	0.123288
0.814077	0.128425
0.864542	0.138699
0.915007	0.143836
0.965471	0.15411
1.00664	0.159247
