Adsorption isotherm of Carbon Dioxide on JUC-132
DOI: 10.1039/c5cc01281c
Article source: Figure 2
Adsorbate Carbon Dioxide: InChIKey CURLTUGMZLYLDI-UHFFFAOYSA-N
Kind: experiment
Temperature: 195 K
Tabular data in the source: 0
pressure (bar)	uptake (cm3(STP)/g)
0.001387	3.65621
0.002774	22.3662
0.004161	18.7106
0.006935	29.6789
0.009709	40.6472
0.015257	47.3151
0.042996	59.3641
0.054092	61.517
0.080444	65.3936
0.094313	67.3321
0.120666	69.7034
0.133148	79.3835
0.148405	72.29
0.202497	75.7425
0.266297	86.5089
0.269071	79.6278
0.335645	82.6528
0.400832	91.269
0.402219	85.4628
0.486824	88.4918
0.533981	95.8138
0.564494	91.5192
0.667129	99.9284
0.79889	104.043
0.800277	101.032
0.983356	107.738
