Adsorption isotherm of Carbon Dioxide on JUC-132
DOI: 10.1039/c5cc01281c
Article source: Figure 3a
Adsorbate Carbon Dioxide: InChIKey CURLTUGMZLYLDI-UHFFFAOYSA-N
Kind: experiment
Temperature: 298 K
Tabular data in the source: 0
pressure (bar)	uptake (mmol/g)
0.009296	0.05137
0.022576	0.113014
0.031872	0.15411
0.042497	0.195205
0.051793	0.236301
0.10093	0.400685
0.152722	0.549658
0.203187	0.678082
0.25498	0.791096
0.305445	0.893836
0.35591	0.986301
0.406375	1.07363
0.459495	1.15068
0.508632	1.2226
0.559097	1.28425
0.609562	1.34589
0.661355	1.4024
0.711819	1.45377
0.762284	1.50514
0.812749	1.55137
0.863214	1.5976
0.913679	1.6387
0.965471	1.67979
1.00664	1.71062
