Adsorption isotherm of Hydrogen on Zeolite HY
DOI: 10.1016/j.ijhydene.2007.05.014
Adsorbate Hydrogen: InChIKey UFHFLCQGNIYNRP-UHFFFAOYSA-N
Temperature: 77 K
Tabular data in the source: 0
pressure (bar)	uptake (cm3(STP)/g)
0.00723842	1.83354
0.0173448	12.1306
0.0345255	20.7114
0.0557489	27.7477
0.108302	43.1933
0.139632	50.916
0.210376	63.2725
0.284152	73.3979
0.350854	82.322
0.419577	88.157
0.517609	97.5959
0.622715	106.005
0.728831	112.355
0.797554	116.645
0.866278	120.593
0.938033	124.368
1.00878	127.801
