Adsorption isotherm of Hydrogen on Zeolite Na-Y
DOI: 10.1016/j.ijhydene.2007.05.014
Adsorbate Hydrogen: InChIKey UFHFLCQGNIYNRP-UHFFFAOYSA-N
Temperature: 77 K
Tabular data in the source: 0
pressure (bar)	uptake (cm3(STP)/m2)
0.0164064	0.0207785
0.0507444	0.0415531
0.104491	0.0623278
0.17466	0.081694
0.243336	0.0957785
0.316491	0.107046
0.415026	0.120778
0.519533	0.130286
0.625533	0.140497
0.692716	0.146131
0.764378	0.150708
0.833054	0.155286
0.903223	0.159511
0.970406	0.163384
1.00922	0.165497
