Adsorption isotherm of Hydrogen on Zeolite HY
DOI: 10.1016/j.ijhydene.2007.05.014
Adsorbate Hydrogen: InChIKey UFHFLCQGNIYNRP-UHFFFAOYSA-N
Temperature: 77 K
Tabular data in the source: 0
pressure (bar)	uptake (cm3(STP)/m2)
0.00744863	0.00317283
0.0178993	0.0158489
0.0522374	0.0341587
0.101505	0.0528207
0.176153	0.0718348
0.247815	0.0852151
0.32097	0.097539
0.383674	0.105638
0.450857	0.11444
0.559843	0.125356
0.659871	0.134159
0.765871	0.142609
0.864406	0.149652
0.94204	0.155286
1.00922	0.159159
