Adsorption isotherm of Hydrogen on Zeolite Na-Y
DOI: 10.1016/j.ijhydene.2007.05.014
Adsorbate Hydrogen: InChIKey UFHFLCQGNIYNRP-UHFFFAOYSA-N
Temperature: 77 K
Tabular data in the source: 0
pressure (bar)	uptake (cm3(STP)/g)
0.0133022	14.5332
0.0436213	30.4936
0.0860679	45.7675
0.106281	51.7741
0.173993	67.3913
0.246759	78.718
0.314471	88.8434
0.383194	95.8797
0.451918	102.916
0.552981	111.154
0.658087	118.362
0.763193	124.883
0.830905	128.487
0.904682	131.919
0.970373	135.18
1.00676	136.21
