Adsorption isotherm of Hydrogen on Zeolite CsY
DOI: 10.1016/j.ijhydene.2007.05.014
Adsorbate Hydrogen: InChIKey UFHFLCQGNIYNRP-UHFFFAOYSA-N
Temperature: 77 K
Tabular data in the source: 0
pressure (bar)	uptake (cm3(STP)/g)
0.0163341	18.8236
0.0547382	38.5596
0.108302	57.0943
0.140642	67.5629
0.208355	82.4936
0.28011	93.4771
0.350854	101.886
0.418567	107.55
0.489311	112.87
0.556013	118.19
0.627768	121.966
0.732874	127.114
0.834948	131.748
0.905692	134.322
0.967341	137.068
1.01181	137.583
