Adsorption isotherm of Hydrogen on Zeolite KY
DOI: 10.1016/j.ijhydene.2007.05.014
Adsorbate Hydrogen: InChIKey UFHFLCQGNIYNRP-UHFFFAOYSA-N
Temperature: 77 K
Tabular data in the source: 0
pressure (bar)	uptake (cm3(STP)/g)
0.0122916	2.34839
0.0133022	17.1075
0.0294724	28.6058
0.0486744	38.0448
0.0789935	50.5728
0.0961742	57.0943
0.140642	71.8533
0.212397	89.7015
0.284152	103.259
0.356918	113.9
0.452928	123.853
0.555002	132.263
0.660108	139.985
0.767235	145.992
0.867288	151.827
0.941065	155.088
1.00473	157.49
