Adsorption isotherm of Hydrogen on Zeolite CsY
DOI: 10.1016/j.ijhydene.2007.05.014
Adsorbate Hydrogen: InChIKey UFHFLCQGNIYNRP-UHFFFAOYSA-N
Temperature: 77 K
Tabular data in the source: 0
pressure (bar)	uptake (cm3(STP)/m2)
0.0119275	0.0271165
0.0343219	0.0447221
0.0522374	0.0602151
0.0865754	0.0831024
0.102998	0.0940179
0.173167	0.122891
0.246322	0.142962
0.319477	0.158807
0.416519	0.173243
0.51804	0.184863
0.62404	0.196131
0.73004	0.203877
0.83604	0.210215
0.900237	0.21444
0.970406	0.218314
1.01221	0.220778
