Adsorption isotherm of Hydrogen on Zeolite KY
DOI: 10.1016/j.ijhydene.2007.05.014
Adsorbate Hydrogen: InChIKey UFHFLCQGNIYNRP-UHFFFAOYSA-N
Temperature: 77 K
Tabular data in the source: 0
pressure (bar)	uptake (cm3(STP)/m2)
0.0104345	0.00493339
0.0164064	0.0232432
0.031336	0.0369756
0.0522374	0.0489475
0.0835895	0.0647925
0.104491	0.0771165
0.17466	0.105638
0.244829	0.123595
0.314998	0.138736
0.410547	0.153877
0.485195	0.163032
0.594181	0.173243
0.692716	0.181694
0.801702	0.190849
0.90173	0.195778
0.970406	0.199652
1.00474	0.202469
