Adsorption isotherm of Water on Zeolite 4A
DOI: 10.1021/Jp805923k
Adsorbate Water: InChIKey XLYOFNOQVPJJNP-UHFFFAOYSA-N
Temperature: 298 K
Tabular data in the source: 0
pressure (bar)	uptake (mmol/g)
0.000162782	4.6332
0.000244174	5.52406
0.000488347	6.77089
0.000813912	7.92838
0.00154643	10.154
0.00227895	10.5975
0.0027673	11.0417
0.00406956	11.8399
0.00520904	12.6387
0.00634851	13.081
0.00813912	13.6997
0.00935999	13.9636
0.0107436	14.4052
0.0137551	14.5748
0.0172549	15.0105
0.0201036	15.1806
0.0249057	15.4343
0.0288125	15.6014
0.0311728	15.5948
