Adsorption isotherm of Ethanol on Zeolite 4A
DOI: 10.1021/Jp805923k
Adsorbate Ethanol: InChIKey LFQSCWFLJHTTHZ-UHFFFAOYSA-N
Temperature: 298 K
Tabular data in the source: 0
pressure (bar)	uptake (mmol/g)
0.00040444	3.95
0.000808879	3.975
0.0020222	4.05
0.00465106	4.05
0.00990877	4.05
0.014762	4.075
0.0200198	4.1
0.0242664	4.075
0.0299285	4.05
0.036804	4.05
0.0408484	4.05
0.0473194	4.05
0.0543971	4.05
0.0622837	4.05
0.0675414	4.05
0.0732036	4.05
0.0776524	4.05
