Adsorption isotherm of Water on Zeolite 4A
DOI: 10.1021/Jp805923k
Adsorbate Water: InChIKey XLYOFNOQVPJJNP-UHFFFAOYSA-N
Temperature: 298 K
Tabular data in the source: 0
pressure (bar)	uptake (mmol/g)
0.000488347	0.622377
0.00065113	1.86944
0.000813912	4.80957
0.000976694	6.32396
0.00105809	9.26433
0.00130226	11.4022
0.00195339	12.6479
0.00325565	13.4462
0.00618573	13.9726
0.00862747	14.233
0.0115575	14.4029
0.0139993	14.6633
0.0185572	14.7394
0.0209989	14.9107
0.0253941	14.9874
0.0277544	15.1589
0.0297892	15.064
0.0313356	15.327
