Adsorption isotherm of Methanol on Zeolite 4A
DOI: 10.1021/Jp805923k
Adsorbate Methanol: InChIKey OKKJLVBELUTLKV-UHFFFAOYSA-N
Temperature: 298 K
Tabular data in the source: 0
pressure (bar)	uptake (mmol/g)
0	3.80198
0.00175055	4.71287
0.00393873	4.91089
0.00831509	5.18812
0.0140044	5.26733
0.0183807	5.22772
0.0245076	5.38614
0.0328227	5.50495
0.0393873	5.62376
0.0490153	5.62376
0.0621444	5.66337
0.0748358	5.70297
0.081838	5.74257
0.0936542	5.74257
0.106783	5.82178
0.118162	5.82178
0.126915	5.86139
0.139168	5.86139
0.149672	5.86139
0.160613	5.94059
0.168052	5.9802
