Adsorption isotherm of Methanol on Zeolite 4A
DOI: 10.1021/Jp805923k
Adsorbate Methanol: InChIKey OKKJLVBELUTLKV-UHFFFAOYSA-N
Temperature: 298 K
Tabular data in the source: 0
pressure (bar)	uptake (mmol/g)
0.000875273	6.77228
0.00306345	6.85149
0.00743982	6.9703
0.009628	7.08911
0.0170678	7.08911
0.0227571	7.16832
0.0284464	7.16832
0.0306345	7.16832
