Adsorption isotherm of Water on Zeolite 4A
DOI: 10.1021/Jp805923k
Adsorbate Water: InChIKey XLYOFNOQVPJJNP-UHFFFAOYSA-N
Temperature: 298 K
Tabular data in the source: 0
pressure (bar)	uptake (mmol/g)
0.000813912	13.364
0.00358121	14.0691
0.00561599	14.5088
0.00724382	14.9498
0.0107436	15.0289
0.0144062	15.1077
0.0190455	15.1836
0.0223012	15.0853
0.0254754	15.3436
0.029138	15.4223
0.0312542	15.5945
