Adsorption isotherm of Ethanol on Zeolite 4A
DOI: 10.1021/Jp805923k
Adsorbate Ethanol: InChIKey LFQSCWFLJHTTHZ-UHFFFAOYSA-N
Temperature: 298 K
Tabular data in the source: 0
pressure (bar)	uptake (mmol/g)
0.00020222	0.00020222
0.000606659	1.7
0.00121332	2.825
0.00323552	2.975
0.00545993	3.175
0.00748213	3.325
0.0115265	3.35
0.0167842	3.4
0.0230531	3.4
0.0301307	3.45
0.0357929	3.475
0.0430728	3.475
0.0523749	3.5
0.0576326	3.55
0.0632948	3.525
0.0679458	3.55
0.0725969	3.65
0.0778546	3.675
