Adsorption isotherm of Methanol on Zeolite 4A
DOI: 10.1021/Jp805923k
Adsorbate Methanol: InChIKey OKKJLVBELUTLKV-UHFFFAOYSA-N
Temperature: 298 K
Tabular data in the source: 0
pressure (bar)	uptake (mmol/g)
0.000437636	0.000437636
0.00131291	4.27723
0.00393873	5.46535
0.00831509	5.62376
0.0126915	5.74257
0.0188184	5.82178
0.0323851	5.90099
0.043326	5.94059
0.0525164	5.94059
0.0612691	5.9802
0.0691465	5.9802
0.0752735	6.0198
0.086652	6.0198
0.0910284	6.05941
0.0984682	6.05941
0.115098	6.05941
0.128227	6.09901
0.132604	6.09901
0.139606	6.09901
0.15186	6.17822
0.158862	6.13861
0.162801	6.49505
0.167177	6.81188
