Adsorption isotherm of Water on Zeolite 4A
DOI: 10.1021/Jp805923k
Adsorbate Water: InChIKey XLYOFNOQVPJJNP-UHFFFAOYSA-N
Temperature: 298 K
Tabular data in the source: 0
pressure (bar)	uptake (mmol/g)
0.000162782	7.12825
0.000488347	8.90951
0.000813912	10.6908
0.00154643	12.1144
0.0027673	13.0021
0.00398817	13.8897
0.00512765	14.4211
0.00675547	14.7729
0.0092786	15.3004
0.0122087	15.4703
0.014976	15.7298
0.0170922	15.8129
0.0199408	15.8939
0.0232779	15.9736
0.0260452	15.9657
0.0289753	16.1356
0.0311728	16.1294
