Adsorption isotherm of Ethanol on Zeolite 4A
DOI: 10.1021/Jp805923k
Adsorbate Ethanol: InChIKey LFQSCWFLJHTTHZ-UHFFFAOYSA-N
Temperature: 298 K
Tabular data in the source: 0
pressure (bar)	uptake (mmol/g)
0.00020222	3.45
0.00040444	3.675
0.00121332	3.725
0.00485327	3.775
0.00727991	3.8
0.0115265	3.8
0.0145598	3.825
0.0192109	3.8
0.0260864	3.8
0.0291196	3.8
0.0341751	3.825
0.0390284	3.875
0.0454995	3.925
0.0525771	4.025
0.0578349	4.025
0.0659237	4.025
0.0760346	4.05
