Adsorption isotherm of Ethanol on ZIF-8
DOI: 10.1002/cssc.201100261
Adsorbate Ethanol: InChIKey LFQSCWFLJHTTHZ-UHFFFAOYSA-N
Temperature: 323 K
Tabular data in the source: 0
pressure (bar)	uptake (mmol/g)
0.0108846	0.181761
0.0180044	0.441672
0.0339597	3.35845
0.0613117	5.14895
0.101417	5.62545
0.160573	5.8998
