Adsorption isotherm of 1-Butanol on ZIF-8
DOI: 10.1002/cssc.201100261
Adsorbate 1-Butanol: InChIKey LRHPLDYGYMQRHN-UHFFFAOYSA-N
Temperature: 333 K
Tabular data in the source: 0
pressure (bar)	uptake (mmol/g)
0.000553	0.254797
0.00108005	0.37792
0.0016302	0.606577
0.00250315	1.2046
0.00365076	2.19838
0.00514494	2.89315
0.00750374	3.27131
0.010395	3.49997
0.0141554	3.64947
0.0199489	3.79019
0.0262493	3.90452
0.0345394	4.02764
0.0462341	4.02764
