Adsorption isotherm of 1-Butanol on ZIF-8
DOI: 10.1002/cssc.201100261
Adsorbate 1-Butanol: InChIKey LRHPLDYGYMQRHN-UHFFFAOYSA-N
Temperature: 313 K
Tabular data in the source: 0
pressure (bar)	uptake (mmol/g)
5.01e-05	0.0964964
0.000136	0.289975
0.000208	0.430687
0.000265	0.641755
0.000336	1.16063
0.000373	1.35411
0.000466	2.11923
0.000603	2.86676
0.00111775	3.56153
0.00134987	3.6143
0.00171629	3.69345
0.00207271	3.7726
0.00254646	3.83416
0.00297156	3.90452
0.00433393	4.01884
0.0063209	4.12438
0.00890792	4.18594
0.011924	4.26509
