Adsorption isotherm of 1-Propanol on ZIF-8
DOI: 10.1002/cssc.201100261
Adsorbate 1-Propanol: InChIKey BDERNNFJNOPAEC-UHFFFAOYSA-N
Temperature: 323 K
Tabular data in the source: 0
pressure (bar)	uptake (mmol/g)
0.00356585	0.482482
0.00540404	1.56727
0.00801256	3.34941
0.0111254	3.98036
0.0147861	4.22388
0.020086	4.37885
0.0278893	4.48954
0.0354789	4.64451
0.048196	4.69985
0.0626681	4.83268
