Adsorption isotherm of Acetone on ZIF-8
DOI: 10.1002/cssc.201100261
Adsorbate Acetone: InChIKey CSCPPACGZOOCGX-UHFFFAOYSA-N
Temperature: 323 K
Tabular data in the source: 0
pressure (bar)	uptake (mmol/g)
0.00658029	0.854285
0.020086	2.13707
0.0311138	3.51148
0.044157	4.0956
0.0561735	4.38194
0.0626681	4.49647
0.0714601	4.57665
0.0779966	4.65682
0.0889392	4.71409
0.110694	4.80572
0.129016	4.87444
0.153697	4.96607
0.187151	5.04624
0.218129	5.09205
