Adsorption isotherm of Methanol on ZIF-8
DOI: 10.1002/cssc.201100261
Adsorbate Methanol: InChIKey OKKJLVBELUTLKV-UHFFFAOYSA-N
Temperature: 323 K
Tabular data in the source: 0
pressure (bar)	uptake (mmol/g)
0.0714601	0.323609
0.0889392	0.427411
0.113142	0.863381
0.150371	3.16779
0.187151	6.63479
0.222954	7.69357
0.345362	8.66932
