Adsorption isotherm of 1-Butanol on ZIF-8
DOI: 10.1002/cssc.201100261
Adsorbate 1-Butanol: InChIKey LRHPLDYGYMQRHN-UHFFFAOYSA-N
Temperature: 323 K
Tabular data in the source: 0
pressure (bar)	uptake (mmol/g)
0.00274238	3.2002
0.00589835	3.5502
0.0116231	3.79252
0.020086	3.93611
