Adsorption isotherm of 1-Butanol on ZIF-8
DOI: 10.1002/cssc.201100261
Adsorbate 1-Butanol: InChIKey LRHPLDYGYMQRHN-UHFFFAOYSA-N
Temperature: 363 K
Tabular data in the source: 0
pressure (bar)	uptake (mmol/g)
0.00015	0.00855144
0.000741	0.0525239
0.00132691	0.105291
0.00144574	0.105291
0.00233715	0.140469
0.00464175	0.175647
0.00654152	0.272386
0.00890792	0.386715
0.0127709	0.65055
0.0168043	1.00233
0.0245086	1.70589
0.0301104	2.12803
