Adsorption isotherm of 1-Pentanol on ZIF-8
DOI: 10.1002/cssc.201100261
Adsorbate 1-Pentanol: InChIKey AMQJEAYHLZJPGS-UHFFFAOYSA-N
Temperature: 323 K
Tabular data in the source: 0
pressure (bar)	uptake (mmol/g)
3.85e-05	0.117632
0.000182	0.796811
0.000358	2.08725
0.000606	2.57022
0.000823	2.70606
0.00122045	2.81926
0.00173208	2.93245
0.00256814	3.02301
0.00356585	3.10602
0.004844	3.13621
0.00643787	3.18903
0.00855619	3.27959
