Adsorption isotherm of Water on ZIF-8
DOI: 10.1002/cssc.201100261
Adsorbate Water: InChIKey XLYOFNOQVPJJNP-UHFFFAOYSA-N
Temperature: 323 K
Tabular data in the source: 0
pressure (bar)	uptake (mmol/g)
0.00312713	-0.0152
0.00463659	-0.0152
0.00855619	0.0586267
0.0108846	0.132476
0.0147861	0.1694
0.0196513	0.206324
0.0214488	0.206324
0.0285063	0.280173
0.037886	0.280173
0.050352	0.354022
0.0640544	0.612493
0.0714601	0.981737
