Adsorption isotherm of Nitrogen on C22H32CoN6O3
DOI: 10.1021/Ja104357r
Adsorbate Nitrogen: InChIKey IJGRMHOSHXDMSA-UHFFFAOYSA-N
Temperature: 77 K
Tabular data in the source: 0
pressure (bar)	uptake (molecules/unitcell)
0.000699722	2.2549
0.00111955	9.60784
0.00113363	7.84314
0.00114301	6.66667
0.00116255	4.21569
0.00159724	9.70588
0.00230947	10.3922
0.00350095	10.9804
0.00444851	12.1569
0.0056353	13.3333
0.0087344	14.7059
0.0115927	16.2745
0.0123026	17.2549
0.0139679	18.4314
0.0173078	19.6078
0.0213677	20.4902
0.0268646	21.1765
0.0321231	21.7647
0.0369047	22.1569
0.0409701	22.3529
0.0435977	22.8431
0.0450316	23.0392
0.0478938	24.1176
0.0507568	25.098
0.0536174	26.3725
0.0579143	27.549
0.0626927	28.3333
0.0674719	29.0196
0.074405	29.6078
0.0787097	29.8039
0.0830136	30.098
0.0885136	30.3922
0.0968837	30.7843
0.102863	30.9804
0.108362	31.3725
