Adsorption isotherm of Nitrogen on C22H32CoN6O3
DOI: 10.1021/Ja104357r
Adsorbate Nitrogen: InChIKey IJGRMHOSHXDMSA-UHFFFAOYSA-N
Temperature: 77 K
Tabular data in the source: 0
pressure (bar)	uptake (molecules/unitcell)
0.000113092	15.7843
0.00101315	22.6471
0.00959334	24.1176
0.0179466	24.1176
0.0993292	24.3137
0.105057	24.3137
0.108876	24.3137
