Adsorption isotherm of Nitrogen on C22H32CoN6O3
DOI: 10.1021/Ja104357r
Adsorbate Nitrogen: InChIKey IJGRMHOSHXDMSA-UHFFFAOYSA-N
Temperature: 77 K
Tabular data in the source: 0
pressure (bar)	uptake (cm3(STP)/g)
8.20695e-05	12.8205
0.000410272	20.5128
0.00045521	38.4615
0.00047163	30.7692
0.000742526	48.7179
0.000795521	66.6667
0.000852181	87.1795
0.000880809	120.513
0.000881864	100
0.00091042	153.846
0.000910965	143.59
0.00094172	174.359
0.000974365	189.744
0.00104408	205.128
0.00241664	215.385
0.00277851	223.077
0.00297812	233.333
0.00319023	253.846
0.00330135	266.667
0.00366186	289.744
0.00467479	302.564
0.00663043	310.256
0.00846314	325.641
0.00936487	389.744
0.00937177	376.923
0.00938451	353.846
0.00939294	338.462
0.00968527	412.821
0.0111304	428.205
0.013249	441.026
0.0163392	446.154
0.0187859	453.846
0.0223744	456.41
0.026581	502.564
0.0266165	479.487
0.0284696	525.641
0.0315691	553.846
0.0338121	576.923
0.0431521	594.872
0.0513797	602.564
0.0899273	605.128
0.18104	607.692
0.256853	610.256
0.364468	610.256
0.554499	615.385
0.708302	617.949
0.843737	617.949
0.93741	612.821
