Adsorption isotherm of Nitrogen on C22H32CoN6O3
DOI: 10.1021/Ja104357r
Adsorbate Nitrogen: InChIKey IJGRMHOSHXDMSA-UHFFFAOYSA-N
Temperature: 77 K
Tabular data in the source: 0
pressure (bar)	uptake (molecules/unitcell)
0.000714431	0.196078
0.010261	0.196078
0.0503564	0.196078
0.0522634	0.490196
0.088541	0.392157
0.0914034	0.588235
0.0990407	0.588235
0.109065	0.588235
