Adsorption isotherm of Nitrogen on C22H32CoN6O3
DOI: 10.1021/Ja104357r
Adsorbate Nitrogen: InChIKey IJGRMHOSHXDMSA-UHFFFAOYSA-N
Temperature: 77 K
Tabular data in the source: 0
pressure (bar)	uptake (molecules/unitcell)
8.89e-05	18.8235
0.000130251	13.6275
0.00102875	20.6863
0.0098554	21.1765
0.0995905	21.4706
0.108898	21.5686
