Adsorption isotherm of Nitrogen on C22H32CoN6O3
DOI: 10.1021/Ja104357r
Adsorbate Nitrogen: InChIKey IJGRMHOSHXDMSA-UHFFFAOYSA-N
Temperature: 77 K
Tabular data in the source: 0
pressure (bar)	uptake (molecules/unitcell)
0.000178608	7.54902
0.000887579	8.43137
0.00971657	8.62745
0.0610292	8.62745
0.0994533	8.72549
0.108522	8.72549
