Adsorption isotherm of Nitrogen on KIT-6-CN
DOI: 10.1007/s10853-014-8678-1
Article source: Figure 2
Adsorbate Nitrogen: InChIKey IJGRMHOSHXDMSA-UHFFFAOYSA-N
Kind: experiment
Temperature: 77 K
Tabular data in the source: 0
pressure (bar)	uptake (cm3(STP)/g)
0.048747	209.067
0.052628	209.518
0.074737	228.522
0.077048	218.586
0.098427	235.487
0.103564	226.06
0.122958	231.719
0.148948	248.185
0.154196	241.006
0.175059	245.432
0.202093	261.101
0.204828	253.268
0.225367	258.057
0.25388	273.581
0.255136	273.713
0.275685	271.408
0.303772	287.512
0.304198	287.595
0.32956	288.53
0.353037	297.961
0.357019	306.955
0.376311	307.972
0.401257	323.351
0.407327	336.406
0.428503	344.531
0.452396	367.162
0.459722	411.694
0.48027	393.71
0.503342	414.155
0.509401	444.401
0.534763	431.428
0.551137	457.93
0.556558	439.015
0.579407	444.775
0.604231	449.712
0.607524	467.439
0.631042	454.558
0.654154	473.658
0.656799	458.399
0.68215	462.696
0.702486	479.329
0.707117	467.359
0.731283	471.748
0.756644	477.508
0.76166	486.737
0.789524	484.547
0.807489	489.118
0.808138	499.535
0.835729	496.653
0.85952	505.866
0.860847	532
0.883645	521.526
0.908764	542.482
0.911246	589.454
0.935382	575.411
0.962831	602.009
0.963824	605.233
0.989449	609.726
1.00144	613.641
