Adsorption isotherm of Carbon Dioxide on KIT-6-CN
DOI: 10.1007/s10853-014-8678-1
Article source: Figure 6
Adsorbate Carbon Dioxide: InChIKey CURLTUGMZLYLDI-UHFFFAOYSA-N
Kind: experiment
Temperature: 273 K
Tabular data in the source: 0
pressure (bar)	uptake (mmol/g)
0.00433	0.18177
0.00515	0.20428
0.00986	0.25701
0.00987	0.25703
0.02422	0.49836
0.04084	0.66519
0.04987	0.65596
0.05458	0.77992
0.07264	0.87949
0.07654	0.82411
0.09254	1.00544
0.10075	0.96127
0.11921	1.14919
0.15081	1.28438
0.20067	1.46969
0.20149	1.46822
0.25032	1.62071
0.25176	1.62598
0.29875	1.75539
0.29936	1.75854
0.34923	1.87792
0.35026	1.87718
0.3995	1.99223
0.40053	1.99729
0.44998	2.0982
0.45019	2.0171
0.50005	2.18952
0.50107	2.19384
0.54991	2.27892
0.55012	2.27883
0.6008	2.30006
0.60162	2.30379
0.65005	2.37855
0.66236	2.46229
0.70012	2.52166
0.70073	2.46628
0.7506	2.58427
0.75101	2.58565
0.80005	2.65887
0.80046	2.65856
0.85032	2.67969
0.85115	2.67934
0.89978	2.74662
0.9006	2.74885
0.94862	2.83962
0.94923	2.81061
0.99786	2.88647
1.00115	2.86867
1.0506	2.93266
1.09923	2.99269
1.1807	3.08241
