Adsorption isotherm of Carbon Dioxide on KIT-6-C
DOI: 10.1007/s10853-014-8678-1
Article source: Figure 6
Adsorbate Carbon Dioxide: InChIKey CURLTUGMZLYLDI-UHFFFAOYSA-N
Kind: experiment
Temperature: 273 K
Tabular data in the source: 0
pressure (bar)	uptake (mmol/g)
0.00359	0.22589
0.00461	0.24235
0.01036	0.37259
0.01056	0.37753
0.02369	0.55889
0.03928	0.69869
0.05057	0.66704
0.05488	0.7897
0.06883	0.86686
0.0754	0.7963
0.08894	0.95061
0.10002	0.89918
0.12013	1.06668
0.14927	1.15374
0.19956	1.17288
0.20017	1.17465
0.24942	1.37402
0.2525	1.28302
0.29909	1.45962
0.29929	1.45976
0.34957	1.44988
0.34998	1.45072
0.39985	1.60844
0.40006	1.60948
0.45013	1.67742
0.45013	1.58774
0.49946	1.65426
0.49963	1.65387
0.54931	1.71198
0.54947	1.71263
0.60029	1.84703
0.64965	1.82297
0.65925	1.89991
0.69933	1.87533
0.69981	1.93499
0.75017	1.97978
0.75099	1.98283
0.79984	2.02438
0.80148	2.02068
0.8495	2.02036
0.85012	2.02044
0.89753	2.09431
0.9004	2.06398
0.94781	2.13125
0.94966	2.10422
0.99563	2.16424
0.99953	2.14446
1.0496	2.18997
1.10029	2.22889
1.1789	2.28563
