Adsorption isotherm of Carbon Dioxide on KIT-6-C
DOI: 10.1007/s10853-014-8678-1
Article source: Figure 6
Adsorbate Carbon Dioxide: InChIKey CURLTUGMZLYLDI-UHFFFAOYSA-N
Kind: experiment
Temperature: 298 K
Tabular data in the source: 0
pressure (bar)	uptake (mmol/g)
0.00306	0.08112
0.00694	0.13343
0.01469	0.20983
0.02089	0.25716
0.05086	0.43652
0.05319	0.37009
0.0762	0.45313
0.09997	0.52016
0.10256	0.52537
0.20052	0.82763
0.20078	0.82833
0.25197	0.82015
0.29991	0.89202
0.30013	0.89172
0.35019	0.96422
0.35059	0.96624
0.39943	1.01299
0.40025	1.0901
0.44887	1.06939
0.44929	1.06901
0.49792	1.1741
0.49996	1.17974
0.54941	1.1804
0.54942	1.1804
0.60092	1.26438
0.60153	1.2641
0.65016	1.2529
0.65919	1.31683
0.69817	1.34714
0.70084	1.2931
0.74968	1.33726
0.74988	1.3377
0.79871	1.41239
0.80077	1.36823
0.84981	1.41964
0.85001	1.42001
0.89741	1.46841
0.89905	1.44534
0.94727	1.49675
0.95137	1.47962
0.99959	1.52048
1.00021	1.51323
1.05089	1.54025
1.09911	1.56991
1.18036	1.61275
