Adsorption isotherm of Carbon Dioxide on KIT-6-CN
DOI: 10.1007/s10853-014-8678-1
Article source: Figure 6
Adsorbate Carbon Dioxide: InChIKey CURLTUGMZLYLDI-UHFFFAOYSA-N
Kind: experiment
Temperature: 298 K
Tabular data in the source: 0
pressure (bar)	uptake (mmol/g)
0.00425	0.07535
0.00962	0.15542
0.01157	0.17375
0.04022	0.36584
0.04901	0.3538
0.07001	0.50559
0.07522	0.45691
0.08808	0.58514
0.10225	0.55112
0.14972	0.77485
0.20018	0.90542
0.20059	0.90382
0.25002	1.02016
0.25228	0.94366
0.29894	1.03566
0.29976	1.04024
0.34971	1.20546
0.35053	1.1293
0.39936	1.29106
0.4	1.29173
0.45015	1.29069
0.45031	1.29084
0.49965	1.43825
0.49986	1.36967
0.54991	1.43561
0.55011	1.43631
0.59995	1.50551
0.59996	1.50551
0.6498	1.56486
0.65903	1.6341
0.69862	1.62949
0.69985	1.63097
0.74867	1.73632
0.79954	1.74093
0.79995	1.78446
0.84959	1.7877
0.85082	1.78907
0.89861	1.84823
0.89943	1.84842
0.94866	1.92096
0.94928	1.92192
0.99625	1.96053
0.99892	1.96279
1.0502	1.99284
1.09963	2.04032
1.18004	2.10758
