Adsorption isotherm of Nitrogen on KIT-6
DOI: 10.1007/s10853-014-8678-1
Article source: Figure 2
Adsorbate Nitrogen: InChIKey IJGRMHOSHXDMSA-UHFFFAOYSA-N
Kind: experiment
Temperature: 77 K
Tabular data in the source: 0
pressure (bar)	uptake (cm3(STP)/g)
0.029942	67.61
0.052375	79.354
0.059083	81.529
0.086967	90.662
0.088021	91.387
0.10018	94.431
0.102277	95.446
0.120627	97.981
0.12157	98.924
0.141277	103.852
0.152079	105.954
0.160043	108.388
0.161826	108.708
0.182061	111.824
0.182689	111.932
0.203238	115.882
0.248733	123.708
0.250941	124.129
0.253981	125.592
0.303144	134.07
0.306184	134.142
0.35481	142.547
0.36097	143.48
0.379026	147.033
0.38085	146.112
0.404155	151.594
0.404733	151.692
0.452548	159.355
0.455719	160.451
0.505642	168.667
0.511195	171.498
0.554785	179.838
0.556234	180.172
0.605245	191.015
0.607747	191.403
0.657549	203.913
0.661379	212.043
0.706418	221.082
0.707208	220.131
0.710025	214.929
0.756614	407.717
0.760029	451.554
0.761295	450.956
0.809972	452.658
0.834938	453.934
0.836661	453.203
0.863471	454.662
0.875489	454.752
0.883544	455.938
0.894649	455.937
0.909443	455.936
0.912736	457.031
0.926475	456.482
0.937834	456.663
0.947348	458.306
0.95818	458.123
0.986956	459.349
0.992863	459.233
0.998517	461.132
1.00318	461.764
1.00792	462.455
