Adsorption isotherm of Nitrogen on KIT-6-C
DOI: 10.1007/s10853-014-8678-1
Article source: Figure 2
Adsorbate Nitrogen: InChIKey IJGRMHOSHXDMSA-UHFFFAOYSA-N
Kind: experiment
Temperature: 77 K
Tabular data in the source: 0
pressure (bar)	uptake (cm3(STP)/g)
0.049335	127.823
0.052486	123.07
0.053743	123.908
0.071363	136.958
0.072721	130.768
0.074504	131.013
0.093908	143.266
0.097687	137.306
0.100514	137.973
0.125795	143.918
0.151065	150.081
0.155058	158.128
0.178859	157.621
0.203825	163.856
0.204139	164.146
0.229167	168.823
0.252634	178.66
0.253637	178.893
0.278694	181.195
0.29975	192.646
0.303914	186.674
0.305079	186.834
0.327888	194.602
0.352196	202.141
0.354688	203.761
0.355438	204.563
0.383404	214.822
0.384072	214.88
0.40151	223.043
0.402169	228.615
0.429395	236.471
0.453703	249.716
0.455557	265.519
0.476967	263.966
0.503879	278.77
0.507243	304.566
0.5085	303.855
0.530203	291.965
0.531257	291.313
0.558635	332.292
0.560348	331.957
0.580167	311.74
0.603421	352.292
0.603694	352.388
0.639472	331.039
0.640637	330.048
0.658613	381.498
0.659058	379.927
0.660254	375.864
0.680722	345.994
0.70663	397.056
0.707289	393.707
0.713895	357.23
0.732256	364.081
0.760596	422.592
0.761265	424.486
0.761923	426.501
0.76242	377.132
0.786556	391.403
0.811036	411.543
0.813792	427.321
0.814207	432.164
0.832851	435.021
0.834513	434.446
0.860817	463.908
0.861982	463.796
0.863248	543.492
0.885631	496.248
0.908439	526.574
0.912776	560.64
0.939414	556.669
0.959477	564.956
0.962466	569.847
0.982944	572.091
0.986024	577.328
1.00284	587.513
1.00342	587.11
