Adsorption isotherm of Carbon Dioxide on NTU-COF-2
DOI: 10.1021/ja510926w
Article source: Figure 2b
Adsorbate Carbon Dioxide: InChIKey CURLTUGMZLYLDI-UHFFFAOYSA-N
Kind: experiment
Temperature: 298 K
Tabular data in the source: 0
pressure (bar)	uptake (cm3(STP)/g)
0.015948	0.432926
0.02836	0.456185
0.053216	1.40754
0.078072	2.3589
0.101158	2.82419
0.126009	4.26336
0.149099	4.24083
0.177508	5.18872
0.200588	6.14182
0.227231	6.11582
0.252088	7.06718
0.275168	8.02028
0.300029	8.48382
0.323115	8.94911
0.355084	9.16182
0.376385	10.3606
0.401247	10.8241
0.426108	11.2877
0.452746	11.7495
0.477608	12.213
0.498912	13.1678
0.523773	13.6314
0.546864	13.6089
0.575273	14.5568
0.60014	14.5325
0.62322	15.4856
0.648081	15.9491
0.672943	16.4127
0.69781	16.3884
0.722666	17.3398
0.749299	18.2894
0.77239	18.2669
0.797246	19.2182
0.823878	20.1679
0.848745	20.1436
0.873607	20.6072
0.898469	21.0707
0.925106	21.5325
0.948181	22.9734
0.971277	22.4631
0.9837	23.4266
0.093069	9.87973
0.140594	9.85421
0.207921	11.4288
0.263366	10.3252
0.29505	14.0666
0.354455	15.1085
0.40198	14.0092
0.447525	15.0585
0.49505	15.5699
0.550495	18.7616
0.59802	19.81
0.643564	18.7117
0.69901	19.2188
0.748515	20.803
0.80198	23.4588
0.855446	22.3563
0.89901	22.8698
0.958416	23.3748
0.978218	23.3642
0.988119	23.3589
