Adsorption isotherm of Hydrogen on NTU-COF-2
DOI: 10.1021/ja510926w
Article source: Figure 2b
Adsorbate Hydrogen: InChIKey UFHFLCQGNIYNRP-UHFFFAOYSA-N
Kind: experiment
Temperature: 87 K
Tabular data in the source: 0
pressure (bar)	uptake (cm3(STP)/g)
0.012347	2.91083
0.026535	4.84821
0.049588	8.24035
0.074422	11.143
0.104575	15.016
0.124081	17.9238
0.152462	21.3107
0.175532	23.2394
0.202137	26.6281
0.225206	28.5568
0.246494	30.9751
0.276668	32.8969
0.29795	35.8029
0.324566	38.216
0.349401	41.1186
0.376022	43.0438
0.400873	44.483
0.427489	46.8961
0.450547	49.8004
0.476281	51.7265
0.498457	54.1439
0.523302	56.0709
0.549924	57.9961
0.574764	60.4109
0.60138	62.824
0.622678	64.2666
0.6493	66.1919
0.675916	68.6049
0.698985	70.5336
0.722054	72.4623
0.754005	74.3824
0.777074	76.3111
0.800148	77.752
0.823212	80.1685
0.848058	82.0955
0.874679	84.0208
0.897748	85.9495
0.92437	87.8747
0.949226	88.8261
0.972295	90.7548
0.984707	92.6939
0.051485	23.3249
0.112871	33.4933
0.142574	37.2357
0.20198	42.5729
0.251485	46.8417
0.30297	50.5724
0.358416	55.9118
0.409901	59.6425
0.451485	63.9155
0.512871	66.0302
0.556436	70.3021
0.6	73.5002
0.647525	76.6961
0.689109	78.8214
0.754455	82.5448
0.80396	83.592
0.855446	84.6382
0.893069	88.9133
0.952475	92.1029
0.980198	92.088
