Adsorption isotherm of Hydrogen on NTU-COF-2
DOI: 10.1021/ja510926w
Article source: Figure 2b
Adsorbate Hydrogen: InChIKey UFHFLCQGNIYNRP-UHFFFAOYSA-N
Kind: experiment
Temperature: 77 K
Tabular data in the source: 0
pressure (bar)	uptake (cm3(STP)/g)
0.010522	7.30286
0.024656	14.1183
0.049447	20.9234
0.076009	28.2146
0.10079	35.9953
0.123815	41.8265
0.150394	47.6542
0.175207	52.508
0.200025	56.8741
0.223051	62.7053
0.247869	67.0713
0.274458	71.9234
0.299277	76.2894
0.3241	80.1677
0.347137	85.0232
0.37195	89.8771
0.398555	93.2657
0.421592	98.1213
0.449968	101.996
0.473026	104.9
0.497845	109.266
0.524445	113.143
0.549274	116.533
0.572327	119.925
0.59715	123.804
0.62198	127.194
0.648585	130.583
0.673414	133.973
0.698232	138.339
0.721302	140.268
0.744344	144.636
0.770949	148.024
0.79756	150.925
0.824165	154.314
0.845447	157.22
0.873834	160.119
0.895127	162.05
0.921727	165.926
0.944786	168.83
0.96962	171.733
0.015842	9.38428
0.047525	35.1391
0.091089	48.5385
0.152475	59.2438
0.205941	71.5641
0.245545	80.6703
0.30297	87.0825
0.352475	96.7203
0.40198	105.821
0.447525	112.777
0.50099	119.191
0.554455	127.216
0.60198	130.949
0.649505	140.051
0.706931	143.241
0.746535	149.663
0.805941	155
0.851485	160.882
0.908911	165.683
0.952475	169.955
0.986139	171.011
