Adsorption isotherm of Nitrogen on NTU-COF-1
DOI: 10.1021/ja510926w
Article source: Figure S42
Adsorbate Nitrogen: InChIKey IJGRMHOSHXDMSA-UHFFFAOYSA-N
Kind: experiment
Temperature: 77 K
Tabular data in the source: 0
pressure (bar)	uptake (cm3(STP)/g)
0.005457	0.890378
0.005457	2.56202
0.007276	4.23323
0.016372	5.90273
0.023649	6.61743
0.030925	7.33214
0.054574	8.04298
0.072765	8.75511
0.094594	9.46638
0.10369	9.70305
0.130977	10.413
0.154625	10.6463
0.180093	11.1179
0.20738	11.3503
0.231028	11.8223
0.256496	11.8163
0.281964	12.5267
0.30925	12.5203
0.33108	12.7539
0.362005	12.7466
0.382015	13.2195
0.409302	13.2131
0.43477	13.2071
0.458418	13.4403
0.482067	13.6736
0.507535	14.6228
0.534821	14.8552
0.55847	15.3272
0.583938	15.3212
0.609405	15.3152
0.634873	15.548
0.658522	15.5424
0.685808	15.7748
0.713095	16.246
0.734925	16.2408
0.764031	16.4728
0.791317	17.1828
0.813147	17.4164
0.836795	18.8437
0.865901	22.6577
0.887731	24.563
0.916837	29.3323
0.940485	36.2521
0.967772	51.0516
0.991421	70.1505
1.00415	91.6401
0.008816	8.84638
0.014708	9.64526
0.052186	13.1102
0.10381	14.4527
0.161432	15.5309
0.1992	16.0724
0.258813	17.1512
0.298573	17.6931
0.364263	17.7104
0.403969	18.7839
0.457716	18.798
0.507429	19.3426
0.557062	20.6845
0.61102	18.5724
0.666704	19.1186
0.714373	20.1942
0.761989	21.8014
0.819347	25.5374
0.858392	33.2553
0.912727	47.3559
0.960482	67.5678
0.989872	92.2931
