Adsorption isotherm of Carbon Dioxide on NTU-COF-2
DOI: 10.1021/ja510926w
Article source: Figure 2b
Adsorbate Carbon Dioxide: InChIKey CURLTUGMZLYLDI-UHFFFAOYSA-N
Kind: experiment
Temperature: 273 K
Tabular data in the source: 0
pressure (bar)	uptake (cm3(STP)/g)
0.012385	0.503839
0.02478	2.8987
0.051391	5.79957
0.076242	7.23874
0.101087	9.16572
0.124167	10.1188
0.152565	12.0423
0.172087	13.4867
0.198714	14.9241
0.227123	15.872
0.251979	16.8234
0.278595	19.2364
0.299894	20.6791
0.32475	21.6304
0.349601	23.0696
0.374452	24.5088
0.40109	24.9706
0.427717	26.408
0.450791	27.8489
0.477418	29.2864
0.500493	30.7273
0.525354	31.1908
0.550205	32.63
0.576838	33.5796
0.599918	34.5327
0.626545	35.9701
0.651401	36.9215
0.678023	38.8468
0.699332	39.3138
0.724193	39.7773
0.75082	41.2148
0.7739	42.1679
0.800533	43.1175
0.825389	44.0688
0.853787	45.9924
0.876872	46.4576
0.901734	46.9212
0.926579	48.8482
0.951441	49.3117
0.974516	50.7526
0.983386	51.7196
0.043564	13.1278
0.10495	18.464
0.154455	21.1219
0.19802	23.7831
0.241584	28.055
0.306931	30.1676
0.344554	34.4427
0.39604	35.4889
0.447525	34.9243
0.49901	39.7289
0.550495	41.312
0.592079	41.8266
0.645545	42.3348
0.70099	44.4527
0.740594	47.6529
0.805941	46.007
0.849505	49.742
0.90495	51.323
0.942574	50.229
0.972277	50.75
