Adsorption isotherm of Nitrogen on NTU-COF-2
DOI: 10.1021/ja510926w
Article source: Figure 2(a)
Adsorbate Nitrogen: InChIKey IJGRMHOSHXDMSA-UHFFFAOYSA-N
Kind: experiment
Temperature: 77 K
Tabular data in the source: 0
pressure (bar)	uptake (cm3(STP)/g)
0.010837	1.9835
0.012643	11.9588
0.010837	25.2522
0.010837	38.5486
0.005418	70.1187
0.005418	85.0771
0.010837	116.665
0.010837	151.568
0.018061	163.214
0.018061	178.173
0.036123	219.754
0.052378	251.359
0.083083	281.326
0.106563	306.296
0.133655	327.947
0.151717	361.217
0.177003	404.472
0.21132	487.631
0.234799	500.966
0.256473	502.663
0.281759	507.691
0.305239	516.04
0.332332	516.084
0.355811	519.447
0.382904	522.815
0.406384	524.516
0.43167	526.219
0.460568	527.929
0.484048	527.967
0.507528	529.668
0.532814	533.034
0.559906	534.74
0.585193	536.444
0.610479	534.823
0.635765	536.527
0.657439	539.886
0.684531	539.931
0.709817	539.972
0.735103	540.014
0.762195	543.382
0.783869	545.08
0.812767	543.465
0.834441	543.501
0.861533	545.207
0.88682	546.911
0.912106	546.952
0.935586	548.653
0.962678	550.359
0.987964	553.725
0.996995	557.064
0.01269	158.776
0.012437	197.307
0.020044	239.523
0.04543	276.266
0.078713	311.189
0.100264	331.411
0.125734	355.311
0.15511	384.722
0.176529	425.127
0.205507	515.088
0.229139	518.801
0.248815	524.341
0.278348	529.899
0.301992	531.777
0.331561	531.83
0.347307	535.528
0.377874	533.749
0.402479	539.298
0.432036	541.186
0.449777	541.218
0.479335	543.107
0.497064	544.974
0.526633	545.027
0.552236	548.743
0.579846	546.959
0.601506	550.668
0.625161	550.71
0.652771	548.926
0.676426	548.968
0.707967	549.025
0.723713	552.724
0.749352	550.935
0.776962	549.15
0.800617	549.193
0.832133	552.92
0.855801	551.128
0.877485	551.167
0.901128	553.045
0.924771	554.923
0.952357	556.807
0.976001	558.685
0.9898	558.71
