Adsorption isotherm of Ni(II) on Activated Carbon (PPhA)
DOI: 10.1016/j.jclepro.2017.06.083
Article source: Figure 11
Adsorbate Ni(II): InChIKey VEQPNABPJHWNSG-UHFFFAOYSA-N
Kind: experiment
Temperature: 295 K
Tabular data in the source: 0
pressure (bar)	uptake (mg/g)
1.01325	6.96613
1.01325	15.9796
1.01325	22.6774
1.01325	36.7008
1.01325	54.8177
1.01325	61.992
