Adsorption isotherm of Cadmium(II) Ion on Activated Carbon (PPhA)
DOI: 10.1016/j.jclepro.2017.06.083
Article source: Figure 11
Adsorbate Cadmium(II) Ion: InChIKey WLZRMCYVCSSEQC-UHFFFAOYSA-N
Kind: experiment
Temperature: 295 K
Tabular data in the source: 0
pressure (bar)	uptake (mg/g)
1.01325	8.87562
1.01325	13.0077
1.01325	46.1088
1.01325	65.6304
1.01325	85.1172
1.01325	111.735
