Adsorption isotherm of Lead(II) Ion on Activated Carbon (PPhA)
DOI: 10.1016/j.jclepro.2017.06.083
Article source: Figure 11
Adsorbate Lead(II) Ion: InChIKey RVPVRDXYQKGNMQ-UHFFFAOYSA-N
Kind: experiment
Temperature: 295 K
Tabular data in the source: 0
pressure (bar)	uptake (mg/g)
1.01325	12.9583
1.01325	36.3486
1.01325	53.2857
1.01325	77.7773
1.01325	115.147
1.01325	181.275
