Adsorption isotherm of Carbon Dioxide on Carbon
DOI: 10.1142/s0218625x13500224
Adsorbate Carbon Dioxide: InChIKey CURLTUGMZLYLDI-UHFFFAOYSA-N
Temperature: 273 K
Tabular data in the source: 0
pressure (bar)	uptake (ml/g)
0.00339	0.677276
0.0119111	5.18432
0.0306576	9.80404
0.0459956	13.0716
0.103939	21.297
0.175517	28.5083
0.303334	37.0716
0.373207	41.128
0.521475	48.2266
0.587939	50.5928
0.669742	53.7477
0.751545	56.0012
0.85039	59.6069
0.966277	63.5505
0.995249	64.1139
1.08046	67.6068
