Adsorption isotherm of Nitrogen on Carbon
DOI: 10.1142/s0218625x13500224
Adsorbate Nitrogen: InChIKey IJGRMHOSHXDMSA-UHFFFAOYSA-N
Temperature: 77 K
Tabular data in the source: 0
pressure (bar)	uptake (ml/g)
0.000865	76.8693
0.00515504	119.345
0.0123058	137.793
0.0323278	149.378
0.065221	153.668
0.105265	160.104
0.198224	167.826
0.259721	173.404
0.35125	179.84
0.459941	191.853
0.542889	197.43
0.65158	212.018
0.728807	224.46
0.811756	240.764
0.848939	248.057
0.906145	262.216
0.976222	289.246
