Adsorption isotherm of Carbon Dioxide on Carbon
DOI: 10.1142/s0218625x13500224
Adsorbate Carbon Dioxide: InChIKey CURLTUGMZLYLDI-UHFFFAOYSA-N
Temperature: 273 K
Tabular data in the source: 0
pressure (bar)	uptake (ml/g)
0.00339	0.677276
0.0119111	3.71953
0.0221365	5.7477
0.0391787	9.24066
0.071559	12.6209
0.0971224	15.4378
0.182334	23.6632
0.32208	32.79
0.470348	41.0153
0.625432	48.1139
0.760066	53.4097
0.867432	57.2407
0.945827	60.0576
