Adsorption isotherm of Hydrogen on C15H7NO4Cu
DOI: 10.1021/Ic200328q
Adsorbate Hydrogen: InChIKey UFHFLCQGNIYNRP-UHFFFAOYSA-N
Temperature: 298 K
Tabular data in the source: 0
pressure (bar)	uptake (wt%)
4.78321	0.016464
6.52358	0.0507452
8.6981	0.0676603
11.5242	0.0671716
13.6987	0.0840867
15.8732	0.101002
17.8304	0.117954
21.3092	0.134644
23.4838	0.151559
25.6583	0.168474
27.8322	0.168098
31.5291	0.202041
33.703	0.201665
35.8769	0.201289
37.834	0.218242
40.8781	0.235007
42.4004	0.252035
44.5743	0.251659
46.5315	0.268611
48.7054	0.268235
50.0097	0.26801
51.5321	0.285038
53.706	0.284662
55.8805	0.301577
58.0544	0.301201
60.2289	0.318116
61.5333	0.317891
63.7078	0.334806
65.8817	0.33443
68.0556	0.334054
71.3171	0.350781
72.6214	0.350555
74.7953	0.350179
76.9698	0.367095
79.5785	0.366643
81.3182	0.383634
83.4921	0.383258
85.666	0.382882
87.8406	0.399797
90.0145	0.399421
91.102	0.416524
93.2759	0.416148
95.4498	0.415772
97.6244	0.432687
99.5809	0.432349
