Adsorption isotherm of Nitrogen on C15H7NO4Zn
DOI: 10.1021/Ic200328q
Adsorbate Nitrogen: InChIKey IJGRMHOSHXDMSA-UHFFFAOYSA-N
Temperature: 77 K
Tabular data in the source: 0
pressure (bar)	uptake (cm3(STP)/g)
0.0018938	332.824
0.0037876	357.252
0.0056814	377.099
0.0151504	390.84
0.0265132	396.947
0.0435574	401.527
0.0643892	407.634
0.075752	415.267
0.100371	418.321
0.132566	421.374
0.160973	425.954
0.212106	425.954
0.278389	429.008
0.348459	429.008
0.410955	429.008
0.47345	432.061
0.524583	430.534
0.587078	430.534
0.655255	430.534
0.723432	432.061
0.801078	432.061
0.869255	430.534
0.943113	433.588
