Adsorption isotherm of Nitrogen on C15H7NO4Zn
DOI: 10.1021/Ic200328q
Adsorbate Nitrogen: InChIKey IJGRMHOSHXDMSA-UHFFFAOYSA-N
Temperature: 77 K
Tabular data in the source: 0
pressure (bar)	uptake (cm3(STP)/g)
0.00228595	0.503992
0.00751417	0.554723
0.00925542	0.572217
0.0127826	0.589704
0.0252526	0.601909
0.0395175	0.610608
0.0555638	0.62105
0.101944	0.641883
0.184073	0.650337
0.246561	0.657112
0.310854	0.65688
0.378713	0.658386
0.4305	0.659949
0.480496	0.663269
0.528724	0.659595
0.607304	0.659312
0.67874	0.659055
0.768035	0.658733
0.855539	0.660168
0.941249	0.665109
