Adsorption isotherm of Hydrogen on C15H7NO4Zn
DOI: 10.1021/Ic200328q
Adsorbate Hydrogen: InChIKey UFHFLCQGNIYNRP-UHFFFAOYSA-N
Temperature: 87 K
Tabular data in the source: 0
pressure (bar)	uptake (wt%)
0.005	0.0241935
0.0225	0.104839
0.0425	0.185484
0.0675	0.258065
0.095	0.33871
0.1175	0.41129
0.14	0.483871
0.18	0.564516
0.2175	0.637097
0.2475	0.701613
0.29	0.774194
0.3225	0.830645
0.365	0.903226
0.415	0.967742
0.4675	1.03226
0.52	1.10484
0.5725	1.16129
0.625	1.22581
0.6725	1.26613
0.7225	1.32258
0.775	1.3629
0.825	1.40323
0.875	1.45161
0.9275	1.48387
0.98	1.51613
1.0225	1.55645
