Adsorption isotherm of Hydrogen on C15H7NO4Cu
DOI: 10.1021/Ic200328q
Adsorbate Hydrogen: InChIKey UFHFLCQGNIYNRP-UHFFFAOYSA-N
Temperature: 298 K
Tabular data in the source: 0
pressure (bar)	uptake (wt%)
2.61119	0.0687128
5.44101	0.17197
6.52796	0.171782
8.70312	0.205988
10.4435	0.240269
11.5311	0.257372
13.7062	0.291578
15.664	0.325822
17.6224	0.377356
19.7975	0.411562
21.3199	0.42859
23.495	0.462796
25.4528	0.49704
27.6279	0.531246
30.0211	0.582705
31.5435	0.599733
33.7186	0.633939
35.6764	0.668183
37.8515	0.702389
39.8093	0.736632
41.1143	0.753698
41.9838	0.753547
42.6366	0.770726
44.8118	0.804932
46.7695	0.839175
48.9441	0.85609
50.9018	0.890334
51.5546	0.907512
53.7291	0.924427
55.6869	0.958671
57.8621	0.992877
61.5596	1.04411
63.7341	1.06103
65.6919	1.09527
67.867	1.12948
70.0415	1.14639
72.6521	1.19781
74.8266	1.21473
76.7844	1.24897
81.3521	1.31735
83.5266	1.33426
85.4844	1.3685
87.6589	1.38542
89.8347	1.43692
91.1396	1.45398
93.3142	1.4709
95.2719	1.50514
97.4465	1.52206
99.4042	1.5563
