Adsorption isotherm of Hydrogen on C15H7NO4Cu
DOI: 10.1021/Ic200328q
Adsorbate Hydrogen: InChIKey UFHFLCQGNIYNRP-UHFFFAOYSA-N
Temperature: 87 K
Tabular data in the source: 0
pressure (bar)	uptake (wt%)
0.0224518	0.104321
0.0499081	0.216641
0.112332	0.449258
0.137338	0.505327
0.164819	0.59353
0.192331	0.649579
0.21733	0.713687
0.242328	0.777795
0.269841	0.833844
0.294847	0.889913
0.349889	0.985933
0.404938	1.07392
0.457482	1.16192
0.507543	1.22582
0.562609	1.29773
0.612662	1.36967
0.667744	1.4255
0.717813	1.48137
0.767891	1.5292
0.82298	1.57699
0.87056	1.6168
0.92565	1.66458
0.973237	1.69636
1.01832	1.72815
