Adsorption isotherm of Argon on C15H7NO4Cu
DOI: 10.1021/Ic200328q
Adsorbate Argon: InChIKey XKRFYHLGVUSROY-UHFFFAOYSA-N
Temperature: 87 K
Tabular data in the source: 0
pressure (bar)	uptake (cm3(STP)/g)
0.00157574	295.457
0.00197666	370.633
0.00452208	347.91
0.00473653	388.12
0.00746842	400.363
0.0128669	412.61
0.0236267	430.112
0.0343585	442.369
0.045053	447.633
0.0637567	454.659
0.0904416	458.203
0.111775	458.241
0.13845	460.037
0.16245	460.08
0.207792	461.909
0.263791	462.008
0.31179	462.094
0.357123	462.175
0.410474	465.766
0.461131	464.108
0.511797	464.199
0.559796	464.284
0.605129	464.365
0.661128	464.465
0.70647	466.294
0.754469	466.379
0.805145	468.218
0.855811	468.308
0.901153	470.137
0.954495	471.98
0.997161	472.056
