Adsorption isotherm of Hydrogen on C15H7NO4Zn
DOI: 10.1021/Ic200328q
Adsorbate Hydrogen: InChIKey UFHFLCQGNIYNRP-UHFFFAOYSA-N
Temperature: 77 K
Tabular data in the source: 0
pressure (bar)	uptake (wt%)
0.0875	0.709677
0.1025	0.782258
0.12	0.870968
0.1575	1.00806
0.175	1.08065
0.1975	1.15323
0.22	1.23387
0.2475	1.29839
0.275	1.3629
0.3025	1.44355
0.3675	1.56452
0.4	1.62097
0.5175	1.80645
0.5575	1.85484
0.6025	1.91129
0.6525	1.97581
0.705	2.02419
0.7575	2.07258
0.8075	2.12903
0.86	2.16129
0.91	2.20161
0.9625	2.24194
0.995	2.25806
