Adsorption isotherm of Nitrogen on C15H7NO4Cu
DOI: 10.1021/Ic200328q
Adsorbate Nitrogen: InChIKey IJGRMHOSHXDMSA-UHFFFAOYSA-N
Temperature: 77 K
Tabular data in the source: 0
pressure (bar)	uptake (cm3(STP)/g)
0.00179247	0.489136
0.0107548	0.551358
0.0179247	0.566914
0.0322645	0.575556
0.0483968	0.580741
0.0663215	0.582469
0.0824537	0.584198
0.100378	0.587654
0.118303	0.589383
0.136228	0.591111
0.15236	0.59284
0.163115	0.594568
0.179247	0.599753
0.190002	0.61358
0.200757	0.627407
0.216889	0.634321
0.234814	0.637778
0.250946	0.641235
0.268871	0.642963
0.285003	0.64642
0.302928	0.648148
0.320853	0.649877
0.338777	0.651605
0.35491	0.655062
0.372834	0.65679
0.390759	0.658519
0.406891	0.660247
0.424816	0.661975
0.442741	0.663704
0.460665	0.663704
0.47859	0.665432
0.496515	0.66716
0.512647	0.668889
0.530572	0.668889
0.548497	0.670617
0.566421	0.672346
0.584346	0.672346
0.602271	0.674074
0.618403	0.675802
0.636328	0.675802
0.654252	0.675802
0.672177	0.677531
0.690102	0.677531
0.708027	0.679259
0.725951	0.680988
0.742084	0.682716
0.760008	0.682716
0.777933	0.684444
0.795858	0.686173
0.813782	0.687901
0.831707	0.687901
0.847839	0.68963
0.865764	0.691358
0.883689	0.693086
0.901614	0.694815
0.919538	0.694815
0.937463	0.696543
