Adsorption isotherm of Hydrogen on C15H7NO4Cu
DOI: 10.1021/Ic200328q
Adsorbate Hydrogen: InChIKey UFHFLCQGNIYNRP-UHFFFAOYSA-N
Temperature: 77 K
Tabular data in the source: 0
pressure (bar)	uptake (wt%)
0.219269	0.0518353
0.454827	0.553235
0.461092	0.726145
0.684747	0.899017
0.691012	1.07193
1.16213	2.07473
1.38578	2.2476
1.38891	2.33405
1.61821	2.66254
2.05675	2.76621
3.15184	2.99081
3.37299	3.09452
5.11837	3.26713
6.42773	3.40523
7.95635	3.59517
9.69735	3.64674
14.0502	3.78431
15.7912	3.83589
17.3135	3.85291
19.2719	3.90445
21.4471	3.93865
23.4042	3.95561
25.5793	3.98981
27.5371	4.02406
29.9284	4.02364
31.234	4.058
33.4085	4.07491
35.365	4.07458
37.3228	4.10882
39.4973	4.12574
41.6706	4.10807
43.8445	4.10769
46.019	4.12461
48.1929	4.12423
49.7146	4.12397
51.2364	4.12371
53.4103	4.12333
55.5842	4.12295
57.7581	4.12258
59.7146	4.12224
61.2363	4.12198
63.4102	4.1216
65.5841	4.12122
67.758	4.12085
69.9319	4.12047
72.1058	4.1201
74.2797	4.11972
76.4536	4.11935
79.2797	4.11886
80.584	4.11863
82.7579	4.11826
84.9318	4.11788
87.1057	4.1175
89.2796	4.11713
91.4535	4.11675
93.6274	4.11638
95.8013	4.116
97.9752	4.11562
99.2795	4.1154
