Adsorption isotherm of Argon on C15H7NO4Zn
DOI: 10.1021/Ic200328q
Adsorbate Argon: InChIKey XKRFYHLGVUSROY-UHFFFAOYSA-N
Temperature: 87 K
Tabular data in the source: 0
pressure (bar)	uptake (cm3(STP)/g)
0.001159	0.250246
0.00169566	0.041994
0.00243526	0.454991
0.00258859	0.395491
0.00331015	0.115488
0.00458189	0.321984
0.00775675	0.489972
0.0167311	0.50744
0.02571	0.523158
0.0401186	0.531857
0.0545272	0.540556
0.0580944	0.556293
0.0616301	0.58428
0.0669786	0.608761
0.0723452	0.626242
0.0813331	0.63846
0.0993586	0.643646
0.115585	0.647088
0.133624	0.647023
0.151653	0.650459
0.169692	0.650395
0.187731	0.65033
0.205766	0.652016
0.223805	0.651952
0.240035	0.653644
0.258074	0.65358
0.276113	0.653515
0.294152	0.653451
0.312187	0.655137
0.330226	0.655072
0.348265	0.655008
0.366303	0.654944
0.384342	0.654879
0.402381	0.654815
0.42042	0.654751
0.438459	0.654686
0.456498	0.654622
0.474537	0.654557
0.492576	0.654493
0.510615	0.654429
0.528654	0.654364
0.546693	0.6543
0.564732	0.654236
0.575564	0.650697
0.593603	0.650633
0.611642	0.650568
0.629681	0.650504
0.64772	0.65044
0.665759	0.650375
0.683798	0.650311
0.701837	0.650247
0.719876	0.650182
0.737915	0.650118
0.766777	0.650015
0.792032	0.649925
0.820894	0.649822
0.838933	0.649758
0.856972	0.649693
0.875011	0.649629
0.89305	0.649565
0.907477	0.651263
0.925516	0.651199
0.959781	0.654577
0.97781	0.658012
0.985017	0.661487
