Adsorption isotherm of Nitrogen on C15H7NO4Cu
DOI: 10.1021/Ic200328q
Adsorbate Nitrogen: InChIKey IJGRMHOSHXDMSA-UHFFFAOYSA-N
Temperature: 77 K
Tabular data in the source: 0
pressure (bar)	uptake (cm3(STP)/g)
0.00155078	293.709
0.00399696	257
0.00444004	340.917
0.0124709	361.911
0.0283757	374.177
0.0495235	379.46
0.0627237	379.484
0.0838531	381.27
0.110272	384.814
0.131401	386.6
0.15518	390.139
0.181589	391.935
0.194882	409.442
0.218661	412.981
0.237159	416.511
0.258289	418.297
0.279427	421.832
0.300557	423.618
0.348096	427.2
0.398275	430.787
0.448444	432.625
0.501254	434.468
0.546153	438.046
0.593692	441.628
0.643852	441.718
0.696653	441.813
0.746832	445.4
0.789081	447.224
0.83926	450.811
0.892061	450.906
0.9396	454.488
