Adsorption isotherm of Argon on C15H7NO4Zn
DOI: 10.1021/Ic200328q
Adsorbate Argon: InChIKey XKRFYHLGVUSROY-UHFFFAOYSA-N
Temperature: 87 K
Tabular data in the source: 0
pressure (bar)	uptake (cm3(STP)/g)
0.00191288	244.275
0.00382577	280.916
0.00573865	390.84
0.0133902	407.634
0.0248675	413.74
0.0382577	424.427
0.0573865	430.534
0.0631252	473.282
0.0650381	491.603
0.0746025	506.87
0.0860798	512.977
0.101383	512.977
0.135815	516.031
0.160682	514.504
0.210417	514.504
0.262065	516.031
0.307974	516.031
0.359622	517.557
0.409357	516.031
0.461005	516.031
0.51074	516.031
0.55665	516.031
0.606385	517.557
0.65612	516.031
0.705855	517.557
0.757502	516.031
0.807237	514.504
0.853147	517.557
0.902882	516.031
0.948791	519.084
0.98131	523.664
