Adsorption isotherm of Argon on C15H7NO4Cu
DOI: 10.1021/Ic200328q
Adsorbate Argon: InChIKey XKRFYHLGVUSROY-UHFFFAOYSA-N
Temperature: 87 K
Tabular data in the source: 0
pressure (bar)	uptake (cm3(STP)/g)
0.00181054	0.00181054
0.00362107	0.292099
0.00543161	0.413086
0.00724214	0.447654
0.0108632	0.502963
0.0162948	0.520247
0.0217264	0.535802
0.0307791	0.551358
0.0434528	0.561728
0.0597477	0.568642
0.077853	0.573827
0.0941478	0.575556
0.112253	0.577284
0.130359	0.577284
0.148464	0.577284
0.166569	0.579012
0.184675	0.579012
0.20278	0.579012
0.219075	0.582469
0.23718	0.582469
0.255285	0.582469
0.273391	0.582469
0.291496	0.582469
0.309601	0.582469
0.327707	0.582469
0.345812	0.582469
0.363918	0.582469
0.382023	0.582469
0.400128	0.582469
0.418234	0.582469
0.436339	0.582469
0.454444	0.582469
0.47255	0.582469
0.490655	0.582469
0.50876	0.582469
0.526866	0.582469
0.544971	0.582469
0.563076	0.582469
0.581182	0.582469
0.599287	0.582469
0.617392	0.582469
0.635498	0.582469
0.653603	0.582469
0.671709	0.584198
0.689814	0.584198
0.707919	0.584198
0.726025	0.584198
0.74413	0.584198
0.762235	0.584198
0.780341	0.585926
0.798446	0.585926
0.816551	0.585926
0.834657	0.587654
0.852762	0.587654
0.869057	0.589383
0.887162	0.589383
0.905268	0.591111
0.923373	0.591111
0.941478	0.591111
0.959584	0.59284
0.977689	0.59284
0.995794	0.59284
