Adsorption isotherm of Nitrogen on C15H7NO4Cu
DOI: 10.1021/Ic200328q
Adsorbate Nitrogen: InChIKey IJGRMHOSHXDMSA-UHFFFAOYSA-N
Temperature: 77 K
Tabular data in the source: 0
pressure (bar)	uptake (cm3(STP)/g)
0.00216857	179.412
0.00433714	313.235
0.00650571	332.353
0.00867429	347.059
0.0173486	357.353
0.0390343	364.706
0.0759	370.588
0.108429	375
0.130114	375
0.145294	376.471
0.162643	377.941
0.179991	379.412
0.199509	382.353
0.210351	391.176
0.2277	394.118
0.245049	397.059
0.262397	400
0.281914	402.941
0.325286	405.882
0.375163	410.294
0.420703	413.235
0.446726	413.235
0.472749	414.706
0.496603	414.706
0.526963	417.647
0.550817	419.118
0.574671	419.118
0.600694	420.588
0.624549	420.588
0.648403	420.588
0.672257	423.529
0.69828	422.059
0.735146	423.529
0.776349	427.941
0.811046	430.882
0.837069	433.824
0.876103	439.706
0.902126	444.118
0.92598	448.529
0.952003	451.471
0.967183	461.765
