Adsorption isotherm of Hydrogen on C15H7NO4Cu
DOI: 10.1021/Ic200328q
Adsorbate Hydrogen: InChIKey UFHFLCQGNIYNRP-UHFFFAOYSA-N
Temperature: 77 K
Tabular data in the source: 0
pressure (bar)	uptake (wt%)
0.219269	0.0518353
0.454827	0.553235
0.461092	0.726145
0.684747	0.899017
0.691012	1.07193
1.16213	2.07473
1.38578	2.2476
1.38891	2.33405
2.058	2.8008
4.24819	3.24999
5.12339	3.40545
6.43274	3.54356
8.83468	3.83709
12.3211	4.06127
16.236	4.11247
19.7192	4.25019
21.4596	4.28447
23.6354	4.33597
25.5938	4.38751
27.5528	4.45633
29.2944	4.52519
31.2515	4.54215
33.2099	4.59368
35.3851	4.62789
37.3435	4.67942
39.3025	4.74825
41.0416	4.74795
41.695	4.78242
43.8695	4.79933
45.8273	4.83357
48.0025	4.86778
50.1776	4.90199
51.2652	4.91909
53.4403	4.9533
55.3975	4.97025
57.5726	5.00445
61.2701	5.05569
63.4447	5.0726
65.4024	5.10685
67.5776	5.14105
69.7521	5.15797
71.7099	5.19221
73.885	5.22642
75.8428	5.26066
78.0173	5.27758
80.6272	5.31171
82.8018	5.32862
84.3247	5.36294
84.7595	5.36287
86.4993	5.37986
86.9341	5.37978
88.8918	5.41402
89.1092	5.41399
91.0663	5.43094
93.2415	5.46515
95.416	5.48206
97.3738	5.5163
99.7657	5.53318
