Adsorption isotherm of Nitrogen on MIL-101
DOI: 10.1016/j.talanta.2014.10.038
Article source: Figure D2
Adsorbate Nitrogen: InChIKey IJGRMHOSHXDMSA-UHFFFAOYSA-N
Kind: experiment
Temperature: 77 K
Tabular data in the source: 0
pressure (bar)	uptake (mmol/g)
0.148171	26.15
0.166909	26.425
0.188769	26.95
0.201262	28
0.207509	29.125
0.254353	29.925
0.304322	30.15
0.316814	29.975
0.357414	30.325
0.366782	30.175
0.401136	30.25
0.407382	30.45
0.457351	30.55
0.507319	30.475
0.557288	30.675
0.56041	30.525
0.607256	30.75
0.610379	30.6
0.660347	30.75
0.688455	30.775
0.710316	30.65
0.738423	30.8
0.757161	30.7
0.810253	30.725
0.832114	30.75
0.860222	30.8
0.885206	30.825
0.91019	30.825
0.935174	30.875
0.963282	30.95
0.988265	31.075
0.994512	31.15
1.00388	31.25
1.007	31.475
