Adsorption isotherm of Water on C18H21Br2N4O9Cd2
DOI: 10.1021/Cg3008443
Adsorbate Water: InChIKey XLYOFNOQVPJJNP-UHFFFAOYSA-N
Temperature: 303 K
Tabular data in the source: 0
pressure (bar)	uptake (cm3(STP)/g)
0.00158198	3.5654
0.00219043	5.34734
0.0026772	6.95082
0.00352903	8.91171
0.00438087	10.1609
0.00547608	12.3007
0.00693637	13.7304
0.00876173	15.3395
0.0103437	16.9476
0.0120474	17.8445
0.0136294	19.0967
0.0152113	20.349
0.0166716	21.4228
0.0183753	22.8535
0.0199573	24.2836
0.0217826	25.359
0.0233646	26.2553
0.0248249	27.507
0.0275021	29.4757
0.0292058	30.7284
0.0313962	32.695
0.0337083	34.84
0.0351686	36.8034
0.0372374	39.8371
0.038576	42.3338
0.0396712	44.6516
