Adsorption isotherm of Water on C10H13ClN2O5Cd
DOI: 10.1021/Cg3008443
Adsorbate Water: InChIKey XLYOFNOQVPJJNP-UHFFFAOYSA-N
Temperature: 298 K
Tabular data in the source: 0
pressure (bar)	uptake (cm3(STP)/g)
0.00593426	0.00593426
0.00607555	28.3774
0.00621685	41.0566
0.00635814	54.9434
0.00664072	68.8302
0.00692331	82.1132
0.00734718	94.7925
0.0087601	101.434
0.0105969	108.075
0.0131402	108.679
0.0170963	109.283
0.0197809	110.491
0.0221828	111.094
0.0258564	112.302
0.0296713	114.113
0.0322146	115.925
0.0347578	116.528
0.0375837	124.981
0.0395617	132.226
0.0412572	138.868
