Adsorption isotherm of Water on C9H11ClN2O4Cd
DOI: 10.1021/Cg3008443
Adsorbate Water: InChIKey XLYOFNOQVPJJNP-UHFFFAOYSA-N
Temperature: 303 K
Tabular data in the source: 0
pressure (bar)	uptake (cm3(STP)/g)
0.000847752	4.65623
0.00127163	9.31767
0.0018368	11.9033
0.00254326	16.0428
0.00310842	20.1839
0.00324971	23.8118
0.00339101	28.4768
0.0035323	37.2898
0.00367359	33.1399
0.00395617	46.0994
0.00409747	41.431
0.00466263	51.7944
0.00551039	56.4507
0.00565168	79.7823
0.00579297	68.3731
0.00593426	61.6306
0.00621685	84.442
0.00678201	86.5091
0.00777106	90.1265
0.00847752	93.2289
0.0100317	97.8765
0.0121511	104.073
0.0139879	105.606
0.0151182	107.147
0.0163899	108.169
0.0178028	109.707
0.0199222	110.718
0.0216177	112.252
0.022748	112.238
0.0250087	113.248
0.0268455	113.743
0.0286823	114.239
0.0298126	115.262
0.0313668	115.243
0.0350404	117.791
0.0371598	118.802
0.0404095	120.836
0.0422463	122.887
