Adsorption isotherm of Water on C12H17ClN2O3Cd
DOI: 10.1021/Cg3008443
Adsorbate Water: InChIKey XLYOFNOQVPJJNP-UHFFFAOYSA-N
Temperature: 303 K
Tabular data in the source: 0
pressure (bar)	uptake (cm3(STP)/g)
0.00401579	2.32558
0.00632792	2.32558
0.00778821	4.65116
0.0107088	6.97674
0.0132643	9.30233
0.0150897	11.6279
0.0170367	16.2791
0.0182536	18.6047
0.0197139	20.9302
0.0205657	20.9302
0.0219043	23.2558
0.0242165	30.2326
0.0261635	34.8837
0.0281106	41.8605
0.0305444	55.814
0.0323697	69.7674
0.033465	83.7209
0.035412	106.977
0.0358988	134.884
0.0361422	183.721
0.0362638	234.884
0.0363855	393.023
0.0366289	362.791
0.0367506	418.605
0.0372374	469.767
0.0374808	495.349
0.0378458	527.907
