Adsorption isotherm of Hydrogen on Ni50Co-MOF-74
DOI: 10.1007/s10450-015-9707-3
Article source: Figure 4a
Adsorbate Hydrogen: InChIKey UFHFLCQGNIYNRP-UHFFFAOYSA-N
Kind: experiment
Isotherm type: excess
Temperature: 298 K
Tabular data in the source: 0
pressure (bar)	uptake (wt%)
0.350109	0
8.02239	0.051632
15.6916	0.108605
34.1871	0.211869
68.7659	0.352522
99.1745	0.439763
123.647	0.500297
148.827	0.548368
