Adsorption isotherm of Hydrogen on MOF-74-Ni
DOI: 10.1007/s10450-015-9707-3
Article source: Figure 3a
Adsorbate Hydrogen: InChIKey UFHFLCQGNIYNRP-UHFFFAOYSA-N
Kind: experiment
Isotherm type: excess
Temperature: 77 K
Tabular data in the source: 0
pressure (bar)	uptake (wt%)
0	0
0.096774	1.10469
0.193548	1.37812
0.387097	1.65156
0.516129	1.73906
0.612903	1.81562
0.806452	1.925
0.967742	2.02344
1.48387	2.20937
1.96774	2.34062
2.48387	2.41719
2.96774	2.49375
3.48387	2.59219
4	2.64687
4.96774	2.72344
6	2.82187
7	2.87656
7.96774	2.93125
10	3.02969
11	3.05156
12	3.08437
12.9677	3.11719
14.0323	3.13906
