Adsorption isotherm of Hydrogen on Zn-MOF-74
DOI: 10.1007/s10450-015-9707-3
Article source: Figure 3a
Adsorbate Hydrogen: InChIKey UFHFLCQGNIYNRP-UHFFFAOYSA-N
Kind: experiment
Isotherm type: excess
Temperature: 77 K
Tabular data in the source: 0
pressure (bar)	uptake (wt%)
0	0
0.096774	0.88036
0.225806	1.17374
0.419355	1.32576
0.612903	1.45605
0.806452	1.57546
1	1.6514
1.51613	1.82491
2	1.9441
4.03226	2.21426
8.03226	2.49376
12.0323	2.62109
