Adsorption isotherm of Hydrogen on Cu-MOF-74
DOI: 10.1007/s10450-015-9707-3
Article source: Figure 3a
Adsorbate Hydrogen: InChIKey UFHFLCQGNIYNRP-UHFFFAOYSA-N
Kind: experiment
Isotherm type: excess
Temperature: 77 K
Tabular data in the source: 0
pressure (bar)	uptake (wt%)
0	0
0.064516	0.468847
0.129032	0.621495
0.193548	0.883178
0.290323	1.04673
0.516129	1.2648
0.741935	1.41745
1.03226	1.55919
1.51613	1.73364
2.03226	1.88629
4.03226	2.25701
6	2.48598
8.03226	2.61682
10.0323	2.69315
12.9677	2.72586
