Adsorption isotherm of Hydrogen on Co50Zn-MOF-74
DOI: 10.1007/s10450-015-9707-3
Article source: Figure 4a
Adsorbate Hydrogen: InChIKey UFHFLCQGNIYNRP-UHFFFAOYSA-N
Kind: experiment
Isotherm type: excess
Temperature: 298 K
Tabular data in the source: 0
pressure (bar)	uptake (wt%)
0	0
7.3523	0.04273
16.105	0.08546
34.3107	0.165579
69.3217	0.281306
99.4311	0.350742
124.639	0.395252
149.497	0.42908
