Adsorption isotherm of Hydrogen on Ni90Cu-MOF-74
DOI: 10.1007/s10450-015-9707-3
Article source: Figure 3a
Adsorbate Hydrogen: InChIKey UFHFLCQGNIYNRP-UHFFFAOYSA-N
Kind: experiment
Isotherm type: excess
Temperature: 77 K
Tabular data in the source: 0
pressure (bar)	uptake (wt%)
0	0
0.096774	0.817757
0.322581	1.19938
0.774194	1.581
1	1.71184
2	2.01713
3.03226	2.2134
4	2.32243
6.03226	2.47508
8	2.58411
10.0323	2.66044
13.2258	2.76947
