Adsorption isotherm of Hydrogen on MOF-74-Co
DOI: 10.1007/s10450-015-9707-3
Article source: Figure 4a
Adsorbate Hydrogen: InChIKey UFHFLCQGNIYNRP-UHFFFAOYSA-N
Kind: experiment
Isotherm type: excess
Temperature: 298 K
Tabular data in the source: 0
pressure (bar)	uptake (wt%)
0	0
7.70241	0.055193
16.105	0.106825
34.6608	0.202967
69.6718	0.352522
99.7812	0.432641
123.939	0.484273
149.497	0.523442
