Adsorption isotherm of Hydrogen on Ni90Cu-MOF-74
DOI: 10.1007/s10450-015-9707-3
Article source: Figure 4a
Adsorbate Hydrogen: InChIKey UFHFLCQGNIYNRP-UHFFFAOYSA-N
Kind: experiment
Isotherm type: excess
Temperature: 298 K
Tabular data in the source: 0
pressure (bar)	uptake (wt%)
0	0
8.05252	0.046065
16.4551	0.09035
34.3107	0.166483
69.3217	0.269053
100.131	0.327291
124.989	0.353643
149.847	0.381769
