Adsorption isotherm of Hydrogen on Co50Zn-MOF-74
DOI: 10.1007/s10450-015-9707-3
Article source: Figure 3a
Adsorbate Hydrogen: InChIKey UFHFLCQGNIYNRP-UHFFFAOYSA-N
Kind: experiment
Isotherm type: excess
Temperature: 77 K
Tabular data in the source: 0
pressure (bar)	uptake (wt%)
0	0
0.064516	1.06854
0.193548	1.29751
0.354839	1.46106
0.612903	1.64642
1	1.85358
1.51613	2.04984
2	2.15888
2.54839	2.27882
2.96774	2.35514
4	2.45327
4.96774	2.5514
6	2.62773
8	2.73676
10	2.82399
12.0323	2.88941
13.9355	2.92212
