Adsorption isotherm of Hydrogen on Co84Cu-MOF-74
DOI: 10.1007/s10450-015-9707-3
Article source: Figure 4a
Adsorbate Hydrogen: InChIKey UFHFLCQGNIYNRP-UHFFFAOYSA-N
Kind: experiment
Isotherm type: excess
Temperature: 298 K
Tabular data in the source: 0
pressure (bar)	uptake (wt%)
0	0
16.4551	0.080119
35.0109	0.153116
69.3217	0.252819
99.4311	0.308012
124.639	0.336499
148.446	0.345401
