Adsorption isotherm of Hydrogen on Cu-MOF-74
DOI: 10.1007/s10450-015-9707-3
Article source: Figure 4a
Adsorbate Hydrogen: InChIKey UFHFLCQGNIYNRP-UHFFFAOYSA-N
Kind: experiment
Isotherm type: excess
Temperature: 298 K
Tabular data in the source: 0
pressure (bar)	uptake (wt%)
0	0
8.40263	0.04095
16.4551	0.080119
34.6608	0.153116
69.3217	0.242136
99.4311	0.293769
124.639	0.313353
148.096	0.313353
