Adsorption isotherm of Hydrogen on Ni50Co-MOF-74
DOI: 10.1007/s10450-015-9707-3
Article source: Figure 3a
Adsorbate Hydrogen: InChIKey UFHFLCQGNIYNRP-UHFFFAOYSA-N
Kind: experiment
Isotherm type: excess
Temperature: 77 K
Tabular data in the source: 0
pressure (bar)	uptake (wt%)
0	0
0.023415	0.959502
0.053261	1.22118
0.054165	1.12305
0.058085	0.697819
0.084414	1.34112
0.180484	1.41745
0.211938	1.50467
0.243594	1.57009
0.339363	1.67913
0.403276	1.74455
0.499347	1.82087
0.563159	1.8972
0.755502	2.02804
0.980504	2.11526
1.46227	2.34424
1.97739	2.45327
2.49251	2.56231
2.94332	2.64953
3.49101	2.72586
3.94192	2.80218
4.94091	2.91121
5.97226	3.00935
6.9394	3.07477
7.97106	3.14019
10.0024	3.23832
10.9699	3.27103
11.9372	3.31464
12.9691	3.34735
13.9688	3.38006
