Adsorption isotherm of Hydrogen on MOF-74-Co
DOI: 10.1007/s10450-015-9707-3
Article source: Figure 3a
Adsorbate Hydrogen: InChIKey UFHFLCQGNIYNRP-UHFFFAOYSA-N
Kind: experiment
Isotherm type: excess
Temperature: 77 K
Tabular data in the source: 0
pressure (bar)	uptake (wt%)
0	0
0.129032	1.41104
0.612903	1.88173
1.03226	2.11174
2	2.42969
2.48387	2.5285
3	2.60547
5	2.86953
5.96774	2.95779
8.03226	3.09065
10	3.17969
12	3.25781
14	3.31406
