Adsorption isotherm of Hydrogen on Co84Cu-MOF-74
DOI: 10.1007/s10450-015-9707-3
Article source: Figure 3a
Adsorbate Hydrogen: InChIKey UFHFLCQGNIYNRP-UHFFFAOYSA-N
Kind: experiment
Isotherm type: excess
Temperature: 77 K
Tabular data in the source: 0
pressure (bar)	uptake (wt%)
0	0
0.096774	0.842187
0.387097	1.34531
0.83871	1.65156
1.51613	1.94687
3.03226	2.24219
6.03226	2.55937
10.0323	2.81094
13.0323	2.98594
