Adsorption isotherm of Hydrogen on MOF-74-Ni
DOI: 10.1007/s10450-015-9707-3
Article source: Figure 4a
Adsorbate Hydrogen: InChIKey UFHFLCQGNIYNRP-UHFFFAOYSA-N
Kind: experiment
Isotherm type: excess
Temperature: 298 K
Tabular data in the source: 0
pressure (bar)	uptake (wt%)
0	0
15.1481	0.103264
34.8587	0.208309
69.3185	0.334718
99.8917	0.414837
124.829	0.457567
149.41	0.491395
