Adsorption isotherm of Nitrogen on Ag/rGO/MIL-125(Ti)
DOI: 10.1002/aoc.3430
Article source: Figure 6
Adsorbate Nitrogen: InChIKey IJGRMHOSHXDMSA-UHFFFAOYSA-N
Kind: experiment
Temperature: 77 K
Tabular data in the source: 0
pressure (bar)	uptake (cm3(STP)/g)
0.000152	8.083
0.000243	86.461
0.000253	98.559
0.000304	39.752
0.000385	23.874
0.000385	24.059
0.000385	55.803
0.000395	62.218
0.000395	78.753
0.000466	63.655
0.000466	66.475
0.000476	140.499
0.000476	133.285
0.000527	15.935
0.000537	8.813
0.000547	101.79
0.000628	141.801
0.000628	142.578
0.000699	125.231
0.001611	155.889
0.003486	161.692
0.005897	166.051
0.007853	171.295
0.010629	173.441
0.035869	185.393
0.066601	192.263
0.086136	195.179
0.11167	198.355
0.137518	200.808
0.162535	203.118
0.187775	204.821
0.2034	205.889
0.215042	206.495
0.231122	207.708
0.239309	207.968
0.258014	209.238
0.265147	209.786
0.287388	211.085
0.314128	212.76
0.341323	213.77
0.349065	214.348
0.366493	215.04
0.377233	215.589
0.394661	216.368
0.418026	217.725
0.421705	218.303
0.443489	218.938
0.449883	221.218
0.471516	219.746
0.479703	229.273
0.495702	221.507
0.506453	235.162
0.520648	222.575
0.534023	237.038
0.545584	224.018
0.561219	238.02
0.571128	225.318
0.58886	240.473
0.597047	227.021
0.616755	242.129
0.623432	228.748
0.645977	244.42
0.649068	230.168
0.671734	246.803
0.673517	232.23
0.698555	234.201
0.699517	248.819
0.723369	236.494
0.726784	250.315
0.749694	239.03
0.755408	252.021
0.775542	241.397
0.78305	253.464
0.799576	243.88
0.811684	254.971
0.824836	246.278
0.838272	256.171
0.851809	248.46
0.86639	257.735
0.874242	258.644
0.877272	251.043
0.901296	254.446
0.902877	260.681
0.92759	257.333
0.931126	263.077
0.951401	260.797
0.960125	266.426
0.97807	265.935
1.00317	274.018
