Adsorption isotherm of Nitrogen on MIL-125(Ti)
DOI: 10.1002/aoc.3430
Article source: Figure 6
Adsorbate Nitrogen: InChIKey IJGRMHOSHXDMSA-UHFFFAOYSA-N
Kind: experiment
Temperature: 77 K
Tabular data in the source: 0
pressure (bar)	uptake (cm3(STP)/g)
0.00075	8.112
0.001206	26.155
0.001429	19.688
0.0015	47.575
0.001581	32.679
0.001652	54.013
0.001804	67.898
0.001875	75.193
0.001895	84.252
0.001915	98.546
0.001925	101.422
0.001976	113.753
0.002016	124.735
0.002027	127.163
0.002037	136.385
0.002047	138.913
0.002067	142.358
0.002128	149.199
0.002158	157.265
0.002361	161.264
0.002705	166.282
0.00308	174.538
0.005259	181.033
0.008035	183.372
0.011794	185.999
0.036062	196.853
0.065365	202.107
0.086765	205.01
0.112886	207.21
0.137924	209.088
0.163093	210.784
0.189995	212.125
0.200968	212.846
0.213816	213.482
0.225083	214.03
0.237891	215.253
0.2501	215.58
0.261358	216.017
0.288341	216.308
0.313581	217.494
0.344383	218.62
0.364892	219.14
0.381124	219.457
0.391489	219.919
0.420712	221.478
0.444047	222.418
0.450957	223.837
0.469226	223.436
0.480483	230.565
0.495348	223.764
0.506047	235.257
0.519483	224.382
0.533588	237.003
0.546081	225.51
0.560753	237.298
0.572213	226.273
0.589306	238.106
0.597767	227.292
0.616502	238.655
0.622054	228.551
0.644772	239.471
0.647842	229.62
0.672565	230.73
0.672828	230.493
0.698474	231.584
0.699872	241.67
0.722903	232.893
0.726824	242.954
0.749927	234.296
0.755084	244.053
0.774498	235.912
0.782523	245.291
0.799282	237.442
0.810306	246.07
0.824907	239.55
0.838089	247.445
0.845729	247.674
0.854312	242.175
0.874485	249.278
0.878042	243.778
0.902248	245.245
0.904538	250.722
0.926941	247.215
0.931288	252.714
0.951867	250.24
0.961189	257.015
0.977492	255.052
1.00311	266.513
