Adsorption isotherm of Nitrogen on MIL-101
DOI: 10.1021/Jp3052938
Adsorbate Nitrogen: InChIKey IJGRMHOSHXDMSA-UHFFFAOYSA-N
Temperature: 77 K
Tabular data in the source: 0
pressure (bar)	uptake (cm3(STP)/g)
0.0285182	429.381
0.0361231	460.935
0.0475303	489.319
0.0703449	533.456
0.0950607	587.059
0.117875	643.827
0.142591	700.589
0.17301	732.069
0.193924	754.106
0.216738	791.927
0.237652	832.912
0.271874	842.274
0.292787	845.364
0.302293	845.333
0.321305	848.429
0.340317	851.525
0.359329	851.464
0.37644	854.566
0.395452	857.662
0.414465	857.6
0.433477	860.696
0.452489	863.792
0.471501	863.731
0.490513	863.669
0.507624	866.771
0.526636	866.709
0.545648	869.805
0.56466	869.744
0.583672	872.84
0.602685	872.778
0.621697	875.874
0.640709	875.812
0.659721	875.75
0.676832	878.853
0.695844	878.791
0.714856	878.729
0.731967	881.831
0.750979	881.769
0.769991	884.866
0.789004	884.804
0.808016	887.9
0.827028	890.996
0.84604	890.934
0.863151	894.036
0.882163	893.975
0.887867	925.535
0.897373	950.767
0.906879	979.157
0.916385	1007.55
0.925891	1032.78
0.935397	1061.17
0.944903	1089.56
0.954409	1114.79
0.962014	1155.82
