Adsorption isotherm of Carbon Dioxide on TEPA-MIL-101
DOI: 10.1021/Jp3052938
Adsorbate Carbon Dioxide: InChIKey CURLTUGMZLYLDI-UHFFFAOYSA-N
Temperature: 398 K
Tabular data in the source: 0
pressure (bar)	uptake (mmol/g)
0.0136896	0.0890595
0.0333814	0.113477
0.055003	0.170256
0.0766777	0.186604
0.0963907	0.19485
0.112138	0.219236
0.118034	0.235456
0.123972	0.219331
0.139708	0.251804
0.157428	0.276206
0.165328	0.268183
0.173196	0.284419
0.192898	0.300751
0.21259	0.325169
0.224414	0.333351
0.244116	0.349683
0.261857	0.357913
0.281559	0.374244
0.299289	0.39056
0.315057	0.398774
0.31704	0.390704
0.328853	0.406972
0.346583	0.423288
0.366296	0.431533
0.384026	0.447849
0.40374	0.456095
0.41164	0.448073
0.42148	0.464325
0.43921	0.480641
0.45694	0.496956
0.476653	0.505202
0.496366	0.513448
0.514128	0.505505
0.523969	0.521757
0.541688	0.546159
0.561401	0.554405
0.579142	0.562635
0.598855	0.57088
0.612661	0.570992
0.622502	0.587244
0.642215	0.59549
0.661928	0.603735
0.679658	0.620051
0.699371	0.628297
0.715139	0.636511
0.725001	0.63659
0.744714	0.644836
0.762455	0.653066
0.782157	0.669397
0.80187	0.677643
0.811732	0.677723
0.821583	0.685889
0.837352	0.694103
0.857065	0.702348
0.876778	0.710594
0.896491	0.71884
0.910287	0.727037
0.916182	0.743258
0.924083	0.735235
0.941823	0.743465
0.961536	0.751711
0.979277	0.75994
0.99899	0.768186
1.01671	0.792588
