Adsorption isotherm of Carbon Dioxide on MIL-101
DOI: 10.1021/Jp3052938
Adsorbate Carbon Dioxide: InChIKey CURLTUGMZLYLDI-UHFFFAOYSA-N
Temperature: 373 K
Tabular data in the source: 0
pressure (bar)	uptake (mmol/g)
0.0352941	0.0811646
0.0529412	0.141949
0.0823529	0.192751
0.115686	0.263795
0.166667	0.355219
0.213725	0.426401
0.307843	0.578867
0.411765	0.691028
0.507843	0.793009
0.609804	0.925352
0.709804	1.02737
0.805882	1.11925
0.909804	1.24151
1.0098	1.32333
