Adsorption isotherm of Carbon monoxide on MIL-101
DOI: 10.1021/Jp3052938
Adsorbate Carbon monoxide: InChIKey UGFAIRIUMAVXCW-UHFFFAOYSA-N
Temperature: 298 K
Tabular data in the source: 0
pressure (bar)	uptake (mmol/g)
0.0103169	0.351853
0.0162586	0.385884
0.0222056	0.4237
0.0281473	0.457731
0.0340942	0.495547
0.0420005	0.529571
0.0499121	0.567379
0.061753	0.605172
0.0735832	0.635397
0.0775496	0.661869
0.0932985	0.684512
0.111039	0.726066
0.124828	0.752501
0.138612	0.775151
0.154367	0.801578
0.187834	0.850641
0.215397	0.892158
0.233111	0.914794
0.248854	0.933653
0.266563	0.952505
0.282306	0.971364
0.300009	0.986432
0.317717	1.00528
0.33542	1.02035
0.353128	1.0392
0.370831	1.05427
0.388534	1.06934
0.406237	1.08441
0.42394	1.09948
0.441637	1.11076
0.461305	1.12582
0.479008	1.14089
0.496705	1.15217
0.516373	1.16724
0.53407	1.17852
0.551773	1.19359
0.569465	1.20109
0.589128	1.21237
0.602912	1.23502
0.618629	1.23496
0.638286	1.24245
0.655983	1.25373
0.675646	1.26501
0.693343	1.2763
0.711041	1.28758
0.726768	1.29509
0.744461	1.30259
0.764123	1.31387
0.78182	1.32515
0.797548	1.33266
0.811311	1.34017
0.830968	1.34767
0.848665	1.35895
0.868322	1.36644
0.88602	1.37773
0.905677	1.38522
0.923369	1.39272
0.941061	1.40022
0.960718	1.40772
0.978416	1.419
0.996108	1.4265
