Adsorption isotherm of Carbon Dioxide on TEPA-MIL-101
DOI: 10.1021/Jp3052938
Adsorbate Carbon Dioxide: InChIKey CURLTUGMZLYLDI-UHFFFAOYSA-N
Temperature: 323 K
Tabular data in the source: 0
pressure (bar)	uptake (mmol/g)
0.01336	0.339731
0.0328816	0.493527
0.056433	0.582667
0.072095	0.671742
0.089825	0.688058
0.101585	0.744757
0.117332	0.769143
0.131075	0.817771
0.1468	0.85833
0.166513	0.866576
0.178273	0.923274
0.195982	0.955763
0.215695	0.964008
0.227465	1.01262
0.247146	1.04513
0.264855	1.07761
0.282575	1.10202
0.298343	1.11023
0.327833	1.18324
0.367227	1.22399
0.398732	1.26468
0.414489	1.28098
0.434192	1.29731
0.451911	1.32171
0.471613	1.33805
0.489333	1.36245
0.518876	1.39503
0.536595	1.41943
0.554325	1.43575
0.574017	1.46017
0.593719	1.4765
0.611481	1.46856
0.625235	1.5091
0.644937	1.52543
0.662667	1.54175
0.682369	1.55808
0.700089	1.58248
0.719802	1.59073
0.737532	1.60704
0.757234	1.62337
0.774964	1.63969
0.794667	1.65602
0.810414	1.68041
0.828165	1.68055
0.845906	1.68878
0.865608	1.70511
0.883338	1.72143
0.916826	1.75404
0.954269	1.77861
0.983833	1.79502
1.00551	1.81137
