Adsorption isotherm of Carbon monoxide on MIL-101
DOI: 10.1021/Jp3052938
Adsorbate Carbon monoxide: InChIKey UGFAIRIUMAVXCW-UHFFFAOYSA-N
Temperature: 373 K
Tabular data in the source: 0
pressure (bar)	uptake (mmol/g)
0.0138267	0.0529207
0.0374553	0.0906691
0.0551901	0.12844
0.0886418	0.166151
0.122078	0.192511
0.157494	0.230215
0.175207	0.252851
0.18897	0.260366
0.214537	0.279188
0.232235	0.290473
0.247973	0.305548
0.26764	0.320609
0.285338	0.331893
0.308945	0.354507
0.328602	0.362
0.340401	0.369523
0.358104	0.384591
0.375801	0.395875
0.395463	0.407152
0.440692	0.437251
0.480017	0.459805
0.515412	0.482374
0.546872	0.501174
0.572434	0.516212
0.592091	0.523706
0.613717	0.534975
0.631415	0.54626
0.651072	0.553753
0.668769	0.565037
0.686467	0.576321
0.704159	0.583822
0.723816	0.591315
0.741514	0.6026
0.76117	0.610093
0.778868	0.621377
0.798525	0.62887
0.816217	0.636371
0.833915	0.647655
0.853572	0.655149
0.871264	0.662649
0.890926	0.673926
0.912553	0.685196
0.93221	0.692689
0.949902	0.70019
0.969559	0.707683
0.987256	0.718967
1.00101	0.718915
