Adsorption isotherm of Carbon monoxide on MIL-101
DOI: 10.1021/Jp3052938
Adsorbate Carbon monoxide: InChIKey UGFAIRIUMAVXCW-UHFFFAOYSA-N
Temperature: 323 K
Tabular data in the source: 0
pressure (bar)	uptake (mmol/g)
0.0298092	0.242049
0.0535175	0.336554
0.0772151	0.423492
0.096957	0.491525
0.15409	0.604822
0.207252	0.687864
0.305643	0.801006
0.405955	0.883869
0.498383	0.947844
0.598659	1.00422
0.698929	1.05681
0.799194	1.10562
0.905342	1.14684
1.00364	1.19566
