Adsorption isotherm of Carbon Dioxide on TEPA-MIL-101
DOI: 10.1021/Jp3052938
Adsorbate Carbon Dioxide: InChIKey CURLTUGMZLYLDI-UHFFFAOYSA-N
Temperature: 348 K
Tabular data in the source: 0
pressure (bar)	uptake (mmol/g)
0.10297	0.0157079
0.124752	0.0194797
0.156436	0.024507
0.180198	0.0276466
0.20396	0.0314171
0.215842	0.0345641
0.231683	0.0351851
0.249505	0.0383284
0.267327	0.0414717
0.285149	0.0439841
0.30495	0.048388
0.316832	0.0490115
0.334653	0.0521548
0.352475	0.0546672
0.370297	0.0578105
0.386139	0.0603242
0.40396	0.0647294
0.415842	0.0653528
0.433663	0.0678652
0.451485	0.0710085
0.469307	0.0741519
0.487129	0.0766643
0.50297	0.0798089
0.508911	0.0798051
0.516832	0.0816929
0.534653	0.0842053
0.552475	0.0873486
0.570297	0.089861
0.588119	0.0930043
0.60396	0.0961489
0.607921	0.0967773
0.617822	0.0980329
0.635644	0.100545
0.653465	0.103689
0.671287	0.106832
0.689109	0.109344
0.70495	0.11312
0.706931	0.112488
0.718812	0.114373
0.736634	0.117516
0.754455	0.12066
0.770297	0.123173
0.788119	0.126317
0.80396	0.130092
0.807921	0.13009
0.817822	0.131345
0.835644	0.133858
0.853465	0.137001
0.871287	0.140144
0.889109	0.142657
0.90495	0.145801
0.922772	0.148945
0.940594	0.151457
0.958416	0.1546
0.976238	0.157744
0.994059	0.160256
