Adsorption isotherm of Carbon Dioxide on TEPA-MIL-101
DOI: 10.1021/Jp3052938
Adsorbate Carbon Dioxide: InChIKey CURLTUGMZLYLDI-UHFFFAOYSA-N
Temperature: 323 K
Tabular data in the source: 0
pressure (bar)	uptake (mmol/g)
0.049505	0.00817066
0.0752475	0.0119399
0.10297	0.0194934
0.130693	0.0232614
0.154455	0.0276628
0.166337	0.0282862
0.182178	0.0320617
0.19802	0.0352063
0.20396	0.0358335
0.215842	0.0383496
0.231683	0.0414942
0.249505	0.0446375
0.265347	0.0477821
0.283168	0.0515564
0.30297	0.0546984
0.314851	0.0572146
0.330693	0.0603592
0.346535	0.0635038
0.362376	0.0672793
0.378218	0.0704238
0.394059	0.0741993
0.40198	0.0748252
0.413861	0.0773414
0.429703	0.080486
0.447525	0.0842602
0.463366	0.0874048
0.481188	0.0905481
0.49505	0.0943249
0.50099	0.0962139
0.512871	0.0949446
0.524752	0.0993535
0.540594	0.103129
0.558416	0.106272
0.574257	0.109417
0.590099	0.113192
0.60396	0.116338
0.619802	0.118852
0.635644	0.122627
0.651485	0.125772
0.667327	0.129547
0.685149	0.132691
0.69703	0.1371
0.70297	0.137727
0.714851	0.137719
0.728713	0.142127
0.744554	0.145272
0.762376	0.149046
0.778218	0.15219
0.80396	0.158483
0.829703	0.164145
0.863366	0.169171
0.889109	0.174202
0.90099	0.179242
0.932673	0.184901
0.962376	0.191822
0.986139	0.196223
