Adsorption isotherm of Carbon Dioxide on MIL-101
DOI: 10.1021/Jp3052938
Adsorbate Carbon Dioxide: InChIKey CURLTUGMZLYLDI-UHFFFAOYSA-N
Temperature: 298 K
Tabular data in the source: 0
pressure (bar)	uptake (mmol/g)
0.0117647	0.262745
0.0333333	0.565993
0.0529412	0.758111
0.0784314	0.960388
0.105882	1.14248
0.154902	1.3652
0.203922	1.57782
0.296078	1.90198
0.398039	2.22624
0.498039	2.47978
0.6	2.74343
0.703922	2.95661
0.8	3.1798
0.901961	3.39295
1.00196	3.57578
