Adsorption isotherm of Carbon Dioxide on TEPA-MIL-101
DOI: 10.1021/Jp3052938
Adsorbate Carbon Dioxide: InChIKey CURLTUGMZLYLDI-UHFFFAOYSA-N
Temperature: 373 K
Tabular data in the source: 0
pressure (bar)	uptake (mmol/g)
0.0136045	0.153749
0.0292452	0.258997
0.0508349	0.340034
0.0744395	0.388742
0.113802	0.45375
0.16696	0.526957
0.210256	0.600083
0.314675	0.689876
0.411204	0.779605
0.515611	0.877485
0.614145	0.942972
0.71465	1.00847
0.815156	1.07398
0.913689	1.13946
1.01419	1.20497
