Adsorption isotherm of Carbon monoxide on MIL-101
DOI: 10.1021/Jp3052938
Adsorbate Carbon monoxide: InChIKey UGFAIRIUMAVXCW-UHFFFAOYSA-N
Temperature: 348 K
Tabular data in the source: 0
pressure (bar)	uptake (mmol/g)
0.0355704	0.147433
0.0494342	0.22684
0.0789886	0.287269
0.104608	0.343929
0.155821	0.438329
0.195194	0.494937
0.303418	0.615609
0.405695	0.698465
0.505976	0.758626
0.598399	0.818817
0.700628	0.867619
0.800882	0.908862
0.901142	0.953888
0.999421	0.98757
