Adsorption isotherm of Carbon Dioxide on TEPA-MIL-101
DOI: 10.1021/Jp3052938
Adsorbate Carbon Dioxide: InChIKey CURLTUGMZLYLDI-UHFFFAOYSA-N
Temperature: 373 K
Tabular data in the source: 0
pressure (bar)	uptake (mmol/g)
0.10099	0.0119237
0.152475	0.0194622
0.207921	0.0269982
0.30495	0.0376625
0.405941	0.0514789
0.506931	0.0621407
0.60396	0.0759596
0.706931	0.0878821
0.805941	0.102962
1.00594	0.129334
