Adsorption isotherm of Nitrogen on TEPA-MIL-101
DOI: 10.1021/Jp3052938
Adsorbate Nitrogen: InChIKey IJGRMHOSHXDMSA-UHFFFAOYSA-N
Temperature: 77 K
Tabular data in the source: 0
pressure (bar)	uptake (cm3(STP)/g)
0.026617	284.124
0.0456291	328.273
0.0703449	369.245
0.0931595	388.118
0.119776	400.663
0.142591	413.221
0.169208	447.871
0.193924	454.106
0.220541	457.178
0.249059	460.243
0.256664	460.218
0.275676	460.157
0.321305	463.166
0.338416	466.268
0.357428	469.365
0.395452	469.241
0.414465	469.179
0.433477	472.275
0.452489	472.213
0.482908	468.957
0.496217	475.229
0.515229	475.167
0.534241	475.106
0.566562	475.001
0.581771	474.951
0.593179	478.072
0.612191	478.01
0.652116	477.88
0.678733	477.794
0.692042	480.908
0.711054	484.005
0.730066	483.943
0.754782	483.862
0.775695	486.952
0.794707	480.575
0.819423	489.968
0.838435	489.906
0.878361	492.934
0.884064	505.547
0.897373	527.609
0.906879	549.684
0.918286	571.752
0.931595	593.814
0.935397	606.433
0.948705	628.495
0.965816	663.176
