Adsorption isotherm of Carbon Dioxide on MIL-101
DOI: 10.1021/Jp3052938
Adsorbate Carbon Dioxide: InChIKey CURLTUGMZLYLDI-UHFFFAOYSA-N
Temperature: 348 K
Tabular data in the source: 0
pressure (bar)	uptake (mmol/g)
0.0156863	0.101169
0.0352941	0.212478
0.0607843	0.313745
0.0803922	0.38465
0.1	0.445455
0.133333	0.546801
0.164706	0.627926
0.2	0.709091
0.221569	0.769915
0.239216	0.810497
0.256863	0.851079
0.276471	0.891682
0.307843	0.952604
0.333333	1.00337
0.352941	1.03387
0.370588	1.07445
0.388235	1.10493
0.421569	1.16587
0.435294	1.19632
0.452941	1.2268
0.472549	1.2573
0.490196	1.28778
0.505882	1.34854
0.519608	1.33858
0.539216	1.35898
0.556863	1.39956
0.576471	1.41996
0.594118	1.45045
0.637255	1.51149
0.654902	1.54197
0.672549	1.57245
0.692157	1.59285
0.711765	1.62335
0.735294	1.66399
0.754902	1.69449
0.77451	1.725
0.790196	1.74536
0.805882	1.77582
0.817647	1.78604
0.837255	1.80644
0.854902	1.83692
0.87451	1.85732
0.892157	1.8777
0.911765	1.9183
0.937255	1.93876
0.954902	1.96924
0.97451	1.98964
0.992157	2.01002
1.00784	2.03038
