Adsorption isotherm of Carbon Dioxide on TEPA-MIL-101
DOI: 10.1021/Jp3052938
Adsorbate Carbon Dioxide: InChIKey CURLTUGMZLYLDI-UHFFFAOYSA-N
Temperature: 348 K
Tabular data in the source: 0
pressure (bar)	uptake (mmol/g)
0.0193621	0.275089
0.0369965	0.364181
0.0684161	0.469556
0.103834	0.534532
0.123493	0.583209
0.141192	0.623783
0.156917	0.664342
0.172675	0.680642
0.190384	0.71313
0.208103	0.737532
0.22385	0.761918
0.24157	0.78632
0.261261	0.810738
0.278981	0.83514
0.316392	0.88396
0.334122	0.900276
0.353814	0.924694
0.371533	0.949096
0.391235	0.965428
0.416844	0.989894
0.434564	1.0143
0.454266	1.03063
0.473968	1.04696
0.491699	1.06328
0.51928	1.08776
0.538982	1.10409
0.556712	1.1204
0.576415	1.13674
0.594145	1.15305
0.619753	1.17752
0.639456	1.19385
0.657186	1.21017
0.676888	1.2265
0.696601	1.23474
0.72221	1.25921
0.741913	1.27554
0.759653	1.28377
0.779356	1.3001
0.799069	1.30835
0.822705	1.3328
0.830595	1.33286
0.842418	1.34104
0.860148	1.35736
0.879861	1.36561
0.899564	1.38194
0.921217	1.41446
0.929106	1.41452
0.946847	1.42275
0.96656	1.431
0.986263	1.44733
1.01385	1.46372
