Adsorption isotherm of Carbon Dioxide on TEPA-MIL-101
DOI: 10.1021/Jp3052938
Adsorbate Carbon Dioxide: InChIKey CURLTUGMZLYLDI-UHFFFAOYSA-N
Temperature: 298 K
Tabular data in the source: 0
pressure (bar)	uptake (mmol/g)
0.0132111	0.452937
0.0209517	0.566207
0.0365286	0.719972
0.0599631	0.898059
0.0814996	1.01953
0.11486	1.14918
0.14822	1.27883
0.179639	1.3842
0.197295	1.45712
0.215004	1.48961
0.23073	1.53017
0.248417	1.57883
0.264143	1.61939
0.281841	1.65996
0.297567	1.70052
0.315265	1.74109
0.332974	1.77358
0.350672	1.81416
0.36838	1.84664
0.386079	1.88722
0.399843	1.91968
0.417551	1.95216
0.43526	1.98465
0.452969	2.01714
0.47265	2.04964
0.490359	2.08213
0.504176	2.07416
0.512002	2.12274
0.529721	2.14714
0.54743	2.17963
0.567122	2.20405
0.58483	2.23654
0.616335	2.27722
0.632071	2.30969
0.651763	2.33411
0.669483	2.35851
0.687191	2.391
0.704911	2.4154
0.720658	2.43979
0.740349	2.46421
0.758069	2.48861
0.777761	2.51303
0.79548	2.53743
0.809233	2.57797
0.826995	2.57003
0.846676	2.60253
0.864396	2.62694
0.884098	2.64327
0.925444	2.70021
0.945146	2.71654
0.962865	2.74094
0.980585	2.76534
1.00029	2.78167
