Adsorption isotherm of Carbon Dioxide on TEPA-MIL-101
DOI: 10.1021/Jp3052938
Adsorbate Carbon Dioxide: InChIKey CURLTUGMZLYLDI-UHFFFAOYSA-N
Temperature: 373 K
Tabular data in the source: 0
pressure (bar)	uptake (mmol/g)
0.10099	0.0119237
0.114851	0.0138077
0.132673	0.0163201
0.152475	0.0194622
0.166337	0.0213462
0.184158	0.0225967
0.207921	0.0269982
0.213861	0.0257326
0.231683	0.028245
0.249505	0.0307574
0.267327	0.0332698
0.285149	0.0357822
0.30495	0.0376625
0.320792	0.0401762
0.340594	0.0420564
0.358416	0.0445688
0.376238	0.0470812
0.394059	0.0495937
0.405941	0.0514789
0.411881	0.0508442
0.427723	0.0533579
0.445545	0.0558703
0.463366	0.0577518
0.481188	0.0602642
0.49901	0.0627766
0.506931	0.0621407
0.514851	0.0627667
0.520792	0.0652866
0.538614	0.067799
0.556436	0.0703114
0.576238	0.0721916
0.594059	0.0747041
0.60396	0.0759596
0.611881	0.0753237
0.627723	0.0790992
0.645545	0.0809807
0.663366	0.0834931
0.681188	0.0860056
0.70099	0.0885167
0.706931	0.0878821
0.718812	0.0910291
0.736634	0.0935416
0.754455	0.0954231
0.772277	0.0979355
0.790099	0.100448
0.805941	0.102962
0.823762	0.104843
0.841584	0.106725
0.859406	0.109237
0.877228	0.111749
0.89505	0.113631
0.912871	0.116143
0.930693	0.118656
0.948515	0.121168
0.968317	0.123679
0.986139	0.125561
1.00594	0.129334
