Adsorption isotherm of Carbon Dioxide on MIL-101
DOI: 10.1021/Jp3052938
Adsorbate Carbon Dioxide: InChIKey CURLTUGMZLYLDI-UHFFFAOYSA-N
Temperature: 348 K
Tabular data in the source: 0
pressure (bar)	uptake (mmol/g)
0.0313725	0.172034
0.0509804	0.263141
0.0784314	0.364429
0.109804	0.485958
0.158824	0.648069
0.209804	0.759695
0.301961	0.972747
0.403922	1.1758
0.507843	1.32836
0.607843	1.48089
0.705882	1.63339
0.807843	1.76574
0.909804	1.90818
1.00784	2.02028
