Adsorption isotherm of Carbon Dioxide on MIL-101
DOI: 10.1021/Jp3052938
Adsorbate Carbon Dioxide: InChIKey CURLTUGMZLYLDI-UHFFFAOYSA-N
Temperature: 373 K
Tabular data in the source: 0
pressure (bar)	uptake (mmol/g)
0.0176471	0.0607843
0.054902	0.141969
0.0862745	0.202892
0.12549	0.284096
0.147059	0.314617
0.166667	0.345118
0.184314	0.375599
0.201961	0.416181
0.221569	0.42648
0.239216	0.456962
0.256863	0.487443
0.276471	0.507843
0.294118	0.548425
0.311765	0.558705
0.331373	0.589206
0.34902	0.609586
0.368627	0.640087
0.386275	0.660467
0.401961	0.70103
0.419608	0.691107
0.437255	0.721588
0.456863	0.741989
0.472549	0.762349
0.490196	0.782729
0.509804	0.81323
0.527451	0.833611
0.547059	0.854011
0.564706	0.86429
0.582353	0.894771
0.601961	0.915171
0.619608	0.925451
0.639216	0.955952
0.656863	0.966231
0.67451	0.986611
0.694118	1.01711
0.709804	1.02737
0.727451	1.04775
0.747059	1.06815
0.764706	1.08853
0.784314	1.10893
0.803922	1.12933
0.821569	1.12951
0.841176	1.16001
0.858824	1.18039
0.878431	1.20079
0.896078	1.22117
0.913725	1.23145
0.933333	1.25185
0.952941	1.27225
0.970588	1.29263
0.990196	1.30293
1.0098	1.32333
