Adsorption isotherm of Carbon monoxide on MIL-101
DOI: 10.1021/Jp3052938
Adsorbate Carbon monoxide: InChIKey UGFAIRIUMAVXCW-UHFFFAOYSA-N
Temperature: 323 K
Tabular data in the source: 0
pressure (bar)	uptake (mmol/g)
0.0120639	0.196711
0.0318641	0.306366
0.0693354	0.408386
0.09101	0.45371
0.112679	0.495249
0.126469	0.521684
0.140258	0.548118
0.154043	0.570768
0.167822	0.589635
0.18357	0.612278
0.199319	0.634921
0.215063	0.653781
0.230812	0.676424
0.246555	0.695283
0.264263	0.714135
0.281972	0.732987
0.299675	0.748055
0.315418	0.766915
0.333126	0.785767
0.350829	0.800835
0.368532	0.815903
0.38624	0.834755
0.403943	0.849823
0.413777	0.857353
0.43148	0.872421
0.449177	0.883706
0.46688	0.898774
0.486548	0.913835
0.496408	0.940284
0.51212	0.936441
0.529817	0.947725
0.549485	0.962786
0.565218	0.974078
0.584885	0.989138
0.61831	1.00793
0.636013	1.023
0.653711	1.03428
0.673373	1.04556
0.691071	1.05684
0.708763	1.06435
0.726466	1.07941
0.746128	1.09069
0.763825	1.10197
0.781523	1.11326
0.828706	1.13578
0.846403	1.14707
0.86606	1.15456
0.883758	1.16585
0.901455	1.17713
0.919153	1.18841
0.936845	1.19591
0.956502	1.20341
0.9742	1.21469
0.993862	1.22597
