Adsorption isotherm of Carbon Dioxide on TEPA-MIL-101
DOI: 10.1021/Jp3052938
Adsorbate Carbon Dioxide: InChIKey CURLTUGMZLYLDI-UHFFFAOYSA-N
Temperature: 373 K
Tabular data in the source: 0
pressure (bar)	uptake (mmol/g)
0.0136045	0.153749
0.0292452	0.258997
0.0508349	0.340034
0.0744395	0.388742
0.0921483	0.42123
0.105912	0.453687
0.113802	0.45375
0.123653	0.461916
0.141362	0.494405
0.15907	0.526893
0.16696	0.526957
0.176811	0.535122
0.19452	0.567611
0.210256	0.600083
0.212239	0.592013
0.229959	0.616415
0.247689	0.632731
0.26738	0.657149
0.287083	0.67348
0.304824	0.68171
0.314675	0.689876
0.324505	0.714214
0.344207	0.730546
0.361937	0.746862
0.381629	0.77128
0.399369	0.77951
0.411204	0.779605
0.419083	0.787755
0.423006	0.80396
0.442708	0.820291
0.460438	0.836607
0.480141	0.852939
0.497881	0.861169
0.515611	0.877485
0.517605	0.861328
0.535324	0.88573
0.551082	0.90203
0.570785	0.918362
0.590498	0.926608
0.608238	0.934838
0.614145	0.942972
0.625968	0.951153
0.643698	0.967469
0.663401	0.983801
0.683114	0.992047
0.700854	1.00028
0.71465	1.00847
0.720567	1.00852
0.738297	1.02484
0.758	1.04117
0.777713	1.04942
0.795443	1.06573
0.815145	1.08206
0.815156	1.07398
0.832897	1.08221
0.852599	1.09854
0.87034	1.10677
0.88808	1.115
0.9058	1.1394
0.913689	1.13946
0.925523	1.13956
0.945236	1.14781
0.964949	1.15605
0.984662	1.1643
1.01224	1.18878
