Adsorption isotherm of Carbon Dioxide on TEPA-MIL-101
DOI: 10.1021/Jp3052938
Adsorbate Carbon Dioxide: InChIKey CURLTUGMZLYLDI-UHFFFAOYSA-N
Temperature: 348 K
Tabular data in the source: 0
pressure (bar)	uptake (mmol/g)
0.0251942	0.339826
0.0546627	0.429013
0.0782354	0.50198
0.107715	0.583081
0.162813	0.680562
0.212037	0.74565
0.306562	0.859622
0.408965	0.981744
0.511412	1.07152
0.607951	1.15316
0.710397	1.24294
0.808899	1.33269
0.909362	1.43053
1.00986	1.50412
