Adsorption isotherm of Carbon Dioxide on TEPA-MIL-101
DOI: 10.1021/Jp3052938
Adsorbate Carbon Dioxide: InChIKey CURLTUGMZLYLDI-UHFFFAOYSA-N
Temperature: 298 K
Tabular data in the source: 0
pressure (bar)	uptake (mmol/g)
0.0092026	0.501422
0.0286073	0.744167
0.0501438	0.865635
0.0756251	0.987134
0.110947	1.12489
0.154137	1.27887
0.203287	1.40057
0.30552	1.65207
0.401889	1.86309
0.504197	2.05799
0.606526	2.23671
0.708855	2.41544
0.80725	2.58604
0.905688	2.7243
1.00807	2.8626
