Adsorption isotherm of Carbon Dioxide on TEPA-MIL-101
DOI: 10.1021/Jp3052938
Adsorbate Carbon Dioxide: InChIKey CURLTUGMZLYLDI-UHFFFAOYSA-N
Temperature: 398 K
Tabular data in the source: 0
pressure (bar)	uptake (mmol/g)
0.0633663	0.00374551
0.0831683	0.00499485
0.112871	0.00686885
0.130693	0.00875035
0.148515	0.0100009
0.164356	0.0112528
0.182178	0.0131343
0.217822	0.0162664
0.237624	0.0175157
0.255446	0.0193972
0.273267	0.0212787
0.293069	0.0231589
0.30297	0.0244145
0.316832	0.0250367
0.334653	0.0269182
0.352475	0.0287997
0.372277	0.03068
0.390099	0.0325615
0.413861	0.0350701
0.431683	0.0369516
0.451485	0.0388319
0.469307	0.0407134
0.489109	0.0419627
0.516832	0.0450998
0.534653	0.0469813
0.554455	0.0488615
0.572277	0.051374
0.590099	0.0532555
0.607921	0.055137
0.617822	0.0563925
0.637624	0.0582728
0.655446	0.0601543
0.673267	0.0626667
0.693069	0.063916
0.714851	0.066426
0.732673	0.0689384
0.752475	0.0708186
0.770297	0.0727001
0.788119	0.0752125
0.817822	0.0789793
0.835644	0.0808608
0.855446	0.082741
0.873267	0.0852535
0.891089	0.087135
0.908911	0.0896474
0.928713	0.0915276
0.946535	0.09404
0.966337	0.0959203
0.984158	0.0978018
