Adsorption isotherm of Carbon Dioxide on TEPA-MIL-101
DOI: 10.1021/Jp3052938
Adsorbate Carbon Dioxide: InChIKey CURLTUGMZLYLDI-UHFFFAOYSA-N
Temperature: 298 K
Tabular data in the source: 0
pressure (bar)	uptake (mmol/g)
0.00990099	0.00567199
0.029703	0.00818315
0.0475248	0.0132192
0.0752475	0.0169872
0.0970297	0.020759
0.116832	0.0257938
0.134653	0.029568
0.150495	0.0327126
0.162376	0.0371215
0.166337	0.037119
0.178218	0.0390043
0.19604	0.0427785
0.209901	0.0465553
0.215842	0.0484443
0.225743	0.048438
0.237624	0.0528469
0.255446	0.0559903
0.269307	0.059767
0.285149	0.0635425
0.30297	0.0673167
0.314851	0.0698329
0.316832	0.0698317
0.328713	0.0736096
0.344554	0.0773851
0.360396	0.0805297
0.376238	0.0843052
0.392079	0.0880807
0.407921	0.0918562
0.411881	0.0912228
0.425743	0.0956304
0.441584	0.0994059
0.457426	0.103181
0.473267	0.106957
0.489109	0.110732
0.50495	0.113877
0.516832	0.117655
0.518812	0.117654
0.528713	0.11954
0.544554	0.123316
0.560396	0.12646
0.576238	0.130867
0.592079	0.134011
0.607921	0.138418
0.615842	0.139675
0.621782	0.140302
0.633663	0.14408
0.649505	0.147855
0.665347	0.151631
0.679208	0.154777
0.69505	0.158552
0.708911	0.16296
0.714851	0.164218
0.726733	0.16421
0.736634	0.16862
0.752475	0.171765
0.768317	0.176171
0.784158	0.179947
0.79802	0.183724
0.811881	0.188131
0.817822	0.189389
0.827723	0.189383
0.841584	0.193791
0.857426	0.197566
0.873267	0.201342
0.889109	0.205117
0.90495	0.208893
0.916832	0.212671
0.920792	0.213299
0.930693	0.215186
0.946535	0.218961
0.962376	0.222737
0.978218	0.226512
0.994059	0.230288
1.00792	0.233433
1.0198	0.236581
1.02178	0.236579
