Adsorption isotherm of Carbon Dioxide on MIL-101
DOI: 10.1021/Jp3052938
Adsorbate Carbon Dioxide: InChIKey CURLTUGMZLYLDI-UHFFFAOYSA-N
Temperature: 323 K
Tabular data in the source: 0
pressure (bar)	uptake (mmol/g)
0.0137255	0.161755
0.0333333	0.313468
0.0607843	0.46526
0.0803922	0.566469
0.0921569	0.606991
0.113725	0.698118
0.127451	0.758863
0.143137	0.819628
0.14902	0.870192
0.166667	0.890572
0.182353	0.951337
0.201961	1.03234
0.217647	1.0527
0.233333	1.11347
0.24902	1.16413
0.266667	1.21481
0.282353	1.26548
0.329412	1.39727
0.347059	1.43785
0.364706	1.47843
0.382353	1.52911
0.4	1.5697
0.413725	1.61024
0.431373	1.65082
0.44902	1.6914
0.466667	1.73199
0.484314	1.78267
0.503922	1.80307
0.517647	1.85371
0.537255	1.89432
0.554902	1.9349
0.572549	1.97548
0.590196	2.01606
0.607843	2.00614
0.613725	2.0567
0.631373	2.09729
0.65098	2.12779
0.668627	2.16837
0.684314	2.20893
0.701961	2.24951
0.719608	2.28
0.737255	2.31048
0.754902	2.35106
0.772549	2.39164
0.790196	2.42212
0.807843	2.4526
0.82549	2.48309
0.845098	2.51359
0.862745	2.55417
0.880392	2.58465
0.898039	2.64543
0.915686	2.64561
0.933333	2.6862
0.952941	2.7066
0.970588	2.74718
0.990196	2.77768
1.00392	2.82832
