Adsorption isotherm of Carbon Dioxide on MIL-101
DOI: 10.1021/Jp3052938
Adsorbate Carbon Dioxide: InChIKey CURLTUGMZLYLDI-UHFFFAOYSA-N
Temperature: 398 K
Tabular data in the source: 0
pressure (bar)	uptake (mmol/g)
0.0235294	0.0305407
0.0509804	0.091424
0.0901961	0.122123
0.123529	0.172965
0.143137	0.193365
0.168627	0.213825
0.198039	0.234324
0.223529	0.274985
0.243137	0.295385
0.260784	0.315765
0.280392	0.336166
0.298039	0.356546
0.319608	0.376966
0.337255	0.387245
0.354902	0.407625
0.37451	0.428025
0.394118	0.438324
0.417647	0.468865
0.437255	0.479164
0.454902	0.499544
0.47451	0.509844
0.494118	0.530244
0.507843	0.540483
0.519608	0.550703
0.537255	0.571083
0.554902	0.581363
0.57451	0.601763
0.594118	0.612062
0.617647	0.642602
0.637255	0.652902
0.654902	0.673282
0.67451	0.67348
0.692157	0.69386
0.717647	0.724421
0.737255	0.73472
0.756863	0.745019
0.77451	0.765399
0.792157	0.775678
0.817647	0.796138
0.837255	0.806437
0.854902	0.826817
0.87451	0.837116
0.894118	0.847415
0.917647	0.877956
0.937255	0.878154
0.954902	0.898534
0.97451	0.908833
0.992157	0.919113
1.00784	0.949574
