Adsorption isotherm of Carbon Dioxide on TEPA-MIL-101
DOI: 10.1021/Jp3052938
Adsorbate Carbon Dioxide: InChIKey CURLTUGMZLYLDI-UHFFFAOYSA-N
Temperature: 398 K
Tabular data in the source: 0
pressure (bar)	uptake (mmol/g)
0.154455	0.0131518
0.205941	0.0162739
0.30297	0.0250454
0.40396	0.0312909
0.506931	0.0419515
0.605941	0.0557691
0.70495	0.0651704
0.807921	0.075831
1.00792	0.102834
