Adsorption isotherm of Carbon Dioxide on TEPA-MIL-101
DOI: 10.1021/Jp3052938
Adsorbate Carbon Dioxide: InChIKey CURLTUGMZLYLDI-UHFFFAOYSA-N
Temperature: 298 K
Tabular data in the source: 0
pressure (bar)	uptake (mmol/g)
0.00990099	0.00567199
0.029703	0.00818315
0.0475248	0.0132192
0.0752475	0.0169872
0.116832	0.0257938
0.166337	0.037119
0.215842	0.0484443
0.314851	0.0698329
0.411881	0.0912228
0.518812	0.117654
0.615842	0.139675
0.714851	0.164218
0.817822	0.189389
0.920792	0.213299
1.0198	0.236581
