Adsorption isotherm of Carbon Dioxide on MIL-101
DOI: 10.1021/Jp3052938
Adsorbate Carbon Dioxide: InChIKey CURLTUGMZLYLDI-UHFFFAOYSA-N
Temperature: 298 K
Tabular data in the source: 0
pressure (bar)	uptake (mmol/g)
0.0156863	0.0156863
0.0235294	0.444682
0.0411765	0.646881
0.0509804	0.74799
0.0666667	0.839057
0.0784314	0.940186
0.0882353	0.99079
0.105882	1.10208
0.121569	1.18305
0.133333	1.25387
0.14902	1.35504
0.164706	1.3956
0.180392	1.45637
0.194118	1.51711
0.215686	1.60824
0.231373	1.669
0.247059	1.72977
0.262745	1.78043
0.278431	1.8412
0.290196	1.91202
0.305882	1.93238
0.323529	1.98307
0.339216	2.03373
0.356863	2.08441
0.372549	2.13508
0.390196	2.20596
0.409804	2.24656
0.419608	2.29717
0.435294	2.32763
0.45098	2.37829
0.468627	2.41888
0.486275	2.46956
0.503922	2.48994
0.517647	2.54058
0.535294	2.59127
0.552941	2.63185
0.570588	2.67243
0.588235	2.72311
0.605882	2.74349
0.619608	2.79414
0.637255	2.83472
0.654902	2.8753
0.67451	2.9159
0.690196	2.95647
0.709804	2.96677
0.721569	3.02749
0.741176	3.05799
0.758824	3.09857
0.776471	3.13916
0.794118	3.17974
0.811765	3.21022
0.829412	3.2407
0.847059	3.28128
0.864706	3.31176
0.882353	3.35235
0.898039	3.39291
0.915686	3.41329
0.935294	3.44379
0.952941	3.48437
0.970588	3.51485
0.990196	3.54536
1.00392	3.5859
