Adsorption isotherm of Carbon monoxide on MIL-101
DOI: 10.1021/Jp3052938
Adsorbate Carbon monoxide: InChIKey UGFAIRIUMAVXCW-UHFFFAOYSA-N
Temperature: 398 K
Tabular data in the source: 0
pressure (bar)	uptake (mmol/g)
0.0275526	0.0339498
0.0472307	0.056578
0.0688628	0.0716313
0.110173	0.109313
0.135729	0.120568
0.167195	0.143151
0.194726	0.161966
0.20259	0.16572
0.210454	0.169474
0.228146	0.176975
0.247808	0.188252
0.265506	0.199536
0.285168	0.210813
0.326452	0.229576
0.344149	0.24086
0.363806	0.248353
0.381504	0.259638
0.430651	0.282154
0.448344	0.289655
0.468006	0.300932
0.528952	0.330972
0.548609	0.338465
0.566301	0.345965
0.585958	0.353459
0.597767	0.368549
0.627247	0.376005
0.658691	0.383454
0.686217	0.398485
0.69998	0.406
0.707844	0.409754
0.727501	0.417247
0.745193	0.424748
0.76485	0.432241
0.782537	0.435958
0.7963	0.443473
0.798275	0.451034
0.808099	0.450996
0.825785	0.454713
0.845442	0.462206
0.865099	0.4697
0.882791	0.4772
0.900484	0.484701
0.908342	0.484671
0.92604	0.495956
0.945697	0.503449
0.963389	0.510949
0.983046	0.518443
1.00073	0.522159
