Adsorption isotherm of Carbon monoxide on MIL-101
DOI: 10.1021/Jp3052938
Adsorbate Carbon monoxide: InChIKey UGFAIRIUMAVXCW-UHFFFAOYSA-N
Temperature: 373 K
Tabular data in the source: 0
pressure (bar)	uptake (mmol/g)
0.0374182	0.0641827
0.051213	0.0944008
0.076801	0.128358
0.10043	0.166106
0.151595	0.226453
0.202744	0.275449
0.306986	0.358298
0.405313	0.426034
0.495771	0.486232
0.60193	0.53502
0.700225	0.580053
0.796566	0.632662
0.900744	0.670105
1.00099	0.707564
