Adsorption isotherm of Carbon monoxide on MIL-101
DOI: 10.1021/Jp3052938
Adsorbate Carbon monoxide: InChIKey UGFAIRIUMAVXCW-UHFFFAOYSA-N
Temperature: 398 K
Tabular data in the source: 0
pressure (bar)	uptake (mmol/g)
0.0334411	0.0301437
0.0531192	0.052772
0.076716	0.0678178
0.104258	0.0942001
0.151462	0.131859
0.20259	0.16572
0.298936	0.222112
0.401182	0.282266
0.497512	0.327307
0.597767	0.368549
0.69998	0.406
0.798275	0.451034
0.900484	0.484701
1.00073	0.522159
