Adsorption isotherm of Carbon Dioxide on MIL-101
DOI: 10.1021/Jp3052938
Adsorbate Carbon Dioxide: InChIKey CURLTUGMZLYLDI-UHFFFAOYSA-N
Temperature: 323 K
Tabular data in the source: 0
pressure (bar)	uptake (mmol/g)
0.0117647	0.151634
0.0333333	0.303367
0.0529412	0.414676
0.0784314	0.566449
0.101961	0.677798
0.154902	0.870252
0.205882	1.04248
0.303922	1.3364
0.401961	1.56972
0.501961	1.80305
0.601961	2.00608
0.705882	2.24955
0.801961	2.44244
0.903922	2.6556
1.00588	2.81824
