Adsorption isotherm of Carbon Dioxide on TEPA-MIL-101
DOI: 10.1021/Jp3052938
Adsorbate Carbon Dioxide: InChIKey CURLTUGMZLYLDI-UHFFFAOYSA-N
Temperature: 348 K
Tabular data in the source: 0
pressure (bar)	uptake (mmol/g)
0.10297	0.0157079
0.156436	0.024507
0.20396	0.0314171
0.30495	0.048388
0.40396	0.0647294
0.508911	0.0798051
0.607921	0.0967773
0.706931	0.112488
0.807921	0.13009
1.00396	0.162774
