Adsorption isotherm of Carbon monoxide on MIL-101
DOI: 10.1021/Jp3052938
Adsorbate Carbon monoxide: InChIKey UGFAIRIUMAVXCW-UHFFFAOYSA-N
Temperature: 348 K
Tabular data in the source: 0
pressure (bar)	uptake (mmol/g)
0.011963	0.12482
0.0317101	0.196637
0.0612857	0.272201
0.09281	0.336406
0.110518	0.355257
0.124302	0.377908
0.140051	0.400551
0.163664	0.426948
0.193181	0.460891
0.220734	0.49484
0.238442	0.513692
0.25615	0.532544
0.271888	0.54762
0.289597	0.566472
0.307299	0.58154
0.326967	0.596601
0.34467	0.611669
0.362373	0.626737
0.380076	0.641805
0.397778	0.656873
0.415481	0.671941
0.42138	0.675703
0.439083	0.690771
0.458746	0.702048
0.476443	0.713332
0.494146	0.728401
0.509905	0.758611
0.525612	0.750984
0.545274	0.762261
0.562977	0.777329
0.582639	0.788606
0.594459	0.811264
0.612135	0.807414
0.629833	0.818698
0.649495	0.829975
0.667192	0.841259
0.68489	0.852544
0.702593	0.867612
0.71635	0.871344
0.736007	0.878837
0.75371	0.893905
0.773367	0.901398
0.808757	0.920183
0.826454	0.931467
0.846111	0.938961
0.863809	0.950245
0.883471	0.961522
0.907063	0.972784
0.926725	0.984061
0.944417	0.991562
0.964079	1.00284
0.981771	1.01034
1.00143	1.02162
