Adsorption isotherm of Carbon monoxide on MIL-101
DOI: 10.1021/Jp3052938
Adsorbate Carbon monoxide: InChIKey UGFAIRIUMAVXCW-UHFFFAOYSA-N
Temperature: 298 K
Tabular data in the source: 0
pressure (bar)	uptake (mmol/g)
0.0101683	0.245907
0.0301119	0.457724
0.0538467	0.571148
0.0795249	0.669429
0.0992614	0.733678
0.15245	0.835639
0.20164	0.888426
0.307931	1.03181
0.402355	1.11848
0.500688	1.19
0.602907	1.23123
0.703177	1.28383
0.801456	1.31751
0.905629	1.35117
1.00195	1.38864
