Adsorption isotherm of Carbon Dioxide on TEPA-MIL-101
DOI: 10.1021/Jp3052938
Adsorbate Carbon Dioxide: InChIKey CURLTUGMZLYLDI-UHFFFAOYSA-N
Temperature: 323 K
Tabular data in the source: 0
pressure (bar)	uptake (mmol/g)
0.0113664	0.355887
0.028905	0.517754
0.0524671	0.598807
0.0760291	0.67986
0.111404	0.777181
0.162558	0.87463
0.21175	0.963976
0.302298	1.10217
0.406653	1.24049
0.513001	1.36264
0.609498	1.47663
0.705995	1.59061
0.810403	1.68849
0.906921	1.78631
1.00741	1.86798
