Adsorption isotherm of Carbon Dioxide on TEPA-MIL-101
DOI: 10.1021/Jp3052938
Adsorbate Carbon Dioxide: InChIKey CURLTUGMZLYLDI-UHFFFAOYSA-N
Temperature: 323 K
Tabular data in the source: 0
pressure (bar)	uptake (mmol/g)
0.049505	0.00817066
0.10297	0.0194934
0.154455	0.0276628
0.20396	0.0358335
0.30297	0.0546984
0.40198	0.0748252
0.50099	0.0962139
0.60396	0.116338
0.70297	0.137727
0.80396	0.158483
0.90099	0.179242
1.00396	0.199998
