Adsorption isotherm of Carbon Dioxide on TEPA-MIL-101
DOI: 10.1021/Jp3052938
Adsorbate Carbon Dioxide: InChIKey CURLTUGMZLYLDI-UHFFFAOYSA-N
Temperature: 398 K
Tabular data in the source: 0
pressure (bar)	uptake (mmol/g)
0.0136896	0.0890595
0.0333814	0.113477
0.055003	0.170256
0.0766777	0.186604
0.118034	0.235456
0.165328	0.268183
0.21259	0.325169
0.31704	0.390704
0.41164	0.448073
0.514128	0.505505
0.612661	0.570992
0.715139	0.636511
0.811732	0.677723
0.916182	0.743258
1.01671	0.792588
