Adsorption isotherm of Nitrogen on C50H48Co3N6O14S3
DOI: 10.1039/C1ce05103b
Adsorbate Nitrogen: InChIKey IJGRMHOSHXDMSA-UHFFFAOYSA-N
Temperature: 273 K
Tabular data in the source: 0
pressure (bar)	uptake (cm3(STP)/g)
0.0275583	0.280721
0.0578723	0.418696
0.0799189	0.415515
0.115745	0.837392
0.140547	0.976163
0.159838	1.11573
0.176373	1.25569
0.195664	1.53761
0.245268	1.81515
0.297629	2.09229
0.344478	2.22788
0.391327	2.36347
0.446444	2.49786
0.493293	2.4911
0.559433	2.48156
0.611793	2.47401
0.661398	2.46685
0.711003	2.60204
0.757852	2.45293
0.807457	2.58812
0.859818	2.58057
0.88462	2.43464
0.909422	2.43106
0.934225	2.56983
0.959027	2.56625
0.981074	2.42072
