Adsorption isotherm of Nitrogen on C50H48Co3N6O14S3
DOI: 10.1039/C1ce05103b
Adsorbate Nitrogen: InChIKey IJGRMHOSHXDMSA-UHFFFAOYSA-N
Temperature: 77 K
Tabular data in the source: 0
pressure (bar)	uptake (cm3(STP)/g)
0.00826748	0.568202
0.0275583	0.992465
0.063384	1.41434
0.0799189	1.41196
0.0992097	1.83622
0.115745	1.97618
0.140547	2.11495
0.157082	2.39726
0.176373	2.39448
0.201175	2.6756
0.264559	3.0935
0.31692	3.22829
0.369281	3.36309
0.413374	3.64142
0.462979	3.63427
0.512584	3.76946
0.562188	3.7623
0.609037	3.89789
0.661398	4.17503
0.708247	4.02592
0.755096	4.16151
0.810213	4.43826
0.829503	4.57782
0.857062	5.00089
0.88462	4.99692
0.903911	5.56353
0.914934	5.84664
0.936981	6.69755
0.961783	8.8292
0.967295	9.82485
0.975562	12.5283
0.981074	15.3745
