Adsorption isotherm of Hydrogen on C50H48Co3N6O14S3
DOI: 10.1039/C1ce05103b
Adsorbate Hydrogen: InChIKey UFHFLCQGNIYNRP-UHFFFAOYSA-N
Temperature: 77 K
Tabular data in the source: 0
pressure (bar)	uptake (cm3(STP)/g)
0.129904	0.41416
0.584567	0.825659
1.10418	1.02901
2.20837	1.6428
3.44245	2.46314
4.48168	3.70029
5.52091	4.93745
6.69005	6.17354
7.79423	7.20256
8.89841	8.64679
10.0026	9.46819
11.1068	10.082
12.7306	10.0687
14.4193	10.2624
15.9132	10.4578
17.537	10.8597
19.0959	11.2622
21.3042	11.2441
23.5126	11.4336
