Adsorption isotherm of Carbon Dioxide on C50H48Co3N6O14S3
DOI: 10.1039/C1ce05103b
Adsorbate Carbon Dioxide: InChIKey CURLTUGMZLYLDI-UHFFFAOYSA-N
Temperature: 273 K
Tabular data in the source: 0
pressure (bar)	uptake (cm3(STP)/g)
0.0303141	3.26965
0.0578723	5.54325
0.0854306	7.38981
0.115745	9.37832
0.157082	11.3652
0.187396	12.4997
0.206687	13.4933
0.234245	14.9128
0.267315	16.1892
0.297629	17.466
0.325187	18.7431
0.355501	19.5928
0.38306	20.443
0.413374	21.435
0.446444	22.4267
0.471246	23.4196
0.50156	24.2693
0.531874	25.2613
0.559433	26.1115
0.592502	27.1031
0.617305	27.8113
0.653131	28.6602
0.680689	29.795
0.711003	30.5024
0.738561	31.2102
0.768875	32.3446
0.801945	33.1939
0.829503	34.1864
0.859818	34.8937
0.890132	35.8858
0.914934	36.594
0.953516	37.5848
