Adsorption isotherm of Carbon Dioxide on C50H48Co3N6O14S3
DOI: 10.1039/C1ce05103b
Adsorbate Carbon Dioxide: InChIKey CURLTUGMZLYLDI-UHFFFAOYSA-N
Temperature: 298 K
Tabular data in the source: 0
pressure (bar)	uptake (cm3(STP)/g)
0.0649519	2.2832
0.259808	11.0013
0.454663	18.2662
0.714471	23.2467
0.779423	26.7756
1.03923	29.2648
2.40322	39.2191
3.96207	46.4727
5.39101	50.4056
6.8849	52.4695
8.31385	54.1187
9.74279	55.5603
11.1068	56.5872
13.445	56.9832
15.5235	56.7586
17.6669	56.5334
19.8753	56.5153
22.0187	56.913
