Adsorption isotherm of Methane on C50H48Co3N6O14S3
DOI: 10.1039/C1ce05103b
Adsorbate Methane: InChIKey VNWKTOKETHGBQD-UHFFFAOYSA-N
Temperature: 298 K
Tabular data in the source: 0
pressure (bar)	uptake (cm3(STP)/g)
0.454663	1.44956
0.649519	2.69364
0.909327	3.31435
1.10418	4.1432
2.66303	5.58371
4.09197	7.02529
5.65082	8.67341
7.07976	10.3226
8.70356	11.555
10.1325	12.5813
12.4058	13.6007
14.5492	13.9984
16.8225	14.1874
19.0959	14.584
21.3042	14.3583
23.5126	14.3402
25.656	14.3226
