Adsorption isotherm of Methane on [Mg3(ndc)3]
DOI: 10.1002/ejic.200600635
Adsorbate Methane: InChIKey VNWKTOKETHGBQD-UHFFFAOYSA-N
Temperature: 77 K
Tabular data in the source: 0
pressure (bar)	uptake (mmol/g)
0.000210627	2.53727
0.000386149	2.73052
0.000596776	2.83769
0.000877612	2.96624
0.00105313	3.05196
0.00122866	3.09467
0.00147439	3.20177
0.00164991	3.22298
0.002352	3.30779
0.00305409	3.39261
0.00382639	3.4558
0.00449337	3.56218
0.00526567	3.66838
0.00600287	3.71013
0.00670496	3.77344
0.00740705	3.83675
0.00817934	3.87844
0.00888143	3.94175
0.00958352	3.98355
0.0103909	4.02518
0.0110579	4.08855
0.0117951	4.17331
0.0125323	4.27957
