Adsorption isotherm of Hydrogen on [Mg3(ndc)3]
DOI: 10.1002/ejic.200600635
Adsorbate Hydrogen: InChIKey UFHFLCQGNIYNRP-UHFFFAOYSA-N
Temperature: 77 K
Tabular data in the source: 0
pressure (bar)	uptake (mmol/g)
0.00247466	0.327546
0.00742398	0.534363
0.022272	1.34447
0.0420692	1.86139
0.0519679	2.08537
0.0816638	2.41247
0.10641	2.65345
0.155904	2.963
0.205397	3.15185
0.252415	3.30626
0.311807	3.44324
0.358826	3.51144
0.413268	3.59677
0.462762	3.69942
0.512255	3.75034
0.561748	3.80126
0.616191	3.83487
0.665684	3.85131
0.717652	3.86771
0.76467	3.88419
0.824062	3.88323
0.866131	3.91703
0.923049	3.93335
0.972542	3.91531
1.01214	3.91467
