Adsorption isotherm of Nitrogen on [Mg3(ndc)3]
DOI: 10.1002/ejic.200600635
Adsorbate Nitrogen: InChIKey IJGRMHOSHXDMSA-UHFFFAOYSA-N
Temperature: 77 K
Tabular data in the source: 0
pressure (bar)	uptake (mmol/g)
0.0116769	4.38684
0.03036	4.51546
0.0513785	4.62252
0.0770677	4.68647
0.128446	4.81436
0.158806	4.8567
0.203178	4.89873
0.252222	4.94065
0.301265	5.00408
0.350308	5.0245
0.399351	5.06643
0.446058	5.10841
0.495102	5.12883
0.541809	5.1708
0.590852	5.19122
0.642231	5.21159
0.688938	5.21056
0.740317	5.23092
0.787025	5.2729
0.831397	5.31493
0.88044	5.39987
0.927148	5.61389
