Adsorption isotherm of Oxygen on [Mg3(ndc)3]
DOI: 10.1002/ejic.200600635
Adsorbate Oxygen: InChIKey MYMOFIZGZYHOMD-UHFFFAOYSA-N
Temperature: 77 K
Tabular data in the source: 0
pressure (bar)	uptake (mmol/g)
0.00215526	4.23634
0.0210138	4.79353
0.0274796	4.92189
0.0328678	4.92133
0.0425664	5.02786
0.0538816	5.11271
0.0662743	5.19745
0.0770507	5.26085
0.0883658	5.30269
0.10022	5.38749
0.110996	5.45089
0.12285	5.49267
0.134704	5.53446
0.14548	5.57636
0.156795	5.6397
0.167572	5.7031
0.178887	5.76645
0.189124	5.82991
0.199362	5.93638
0.207983	6.10753
