Adsorption isotherm of Nitrogen on C18H28O10MgN2
DOI: 10.1002/ejic.200600635
Adsorbate Nitrogen: InChIKey IJGRMHOSHXDMSA-UHFFFAOYSA-N
Temperature: 77 K
Tabular data in the source: 0
pressure (bar)	uptake (mmol/g)
0.0280246	0.171423
0.0747323	0.320926
0.123775	0.405862
0.170483	0.447839
0.217191	0.511321
0.268569	0.553195
0.315277	0.616677
0.36432	0.637097
0.413363	0.679022
0.462406	0.742452
0.509114	0.784429
0.558157	0.783344
0.6072	0.846774
0.653908	0.974773
0.700615	1.10277
0.751994	1.16615
0.798702	1.22963
0.847745	1.40059
0.889782	1.87278
