Adsorption isotherm of Xenon on FMOFCu
DOI: 10.1021/Ja302071t
Adsorbate Xenon: InChIKey FHNFHKCVQCLJFQ-UHFFFAOYSA-N
Temperature: 253 K
Tabular data in the source: 0
pressure (bar)	uptake (mmol/g)
0.0260116	0.00885609
0.0606936	0.0332103
0.104046	0.0553506
0.15896	0.0907749
0.202312	0.115129
0.257225	0.146125
0.297688	0.166052
0.323699	0.172694
0.349711	0.183764
0.375723	0.194834
0.398844	0.205904
0.421965	0.21476
0.442197	0.228044
0.468208	0.239114
0.49422	0.24797
0.517341	0.254613
0.537572	0.270111
0.563584	0.278967
0.589595	0.290037
0.612717	0.294465
0.618497	0.303321
0.644509	0.312177
0.67052	0.323247
0.693642	0.334317
0.719653	0.340959
0.742775	0.35203
0.768786	0.3631
0.794798	0.369742
0.817919	0.378598
0.83815	0.389668
0.864162	0.400738
0.890173	0.411808
0.916185	0.416236
0.939306	0.427306
0.965318	0.436162
0.988439	0.447232
1.00289	0.453875
