Adsorption isotherm of Nitrogen on FMOFCu
DOI: 10.1021/Ja302071t
Adsorbate Nitrogen: InChIKey IJGRMHOSHXDMSA-UHFFFAOYSA-N
Temperature: 77 K
Tabular data in the source: 0
pressure (bar)	uptake (cm3(STP)/g)
0.0158567	8.87361
0.0460457	10.3862
0.0837465	11.9004
0.102636	13.0759
0.147833	14.4242
0.19303	15.7726
0.223156	16.6157
0.257023	17.2923
0.287165	18.3028
0.317259	18.8111
0.351126	19.4877
0.384992	20.1642
0.411331	20.6718
0.441457	21.5149
0.475323	22.1915
0.505434	22.8672
0.5393	23.5438
0.569426	24.3869
0.599568	25.3974
0.629678	26.0732
0.663576	27.0844
0.693749	28.4297
0.723875	29.2728
0.754017	30.2833
0.780419	31.4603
0.799371	33.3053
0.818261	34.4808
0.833426	35.9903
0.844851	37.6663
0.860017	39.1757
