Adsorption isotherm of Krypton on FMOFCu
DOI: 10.1021/Ja302071t
Adsorbate Krypton: InChIKey DNNSSWSSYDEUBZ-UHFFFAOYSA-N
Temperature: 203 K
Tabular data in the source: 0
pressure (bar)	uptake (mmol/g)
0.0205279	0.680556
0.0293255	0.743056
0.0381232	0.8125
0.0439883	0.868056
0.0498534	0.916667
0.0615836	0.958333
0.0762463	1.02083
0.0909091	1.06944
0.108504	1.125
0.129032	1.17361
0.152493	1.21528
0.16129	1.23611
0.184751	1.27778
0.211144	1.31944
0.237537	1.34722
0.26393	1.38889
0.290323	1.41667
0.313783	1.44444
0.340176	1.46528
0.369501	1.47917
0.395894	1.48611
0.410557	1.51389
0.439883	1.52778
0.466276	1.54167
0.492669	1.55556
0.513196	1.57639
0.542522	1.59028
0.568915	1.61111
0.59824	1.61806
0.612903	1.63889
0.642229	1.65278
0.668622	1.66667
0.695015	1.67361
0.721408	1.6875
0.747801	1.70833
0.777126	1.71528
0.800587	1.73611
0.835777	1.75
0.868035	1.76389
0.914956	1.77778
0.944282	1.79167
0.970674	1.80556
0.994135	1.81944
