Adsorption isotherm of Xenon on FMOFCu
DOI: 10.1021/Ja302071t
Adsorbate Xenon: InChIKey FHNFHKCVQCLJFQ-UHFFFAOYSA-N
Temperature: 313 K
Tabular data in the source: 0
pressure (bar)	uptake (mmol/g)
0.0289017	0.00885609
0.0635838	0.0177122
0.106936	0.0287823
0.156069	0.0398524
0.17341	0.0442804
0.199422	0.0509225
0.225434	0.0531365
0.245665	0.0619926
0.274566	0.0642066
0.297688	0.0730627
0.323699	0.0752768
0.349711	0.0819188
0.378613	0.0863469
0.404624	0.0907749
0.433526	0.095203
0.459538	0.101845
0.488439	0.106273
0.514451	0.108487
0.534682	0.117343
0.563584	0.121771
0.589595	0.128413
0.615607	0.128413
0.641618	0.137269
0.66763	0.141697
0.696532	0.146125
0.722543	0.150554
0.751445	0.157196
0.777457	0.161624
0.806358	0.163838
0.83237	0.172694
0.858382	0.174908
0.887283	0.18155
0.913295	0.185978
0.939306	0.190406
0.968208	0.194834
0.99422	0.199262
