Adsorption isotherm of Krypton on FMOFZn
DOI: 10.1021/Ja302071t
Adsorbate Krypton: InChIKey DNNSSWSSYDEUBZ-UHFFFAOYSA-N
Temperature: 273 K
Tabular data in the source: 0
pressure (bar)	uptake (mmol/g)
0.0193142	0.0188957
0.0482855	0.0472392
0.103064	0.0754601
0.138497	0.0990261
0.219051	0.141365
0.248043	0.160215
0.28027	0.174303
0.315714	0.193122
0.344716	0.207224
0.376943	0.221312
0.418828	0.244847
0.44783	0.25895
0.480058	0.273038
0.502618	0.282424
0.547739	0.301197
0.579967	0.315285
0.618636	0.334089
0.650874	0.343429
0.679876	0.357532
0.718556	0.371589
0.750794	0.38093
0.779796	0.395033
0.812034	0.404373
0.841036	0.418476
0.873274	0.427817
0.918394	0.44659
0.950632	0.455931
0.979645	0.465286
0.998979	0.474688
