Adsorption isotherm of Xenon on FMOFCu
DOI: 10.1021/Ja302071t
Adsorbate Xenon: InChIKey FHNFHKCVQCLJFQ-UHFFFAOYSA-N
Temperature: 273 K
Tabular data in the source: 0
pressure (bar)	uptake (mmol/g)
0.0693642	0.0442804
0.109827	0.0575646
0.15896	0.0774908
0.205202	0.0929889
0.254335	0.108487
0.306358	0.126199
0.323699	0.128413
0.349711	0.137269
0.375723	0.143911
0.424855	0.15941
0.450867	0.168266
0.476879	0.174908
0.50578	0.183764
0.546243	0.199262
0.575145	0.210332
0.609827	0.212546
0.624277	0.221402
0.650289	0.230258
0.66474	0.234686
0.690751	0.241328
0.722543	0.250185
0.748555	0.256827
0.777457	0.265683
0.803468	0.270111
0.820809	0.278967
0.846821	0.285609
0.875723	0.294465
0.898844	0.298893
0.919075	0.305535
0.942197	0.312177
0.971098	0.321033
0.99711	0.332103
