Adsorption isotherm of Nitrogen on FMOFZn
DOI: 10.1021/Ja302071t
Adsorbate Nitrogen: InChIKey IJGRMHOSHXDMSA-UHFFFAOYSA-N
Temperature: 77 K
Tabular data in the source: 0
pressure (bar)	uptake (cm3(STP)/g)
0.0469614	0.0456239
0.0635359	109.51
0.0828729	113.287
0.104973	115.804
0.129835	118.322
0.151934	121.469
0.179558	122.098
0.20442	123.357
0.232045	124.615
0.256906	125.874
0.28453	127.133
0.309393	128.392
0.337016	129.021
0.364641	129.65
0.389503	130.909
0.417127	131.538
0.444752	132.168
0.461326	132.797
0.48895	133.427
0.508287	134.056
0.535912	134.685
0.560774	135.315
0.588398	135.944
0.607735	136.573
0.635359	137.203
0.657458	137.832
0.685083	137.832
0.709945	138.462
0.751381	139.72
0.803867	141.608
0.856354	142.238
0.900553	144.126
0.950276	146.643
0.975138	153.566
0.994475	159.86
