Adsorption isotherm of Xenon on FMOFZn
DOI: 10.1021/Ja302071t
Adsorbate Xenon: InChIKey FHNFHKCVQCLJFQ-UHFFFAOYSA-N
Temperature: 283 K
Tabular data in the source: 0
pressure (bar)	uptake (mmol/g)
0.0227273	0.0505051
0.0357143	0.116162
0.0584416	0.171717
0.0746753	0.217172
0.103896	0.282828
0.116883	0.30303
0.12987	0.348485
0.152597	0.388889
0.172078	0.424242
0.188312	0.469697
0.214286	0.484848
0.233766	0.525253
0.256494	0.560606
0.282468	0.590909
0.301948	0.616162
0.327922	0.646465
0.353896	0.671717
0.37987	0.70202
0.409091	0.717172
0.428571	0.747475
0.457792	0.767677
0.487013	0.792929
0.512987	0.80303
0.542208	0.828283
0.571429	0.848485
0.600649	0.868687
0.626623	0.888889
0.655844	0.90404
0.688312	0.919192
0.717532	0.934343
0.746753	0.949495
0.779221	0.964646
0.808442	0.979798
0.840909	0.994949
0.87013	1.00505
0.899351	1.0202
0.931818	1.0303
0.961039	1.04545
0.993506	1.05556
