Adsorption isotherm of Krypton on FMOFZn
DOI: 10.1021/Ja302071t
Adsorbate Krypton: InChIKey DNNSSWSSYDEUBZ-UHFFFAOYSA-N
Temperature: 298 K
Tabular data in the source: 0
pressure (bar)	uptake (mmol/g)
0.0290223	0.00460907
0.0548086	0.0139803
0.103166	0.0279913
0.151512	0.0467492
0.206321	0.0607295
0.22243	0.0701467
0.254668	0.0794873
0.28368	0.0888433
0.312712	0.0887055
0.341714	0.102808
0.373952	0.112149
0.40619	0.12149
0.435202	0.130846
0.46744	0.140186
0.496453	0.149542
0.528701	0.154136
0.557713	0.163492
0.589961	0.168086
0.622199	0.177426
0.651211	0.186782
0.683449	0.196123
0.715708	0.19597
0.74471	0.210073
0.776958	0.214666
0.80597	0.224022
0.838208	0.233363
0.86723	0.237972
0.899478	0.242566
0.92849	0.251922
0.960739	0.256515
0.992977	0.265856
1.00265	0.26581
