Adsorption isotherm of Xenon on FMOFCu
DOI: 10.1021/Ja302071t
Adsorbate Xenon: InChIKey FHNFHKCVQCLJFQ-UHFFFAOYSA-N
Temperature: 233 K
Tabular data in the source: 0
pressure (bar)	uptake (mmol/g)
0.0202312	0.0287823
0.0549133	0.0531365
0.104046	0.0797048
0.16185	0.115129
0.210983	0.146125
0.254335	0.174908
0.306358	0.205904
0.33815	0.223616
0.381503	0.24797
0.401734	0.256827
0.424855	0.274539
0.453757	0.290037
0.476879	0.303321
0.50578	0.314391
0.520231	0.329889
0.543353	0.340959
0.566474	0.354244
0.618497	0.383026
0.638728	0.39631
0.66185	0.409594
0.682081	0.422878
0.719653	0.445018
0.742775	0.458303
0.765896	0.471587
0.786127	0.482657
0.820809	0.502583
0.843931	0.515867
0.867052	0.529151
0.919075	0.560148
0.942197	0.573432
0.973988	0.591144
0.99711	0.606642
