Adsorption isotherm of Krypton on FMOFCu
DOI: 10.1021/Ja302071t
Adsorbate Krypton: InChIKey DNNSSWSSYDEUBZ-UHFFFAOYSA-N
Temperature: 233 K
Tabular data in the source: 0
pressure (bar)	uptake (mmol/g)
0.0234604	0.381944
0.0293255	0.465278
0.0351906	0.534722
0.0469208	0.618056
0.0527859	0.673611
0.0645161	0.736111
0.0762463	0.791667
0.0879765	0.861111
0.108504	0.9375
0.1261	0.993056
0.158358	1.07639
0.175953	1.125
0.208211	1.1875
0.231672	1.22222
0.307918	1.32639
0.334311	1.35417
0.360704	1.375
0.416422	1.42361
0.442815	1.44444
0.472141	1.45833
0.498534	1.48611
0.527859	1.5
0.554252	1.52083
0.557185	1.52778
0.583578	1.53472
0.615836	1.55556
0.645161	1.56944
0.671554	1.58333
0.70088	1.60417
0.709677	1.59722
0.73607	1.61806
0.765396	1.63194
0.809384	1.65278
0.83871	1.66667
0.865103	1.67361
0.906158	1.69444
0.932551	1.70139
0.958944	1.71528
0.994135	1.72222
