Adsorption isotherm of Carbon Dioxide on FMOFCu
DOI: 10.1021/Ja302071t
Adsorbate Carbon Dioxide: InChIKey CURLTUGMZLYLDI-UHFFFAOYSA-N
Temperature: 273 K
Tabular data in the source: 0
pressure (bar)	uptake (cm3(STP)/g)
0.00585317	0.6
0.0117063	1.2
0.0204985	2.025
0.0322545	2.925
0.041059	3.675
0.049876	4.35
0.0646453	5.025
0.0794271	5.625
0.114931	6.9
0.132688	7.5
0.144531	7.875
0.168279	8.25
0.189025	8.775
0.215737	9.225
0.239472	9.675
0.260268	9.9
0.284015	10.275
0.310751	10.575
0.334487	11.025
0.361235	11.25
0.387959	11.625
0.411744	11.775
0.435491	12.15
0.46224	12.375
0.488976	12.675
0.509784	12.825
0.53652	13.125
0.56622	13.5
0.592969	13.725
0.610826	13.725
0.637562	14.025
0.661347	14.175
0.685107	14.475
0.708904	14.55
0.735652	14.775
0.759437	14.925
0.786186	15.15
0.80997	15.3
0.836706	15.6
0.863467	15.75
0.890203	16.05
0.908036	16.2
0.934784	16.425
0.961545	16.575
0.988281	16.875
