Adsorption isotherm of Xenon on FMOFZn
DOI: 10.1021/Ja302071t
Adsorbate Xenon: InChIKey FHNFHKCVQCLJFQ-UHFFFAOYSA-N
Temperature: 273 K
Tabular data in the source: 0
pressure (bar)	uptake (mmol/g)
0.00974026	0.0353535
0.038961	0.146465
0.0551948	0.19697
0.0681818	0.262626
0.0844156	0.308081
0.100649	0.348485
0.113636	0.378788
0.12987	0.424242
0.146104	0.464646
0.165584	0.505051
0.185065	0.545455
0.207792	0.575758
0.214286	0.59596
0.233766	0.631313
0.256494	0.666667
0.282468	0.69697
0.308442	0.722222
0.314935	0.742424
0.340909	0.772727
0.366883	0.80303
0.396104	0.823232
0.415584	0.843434
0.441558	0.868687
0.470779	0.893939
0.5	0.914141
0.516234	0.929293
0.545455	0.949495
0.577922	0.964646
0.603896	0.979798
0.613636	0.994949
0.642857	1.0101
0.675325	1.02525
0.704545	1.0404
0.720779	1.05051
0.75	1.06566
0.782468	1.08081
0.811688	1.09091
0.844156	1.10606
0.873377	1.12121
0.902597	1.13131
0.915584	1.13636
0.944805	1.15152
0.977273	1.16162
1	1.17172
