Adsorption isotherm of Krypton on FMOFZn
DOI: 10.1021/Ja302071t
Adsorbate Krypton: InChIKey DNNSSWSSYDEUBZ-UHFFFAOYSA-N
Temperature: 283 K
Tabular data in the source: 0
pressure (bar)	uptake (mmol/g)
0.0193244	0.0141488
0.0515522	0.0282363
0.103115	0.0517257
0.151441	0.0799773
0.203014	0.0987199
0.222348	0.108122
0.25135	0.122225
0.315816	0.145653
0.344818	0.159756
0.37382	0.173858
0.41893	0.197378
0.447953	0.201988
0.480191	0.211328
0.512429	0.220669
0.538205	0.234787
0.570433	0.248875
0.599445	0.25823
0.628457	0.267586
0.660685	0.281674
0.689697	0.29103
0.718709	0.300386
0.750947	0.309727
0.779959	0.319082
0.812197	0.328423
0.844435	0.337764
0.873447	0.34712
0.905695	0.351713
0.934697	0.365816
0.963709	0.375172
0.995947	0.384513
