Adsorption isotherm of Xenon on FMOFZn
DOI: 10.1021/Ja302071t
Adsorbate Xenon: InChIKey FHNFHKCVQCLJFQ-UHFFFAOYSA-N
Temperature: 243 K
Tabular data in the source: 0
pressure (bar)	uptake (mmol/g)
0.00974026	0.0909091
0.0227273	0.161616
0.0292208	0.212121
0.0357143	0.262626
0.0454545	0.308081
0.0519481	0.358586
0.0616883	0.409091
0.0714286	0.454545
0.0811688	0.505051
0.0876623	0.550505
0.0974026	0.60101
0.11039	0.646465
0.123377	0.691919
0.136364	0.737374
0.149351	0.787879
0.165584	0.828283
0.178571	0.868687
0.201299	0.90404
0.217532	0.944444
0.24026	0.979798
0.25974	1.01515
0.282468	1.05051
0.308442	1.08081
0.337662	1.11111
0.363636	1.13636
0.392857	1.15657
0.418831	1.17677
0.448052	1.20202
0.477273	1.22222
0.506494	1.24242
0.535714	1.26263
0.564935	1.28283
0.590909	1.29293
0.62013	1.31818
0.646104	1.32828
0.675325	1.34848
0.704545	1.35859
0.733766	1.37879
0.762987	1.39899
0.792208	1.41414
0.818182	1.42424
0.847403	1.43939
0.87987	1.44949
0.909091	1.4596
0.938312	1.4798
0.970779	1.4899
1	1.50505
