Adsorption isotherm of Krypton on FMOFCu
DOI: 10.1021/Ja302071t
Adsorbate Krypton: InChIKey DNNSSWSSYDEUBZ-UHFFFAOYSA-N
Temperature: 297 K
Tabular data in the source: 0
pressure (bar)	uptake (mmol/g)
0.085044	0.00694444
0.105572	0.0208333
0.14956	0.0347222
0.178886	0.0486111
0.196481	0.0555556
0.249267	0.0972222
0.266862	0.111111
0.293255	0.118056
0.313783	0.138889
0.343109	0.145833
0.369501	0.159722
0.398827	0.159722
0.416422	0.180556
0.445748	0.194444
0.472141	0.201389
0.498534	0.215278
0.516129	0.222222
0.545455	0.236111
0.571848	0.25
0.601173	0.25
0.615836	0.270833
0.645161	0.277778
0.671554	0.291667
0.697947	0.298611
0.72434	0.3125
0.750733	0.326389
0.780059	0.340278
0.806452	0.333333
0.829912	0.361111
0.856305	0.381944
0.88563	0.395833
0.917889	0.409722
0.944282	0.423611
0.973607	0.4375
0.997067	0.444444
