Adsorption isotherm of Krypton on FMOFCu
DOI: 10.1021/Ja302071t
Adsorbate Krypton: InChIKey DNNSSWSSYDEUBZ-UHFFFAOYSA-N
Temperature: 273 K
Tabular data in the source: 0
pressure (bar)	uptake (mmol/g)
0.0205279	0.0208333
0.0527859	0.0625
0.0645161	0.0833333
0.0909091	0.111111
0.117302	0.152778
0.143695	0.180556
0.167155	0.215278
0.193548	0.243056
0.214076	0.270833
0.240469	0.298611
0.266862	0.333333
0.293255	0.361111
0.313783	0.381944
0.337243	0.409722
0.366569	0.430556
0.392962	0.444444
0.416422	0.472222
0.442815	0.493056
0.472141	0.513889
0.498534	0.527778
0.516129	0.555556
0.542522	0.576389
0.571848	0.597222
0.59824	0.611111
0.615836	0.631944
0.642229	0.652778
0.671554	0.673611
0.695015	0.6875
0.718475	0.708333
0.744868	0.729167
0.774194	0.743056
0.800587	0.756944
0.815249	0.777778
0.844575	0.791667
0.870968	0.8125
0.897361	0.833333
0.914956	0.847222
0.944282	0.861111
0.970674	0.875
0.997067	0.888889
