Adsorption isotherm of Xenon on FMOFCu
DOI: 10.1021/Ja302071t
Adsorbate Xenon: InChIKey FHNFHKCVQCLJFQ-UHFFFAOYSA-N
Temperature: 297 K
Tabular data in the source: 0
pressure (bar)	uptake (mmol/g)
0.0491329	0.0154982
0.101156	0.0376384
0.153179	0.0575646
0.205202	0.0752768
0.257225	0.095203
0.303468	0.112915
0.323699	0.112915
0.349711	0.121771
0.375723	0.130627
0.404624	0.143911
0.427746	0.148339
0.453757	0.154982
0.479769	0.163838
0.50289	0.168266
0.540462	0.183764
0.601156	0.194834
0.624277	0.208118
0.650289	0.21476
0.705202	0.228044
0.722543	0.2369
0.748555	0.243542
0.777457	0.250185
0.820809	0.263469
0.846821	0.270111
0.875723	0.276753
0.901734	0.285609
0.919075	0.290037
0.945087	0.296679
0.973988	0.303321
1	0.314391
