Adsorption isotherm of Xenon on FMOFCu
DOI: 10.1021/Ja302071t
Adsorbate Xenon: InChIKey FHNFHKCVQCLJFQ-UHFFFAOYSA-N
Temperature: 203 K
Tabular data in the source: 0
pressure (bar)	uptake (mmol/g)
0.0144509	0.0265683
0.0606936	0.0553506
0.106936	0.0863469
0.153179	0.112915
0.202312	0.148339
0.248555	0.18155
0.309249	0.216974
0.355491	0.243542
0.407514	0.276753
0.433526	0.294465
0.453757	0.305535
0.5	0.334317
0.520231	0.345387
0.543353	0.358672
0.563584	0.371956
0.618497	0.402952
0.641618	0.416236
0.66185	0.431734
0.684971	0.442804
0.719653	0.462731
0.739884	0.476015
0.763006	0.489299
0.786127	0.504797
0.820809	0.522509
0.843931	0.535793
0.867052	0.549077
0.901734	0.56679
0.919075	0.57786
0.942197	0.591144
0.976879	0.61107
1	0.628782
