Adsorption isotherm of Xenon on FMOFZn
DOI: 10.1021/Ja302071t
Adsorbate Xenon: InChIKey FHNFHKCVQCLJFQ-UHFFFAOYSA-N
Temperature: 298 K
Tabular data in the source: 0
pressure (bar)	uptake (mmol/g)
0.038961	0.0252525
0.0616883	0.0606061
0.0844156	0.0959596
0.107143	0.126263
0.12013	0.151515
0.142857	0.186869
0.165584	0.222222
0.185065	0.262626
0.211039	0.282828
0.233766	0.318182
0.256494	0.348485
0.282468	0.378788
0.308442	0.40404
0.334416	0.434343
0.36039	0.459596
0.38961	0.489899
0.418831	0.505051
0.444805	0.530303
0.474026	0.555556
0.503247	0.575758
0.532468	0.59596
0.561688	0.616162
0.590909	0.636364
0.62013	0.651515
0.649351	0.671717
0.678571	0.686869
0.707792	0.70202
0.733766	0.717172
0.766234	0.732323
0.795455	0.747475
0.827922	0.762626
0.857143	0.772727
0.886364	0.792929
0.915584	0.79798
0.944805	0.813131
0.977273	0.828283
0.996753	0.833333
