Adsorption isotherm of Krypton on FMOFZn
DOI: 10.1021/Ja302071t
Adsorbate Krypton: InChIKey DNNSSWSSYDEUBZ-UHFFFAOYSA-N
Temperature: 243 K
Tabular data in the source: 0
pressure (bar)	uptake (mmol/g)
0.0192223	0.0616176
0.0320134	0.113772
0.0448249	0.156433
0.0544003	0.203856
0.0672118	0.246516
0.0767974	0.289192
0.0895987	0.3366
0.0991844	0.379276
0.111996	0.421937
0.124797	0.469344
0.137609	0.512005
0.15042	0.554666
0.163232	0.597326
0.179279	0.635225
0.195337	0.668377
0.217846	0.701498
0.240345	0.739365
0.262855	0.772486
0.285374	0.800861
0.31112	0.829219
0.336865	0.857578
0.362611	0.885937
0.38512	0.919058
0.407671	0.933191
0.43019	0.961566
0.455936	0.989924
0.484917	1.01352
0.510663	1.04188
0.536429	1.06074
0.562194	1.07961
0.58795	1.10322
0.61048	1.12685
0.636246	1.14571
0.658755	1.17884
0.687737	1.20243
0.716739	1.21653
0.74573	1.23538
0.774722	1.25423
0.800488	1.2731
0.82949	1.2872
0.861707	1.30604
0.890699	1.32489
0.919701	1.33899
0.948703	1.35309
0.980941	1.36243
1.00028	1.37183
