Adsorption isotherm of Krypton on FMOFCu
DOI: 10.1021/Ja302071t
Adsorbate Krypton: InChIKey DNNSSWSSYDEUBZ-UHFFFAOYSA-N
Temperature: 253 K
Tabular data in the source: 0
pressure (bar)	uptake (mmol/g)
0.0205279	0.131944
0.0322581	0.201389
0.0439883	0.263889
0.0615836	0.333333
0.0791789	0.388889
0.0967742	0.444444
0.111437	0.479167
0.131965	0.520833
0.16129	0.576389
0.184751	0.618056
0.211144	0.638889
0.217009	0.659722
0.243402	0.680556
0.26393	0.708333
0.293255	0.722222
0.313783	0.75
0.340176	0.770833
0.369501	0.791667
0.398827	0.805556
0.419355	0.826389
0.445748	0.826389
0.472141	0.847222
0.501466	0.854167
0.516129	0.861111
0.545455	0.868056
0.571848	0.881944
0.601173	0.888889
0.615836	0.895833
0.645161	0.902778
0.671554	0.916667
0.70088	0.916667
0.718475	0.930556
0.747801	0.9375
0.777126	0.944444
0.800587	0.951389
0.818182	0.965278
0.847507	0.965278
0.876833	0.972222
0.914956	0.986111
0.944282	0.993056
0.973607	1
1	1
