Adsorption isotherm of Krypton on FMOFCu
DOI: 10.1021/Ja302071t
Adsorbate Krypton: InChIKey DNNSSWSSYDEUBZ-UHFFFAOYSA-N
Temperature: 313 K
Tabular data in the source: 0
pressure (bar)	uptake (mmol/g)
0.0205279	-0.0138889
0.0498534	4.44e-16
0.102639	4.44e-16
0.14956	0.00694444
0.205279	0.0277778
0.252199	0.0277778
0.269795	0.0416667
0.296188	0.0416667
0.325513	0.0486111
0.354839	0.0555556
0.381232	0.0625
0.407625	0.0555556
0.416422	0.0625
0.445748	0.0625
0.475073	0.0625
0.501466	0.0555556
0.527859	0.0694444
0.560117	0.0694444
0.59824	0.0694444
0.656891	0.0833333
0.70088	0.0902778
0.718475	0.0902778
0.747801	0.0972222
0.777126	0.0972222
0.818182	0.104167
0.847507	0.104167
0.876833	0.111111
0.903226	0.118056
0.932551	0.125
0.961877	0.125
0.985337	0.118056
0.997067	0.125
