Adsorption isotherm of Nitrogen on BBOâˆ’COF 1
DOI: 10.1021/acsmacrolett.6b00486
Article source: Figure 1
Adsorbate Nitrogen: InChIKey IJGRMHOSHXDMSA-UHFFFAOYSA-N
Kind: experiment
Temperature: 77 K
Tabular data in the source: 0
pressure (bar)	uptake (cm3(STP)/g)
0.004027	154.325
0.057077	223.62
0.121778	235.985
0.171191	246.086
0.223597	255.832
0.277489	260.382
0.328391	266.617
0.379305	278.75
0.43021	285.996
0.484112	295.601
0.539513	306.148
0.590421	315.458
0.642816	319.53
0.697183	325.573
0.749134	343.837
0.798577	368.441
0.846599	430.142
0.852497	386.899
0.902	440.875
0.906699	542.83
0.950082	531.972
0.962443	721.028
1.0076	847.249
0.798602	401.198
0.757624	369.261
0.690761	349.301
0.011978	188.623
0.001613	121.756
