Adsorption isotherm of Nitrogen on BBOâˆ’COF 2
DOI: 10.1021/acsmacrolett.6b00486
Article source: Figure 3d
Adsorbate Nitrogen: InChIKey IJGRMHOSHXDMSA-UHFFFAOYSA-N
Kind: experiment
Temperature: 295 K
Tabular data in the source: 0
pressure (bar)	uptake (mg/g)
0.006632	0.031393
0.037311	0.021187
0.068215	0.109892
0.103336	0.180262
0.132597	0.23572
0.202903	0.433959
0.283933	0.635299
0.360021	0.84834
0.37944	0.907675
0.441358	1.04335
0.461971	1.13435
0.516387	1.20528
0.540956	1.33328
0.591597	1.41292
0.619745	1.55035
0.667949	1.53746
0.700792	1.80029
0.737394	1.74861
0.781926	2.02957
0.814605	1.95541
0.865624	2.20644
0.898636	2.12207
0.928648	2.3761
0.963994	2.36337
1.01268	2.57486
1.04569	2.53273
1.09371	2.77432
1.12578	2.71626
1.19369	3.01246
