Adsorption isotherm of Carbon Dioxide on BBOâˆ’COF 1
DOI: 10.1021/acsmacrolett.6b00486
Article source: Figure 3a
Adsorbate Carbon Dioxide: InChIKey CURLTUGMZLYLDI-UHFFFAOYSA-N
Kind: experiment
Temperature: 295 K
Tabular data in the source: 0
pressure (bar)	uptake (mg/g)
0.012937	1.50368
0.039603	12.4548
0.081195	18.883
0.105571	12.2264
0.117746	23.1261
0.139741	17.0327
0.155435	28.1419
0.17802	20.653
0.199899	31.556
0.216153	24.0191
0.235079	35.5073
0.256733	28.2585
0.279055	39.5121
0.297902	31.2785
0.317656	42.2642
0.342114	35.0468
0.35938	45.0422
0.378815	37.4784
0.399988	49.2806
0.429241	42.5665
0.4381	52.4253
0.465273	44.95
0.48075	54.0518
0.507599	48.6882
0.51803	58.0066
0.544915	50.7835
0.56015	59.9625
0.581998	52.6468
0.619768	55.6735
0.649129	66.3309
0.680183	60.2082
0.687153	68.4545
0.722232	69.9558
0.715896	62.0985
0.753915	65.4834
0.764253	72.2599
0.796499	67.5049
0.840667	70.3687
0.911327	74.9641
1.14	88.7116
1.16541	89.3536
0.057721	8.22389
0.601975	63.0507
0.79975	74.8992
0.841387	77.3301
0.874102	73.2726
0.881537	79.1571
0.917226	81.8871
0.963324	83.1135
0.999013	85.2402
1.04362	87.3709
1.06296	87.6809
1.10162	90.1105
1.11797	87.1015
1.08229	84.9748
1.04065	82.2423
0.996039	80.4133
0.952915	77.0769
