Adsorption isotherm of Nitrogen on BBOâˆ’COF 2
DOI: 10.1021/acsmacrolett.6b00486
Article source: Figure 3d
Adsorbate Nitrogen: InChIKey IJGRMHOSHXDMSA-UHFFFAOYSA-N
Kind: experiment
Temperature: 273 K
Tabular data in the source: 0
pressure (bar)	uptake (mg/g)
0.022175	0.077044
0.048864	0.172642
0.078364	0.271112
0.130346	0.487687
0.203016	0.801857
0.103752	0.371863
0.283804	1.15833
0.295087	1.21317
0.361963	1.49627
0.380941	1.56765
0.438337	1.82876
0.461971	1.91637
0.51642	2.18191
0.541501	2.27076
0.589519	2.52493
0.620531	2.64088
0.664548	2.82379
0.700562	2.98604
0.742577	3.15027
0.777924	3.3042
0.808602	3.43653
0.866196	3.67175
0.896399	3.82357
0.936151	3.93814
0.973665	4.10769
1.01268	4.27364
1.04869	4.43799
1.09371	4.63216
1.12509	4.66394
