Adsorption isotherm of Carbon Dioxide on BBOâˆ’COF 2
DOI: 10.1021/acsmacrolett.6b00486
Article source: Figure 3b
Adsorbate Carbon Dioxide: InChIKey CURLTUGMZLYLDI-UHFFFAOYSA-N
Kind: experiment
Temperature: 273 K
Tabular data in the source: 0
pressure (bar)	uptake (mg/g)
0.089211	18.7062
0.117795	24.0206
0.202274	37.3779
0.212619	35.5966
0.288151	44.3517
0.28798	46.407
0.366502	51.9704
0.373344	55.3771
0.438573	59.3527
0.451454	62.8606
0.51363	65.8192
0.538831	69.5422
0.588149	71.5428
0.622791	76.1611
0.664919	77.3146
0.706134	82.1659
0.739821	83.2499
0.787914	87.8064
0.816498	87.8835
0.866229	93.7114
0.902247	93.1315
0.937183	97.3949
0.972457	98.2138
1.02219	102.809
1.05123	102.897
1.10062	106.744
1.12725	106.751
0.121933	27.5849
0.130855	26.1882
0.101115	21.5325
0.077323	16.1785
0.065428	13.8506
0.050558	11.0572
0.035688	8.96217
0.023792	5.93598
0.010409	3.37536
0.034201	12.2211
