Adsorption isotherm of Nitrogen on BBOâˆ’COF 2
DOI: 10.1021/acsmacrolett.6b00486
Article source: Figure 1
Adsorbate Nitrogen: InChIKey IJGRMHOSHXDMSA-UHFFFAOYSA-N
Kind: experiment
Temperature: 77 K
Tabular data in the source: 0
pressure (bar)	uptake (cm3(STP)/g)
0.001244	134.431
2.7e-05	12.2321
0.002966	166.344
0.04813	236.825
0.050576	264.597
0.089121	290.318
0.091594	263.552
0.127877	283.147
0.138907	312.723
0.177383	304.844
0.179832	333.551
0.217249	338.508
0.22673	313.575
0.259184	342.911
0.27423	320.604
0.301725	344.588
0.317497	322.015
0.347536	350.088
0.349064	325.252
0.371978	350.424
0.38392	327.159
0.420013	354.281
0.426616	329.677
0.469478	332.005
0.472551	357.98
0.510078	360.624
0.510008	334.985
0.552101	361.233
0.55204	338.8
0.594128	363.015
0.592569	341.827
0.63527	363.868
0.633626	337.93
0.676686	368.505
0.67662	344.499
0.718708	368.548
0.718645	345.414
0.763736	370.171
0.760937	347.303
0.789255	372.143
0.807196	347.036
0.828266	368.871
0.846459	351.345
0.872664	371.303
0.890365	356.689
0.921327	373.423
0.930288	357.495
0.96555	369.395
0.970904	392.17
1.01082	401.708
0.010133	205.031
0.01009	189.341
0.005953	176.784
0.00111	155.859
