Adsorption isotherm of Nitrogen on BBOâˆ’COF 1
DOI: 10.1021/acsmacrolett.6b00486
Article source: Figure 3c
Adsorbate Nitrogen: InChIKey IJGRMHOSHXDMSA-UHFFFAOYSA-N
Kind: experiment
Temperature: 273 K
Tabular data in the source: 0
pressure (bar)	uptake (mg/g)
0.025461	0.10206
0.055543	0.196902
0.085625	0.323742
0.109512	0.400085
0.131345	0.504734
0.201794	0.79412
0.218737	0.825519
0.282284	1.15233
0.299205	1.18501
0.361625	1.51747
0.43708	1.87344
0.457565	1.91315
0.512786	2.21952
0.538356	2.28889
0.588338	2.54677
0.618073	2.66792
0.663332	2.89309
0.694447	2.9952
0.744763	3.21585
0.775668	3.34595
0.823381	3.5288
0.865974	3.74476
0.893822	3.86398
0.924907	3.98214
0.973154	4.17036
1.01249	4.32325
1.0434	4.48156
1.09423	4.6788
1.13999	4.8201
0.369014	1.53484
