Adsorption isotherm of Nitrogen on BBOâˆ’COF 1
DOI: 10.1021/acsmacrolett.6b00486
Article source: Figure 3c
Adsorbate Nitrogen: InChIKey IJGRMHOSHXDMSA-UHFFFAOYSA-N
Kind: experiment
Temperature: 295 K
Tabular data in the source: 0
pressure (bar)	uptake (mg/g)
0.003254	0.02965
0.031477	0.012021
0.061559	0.07688
0.091641	0.133694
0.121723	0.193525
0.145788	0.261568
0.183223	0.351509
0.206955	0.406257
0.264965	0.561264
0.288445	0.602113
0.352601	0.785297
0.374273	0.80766
0.433822	1.00149
0.455494	1.02418
0.520661	1.21665
0.541364	1.24848
0.607898	1.44727
0.623087	1.44509
0.689517	1.66325
0.708414	1.66578
0.776356	1.8466
0.789723	1.89064
0.860585	2.03825
0.876065	2.09042
0.927163	2.23927
0.951336	2.28354
1.00838	2.42933
1.03395	2.4944
1.09206	2.61991
1.11912	2.69675
