Adsorption isotherm of Carbon Dioxide on BBOâˆ’COF 1
DOI: 10.1021/acsmacrolett.6b00486
Article source: Figure 3a
Adsorbate Carbon Dioxide: InChIKey CURLTUGMZLYLDI-UHFFFAOYSA-N
Kind: experiment
Temperature: 273 K
Tabular data in the source: 0
pressure (bar)	uptake (mg/g)
0.012514	6.90671
0.041098	21.0365
0.068094	16.9626
0.080203	29.1892
0.099854	26.1916
0.120922	37.9562
0.141143	34.047
0.159344	46.1135
0.180843	41.2932
0.200632	53.1625
0.221813	47.9316
0.238692	59.3144
0.260243	54.3185
0.280032	65.3701
0.301531	60.5634
0.318633	72.0353
0.34282	66.7367
0.3587	78.1318
0.380932	71.2445
0.398522	81.9264
0.425396	76.9719
0.43981	86.508
0.46986	82.7074
0.480182	92.5186
0.504797	86.9194
0.522387	95.9021
0.548308	91.537
0.559848	101.092
0.588817	95.2032
0.601136	105.011
0.629191	99.7077
0.639248	108.844
0.668361	103.878
0.684364	111.889
0.711238	107.587
0.718913	116.396
0.75003	113.873
0.770716	119.606
0.803342	123.329
0.79699	116.509
0.846748	126.559
1.12412	145.678
1.15906	147.965
1.14177	147.734
1.10608	145.004
1.06147	144.08
1.07336	142.577
1.03619	141.958
1.03619	138.64
1.0005	140.133
0.996039	136.813
0.957376	136.797
0.955889	132.875
0.921687	133.463
0.912765	128.634
0.883024	130.732
0.875589	124.998
0.833952	119.853
