Adsorption isotherm of Carbon Dioxide on BBOâˆ’COF 2
DOI: 10.1021/acsmacrolett.6b00486
Article source: Figure 3b
Adsorbate Carbon Dioxide: InChIKey CURLTUGMZLYLDI-UHFFFAOYSA-N
Kind: experiment
Temperature: 295 K
Tabular data in the source: 0
pressure (bar)	uptake (mg/g)
0.002554	0.72286
0.028869	3.88746
0.057452	5.80713
0.086035	8.48639
0.114619	11.7319
0.205577	18.6632
0.206149	20.5038
0.288894	26.4412
0.289467	24.5083
0.357894	29.1857
0.371529	31.7946
0.437292	33.86
0.454601	36.7612
0.513515	37.5356
0.538171	40.9643
0.596366	41.7803
0.625942	45.5855
0.662783	45.3745
0.707635	49.935
0.745493	49.0382
0.787712	53.3505
0.81559	52.6428
0.87	56.5802
0.897606	56.3635
0.932297	59.5441
0.981646	59.4613
1.01771	62.9948
1.04663	62.8651
1.10282	65.9674
1.12945	65.8481
0.135316	13.6178
0.12342	14.0834
0.040149	6.40155
