Adsorption isotherm of Carbon Dioxide on FeCID-5
DOI: 10.1039/C3ta01414b
Adsorbate Carbon Dioxide: InChIKey CURLTUGMZLYLDI-UHFFFAOYSA-N
Temperature: 195 K
Tabular data in the source: 0
pressure (bar)	uptake (cm3(STP)/g)
0.00229475	2.09176
0.00801532	11.2447
0.0123058	34.842
0.0237469	43.7089
0.0537799	55.2931
0.105265	65.1611
0.162471	72.7408
0.213956	76.8882
0.265441	80.3206
0.319786	82.8948
0.366981	85.0401
0.445639	87.9003
0.517146	89.6165
0.641569	92.6198
0.743109	93.7639
0.846079	94.622
0.949049	95.6231
