Adsorption isotherm of Carbon Dioxide on FeCID-2
DOI: 10.1039/C3ta01414b
Adsorbate Carbon Dioxide: InChIKey CURLTUGMZLYLDI-UHFFFAOYSA-N
Temperature: 195 K
Tabular data in the source: 0
pressure (bar)	uptake (cm3(STP)/g)
0.00658518	5.38109
0.0108756	22.8288
0.025177	27.9773
0.045199	31.6957
0.0823828	36.2722
0.138158	40.4196
0.189643	42.8508
0.242559	44.138
0.295474	45.2821
0.371272	45.9971
0.475672	46.5692
0.588653	47.1413
0.693054	47.8563
0.791734	48.5714
0.898994	49.0004
0.999104	49.2865
