Adsorption isotherm of Carbon Dioxide on FeCID-1
DOI: 10.1039/C3ta01414b
Adsorbate Carbon Dioxide: InChIKey CURLTUGMZLYLDI-UHFFFAOYSA-N
Temperature: 195 K
Tabular data in the source: 0
pressure (bar)	uptake (cm3(STP)/g)
0.00229475	28.1204
0.00372489	35.4141
0.00658518	5.38109
0.0165962	45.4251
0.035188	50.7166
0.0780923	55.4361
0.138158	57.2953
0.192504	58.4394
0.243989	58.8684
0.295474	59.5835
0.344099	60.5846
0.442779	61.2997
0.520007	61.8717
0.635848	62.8728
0.743109	63.5879
0.838928	64.446
0.940469	65.4471
