Adsorption isotherm of Carbon Dioxide on FeCID-6
DOI: 10.1039/C3ta01414b
Adsorbate Carbon Dioxide: InChIKey CURLTUGMZLYLDI-UHFFFAOYSA-N
Temperature: 195 K
Tabular data in the source: 0
pressure (bar)	uptake (cm3(STP)/g)
0.00372489	6.5252
0.00372489	32.9828
0.00515504	44.138
0.00658518	19.6825
0.015166	51.5747
0.0380483	52.4328
0.0866732	53.8629
0.141019	55.007
0.192504	55.8651
0.294044	57.2953
0.346959	57.5813
0.447069	58.5824
0.521437	59.4405
0.638708	60.2986
0.735958	61.1567
0.840359	62.1578
0.941899	63.3019
