Adsorption isotherm of 2-Methylbutane on Zeolite TER
DOI: 10.1016/j.fluid.2007.06.030
Adsorbate 2-Methylbutane: InChIKey QWTDNUCVQCZILF-UHFFFAOYSA-N
Temperature: 300 K
Tabular data in the source: 0
pressure (bar)	uptake (mmol/g)
9.67e-08	0.000982285
1.05e-06	0.00899169
9.59e-06	0.0169255
5.19e-05	0.0246327
0.000104244	0.0667954
0.000139444	0.0878516
0.000209556	0.136865
0.000333787	0.178927
0.000501603	0.234917
0.00100835	0.29801
0.00134884	0.298136
0.00241363	0.305365
0.00431897	0.312593
0.00729155	0.319797
0.0130473	0.320049
0.0233469	0.306347
0.0394158	0.29262
0.070531	0.278919
0.1	0.272093
