Adsorption isotherm of N-Butane on Zeolite ISV
DOI: 10.1016/j.fluid.2007.06.030
Adsorbate N-Butane: InChIKey IJDNQMDRQITEOD-UHFFFAOYSA-N
Temperature: 300 K
Tabular data in the source: 0
pressure (bar)	uptake (mmol/g)
9.68e-07	0.0132308
9.84e-06	0.0265022
5.01e-05	0.00511374
9.06e-05	0.00560076
0.000255541	0.0291808
0.000535957	0.0525173
0.00101819	0.0644088
0.00301655	0.0880294
0.0098612	0.100367
0.0126206	0.10057
0.0206657	0.0896122
0.0338485	0.0900181
0.0554409	0.0904239
0.110651	0.102356
