Adsorption isotherm of 2-Methylbutane on Zeolite MFI
DOI: 10.1016/j.fluid.2007.06.030
Adsorbate 2-Methylbutane: InChIKey QWTDNUCVQCZILF-UHFFFAOYSA-N
Temperature: 300 K
Tabular data in the source: 0
pressure (bar)	uptake (mmol/g)
1.02e-06	-2.22e-16
1.04e-05	0.0167539
4.98e-05	0.0670157
0.0001	0.134031
0.000508019	0.167539
0.00101953	0.134031
0.0103947	0.0670157
0.0295522	0.0586387
0.1	0.0502618
