Adsorption isotherm of Isobutane on Zeolite MEL
DOI: 10.1016/j.fluid.2007.06.030
Adsorbate Isobutane: InChIKey NNPPMTNAJDCUHE-UHFFFAOYSA-N
Temperature: 300 K
Tabular data in the source: 0
pressure (bar)	uptake (mmol/g)
9.29e-08	0.00769231
1.03e-06	0.00769231
9.53e-06	0.00769231
4.72e-05	0.0153846
9.93e-05	0.0230769
0.000208829	0.0307692
0.000492357	0.0384615
0.000977958	0.0461538
0.0101981	0.0692308
0.10631	0.0846154
