Adsorption isotherm of Isobutane on Zeolite MFI
DOI: 10.1016/j.fluid.2007.06.030
Adsorbate Isobutane: InChIKey NNPPMTNAJDCUHE-UHFFFAOYSA-N
Temperature: 308 K
Tabular data in the source: 0
pressure (bar)	uptake (mmol/g)
0.000611083	0.349693
0.000906192	0.423313
0.00163644	0.52454
0.0028833	0.579755
0.00546978	0.634969
0.00852079	0.653374
0.0109001	0.671779
0.0142916	0.671779
0.0691146	0.699387
