Adsorption isotherm of Isobutane on Zeolite MFI
DOI: 10.1016/j.fluid.2007.06.030
Article source: Figure 2a
Adsorbate Isobutane: InChIKey NNPPMTNAJDCUHE-UHFFFAOYSA-N
Kind: experiment
Temperature: 307 K
Tabular data in the source: 0
pressure (bar)	uptake (mmol/g)
0.0006	0.28311
0.000912	0.38584
0.001626	0.47717
0.002762	0.55936
0.005337	0.65068
0.008365	0.69178
0.010635	0.72603
0.014204	0.75114
0.069542	0.78311
