Adsorption isotherm of N-Pentane on Zeolite TER
DOI: 10.1016/j.fluid.2007.06.030
Adsorbate N-Pentane: InChIKey OFBQJSOFQDEBGM-UHFFFAOYSA-N
Temperature: 300 K
Tabular data in the source: 0
pressure (bar)	uptake (mmol/g)
1.05e-06	0.00899169
1.02e-05	0.0169507
2.17e-05	0.0382084
3.66e-05	0.0593653
4.89e-05	0.0734447
0.000104244	0.122609
0.000124125	0.143615
0.000197711	0.192654
0.000297112	0.241667
0.000633053	0.318739
0.00100835	0.360801
0.00127259	0.367878
0.00214847	0.396012
0.00362719	0.431122
0.0061235	0.459256
0.00975371	0.494341
0.0130473	0.508421
0.0207821	0.550483
0.0331024	0.592545
0.0527254	0.634607
0.0943474	0.690672
