Adsorption isotherm of Isobutane on Zeolite BEA
DOI: 10.1016/j.fluid.2007.06.030
Adsorbate Isobutane: InChIKey NNPPMTNAJDCUHE-UHFFFAOYSA-N
Temperature: 300 K
Tabular data in the source: 0
pressure (bar)	uptake (mmol/g)
1e-06	0.0113636
1e-05	0.0113636
5.14e-05	0.0227273
9.5e-05	0.0113636
0.000264144	0.0340909
0.000463618	0.0454545
0.00099855	0.0568182
0.0027769	0.0795455
0.00948178	0.0795455
0.0948462	0.0681818
