Adsorption isotherm of N-Pentane on Zeolite MFI
DOI: 10.1016/j.fluid.2007.06.030
Adsorbate N-Pentane: InChIKey OFBQJSOFQDEBGM-UHFFFAOYSA-N
Temperature: 303 K
Tabular data in the source: 0
pressure (bar)	uptake (mmol/g)
3.27e-05	0.353659
6.89e-05	0.585366
0.000110693	0.792683
0.000562341	1.2439
0.00110693	1.30488
0.00491111	1.37805
0.0107006	1.39024
0.0131114	1.39024
