Adsorption isotherm of Isobutane on Zeolite TON
DOI: 10.1016/j.fluid.2007.06.030
Adsorbate Isobutane: InChIKey NNPPMTNAJDCUHE-UHFFFAOYSA-N
Temperature: 300 K
Tabular data in the source: 0
pressure (bar)	uptake (mmol/g)
4.95e-05	0.00570272
9.89e-05	0.00530415
0.000177828	0.0182119
0.000303026	0.0179053
0.00121152	0.0435982
0.00206448	0.0565367
0.00333542	0.0628832
0.00510893	0.075883
0.00968523	0.0953826
0.012643	0.101852
0.0204263	0.121443
0.0348073	0.134382
0.12509	0.153514
0.213159	0.166452
0.344379	0.192666
0.586839	0.205605
1	0.231788
