Adsorption isotherm of N-Pentane on Zeolite ISV
DOI: 10.1016/j.fluid.2007.06.030
Adsorbate N-Pentane: InChIKey OFBQJSOFQDEBGM-UHFFFAOYSA-N
Temperature: 300 K
Tabular data in the source: 0
pressure (bar)	uptake (mmol/g)
9.68e-07	0.0132308
9.36e-06	0.00373384
9.54e-05	0.107916
0.000172922	0.199314
0.000257045	0.267822
0.000381988	0.324966
0.000567662	0.38211
0.000658415	0.393596
0.00102766	0.439416
0.00152377	0.405649
0.00249511	0.394691
0.00388777	0.372329
0.00636429	0.350007
0.00991402	0.316281
0.0154522	0.305282
0.0240702	0.271556
0.0394031	0.249234
0.0613974	0.226871
0.10559	0.20459
