Adsorption isotherm of N-Pentane on Zeolite MEL
DOI: 10.1016/j.fluid.2007.06.030
Adsorbate N-Pentane: InChIKey OFBQJSOFQDEBGM-UHFFFAOYSA-N
Temperature: 300 K
Tabular data in the source: 0
pressure (bar)	uptake (mmol/g)
1.17e-07	0.00769231
2.07e-07	2.22e-16
3.66e-07	2.22e-16
6.49e-07	0.00769231
1.22e-06	0.00769231
2.04e-06	0.00769231
3.61e-06	0.0153846
6.39e-06	0.0153846
1.79e-05	0.0538462
3e-05	0.0846154
6.69e-05	0.130769
0.000100025	0.176923
0.000125858	0.2
0.000177865	0.261538
0.00025127	0.315385
0.000355099	0.376923
0.000531545	0.446154
0.000631902	0.476923
0.000892997	0.538462
0.00133478	0.576923
0.00211325	0.623077
0.00334441	0.661538
0.00560635	0.707692
0.00887605	0.753846
0.014032	0.769231
0.0248599	0.776923
0.0415978	0.784615
0.073697	0.792308
0.103922	0.807692
0.116507	0.807692
