Adsorption isotherm of Isobutane on Zeolite MFI
DOI: 10.1016/j.fluid.2007.06.030
Adsorbate Isobutane: InChIKey NNPPMTNAJDCUHE-UHFFFAOYSA-N
Temperature: 308 K
Tabular data in the source: 0
pressure (bar)	uptake (mmol/g)
0.000596211	0.285276
0.000928774	0.377301
0.00163644	0.478528
0.0028132	0.56135
0.00546978	0.644172
0.00831362	0.690184
0.0106351	0.726994
0.0146481	0.754601
0.0691146	0.773006
