Adsorption isotherm of N-Pentane on Zeolite MFI
DOI: 10.1016/j.fluid.2007.06.030
Adsorbate N-Pentane: InChIKey OFBQJSOFQDEBGM-UHFFFAOYSA-N
Temperature: 303 K
Tabular data in the source: 0
pressure (bar)	uptake (mmol/g)
3.38e-05	0.219512
7.13e-05	0.463415
0.000110693	0.658537
0.000543613	1.13415
0.00107006	1.2439
0.00491111	1.39024
0.0107006	1.42683
0.0131114	1.43902
