Adsorption isotherm of N-Butane on Zeolite MFI
DOI: 10.1016/j.fluid.2007.06.030
Adsorbate N-Butane: InChIKey IJDNQMDRQITEOD-UHFFFAOYSA-N
Temperature: 300 K
Tabular data in the source: 0
pressure (bar)	uptake (mmol/g)
9.62e-07	-2.22e-16
1.04e-05	-2.22e-16
4.98e-05	0.00837696
0.000141664	0.0251309
0.000479369	0.0670157
0.00101953	0.0837696
0.00307178	0.100524
0.00980844	0.108901
0.1	0.0418848
