Adsorption isotherm of Isobutane on Zeolite TER
DOI: 10.1016/j.fluid.2007.06.030
Adsorbate Isobutane: InChIKey NNPPMTNAJDCUHE-UHFFFAOYSA-N
Temperature: 300 K
Tabular data in the source: 0
pressure (bar)	uptake (mmol/g)
1.32e-05	-8.88e-16
4.94e-05	0.0115108
9.57e-05	0.0345324
0.000472759	0.14964
0.000967498	0.241727
0.00505068	0.333813
0.00978205	0.322302
0.0483292	0.264748
0.0989054	0.264748
0.266586	0.253237
0.462458	0.253237
0.946404	0.241727
