Adsorption isotherm of 2-Methylbutane on Zeolite ISV
DOI: 10.1016/j.fluid.2007.06.030
Adsorbate 2-Methylbutane: InChIKey QWTDNUCVQCZILF-UHFFFAOYSA-N
Temperature: 300 K
Tabular data in the source: 0
pressure (bar)	uptake (mmol/g)
1e-06	0.0113636
9.99e-06	0.0227273
4.88e-05	0.0568182
9.97e-05	0.102273
0.000174345	0.272727
0.00023645	0.363636
0.000320671	0.454545
0.000589454	0.659091
0.000759556	0.75
0.00114043	0.863636
0.00162832	0.943182
0.00244703	1.02273
0.00349486	1.09091
0.00499149	1.15909
0.00712689	1.23864
0.011861	1.32955
0.0178295	1.39773
0.0282169	1.45455
0.0424277	1.51136
0.067146	1.56818
0.0959268	1.625
