Adsorption isotherm of Isobutane on Zeolite CFI
DOI: 10.1016/j.fluid.2007.06.030
Adsorbate Isobutane: InChIKey NNPPMTNAJDCUHE-UHFFFAOYSA-N
Temperature: 300 K
Tabular data in the source: 0
pressure (bar)	uptake (mmol/g)
1.1e-05	-8.88e-16
5e-05	0.0156863
0.000106512	0.0313725
0.000257608	0.0784314
0.000549199	0.12549
0.000968947	0.211765
0.00132828	0.266667
0.00182083	0.329412
0.00265864	0.4
0.00364452	0.462745
0.00532145	0.533333
0.00729474	0.572549
0.0106512	0.619608
0.0137085	0.635294
0.0241858	0.67451
0.0400627	0.713725
0.132828	0.784314
0.249609	0.8
0.440389	0.815686
0.776982	0.839216
1	0.847059
