Adsorption isotherm of N-Butane on Zeolite MEL
DOI: 10.1016/j.fluid.2007.06.030
Adsorbate N-Butane: InChIKey IJDNQMDRQITEOD-UHFFFAOYSA-N
Temperature: 300 K
Tabular data in the source: 0
pressure (bar)	uptake (mmol/g)
1.08e-05	0
5.04e-05	0.0108844
0.000220897	0.0435374
0.000393867	0.0653061
0.0013353	0.185034
0.00223275	0.25034
0.00373327	0.315646
0.00624238	0.380952
0.0134968	0.50068
0.0211631	0.565986
0.0353867	0.642177
0.0554868	0.696599
0.0815887	0.772789
0.098935	0.827211
0.155131	0.892517
0.228108	0.968707
0.357675	1.0449
0.560837	1.13197
0.824668	1.20816
1	1.26259
