Adsorption isotherm of N-Butane on Zeolite CFI
DOI: 10.1016/j.fluid.2007.06.030
Adsorbate N-Butane: InChIKey IJDNQMDRQITEOD-UHFFFAOYSA-N
Temperature: 300 K
Tabular data in the source: 0
pressure (bar)	uptake (mmol/g)
1.1e-05	-8.88e-16
5e-05	0.00784314
0.0001	-8.88e-16
0.000155518	0.0156863
0.000292247	0.0235294
0.00051562	0.0313725
0.000854103	0.054902
0.00150689	0.0784314
0.00265864	0.101961
0.00469062	0.141176
0.0082758	0.14902
0.0155518	0.156863
0.0292247	0.172549
0.0549199	0.180392
0.0968947	0.188235
0.182085	0.188235
0.342174	0.196078
0.643012	0.196078
1	0.196078
