Adsorption isotherm of N-Pentane on Zeolite BEA
DOI: 10.1016/j.fluid.2007.06.030
Adsorbate N-Pentane: InChIKey OFBQJSOFQDEBGM-UHFFFAOYSA-N
Temperature: 300 K
Tabular data in the source: 0
pressure (bar)	uptake (mmol/g)
1e-06	0.0113636
9.99e-06	0.0227273
4.88e-05	0.0795455
9.97e-05	0.136364
0.00017455	0.227273
0.000262386	0.295455
0.000374749	0.363636
0.000535377	0.420455
0.000624209	0.420455
0.000939399	0.443182
0.00149015	0.409091
0.0024872	0.386364
0.00394421	0.363636
0.00658309	0.340909
0.00850746	0.318182
0.0134871	0.306818
0.0213944	0.272727
0.0357092	0.25
0.0596005	0.227273
0.0944887	0.215909
