Adsorption isotherm of N-Butane on Zeolite BEA
DOI: 10.1016/j.fluid.2007.06.030
Adsorbate N-Butane: InChIKey IJDNQMDRQITEOD-UHFFFAOYSA-N
Temperature: 300 K
Tabular data in the source: 0
pressure (bar)	uptake (mmol/g)
4.51e-05	0
9.18e-05	0.0157233
0.000491575	0.0943396
0.000937476	0.204403
0.00231467	0.361635
0.00387963	0.455975
0.0065025	0.518868
0.00841841	0.534591
0.016055	0.550314
0.0269098	0.566038
0.0481105	0.566038
0.0860161	0.581761
0.153786	0.581761
0.937481	0.628931
