Adsorption isotherm of N-Pentane on Zeolite MFI
DOI: 10.1016/j.fluid.2007.06.030
Adsorbate N-Pentane: InChIKey OFBQJSOFQDEBGM-UHFFFAOYSA-N
Temperature: 300 K
Tabular data in the source: 0
pressure (bar)	uptake (mmol/g)
1.72e-06	0.00837696
6.53e-06	0.0251309
1.31e-05	0.0586387
2.09e-05	0.100524
3.52e-05	0.142408
6.29e-05	0.201047
8.9e-05	0.268063
0.000126136	0.318325
0.00017869	0.38534
0.000238864	0.460733
0.000338384	0.527749
0.000604658	0.66178
0.000808277	0.737173
0.001286	0.837696
0.0018218	0.904712
0.00258083	0.963351
0.00387472	1.03037
0.00548909	1.08901
0.00824081	1.15602
0.0131114	1.21466
0.0221075	1.24817
0.0372761	1.28168
0.0628521	1.32356
0.105977	1.35707
