Adsorption isotherm of N-Butane on Zeolite TON
DOI: 10.1016/j.fluid.2007.06.030
Adsorbate N-Butane: InChIKey IJDNQMDRQITEOD-UHFFFAOYSA-N
Temperature: 300 K
Tabular data in the source: 0
pressure (bar)	uptake (mmol/g)
1.02e-06	0.00451977
1.03e-05	0
6.97e-05	0.00903955
0.000167645	0.0180791
0.000280795	0.0225989
0.000548984	0.0271186
0.00125285	0.0316384
0.00209908	0.040678
0.00334026	0.0497175
0.00559642	0.0587571
0.0127829	0.0768362
0.020347	0.0903955
0.0340902	0.099435
0.0542638	0.112994
0.0909432	0.126554
