Adsorption isotherm of N-Pentane on Zeolite MFI
DOI: 10.1016/j.fluid.2007.06.030
Article source: Figure 2b
Adsorbate N-Pentane: InChIKey OFBQJSOFQDEBGM-UHFFFAOYSA-N
Kind: experiment
Temperature: 303 K
Tabular data in the source: 0
pressure (bar)	uptake (mmol/g)
3.4e-05	0.21371
7e-05	0.45161
0.000116	0.66532
0.00056	1.12903
0.001115	1.2379
0.004796	1.3871
0.010702	1.42742
0.01357	1.44355
