Adsorption isotherm of Isobutane on Zeolite MFI
DOI: 10.1016/j.fluid.2007.06.030
Adsorbate Isobutane: InChIKey NNPPMTNAJDCUHE-UHFFFAOYSA-N
Temperature: 300 K
Tabular data in the source: 0
pressure (bar)	uptake (mmol/g)
1.02e-06	-2.22e-16
9.81e-06	-2.22e-16
5.28e-05	0.0167539
0.0001	0.0251309
0.00017869	0.0251309
0.000508019	0.0251309
0.00101953	0.0251309
0.00980844	0.0167539
0.0890389	0.0167539
