Adsorption isotherm of 2-Methylbutane on Zeolite TON
DOI: 10.1016/j.fluid.2007.06.030
Adsorbate 2-Methylbutane: InChIKey QWTDNUCVQCZILF-UHFFFAOYSA-N
Temperature: 300 K
Tabular data in the source: 0
pressure (bar)	uptake (mmol/g)
1.02e-06	0.00451977
9.83e-06	0.00451977
4.86e-05	0.0135593
0.000100118	0.0180791
0.000167645	0.0180791
0.000280795	0.0225989
0.000521711	0.0361582
0.00102089	0.0542373
0.00132181	0.0632768
0.00221468	0.0723164
0.00352411	0.0813559
0.00590459	0.0903955
0.0128127	0.112994
0.0193865	0.140113
0.0293339	0.167232
0.0443844	0.19435
0.0637837	0.221469
0.101644	0.253107
