Adsorption isotherm of 2-Methylbutane on Zeolite ISV
DOI: 10.1016/j.fluid.2007.06.030
Adsorbate 2-Methylbutane: InChIKey QWTDNUCVQCZILF-UHFFFAOYSA-N
Temperature: 300 K
Tabular data in the source: 0
pressure (bar)	uptake (mmol/g)
1.02e-06	0.0132714
1.03e-05	0.0151789
5.02e-05	0.0619331
0.000100237	0.0965929
0.000173165	0.256133
0.000245155	0.347328
0.000330354	0.438483
0.000516928	0.586578
0.000630594	0.64356
0.000809077	0.746038
0.00103779	0.837152
0.00126567	0.88277
0.00179131	0.962601
0.0025353	1.04243
0.00358823	1.12226
0.00507855	1.20209
0.00718969	1.29329
0.0130341	1.40741
0.0203493	1.4646
0.0302406	1.52174
0.0472128	1.57893
0.0737106	1.63611
0.109509	1.68189
