Adsorption isotherm of N-Butane on Zeolite TER
DOI: 10.1016/j.fluid.2007.06.030
Adsorbate N-Butane: InChIKey IJDNQMDRQITEOD-UHFFFAOYSA-N
Temperature: 300 K
Tabular data in the source: 0
pressure (bar)	uptake (mmol/g)
9.92e-07	0.0089665
3.57e-06	0.00952061
1.08e-05	0.00302242
0.000104244	0.0179582
0.000473249	0.0255898
0.00100835	0.032894
0.00214847	0.0611284
0.0038445	0.0753337
0.00649038	0.0895139
0.011614	0.103719
0.0184991	0.131828
0.0312306	0.159961
0.0558843	0.18812
0.0890143	0.223205
