Adsorption isotherm of Isobutane on Zeolite BOG
DOI: 10.1016/j.fluid.2007.06.030
Adsorbate Isobutane: InChIKey NNPPMTNAJDCUHE-UHFFFAOYSA-N
Temperature: 300 K
Tabular data in the source: 0
pressure (bar)	uptake (mmol/g)
1.01e-05	0
5.04e-05	0.0157233
0.000102164	0.0157233
0.000509307	0.110063
0.000968389	0.220126
0.00253893	0.487421
0.00373327	0.597484
0.00548946	0.72327
0.00860756	0.801887
0.0211631	0.896226
0.0487944	0.974843
0.098935	1.00629
0.276605	1.02201
1	1.06918
