Adsorption isotherm of N-Butane on Zeolite BOG
DOI: 10.1016/j.fluid.2007.06.030
Adsorbate N-Butane: InChIKey IJDNQMDRQITEOD-UHFFFAOYSA-N
Temperature: 300 K
Tabular data in the source: 0
pressure (bar)	uptake (mmol/g)
0.000102164	0
0.000509307	0.0471698
0.000968389	0.0943396
0.00184128	0.204403
0.00307872	0.298742
0.00482748	0.408805
0.00756955	0.487421
0.0111304	0.566038
0.0225678	0.676101
0.0402393	0.754717
0.0630957	0.801887
0.098935	0.86478
0.176405	0.896226
0.335414	0.927673
0.637751	0.959119
1	0.974843
