Adsorption isotherm of N-Butane on Zeolite TON
DOI: 10.1016/j.fluid.2007.06.030
Adsorbate N-Butane: InChIKey IJDNQMDRQITEOD-UHFFFAOYSA-N
Temperature: 300 K
Tabular data in the source: 0
pressure (bar)	uptake (mmol/g)
2.22e-05	0.0127851
0.00012245	0.0449166
0.000187564	0.0844064
0.000489565	0.15008
0.000749894	0.202815
0.00121152	0.268764
0.00166809	0.32156
0.00229673	0.374356
0.00316228	0.427152
0.00435402	0.473326
0.00599487	0.5195
0.00825411	0.572296
0.00968523	0.611939
0.0148354	0.631561
0.0252802	0.657745
0.0408423	0.683959
0.059313	0.703612
0.101072	0.71655
0.172231	0.722866
0.278256	0.729213
0.474161	0.742151
0.807993	0.748467
