Adsorption isotherm of N-Pentane on Zeolite TON
DOI: 10.1016/j.fluid.2007.06.030
Adsorbate N-Pentane: InChIKey OFBQJSOFQDEBGM-UHFFFAOYSA-N
Temperature: 300 K
Tabular data in the source: 0
pressure (bar)	uptake (mmol/g)
2.1e-06	0.0135593
1.04e-05	0.0316384
1.27e-05	0.0361582
3.23e-05	0.0723164
5.42e-05	0.103955
7.8e-05	0.140113
0.000101114	0.171751
0.000124486	0.19887
0.000161462	0.235028
0.000220567	0.275706
0.000286082	0.311864
0.000390805	0.352542
0.000728853	0.424859
0.001048	0.461017
0.00135653	0.465537
0.00215864	0.474576
0.00361668	0.483616
0.00605955	0.492655
0.00915799	0.501695
0.0145603	0.497175
0.0231286	0.479096
0.0367401	0.461017
0.0554128	0.438418
