Adsorption isotherm of 2-Methylbutane on Zeolite MEL
DOI: 10.1016/j.fluid.2007.06.030
Adsorbate 2-Methylbutane: InChIKey QWTDNUCVQCZILF-UHFFFAOYSA-N
Temperature: 300 K
Tabular data in the source: 0
pressure (bar)	uptake (mmol/g)
9.29e-08	2.22e-16
9.68e-07	0.00769231
1.34e-05	0.00769231
2.38e-05	0.0153846
5.94e-05	0.0384615
0.000140275	0.0769231
0.000263433	0.107692
0.000393459	0.130769
0.000659083	0.161538
0.00104193	0.176923
0.00130864	0.161538
0.00231761	0.161538
0.00387516	0.153846
0.00686057	0.146154
0.0136116	0.130769
0.0240979	0.123077
0.0426629	0.115385
0.0713329	0.107692
