Adsorption isotherm of Isobutane on Zeolite TER
DOI: 10.1016/j.fluid.2007.06.030
Adsorbate Isobutane: InChIKey NNPPMTNAJDCUHE-UHFFFAOYSA-N
Temperature: 300 K
Tabular data in the source: 0
pressure (bar)	uptake (mmol/g)
1.05e-06	0.00201494
1.02e-05	0.00299723
5.19e-05	0.00370246
0.000104244	0.0179582
0.000501603	0.0325917
0.00100835	0.0398707
0.00214847	0.0401981
0.0038445	0.0474267
0.00687939	0.0476786
0.0130473	0.0479557
0.0233469	0.0482075
0.0417773	0.0484594
0.0747567	0.0487113
0.1	0.0488372
