Adsorption isotherm of N-Butane on Zeolite BEA
DOI: 10.1016/j.fluid.2007.06.030
Adsorbate N-Butane: InChIKey IJDNQMDRQITEOD-UHFFFAOYSA-N
Temperature: 300 K
Tabular data in the source: 0
pressure (bar)	uptake (mmol/g)
1.05e-06	0.0113636
1e-05	0
4.64e-05	0.0113636
0.0001	0.0113636
0.00048782	0.0568182
0.000901405	0.0568182
0.00263913	0.0681818
0.00948178	0.0795455
0.0948462	0.0681818
