Adsorption isotherm of Isobutane on Zeolite BEA
DOI: 10.1016/j.fluid.2007.06.030
Adsorbate Isobutane: InChIKey NNPPMTNAJDCUHE-UHFFFAOYSA-N
Temperature: 300 K
Tabular data in the source: 0
pressure (bar)	uptake (mmol/g)
9.58e-06	0
4.81e-05	0.0157233
9.18e-05	0.0471698
0.00046084	0.204403
0.000772414	0.345912
0.0015713	0.613208
0.00280931	0.849057
0.0053576	1.10063
0.00841841	1.17925
0.0141101	1.25786
0.0236499	1.33648
0.0422834	1.43082
0.11136	1.52516
0.199097	1.54088
0.937481	1.60377
