Adsorption isotherm of Isobutane on Zeolite TON
DOI: 10.1016/j.fluid.2007.06.030
Adsorbate Isobutane: InChIKey NNPPMTNAJDCUHE-UHFFFAOYSA-N
Temperature: 300 K
Tabular data in the source: 0
pressure (bar)	uptake (mmol/g)
1.02e-06	0
9.34e-06	0
4.86e-05	0.00451977
0.00010003	0.00451977
0.000143456	0
0.000709365	0.00451977
0.00118782	0.00451977
0.00350776	0.00903955
0.00685804	0.0135593
0.0127344	0.0180791
0.0213236	0.0180791
0.0357059	0.0180791
0.0597902	0.0180791
