Adsorption isotherm of N-Butane on Zeolite TER
DOI: 10.1016/j.fluid.2007.06.030
Adsorbate N-Butane: InChIKey IJDNQMDRQITEOD-UHFFFAOYSA-N
Temperature: 300 K
Tabular data in the source: 0
pressure (bar)	uptake (mmol/g)
9.57e-05	0.0230216
0.000231015	0.0690647
0.000499528	0.115108
0.000967498	0.184173
0.0015884	0.28777
0.00233572	0.368345
0.00343471	0.448921
0.00505068	0.529496
0.00595827	0.564029
0.00829201	0.656115
0.00978205	0.702158
0.0143843	0.782734
0.0200189	0.863309
0.0294374	0.955396
0.0409676	1.03597
0.0483292	1.08201
0.0710673	1.13957
0.0838378	1.16259
0.0989054	1.1741
0.130267	1.20863
0.576456	1.31223
1	1.34676
