Adsorption isotherm of Isobutane on Zeolite MEL
DOI: 10.1016/j.fluid.2007.06.030
Adsorbate Isobutane: InChIKey NNPPMTNAJDCUHE-UHFFFAOYSA-N
Temperature: 300 K
Tabular data in the source: 0
pressure (bar)	uptake (mmol/g)
1.01e-05	0
5.04e-05	0.0108844
0.000108946	0.0326531
0.000220897	0.0761905
0.00042001	0.108844
0.0013353	0.239456
0.00223275	0.304762
0.00373327	0.370068
0.0051479	0.413605
0.0134968	0.446259
0.0256626	0.446259
0.136422	0.402721
0.25939	0.380952
0.462505	0.348299
1	0.304762
