Adsorption isotherm of N-Butane on Zeolite MEL
DOI: 10.1016/j.fluid.2007.06.030
Adsorbate N-Butane: InChIKey IJDNQMDRQITEOD-UHFFFAOYSA-N
Temperature: 300 K
Tabular data in the source: 0
pressure (bar)	uptake (mmol/g)
9.68e-07	0.00769231
9.53e-06	0.00769231
5e-05	0.0153846
0.000105136	0.0230769
0.000208901	0.0384615
0.000521327	0.0384615
0.00109718	0.0615385
0.00307418	0.0923077
0.0102245	0.123077
0.0287627	0.238462
0.101737	0.361538
