Adsorption isotherm of Methylene blue, Water on activated carbon from fuel oil
DOI: 10.1016/j.jece.2017.08.006
Article source: Figure 5
Adsorbate Methylene blue: InChIKey CXKWCBBOMKCUKX-UHFFFAOYSA-M
Adsorbate Water: InChIKey XLYOFNOQVPJJNP-UHFFFAOYSA-N
Kind: experiment
Temperature: 298 K
Tabular data in the source: 0
pressure (bar)	Methylene blue fraction	Methylene blue uptake (mg/g)	Water fraction	Water uptake (mg/g)	total uptake (mg/g)
1.01325	0.1438	20.047			
1.01325	0.4001	39.635			
1.01325	1.1832	58.869			
1.01325	6.8959	72.79			
1.01325	15.7692	84.586			
