Adsorption isotherm of Nitrogen on activated carbon from fuel oil
DOI: 10.1016/j.jece.2017.08.006
Article source: Figure 1
Adsorbate Nitrogen: InChIKey IJGRMHOSHXDMSA-UHFFFAOYSA-N
Kind: experiment
Temperature: 77 K
Tabular data in the source: 0
pressure (bar)	uptake (mmol/g)
0.012402	0.3362
0.061118	0.4684
0.079579	0.5011
0.103947	0.5263
0.122672	0.553
0.141396	0.5783
0.160881	0.5946
0.184479	0.6138
0.204743	0.6272
0.238849	0.6613
0.286045	0.7013
0.303736	0.7281
0.336058	0.7577
0.346059	0.7726
0.360163	0.8023
0.405819	0.829
0.459419	0.8898
0.546587	1.2733
0.555595	1.0085
0.747379	1.6862
0.75434	1.3754
0.850211	1.9908
0.852552	1.6592
0.917125	2.3223
0.917662	2.004
0.951747	2.349
0.956844	2.6835
0.976034	3.0939
0.977352	2.7296
0.985761	3.3348
0.988862	3.0894
0.990361	3.5222
0.997039	3.4076
1.00009	3.6411
