Adsorption isotherm of Methylene blue, Rhodamine 6G, Water on activated carbon from fuel oil
DOI: 10.1016/j.jece.2017.08.006
Article source: Figure 6
Adsorbate Methylene blue: InChIKey CXKWCBBOMKCUKX-UHFFFAOYSA-M
Adsorbate Rhodamine 6G: InChIKey VYXSBFYARXAAKO-UHFFFAOYSA-N
Adsorbate Water: InChIKey XLYOFNOQVPJJNP-UHFFFAOYSA-N
Kind: experiment
Temperature: 298 K
Tabular data in the source: 0
pressure (bar)	Methylene blue fraction	Methylene blue uptake (mg/g)	Rhodamine 6G fraction	Rhodamine 6G uptake (mg/g)	Water fraction	Water uptake (mg/g)	total uptake (mg/g)
1.01325	0.126	20.064					
1.01325	2.01	37.938					
1.01325	8.421	51.837					
1.01325	20.298	59.88					
1.01325	33.67	66.563					
