Adsorption isotherm of Rhodamine 6G, Water on activated carbon from fuel oil
DOI: 10.1016/j.jece.2017.08.006
Article source: Figure 5
Adsorbate Rhodamine 6G: InChIKey VYXSBFYARXAAKO-UHFFFAOYSA-N
Adsorbate Water: InChIKey XLYOFNOQVPJJNP-UHFFFAOYSA-N
Kind: experiment
Temperature: 298 K
Tabular data in the source: 0
pressure (bar)	Rhodamine 6G fraction	Rhodamine 6G uptake (mg/g)	Water fraction	Water uptake (mg/g)	total uptake (mg/g)
1.01325	0.0686	20.047			
1.01325	0.6636	39.281			
1.01325	5.6235	54.619			
1.01325	16.0774	64.172			
1.01325	28.2623	71.837			
