Adsorption isotherm of Au(III), Water on JNU-1
DOI: 10.1002/anie.202006535
Article source: Figure 4
Adsorbate Au(III): InChIKey CBMIPXHVOVTTTL-UHFFFAOYSA-N
Adsorbate Water: InChIKey XLYOFNOQVPJJNP-UHFFFAOYSA-N
Kind: experiment
Temperature: 328 K
Tabular data in the source: 0
pressure (bar)	Au(III) fraction	Au(III) uptake (mg/g)	Water fraction	Water uptake (mg/g)	total uptake (mg/g)
1.01325	13.21	59.7128			
1.01325	38.8045	153.439			
1.01325	52.0145	201.814			
1.01325	89.9934	305.367			
1.01325	317.867	588.813			
1.01325	744.716	753.59			
1.01325	1271.47	758.125			
