Adsorption isotherm of Au(III), Water on JNU-1
DOI: 10.1002/anie.202006535
Article source: Figure 4
Adsorbate Au(III): InChIKey CBMIPXHVOVTTTL-UHFFFAOYSA-N
Adsorbate Water: InChIKey XLYOFNOQVPJJNP-UHFFFAOYSA-N
Kind: experiment
Temperature: 318 K
Tabular data in the source: 0
pressure (bar)	Au(III) fraction	Au(III) uptake (mg/g)	Water fraction	Water uptake (mg/g)	total uptake (mg/g)
1.01325	14.8613	59.7128			
1.01325	44.5839	211.64			
1.01325	73.4808	315.949			
1.01325	274.108	632.653			
1.01325	677.84	823.885			
1.01325	1188.9	842.782			
