Adsorption isotherm of Au(III), Water on TzBA
DOI: 10.1002/anie.202006535
Article source: Figure S36
Adsorbate Au(III): InChIKey CBMIPXHVOVTTTL-UHFFFAOYSA-N
Adsorbate Water: InChIKey XLYOFNOQVPJJNP-UHFFFAOYSA-N
Kind: experiment
Temperature: 298 K
Tabular data in the source: 0
pressure (bar)	Au(III) fraction	Au(III) uptake (mg/g)	Water fraction	Water uptake (mg/g)	total uptake (mg/g)
1.01325	22.9326	50.1175			
1.01325	37.5261	152.858			
1.01325	80.2641	219.89			
1.01325	96.9423	289.428			
1.01325	378.388	486.139			
1.01325	877.693	528.113			
1.01325	1367.62	541.269			
