Adsorption isotherm of Au(III), Water on JNU-1
DOI: 10.1002/anie.202006535
Article source: Figure 4
Adsorbate Au(III): InChIKey CBMIPXHVOVTTTL-UHFFFAOYSA-N
Adsorbate Water: InChIKey XLYOFNOQVPJJNP-UHFFFAOYSA-N
Kind: experiment
Temperature: 298 K
Tabular data in the source: 0
pressure (bar)	Au(III) fraction	Au(III) uptake (mg/g)	Water fraction	Water uptake (mg/g)	total uptake (mg/g)
1.01325	9.90753	63.4921			
1.01325	18.9894	170.068			
1.01325	28.897	232.048			
1.01325	50.3633	341.648			
1.01325	196.499	708.239			
1.01325	594.452	908.541			
1.01325	1085.7	947.09			
