Adsorption isotherm of Au(III), Water on TzTaCl
DOI: 10.1002/anie.202006535
Article source: Figure S27
Adsorbate Au(III): InChIKey CBMIPXHVOVTTTL-UHFFFAOYSA-N
Adsorbate Water: InChIKey XLYOFNOQVPJJNP-UHFFFAOYSA-N
Kind: experiment
Temperature: 298 K
Tabular data in the source: 0
pressure (bar)	Au(III) fraction	Au(III) uptake (mg/g)	Water fraction	Water uptake (mg/g)	total uptake (mg/g)
1.01325	24.9833	27.4232			
1.01325	47.968	53.9007			
1.01325	121.919	79.7478			
1.01325	376.749	123.404			
1.01325	847.435	153.191			
1.01325	1341.11	160.441			
