Adsorption isotherm of Nitrogen on TzBA
DOI: 10.1002/anie.202006535
Article source: Figure S20
Adsorbate Nitrogen: InChIKey IJGRMHOSHXDMSA-UHFFFAOYSA-N
Kind: experiment
Temperature: 77 K
Tabular data in the source: 0
pressure (bar)	uptake (cm3(STP)/g)
0.003729	0
0.012118	4.36681
0.027965	7.86026
0.153805	19.214
0.205074	24.4541
0.256342	28.3843
0.305746	32.3144
0.357014	36.2445
0.405486	39.738
0.457687	44.5415
0.508023	47.5983
0.559292	52.8384
0.609628	55.4585
0.661828	60.262
0.713097	63.3188
0.735468	66.3755
0.762501	69.869
0.788601	71.6157
0.813769	72.9258
0.83987	76.8559
0.863173	79.0393
0.889274	82.9694
0.91351	86.8996
0.936813	94.3231
0.966642	106.987
0.99181	131.004
1.00859	234.498
1.00849	234.298
0.990145	138.521
0.96587	109.207
0.938358	98.8456
0.913544	93.7914
0.88819	88.4846
0.862297	85.9575
0.836404	83.1777
0.813208	80.3979
0.787315	77.8708
0.76358	75.5964
0.735529	73.0693
0.710715	70.7949
0.661086	66.7516
0.6093	62.7082
0.559132	58.9176
0.507885	54.1161
0.458257	50.0728
0.40647	46.0294
0.355763	41.4807
0.305056	36.9319
0.254348	31.8777
0.203101	27.8344
0.152933	22.5275
0.102226	17.726
0.052598	12.9246
