Adsorption isotherm of Nitrogen on JNU-1
DOI: 10.1002/anie.202006535
Article source: Figure S20
Adsorbate Nitrogen: InChIKey IJGRMHOSHXDMSA-UHFFFAOYSA-N
Kind: experiment
Temperature: 77 K
Tabular data in the source: 0
pressure (bar)	uptake (cm3(STP)/g)
-0.003729	1.74672
0.000932	6.55022
0.007457	12.2271
0.0261	17.4672
0.051268	23.5808
0.102537	32.3144
0.152873	41.048
0.204141	48.9083
0.254478	57.2052
0.356082	71.179
0.406419	78.6026
0.458619	85.1528
0.507091	92.1397
0.558359	99.5633
0.609628	106.55
0.659964	113.974
0.712165	121.834
0.737333	126.201
0.762501	130.568
0.786737	137.118
0.812837	142.358
0.837073	147.598
0.865038	154.585
0.885545	160.699
0.915374	168.559
0.940542	184.279
0.966642	209.17
0.99181	255.022
1.00952	383.843
1.00859	380.349
0.989946	290.83
0.96571	219.214
0.940542	193.45
0.91351	179.476
0.886477	171.616
0.863173	166.376
0.838005	159.825
0.813769	153.712
0.788601	150.218
0.761569	145.852
0.736401	141.921
0.711233	137.555
0.660896	130.568
0.61056	122.707
0.560224	113.974
0.508955	106.114
0.457687	99.5633
0.408283	91.2664
0.356082	82.9694
0.305746	74.2358
0.254478	66.3755
0.204141	57.6419
0.153805	48.0349
0.103469	37.9913
0.051268	27.5109
