Adsorption isotherm of Au(III), Water on JNU-1
DOI: 10.1002/anie.202006535
Article source: Figure 4
Adsorbate Au(III): InChIKey CBMIPXHVOVTTTL-UHFFFAOYSA-N
Adsorbate Water: InChIKey XLYOFNOQVPJJNP-UHFFFAOYSA-N
Kind: experiment
Temperature: 308 K
Tabular data in the source: 0
pressure (bar)	Au(III) fraction	Au(III) uptake (mg/g)	Water fraction	Water uptake (mg/g)	total uptake (mg/g)
1.01325	6.60502	61.9803			
1.01325	18.9894	168.556			
1.01325	28.897	228.269			
1.01325	53.6658	339.38			
1.01325	232.827	670.446			
1.01325	643.989	857.899			
1.01325	1145.97	888.133			
