Adsorption isotherm of Nitrogen on TzTaCl
DOI: 10.1002/anie.202006535
Article source: Figure S20
Adsorbate Nitrogen: InChIKey IJGRMHOSHXDMSA-UHFFFAOYSA-N
Kind: experiment
Temperature: 77 K
Tabular data in the source: 0
pressure (bar)	uptake (cm3(STP)/g)
0.00189	0.03639
0.011061	6.60682
0.050979	10.1448
0.101687	9.13392
0.153473	10.3975
0.202562	12.1664
0.253809	12.9246
0.305056	14.1881
0.356302	15.7044
0.40701	16.9679
0.457178	17.726
0.507885	18.7369
0.558593	19.495
0.6093	21.0112
0.660007	22.5275
0.710715	24.2965
0.760883	25.3073
0.812129	28.0871
0.862837	31.3723
0.913544	38.1955
0.96533	56.8959
0.968028	78.1235
1.00849	240.868
1.00902	241.374
0.964791	77.1126
0.913544	44.5132
0.862297	36.9319
0.812669	32.3831
0.760343	28.8452
0.710715	26.8235
0.661086	25.8127
0.6093	25.0546
0.559132	22.7802
0.508425	21.7694
0.456638	20.2531
0.40647	19.2423
0.354145	17.4733
0.253809	15.9571
0.203101	14.6935
0.154012	12.9246
0.102226	11.661
0.050979	9.13392
0.00189	3.82703
