Adsorption isotherm of Nitrogen on Zn4O(Me4BPDC)3-X(TPDC)X
DOI: 10.1021/Cg200271e
Adsorbate Nitrogen: InChIKey IJGRMHOSHXDMSA-UHFFFAOYSA-N
Temperature: 77 K
Tabular data in the source: 0
pressure (bar)	uptake (cm3(STP)/g)
0.0462881	519.68
0.0521703	532.48
0.0654444	540.16
0.0757656	547.84
0.0860914	552.96
0.096422	555.52
0.130367	563.2
0.17021	574.72
0.213021	578.56
0.254358	581.12
0.297168	584.96
0.345882	590.08
0.397554	592.64
0.446273	595.2
0.496469	597.76
0.545187	600.32
0.593909	601.6
0.642628	604.16
0.692825	605.44
0.743023	606.72
0.791745	608
0.837515	608
0.887713	609.28
0.964485	611.84
