Adsorption isotherm of Nitrogen on Zn4O(Me4BPDC)3-X(TPDC)X
DOI: 10.1021/Cg200271e
Adsorbate Nitrogen: InChIKey IJGRMHOSHXDMSA-UHFFFAOYSA-N
Temperature: 77 K
Tabular data in the source: 0
pressure (bar)	uptake (cm3(STP)/g)
0.0534602	633.6
0.0652483	646.4
0.0829471	656.64
0.0962189	665.6
0.124253	675.84
0.165575	686.08
0.206902	693.76
0.248232	700.16
0.342707	710.4
0.391424	714.24
0.441617	718.08
0.488857	721.92
0.542005	724.48
0.592201	727.04
0.64092	729.6
0.69112	729.6
0.741315	732.16
0.78856	733.44
0.83876	733.44
0.888958	734.72
0.965737	733.44
