Adsorption isotherm of Nitrogen on Zn4O(Me4BPDC)3-X(TPDC)X
DOI: 10.1021/Cg200271e
Adsorbate Nitrogen: InChIKey IJGRMHOSHXDMSA-UHFFFAOYSA-N
Temperature: 77 K
Tabular data in the source: 0
pressure (bar)	uptake (cm3(STP)/g)
0.021462	371.2
0.0273514	380.16
0.0347196	387.84
0.0480008	391.68
0.0568502	396.8
0.0686596	398.08
0.0819431	400.64
0.0907973	403.2
0.101133	403.2
0.133608	407.04
0.17494	412.16
0.216279	413.44
0.259094	414.72
0.300431	417.28
0.349154	417.28
0.399352	418.56
0.449547	421.12
0.499745	422.4
0.548469	422.4
0.595716	422.4
0.647395	421.12
0.696119	421.12
0.746321	419.84
0.795042	421.12
0.843771	418.56
0.892494	418.56
0.967797	417.28
