Adsorption isotherm of Nitrogen on Zn4O(Me4BPDC)3-X(TPDC)X
DOI: 10.1021/Cg200271e
Adsorbate Nitrogen: InChIKey IJGRMHOSHXDMSA-UHFFFAOYSA-N
Temperature: 77 K
Tabular data in the source: 0
pressure (bar)	uptake (cm3(STP)/g)
0.0273018	407.04
0.0361488	413.44
0.0449982	418.56
0.0568006	423.68
0.0730323	428.8
0.0804076	432.64
0.0877876	433.92
0.101076	433.92
0.130594	440.32
0.170451	444.16
0.211785	448
0.248683	455.68
0.291491	460.8
0.343161	464.64
0.390403	467.2
0.442078	468.48
0.490799	469.76
0.540997	471.04
0.588241	472.32
0.636967	471.04
0.687165	472.32
0.737368	471.04
0.784613	472.32
0.836292	471.04
0.885015	471.04
0.970651	471.04
