Adsorption isotherm of Nitrogen on Zn4O(Me4BPDC)3-X(TPDC)X
DOI: 10.1021/Cg200271e
Adsorbate Nitrogen: InChIKey IJGRMHOSHXDMSA-UHFFFAOYSA-N
Temperature: 77 K
Tabular data in the source: 0
pressure (bar)	uptake (cm3(STP)/g)
0.0449675	435.2
0.0552745	450.56
0.0656003	455.68
0.0759238	462.08
0.0877309	464.64
0.0995403	465.92
0.129058	472.32
0.173343	477.44
0.216156	480
0.254537	483.84
0.298829	485.12
0.349027	486.4
0.397746	488.96
0.44942	490.24
0.496662	492.8
0.546865	491.52
0.597065	491.52
0.647263	492.8
0.695984	494.08
0.74471	492.8
0.794905	495.36
0.840678	494.08
0.890876	495.36
0.966179	494.08
