Adsorption isotherm of Nitrogen on Zn4O(Me4BPDC)3-X(TPDC)X
DOI: 10.1021/Cg200271e
Adsorbate Nitrogen: InChIKey IJGRMHOSHXDMSA-UHFFFAOYSA-N
Temperature: 77 K
Tabular data in the source: 0
pressure (bar)	uptake (cm3(STP)/g)
0.0359244	535.04
0.046203	565.76
0.0756711	599.04
0.0963252	608
0.124355	620.8
0.170111	628.48
0.208483	637.44
0.249817	641.28
0.291147	647.68
0.341335	654.08
0.390051	657.92
0.440247	660.48
0.488963	664.32
0.537678	669.44
0.587875	670.72
0.635115	674.56
0.683834	677.12
0.73403	679.68
0.781275	680.96
0.832949	682.24
0.883142	686.08
