Adsorption isotherm of Nitrogen on Zn4O(Me4BPDC)3-X(TPDC)X
DOI: 10.1021/Cg200271e
Adsorbate Nitrogen: InChIKey IJGRMHOSHXDMSA-UHFFFAOYSA-N
Temperature: 77 K
Tabular data in the source: 0
pressure (bar)	uptake (cm3(STP)/g)
0.0432713	554.24
0.0550335	581.12
0.0668288	590.08
0.0727276	593.92
0.0845252	601.6
0.0948558	604.16
0.125843	614.4
0.165689	624.64
0.208495	631.04
0.248352	634.88
0.291163	638.72
0.341354	643.84
0.390075	645.12
0.440268	648.96
0.490463	651.52
0.537706	654.08
0.587904	655.36
0.638099	657.92
0.683867	659.2
0.735544	659.2
0.784263	661.76
0.832987	661.76
0.881708	663.04
0.959959	664.32
