Adsorption isotherm of Nitrogen on Zn4O(Me4BPDC)3-X(TPDC)X
DOI: 10.1021/Cg200271e
Adsorbate Nitrogen: InChIKey IJGRMHOSHXDMSA-UHFFFAOYSA-N
Temperature: 77 K
Tabular data in the source: 0
pressure (bar)	uptake (cm3(STP)/g)
0.037578	439.04
0.0464085	454.4
0.0567273	463.36
0.0655767	468.48
0.0759049	472.32
0.0877097	476.16
0.0995167	478.72
0.129032	486.4
0.170364	491.52
0.213175	495.36
0.253035	497.92
0.540926	509.44
0.589649	509.44
0.636894	510.72
0.687094	510.72
0.734339	512
0.784537	513.28
0.834735	514.56
0.880505	514.56
0.970568	515.84
