Adsorption isotherm of Nitrogen on Zn4O(Me4BPDC)3-X(TPDC)X
DOI: 10.1021/Cg200271e
Adsorbate Nitrogen: InChIKey IJGRMHOSHXDMSA-UHFFFAOYSA-N
Temperature: 77 K
Tabular data in the source: 0
pressure (bar)	uptake (cm3(STP)/g)
0.0345944	455.68
0.0434036	482.56
0.0581447	495.36
0.0640388	501.76
0.0743623	508.16
0.0861647	513.28
0.0979717	515.84
0.131919	522.24
0.174725	528.64
0.217531	535.04
0.255912	538.88
0.300204	540.16
0.34892	544
0.397639	546.56
0.447837	547.84
0.498032	550.4
0.548228	552.96
0.59547	555.52
0.645668	556.8
0.692913	558.08
0.743113	558.08
0.794785	560.64
0.84203	561.92
0.892227	563.2
0.966046	565.76
