Adsorption isotherm of Nitrogen on Zn4O(Me4BPDC)3-X(TPDC)X
DOI: 10.1021/Cg200271e
Adsorbate Nitrogen: InChIKey IJGRMHOSHXDMSA-UHFFFAOYSA-N
Temperature: 77 K
Tabular data in the source: 0
pressure (bar)	uptake (cm3(STP)/g)
0.0461227	609.28
0.0564297	624.64
0.0637955	633.6
0.0755931	641.28
0.0859213	645.12
0.0962496	648.96
0.124284	659.2
0.165606	669.44
0.206936	675.84
0.249741	682.24
0.338316	689.92
0.389985	693.76
0.441657	696.32
0.490376	698.88
0.539093	702.72
0.587814	704
0.638012	705.28
0.685254	707.84
0.732497	710.4
0.782694	711.68
0.834369	712.96
0.881611	715.52
0.970195	718.08
