Adsorption isotherm of Nitrogen on Zn4O(Me4BPDC)3-X(TPDC)X
DOI: 10.1021/Cg200271e
Adsorbate Nitrogen: InChIKey IJGRMHOSHXDMSA-UHFFFAOYSA-N
Temperature: 77 K
Tabular data in the source: 0
pressure (bar)	uptake (cm3(STP)/g)
0.0446273	619.52
0.0549225	641.28
0.0667059	656.64
0.0785012	665.6
0.0932494	674.56
0.124229	688.64
0.165554	697.6
0.209834	705.28
0.249687	711.68
0.291017	718.08
0.342686	721.92
0.391403	725.76
0.443067	732.16
0.49326	736
0.544932	738.56
0.592177	739.84
0.642373	742.4
0.691094	743.68
0.73981	747.52
0.791487	747.52
0.838729	750.08
0.887451	751.36
0.962756	748.8
