Adsorption isotherm of Nitrogen on TABTA-COF-2
DOI: 10.1039/c9cc07500c
Article source: Figure 3b
Adsorbate Nitrogen: InChIKey IJGRMHOSHXDMSA-UHFFFAOYSA-N
Kind: experiment
Temperature: 77 K
Tabular data in the source: 0
pressure (bar)	uptake (cm3(STP)/g)
0.011941	72.02
0.01143	33.0824
0.026866	75.8608
0.028408	41.9629
0.03804	48.2412
0.040123	81.7004
0.052511	54.0103
0.056806	87.6118
0.069114	59.1366
0.072685	94.2627
0.086123	65.6019
0.092291	100.346
0.105524	71.2656
0.111694	107.081
0.124056	114.01
0.122911	78.1792
0.135147	119.404
0.139652	89.414
0.150474	123.5
0.164565	94.1313
0.174718	124.762
0.191103	97.4535
0.199945	126.5
0.217652	101.761
0.224859	127.993
0.243187	104.728
0.251778	129.996
0.269533	106.849
0.276692	130.271
0.294734	108.761
0.303325	131.201
0.321367	110.767
0.329099	131.921
0.346281	112.04
0.354872	132.515
0.372054	113.694
0.380646	132.973
0.398973	115.259
0.405638	133.385
0.422456	116.904
0.432193	133.573
0.449375	118.279
0.457966	134.086
0.475148	119.44
0.48374	135.37
0.501781	121.109
0.509513	135.293
0.526695	122.603
0.535287	135.255
0.552469	123.503
0.56106	136.612
0.579023	124.801
0.586834	136.208
0.604016	125.95
0.612607	136.403
0.629789	126.956
0.638381	136.849
0.655563	128.755
0.664154	136.093
0.681336	129.336
0.689928	136.739
0.709258	131.625
0.715701	135.075
0.732623	132.09
0.749247	135.715
0.772975	133.87
0.800794	136.817
0.823849	135.227
0.852118	137.951
0.874924	138.196
0.901843	141.059
0.923321	141.654
