Adsorption isotherm of Nitrogen on TFPB-TAPB-COF
DOI: 10.1039/c9cc07500c
Article source: Figure S15b
Adsorbate Nitrogen: InChIKey IJGRMHOSHXDMSA-UHFFFAOYSA-N
Kind: experiment
Temperature: 77 K
Tabular data in the source: 0
pressure (bar)	uptake (cm3(STP)/g)
0.002193	17.4676
0.008308	71.1548
0.004868	62.5628
0.004333	53.8193
0.013786	81.1978
0.018244	134.352
0.015569	88.6607
0.028945	143.886
0.028945	97.953
0.039646	106.545
0.044996	150.704
0.049436	111.306
0.061811	157.605
0.072639	121.842
0.099425	165.329
0.093149	128.006
0.121705	167.964
0.119901	133.305
0.141302	169.657
0.146652	138.075
0.157322	171.073
0.173404	141.678
0.193022	173.225
0.200155	144.857
0.22334	174.815
0.226907	147.825
0.248308	176.157
0.253659	150.368
0.27506	176.722
0.28041	153.018
0.301812	177.606
0.307162	155.138
0.328563	179.195
0.333914	157.363
0.355315	180.043
0.360665	159.059
0.382067	180.467
0.387417	160.649
0.408818	180.573
0.414169	162.874
0.43557	181.916
0.44092	164.57
0.462322	182.799
0.467672	166.054
0.489073	182.975
0.494424	167.749
0.521175	169.445
0.542577	185.342
0.547927	171.035
0.569328	185.625
0.574679	172.307
0.59608	186.296
0.60143	173.578
0.622832	186.826
0.628182	174.85
0.649583	186.932
0.654934	176.334
0.676335	187.356
0.681685	177.606
0.703087	187.674
0.708437	178.877
0.75659	188.522
0.76194	180.997
0.810093	188.274
0.817227	184.088
0.867758	187.011
0.92245	191.277
0.941176	192.92
0.003577	44.8184
0.001789	31.7095
0.059024	117.095
0.032195	101.151
0.854958	190.434
0.905039	191.851
0.082276	162.799
0.07065	159.965
0.052764	153.056
0.034878	146.501
0.024146	140.833
0.020569	137.998
0.177073	172.188
0.502601	183.88
0.520487	184.765
