Adsorption isotherm of Nitrogen on TABTA-COF-1
DOI: 10.1039/c9cc07500c
Article source: Figure 3a
Adsorbate Nitrogen: InChIKey IJGRMHOSHXDMSA-UHFFFAOYSA-N
Kind: experiment
Temperature: 77 K
Tabular data in the source: 0
pressure (bar)	uptake (cm3(STP)/g)
0.007268	20.3085
0.021435	26.7186
0.043632	32.3122
0.06499	37.4981
0.089569	43.4587
0.115246	49.5095
0.134451	53.2692
0.174528	60.5788
0.192784	64.3329
0.213886	68.126
0.23592	71.7809
0.263758	78.658
0.286732	82.8709
0.315121	87.6029
0.337416	90.9949
0.364307	94.4479
0.392659	97.6926
0.416119	100.695
0.4408	103.314
0.467168	105.242
0.493601	107.35
0.519926	109.467
0.544862	111.588
0.571447	112.777
0.596554	115.175
0.621721	116.573
0.648089	118.691
0.673413	120.405
0.699781	121.952
0.725105	123.19
0.764193	126.199
0.815136	128.952
0.862733	131.617
0.911905	136.652
0.957494	143.961
0.97523	150.511
0.993519	161.93
1.00654	179.074
0.940197	140.83
0.926915	138.408
0.153695	56.7474
0.100566	46.0208
0.13891	91.9771
0.160348	95.6006
0.181227	98.5996
0.200125	101.646
0.22102	105.984
0.246527	111.398
0.269016	115.271
0.298219	118.868
0.321587	121.432
0.349687	123.524
0.373705	125.456
0.399772	126.804
0.424248	128.465
0.450094	128.596
0.477217	129.233
0.50183	134.354
0.525387	135.252
0.552903	136.369
0.577601	137.907
0.603446	137.569
0.629292	137.251
0.655138	137.671
0.680984	138.767
0.70683	139.986
0.750702	141.685
0.810214	143.781
0.861905	144.641
0.913597	148.231
0.939443	152.83
0.956314	156.396
0.978451	167.757
0.989699	180.505
0.014231	60.8997
0.014231	64.7059
0.021821	68.1661
0.031308	70.9343
0.038898	74.0484
0.05218	76.8166
0.063565	79.5848
0.081591	82.1799
0.098669	84.6021
0.120489	88.7543
