Adsorption isotherm of Carbon Dioxide on TABTA-COF-2
DOI: 10.1039/c9cc07500c
Article source: Figure S6b
Adsorbate Carbon Dioxide: InChIKey CURLTUGMZLYLDI-UHFFFAOYSA-N
Kind: experiment
Temperature: 195 K
Tabular data in the source: 0
pressure (bar)	uptake (cm3(STP)/g)
0.006504	8.18667
0.021555	25.5366
0.00029	15.8212
0.043786	39.3113
0.065016	48.3204
0.078562	56.9787
0.10661	65.2635
0.197226	82.799
0.239945	92.9088
0.578848	137.842
0.65926	148.951
0.757765	158.502
0.886424	169.649
1.01173	178.213
1.13704	183.298
1.194	184.568
0.972581	179.284
0.837097	171.412
0.716129	162.823
0.621774	151.73
0.529839	142.425
0.447581	134.195
0.367742	124.175
0.326613	119.523
0.278226	111.65
0.241935	103.777
0.205645	96.9781
0.179032	92.6839
0.159677	85.169
0.128226	80.5169
0.108871	74.0755
0.101613	69.7813
0.075	64.7714
0.070161	59.7614
0.061694	55.8251
0.052016	50.8151
0.053226	48.3101
0.045968	43.6581
0.03871	40.0795
0.029032	35.7853
0.014516	29.3439
0.220161	88.7475
0.157258	76.5805
0.128226	69.4235
0.091935	60.835
0.072581	52.0676
0.026613	31.1332
0.019355	22.1869
0.014516	18.9662
0.009677	15.3877
0.009677	11.8091
0.002419	4.29424
0.304839	101.63
0.350806	107.714
0.401613	116.302
0.469355	125.606
