Adsorption isotherm of Carbon Dioxide on TABTA-COF-1
DOI: 10.1039/c9cc07500c
Article source: Figure S6a
Adsorbate Carbon Dioxide: InChIKey CURLTUGMZLYLDI-UHFFFAOYSA-N
Kind: experiment
Temperature: 195 K
Tabular data in the source: 0
pressure (bar)	uptake (cm3(STP)/g)
0.000582	6.48213
0.005853	11.963
0.015265	17.1844
0.033261	23.0143
0.058556	28.6823
0.081715	34.1726
0.116695	40.0818
0.155659	58.198
0.393256	86.7345
0.467047	91.3876
0.55138	96.2651
0.643618	100.896
0.738493	105.092
1.01521	116.882
1.1259	125.768
0.878731	111.298
0.350373	83.2229
0.292164	77.2068
0.257463	69.6867
0.210448	59.4091
0.182463	52.641
0.153358	47.8782
0.135448	44.1182
0.098507	37.0994
0.068284	31.7099
0.048134	26.0698
0.026866	20.1791
0.01903	17.171
0.012313	14.7896
0.005597	9.52551
0.001119	5.01343
0.979478	124.333
0.829478	120.322
0.706343	116.061
0.610075	113.303
0.520522	109.042
0.446642	105.031
0.383955	100.77
0.332463	96.0072
0.278731	88.7377
0.238433	81.3429
0.209328	70.94
0.171269	62.1665
0.13097	53.393
0.108582	47.3769
0.099627	43.8675
0.088433	41.3608
0.079478	38.6034
0.070522	36.0967
0.063806	34.0913
0.050373	30.5819
0.039179	27.3232
0.032463	25.0671
0.021269	22.5604
0.016791	19.427
