Adsorption isotherm of O-Chlorotoluene, P-Chlorotoluene on Ca-X zeolite
DOI: 10.1016/0009-2509(87)87021-5
Article source: Figure 1
Adsorbate O-Chlorotoluene: InChIKey IBSQPLPBRSHTTG-UHFFFAOYSA-N
Adsorbate P-Chlorotoluene: InChIKey NPDACUSDTOMAMK-UHFFFAOYSA-N
Kind: experiment
Temperature: 503 K
Tabular data in the source: 0
pressure (bar)	O-Chlorotoluene fraction	O-Chlorotoluene uptake (mmol/g)	P-Chlorotoluene fraction	P-Chlorotoluene uptake (mmol/g)	total uptake (mmol/g)
1.01325	0.103	0.206	0.897	1.18	
1.01325	0.303	0.547	0.697	0.809	
1.01325	0.502	0.867	0.498	0.536	
1.01325	0.701	1.11	0.299	0.294	
1.01325	0.897	1.32	0.103	0.0863	
