Adsorption isotherm of O-Chlorotoluene, Toluene on Ca-X zeolite
DOI: 10.1016/0009-2509(87)87021-5
Article source: Figure 2
Adsorbate O-Chlorotoluene: InChIKey IBSQPLPBRSHTTG-UHFFFAOYSA-N
Adsorbate Toluene: InChIKey YXFVVABEGXRONW-UHFFFAOYSA-N
Kind: experiment
Temperature: 503 K
Tabular data in the source: 0
pressure (bar)	O-Chlorotoluene fraction	O-Chlorotoluene uptake (mmol/g)	Toluene fraction	Toluene uptake (mmol/g)	total uptake (mmol/g)
1.01325	0.896	1.06	0.104	0.334	
1.01325	0.679	0.695	0.321	0.708	
1.01325	0.476	0.475	0.524	0.932	
1.01325	0.282	0.264	0.718	1.14	
1.01325	0.097	0.0923	0.903	1.32	
