Adsorption isotherm of Chlorobenzene, Toluene on Ca-X zeolite
DOI: 10.1016/0009-2509(87)87021-5
Article source: Figure 6
Adsorbate Chlorobenzene: InChIKey MVPPADPHJFYWMZ-UHFFFAOYSA-N
Adsorbate Toluene: InChIKey YXFVVABEGXRONW-UHFFFAOYSA-N
Kind: experiment
Temperature: 503 K
Tabular data in the source: 0
pressure (bar)	Chlorobenzene fraction	Chlorobenzene uptake (mmol/g)	Toluene fraction	Toluene uptake (mmol/g)	total uptake (mmol/g)
1.01325	0.9076	0.901	0.0924	0.539	
1.01325	0.859	0.768	0.141	0.662	
1.01325	0.701	0.512	0.299	0.905	
1.01325	0.499	0.305	0.501	1.1	
1.01325	0.301	0.163	0.699	1.27	
1.01325	0.104	0.053	0.896	1.36	
