Adsorption isotherm of O-Chlorotoluene, Chlorobenzene on Ca-X zeolite
DOI: 10.1016/0009-2509(87)87021-5
Article source: Figure 4
Adsorbate O-Chlorotoluene: InChIKey IBSQPLPBRSHTTG-UHFFFAOYSA-N
Adsorbate Chlorobenzene: InChIKey MVPPADPHJFYWMZ-UHFFFAOYSA-N
Kind: experiment
Temperature: 503 K
Tabular data in the source: 0
pressure (bar)	O-Chlorotoluene fraction	O-Chlorotoluene uptake (mmol/g)	Chlorobenzene fraction	Chlorobenzene uptake (mmol/g)	total uptake (mmol/g)
1.01325	0.0904	0.33	0.9096	1.11	
1.01325	0.295	0.749	0.705	0.687	
1.01325	0.494	0.991	0.506	0.424	
1.01325	0.7	1.19	0.3	0.227	
1.01325	0.895	1.36	0.105	0.0743	
