Adsorption isotherm of Chlorobenzene, P-Chlorotoluene on Ca-X zeolite
DOI: 10.1016/0009-2509(87)87021-5
Article source: Figure 5
Adsorbate Chlorobenzene: InChIKey MVPPADPHJFYWMZ-UHFFFAOYSA-N
Adsorbate P-Chlorotoluene: InChIKey NPDACUSDTOMAMK-UHFFFAOYSA-N
Kind: experiment
Temperature: 503 K
Tabular data in the source: 0
pressure (bar)	Chlorobenzene fraction	Chlorobenzene uptake (mmol/g)	P-Chlorotoluene fraction	P-Chlorotoluene uptake (mmol/g)	total uptake (mmol/g)
1.01325	0.9029	1.22	0.0971	0.219	
1.01325	0.707	0.86	0.293	0.553	
1.01325	0.497	0.57	0.503	0.816	
1.01325	0.302	0.325	0.698	1.02	
1.01325	0.101	0.127	0.899	1.25	
