Adsorption isotherm of P-Chlorotoluene, Toluene on Ca-X zeolite
DOI: 10.1016/0009-2509(87)87021-5
Article source: Figure 3
Adsorbate P-Chlorotoluene: InChIKey NPDACUSDTOMAMK-UHFFFAOYSA-N
Adsorbate Toluene: InChIKey YXFVVABEGXRONW-UHFFFAOYSA-N
Kind: experiment
Temperature: 503 K
Tabular data in the source: 0
pressure (bar)	P-Chlorotoluene fraction	P-Chlorotoluene uptake (mmol/g)	Toluene fraction	Toluene uptake (mmol/g)	total uptake (mmol/g)
1.01325	0.9006	0.905	0.0994	0.448	
1.01325	0.677	0.584	0.323	0.78	
1.01325	0.474	0.398	0.526	0.976	
1.01325	0.284	0.238	0.716	1.15	
1.01325	0.082	0.0779	0.918	1.3	
