Adsorption isotherm of Carbon Dioxide on Zn-DDQ
DOI: 10.1021/Ic5009895
Adsorbate Carbon Dioxide: InChIKey CURLTUGMZLYLDI-UHFFFAOYSA-N
Temperature: 273 K
Tabular data in the source: 0
pressure (bar)	uptake (cm3(STP)/g)
0.00471168	14.3671
0.00478078	20.4445
0.00935424	22.6568
0.0139341	25.4216
0.0321651	28.7459
0.0617607	31.5237
0.107269	33.7572
0.1414	35.4324
0.159607	36.5468
0.191458	37.6682
0.221034	38.7885
0.250611	39.9088
0.280181	40.4766
0.314306	41.5993
0.346164	43.2732
0.375741	44.3935
0.405317	45.5138
0.439443	46.6365
0.469019	47.7568
0.498596	48.8771
0.528179	50.5498
0.562304	51.6725
0.594155	52.794
0.626013	54.4679
0.657863	55.5894
0.689721	57.2634
0.719297	58.3836
0.748874	59.5039
0.780725	60.6254
0.814862	62.853
0.844439	63.9733
0.876296	65.6473
0.903611	67.8714
0.940011	68.9952
0.969607	71.773
1.00373	72.3431
1.03104	74.5672
1.06517	76.2424
