Adsorption isotherm of Nitrogen on Zn-DDQ
DOI: 10.1021/Ic5009895
Adsorbate Nitrogen: InChIKey IJGRMHOSHXDMSA-UHFFFAOYSA-N
Temperature: 77 K
Tabular data in the source: 0
pressure (bar)	uptake (cm3(STP)/g)
0.0466883	29.6897
0.0841014	30.4414
0.117777	31.1938
0.147708	31.7951
0.185111	32.3954
0.21876	32.6932
0.252417	33.1425
0.284197	33.4405
0.317845	33.7383
0.351483	33.8846
0.385122	34.0308
0.422498	34.1765
0.450532	34.3237
0.49169	35.2263
0.523451	35.2214
0.557072	35.0646
0.590719	35.3624
0.626217	35.3569
0.656109	35.3522
0.695343	35.3461
0.728972	35.3409
0.758884	35.6392
0.796268	35.9364
0.828058	36.386
0.861734	37.1383
0.893571	38.3455
0.931079	40.6124
0.948138	44.5491
0.967075	48.6371
