Adsorption isotherm of Carbon Dioxide on Zn-DDQ
DOI: 10.1021/Ic5009895
Adsorbate Carbon Dioxide: InChIKey CURLTUGMZLYLDI-UHFFFAOYSA-N
Temperature: 273 K
Tabular data in the source: 0
pressure (bar)	uptake (cm3(STP)/g)
0.00263225	31.4931
0.00720573	33.7054
0.0163149	34.8151
0.0345522	38.6919
0.0664284	42.0234
0.0937372	43.695
0.127869	45.3701
0.159726	47.0441
0.189303	48.1644
0.221154	49.2858
0.248462	50.9574
0.280308	51.5264
0.314431	52.6491
0.344002	53.2169
0.375853	54.3383
0.40771	56.0123
0.437275	56.0276
0.469125	57.1491
0.500977	58.2706
0.532822	58.8395
0.562398	59.9598
0.59425	61.0813
0.62838	62.7564
0.655677	63.3231
0.687527	64.4445
0.717105	65.5648
0.748956	66.6863
0.783081	67.8089
0.812651	68.3768
0.842221	68.9446
0.874072	70.066
0.905923	71.1875
0.9355	72.3078
0.949145	72.3149
0.98099	72.8838
1.01285	74.5578
