Adsorption isotherm of Carbon Dioxide on Cu-DDQ
DOI: 10.1021/Ic5009895
Adsorbate Carbon Dioxide: InChIKey CURLTUGMZLYLDI-UHFFFAOYSA-N
Temperature: 273 K
Tabular data in the source: 0
pressure (bar)	uptake (cm3(STP)/g)
0.00567285	98.898
0.0125833	106.636
0.0171945	112.164
0.0241112	120.454
0.0378442	128.196
0.069758	134.843
0.0971045	139.829
0.131255	143.162
0.160844	145.387
0.190434	147.612
0.224564	149.288
0.254148	150.96
0.288279	152.636
0.320136	154.309
0.345158	154.875
0.379283	155.998
0.408861	157.118
0.442985	158.241
0.472562	159.361
0.504413	160.482
0.536264	161.604
0.568115	162.725
0.597692	163.846
0.631811	164.416
0.661387	165.536
0.690965	166.656
0.722815	167.778
0.754666	168.899
0.78651	169.468
0.818362	170.59
0.845664	171.709
0.879784	172.279
0.911634	173.4
0.941211	174.521
0.952582	174.527
0.984432	175.648
1.01628	176.77
