Adsorption isotherm of Nitrogen on Cu-DDQ
DOI: 10.1021/Ic5009895
Adsorbate Nitrogen: InChIKey IJGRMHOSHXDMSA-UHFFFAOYSA-N
Temperature: 77 K
Tabular data in the source: 0
pressure (bar)	uptake (cm3(STP)/g)
0.0076147	2.27154
0.0188433	2.57282
0.0300719	2.8741
0.0768169	3.47287
0.123534	3.6171
0.284197	3.44053
0.3253	3.43412
0.353333	3.58126
0.385047	2.81874
0.422403	2.6614
0.454164	2.65644
0.487793	2.6512
0.519545	2.49473
0.556902	2.33739
0.586784	2.18121
0.622272	2.02416
0.657761	1.86711
0.689502	1.55913
0.723141	1.7054
0.760498	1.54806
0.794118	1.3913
0.825897	1.68938
0.861414	1.98687
0.896949	2.58739
0.930663	3.94577
0.94759	5.76131
0.962669	7.88017
0.966642	11.6674
