Adsorption isotherm of Nitrogen on Pb-DDQ
DOI: 10.1021/Ic5009895
Adsorbate Nitrogen: InChIKey IJGRMHOSHXDMSA-UHFFFAOYSA-N
Temperature: 77 K
Tabular data in the source: 0
pressure (bar)	uptake (cm3(STP)/g)
0.00752034	0.756403
0.01873	0.754655
0.0280715	0.753198
0.0467922	1.35634
0.0804308	1.50261
0.12158	2.25377
0.155228	2.55155
0.185149	3.00143
0.216901	2.84496
0.252427	3.29397
0.289831	3.89419
0.327215	4.19139
0.357117	4.33824
0.390765	4.63603
0.426272	4.782
0.452428	4.77793
0.487935	4.9239
0.523451	5.22139
0.558958	5.36737
0.594484	5.81638
0.629981	5.81084
0.661742	5.80589
0.695381	5.95216
0.727142	5.9472
0.758922	6.24528
0.796306	6.54248
0.829945	6.68875
0.865452	6.83472
0.900988	7.43524
0.934655	8.03605
0.964613	9.09199
