Adsorption isotherm of Nitrogen on Pb-DDQ
DOI: 10.1021/Ic5009895
Adsorbate Nitrogen: InChIKey IJGRMHOSHXDMSA-UHFFFAOYSA-N
Temperature: 77 K
Tabular data in the source: 0
pressure (bar)	uptake (cm3(STP)/g)
0.0468205	1.81088
0.0804591	1.95715
0.114126	2.55796
0.147774	2.85574
0.185159	3.15294
0.21508	3.60282
0.246859	3.90089
0.284244	4.19809
0.319752	4.34407
0.349663	4.64244
0.381442	4.94051
0.418827	5.23771
0.450588	5.23276
0.487963	5.37844
0.521621	5.82774
0.553382	5.82279
0.590767	6.11999
0.622528	6.11503
0.658025	6.1095
0.691673	6.40728
0.725321	6.70506
0.758969	7.00285
0.792608	7.14911
0.828133	7.59812
0.861791	8.04742
0.897298	8.19339
0.921624	8.79566
0.934711	8.94513
0.951554	9.39705
