Adsorption isotherm of Carbon Dioxide on Cu-DDQ
DOI: 10.1021/Ic5009895
Adsorbate Carbon Dioxide: InChIKey CURLTUGMZLYLDI-UHFFFAOYSA-N
Temperature: 273 K
Tabular data in the source: 0
pressure (bar)	uptake (cm3(STP)/g)
0.00499438	39.2291
0.00556606	89.5056
0.0102463	101.11
0.012577	106.084
0.0194372	109.402
0.033189	118.802
0.0628286	125.447
0.106113	132.099
0.144824	136.539
0.178968	139.319
0.188071	139.876
0.219935	142.103
0.251786	143.224
0.283649	145.451
0.315506	147.125
0.34737	149.351
0.379221	150.473
0.411072	151.594
0.440654	153.267
0.470244	155.492
0.502095	156.614
0.53622	157.736
0.565803	159.409
0.599928	160.532
0.627224	161.098
0.65907	161.667
0.690939	164.446
0.72279	165.568
0.754629	165.584
0.788759	167.259
0.816056	167.826
0.847906	168.948
0.877477	169.515
0.911616	171.743
0.941192	172.863
0.973049	174.537
1.0049	175.659
1.03903	176.781
1.0686	177.902
