Adsorption isotherm of Nitrogen on Zn-DDQ
DOI: 10.1021/Ic5009895
Adsorbate Nitrogen: InChIKey IJGRMHOSHXDMSA-UHFFFAOYSA-N
Temperature: 77 K
Tabular data in the source: 0
pressure (bar)	uptake (cm3(STP)/g)
0.00532179	25.4537
0.00725614	26.514
0.014767	27.1189
0.0259956	27.4202
0.03161	27.5708
0.0503494	28.477
0.0802798	29.0784
0.127053	30.1317
0.15137	30.5825
0.185027	31.0317
0.220553	31.4808
0.250464	31.7791
0.287849	32.0763
0.319628	32.3744
0.357003	32.5201
0.386896	32.5154
0.424272	32.6611
0.456042	32.8077
0.493418	32.9534
0.525178	32.9484
0.560694	33.2459
0.592446	33.0894
0.626075	33.0842
0.657855	33.3823
0.693343	33.2252
0.726991	33.523
0.762489	33.5174
0.794268	33.8155
0.827917	34.1133
0.863442	34.5623
0.897128	35.4661
0.930909	37.8851
0.951629	40.6092
0.961168	43.7895
