Adsorption isotherm of Nitrogen on Cu-DDQ
DOI: 10.1021/Ic5009895
Adsorbate Nitrogen: InChIKey IJGRMHOSHXDMSA-UHFFFAOYSA-N
Temperature: 77 K
Tabular data in the source: 0
pressure (bar)	uptake (cm3(STP)/g)
0.046896	3.02299
0.0805441	3.32077
0.116051	3.46675
0.147822	3.61331
0.183337	3.9108
0.21509	3.75433
0.252464	3.90002
0.284235	4.04658
0.317854	3.88982
0.355221	3.88399
0.386972	3.72753
0.420591	3.57077
0.454212	3.41401
0.485973	3.40906
0.52146	3.25201
0.556958	3.24647
0.590569	2.9382
0.624206	3.08447
0.655949	2.77649
0.691437	2.61944
0.726944	2.76542
0.758705	2.76046
0.792334	2.75522
0.827841	2.9012
0.861498	3.35049
0.893307	4.10311
0.923284	5.46207
0.947742	8.18553
0.964754	11.3647
