Adsorption isotherm of Methane on MIL-125(Ti)
DOI: 10.1021/acs.energyfuels.5b00975
Article source: Figure 5d
Adsorbate Methane: InChIKey VNWKTOKETHGBQD-UHFFFAOYSA-N
Kind: experiment
Temperature: 343 K
Tabular data in the source: 0
pressure (bar)	uptake (mmol/g)
0.02029	0.01076
0.263768	0.085924
0.507246	0.161089
0.791304	0.225399
1.01449	0.289803
1.98841	0.547294
2.45507	0.654489
3.02319	0.783109
3.9971	0.997435
4.52464	1.10454
4.9913	1.20094
5.98551	1.39365
7	1.57554
