Adsorption isotherm of Carbon Dioxide on MIL-125(Ti)
DOI: 10.1021/acs.energyfuels.5b00975
Article source: Figure 5a
Adsorbate Carbon Dioxide: InChIKey CURLTUGMZLYLDI-UHFFFAOYSA-N
Kind: experiment
Temperature: 303 K
Tabular data in the source: 0
pressure (bar)	uptake (mmol/g)
0.040816	0.224199
0.102041	0.398577
0.265306	0.697509
0.428571	1.121
0.673469	1.59431
0.938776	2.0427
1.30612	2.66548
1.46939	2.83986
1.91837	3.3879
2.65306	4.08541
2.85714	4.23488
3.89796	4.88256
4.53061	5.20641
4.91837	5.33096
5.97959	5.67972
6.4898	5.80427
6.97959	5.95374
