Adsorption isotherm of Methane on MIL-125(Ti)
DOI: 10.1021/acs.energyfuels.5b00975
Article source: Figure 5d
Adsorbate Methane: InChIKey VNWKTOKETHGBQD-UHFFFAOYSA-N
Kind: experiment
Temperature: 303 K
Tabular data in the source: 0
pressure (bar)	uptake (mmol/g)
0.142029	0.075321
0.263768	0.150673
0.507246	0.279794
0.771014	0.419675
1.01449	0.538004
2.08986	1.03275
2.51594	1.18317
3.08406	1.40891
3.97681	1.7097
4.4029	1.83854
4.97101	2.0319
5.88406	2.30028
7.04058	2.57907
