Adsorption isotherm of Hydrogen on MIL-125(Ti)
DOI: 10.1021/acs.energyfuels.5b00975
Article source: Figure 5e
Adsorbate Hydrogen: InChIKey UFHFLCQGNIYNRP-UHFFFAOYSA-N
Kind: experiment
Temperature: 323 K
Tabular data in the source: 0
pressure (bar)	uptake (mmol/g)
0.017595	0.037634
0.035191	0.050538
0.123167	0.054839
0.545455	0.077419
1.03812	0.091398
2.26979	0.15914
3.50147	0.158065
4.68035	0.211828
6.0176	0.232258
