Adsorption isotherm of Nitrogen on MIL-125(Ti)
DOI: 10.1021/acs.energyfuels.5b00975
Article source: Figure 5c
Adsorbate Nitrogen: InChIKey IJGRMHOSHXDMSA-UHFFFAOYSA-N
Kind: experiment
Temperature: 323 K
Tabular data in the source: 0
pressure (bar)	uptake (mmol/g)
0.052023	0.0177
0.104046	0.024761
0.50289	0.070625
0.988439	0.119983
1.45665	0.169352
1.97688	0.229328
3.01734	0.338642
3.55491	0.391516
4.02312	0.440885
5.01156	0.539591
5.94798	0.62769
