Adsorption isotherm of Hydrogen on MIL-125(Ti)
DOI: 10.1021/acs.energyfuels.5b00975
Article source: Figure 5e
Adsorbate Hydrogen: InChIKey UFHFLCQGNIYNRP-UHFFFAOYSA-N
Kind: experiment
Temperature: 343 K
Tabular data in the source: 0
pressure (bar)	uptake (mmol/g)
0.017595	0.005376
0.105572	0.013978
1.31965	0.065591
1.93548	0.136559
2.92082	0.125806
3.94135	0.169892
5.13783	0.191398
