Adsorption isotherm of Nitrogen on MIL-125(Ti)
DOI: 10.1021/acs.energyfuels.5b00975
Article source: Figure 5c
Adsorbate Nitrogen: InChIKey IJGRMHOSHXDMSA-UHFFFAOYSA-N
Kind: experiment
Temperature: 343 K
Tabular data in the source: 0
pressure (bar)	uptake (mmol/g)
0.121387	0.017659
0.277457	0.028205
0.50289	0.052894
1.00578	0.09515
1.50867	0.13386
2.0289	0.179652
3.03468	0.264164
3.45087	0.292287
4.04046	0.34513
4.97688	0.419044
6.01734	0.49999
