Adsorption isotherm of Methane on MIL-125(Ti)
DOI: 10.1021/acs.energyfuels.5b00975
Article source: Figure 5d
Adsorbate Methane: InChIKey VNWKTOKETHGBQD-UHFFFAOYSA-N
Kind: experiment
Temperature: 323 K
Tabular data in the source: 0
pressure (bar)	uptake (mmol/g)
0.02029	0.01076
0.182609	0.096841
0.263768	0.12909
0.527536	0.215014
0.750725	0.301001
0.994203	0.408539
1.98841	0.730748
2.51594	0.881013
2.98261	1.03137
3.9971	1.31038
4.44348	1.40682
4.9913	1.55705
5.98551	1.77135
6.95942	1.98567
