Adsorption isotherm of Hydrogen on MIL-125(Ti)
DOI: 10.1021/acs.energyfuels.5b00975
Article source: Figure 5e
Adsorbate Hydrogen: InChIKey UFHFLCQGNIYNRP-UHFFFAOYSA-N
Kind: experiment
Temperature: 303 K
Tabular data in the source: 0
pressure (bar)	uptake (mmol/g)
0.017595	0.023656
0.035191	0.032258
0.123167	0.063441
0.527859	0.096774
1.03812	0.121505
1.53079	0.154839
2.55132	0.188172
3.51906	0.195699
4.80352	0.246237
6.03519	0.275269
