Adsorption isotherm of Carbon monoxide on MIL-125(Ti)
DOI: 10.1021/acs.energyfuels.5b00975
Article source: Figure 5b
Adsorbate Carbon monoxide: InChIKey UGFAIRIUMAVXCW-UHFFFAOYSA-N
Kind: experiment
Temperature: 303 K
Tabular data in the source: 0
pressure (bar)	uptake (mmol/g)
0.109756	0.025641
0.219512	0.048718
0.246951	0.05641
0.402439	0.089744
0.603659	0.133333
0.704268	0.15641
0.996951	0.212821
1.875	0.387179
2.99085	0.592308
