Adsorption isotherm of Carbon monoxide on MIL-125(Ti)
DOI: 10.1021/acs.energyfuels.5b00975
Article source: Figure 5b
Adsorbate Carbon monoxide: InChIKey UGFAIRIUMAVXCW-UHFFFAOYSA-N
Kind: experiment
Temperature: 323 K
Tabular data in the source: 0
pressure (bar)	uptake (mmol/g)
0.018293	0.005128
0.10061	0.023077
0.20122	0.041026
0.246951	0.046154
0.402439	0.069231
0.603659	0.102564
0.704268	0.117949
0.987805	0.161538
2.00305	0.292308
2.89939	0.407692
