Adsorption isotherm of Carbon monoxide on MIL-125(Ti)
DOI: 10.1021/acs.energyfuels.5b00975
Article source: Figure 5b
Adsorbate Carbon monoxide: InChIKey UGFAIRIUMAVXCW-UHFFFAOYSA-N
Kind: experiment
Temperature: 343 K
Tabular data in the source: 0
pressure (bar)	uptake (mmol/g)
0.009242	0.005136
0.04604	0.01286
0.082771	0.015455
0.092013	0.020591
0.20224	0.030942
0.248213	0.038674
0.395239	0.056748
0.606553	0.080006
0.698499	0.095469
0.974168	0.129038
1.9847	0.232466
3.03213	0.35131
