Adsorption isotherm of Nitrogen on MIL-125(Ti)
DOI: 10.1021/acs.energyfuels.5b00975
Article source: Figure 5c
Adsorbate Nitrogen: InChIKey IJGRMHOSHXDMSA-UHFFFAOYSA-N
Kind: experiment
Temperature: 303 K
Tabular data in the source: 0
pressure (bar)	uptake (mmol/g)
0.052023	0.0177
0.901734	0.144857
1.30058	0.208451
1.66474	0.254335
1.99422	0.303786
2.44509	0.370895
3.05202	0.445005
3.9711	0.561483
4.66474	0.649725
5.96532	0.804985
