Adsorption isotherm of Carbon Dioxide on MIL-125(Ti)
DOI: 10.1021/acs.energyfuels.5b00975
Article source: Figure 5a
Adsorbate Carbon Dioxide: InChIKey CURLTUGMZLYLDI-UHFFFAOYSA-N
Kind: experiment
Temperature: 323 K
Tabular data in the source: 0
pressure (bar)	uptake (mmol/g)
0.163265	0.274021
0.244898	0.398577
0.469388	0.747331
0.857143	1.27046
0.938776	1.3452
1.87755	2.29181
2.61224	2.86477
2.89796	3.08897
3.89796	3.71174
4.55102	4.01068
4.91837	4.18505
5.95918	4.58363
6.32653	4.70819
6.95918	4.88256
