Adsorption isotherm of Nitrogen on Carbon WD-HNO3 (356K)
DOI: 10.1016/s0040-6031(99)00375-5
Article source: Figure 2
Adsorbate Nitrogen: InChIKey IJGRMHOSHXDMSA-UHFFFAOYSA-N
Kind: experiment
Temperature: 77 K
Tabular data in the source: 0
pressure (bar)	uptake (cm3(STP)/g)
0	2.54094
1e-06	4.9827
1e-06	9.85746
1e-06	12.2992
1e-06	17.1681
1e-06	19.6128
2e-06	24.4876
2e-06	26.9381
4e-06	31.8216
5e-06	34.2779
8e-06	39.1644
1.1e-05	41.6178
1.7e-05	45.2906
2.6e-05	48.9635
3.9e-05	52.6334
5.7e-05	56.3033
8.4e-05	59.9733
0.000129	63.6461
0.000183	67.3131
0.00028	70.986
0.000412	74.6559
0.000631	77.1152
0.000895	80.7822
0.00137	84.455
0.002017	88.125
0.002858	91.792
0.00421	93.0347
0.005738	96.6988
0.007821	100.363
0.009867	101.594
0.012447	104.039
0.015105	106.48
0.019805	110.142
0.025973	111.376
0.030321	113.814
0.034056	115.037
0.03825	116.259
0.044653	118.698
0.052134	119.923
0.060861	122.362
0.071058	123.587
0.079809	124.81
0.093179	126.035
0.104644	128.471
0.126989	130.913
0.142602	134.562
0.160164	135.784
0.179906	135.793
0.210025	138.232
0.264942	140.677
0.321486	144.332
0.390171	145.56
0.455492	147.999
0.531798	149.224
0.597292	150.447
0.697289	152.885
0.783163	154.108
0.846184	155.327
0.87953	156.544
0.914191	157.76
0.950217	158.977
0.987013	168.688
0.987106	167.475
0.987385	163.834
0.98757	161.407
