Adsorption isotherm of Water on Carbon WD
DOI: 10.1016/s0040-6031(99)00375-5
Article source: Figure 7
Adsorbate Water: InChIKey XLYOFNOQVPJJNP-UHFFFAOYSA-N
Kind: experiment
Temperature: 298 K
Tabular data in the source: 0
pressure (bar)	uptake (g/g)
0.00519	0.010742
0.008415	0.013811
0.009751	0.019949
0.012346	0.026087
0.015568	0.041432
0.017296	0.053708
0.019487	0.09821
0.021131	0.1289
0.023402	0.171867
0.025116	0.234783
0.025646	0.313043
0.026958	0.411253
0.030566	0.455754
