Adsorption isotherm of Water on Carbon AG5-HClO4
DOI: 10.1016/s0040-6031(99)00375-5
Article source: Figure 6
Adsorbate Water: InChIKey XLYOFNOQVPJJNP-UHFFFAOYSA-N
Kind: experiment
Temperature: 298 K
Tabular data in the source: 0
pressure (bar)	uptake (g/g)
0.003227	0.013459
0.004622	0.0202
0.00663	0.021795
0.009505	0.047205
0.011594	0.067544
0.014895	0.128726
0.0168	0.183167
0.018702	0.251244
0.02078	0.310789
0.021901	0.358455
0.025292	0.411109
0.027812	0.453584
0.029465	0.472243
0.030771	0.487513
