Adsorption isotherm of Water on Carbon WD-HNO3
DOI: 10.1016/s0040-6031(99)00375-5
Article source: Figure 7
Adsorbate Water: InChIKey XLYOFNOQVPJJNP-UHFFFAOYSA-N
Kind: experiment
Temperature: 298 K
Tabular data in the source: 0
pressure (bar)	uptake (g/g)
0.012106	0.039898
0.015556	0.085933
0.016884	0.121228
0.018528	0.153453
0.020097	0.170332
0.020797	0.204092
0.022036	0.277749
0.026337	0.379028
0.030571	0.43734
