Adsorption isotherm of Nitrogen on Carbon WD-HNO3
DOI: 10.1016/s0040-6031(99)00375-5
Article source: Figure 2
Adsorbate Nitrogen: InChIKey IJGRMHOSHXDMSA-UHFFFAOYSA-N
Kind: experiment
Temperature: 77 K
Tabular data in the source: 0
pressure (bar)	uptake (cm3(STP)/g)
0	4.8981
0	7.32527
0	10.9719
0	15.8379
0	19.4903
0	23.1456
0	26.8039
1e-06	31.6757
1e-06	35.334
1e-06	38.9952
1e-06	43.867
1e-06	47.5311
2e-06	52.403
2e-06	57.2719
3e-06	60.9301
4e-06	64.5884
4e-06	69.4602
6e-06	73.1185
7e-06	76.7738
8e-06	80.4292
1e-05	85.2952
1.2e-05	88.9505
1.4e-05	92.6059
1.7e-05	97.4719
2e-05	101.127
2.4e-05	105.996
2.8e-05	110.862
3.4e-05	114.518
4e-05	118.17
4.7e-05	121.822
5.5e-05	126.688
6.6e-05	130.344
7.8e-05	133.996
9.8e-05	138.868
0.000114	143.734
0.000139	146.176
0.000162	151.042
0.000189	155.908
0.000238	159.566
0.000289	164.435
0.000351	168.09
0.000442	171.749
0.000558	176.62
0.000677	179.062
0.000821	182.717
0.001036	186.376
0.001307	191.248
0.001648	196.119
0.002079	198.564
0.002622	202.222
0.003182	205.878
0.003861	210.747
0.004685	213.188
0.005909	216.847
0.006899	219.286
0.008372	221.727
0.009773	224.166
0.010975	227.816
0.011857	230.249
0.013844	231.474
0.015546	235.123
0.019608	238.782
0.025706	244.87
0.030003	249.736
0.035024	253.388
0.04089	254.614
0.045922	257.05
0.053606	260.702
0.060196	264.352
0.07026	269.218
0.078906	271.653
0.088616	274.089
0.103431	278.955
0.125505	282.611
0.146517	285.05
0.164561	286.272
0.177787	288.705
0.207551	291.144
0.251823	296.013
0.305596	298.454
0.356758	300.893
0.416446	304.546
0.505324	308.201
0.613229	310.643
0.688622	314.292
0.743966	316.725
0.868435	320.378
0.902573	322.808
0.937877	327.665
1.01249	339.807
1.05269	337.383
1.05289	334.955
1.05318	331.315
