Adsorption isotherm of Water on Carbon AG5-HNO3
DOI: 10.1016/s0040-6031(99)00375-5
Article source: Figure 6
Adsorbate Water: InChIKey XLYOFNOQVPJJNP-UHFFFAOYSA-N
Kind: experiment
Temperature: 298 K
Tabular data in the source: 0
pressure (bar)	uptake (g/g)
0.00375	0.018544
0.01098	0.077805
0.012367	0.11182
0.014454	0.144092
0.015834	0.20197
0.017821	0.276861
0.020425	0.331263
0.02242	0.375472
0.026688	0.412737
0.029906	0.456878
0.030515	0.467072
