Adsorption isotherm of Water on Carbon AG5-H2O2
DOI: 10.1016/s0040-6031(99)00375-5
Article source: Figure 6
Adsorbate Water: InChIKey XLYOFNOQVPJJNP-UHFFFAOYSA-N
Kind: experiment
Temperature: 298 K
Tabular data in the source: 0
pressure (bar)	uptake (g/g)
0.002703	0.015192
0.004272	0.021924
0.005145	0.025285
0.008718	0.048952
0.010983	0.067578
0.013333	0.094721
0.015421	0.121879
0.017064	0.176334
0.018704	0.242722
0.020432	0.305695
0.023125	0.354978
0.027914	0.400738
0.028606	0.422859
0.029299	0.44498
0.029816	0.467111
0.030162	0.477319
