Adsorption isotherm of Water on Carbon WD-HClO4
DOI: 10.1016/s0040-6031(99)00375-5
Article source: Figure 7
Adsorbate Water: InChIKey XLYOFNOQVPJJNP-UHFFFAOYSA-N
Kind: experiment
Temperature: 298 K
Tabular data in the source: 0
pressure (bar)	uptake (g/g)
0.000472	0.001535
0.002515	0.009207
0.005188	0.019949
0.007784	0.021483
0.014302	0.069054
0.01595	0.082864
0.016886	0.113555
0.019081	0.144246
0.020729	0.16266
0.021666	0.190281
0.022753	0.24399
0.025722	0.323785
0.029958	0.374425
