Adsorption isotherm of Nitrogen on Carbon WD-HClO4
DOI: 10.1016/s0040-6031(99)00375-5
Article source: Figure 2
Adsorbate Nitrogen: InChIKey IJGRMHOSHXDMSA-UHFFFAOYSA-N
Kind: experiment
Temperature: 77 K
Tabular data in the source: 0
pressure (bar)	uptake (cm3(STP)/g)
0	10.9923
0	15.867
0	20.7389
1e-06	25.6195
1e-06	29.2748
1e-06	34.1496
1e-06	37.8137
2e-06	42.6884
2e-06	46.3467
3e-06	50.0108
4e-06	54.8856
5e-06	59.7603
7e-06	65.8487
1e-05	73.1623
1.2e-05	78.0312
1.5e-05	81.6895
2.3e-05	91.4273
4.7e-05	108.473
5.9e-05	113.345
0.000189	140.131
0.000351	153.527
0.000888	174.228
0.001165	176.676
0.00165	183.984
0.002337	190.078
0.003063	196.166
0.004016	201.041
0.005473	207.132
0.006641	210.787
0.008058	214.443
0.009778	218.098
0.017468	230.278
0.019616	233.927
0.024738	240.013
0.030015	244.882
0.036421	248.537
0.040894	253.4
0.120702	286.249
0.177703	294.773
0.207414	299.639
0.251658	304.508
0.305338	309.377
0.370538	311.818
0.400318	314.251
0.467294	317.904
0.566971	322.773
0.636735	325.209
0.714951	330.072
0.867129	339.795
1.01144	353.156
1.01192	347.088
1.05101	358.013
