Adsorption isotherm of Nitrogen on Carbon AG5
DOI: 10.1016/s0040-6031(99)00375-5
Article source: Figure 1
Adsorbate Nitrogen: InChIKey IJGRMHOSHXDMSA-UHFFFAOYSA-N
Kind: experiment
Temperature: 77 K
Tabular data in the source: 0
pressure (bar)	uptake (cm3(STP)/g)
0	8.60068
0	14.3979
0	18.2442
0	24.9914
1e-06	28.8377
1e-06	33.6386
1e-06	36.4977
2e-06	40.33
3e-06	49.9411
5e-06	54.7466
8e-06	64.3669
1.1e-05	70.1409
1.4e-05	73.9825
1.8e-05	78.7927
2.1e-05	82.6483
2.8e-05	87.4584
3.4e-05	91.3093
4.3e-05	95.1556
5.4e-05	100.939
6.1e-05	103.831
6.3e-05	104.794
7.9e-05	108.641
9.3e-05	114.433
0.000121	118.275
0.000147	124.063
0.000185	128.878
0.000225	131.76
0.000295	136.57
0.000386	141.38
0.000486	146.195
0.00059	150.046
0.000835	154.847
0.001052	159.662
0.001379	163.503
0.001877	168.309
0.002367	171.187
0.0031	177.934
0.004062	180.807
0.005531	186.581
0.006708	188.495
0.00753	192.355
0.009134	194.269
0.011077	198.12
0.012924	202.944
0.016293	205.822
0.01829	208.713
0.023958	215.461
0.029055	219.311
0.032615	223.172
0.039558	226.054
0.047969	230.873
0.051814	232.801
0.062832	237.621
0.073311	241.476
0.085544	244.363
0.092393	247.26
0.107792	252.084
0.135864	256.898
0.152525	259.79
0.184958	264.61
0.224308	268.461
0.27208	270.374
0.329965	274.225
0.37043	277.117
0.466987	279.995
0.524256	282.886
0.611799	284.805
0.686826	287.696
0.771056	290.588
0.832793	293.484
0.865371	296.385
0.932563	322.527
0.932999	317.684
0.933523	311.873
0.934048	306.061
0.934485	301.219
0.969133	324.459
