Adsorption isotherm of Water on Carbon WD-H2O2
DOI: 10.1016/s0040-6031(99)00375-5
Article source: Figure 7
Adsorbate Water: InChIKey XLYOFNOQVPJJNP-UHFFFAOYSA-N
Kind: experiment
Temperature: 298 K
Tabular data in the source: 0
pressure (bar)	uptake (g/g)
0.000472	0.001535
0.003223	0.009207
0.005583	0.013811
0.007785	0.018414
0.00912	0.026087
0.011714	0.036829
0.014933	0.061381
0.016188	0.078261
0.018142	0.125831
0.020727	0.171867
0.023395	0.196419
0.024013	0.242455
0.024707	0.294629
0.027364	0.365217
0.030577	0.414322
