Adsorption isotherm of Nitrogen on Carbon WD-H2O2
DOI: 10.1016/s0040-6031(99)00375-5
Article source: Figure 2
Adsorbate Nitrogen: InChIKey IJGRMHOSHXDMSA-UHFFFAOYSA-N
Kind: experiment
Temperature: 77 K
Tabular data in the source: 0
pressure (bar)	uptake (cm3(STP)/g)
0	3.71077
0	6.14961
0	12.2321
0	14.671
1e-06	19.5399
1e-06	23.1952
1e-06	28.07
1e-06	31.7283
1e-06	35.3923
2e-06	39.0506
2e-06	45.136
3e-06	48.7972
4e-06	53.672
5e-06	57.3273
6e-06	60.9885
7e-06	65.8574
9e-06	70.7263
1e-05	74.3788
1.3e-05	78.037
1.5e-05	81.6895
1.9e-05	86.5613
2.3e-05	89.0031
2.7e-05	95.0826
3.1e-05	97.5186
3.9e-05	103.604
4.3e-05	107.254
5.3e-05	110.909
6.4e-05	115.778
7.2e-05	119.427
8.7e-05	123.083
9.8e-05	125.519
0.000114	130.385
0.000139	135.253
0.000162	137.692
0.000189	143.772
0.000229	147.427
0.000268	151.08
0.000312	154.732
0.00041	159.607
0.000478	164.473
0.00058	169.342
0.000854	175.439
0.001078	179.097
0.001308	182.753
0.001586	187.621
0.002001	191.28
0.002524	194.938
0.003062	199.807
0.003716	203.462
0.00451	205.904
0.005472	209.559
0.006387	213.212
0.008057	216.87
0.009047	220.52
0.01332	229.044
0.062573	264.354
0.073015	272.861
0.085208	280.154
0.103363	287.45
0.125423	291.106
0.146379	297.185
0.170869	300.838
0.191877	304.487
0.215467	308.137
0.261427	313.006
0.317221	316.661
0.370259	321.527
0.415859	322.749
0.46703	325.185
0.524498	327.621
0.589092	328.844
0.636376	332.49
0.714547	337.353
0.802397	341.003
0.866966	342.222
0.900793	348.293
0.972365	361.648
0.972822	355.58
1.01002	371.36
1.01049	365.292
1.04982	372.576
