Adsorption isotherm of Water on Carbon AG5-HNO3 (356K)
DOI: 10.1016/s0040-6031(99)00375-5
Article source: Figure 6
Adsorbate Water: InChIKey XLYOFNOQVPJJNP-UHFFFAOYSA-N
Kind: experiment
Temperature: 298 K
Tabular data in the source: 0
pressure (bar)	uptake (g/g)
0.000696	0.008484
0.002088	0.025453
0.003395	0.037313
0.006618	0.064409
0.008622	0.077935
0.010541	0.086352
0.013069	0.101554
0.015076	0.106557
0.016732	0.116694
0.018304	0.118312
0.020921	0.126691
0.021531	0.130066
0.022401	0.14195
0.024495	0.148653
0.0258	0.163922
0.02937	0.199521
