Adsorption isotherm of Nitrogen on Carbon AG5-H2O2
DOI: 10.1016/s0040-6031(99)00375-5
Article source: Figure 1
Adsorbate Nitrogen: InChIKey IJGRMHOSHXDMSA-UHFFFAOYSA-N
Kind: experiment
Temperature: 77 K
Tabular data in the source: 0
pressure (bar)	uptake (cm3(STP)/g)
1e-06	28.7912
1e-06	33.6014
2e-06	38.4116
2e-06	42.2485
3e-06	46.0902
4e-06	49.9271
5e-06	53.7687
6e-06	57.615
8e-06	63.3983
1e-05	67.2493
1.2e-05	71.0955
1.5e-05	73.9779
1.8e-05	78.7973
2.1e-05	81.6797
2.5e-05	86.5038
2.9e-05	90.3594
3.7e-05	95.1742
4.3e-05	99.0297
5.2e-05	103.849
6.3e-05	106.732
7.3e-05	110.587
8.9e-05	114.438
0.000104	118.294
0.000126	123.113
0.000153	126.964
0.000185	130.815
0.000234	135.63
0.000273	139.485
0.00033	143.336
0.000417	147.182
0.000525	151.029
0.000637	155.848
0.000803	157.757
0.001012	163.541
0.001326	167.382
0.001671	171.228
0.002027	174.111
0.002656	177.952
0.003221	180.835
0.004219	186.614
0.005118	189.496
0.006207	192.378
0.007823	197.193
0.008451	199.121
0.010653	201.999
0.01196	204.89
0.013425	208.75
0.015668	210.669
0.020524	216.448
0.023946	220.303
0.029042	224.154
0.031367	227.05
0.03804	230.901
0.039524	234.771
0.047928	239.59
0.055922	243.446
0.067806	249.234
0.082232	253.085
0.088799	257.918
0.088816	255.981
0.111904	264.67
0.130578	267.557
0.152368	270.444
0.177779	274.3
0.192013	277.196
0.242018	282.011
0.29348	286.83
0.342455	289.717
0.36991	291.645
0.44865	294.527
0.52352	297.414
0.587722	300.306
0.610769	302.238
0.685607	306.099
0.740503	308.995
0.769253	314.802
0.769541	310.927
0.863429	319.63
0.896617	329.311
0.897036	324.468
0.931255	337.055
0.931691	332.212
