Adsorption isotherm of Water on Carbon AG5
DOI: 10.1016/s0040-6031(99)00375-5
Article source: Figure 6
Adsorbate Water: InChIKey XLYOFNOQVPJJNP-UHFFFAOYSA-N
Kind: experiment
Temperature: 298 K
Tabular data in the source: 0
pressure (bar)	uptake (g/g)
0.008199	0.031935
0.010552	0.048852
0.015084	0.079284
0.017689	0.130277
0.018292	0.157517
0.019583	0.222219
0.020623	0.249434
0.022792	0.298747
0.023218	0.334519
0.025999	0.382093
0.027646	0.421207
0.029731	0.458592
