Adsorption isotherm of Water on Carbon WD-HNO3 (356K)
DOI: 10.1016/s0040-6031(99)00375-5
Article source: Figure 7
Adsorbate Water: InChIKey XLYOFNOQVPJJNP-UHFFFAOYSA-N
Kind: experiment
Temperature: 298 K
Tabular data in the source: 0
pressure (bar)	uptake (g/g)
0.000235	0.003069
0.000939	0.019949
0.00188	0.032225
0.00518	0.049105
0.007143	0.065985
0.010444	0.076726
0.013353	0.085933
0.015555	0.092072
0.017283	0.099744
0.018148	0.104348
0.020743	0.108951
0.021371	0.113555
0.023807	0.125831
0.02475	0.130435
0.026715	0.136573
0.029385	0.159591
