Adsorption isotherm of Nitrogen on Carbon AG5-HNO3 (356K)
DOI: 10.1016/s0040-6031(99)00375-5
Article source: Figure 1
Adsorbate Nitrogen: InChIKey IJGRMHOSHXDMSA-UHFFFAOYSA-N
Kind: experiment
Temperature: 77 K
Tabular data in the source: 0
pressure (bar)	uptake (cm3(STP)/g)
0	3.75336
0	6.65432
0	8.5821
0	10.5052
0	13.3969
0	16.2793
1e-06	19.157
1e-06	21.0662
1e-06	23.9393
1e-06	25.8438
2e-06	28.7123
2e-06	31.5854
3e-06	33.4853
4e-06	36.3537
6e-06	39.2222
8e-06	41.1221
1.1e-05	43.9905
1.5e-05	46.8589
1.9e-05	48.7635
2.6e-05	51.6319
3.4e-05	54.505
4.5e-05	56.4096
6.1e-05	59.278
7.7e-05	62.1557
0.0001	64.0603
0.000132	67.9019
0.000173	69.8065
0.000218	71.7157
0.000296	74.5841
0.000388	77.4572
0.000489	79.3664
0.000641	82.2395
0.000874	85.1079
0.00106	86.0532
0.001621	89.8763
0.002294	92.7401
0.003125	95.6085
0.004423	98.4723
0.005796	101.345
0.007308	103.255
0.008863	106.137
0.010751	108.051
0.01304	109.965
0.015818	111.878
0.019941	114.756
0.02419	115.702
0.028229	117.62
0.031694	119.543
0.036986	121.462
0.043163	123.38
0.048461	125.303
0.058781	127.217
0.068591	130.104
0.080029	133.96
0.089861	134.914
0.1009	135.869
0.117738	138.756
0.132164	142.616
0.154234	144.535
0.179989	146.453
0.194418	148.381
0.245096	151.259
0.308954	155.105
0.360511	157.992
0.374684	158.956
0.420712	159.91
0.47235	161.833
0.510218	163.761
0.572842	165.684
0.668499	167.603
0.694844	167.598
0.810722	171.454
0.810798	170.485
0.842436	174.355
0.875144	180.161
0.875472	176.287
0.909208	184.999
0.909378	183.062
0.944332	192.743
0.944597	189.837
0.944686	188.869
