Adsorption isotherm of Nitrogen on Carbon AG5-HClO4
DOI: 10.1016/s0040-6031(99)00375-5
Article source: Figure 1
Adsorbate Nitrogen: InChIKey IJGRMHOSHXDMSA-UHFFFAOYSA-N
Kind: experiment
Temperature: 77 K
Tabular data in the source: 0
pressure (bar)	uptake (cm3(STP)/g)
2e-06	43.2356
2e-06	46.1273
3e-06	49.9689
3e-06	53.8198
4e-06	57.6661
5e-06	62.4809
7e-06	67.2911
8e-06	71.1466
9e-06	74.9975
1.2e-05	78.8484
1.5e-05	83.6632
1.8e-05	87.5142
2.1e-05	90.4012
2.4e-05	95.2253
2.9e-05	101.013
3.4e-05	104.869
4.1e-05	107.751
4.8e-05	112.575
5.6e-05	115.462
6.5e-05	119.318
7.9e-05	122.2
8.9e-05	127.029
0.000108	130.88
0.000126	135.704
0.000159	139.55
0.000178	143.41
0.000216	147.261
0.000252	151.117
0.000306	155.936
0.000371	159.787
0.000449	163.638
0.000566	167.484
0.000661	171.34
0.000802	175.191
0.00101	179.037
0.001274	182.883
0.001486	186.739
0.001873	190.585
0.002361	195.4
0.002864	198.282
0.003473	202.133
0.004378	205.98
0.005109	207.898
0.00596	212.722
0.007511	218.506
0.008433	220.429
0.010228	224.28
0.011483	226.203
0.013398	230.058
0.016248	233.909
0.018956	238.733
0.023891	244.517
0.027877	247.404
0.040982	259.948
0.055785	268.628
0.067641	274.416
0.078913	279.24
0.099447	285.992
0.125333	291.775
0.151984	296.594
0.170574	302.392
0.199058	304.31
0.250898	309.125
0.292767	312.012
0.328671	314.904
0.398595	318.755
0.502399	323.569
0.633118	330.321
0.738565	336.114
0.828518	346.754
0.828983	340.943
0.96506	368.043
0.965512	363.2
0.966145	356.421
