Adsorption isotherm of Nitrogen on Carbon AG5-HNO3
DOI: 10.1016/s0040-6031(99)00375-5
Article source: Figure 1
Adsorbate Nitrogen: InChIKey IJGRMHOSHXDMSA-UHFFFAOYSA-N
Kind: experiment
Temperature: 77 K
Tabular data in the source: 0
pressure (bar)	uptake (cm3(STP)/g)
0	7.62285
0	13.4062
0	20.1627
1e-06	24.9775
1e-06	29.7923
1e-06	32.6747
1e-06	37.4848
1e-06	42.3043
2e-06	45.1774
2e-06	49.9922
3e-06	53.8384
3e-06	57.6893
4e-06	61.5356
5e-06	66.3504
6e-06	69.2328
8e-06	76.9485
1.1e-05	80.7948
1.2e-05	84.6504
1.4e-05	87.542
1.8e-05	92.3568
2e-05	95.2485
2.4e-05	100.068
2.6e-05	102.964
3.3e-05	107.779
4e-05	111.63
4.6e-05	117.423
5.8e-05	122.237
6.8e-05	128.03
8.6e-05	133.813
0.0001	137.669
0.000131	143.448
0.000159	147.298
0.000192	151.149
0.000233	155.969
0.000283	159.82
0.000343	164.639
0.000449	169.449
0.000588	175.228
0.000742	179.074
0.000972	183.884
0.001323	189.659
0.001733	194.469
0.002271	199.279
0.002975	203.12
0.003749	208.904
0.004726	212.75
0.005957	217.565
0.007805	222.375
0.009108	224.293
0.011044	229.113
0.013395	231.995
0.015631	234.882
0.016882	237.779
0.018953	240.67
0.022983	245.49
0.025801	248.381
0.031285	254.169
0.036505	257.056
0.042589	261.881
0.049691	265.736
0.05578	269.596
0.065076	274.42
0.07305	278.281
0.085233	282.136
0.099447	285.992
0.111642	288.883
0.125333	291.775
0.151984	296.594
0.170622	299.486
0.199095	302.373
0.241453	306.224
0.292822	310.075
0.355153	312.957
0.430712	316.808
0.502634	318.727
0.564275	321.618
0.633474	324.51
0.684197	327.406
0.768031	331.267
0.829138	339.006
0.829604	333.194
0.895443	342.87
0.930035	350.614
0.93047	345.771
0.965693	361.263
0.966235	355.452
1.00384	360.29
