Adsorption isotherm of Nitrogen on Carbon WD
DOI: 10.1016/s0040-6031(99)00375-5
Article source: Figure 2
Adsorbate Nitrogen: InChIKey IJGRMHOSHXDMSA-UHFFFAOYSA-N
Kind: experiment
Temperature: 77 K
Tabular data in the source: 0
pressure (bar)	uptake (cm3(STP)/g)
0	3.74578
1e-06	11.0506
1e-06	13.4924
1e-06	17.1506
1e-06	22.0196
1e-06	26.8943
2e-06	30.5555
2e-06	35.4274
3e-06	37.8749
4e-06	43.9633
5e-06	47.6215
6e-06	52.4905
7e-06	57.3623
9e-06	62.2312
1.2e-05	68.3196
1.5e-05	74.405
1.9e-05	79.2769
2.3e-05	82.9351
2.7e-05	86.5876
3.1e-05	89.0235
3.4e-05	92.673
4.4e-05	97.5448
4.9e-05	101.194
5.7e-05	106.06
6.7e-05	109.713
7.8e-05	113.365
9.1e-05	119.445
0.000102	124.308
0.000124	127.963
0.000139	130.399
0.000162	135.265
0.000189	141.345
0.000229	145
0.000313	151.091
0.00041	158.393
0.00079	176.647
0.001359	187.61
0.005261	216.838
0.006636	220.496
0.008699	226.585
0.010972	231.456
0.013313	236.325
0.015537	242.405
0.018851	247.274
0.02471	254.576
0.029978	260.658
0.036373	265.527
0.040837	271.604
0.045857	275.253
0.04766	277.683
0.049529	281.327
0.060088	287.41
0.067464	293.486
0.081837	300.782
0.088398	305.643
0.103178	310.509
0.12514	320.232
0.151805	327.528
0.170452	332.391
0.206752	340.901
0.23215	345.764
0.260715	348.2
0.304277	354.279
0.328701	357.926
0.383659	362.792
0.430907	364.014
0.465495	367.661
0.502906	370.094
0.564735	373.743
0.610122	376.176
0.685069	381.039
0.711998	383.47
0.79946	388.333
0.863467	394.406
0.897157	400.477
0.932249	405.335
0.968805	408.978
1.005	435.68
1.00547	429.612
1.00585	424.758
1.00623	419.903
1.00651	416.263
