Adsorption isotherm of Carbon Dioxide on Aluminum fumarate
DOI: 10.1021/acs.iecr.5b03509
Article source: Figure 6
Adsorbate Carbon Dioxide: InChIKey CURLTUGMZLYLDI-UHFFFAOYSA-N
Kind: experiment
Temperature: 323 K
Tabular data in the source: 0
pressure (bar)	uptake (mmol/g)
0.0843	0.14847
0.2047	0.35667
0.3159	0.54864
0.4101	0.70233
0.5001	0.83571
0.5412	0.8879
0.6077	0.97025
0.6963	1.07753
0.8032	1.21032
0.9009	1.31644
1.005	1.4475
1.5481	1.95311
1.9438	2.24067
3.0219	2.86613
3.9556	3.24801
5.0222	3.58343
5.9777	3.83014
6.9883	4.05188
7.9756	4.24288
