Adsorption isotherm of Carbon Dioxide on Aluminum fumarate
DOI: 10.1021/acs.iecr.5b03509
Article source: Figure 6
Adsorbate Carbon Dioxide: InChIKey CURLTUGMZLYLDI-UHFFFAOYSA-N
Kind: experiment
Temperature: 348 K
Tabular data in the source: 0
pressure (bar)	uptake (mmol/g)
0.1246	0.10784
0.2131	0.21048
0.3342	0.33573
0.4206	0.41749
0.4822	0.5126
0.5332	0.5033
0.6153	0.60594
0.7081	0.68943
0.8135	0.76016
0.9063	0.85874
1.0217	0.94106
1.513	1.28949
2.01	1.59905
3.035	2.12592
4.0471	2.51356
4.9609	2.84266
5.9971	3.134
6.9377	3.35868
8.0311	3.58444
