Adsorption isotherm of Carbon Dioxide on Aluminum fumarate
DOI: 10.1021/acs.iecr.5b03509
Article source: Figure 9
Adsorbate Carbon Dioxide: InChIKey CURLTUGMZLYLDI-UHFFFAOYSA-N
Kind: experiment
Temperature: 303 K
Tabular data in the source: 0
pressure (bar)	uptake (mmol/g)
0.0357	0.01146
0.0435	0.04643
0.0999	0.218
0.1058	0.22943
0.1981	0.56276
0.2157	0.45146
0.2885	0.80127
0.3112	0.73454
0.3908	1.0284
0.4309	0.95489
0.4881	1.23725
0.5113	1.12712
0.6005	1.41188
0.6099	1.32625
0.6928	1.599
0.7126	1.49914
0.8055	1.66227
0.8082	1.67814
0.8983	1.81227
0.9121	1.93569
1.0204	1.96937
1.0294	2.09778
1.9844	3.04186
2.0275	3.06065
3.9859	3.97596
4.0205	4.05262
5.9922	4.54937
6.0079	4.55455
7.9894	4.97312
8.0133	4.97761
