Adsorption isotherm of Water on Aluminum fumarate
DOI: 10.1021/acs.iecr.5b03509
Article source: Figure 7
Adsorbate Water: InChIKey XLYOFNOQVPJJNP-UHFFFAOYSA-N
Kind: experiment
Temperature: 288 K
Tabular data in the source: 0
pressure (bar)	uptake (mmol/g)
6.1e-05	0.1966
0.000349	0.5897
0.000701	1.4298
0.001677	2.2324
0.001689	2.2451
0.003151	4.2581
0.003206	4.2834
0.00351	5.0206
0.004003	8.8411
0.004195	5.7947
0.004206	6.5116
0.004241	16.817
0.004588	18.7181
0.00466	10.8134
0.00502	15.7906
0.005311	16.8215
0.0055	21.3339
0.00623	18.8769
0.006997	22.1128
0.007914	20.0788
0.008676	23.0107
0.009795	23.3192
0.010544	23.7951
0.010894	21.0525
0.011496	24.1038
0.012116	22.2311
0.013742	22.8907
0.014011	23.9754
0.014076	23.6771
0.014551	24.5289
0.014593	24.7515
0.014804	25.536
