Adsorption isotherm of Water on Aluminum fumarate
DOI: 10.1021/acs.iecr.5b03509
Article source: Figure 8
Adsorbate Water: InChIKey XLYOFNOQVPJJNP-UHFFFAOYSA-N
Kind: experiment
Temperature: 313 K
Tabular data in the source: 0
pressure (bar)	uptake (mmol/g)
0.000384	0.31
0.001267	0.8574
0.002562	1.4733
0.005932	1.8716
0.009504	2.4309
0.012477	2.942
0.015179	3.4812
0.017009	4.6647
0.020319	10.2804
0.023431	16.0894
0.028803	19.2371
