Adsorption isotherm of Nitrogen on Aluminum fumarate
DOI: 10.1021/acs.iecr.5b03509
Article source: Figure 5
Adsorbate Nitrogen: InChIKey IJGRMHOSHXDMSA-UHFFFAOYSA-N
Kind: experiment
Temperature: 77 K
Tabular data in the source: 0
pressure (bar)	uptake (cm3(STP)/g)
0.006444	175.98
0.006525	6.91
0.006566	97
0.006647	45.52
0.00685	37.26
0.00688	18.29
0.007012	173.68
0.007154	78.57
0.007184	160.07
0.007235	26.15
0.007488	107.84
0.00764	127.34
0.007701	87.92
0.007761	170.15
0.007782	158.91
0.007954	164.46
0.008096	79.17
0.008106	64.46
0.008126	55.82
0.008349	153.76
0.008359	159.13
0.0084	88.51
0.008481	65.98
0.008927	142.52
0.009119	137.64
0.0107	201.72
0.014601	210.66
0.019262	216.08
0.023923	219.2
0.031573	223.13
0.04127	225.03
0.050602	226.52
0.059741	227.61
0.084556	234.25
0.096502	236.29
0.101538	236.97
0.12692	237.38
0.153984	237.79
0.179538	242.27
0.202498	241.06
0.229937	241.74
0.253627	245.13
0.303833	247.18
0.307197	247.32
0.326226	248.27
0.332387	247.05
0.3518	249.22
0.358518	248.41
0.382218	250.72
0.385572	250.05
0.429618	252.63
0.437268	252.23
0.455375	252.5
0.459671	252.64
0.482621	252.92
0.486917	253.33
0.505389	254.55
0.510617	255.09
0.535624	256.45
0.537671	256.45
0.556517	259.03
0.562678	258.22
0.586935	261.48
0.613067	260.54
0.637324	262.58
0.658045	262.85
0.663648	262.99
0.685474	264.23
0.686973	264.22
0.738294	267.07
0.740899	272.36
0.764406	269.69
0.764609	269.66
0.787184	272.64
0.791095	278.47
0.812171	284.43
0.813123	276.31
0.841089	283.07
0.841109	283.09
0.862722	306.94
0.863867	306.4
0.877069	318.59
0.888853	300.85
0.896088	331.74
0.906332	342.85
0.915715	314
0.916951	357.89
0.926627	372.52
0.928188	331.34
0.937246	389.73
0.938807	402.21
0.939455	405.17
0.949233	360.06
0.951381	419.4
0.959943	435.66
0.960693	436.93
0.961878	387.3
0.966083	448.53
0.966266	453.44
0.967269	400.98
0.969224	468.45
0.973277	482.24
0.973784	417.78
0.977016	499.82
0.981454	514.84
0.9819	531.39
0.989165	545.22
0.989611	547.94
0.989935	551.06
0.993654	531.4
0.995711	575.09
1.0009	564.85
1.00115	550.52
