Adsorption isotherm of Nitrogen on Aluminum fumarate
DOI: 10.1021/acs.iecr.5b03509
Article source: Figure 5
Adsorbate Nitrogen: InChIKey IJGRMHOSHXDMSA-UHFFFAOYSA-N
Kind: experiment
Temperature: 77 K
Tabular data in the source: 0
pressure (bar)	uptake (cm3(STP)/g)
0.005684	185.46
0.006029	205.24
0.006414	194.67
0.007376	176.25
0.007761	157.29
0.007782	156.06
0.008552	144.01
0.011794	218.25
0.024298	219.6
0.033802	223.94
0.044441	228.69
0.052831	230.99
0.066641	233.98
0.075781	233.44
0.085488	233.71
0.093888	235.2
0.12691	240.09
0.152849	241.59
0.178423	242.4
0.209216	243.9
0.231234	245.4
0.254559	246.9
0.278451	248.12
0.305505	249.62
0.332944	250.44
0.35944	250.85
0.378672	250.86
0.40685	253.3
0.429243	255.34
0.455922	256.97
0.485418	256.44
0.511722	260.38
0.536546	259.71
0.560439	261.07
0.56436	261.88
0.588617	262.16
0.590482	262.84
0.616056	262.44
0.61941	263.93
0.64386	266.24
0.672403	269.09
0.699092	270.45
0.704128	271.4
0.727078	274.25
0.738294	265.31
0.756756	275.34
0.762552	271.28
0.788866	273.46
0.808077	276.71
0.811056	284.98
0.836813	280.11
0.848475	293.43
0.861181	285.75
0.877596	315.62
0.889846	297.88
0.897091	330.48
0.904589	343.62
0.911226	311.71
0.919383	359.67
0.926729	327.07
0.936273	386.64
0.938928	342.27
0.944238	405.42
0.948919	419.42
0.958393	372.82
0.959011	429.83
0.967451	447.07
0.970349	398.43
0.972436	480.68
0.972578	480.53
0.978293	431.2
0.98266	507.18
0.982741	508.81
0.982873	511.08
0.989905	521.79
0.989986	525.66
0.990584	544.37
0.995022	559.39
0.995366	550.71
0.995579	506.14
0.998142	519.45
0.999054	537.54
0.99947	573.05
1.0011	586.53
1.00465	571.51
1.00491	552.22
1.00792	584.14
