Adsorption isotherm of Carbon Dioxide on Aluminum fumarate
DOI: 10.1021/acs.iecr.5b03509
Article source: Figure 6
Adsorbate Carbon Dioxide: InChIKey CURLTUGMZLYLDI-UHFFFAOYSA-N
Kind: experiment
Temperature: 303 K
Tabular data in the source: 0
pressure (bar)	uptake (mmol/g)
0.0596	0.25492
0.078	0.31786
0.1914	0.5661
0.292	0.80912
0.3877	1.03241
0.5117	1.24294
0.5528	1.39549
0.5946	1.43085
0.6916	1.60368
0.8021	1.78637
0.8992	1.93425
1.0167	2.10417
1.5676	2.71942
2.0108	3.06091
3.0281	3.65565
3.9985	4.04912
5.0099	4.36193
5.9894	4.59529
7.0079	4.80426
8.0015	4.98598
