Adsorption isotherm of Water on Aluminum fumarate
DOI: 10.1021/acs.iecr.5b03509
Article source: Figure 8
Adsorbate Water: InChIKey XLYOFNOQVPJJNP-UHFFFAOYSA-N
Kind: experiment
Temperature: 288 K
Tabular data in the source: 0
pressure (bar)	uptake (mmol/g)
0.00034	0.5071
0.000727	1.3645
0.001655	2.1694
0.003195	3.1271
0.004216	5.7113
0.004664	10.7514
0.005033	15.7513
0.005303	16.7979
0.006237	18.8588
0.007931	20.0499
0.010905	21.0394
0.012128	22.1783
0.013728	22.8541
0.014054	23.6471
0.014546	24.5407
0.014569	24.5953
