Adsorption isotherm of Nitrogen on {[Co6(mu3-OH)2(IN)4-(HCOO)6]4DMF5H2O}n
DOI: 10.1039/C3nj00236e
Adsorbate Nitrogen: InChIKey IJGRMHOSHXDMSA-UHFFFAOYSA-N
Temperature: 77 K
Tabular data in the source: 0
pressure (bar)	uptake (cm3(STP)/g)
0.0124698	211.098
0.0296228	217.677
0.0338735	218.956
0.0547693	221.882
0.0630637	222.431
0.0838654	224.444
0.104536	225.179
0.117043	226.642
0.137713	227.376
0.166658	228.478
0.183229	229.394
0.20388	229.945
0.253439	231.233
0.290623	232.335
0.35662	233.261
0.406161	234.365
0.455645	234.922
0.459858	235.836
0.505129	235.479
0.509362	236.576
0.554727	237.132
0.558733	236.037
0.60406	236.228
0.612411	237.325
0.661783	236.786
0.661876	237.699
0.707129	237.159
0.711342	238.073
0.75667	238.264
0.760714	237.534
0.785521	238.452
0.806079	238.091
0.810253	238.639
0.83083	238.46
0.839143	239.192
0.8597	238.831
0.863857	239.197
0.884434	239.018
0.909184	239.388
0.933973	240.123
0.958744	240.675
0.983589	241.958
0.996097	243.422
1.00035	244.701
1.00876	246.346
