Adsorption isotherm of Carbon Dioxide on ([Zn(SiF6)(pyz)2]*2MeOH)n
DOI: 10.1039/c2cc34276f
Adsorbate Carbon Dioxide: InChIKey CURLTUGMZLYLDI-UHFFFAOYSA-N
Temperature: 298 K
Tabular data in the source: 0
pressure (bar)	uptake (cm3(STP)/g)
0.00653131	2.11866
0.522505	19.4927
0.696673	25.9902
0.860827	29.2392
1.02367	32.0644
1.49349	34.4666
2.11484	36.0216
2.2729	37.2931
2.73706	37.8591
3.51123	38.9908
4.28324	39.4162
5.05567	39.9829
5.98181	40.4087
6.75425	40.9753
7.06253	40.976
10.3016	41.6894
13.8477	41.9797
15.8519	42.1253
20.0146	42.417
23.4065	42.7069
25.8727	42.7124
30.0358	43.1453
32.9644	43.1517
35.2769	43.298
39.285	43.4481
42.3686	43.7374
45.606	43.8858
48.8433	44.0341
51.7724	44.1818
55.4731	44.6137
58.4021	44.7614
61.4858	45.0507
