Adsorption isotherm of Carbon Dioxide on ([Zn(SiF6)(pyz)2]*2MeOH)n
DOI: 10.1039/c2cc34276f
Adsorbate Carbon Dioxide: InChIKey CURLTUGMZLYLDI-UHFFFAOYSA-N
Temperature: 195 K
Tabular data in the source: 0
pressure (bar)	uptake (cm3(STP)/g)
0.00399673	10.1722
0.00615245	13.1391
0.010692	16
0.0177178	17.3775
0.0224069	18.2252
0.0271038	18.9669
0.0341768	19.7086
0.0436179	20.5563
0.0506987	21.1921
0.0530275	21.8278
0.0577166	22.6755
0.0671656	23.4172
0.0790063	23.947
0.0931994	24.7947
0.109784	25.4305
0.164385	26.0662
0.209482	26.702
0.259339	27.2318
0.3187	27.7616
0.354293	28.3974
0.41603	28.9272
0.461135	29.457
0.513376	29.8808
0.560857	30.4106
0.617841	30.9404
0.667714	31.2583
0.715195	31.7881
0.76506	32.2119
0.812533	32.8477
0.869525	33.2715
0.91463	33.8013
0.957391	33.9073
