Adsorption isotherm of Methanol on [Zn(dtp)]
DOI: 10.1002/chem.200701447
Adsorbate Methanol: InChIKey OKKJLVBELUTLKV-UHFFFAOYSA-N
Temperature: 298 K
Tabular data in the source: 0
pressure (bar)	uptake (cm3(STP)/g)
0.000504469	14.9378
0.00100894	21.9917
0.00201788	35.2697
0.00302682	42.3237
0.00403576	48.1328
0.0065581	52.6971
0.00807151	56.0166
0.0110983	59.751
0.0141251	62.2407
0.0181609	64.3154
0.0221967	65.9751
0.0257279	68.0498
0.0297637	69.2946
0.0383397	70.9544
0.0469157	72.6141
0.0559961	74.2739
0.0650766	75.5187
0.0736525	76.7635
0.0832375	78.0083
0.0918134	78.8382
0.100389	80.083
0.11855	82.1577
0.136207	84.6473
0.151845	88.3817
0.16143	104.564
