Adsorption isotherm of Nitrogen on [Zn(dtp)]
DOI: 10.1002/chem.200701447
Adsorbate Nitrogen: InChIKey IJGRMHOSHXDMSA-UHFFFAOYSA-N
Temperature: 77 K
Tabular data in the source: 0
pressure (bar)	uptake (cm3(STP)/g)
0.00588179	0.408108
0.0116207	3.23545
0.0381721	3.66072
0.0588418	3.67788
0.0883698	3.70239
0.12378	4.13501
0.14152	3.74651
0.171024	4.17422
0.206458	4.20364
0.235986	4.22815
0.27142	4.25756
0.306853	4.28697
0.351145	4.32374
0.404272	4.77107
0.448564	4.80783
0.495785	5.25026
0.54303	5.28947
0.593204	5.73435
0.640449	5.77357
0.687646	6.6192
0.73782	7.06407
0.782041	8.31046
0.832191	9.15854
0.879316	11.2138
0.923346	15.6858
