Adsorption isotherm of Oxygen on [Zn(dtp)]
DOI: 10.1002/chem.200701447
Adsorbate Oxygen: InChIKey MYMOFIZGZYHOMD-UHFFFAOYSA-N
Temperature: 77 K
Tabular data in the source: 0
pressure (bar)	uptake (cm3(STP)/g)
0.000360512	40
0.000877246	54
0.000932525	44.8
0.00105991	23.6
0.00145166	58.4
0.00203329	61.6
0.00381662	64.8
0.00621042	66.4
0.0104092	67.6
0.0218206	68.4
0.0254209	69.2
0.029026	69.2
0.0332272	70
0.0374332	70
0.0428361	70.8
0.0506448	71.2
0.0566533	71.2
0.0620586	71.6
0.0698673	72
0.0788825	71.6
0.0884937	72
0.0993067	72.4
0.108918	72.8
0.118529	73.2
0.128741	73.6
0.138353	74
0.147961	74.8
0.15757	75.6
0.166578	76.4
0.175581	78
0.183984	79.6
