Adsorption isotherm of Acetylene on [Zn(dtp)]
DOI: 10.1002/chem.200701447
Adsorbate Acetylene: InChIKey HSFWRNGVRCDJHI-UHFFFAOYSA-N
Temperature: 197 K
Tabular data in the source: 0
pressure (bar)	uptake (cm3(STP)/g)
0	51.0373
0.00979641	56.8465
0.0146946	60.5809
0.024491	62.2407
0.0538802	64.3154
0.0734731	65.9751
0.0930659	67.2199
0.132251	68.4647
0.146946	69.7095
0.176335	70.5394
0.215521	72.1992
0.274299	74.6888
0.347772	76.3485
0.38206	77.1784
0.43594	78.4232
0.504515	79.668
0.582886	80.9129
0.666156	82.1577
0.827796	84.2324
0.994335	85.8921
1.15598	87.5519
1.32741	89.2116
1.48905	90.4564
1.62131	91.7012
