Adsorption isotherm of Carbon Dioxide on [Zn(dtp)]
DOI: 10.1002/chem.200701447
Adsorbate Carbon Dioxide: InChIKey CURLTUGMZLYLDI-UHFFFAOYSA-N
Temperature: 195 K
Tabular data in the source: 0
pressure (bar)	uptake (cm3(STP)/g)
0.0225925	69.6
0.0379718	72.4
0.0626181	75.6
0.0811277	77.2
0.0934632	78.4
0.124333	80.4
0.139762	81.6
0.170644	83.2
0.210818	84.4
0.241713	85.6
0.272607	86.8
0.312781	88
0.362247	88.8
0.408608	90
0.510608	92.4
0.615727	94
0.714671	95.2
0.813603	96.8
0.91564	98
0.974386	98.8
