Adsorption isotherm of Nitrogen on Cu2(dhtp)
DOI: 10.1021/acs.iecr.6b02733
Article source: Figure S5
Adsorbate Nitrogen: InChIKey IJGRMHOSHXDMSA-UHFFFAOYSA-N
Kind: experiment
Temperature: 77 K
Tabular data in the source: 0
pressure (bar)	uptake (cm3(STP)/g)
0	159.672
0	210.82
0	168.852
0	124.918
0	140.328
0	149.508
0	232.787
0	176.393
0	246.557
0	261.311
0	182.951
0	222.951
0	256.393
0	190.82
0	265.246
0	240.328
0	252.131
0.002984	268.525
0.008951	270.82
0.020289	271.475
0.046545	274.754
0.069818	276.393
0.073398	275.41
0.088316	276.066
0.102041	276.066
0.128297	277.049
0.183197	277.377
0.239289	278.689
0.347894	280
0.4565	279.344
0.586587	279.344
0.676097	280
0.784105	282.295
0.893307	286.557
0.94761	292.787
0.976849	300
1.00311	309.836
0.942836	308.852
0.839004	305.574
0.528704	300.984
0.331783	279.016
0.131281	277.377
0.083542	276.393
0.047739	275.41
0.028643	273.77
-0.001193	195.082
