Adsorption isotherm of Nitrogen on MIL-100
DOI: 10.1007/s10450-016-9825-6
Article source: Figure 1
Adsorbate Nitrogen: InChIKey IJGRMHOSHXDMSA-UHFFFAOYSA-N
Kind: experiment
Isotherm type: excess
Temperature: 303 K
Tabular data in the source: 0
pressure (bar)	uptake (mmol/g)
0.646445	0.099379
1.64097	0.409938
2.53605	0.658385
3.53058	0.770186
4.77374	0.956522
5.61909	1.09317
6.5639	1.19255
7.60815	1.36646
8.75187	1.52795
9.7464	1.70186
12.4316	1.82609
16.0617	2.17391
21.084	2.62112
25.6091	3.03106
30.5321	3.32919
35.5047	3.61491
39.7812	3.90062
45.45	4.08696
50.174	4.34783
55.7931	4.54658
60.7161	4.68323
65.5395	4.84472
69.7166	4.98137
75.2362	5.14286
79.8608	5.19255
84.7837	5.31677
89.5077	5.41615
94.4804	5.46584
99.4033	5.51553
