Adsorption isotherm of Carbon Dioxide on MIL-100
DOI: 10.1007/s10450-016-9825-6
Article source: Figure 1
Adsorbate Carbon Dioxide: InChIKey CURLTUGMZLYLDI-UHFFFAOYSA-N
Kind: experiment
Isotherm type: excess
Temperature: 303 K
Tabular data in the source: 0
pressure (bar)	uptake (mmol/g)
0.198906	1.25466
0.348086	1.6646
0.497265	1.96273
0.745898	2.28571
0.895077	2.55901
1.14371	2.93168
1.39234	3.21739
1.64097	3.61491
1.88961	4.04969
2.83441	4.9441
3.67976	5.6646
4.47539	6.27329
5.46991	7.00621
6.31527	7.54037
7.26007	8.17391
8.2546	8.74534
10.2437	9.60248
12.183	10.5342
15.3655	12
19.8409	13.5901
24.6146	14.9814
29.7365	16.0621
35.0075	16.7453
39.7315	17.1304
44.9528	17.2919
