Adsorption isotherm of Carbon Dioxide, Methane on MIL-100(Fe)
DOI: 10.1007/s10450-016-9825-6
Article source: Figure 6
Adsorbate Carbon Dioxide: InChIKey CURLTUGMZLYLDI-UHFFFAOYSA-N
Adsorbate Methane: InChIKey VNWKTOKETHGBQD-UHFFFAOYSA-N
Kind: experiment
Temperature: 303 K
Tabular data in the source: 0
pressure (bar)	Carbon Dioxide fraction	Carbon Dioxide uptake (mmol/g)	Methane fraction	Methane uptake (mmol/g)	total uptake (mmol/g)
1	0.00114	0.0037	0.99886	0.3101	
1	0.09496	0.8303	0.90504	0.233	
1	0.21828	1.3657	0.78172	0.2319	
1	0.45891	2.0838	0.54109	0.1505	
1	0.73072	2.6427	0.26928	0.0454	
1	0.81273	2.7639	0.18727	0.0475	
1	0.99876	3.0946	0.00124	0.0106	
