Adsorption isotherm of Carbon Dioxide on MIL-100(Fe)
DOI: 10.1007/s10450-016-9825-6
Article source: Figure 1
Adsorbate Carbon Dioxide: InChIKey CURLTUGMZLYLDI-UHFFFAOYSA-N
Kind: experiment
Isotherm type: excess
Temperature: 303 K
Tabular data in the source: 0
pressure (bar)	uptake (mmol/g)
0.367	1.2363
0.404	1.6612
0.478	2.0214
0.551	2.354
0.662	2.668
0.921	3.0006
1.143	3.3423
1.624	3.6749
1.956	4.072
2.733	4.8757
3.768	5.6424
4.655	6.3259
5.616	7.0002
6.245	7.5544
7.28	8.1456
8.574	8.8107
10.533	9.6606
12.27	10.5289
15.523	11.9699
19.848	13.5773
24.728	14.9629
29.792	16.0346
35.004	16.7275
39.736	17.1156
45.058	17.2636
