Adsorption isotherm of Carbon Dioxide, Methane on MIL-100(Fe)
DOI: 10.1007/s10450-016-9825-6
Article source: Figure 6
Adsorbate Carbon Dioxide: InChIKey CURLTUGMZLYLDI-UHFFFAOYSA-N
Adsorbate Methane: InChIKey VNWKTOKETHGBQD-UHFFFAOYSA-N
Kind: experiment
Temperature: 303 K
Tabular data in the source: 0
pressure (bar)	Carbon Dioxide fraction	Carbon Dioxide uptake (mmol/g)	Methane fraction	Methane uptake (mmol/g)	total uptake (mmol/g)
30	0.00151	0.0527	0.99849	5.3836	
30	0.08439	3.3557	0.91561	3.3768	
30	0.24766	7.329	0.75234	2.7169	
30	0.5028	11.0399	0.4972	1.5053	
30	0.7508	14.0734	0.2492	0.758	
30	0.88338	15.4637	0.11662	0.5	
30	1	16.3761	0	0	
