Adsorption isotherm of Methane on MIL-100(Fe)
DOI: 10.1007/s10450-016-9825-6
Article source: Figure 1
Adsorbate Methane: InChIKey VNWKTOKETHGBQD-UHFFFAOYSA-N
Kind: experiment
Isotherm type: excess
Temperature: 303 K
Tabular data in the source: 0
pressure (bar)	uptake (mmol/g)
0.044	0.0201
0.23	0.055
0.347	0.0957
0.51	0.1539
0.649	0.2121
1.511	0.5263
2.745	0.8581
3.793	1.1374
4.771	1.4167
5.842	1.7019
6.914	1.9754
7.822	2.1907
9.498	2.633
10.733	2.8018
11.943	3.0986
13.504	3.4187
14.645	3.6573
15.553	3.8668
16.415	3.9774
17.835	4.1462
19.092	4.2975
20.35	4.5653
26.195	5.1008
30.037	5.4908
35.113	5.9797
40.679	6.3756
46.128	6.6959
50.832	6.9579
55.302	7.1268
59.378	7.3073
64.966	7.4355
69.67	7.523
75.445	7.6454
80.707	7.7096
84.736	7.7796
