Adsorption isotherm of Carbon Dioxide, Nitrogen on MIL-100(Fe)
DOI: 10.1007/s10450-016-9825-6
Article source: Figure 4
Adsorbate Carbon Dioxide: InChIKey CURLTUGMZLYLDI-UHFFFAOYSA-N
Adsorbate Nitrogen: InChIKey IJGRMHOSHXDMSA-UHFFFAOYSA-N
Kind: experiment
Temperature: 303 K
Tabular data in the source: 0
pressure (bar)	Carbon Dioxide fraction	Carbon Dioxide uptake (mmol/g)	Nitrogen fraction	Nitrogen uptake (mmol/g)	total uptake (mmol/g)
1	0.00146	0.0065	0.99854	0.2268	
1	0.11893	0.8979	0.88107	0.1655	
1	0.26069	1.4973	0.73931	0.1272	
1	0.50953	2.1992	0.49047	0.071	
1	0.75526	2.6373	0.24474	0.0251	
1	0.91308	2.9063	0.08692	0.0201	
1	1	3.0626	0	0	
