Adsorption isotherm of Carbon Dioxide, Nitrogen on MIL-100(Fe)
DOI: 10.1007/s10450-016-9825-6
Article source: Figure 4
Adsorbate Carbon Dioxide: InChIKey CURLTUGMZLYLDI-UHFFFAOYSA-N
Adsorbate Nitrogen: InChIKey IJGRMHOSHXDMSA-UHFFFAOYSA-N
Kind: experiment
Temperature: 303 K
Tabular data in the source: 0
pressure (bar)	Carbon Dioxide fraction	Carbon Dioxide uptake (mmol/g)	Nitrogen fraction	Nitrogen uptake (mmol/g)	total uptake (mmol/g)
4	0.00188	0.0187	0.99812	0.7396	
4	0.1091	1.8701	0.8909	0.5221	
4	0.15576	2.2681	0.84424	0.4339	
4	0.2569	2.9436	0.7431	0.3634	
4	0.50445	4.1203	0.49555	0.2438	
4	0.76077	5.0577	0.23923	0.0835	
4	0.90764	5.5949	0.09236	0.028	
4	1	6.1063	0	0	
