Adsorption isotherm of Carbon Dioxide, Methane on MIL-100(Fe)
DOI: 10.1007/s10450-016-9825-6
Article source: Figure 6
Adsorbate Carbon Dioxide: InChIKey CURLTUGMZLYLDI-UHFFFAOYSA-N
Adsorbate Methane: InChIKey VNWKTOKETHGBQD-UHFFFAOYSA-N
Kind: experiment
Temperature: 303 K
Tabular data in the source: 0
pressure (bar)	Carbon Dioxide fraction	Carbon Dioxide uptake (mmol/g)	Methane fraction	Methane uptake (mmol/g)	total uptake (mmol/g)
4	0.00167	0.013	0.99833	1.3236	
4	0.08367	1.6439	0.91633	1.0785	
4	0.23376	2.8967	0.76624	0.8403	
4	0.48685	4.2195	0.51315	0.6239	
4	0.75053	5.2892	0.24947	0.2517	
4	0.89414	5.7887	0.10586	0.1099	
4	1	6.0883	0	0	
