Adsorption isotherm of Nitrogen on MIL-100(Fe)
DOI: 10.1007/s10450-016-9825-6
Article source: Figure 1
Adsorbate Nitrogen: InChIKey IJGRMHOSHXDMSA-UHFFFAOYSA-N
Kind: experiment
Isotherm type: excess
Temperature: 303 K
Tabular data in the source: 0
pressure (bar)	uptake (mmol/g)
0.044	0.0201
0.675	0.1027
1.32	0.2127
1.526	0.286
2.288	0.4253
2.758	0.5206
3.433	0.6233
4.313	0.7553
5.017	0.8579
5.75	1.0046
6.689	1.1073
7.628	1.2246
8.274	1.3272
9.007	1.4299
9.799	1.5839
12.528	1.7819
16.342	2.1853
20.977	2.6107
25.877	2.9481
30.6	3.2928
35.559	3.6009
39.989	3.843
45.416	4.0925
50.199	4.2612
55.744	4.496
60.614	4.6722
65.572	4.7603
69.797	4.9364
75.283	5.0759
80.183	5.1348
84.642	5.2522
89.688	5.3477
94.735	5.4285
99.517	5.4947
