Adsorption isotherm of Methane on MIL-100
DOI: 10.1007/s10450-016-9825-6
Article source: Figure 1
Adsorbate Methane: InChIKey VNWKTOKETHGBQD-UHFFFAOYSA-N
Kind: experiment
Isotherm type: excess
Temperature: 303 K
Tabular data in the source: 0
pressure (bar)	uptake (mmol/g)
0.795624	0.335404
1.79015	0.571429
2.98359	0.906832
3.77921	1.18012
5.0721	1.54037
5.91745	1.73913
7.01144	2.04969
8.00597	2.31056
9.54749	2.64596
10.5917	2.88199
11.8846	3.11801
13.1278	3.34161
14.5699	3.6646
15.6638	3.81366
16.8573	4.02485
17.8021	4.21118
18.9955	4.39752
20.2387	4.55901
26.3053	5.15528
30.0348	5.57764
35.3058	6.01242
40.4774	6.44721
46.0965	6.79503
50.6216	6.95652
55.1467	7.24224
59.5226	7.29192
64.6942	7.47826
69.5674	7.59006
75.2859	7.6646
80.2089	7.75155
84.5848	7.7764
