Adsorption isotherm of Water on Al-C16
DOI: 10.1007/s10450-016-9829-2
Article source: Figure S2
Adsorbate Water: InChIKey XLYOFNOQVPJJNP-UHFFFAOYSA-N
Kind: experiment
Temperature: 298 K
Tabular data in the source: 0
pressure (bar)	uptake (g/g)
0.000338	0.029304
0.001353	0.075092
0.002156	0.093407
0.002791	0.104396
0.00334	0.115385
0.004905	0.148352
0.006385	0.175824
0.007865	0.205128
0.009302	0.232601
0.010825	0.274725
0.012262	0.344322
0.01573	0.79304
0.01869	0.888278
0.022072	0.913919
0.025117	0.946886
0.028077	0.990842
