Adsorption isotherm of Water on Al-C12-Li
DOI: 10.1007/s10450-016-9829-2
Article source: Figure 6
Adsorbate Water: InChIKey XLYOFNOQVPJJNP-UHFFFAOYSA-N
Kind: experiment
Isotherm type: excess
Temperature: 298 K
Tabular data in the source: 0
pressure (bar)	uptake (g/g)
0.000163	0.021622
0.001155	0.065281
0.002147	0.080249
0.002732	0.087318
0.003366	0.09605
0.004846	0.117464
0.006196	0.148025
0.007692	0.190644
0.009171	0.218503
0.010684	0.230561
0.012229	0.236798
0.015432	0.247193
0.018424	0.254886
0.021693	0.262994
0.024701	0.271102
0.027921	0.279002
