Adsorption isotherm of Water on Al-C10
DOI: 10.1007/s10450-016-9829-2
Article source: Figure S2
Adsorbate Water: InChIKey XLYOFNOQVPJJNP-UHFFFAOYSA-N
Kind: experiment
Temperature: 298 K
Tabular data in the source: 0
pressure (bar)	uptake (g/g)
0.000423	0.040293
0.001438	0.124542
0.002241	0.166667
0.002875	0.186813
0.003383	0.212454
0.004694	0.283883
0.006385	0.371795
0.007653	0.467033
0.009218	0.558608
0.01074	0.628205
0.012347	0.699634
0.015561	0.809524
0.01852	0.879121
0.021861	0.932234
0.024694	0.961538
0.027907	0.987179
