Adsorption isotherm of Water on AC-C12
DOI: 10.1007/s10450-016-9829-2
Article source: Figure S2
Adsorbate Water: InChIKey XLYOFNOQVPJJNP-UHFFFAOYSA-N
Kind: experiment
Temperature: 298 K
Tabular data in the source: 0
pressure (bar)	uptake (g/g)
0.000397	0.096591
0.001674	0.157197
0.002512	0.191288
0.00304	0.212121
0.003613	0.229167
0.005155	0.289773
0.006521	0.363636
0.008108	0.501894
0.009474	0.685606
0.010972	0.785985
0.012646	0.823864
0.015819	0.863636
0.018683	0.895833
0.022208	0.9375
0.025116	0.960227
0.028289	0.992424
