Adsorption isotherm of Water on Al-C12-Na
DOI: 10.1007/s10450-016-9829-2
Article source: Figure 6
Adsorbate Water: InChIKey XLYOFNOQVPJJNP-UHFFFAOYSA-N
Kind: experiment
Isotherm type: excess
Temperature: 298 K
Tabular data in the source: 0
pressure (bar)	uptake (g/g)
0.000195	0.02079
0.001333	0.058212
0.00226	0.073181
0.002813	0.080665
0.003382	0.088358
0.005041	0.110187
0.006374	0.141996
0.007887	0.182328
0.009367	0.220166
0.010928	0.237006
0.01244	0.244699
0.014066	0.251559
0.015725	0.256549
0.017253	0.261954
0.018749	0.265904
0.022132	0.276923
0.025059	0.285447
0.028311	0.295634
