Adsorption isotherm of Water on Al-C16
DOI: 10.1007/s10450-016-9829-2
Article source: Figure S2
Adsorbate Water: InChIKey XLYOFNOQVPJJNP-UHFFFAOYSA-N
Kind: experiment
Temperature: 298 K
Tabular data in the source: 0
pressure (bar)	uptake (g/g)
0.000202	0.008436
0.001215	0.039367
0.002065	0.050615
0.002713	0.056239
0.00332	0.064675
0.004858	0.082953
0.006316	0.095606
0.007854	0.112478
0.00919	0.127944
0.01081	0.149033
0.012308	0.186995
0.015628	0.44007
0.018664	0.492091
0.022065	0.508963
0.025101	0.527241
0.0283	0.553954
