Adsorption isotherm of Water on Al-C12-Mg
DOI: 10.1007/s10450-016-9829-2
Article source: Figure S2
Adsorbate Water: InChIKey XLYOFNOQVPJJNP-UHFFFAOYSA-N
Kind: experiment
Temperature: 298 K
Tabular data in the source: 0
pressure (bar)	uptake (g/g)
0.000296	0.082418
0.001353	0.291209
0.002283	0.349817
0.002875	0.393773
0.00351	0.424908
0.005074	0.520147
0.006469	0.619048
0.008076	0.694139
0.009387	0.752747
0.012474	0.802198
0.01573	0.840659
0.018816	0.873626
0.022157	0.910256
0.025117	0.945055
