Adsorption isotherm of Water on MCM-C12
DOI: 10.1007/s10450-016-9829-2
Article source: Figure S2
Adsorbate Water: InChIKey XLYOFNOQVPJJNP-UHFFFAOYSA-N
Kind: experiment
Temperature: 298 K
Tabular data in the source: 0
pressure (bar)	uptake (g/g)
0.001234	0.013258
0.002203	0.018939
0.00282	0.018939
0.003525	0.020833
0.004891	0.032197
0.006301	0.043561
0.007843	0.054924
0.009385	0.070076
0.01084	0.083333
0.012294	0.104167
0.015686	0.479167
0.018683	0.941288
0.022076	0.967803
0.025116	0.979167
0.028156	0.996212
