Adsorption isotherm of Water on Al-C12-Mg
DOI: 10.1007/s10450-016-9829-2
Article source: Figure 6
Adsorbate Water: InChIKey XLYOFNOQVPJJNP-UHFFFAOYSA-N
Kind: experiment
Isotherm type: excess
Temperature: 298 K
Tabular data in the source: 0
pressure (bar)	uptake (g/g)
0.000146	0.022661
0.001285	0.081497
0.002179	0.098129
0.002797	0.108524
0.003366	0.117879
0.004927	0.145114
0.006423	0.17422
0.007936	0.194802
0.009367	0.211019
0.010911	0.219543
0.012472	0.225572
0.015774	0.235343
0.018749	0.243451
0.022229	0.254054
0.02514	0.263825
0.028409	0.279418
