Adsorption isotherm of Water on Al-C14
DOI: 10.1007/s10450-016-9829-2
Article source: Figure S2
Adsorbate Water: InChIKey XLYOFNOQVPJJNP-UHFFFAOYSA-N
Kind: experiment
Temperature: 298 K
Tabular data in the source: 0
pressure (bar)	uptake (g/g)
0.000507	0.093407
0.001607	0.148352
0.00241	0.175824
0.00296	0.192308
0.003552	0.210623
0.005074	0.260073
0.006639	0.309524
0.008076	0.369963
0.009514	0.47619
0.010952	0.714286
0.012431	0.8663
0.015687	0.92674
0.018563	0.945055
0.021988	0.96337
0.024948	0.981685
