Adsorption isotherm of Water on Al-C12
DOI: 10.1007/s10450-016-9829-2
Article source: Figure 5
Adsorbate Water: InChIKey XLYOFNOQVPJJNP-UHFFFAOYSA-N
Kind: experiment
Isotherm type: excess
Temperature: 298 K
Tabular data in the source: 0
pressure (bar)	uptake (g/g)
0.001609	0.045706
0.00247	0.055956
0.002958	0.063158
0.003543	0.068421
0.005071	0.087258
0.00655	0.109695
0.008013	0.151801
0.009443	0.206648
0.010955	0.236842
0.012466	0.248476
0.015749	0.262604
0.018691	0.272022
0.022153	0.283102
0.025046	0.292244
0.028199	0.301662
