Adsorption isotherm of Water on AC-C12-Na
DOI: 10.1007/s10450-016-9829-2
Article source: Figure S2
Adsorbate Water: InChIKey XLYOFNOQVPJJNP-UHFFFAOYSA-N
Kind: experiment
Temperature: 298 K
Tabular data in the source: 0
pressure (bar)	uptake (g/g)
0.000308	0.077652
0.00141	0.200758
0.002291	0.251894
0.002864	0.278409
0.003437	0.301136
0.005155	0.375
0.006477	0.479167
0.007931	0.61553
0.009474	0.744318
0.010928	0.797348
0.012514	0.825758
0.014056	0.844697
0.017273	0.880682
0.022208	0.933712
0.025072	0.967803
