Adsorption isotherm of Water on MCM-C16
DOI: 10.1007/s10450-016-9829-2
Article source: Figure 4
Adsorbate Water: InChIKey XLYOFNOQVPJJNP-UHFFFAOYSA-N
Kind: experiment
Isotherm type: excess
Temperature: 298 K
Tabular data in the source: 0
pressure (bar)	uptake (g/g)
0.001305	0.010454
0.002288	0.015956
0.002916	0.017056
0.003512	0.020908
0.005123	0.02751
0.006718	0.034113
0.007927	0.039615
0.012438	0.058872
0.015676	0.084732
0.018737	0.255846
0.021992	0.69381
0.025085	0.708116
0.02834	0.729023
