Adsorption isotherm of Water on MCM-C14
DOI: 10.1007/s10450-016-9829-2
Article source: Figure 4
Adsorbate Water: InChIKey XLYOFNOQVPJJNP-UHFFFAOYSA-N
Kind: experiment
Isotherm type: excess
Temperature: 298 K
Tabular data in the source: 0
pressure (bar)	uptake (g/g)
0.001224	0.006052
0.002239	0.009354
0.002932	0.013205
0.003432	0.013755
0.00464	0.019257
0.006251	0.02751
0.00775	0.033012
0.009312	0.040715
0.010811	0.047868
0.015596	0.081981
0.018641	0.484182
0.022008	0.617331
0.025021	0.628886
0.028146	0.644292
