Adsorption isotherm of Nitrogen on Al-C16
DOI: 10.1007/s10450-016-9829-2
Article source: Figure 3
Adsorbate Nitrogen: InChIKey IJGRMHOSHXDMSA-UHFFFAOYSA-N
Kind: experiment
Isotherm type: excess
Temperature: 77 K
Tabular data in the source: 0
pressure (bar)	uptake (cm3(STP)/g)
0.005245	8.98042
0.005245	17.9608
0.00472	26.4686
0.005245	40.6482
0.005769	73.734
0.005769	86.023
0.005769	92.6401
0.011014	97.8393
0.017307	106.347
0.026747	115.327
0.034614	120.527
0.044579	127.144
0.063984	132.816
0.081815	140.378
0.10122	147.941
0.151568	169.21
0.203489	195.206
0.25541	221.202
0.305758	240.108
0.355057	255.706
0.405929	266.104
0.455753	272.248
0.506101	280.756
0.556973	287.373
0.608894	293.518
0.660815	299.662
0.710114	305.807
0.758364	313.369
0.810285	320.932
0.862207	333.221
0.910981	345.982
0.925141	353.072
0.962902	359.689
0.985978	365.361
0.987552	367.252
0.993845	372.451
0.997516	376.232
1.00224	381.904
1.00801	388.049
0.058739	137.542
0.073424	143.687
0.087584	148.413
0.100696	153.612
0.14947	172.519
0.200867	196.624
0.253312	224.038
0.302611	244.835
0.354008	258.542
0.404356	268.467
0.454704	279.338
0.504527	295.409
0.556973	302.026
0.605223	308.17
0.657144	313.842
0.708016	319.987
0.75784	328.494
0.81081	337.947
0.861682	345.037
0.909932	353.072
0.927239	355.908
0.962378	360.635
