Adsorption isotherm of Water on MCM-C16
DOI: 10.1007/s10450-016-9829-2
Article source: Figure S2
Adsorbate Water: InChIKey XLYOFNOQVPJJNP-UHFFFAOYSA-N
Kind: experiment
Temperature: 298 K
Tabular data in the source: 0
pressure (bar)	uptake (g/g)
0.000243	0.011248
0.001336	0.009842
0.002267	0.01406
0.002794	0.016872
0.003482	0.019684
0.005142	0.026714
0.006599	0.030931
0.007935	0.039367
0.009352	0.043585
0.01081	0.047803
0.012348	0.057645
0.015628	0.085764
0.018704	0.257293
0.021984	0.693146
0.025101	0.708612
0.0283	0.726889
