Adsorption isotherm of Nitrogen on MCM-C12
DOI: 10.1007/s10450-016-9829-2
Article source: Figure 3
Adsorbate Nitrogen: InChIKey IJGRMHOSHXDMSA-UHFFFAOYSA-N
Kind: experiment
Isotherm type: excess
Temperature: 77 K
Tabular data in the source: 0
pressure (bar)	uptake (cm3(STP)/g)
0.005245	118.163
0.006293	136.124
0.008916	156.448
0.013111	170.628
0.026747	189.061
0.030418	193.315
0.03409	199.46
0.041957	207.495
0.058739	219.784
0.069753	228.764
0.086011	239.163
0.099122	246.725
0.152092	294.463
0.205063	356.853
0.253837	390.885
0.302087	400.338
0.354008	407.427
0.40488	413.099
0.453655	417.826
0.506101	423.025
0.556448	426.806
0.607321	432.951
0.657144	436.259
0.705918	441.931
0.761511	446.658
0.809761	451.857
0.860633	457.056
0.910981	463.201
0.927239	466.982
0.961853	471.236
0.981783	476.435
0.988601	476.435
0.991747	478.798
0.996992	481.634
1.00171	483.525
1.00643	484.47
0.152092	296.826
0.199293	354.963
0.252264	391.83
0.352959	407.9
0.40488	413.572
0.454704	419.716
0.508198	423.97
0.607321	434.369
0.658193	437.205
0.708541	442.876
0.759413	448.548
0.81081	452.802
0.861682	458.474
0.908883	465.091
0.926715	468.872
0.962378	473.599
0.982832	477.38
