Adsorption isotherm of Water on MCM-C10
DOI: 10.1007/s10450-016-9829-2
Article source: Figure S2
Adsorbate Water: InChIKey XLYOFNOQVPJJNP-UHFFFAOYSA-N
Kind: experiment
Temperature: 298 K
Tabular data in the source: 0
pressure (bar)	uptake (g/g)
0.00119	0.018939
0.002291	0.028409
0.002776	0.030303
0.003305	0.041667
0.004715	0.0625
0.006257	0.085227
0.007667	0.098485
0.009209	0.119318
0.010884	0.172348
0.012294	0.403409
0.015422	0.88447
0.018374	0.920455
0.021679	0.94697
0.024587	0.971591
0.028289	0.99053
