Adsorption isotherm of Nitrogen on MCM-C16
DOI: 10.1007/s10450-016-9829-2
Article source: Figure 3
Adsorbate Nitrogen: InChIKey IJGRMHOSHXDMSA-UHFFFAOYSA-N
Kind: experiment
Isotherm type: excess
Temperature: 77 K
Tabular data in the source: 0
pressure (bar)	uptake (cm3(STP)/g)
0.005769	78.9332
0.006293	95.476
0.00472	105.402
0.006818	119.109
0.006818	132.816
0.007867	143.214
0.009965	163.065
0.018356	173.937
0.027796	187.171
0.037761	193.315
0.051921	204.659
0.06713	216.003
0.078144	225.456
0.087584	233.964
0.102269	237.745
0.15419	263.741
0.202965	287.373
0.254361	312.897
0.305234	369.615
0.354533	462.255
0.410125	502.903
0.455228	514.247
0.508198	524.173
0.557497	532.208
0.608894	537.88
0.659766	544.97
0.708541	551.114
0.759413	560.095
0.810285	568.602
0.862731	579.473
0.909932	591.762
0.927764	599.797
0.963427	608.305
0.989649	617.758
0.993845	622.485
0.996992	633.828
1.00014	637.61
1.00224	643.282
1.00433	654.625
0.203489	289.737
0.249117	312.897
0.30366	377.178
0.353484	464.146
0.404356	505.739
0.456802	521.337
0.506625	534.571
0.555399	541.188
0.606796	548.278
0.657668	554.423
0.709065	561.985
0.760462	570.966
0.810285	580.419
0.860109	590.344
0.911505	598.379
0.926715	602.161
0.961329	608.778
0.986503	617.286
