Adsorption isotherm of Water on Al-C14
DOI: 10.1007/s10450-016-9829-2
Article source: Figure 5
Adsorbate Water: InChIKey XLYOFNOQVPJJNP-UHFFFAOYSA-N
Kind: experiment
Isotherm type: excess
Temperature: 298 K
Tabular data in the source: 0
pressure (bar)	uptake (g/g)
0.000423	0.030748
0.00234	0.05928
0.003023	0.065097
0.003527	0.069806
0.005055	0.085319
0.006566	0.101662
0.008029	0.122161
0.009475	0.158172
0.010922	0.236288
0.012434	0.28615
0.015717	0.306094
0.018593	0.311911
0.022039	0.319668
0.024948	0.324377
0.028069	0.32964
