Adsorption isotherm of Water on Al-C14
DOI: 10.1007/s10450-016-9829-2
Article source: Figure S2
Adsorbate Water: InChIKey XLYOFNOQVPJJNP-UHFFFAOYSA-N
Kind: experiment
Temperature: 298 K
Tabular data in the source: 0
pressure (bar)	uptake (g/g)
0.000484	0.034326
0.001573	0.051489
0.002258	0.058844
0.002904	0.0662
0.003468	0.071103
0.005082	0.08704
0.006533	0.105429
0.008066	0.125044
0.009518	0.15937
0.01097	0.24028
0.012422	0.286865
0.015688	0.30648
0.018632	0.313835
0.02202	0.321191
0.024924	0.326095
0.02811	0.330998
