Adsorption isotherm of Nitrogen on MCM-C14
DOI: 10.1007/s10450-016-9829-2
Article source: Figure 3
Adsorbate Nitrogen: InChIKey IJGRMHOSHXDMSA-UHFFFAOYSA-N
Kind: experiment
Isotherm type: excess
Temperature: 77 K
Tabular data in the source: 0
pressure (bar)	uptake (cm3(STP)/g)
0.006293	12.289
0.006818	22.2147
0.006818	28.8319
0.006818	38.7576
0.007342	49.6286
0.006818	94.5307
0.007342	117.691
0.007342	125.253
0.006818	138.96
0.00944	151.249
0.016258	164.011
0.025174	177.718
0.032516	185.753
0.039859	194.733
0.046677	198.987
0.060312	208.44
0.076046	217.893
0.085486	224.51
0.10122	232.073
0.151568	260.432
0.20244	286.428
0.253837	358.271
0.305758	431.06
0.354533	443.822
0.406978	448.548
0.455753	453.747
0.506101	458.947
0.556973	462.728
0.607321	466.982
0.658193	471.708
0.70959	475.962
0.759413	479.743
0.810285	484.47
0.861158	489.669
0.910981	493.45
0.961853	501.013
0.990698	507.63
1.00014	511.884
0.20244	286.901
0.254886	371.033
0.304185	430.587
0.355582	445.24
0.45313	456.583
0.929337	497.704
0.962902	501.485
0.993845	511.884
