Adsorption isotherm of Water on Al-C10
DOI: 10.1007/s10450-016-9829-2
Article source: Figure 5
Adsorbate Water: InChIKey XLYOFNOQVPJJNP-UHFFFAOYSA-N
Kind: experiment
Isotherm type: excess
Temperature: 298 K
Tabular data in the source: 0
pressure (bar)	uptake (g/g)
0.00026	0.016343
0.001251	0.04626
0.002178	0.063158
0.002747	0.07036
0.003299	0.078116
0.004648	0.104432
0.006225	0.136011
0.007736	0.171745
0.00915	0.204155
0.010727	0.233241
0.012222	0.257341
0.015473	0.296399
0.018463	0.323823
0.02186	0.341274
0.024835	0.353463
0.028004	0.366205
