Adsorption isotherm of Water on MCM-C12
DOI: 10.1007/s10450-016-9829-2
Article source: Figure 4
Adsorbate Water: InChIKey XLYOFNOQVPJJNP-UHFFFAOYSA-N
Kind: experiment
Isotherm type: excess
Temperature: 298 K
Tabular data in the source: 0
pressure (bar)	uptake (g/g)
0.001289	0.001651
0.002143	0.004402
0.002803	0.006602
0.003319	0.008803
0.004866	0.014856
0.006316	0.022008
0.00783	0.02641
0.009216	0.034113
0.010795	0.040715
0.012406	0.05392
0.015612	0.256396
0.018673	0.508941
0.02204	0.521045
0.024972	0.53205
0.028179	0.537001
