Adsorption isotherm of Water on MCM-10
DOI: 10.1007/s10450-016-9829-2
Article source: Figure 4
Adsorbate Water: InChIKey XLYOFNOQVPJJNP-UHFFFAOYSA-N
Kind: experiment
Isotherm type: excess
Temperature: 298 K
Tabular data in the source: 0
pressure (bar)	uptake (g/g)
0.00464	0.024209
0.006235	0.033012
0.007653	0.037964
0.009216	0.047318
0.010778	0.067125
0.012277	0.164512
0.015467	0.366437
0.018383	0.377992
0.021686	0.388446
0.024618	0.397799
0.027889	0.409904
0.003448	0.019257
