Adsorption isotherm of Water on Al-C12
DOI: 10.1007/s10450-016-9829-2
Article source: Figure 6
Adsorbate Water: InChIKey XLYOFNOQVPJJNP-UHFFFAOYSA-N
Kind: experiment
Isotherm type: excess
Temperature: 298 K
Tabular data in the source: 0
pressure (bar)	uptake (g/g)
0.000439	0.02973
0.001545	0.04657
0.002455	0.056965
0.003008	0.06341
0.003545	0.067983
0.005057	0.085863
0.006472	0.108732
0.007984	0.150728
0.022148	0.283368
0.025043	0.2921
