Adsorption isotherm of Water on MCM-C14
DOI: 10.1007/s10450-016-9829-2
Article source: Figure S2
Adsorbate Water: InChIKey XLYOFNOQVPJJNP-UHFFFAOYSA-N
Kind: experiment
Temperature: 298 K
Tabular data in the source: 0
pressure (bar)	uptake (g/g)
0.000202	0.002452
0.001371	0.009807
0.002097	0.012259
0.002742	0.015937
0.003428	0.020841
0.004678	0.024518
0.00617	0.031874
0.007743	0.038004
0.009236	0.044133
0.010808	0.051489
0.01222	0.057618
0.015567	0.083363
0.018592	0.48669
0.02198	0.619089
0.024924	0.632574
0.02815	0.644834
