Adsorption isotherm of Oxygen on Zeolite 5A
DOI: 10.1002/aic.690370514
Adsorbate Oxygen: InChIKey MYMOFIZGZYHOMD-UHFFFAOYSA-N
Temperature: 203 K
Tabular data in the source: 0
pressure (bar)	uptake (molecules/cavity)
0.0941781	0.490976
0.496575	1.99181
1.00171	3.4387
1.9863	5.07894
2.97945	6.20152
3.99829	6.97002
