Adsorption isotherm of Argon on Zeolite 5A
DOI: 10.1002/aic.690370514
Adsorbate Argon: InChIKey XKRFYHLGVUSROY-UHFFFAOYSA-N
Temperature: 233 K
Tabular data in the source: 0
pressure (bar)	uptake (molecules/cavity)
0.102251	0.161816
0.178928	0.296802
0.255628	0.40454
0.332304	0.539526
0.409004	0.647264
0.553895	0.835631
0.630594	0.943369
0.707271	1.07836
0.783994	1.15884
0.860671	1.29383
0.937394	1.37432
1.05673	1.50861
1.13343	1.61635
1.21869	1.6967
1.29539	1.80444
1.37211	1.88492
1.44881	1.99266
1.53407	2.07301
1.61079	2.1535
1.68749	2.26124
1.8069	2.31378
1.87507	2.42166
1.96032	2.50201
2.03705	2.5825
2.11377	2.66299
2.19905	2.71609
2.27575	2.82383
2.361	2.90418
2.43773	2.98467
2.54853	3.1191
2.6253	3.14509
2.71058	3.19819
2.7873	3.27868
2.87256	3.35903
2.94928	3.43952
3.03456	3.49262
3.11129	3.57311
3.18801	3.6536
3.28182	3.70656
3.3671	3.75967
3.44382	3.84016
3.5291	3.89326
3.60582	3.97375
3.6911	4.02685
3.76785	4.08009
3.84457	4.16058
3.92983	4.24093
4.01511	4.29403
4.10039	4.34713
4.17713	4.40037
4.26241	4.45348
4.33916	4.50672
4.42444	4.55982
4.50116	4.64031
4.58644	4.69341
4.66321	4.7194
4.74849	4.7725
4.82523	4.82575
