Adsorption isotherm of Nitrogen on Zeolite 5A
DOI: 10.1002/aic.690370514
Adsorbate Nitrogen: InChIKey IJGRMHOSHXDMSA-UHFFFAOYSA-N
Temperature: 297 K
Tabular data in the source: 0
pressure (bar)	uptake (molecules/cavity)
0.051125	0.0814653
0.127824	0.190039
0.204523	0.298613
0.281246	0.379939
0.366477	0.488466
0.443223	0.542544
0.528478	0.623823
0.613733	0.705102
0.690479	0.75918
0.775733	0.840459
0.852479	0.894537
0.937757	0.948568
1.01455	0.94815
1.07418	1.05682
1.15944	1.1381
1.23618	1.19217
1.32146	1.2462
1.39821	1.30028
1.48349	1.35431
1.56023	1.40839
1.64551	1.46242
1.73081	1.48921
1.80756	1.54328
1.89284	1.59731
1.96114	1.54245
2.02931	1.65107
2.10605	1.70514
2.1828	1.75922
2.26808	1.81325
2.35338	1.84004
2.43012	1.89411
2.50689	1.92094
2.59219	1.94773
2.66894	2.0018
2.74571	2.02863
2.83099	2.08266
2.91629	2.10945
2.99306	2.13628
3.06983	2.16311
3.1551	2.21714
3.24041	2.24392
3.32571	2.2707
3.40248	2.29753
3.47925	2.32436
3.56455	2.35115
3.64132	2.37798
3.72659	2.43201
3.80336	2.45884
3.88013	2.48567
3.96543	2.51245
4.05073	2.53923
4.13604	2.56602
4.21278	2.62009
4.29811	2.61963
4.38341	2.64641
4.46869	2.70044
4.54545	2.72727
4.63076	2.75406
4.70752	2.78089
4.79283	2.80767
4.87813	2.83445
