Adsorption isotherm of Argon on Zeolite 5A
DOI: 10.1002/aic.690370514
Adsorbate Argon: InChIKey XKRFYHLGVUSROY-UHFFFAOYSA-N
Temperature: 233 K
Tabular data in the source: 0
pressure (bar)	uptake (molecules/cavity)
0.502746	0.781971
1.01409	1.48206
1.76426	2.28723
2.50585	3.14704
3.23918	3.68001
3.97244	4.29473
