Adsorption isotherm of Nitrogen on Zeolite 5A
DOI: 10.1002/aic.690370514
Adsorbate Nitrogen: InChIKey IJGRMHOSHXDMSA-UHFFFAOYSA-N
Temperature: 203 K
Tabular data in the source: 0
pressure (bar)	uptake (molecules/cavity)
0.0746067	2.5609
0.482166	4.902
0.984256	6.4524
1.97311	7.50968
2.97929	8.26714
4.00277	8.75203
