Adsorption isotherm of Oxygen on Zeolite 5A
DOI: 10.1002/aic.690370514
Adsorbate Oxygen: InChIKey MYMOFIZGZYHOMD-UHFFFAOYSA-N
Temperature: 297 K
Tabular data in the source: 0
pressure (bar)	uptake (molecules/cavity)
0.15411	0.0553357
0.239726	0.0830503
0.325342	0.110765
0.402397	0.165681
0.52226	0.166334
0.607877	0.221296
0.684932	0.248964
0.770548	0.276679
0.856164	0.304393
0.941781	0.30486
1.01884	0.278032
1.09589	0.360196
1.17295	0.387863
1.25856	0.415578
1.34418	0.443293
1.42123	0.47096
1.50685	0.498675
1.5839	0.526343
1.66952	0.554057
1.75514	0.581772
1.84075	0.609486
1.91781	0.637154
2.00342	0.610373
2.07192	0.665242
2.15753	0.692957
2.23459	0.720624
2.32021	0.748339
2.39726	0.776007
2.48288	0.803721
2.56849	0.831436
2.65411	0.85915
2.73116	0.886818
2.81678	0.914533
2.9024	0.942247
2.97945	0.915419
3.04795	0.997536
3.13356	0.998003
3.21918	1.02572
3.30479	1.05343
3.38185	1.0811
3.46747	1.10881
3.55308	1.13653
3.6387	1.16424
3.71575	1.19191
3.80137	1.19238
3.88699	1.22009
3.96404	1.19326
4.03253	1.24813
4.10959	1.2758
4.19521	1.30352
4.28082	1.33123
4.36644	1.35895
4.44349	1.38661
4.52911	1.38708
4.61473	1.41479
4.70034	1.44251
4.7774	1.44293
4.86301	1.47064
