Adsorption isotherm of Argon on Zeolite 5A
DOI: 10.1002/aic.690370514
Adsorbate Argon: InChIKey XKRFYHLGVUSROY-UHFFFAOYSA-N
Temperature: 297 K
Tabular data in the source: 0
pressure (bar)	uptake (molecules/cavity)
1.01502	0.392125
2.00454	0.675675
2.99409	0.931977
3.96652	1.24305
