Adsorption isotherm of Argon on Zeolite 5A
DOI: 10.1002/aic.690370514
Adsorbate Argon: InChIKey XKRFYHLGVUSROY-UHFFFAOYSA-N
Temperature: 203 K
Tabular data in the source: 0
pressure (bar)	uptake (molecules/cavity)
0.0510558	0.162653
0.0765371	0.298476
0.16156	0.65131
0.204014	0.895847
0.255023	1.113
0.306056	1.3029
0.357065	1.52005
0.416607	1.73706
0.476172	1.92682
0.527204	2.11672
0.595279	2.33359
0.654867	2.49611
0.714432	2.68587
0.782529	2.87549
0.842118	3.038
0.910239	3.20038
0.961271	3.39028
1.05506	3.47049
1.09754	3.68778
1.16566	3.85015
1.23378	4.01253
1.30192	4.14765
1.37004	4.31003
1.43819	4.44515
1.51486	4.58014
1.58298	4.74251
1.65966	4.8775
1.7278	5.01262
1.80448	5.14761
1.88116	5.2826
1.9493	5.41772
2.026	5.52546
2.10268	5.66045
2.17938	5.76818
2.29874	5.87522
2.35833	6.03774
2.43503	6.14548
2.52026	6.25307
2.59699	6.33356
2.67368	6.4413
2.75038	6.54904
2.83564	6.62939
2.91234	6.73713
2.98906	6.81762
3.07432	6.89797
3.15102	7.00571
3.22774	7.08619
3.313	7.16654
3.38972	7.24703
3.47498	7.32738
3.5517	7.40787
3.63698	7.46098
3.7137	7.54147
3.79898	7.59457
3.8757	7.67506
4.01225	7.64558
4.05475	7.83562
4.13149	7.88886
4.21677	7.94196
4.2935	8.02245
4.37878	8.07555
4.45552	8.12879
4.5408	8.18189
4.61752	8.26238
4.7028	8.31549
4.77955	8.36873
4.86483	8.42183
