Adsorption isotherm of Argon on Zeolite 5A
DOI: 10.1002/aic.690370514
Adsorbate Argon: InChIKey XKRFYHLGVUSROY-UHFFFAOYSA-N
Temperature: 297 K
Tabular data in the source: 0
pressure (bar)	uptake (molecules/cavity)
0.221753	0.105366
0.307055	0.13122
0.392357	0.157073
0.460595	0.183206
0.545897	0.209059
0.622666	0.235052
0.707969	0.260905
0.793271	0.286759
0.87004	0.312751
0.955319	0.365853
1.00647	0.419513
1.08328	0.391009
1.16859	0.416862
1.24536	0.442855
1.33066	0.468709
1.41596	0.494562
1.50126	0.520415
1.58656	0.546269
1.66333	0.572262
1.74864	0.598115
1.83394	0.623968
1.91071	0.649961
1.98745	0.703202
2.07278	0.701807
2.15808	0.727661
2.24338	0.753514
2.32869	0.779368
2.41399	0.805221
2.49078	0.803965
2.56755	0.829958
2.65285	0.855812
2.73816	0.881665
2.82346	0.907518
2.90023	0.933511
2.98555	0.932116
3.0623	0.985358
3.13907	1.01135
3.22439	1.00996
3.30114	1.0632
3.38647	1.0618
3.46324	1.08779
3.54854	1.11365
3.62531	1.13964
3.71061	1.16549
3.79594	1.1641
3.87268	1.21734
3.95798	1.24319
4.04331	1.2418
4.12861	1.26765
4.21391	1.29351
4.29068	1.3195
4.37599	1.34535
4.46129	1.37121
4.54659	1.39706
4.62336	1.42305
4.70866	1.4489
4.79396	1.47476
4.87927	1.50061
