Adsorption isotherm of Oxygen on Zeolite 5A
DOI: 10.1002/aic.690370514
Adsorbate Oxygen: InChIKey MYMOFIZGZYHOMD-UHFFFAOYSA-N
Temperature: 233 K
Tabular data in the source: 0
pressure (bar)	uptake (molecules/cavity)
0.0856164	0.136706
0.15411	0.273319
0.231164	0.382731
0.308219	0.492143
0.385274	0.601555
0.539384	0.765882
0.590753	0.92965
0.667808	1.03906
0.753425	1.14852
0.830479	1.25793
0.907534	1.36734
1.04452	1.53158
1.12158	1.64099
1.19863	1.72315
1.28425	1.83261
1.3613	1.91478
1.43836	2.02419
1.52397	2.1064
1.60103	2.18856
1.68664	2.27077
1.7637	2.38018
1.84075	2.4351
1.92637	2.51731
2.03767	2.62691
2.12329	2.70912
2.20034	2.79128
2.2774	2.87345
2.36301	2.92841
2.44007	3.01057
2.52568	3.09278
2.60274	3.1477
2.68836	3.20266
2.76541	3.28483
2.85103	3.33979
2.92808	3.3947
3.0137	3.47691
3.09075	3.53183
3.17637	3.58679
3.25342	3.64171
3.33904	3.69667
3.42466	3.75163
3.50171	3.8338
3.58733	3.88876
3.66438	3.94368
3.75	3.99864
3.82705	4.05355
3.91267	4.10852
4.0411	4.19096
4.12671	4.24592
4.20377	4.27359
4.28938	4.32855
4.36644	4.38347
4.45205	4.41118
4.53767	4.46615
4.61473	4.52106
4.70034	4.54878
4.78596	4.57649
4.86301	4.63141
