Adsorption isotherm of Nitrogen on Zeolite 5A
DOI: 10.1002/aic.690370514
Adsorbate Nitrogen: InChIKey IJGRMHOSHXDMSA-UHFFFAOYSA-N
Temperature: 233 K
Tabular data in the source: 0
pressure (bar)	uptake (molecules/cavity)
0.0166232	0.517621
0.0505205	0.789915
0.0758854	1.06226
0.109806	1.3073
0.143727	1.55235
0.177647	1.7974
0.228656	2.0151
0.279665	2.23281
0.339229	2.42322
0.390261	2.61368
0.517969	2.93996
0.58609	3.10307
0.654233	3.23894
0.722353	3.40206
0.799029	3.53788
0.867173	3.67375
1.02062	3.8364
1.07167	3.99961
1.14835	4.13543
1.22505	4.24401
1.30177	4.32533
1.37847	4.4339
1.46372	4.51518
1.54042	4.62376
1.62568	4.70504
1.7024	4.78636
1.77912	4.86769
1.8644	4.92172
2.0264	5.05708
2.10312	5.1384
2.17987	5.19248
2.26515	5.24651
2.34189	5.30059
2.42717	5.35462
2.51245	5.40865
2.5892	5.46273
2.66592	5.54405
2.7512	5.59809
2.8365	5.62487
2.91324	5.67895
3.01559	5.73289
3.10089	5.75967
3.18619	5.78645
3.26293	5.84053
3.34824	5.86731
3.43354	5.8941
3.51031	5.92092
3.59561	5.94771
3.68089	6.00174
3.75765	6.02857
3.84296	6.05535
3.91973	6.08218
4.03913	6.13603
4.12443	6.16281
4.20974	6.18959
4.2865	6.21642
4.36327	6.24325
4.44004	6.27008
4.52534	6.29686
4.60211	6.32369
4.68741	6.35048
4.76418	6.37731
4.84095	6.40414
