Adsorption isotherm of Nitrogen on Zeolite 5A
DOI: 10.1002/aic.690370514
Adsorbate Nitrogen: InChIKey IJGRMHOSHXDMSA-UHFFFAOYSA-N
Temperature: 233 K
Tabular data in the source: 0
pressure (bar)	uptake (molecules/cavity)
0.228982	1.63363
0.484002	2.74941
0.978002	3.78214
1.98386	4.92107
2.96439	5.73316
3.99635	6.2725
