Adsorption isotherm of Oxygen on Zeolite 5A
DOI: 10.1002/aic.690370514
Adsorbate Oxygen: InChIKey MYMOFIZGZYHOMD-UHFFFAOYSA-N
Temperature: 203 K
Tabular data in the source: 0
pressure (bar)	uptake (molecules/cavity)
0.167646	0.456522
0.255362	0.627717
0.350831	0.779891
0.479856	0.951087
0.668261	1.12228
0.859276	1.21739
