Adsorption isotherm of Oxygen on Zeolite 5A
DOI: 10.1002/aic.690370514
Adsorbate Oxygen: InChIKey MYMOFIZGZYHOMD-UHFFFAOYSA-N
Temperature: 203 K
Tabular data in the source: 0
pressure (bar)	uptake (molecules/cavity)
0.170108	0.779891
0.255194	1.08424
0.355798	1.3125
0.479638	1.54076
0.670555	1.90217
0.858869	2.32065
