Adsorption isotherm of Nitrogen on Zeolite 5A
DOI: 10.1002/aic.690370514
Adsorbate Nitrogen: InChIKey IJGRMHOSHXDMSA-UHFFFAOYSA-N
Temperature: 203 K
Tabular data in the source: 0
pressure (bar)	uptake (molecules/cavity)
0.0561181	1.84511
0.122893	2.7962
0.223364	3.38587
0.413965	4.60326
0.790445	5.83967
1.24471	6.18207
