Adsorption isotherm of Argon on Zeolite 5A
DOI: 10.1002/aic.690370514
Adsorbate Argon: InChIKey XKRFYHLGVUSROY-UHFFFAOYSA-N
Temperature: 203 K
Tabular data in the source: 0
pressure (bar)	uptake (molecules/cavity)
0.110505	0.488657
1.00393	3.38958
2.25613	5.82143
3.96963	7.59178
