Adsorption isotherm of Oxygen on Zeolite 5A
DOI: 10.1002/aic.690370514
Adsorbate Oxygen: InChIKey MYMOFIZGZYHOMD-UHFFFAOYSA-N
Temperature: 233 K
Tabular data in the source: 0
pressure (bar)	uptake (molecules/cavity)
0.145548	0.545752
0.179795	0.791171
0.231164	1.00943
0.282534	1.2277
0.333904	1.44596
0.393836	1.63702
0.445205	1.82804
0.539384	2.01929
0.57363	2.26471
0.625	2.45572
0.693493	2.64683
0.753425	2.83789
0.813356	3.00171
0.881849	3.19282
0.941781	3.35663
1.04452	3.43893
1.07877	3.68435
1.14726	3.82097
1.21575	3.98483
1.29281	4.12149
1.3613	4.28535
1.42979	4.44921
1.49829	4.58582
1.57534	4.69523
1.6524	4.83189
1.72945	4.96855
1.80651	5.07796
1.88356	5.21462
1.96062	5.32404
2.03767	5.43345
2.11473	5.54286
2.19178	5.62502
2.2774	5.73448
2.35445	5.81665
2.43151	5.92606
2.51712	6.00827
2.59418	6.09043
2.67123	6.19984
2.75685	6.25481
2.8339	6.36422
2.91952	6.41918
2.99658	6.50134
3.07363	6.58351
3.15925	6.66572
3.2363	6.72063
3.32192	6.80284
3.39897	6.85776
3.48459	6.93997
3.56164	6.99489
3.64726	7.0771
3.72432	7.13201
3.80137	7.18693
3.88699	7.24189
3.96404	7.29681
4.04966	7.35177
4.12671	7.43393
4.21233	7.46165
4.29795	7.51661
4.375	7.57153
4.46062	7.59924
4.53767	7.65416
4.62329	7.70912
4.7089	7.76408
4.78596	7.79175
4.86301	7.81942
