Adsorption isotherm of Nitrogen on Zeolite 5A
DOI: 10.1002/aic.690370514
Adsorbate Nitrogen: InChIKey IJGRMHOSHXDMSA-UHFFFAOYSA-N
Temperature: 203 K
Tabular data in the source: 0
pressure (bar)	uptake (molecules/cavity)
0.0248302	0.899047
0.0414766	1.38942
0.066702	1.82525
0.074816	2.31567
0.108434	2.91494
0.133799	3.18728
0.159187	3.43238
0.193108	3.67742
0.227005	3.94972
0.260949	4.16752
0.311935	4.41247
0.362944	4.63017
0.413952	4.84788
0.490489	5.14719
0.550053	5.3376
0.609618	5.52801
0.677738	5.69113
0.737326	5.85429
0.813978	6.01736
0.882122	6.15323
0.941686	6.34364
1.03545	6.45212
1.11215	6.5607
1.18883	6.69652
1.26555	6.77784
1.35078	6.88637
1.4275	6.9677
1.5042	7.07627
1.58946	7.15755
1.66618	7.23888
1.7429	7.3202
1.82816	7.40148
1.90488	7.48281
2.02426	7.5639
2.10101	7.61798
2.18626	7.69926
2.27154	7.75329
2.34829	7.80737
2.43354	7.88865
2.51031	7.91548
2.59559	7.96951
2.68087	8.02354
2.75761	8.07762
2.84289	8.13165
2.91966	8.15848
3.02196	8.26691
3.09877	8.23924
3.17552	8.29332
3.26082	8.3201
3.3461	8.37414
3.42287	8.40097
3.50817	8.42775
3.59347	8.45453
3.67024	8.48136
3.74701	8.50819
3.83231	8.53497
3.91761	8.56176
4.04546	8.72455
4.10528	8.61523
4.19058	8.64201
4.26735	8.66884
4.35265	8.69563
4.43797	8.69516
4.52327	8.72194
4.60858	8.74873
4.68535	8.77556
4.77065	8.80234
4.85595	8.82912
