Adsorption isotherm of Hydrogen on Mg-MOF-74
DOI: 10.1021/Jp508249c
Adsorbate Hydrogen: InChIKey UFHFLCQGNIYNRP-UHFFFAOYSA-N
Temperature: 77 K
Tabular data in the source: 0
pressure (bar)	uptake (mg/g)
0.00753809	0.760273
0.0489121	3.57123
0.101517	6.30434
0.202892	10.3244
0.405441	15.1667
0.605994	18.0295
0.808344	19.6739
1.01444	21.3176
