Adsorption isotherm of Hydrogen on Mg-MOF-74
DOI: 10.1021/Jp508249c
Adsorbate Hydrogen: InChIKey UFHFLCQGNIYNRP-UHFFFAOYSA-N
Temperature: 77 K
Tabular data in the source: 0
pressure (bar)	uptake (mg/g)
0.00569872	1.29355
0.00807042	9.28811
0.0176237	12.3323
0.0308225	13.777
0.0552477	15.0677
0.0984468	17.117
0.199664	18.6244
0.407689	21.1816
0.606308	23.0549
0.808629	24.2423
1.01471	25.7338
