Adsorption isotherm of Hydrogen on Mg-MOF-74
DOI: 10.1021/Jp508249c
Adsorbate Hydrogen: InChIKey UFHFLCQGNIYNRP-UHFFFAOYSA-N
Temperature: 77 K
Tabular data in the source: 0
pressure (bar)	uptake (mg/g)
0.00388312	2.20753
0.0039354	3.04509
0.00571773	1.59811
0.00586507	3.9585
0.00596489	5.55747
0.00603618	6.69959
0.00627858	10.5828
0.00634036	11.5726
0.00641641	12.7909
0.00797536	7.76528
0.0080419	8.83126
0.00810844	9.89724
0.0120866	13.6276
0.01962	14.3117
0.0346344	14.8424
0.0534083	15.601
0.0740311	15.9786
0.0890218	16.1286
0.105895	16.4306
0.122767	16.7326
0.13964	17.0346
0.156508	17.2604
0.175249	17.486
0.192122	17.788
0.20899	18.0139
0.22773	18.2394
0.244598	18.4653
0.263334	18.6147
0.278334	18.917
0.29707	19.0664
0.313938	19.2923
0.332679	19.5179
0.349547	19.7437
0.368283	19.8932
0.385146	20.0429
0.402014	20.2687
0.42075	20.4182
0.437613	20.5679
0.456349	20.7173
0.473213	20.867
0.491949	21.0165
0.508817	21.2423
0.527553	21.3917
0.544416	21.5415
0.565024	21.6906
0.581888	21.8403
0.598751	21.99
0.617482	22.0633
0.636218	22.2128
0.653081	22.3625
0.671817	22.5119
0.688681	22.6616
0.707412	22.7349
0.726148	22.8843
0.743011	23.0341
0.759874	23.1838
0.77861	23.3332
0.797341	23.4065
0.816072	23.4798
0.831063	23.6298
0.849799	23.7792
0.86853	23.8525
0.885389	23.9261
0.904125	24.0755
0.920988	24.2252
0.937851	24.3749
0.956582	24.4482
0.975313	24.5215
0.992172	24.5951
