Adsorption isotherm of Hydrogen on Mg-MOF-74
DOI: 10.1021/Jp508249c
Adsorbate Hydrogen: InChIKey UFHFLCQGNIYNRP-UHFFFAOYSA-N
Temperature: 77 K
Tabular data in the source: 0
pressure (bar)	uptake (mg/g)
0.00944876	1.36912
0.0490309	5.47477
0.0979525	9.19828
0.199365	13.8275
0.407561	19.1258
0.60627	22.4457
0.804898	24.4713
1.01096	25.5821
