Adsorption isotherm of Nitrogen on ELM-11 (100 cycles)
DOI: 10.1021/acsami.5b05456
Article source: Figure 3b
Adsorbate Nitrogen: InChIKey IJGRMHOSHXDMSA-UHFFFAOYSA-N
Kind: experiment
Temperature: 77 K
Tabular data in the source: 0
pressure (bar)	uptake (cm3(STP)/g)
0.004843	0.004843
0.007264	211.336
0.014528	224.696
0.016949	4.8583
0.026634	227.126
0.029056	9.7166
0.033898	229.555
0.038741	15.7895
0.041162	15.7895
0.046005	230.769
0.053269	230.769
0.058111	23.0769
0.067797	233.198
0.077482	59.5142
0.079903	233.198
0.09201	66.8016
0.096852	233.198
0.108959	83.8057
0.11138	233.198
0.118644	91.0931
0.121065	234.413
0.130751	99.5951
0.135593	100.81
0.140436	103.239
0.145278	105.668
0.150121	235.628
0.157385	111.741
0.16707	234.413
0.174334	235.628
0.176755	119.028
0.181598	119.028
0.196126	122.672
0.20339	125.101
0.208232	236.842
0.22276	129.96
0.256659	142.105
0.25908	238.057
0.273608	149.393
0.300242	157.895
0.309927	239.271
0.322034	163.968
0.353511	173.684
0.358354	239.271
0.372881	177.328
0.401937	185.83
0.409201	238.057
0.423729	189.474
0.438257	239.271
0.440678	194.332
0.457627	239.271
0.46247	197.976
0.48184	201.619
0.503632	205.263
0.554479	212.551
0.556901	241.7
0.59322	240.486
0.602906	217.409
0.607748	241.7
0.619855	218.623
0.651332	223.482
0.656174	241.7
0.702179	225.911
0.707022	242.915
0.750605	230.769
0.760291	242.915
0.803874	233.198
0.808717	242.915
0.8523	236.842
0.861985	245.344
0.903148	239.271
0.951574	242.915
0.958838	247.773
0.983051	248.988
