Adsorption isotherm of N-Butane on MIL-53
DOI: 10.1021/acsami.5b05456
Article source: Figure 1b
Adsorbate N-Butane: InChIKey IJDNQMDRQITEOD-UHFFFAOYSA-N
Kind: experiment
Temperature: 298 K
Tabular data in the source: 0
pressure (bar)	uptake (cm3(STP)/g)
0	10.137
0	20.7373
0.00266	51.6141
0.005319	44.7029
0.007979	46.0866
0.010638	47.0095
0.013298	53.4623
0.015957	48.3945
0.018617	54.8473
0.021277	53.9269
0.026596	50.2427
0.031915	51.1668
0.034575	54.8546
0.039894	52.0921
0.047872	52.5566
0.050532	56.7053
0.058511	53.0224
0.06383	53.4856
0.066489	56.7127
0.071808	53.9501
0.077128	57.6392
0.079787	57.6405
0.087766	57.6441
0.090426	54.8804
0.093085	58.1074
0.095745	57.6478
0.103723	55.3473
0.109043	58.5756
0.114362	55.8131
0.117021	58.1184
0.125	56.7396
0.130319	58.1246
0.143617	56.7482
0.146277	59.0536
0.151596	57.2127
0.162234	57.2176
0.164894	59.0622
0.178191	58.1466
0.18883	58.1515
0.191489	59.5352
0.204787	58.1589
0.220745	60.4704
0.223404	58.1675
0.234043	58.6332
0.239362	60.9398
0.24734	58.6393
0.25266	61.8676
0.257979	58.6442
0.260638	63.2538
0.268617	65.1007
0.271277	59.1112
0.276596	68.7911
0.281915	72.941
0.287234	59.1185
0.289894	76.6313
0.292553	82.1625
0.305851	85.3944
0.316489	86.321
0.321809	59.5953
0.335106	87.2512
0.345745	60.0672
0.351064	87.2586
0.364362	87.7255
0.367021	60.077
0.37766	60.0819
0.380319	88.1937
0.396277	61.0121
0.404255	88.6656
0.406915	63.3212
0.414894	65.1682
0.422872	88.6741
0.425532	67.4772
0.433511	71.6283
0.444149	89.6056
0.454787	77.6289
0.465426	79.4772
0.468085	90.0775
0.478723	82.7091
0.484043	90.0848
0.489362	83.6357
0.50266	85.0243
0.510638	90.5579
0.515957	86.8737
0.526596	87.8003
0.534574	88.2648
0.550532	89.1938
0.56117	90.1204
0.577128	89.6669
0.587766	91.0543
0.619681	91.5298
0.643617	91.5408
0.648936	90.6216
0.675532	91.0947
0.712766	92.0335
0.739362	92.0458
0.744681	91.5874
0.757979	91.5935
0.776596	92.0629
0.795213	91.6107
0.81383	92.0801
0.851064	93.0189
0.869681	92.5667
0.893617	93.0385
0.914894	93.0483
0.933511	93.0569
0.957447	92.6071
0.981383	93.079
0.989362	93.0827
0.99734	92.6255
