Adsorption isotherm of N-Butane on SNU-9
DOI: 10.1021/acsami.5b05456
Article source: Figure 7b
Adsorbate N-Butane: InChIKey IJDNQMDRQITEOD-UHFFFAOYSA-N
Kind: experiment
Temperature: 298 K
Tabular data in the source: 0
pressure (bar)	uptake (cm3(STP)/g)
0.002674	0.26738
0.005348	12.6027
0.008021	5.75342
0.010695	27.9452
0.013369	31.7808
0.016043	32.8767
0.018717	33.4247
0.024064	33.9726
0.026738	34.2466
0.032086	34.7945
0.040107	34.2466
0.042781	35.0685
0.053476	34.5205
0.05615	35.6164
0.064171	34.7945
0.072193	36.1644
0.080214	35.3425
0.085561	36.4384
0.096257	35.3425
0.098931	36.4384
0.112299	36.4384
0.122995	35.6164
0.128342	36.7123
0.131016	35.8904
0.141711	36.7123
0.144385	35.8904
0.157754	36.7123
0.160428	35.8904
0.168449	35.8904
0.181818	36.4384
0.184492	36.7123
0.192513	36.4384
0.197861	36.7123
0.203209	36.4384
0.213904	37.2603
0.227273	38.3562
0.237968	39.726
0.245989	36.7123
0.248663	41.3699
0.259358	36.7123
0.270053	45.2055
0.278075	36.7123
0.283422	48.4932
0.28877	50.6849
0.294118	36.9863
0.299465	53.9726
0.307487	36.9863
0.318182	37.2603
0.323529	55.8904
0.334225	56.4384
0.347594	38.6301
0.355615	56.4384
0.360963	41.6438
0.36631	56.4384
0.368984	44.1096
0.379679	46.5753
0.387701	56.7123
0.393048	48.7671
0.398396	51.2329
0.414439	57.2603
0.417112	53.6986
0.427807	57.2603
0.430481	55.0685
0.44385	56.1644
0.451872	57.5342
0.470588	57.2603
0.491979	57.8082
0.494652	57.5342
0.513369	58.0822
0.518717	58.0822
0.542781	58.3562
0.564171	58.6301
0.574866	58.6301
0.590909	59.1781
0.593583	58.6301
0.614973	59.1781
0.628342	58.9041
0.65508	59.4521
0.681818	60
0.684492	59.726
0.716578	60
0.719251	59.726
0.751337	60.274
0.756684	60
0.783422	60.5479
0.786096	60.274
0.815508	60.5479
0.828877	60.5479
0.860963	60.5479
0.868984	60.8219
0.898396	60.8219
0.906417	60.8219
0.938503	61.0959
0.949198	61.0959
0.983957	61.0959
0.991979	61.0959
