Adsorption isotherm of Nitrogen on ELM-11 (10 cycles)
DOI: 10.1021/acsami.5b05456
Article source: Figure 3b
Adsorbate Nitrogen: InChIKey IJGRMHOSHXDMSA-UHFFFAOYSA-N
Kind: experiment
Temperature: 77 K
Tabular data in the source: 0
pressure (bar)	uptake (cm3(STP)/g)
0	131.174
0.004843	182.186
0.007264	204.049
0.012106	227.126
0.014528	2.42915
0.016949	229.555
0.021792	24.2915
0.024213	231.984
0.026634	47.3684
0.029056	231.984
0.038741	59.5142
0.041162	234.413
0.043583	61.9433
0.053269	235.628
0.058111	63.1579
0.067797	235.628
0.072639	63.1579
0.077482	69.2308
0.082324	238.057
0.089588	75.3036
0.096852	238.057
0.099274	83.8057
0.108959	88.664
0.11138	238.057
0.118644	94.7368
0.121065	238.057
0.128329	100.81
0.135593	106.883
0.1477	111.741
0.150121	240.486
0.159806	116.599
0.164649	240.486
0.16707	119.028
0.174334	240.486
0.176755	122.672
0.186441	126.316
0.193705	128.745
0.200969	132.389
0.210654	241.7
0.22276	139.676
0.251816	150.607
0.25908	242.915
0.273608	156.68
0.302663	167.611
0.307506	242.915
0.322034	172.47
0.353511	178.543
0.358354	242.915
0.372881	183.401
0.401937	193.117
0.40678	245.344
0.423729	195.547
0.435835	244.13
0.443099	199.19
0.460048	244.13
0.46247	202.834
0.484262	207.692
0.503632	207.692
0.508475	246.559
0.554479	218.623
0.559322	247.773
0.59322	246.559
0.602906	222.267
0.607748	246.559
0.617433	224.696
0.653753	228.34
0.658596	247.773
0.702179	233.198
0.7046	246.559
0.750605	235.628
0.755448	247.773
0.801453	239.271
0.808717	247.773
0.8523	241.7
0.859564	248.988
0.903148	246.559
0.905569	250.202
0.949153	248.988
0.953995	252.632
0.985472	252.632
