Adsorption isotherm of Nitrogen on MIL-53
DOI: 10.1021/acsami.5b05456
Article source: Figure 1b
Adsorbate Nitrogen: InChIKey IJGRMHOSHXDMSA-UHFFFAOYSA-N
Kind: experiment
Temperature: 77 K
Tabular data in the source: 0
pressure (bar)	uptake (cm3(STP)/g)
0	-0.002667
0	78.1818
0.002667	309.091
0.008	338.182
0.010667	332.727
0.016	338.182
0.024	343.636
0.029333	347.273
0.032	341.818
0.042667	341.818
0.045333	347.273
0.053333	349.091
0.064	345.455
0.069333	350.909
0.072	345.455
0.08	345.455
0.082667	352.727
0.088	352.727
0.098667	347.273
0.101333	347.273
0.104	352.727
0.109333	352.727
0.122667	352.727
0.125333	347.273
0.133333	352.727
0.138667	347.273
0.157333	354.545
0.16	347.273
0.168	356.364
0.178667	356.364
0.186667	352.727
0.197333	352.727
0.210667	356.364
0.224	350.909
0.253333	354.545
0.261333	356.364
0.274667	354.545
0.301333	354.545
0.314667	358.182
0.322667	354.545
0.352	356.364
0.365333	358.182
0.376	356.364
0.405333	356.364
0.410667	360
0.426667	356.364
0.442667	360
0.445333	358.182
0.464	361.818
0.466667	358.182
0.485333	358.182
0.506667	358.182
0.514667	361.818
0.557333	360
0.562667	361.818
0.6	363.636
0.613333	363.636
0.624	361.818
0.658667	361.818
0.666667	361.818
0.704	361.818
0.714667	363.636
0.754667	361.818
0.765333	363.636
0.805333	363.636
0.816	363.636
0.856	363.636
0.866667	365.455
0.904	365.455
0.914667	363.636
0.952	370.909
0.970667	376.364
0.986667	390.909
