Adsorption isotherm of Nitrogen on MIL-53 (10 cycles)
DOI: 10.1021/acsami.5b05456
Article source: Figure 1b
Adsorbate Nitrogen: InChIKey IJGRMHOSHXDMSA-UHFFFAOYSA-N
Kind: experiment
Temperature: 77 K
Tabular data in the source: 0
pressure (bar)	uptake (cm3(STP)/g)
0	54.5455
0	109.091
0.010667	316.364
0.034667	323.636
0.066667	329.091
0.088	327.273
0.104	329.091
0.130667	330.909
0.149333	330.909
0.165333	332.727
0.184	330.909
0.213333	330.909
0.237333	332.727
0.264	334.545
0.285333	334.545
0.312	332.727
0.330667	332.727
0.368	334.545
0.386667	334.545
0.413333	336.364
0.437333	334.545
0.461333	336.364
0.488	336.364
0.514667	336.364
0.538667	336.364
0.562667	338.182
0.586667	338.182
0.637333	338.182
0.688	338.182
0.738667	340
0.786667	340
0.842667	341.818
0.890667	343.636
0.938667	345.455
0.96	347.273
0.981333	350.909
