Adsorption isotherm of Nitrogen on DUT-8(Ni) (100 cycles)
DOI: 10.1021/acsami.5b05456
Article source: Figure 5b
Adsorbate Nitrogen: InChIKey IJGRMHOSHXDMSA-UHFFFAOYSA-N
Kind: experiment
Temperature: 77 K
Tabular data in the source: 0
pressure (bar)	uptake (cm3(STP)/g)
0	0
0.005038	30.4147
0.007557	80.1843
0.010076	165.899
0.015113	406.452
0.020151	16.5899
0.02267	436.866
0.030227	19.3548
0.032746	447.926
0.035264	19.3548
0.052897	16.5899
0.055416	456.221
0.057934	16.5899
0.062972	16.5899
0.073048	464.516
0.085642	467.281
0.088161	16.5899
0.098237	470.046
0.103275	16.5899
0.11335	16.5899
0.120907	475.576
0.123426	16.5899
0.130982	19.3548
0.141058	478.341
0.143577	19.3548
0.156171	19.3548
0.166247	22.1198
0.173804	483.871
0.176322	22.1198
0.18136	483.871
0.186398	22.1198
0.196474	22.1198
0.201511	22.1198
0.216625	486.636
0.2267	24.8848
0.254408	27.6498
0.264484	492.166
0.274559	27.6498
0.299748	33.1797
0.314861	494.931
0.322418	33.1797
0.350126	44.2396
0.365239	497.696
0.367758	47.0046
0.403023	63.5945
0.418136	497.696
0.420655	74.6544
0.440806	91.2442
0.448363	503.226
0.460957	113.364
0.463476	503.226
0.481108	135.484
0.498741	160.369
0.513854	505.991
0.534005	196.313
0.549118	215.668
0.566751	505.991
0.586902	251.613
0.599496	268.203
0.602015	508.756
0.617128	508.756
0.619647	287.558
0.649874	315.207
0.664987	514.286
0.685139	345.622
0.702771	364.977
0.715365	511.521
0.745592	392.627
0.75063	409.217
0.765743	514.286
0.806045	439.631
0.81864	517.051
0.848866	461.751
0.866499	517.051
0.901763	481.106
0.916877	522.581
0.949622	503.226
0.969773	525.346
0.987406	522.581
