Adsorption isotherm of Nitrogen on SNU-9 (10 cycles)
DOI: 10.1021/acsami.5b05456
Article source: Figure 7b
Adsorbate Nitrogen: InChIKey IJGRMHOSHXDMSA-UHFFFAOYSA-N
Kind: experiment
Temperature: 77 K
Tabular data in the source: 0
pressure (bar)	uptake (cm3(STP)/g)
0	135.565
0.008163	148.117
0.014058	5.02092
0.033971	161.925
0.035135	11.2971
0.046876	18.8285
0.052692	165.69
0.063299	27.6151
0.077367	33.8912
0.083086	168.201
0.089117	42.6778
0.101807	171.967
0.110204	50.2092
0.120488	170.711
0.133657	61.5063
0.1392	173.222
0.160228	173.222
0.164109	71.5481
0.17583	76.569
0.181265	174.477
0.206966	174.477
0.208618	86.6109
0.232667	174.477
0.236705	92.887
0.256032	174.477
0.262464	100.418
0.281742	175.732
0.283522	104.184
0.307453	176.987
0.318627	111.715
0.326145	176.987
0.339684	115.481
0.354182	176.987
0.367751	119.247
0.382229	178.243
0.391145	123.013
0.403257	178.243
0.416875	126.778
0.431295	178.243
0.440259	129.289
0.452333	179.498
0.463663	134.31
0.48037	179.498
0.49172	136.82
0.501408	180.753
0.512777	140.586
0.534118	180.753
0.540844	144.351
0.555146	180.753
0.566564	146.862
0.583183	180.753
0.592295	150.628
0.608894	182.008
0.615669	151.883
0.632259	182.008
0.646072	155.649
0.65796	182.008
0.664773	156.904
0.681324	182.008
0.69283	159.414
0.707035	183.264
0.720887	161.925
0.730409	184.519
0.741935	164.435
0.758437	183.264
0.770002	168.201
0.781801	183.264
0.795712	169.456
0.807502	183.264
0.819087	170.711
0.82854	184.519
0.844787	170.711
0.856577	184.519
0.868191	175.732
0.877605	184.519
0.896228	175.732
0.905633	183.264
0.921939	176.987
0.928997	183.264
0.94066	180.753
0.952372	184.519
0.968717	183.264
0.987428	185.774
