Adsorption isotherm of N-Butane on DUT-8(Ni) (100 cycles)
DOI: 10.1021/acsami.5b05456
Article source: Figure 5b
Adsorbate N-Butane: InChIKey IJDNQMDRQITEOD-UHFFFAOYSA-N
Kind: experiment
Temperature: 298 K
Tabular data in the source: 0
pressure (bar)	uptake (cm3(STP)/g)
0.037594	1.05967
0.067669	0.069109
0.090226	1.11342
0.097744	1.1211
0.120301	1.14414
0.137845	1.16205
0.160401	1.18509
0.172932	1.19789
0.185464	1.21069
0.225564	3.29419
0.250627	4.34107
0.275689	3.34538
0.298246	3.36842
0.318296	4.41017
0.348371	5.46217
0.378446	5.49288
0.403509	5.51848
0.431078	6.56791
0.458647	12.7237
0.481203	17.8531
0.498747	21.9562
0.508772	10.7324
0.581454	29.1896
0.60401	23.0849
0.636591	25.1608
0.659148	42.5455
0.661654	27.2289
0.684211	30.3158
0.709273	32.3839
0.736842	34.4546
0.756892	55.9219
0.786967	38.5909
0.807018	58.0157
0.814536	41.6829
0.83208	60.0838
0.834586	44.7672
0.857143	60.1094
0.862155	46.8379
0.882206	61.1563
0.887218	48.9061
0.907268	61.1819
0.912281	51.9955
0.934837	61.21
0.937343	54.0637
0.962406	61.2382
0.964912	56.1344
0.977444	61.2536
0.984962	60.24
