Adsorption isotherm of Nitrogen on SNU-9 (100 cycles)
DOI: 10.1021/acsami.5b05456
Article source: Figure 7b
Adsorbate Nitrogen: InChIKey IJGRMHOSHXDMSA-UHFFFAOYSA-N
Kind: experiment
Temperature: 77 K
Tabular data in the source: 0
pressure (bar)	uptake (cm3(STP)/g)
7.8e-05	10.0418
0.000753	96.6527
0.010167	105.439
0.011761	10.0418
0.032808	12.5523
0.038273	114.226
0.049173	13.8075
0.056964	114.226
0.063211	16.318
0.079576	17.5732
0.089704	117.992
0.095951	20.0837
0.103723	117.992
0.107653	22.5941
0.13177	119.247
0.138056	26.3598
0.143462	120.502
0.15444	30.1255
0.162153	120.502
0.175488	32.636
0.180855	121.757
0.205891	36.4017
0.215911	123.013
0.233967	41.4226
0.234603	123.013
0.259688	43.9331
0.262631	121.757
0.280745	47.6987
0.285995	121.757
0.308812	51.4644
0.316379	123.013
0.334542	55.2301
0.337416	124.268
0.355609	60.251
0.363127	125.523
0.383657	61.5063
0.384145	124.268
0.411723	65.272
0.414519	124.268
0.435117	69.0377
0.435557	125.523
0.458511	72.8033
0.465931	125.523
0.484241	76.569
0.486959	125.523
0.507625	79.0795
0.515006	126.778
0.533346	81.59
0.536034	126.778
0.561412	85.3556
0.566408	126.778
0.584796	87.8661
0.592119	128.033
0.60819	91.6318
0.613156	129.289
0.636247	94.1423
0.638857	129.289
0.659631	96.6527
0.662222	129.289
0.685362	100.418
0.687923	129.289
0.711082	102.929
0.713624	129.289
0.734456	104.184
0.736998	130.544
0.762523	107.95
0.762699	130.544
0.785897	109.205
0.78839	129.289
0.809418	129.289
0.813954	111.715
0.835012	115.481
0.837465	130.544
0.860732	117.992
0.863166	130.544
0.884184	129.289
0.886443	119.247
0.912153	120.502
0.914568	130.544
0.937884	124.268
0.937923	129.289
0.958922	125.523
0.961297	130.544
0.982315	129.289
