Adsorption isotherm of N-Butane on SNU-9 (100 cycles)
DOI: 10.1021/acsami.5b05456
Article source: Figure 7b
Adsorbate N-Butane: InChIKey IJDNQMDRQITEOD-UHFFFAOYSA-N
Kind: experiment
Temperature: 298 K
Tabular data in the source: 0
pressure (bar)	uptake (cm3(STP)/g)
0	6.57534
0.002674	7.39726
0.005348	9.31507
0.010695	10.6849
0.013369	20.274
0.016043	20.8219
0.018717	13.6986
0.024064	15.0685
0.026738	16.4384
0.032086	17.8082
0.037433	18.6301
0.045455	21.0959
0.05615	20.8219
0.061497	21.3699
0.069519	21.9178
0.082888	22.4658
0.093583	21.9178
0.096257	23.2877
0.106952	23.2877
0.112299	22.1918
0.120321	23.5616
0.125668	23.0137
0.131016	23.8356
0.136364	23.8356
0.144385	24.6575
0.15508	24.1096
0.160428	26.8493
0.168449	28.4932
0.171123	24.1096
0.176471	30.411
0.184492	32.3288
0.18984	34.5205
0.192513	24.3836
0.197861	36.1644
0.203209	37.8082
0.205882	24.3836
0.213904	38.9041
0.216578	24.3836
0.224599	39.726
0.229947	24.3836
0.23262	40.274
0.240642	24.3836
0.245989	40.5479
0.251337	24.6575
0.262032	40.8219
0.270053	24.6575
0.280749	24.6575
0.294118	24.6575
0.307487	24.6575
0.31016	41.9178
0.320856	24.9315
0.326203	42.1918
0.328877	24.9315
0.339572	42.4658
0.350267	25.2055
0.352941	42.4658
0.368984	25.4795
0.382353	43.0137
0.385027	25.7534
0.393048	43.0137
0.403743	26.3014
0.409091	43.0137
0.417112	26.5753
0.427807	43.5616
0.441176	27.3973
0.451872	43.8356
0.457219	28.4932
0.473262	44.1096
0.475936	29.863
0.502674	31.5068
0.513369	32.3288
0.52139	44.3836
0.537433	34.5205
0.545455	44.9315
0.550802	36.4384
0.566845	45.2055
0.574866	38.6301
0.590909	45.7534
0.604278	41.6438
0.628342	46.0274
0.631016	43.0137
0.644385	44.1096
0.65508	46.3014
0.673797	45.7534
0.684492	46.8493
0.705882	46.8493
0.719251	46.8493
0.748663	47.3973
0.754011	47.1233
0.780749	48.2192
0.791444	47.6712
0.818182	48.7671
0.826203	48.2192
0.858289	49.0411
0.871658	48.7671
0.893048	49.3151
0.911765	49.589
0.935829	49.863
0.951872	49.589
0.97861	50.137
0.986631	50.137
0.997326	50.137
