Adsorption isotherm of N-Butane on SNU-9 (10 cycles)
DOI: 10.1021/acsami.5b05456
Article source: Figure 7b
Adsorbate N-Butane: InChIKey IJDNQMDRQITEOD-UHFFFAOYSA-N
Kind: experiment
Temperature: 298 K
Tabular data in the source: 0
pressure (bar)	uptake (cm3(STP)/g)
0.002674	2.73973
0.005348	3.56164
0.008021	9.58904
0.016043	13.6986
0.024064	15.3425
0.029412	17.2603
0.032086	18.6301
0.034759	19.726
0.040107	21.3699
0.045455	22.1918
0.053476	23.5616
0.058824	24.6575
0.066845	25.7534
0.07754	26.5753
0.082888	27.9452
0.088235	27.1233
0.101604	27.3973
0.109626	28.2192
0.114973	28.7671
0.131016	29.0411
0.13369	29.3151
0.147059	30.137
0.15508	30.9589
0.163102	31.7808
0.168449	32.8767
0.176471	29.589
0.179144	34.5205
0.18984	36.4384
0.192513	38.6301
0.205882	41.0959
0.213904	43.2877
0.221925	44.3836
0.229947	29.589
0.23262	46.0274
0.248663	47.1233
0.254011	29.589
0.264706	47.6712
0.26738	29.863
0.278075	48.2192
0.286096	29.863
0.299465	30.137
0.31016	49.0411
0.315508	30.137
0.328877	49.589
0.342246	49.589
0.34492	30.6849
0.355615	49.589
0.360963	30.6849
0.371658	49.863
0.379679	30.9589
0.390374	50.137
0.395722	31.7808
0.409091	50.137
0.411765	32.0548
0.427807	50.137
0.433155	32.6027
0.446524	33.6986
0.449198	50.411
0.467914	50.9589
0.470588	35.0685
0.494652	36.7123
0.5	50.9589
0.516043	38.3562
0.52139	51.5068
0.534759	40.274
0.540107	51.5068
0.550802	41.6438
0.566845	51.7808
0.580214	43.5616
0.593583	45.2055
0.601604	52.3288
0.614973	47.1233
0.622995	52.3288
0.63369	48.4932
0.652406	52.6027
0.663102	50.137
0.687166	52.8767
0.695187	51.7808
0.719251	53.1507
0.729947	52.8767
0.754011	52.8767
0.762032	53.4247
0.78877	53.4247
0.802139	53.6986
0.826203	53.6986
0.839572	53.9726
0.86631	53.9726
0.879679	54.5205
0.909091	54.2466
0.919786	54.5205
0.951872	54.5205
0.962567	54.7945
0.986631	54.7945
1.00267	54.5205
