Adsorption isotherm of Nitrogen on DUT-8(Ni) (10 cycles)
DOI: 10.1021/acsami.5b05456
Article source: Figure 5b
Adsorbate Nitrogen: InChIKey IJGRMHOSHXDMSA-UHFFFAOYSA-N
Kind: experiment
Temperature: 77 K
Tabular data in the source: 0
pressure (bar)	uptake (cm3(STP)/g)
0.007557	0.007557
0.012594	320.737
0.035264	470.046
0.060453	486.636
0.088161	497.696
0.105793	500.461
0.11335	13.8249
0.125945	505.991
0.13602	13.8249
0.146096	503.226
0.15869	13.8249
0.173804	508.756
0.176322	13.8249
0.188917	511.521
0.209068	514.286
0.211587	19.3548
0.231738	19.3548
0.236776	517.051
0.261965	22.1198
0.264484	517.051
0.287154	27.6498
0.289673	519.816
0.307305	30.4147
0.312343	519.816
0.335013	525.346
0.357683	41.4747
0.36272	525.346
0.382872	44.2396
0.387909	525.346
0.40806	52.5346
0.415617	525.346
0.433249	60.8295
0.438287	528.111
0.455919	69.1244
0.463476	528.111
0.483627	94.0092
0.488665	533.641
0.506297	121.659
0.513854	533.641
0.531486	163.134
0.539043	536.406
0.559194	207.373
0.561713	536.406
0.581864	248.848
0.589421	536.406
0.602015	293.088
0.61461	536.406
0.629723	323.502
0.63728	536.406
0.654912	353.917
0.664987	539.171
0.680101	384.332
0.687657	536.406
0.707809	400.922
0.712846	539.171
0.730479	428.571
0.740554	539.171
0.755668	439.631
0.763224	541.935
0.780856	456.221
0.788413	539.171
0.803526	470.046
0.813602	541.935
0.828715	483.871
0.836272	544.7
