Adsorption isotherm of N-Butane on MIL-53 (100 cycles)
DOI: 10.1021/acsami.5b05456
Article source: Figure 1b
Adsorbate N-Butane: InChIKey IJDNQMDRQITEOD-UHFFFAOYSA-N
Kind: experiment
Temperature: 298 K
Tabular data in the source: 0
pressure (bar)	uptake (cm3(STP)/g)
0	-0.265957
0	39.1705
0.00266	43.3192
0.010638	47.9312
0.015957	49.7769
0.045213	52.5554
0.06383	53.4856
0.085106	54.8779
0.114362	55.8131
0.146277	56.7494
0.154255	59.9789
0.170213	59.9863
0.18617	58.1503
0.210106	60.4655
0.212766	59.5451
0.231383	61.397
0.239362	59.5573
0.24734	62.326
0.257979	63.2525
0.265957	60.0304
0.276596	67.4086
0.281915	70.6368
0.284574	60.4998
0.289894	74.3271
0.297872	83.0866
0.303191	84.4715
0.305851	85.8552
0.31117	87.701
0.324468	88.168
0.327128	60.5194
0.332447	88.1716
0.343085	89.559
0.348404	60.5292
0.356383	89.5652
0.367021	61.4595
0.37234	61.4619
0.375	90.0346
0.382979	61.9276
0.385638	90.5003
0.388298	62.3909
0.398936	62.3958
0.406915	90.9709
0.409574	64.7049
0.417553	67.0127
0.422872	68.3976
0.433511	91.444
0.43617	72.0904
0.441489	74.8578
0.446809	77.1644
0.452128	78.5494
0.454787	91.4538
0.465426	80.8596
0.473404	82.7066
0.476064	92.8461
0.481383	83.632
0.492021	85.941
0.49734	92.8559
0.50266	86.8676
0.505319	87.7905
0.521277	88.2587
0.523936	92.8682
0.547872	93.34
0.574468	93.3523
0.598404	93.3633
0.609043	93.3682
0.625	93.8364
0.635638	94.3021
0.656915	94.3119
0.662234	94.3144
0.694149	94.3291
0.723404	94.3426
0.728723	94.8059
0.75266	94.8169
0.765957	94.823
0.795213	95.2973
0.797872	95.2986
0.824468	94.85
0.835106	95.3157
0.869681	95.7925
0.875	95.7949
0.912234	96.2729
0.957447	96.7546
0.994681	97.2326
1.00532	97.2375
