Adsorption isotherm of N-Butane on ELM-11 (100 cycles)
DOI: 10.1021/acsami.5b05456
Article source: Figure 3b
Adsorbate N-Butane: InChIKey IJDNQMDRQITEOD-UHFFFAOYSA-N
Kind: experiment
Temperature: 298 K
Tabular data in the source: 0
pressure (bar)	uptake (cm3(STP)/g)
0.002645	0
0.017096	36.9721
0.026455	0
0.046407	43.3466
0.047619	0
0.057031	44.6215
0.066148	0.318725
0.067687	46.8526
0.076741	0.63745
0.083634	49.0837
0.099559	50.6773
0.105841	0.63745
0.11909	1.2749
0.123432	52.5896
0.135353	13.0677
0.136691	53.5458
0.146462	29.004
0.149961	54.8207
0.154725	38.8845
0.168258	48.1275
0.168501	55.4582
0.173644	50.996
0.179114	56.4143
0.186924	52.5896
0.200204	54.1833
0.221495	58.008
0.232024	56.4143
0.26122	59.2829
0.274437	58.9641
0.29032	59.2829
0.308849	59.6016
0.319431	59.6016
0.33268	60.239
0.367082	60.5578
0.388256	60.8765
0.420024	61.5139
0.438553	61.8327
0.459717	61.8327
0.478256	62.4701
0.502066	62.4701
0.520605	63.1076
0.568235	63.4263
0.568246	63.745
0.600002	64.0637
0.626457	64.0637
0.64233	64.0637
0.668806	64.7012
0.674087	64.3825
0.727007	64.7012
0.771991	65.0199
0.774637	65.0199
0.827557	65.3386
0.869896	65.6574
0.875198	65.9761
0.928108	65.9761
0.970446	66.2948
0.978383	66.2948
1.01543	66.6135
