Adsorption isotherm of N-Butane on DUT-8(Ni) (10 cycles)
DOI: 10.1021/acsami.5b05456
Article source: Figure 5b
Adsorbate N-Butane: InChIKey IJDNQMDRQITEOD-UHFFFAOYSA-N
Kind: experiment
Temperature: 298 K
Tabular data in the source: 0
pressure (bar)	uptake (cm3(STP)/g)
0.025063	1.04687
0.057644	2.10142
0.085213	2.12958
0.095238	2.13982
0.112782	4.20029
0.132832	4.22076
0.157895	4.24636
0.177945	4.26684
0.195489	4.28475
0.203008	4.29243
0.225564	4.31547
0.250627	4.34107
0.280702	5.39306
0.303258	5.41609
0.328321	5.44169
0.411028	6.54743
0.431078	7.58919
0.458647	7.61734
0.486216	10.7093
0.508772	16.86
0.528822	23.0082
0.556391	24.0576
0.576441	27.1419
0.606516	33.3003
0.634085	35.371
0.656642	37.4366
0.659148	35.3966
0.681704	44.6111
0.684211	38.486
0.706767	48.7218
0.711779	42.5993
0.734336	45.6861
0.756892	55.9219
0.759398	48.7756
0.784461	54.9288
0.786967	60.0378
0.807018	54.9518
0.809524	61.0821
0.83208	59.0625
0.834586	65.1928
0.859649	68.2822
0.884712	70.3503
0.887218	67.2891
0.907268	72.4159
0.914787	68.3385
0.937343	74.4892
0.962406	75.5361
0.964912	76.5599
0.977444	77.594
0.982456	76.5778
