Adsorption isotherm of Nitrogen on ELM-11
DOI: 10.1021/acsami.5b05456
Article source: Figure 3b
Adsorbate Nitrogen: InChIKey IJGRMHOSHXDMSA-UHFFFAOYSA-N
Kind: experiment
Temperature: 77 K
Tabular data in the source: 0
pressure (bar)	uptake (cm3(STP)/g)
0.002421	2.42915
0.004843	242.915
0.007264	163.968
0.009685	246.559
0.012106	250.202
0.024213	19.4332
0.026634	252.632
0.041162	253.846
0.043583	44.9393
0.050847	255.061
0.058111	69.2308
0.065375	88.664
0.077482	88.664
0.079903	256.275
0.084746	95.9514
0.096852	102.024
0.104116	106.883
0.113801	112.955
0.118644	258.704
0.125908	120.243
0.133172	259.919
0.138015	123.887
0.145278	131.174
0.1477	259.919
0.154964	134.818
0.157385	259.919
0.162228	138.462
0.171913	259.919
0.174334	143.32
0.181598	149.393
0.196126	154.251
0.20339	157.895
0.208232	261.134
0.220339	162.753
0.256659	177.328
0.25908	261.134
0.273608	183.401
0.305085	190.688
0.307506	262.348
0.324455	196.761
0.353511	205.263
0.355932	263.563
0.375303	211.336
0.404358	218.623
0.409201	262.348
0.42615	223.482
0.438257	264.777
0.450363	229.555
0.460048	264.777
0.467312	231.984
0.486683	236.842
0.506053	240.486
0.508475	265.992
0.556901	244.13
0.590799	265.992
0.602906	248.988
0.605327	265.992
0.619855	251.417
0.656174	253.846
0.707022	267.206
0.709443	257.49
0.755448	268.421
0.760291	258.704
0.806295	269.636
0.808717	262.348
0.854722	269.636
0.859564	263.563
0.905569	272.065
0.90799	265.992
0.956416	269.636
0.958838	273.279
0.992736	275.709
