Adsorption isotherm of N-Butane on ELM-11 (10 cycles)
DOI: 10.1021/acsami.5b05456
Article source: Figure 3b
Adsorbate N-Butane: InChIKey IJDNQMDRQITEOD-UHFFFAOYSA-N
Kind: experiment
Temperature: 298 K
Tabular data in the source: 0
pressure (bar)	uptake (cm3(STP)/g)
0.007937	0
0.013238	0.318725
0.013312	2.5498
0.018655	4.14343
0.018719	6.05578
0.021459	8.9243
0.02382	0.318725
0.026877	12.749
0.026993	16.255
0.02713	20.3984
0.02909	-0.318725
0.029912	24.5418
0.030039	28.3665
0.032853	33.4661
0.038291	37.9283
0.038365	40.1594
0.041137	43.9841
0.044963	-0.318725
0.0529	-0.318725
0.057136	47.8088
0.063481	-0.318725
0.074064	-0.318725
0.07673	0.318725
0.086332	50.6773
0.092603	0.318725
0.095249	0.318725
0.099612	52.2709
0.110226	53.2271
0.111122	0.318725
0.121704	0.318725
0.132286	0.318725
0.134099	55.1394
0.143152	8.9243
0.145956	13.7052
0.151426	19.1235
0.154219	23.5857
0.155305	56.4143
0.162398	30.9163
0.167868	36.3347
0.167942	38.5657
0.171209	57.3705
0.178629	41.753
0.178703	43.9841
0.184468	58.3267
0.186703	45.8964
0.197411	49.7211
0.200373	59.2829
0.205432	52.2709
0.210966	59.6016
0.216067	53.8645
0.22686	60.239
0.237315	56.4143
0.242743	60.5578
0.247939	57.6892
0.253336	60.8765
0.269125	58.3267
0.26923	61.5139
0.285103	61.5139
0.295622	59.6016
0.295674	61.1952
0.311569	61.8327
0.327452	62.1514
0.345992	62.7888
0.356584	63.1076
0.369812	63.1076
0.396267	63.1076
0.40687	63.745
0.433335	64.0637
0.459812	64.7012
0.483621	64.7012
0.491558	64.7012
0.533896	65.0199
0.547134	65.3386
0.592118	65.6574
0.6027	65.6574
0.629155	65.6574
0.645018	65.3386
0.658256	65.6574
0.687367	65.9761
0.703219	65.3386
0.729674	65.3386
0.745568	65.9761
0.75615	65.9761
0.769378	65.9761
0.793198	66.2948
0.816997	65.9761
0.830245	66.6135
0.861981	66.2948
0.893737	66.6135
0.906954	66.2948
0.941356	66.6135
0.951938	66.6135
0.975758	66.9323
0.988986	66.9323
0.996933	67.251
