Adsorption isotherm of N-Butane on DUT-8(Ni)
DOI: 10.1021/acsami.5b05456
Article source: Figure 5b
Adsorbate N-Butane: InChIKey IJDNQMDRQITEOD-UHFFFAOYSA-N
Kind: experiment
Temperature: 298 K
Tabular data in the source: 0
pressure (bar)	uptake (cm3(STP)/g)
0.002506	1.01695
0.010025	2.0339
0.027569	3.05085
0.0401	10.1695
0.045113	3.05085
0.057644	3.05085
0.065163	33.5593
0.067669	3.05085
0.077694	4.0678
0.0802	49.8305
0.087719	4.0678
0.090226	78.3051
0.097744	3.05085
0.105263	113.898
0.110276	127.119
0.117794	146.441
0.120301	3.05085
0.135338	3.05085
0.140351	155.593
0.14787	3.05085
0.155388	4.0678
0.160401	157.627
0.165414	4.0678
0.16792	158.644
0.180451	4.0678
0.190476	4.0678
0.197995	4.0678
0.200501	160.678
0.203008	4.0678
0.225564	161.695
0.230576	5.08475
0.24812	162.712
0.258145	4.0678
0.275689	163.729
0.283208	4.0678
0.303258	170.847
0.305764	6.10169
0.328321	172.881
0.330827	7.11864
0.353383	174.915
0.35589	9.15254
0.378446	177.966
0.380952	10.1695
0.403509	180
0.406015	11.1864
0.431078	183.051
0.433584	13.2203
0.45614	14.2373
0.481203	188.136
0.483709	15.2542
0.503759	190.169
0.506266	16.2712
0.531328	192.203
0.536341	18.3051
0.556391	194.237
0.558897	19.322
0.578947	195.254
0.581454	21.3559
0.606516	197.288
0.609023	29.4915
0.629073	40.678
0.631579	198.305
0.634085	47.7966
0.651629	63.0508
0.656642	199.322
0.674185	90.5085
0.681704	101.695
0.684211	201.356
0.686717	104.746
0.699248	121.017
0.706767	201.356
0.709273	131.186
0.726817	145.424
0.73183	201.356
0.736842	153.559
0.756892	203.39
0.759398	166.78
0.781955	204.407
0.784461	176.949
0.786967	178.983
0.809524	204.407
0.834586	206.441
0.837093	190.169
0.857143	208.475
0.859649	194.237
0.884712	210.508
0.889724	200.339
0.907268	212.542
0.914787	202.373
0.934837	212.542
0.93985	204.407
0.957393	212.542
0.9599	207.458
0.977444	212.542
0.987469	209.492
