Adsorption isotherm of Nitrogen on SNU-9
DOI: 10.1021/acsami.5b05456
Article source: Figure 7b
Adsorbate Nitrogen: InChIKey IJGRMHOSHXDMSA-UHFFFAOYSA-N
Kind: experiment
Temperature: 77 K
Tabular data in the source: 0
pressure (bar)	uptake (cm3(STP)/g)
0.001427	183.264
0.00479	15.0628
0.005426	96.6527
0.006237	200.837
0.015241	156.904
0.031889	194.561
0.034382	214.644
0.048352	208.368
0.050766	218.41
0.071746	212.134
0.08117	222.176
0.097505	219.665
0.118592	227.197
0.120899	223.431
0.151283	224.686
0.151312	228.452
0.177023	229.707
0.193348	225.941
0.20506	229.707
0.221396	227.197
0.226098	230.962
0.247116	229.707
0.251809	232.218
0.272827	230.962
0.277509	232.218
0.298538	232.218
0.30322	233.473
0.324238	232.218
0.328921	233.473
0.349949	233.473
0.352286	233.473
0.373314	233.473
0.37566	234.728
0.399024	234.728
0.401361	234.728
0.427062	234.728
0.429398	234.728
0.450426	234.728
0.450436	235.983
0.476137	235.983
0.478473	235.983
0.499501	235.983
0.501848	237.238
0.525202	235.983
0.527558	238.494
0.548577	237.238
0.555596	238.494
0.574278	237.238
0.576624	238.494
0.597652	238.494
0.604671	239.749
0.625689	238.494
0.649054	238.494
0.65141	241.004
0.674755	238.494
0.677111	241.004
0.700465	239.749
0.721493	239.749
0.728522	242.259
0.749531	239.749
0.751887	242.259
0.775222	238.494
0.775241	241.004
0.800942	241.004
0.826653	242.259
0.831336	243.515
0.850018	242.259
0.875719	242.259
0.878055	242.259
0.901419	242.259
0.922448	242.259
0.950495	243.515
0.973869	244.77
