Adsorption isotherm of N-Butane on MIL-53 (10 cycles)
DOI: 10.1021/acsami.5b05456
Article source: Figure 1b
Adsorbate N-Butane: InChIKey IJDNQMDRQITEOD-UHFFFAOYSA-N
Kind: experiment
Temperature: 298 K
Tabular data in the source: 0
pressure (bar)	uptake (cm3(STP)/g)
0	-0.265957
0	36.4055
0.00266	41.4759
0.005319	43.3204
0.007979	45.165
0.013298	47.0107
0.018617	55.3081
0.023936	49.7806
0.026596	50.7035
0.031915	52.0884
0.034575	57.6196
0.039894	53.0138
0.047872	53.4783
0.055851	57.1686
0.06117	54.4061
0.069149	54.4097
0.071808	58.0976
0.079787	55.3363
0.085106	59.4862
0.090426	58.567
0.093085	55.8033
0.106383	55.8094
0.111702	59.4985
0.114362	59.4997
0.12234	56.2776
0.130319	59.9679
0.138298	59.9716
0.143617	59.974
0.151596	59.9777
0.162234	56.7568
0.164894	60.4447
0.178191	56.7641
0.194149	57.6932
0.207447	58.1601
0.226064	58.1687
0.231383	61.8578
0.244681	62.7856
0.257979	58.6442
0.260638	65.0971
0.263298	68.3241
0.265957	59.1087
0.273936	72.4765
0.281915	75.706
0.284574	59.1173
0.289894	80.7788
0.297872	84.9299
0.308511	59.5892
0.316489	59.5929
0.319149	88.1655
0.321809	59.5953
0.329787	59.599
0.335106	60.0623
0.348404	89.1006
0.351064	60.0696
0.359043	60.0733
0.37766	60.0819
0.382979	60.5452
0.385638	90.0395
0.390957	61.4705
0.406915	64.7036
0.412234	65.6278
0.422872	67.476
0.425532	90.5187
0.433511	72.0892
0.444149	76.7024
0.454787	77.6289
0.457447	90.9942
0.468085	80.8609
0.478723	83.1699
0.486702	85.0169
0.5	86.4055
0.50266	91.4759
0.515957	87.3345
0.526596	88.2611
0.529255	91.949
0.539894	88.7281
0.545213	91.9563
0.553191	89.6558
0.566489	90.5836
0.569149	91.9673
0.579787	90.5898
0.595745	91.0579
0.62234	91.9919
0.654255	92.0066
0.672872	92.476
0.694149	92.9466
0.74734	92.9711
0.765957	92.9797
0.779255	92.9858
0.805851	92.9981
0.824468	93.0067
0.851064	93.0189
0.87234	93.4896
0.896277	93.5006
0.920213	94.4333
0.941489	94.9039
0.962766	95.3745
0.986702	95.3856
0.994681	95.3893
