Adsorption isotherm of Nitrogen on MIL-53 (100 cycles)
DOI: 10.1021/acsami.5b05456
Article source: Figure 1b
Adsorbate Nitrogen: InChIKey IJGRMHOSHXDMSA-UHFFFAOYSA-N
Kind: experiment
Temperature: 77 K
Tabular data in the source: 0
pressure (bar)	uptake (cm3(STP)/g)
0	-0.002667
0	80
0.002667	296.364
0.005333	310.909
0.008	309.091
0.016	314.545
0.018667	321.818
0.029333	316.364
0.032	323.636
0.045333	320
0.053333	323.636
0.058667	320
0.066667	325.455
0.074667	321.818
0.088	325.455
0.096	323.636
0.101333	325.455
0.117333	325.455
0.122667	323.636
0.125333	325.455
0.136	327.273
0.152	323.636
0.165333	329.091
0.178667	330.909
0.181333	327.273
0.197333	327.273
0.213333	329.091
0.221333	327.273
0.253333	327.273
0.261333	330.909
0.272	329.091
0.304	329.091
0.314667	330.909
0.322667	329.091
0.352	330.909
0.362667	332.727
0.370667	330.909
0.402667	330.909
0.413333	332.727
0.421333	332.727
0.445333	332.727
0.464	334.545
0.482667	332.727
0.506667	332.727
0.512	334.545
0.552	334.545
0.565333	336.364
0.602667	336.364
0.610667	334.545
0.653333	338.182
0.666667	336.364
0.706667	338.182
0.714667	338.182
0.754667	338.182
0.765333	338.182
0.805333	340
0.818667	338.182
0.856	340
0.861333	340
0.901333	341.818
0.917333	341.818
0.954667	345.455
0.968	347.273
0.989333	363.636
