Adsorption isotherm of N-Butane on ELM-11
DOI: 10.1021/acsami.5b05456
Article source: Figure 3b
Adsorbate N-Butane: InChIKey IJDNQMDRQITEOD-UHFFFAOYSA-N
Kind: experiment
Temperature: 298 K
Tabular data in the source: 0
pressure (bar)	uptake (cm3(STP)/g)
0	0
5.3e-05	1.59363
0.002751	3.18725
0.005407	3.50598
0.008095	4.78088
0.010772	5.73705
0.013227	0
0.019024	15.2988
0.022408	37.6096
0.031757	0.318725
0.033148	42.3904
0.043825	45.259
0.050265	0
0.054481	47.49
0.066138	0
0.067782	49.7211
0.082021	0.318725
0.083718	51.6335
0.097009	53.5458
0.103185	0.318725
0.120882	55.4582
0.121704	0.318725
0.136797	56.7331
0.140285	2.23108
0.152701	57.6892
0.153882	13.3865
0.164896	26.4542
0.16596	58.6454
0.175889	38.8845
0.187156	59.6016
0.18938	46.8526
0.197432	50.3586
0.208088	52.5896
0.22159	60.8765
0.231993	55.4582
0.261325	62.4701
0.263812	57.6892
0.285008	58.6454
0.31414	59.6016
0.314277	63.745
0.335336	60.5578
0.364458	61.1952
0.37251	64.7012
0.385643	61.8327
0.414859	65.3386
0.417399	62.1514
0.44123	62.7888
0.441335	65.9761
0.457124	63.4263
0.465166	66.6135
0.478298	63.745
0.499473	64.0637
0.518002	64.3825
0.528668	66.9323
0.565727	67.5697
0.568288	65.0199
0.602764	67.5697
0.621219	65.6574
0.62924	68.2072
0.634457	65.9761
0.666287	68.5259
0.67415	66.2948
0.724436	66.9323
0.72979	68.8446
0.769483	69.1633
0.774711	67.251
0.822351	67.8884
0.832986	69.4821
0.870023	69.4821
0.875271	68.2072
0.925557	68.8446
0.933536	70.1195
0.975853	69.8008
0.978488	69.4821
1.01289	69.8008
