Adsorption isotherm of Nitrogen on DUT-8(Ni)
DOI: 10.1021/acsami.5b05456
Article source: Figure 5b
Adsorbate Nitrogen: InChIKey IJGRMHOSHXDMSA-UHFFFAOYSA-N
Kind: experiment
Temperature: 77 K
Tabular data in the source: 0
pressure (bar)	uptake (cm3(STP)/g)
0.002519	0
0.007557	38.7097
0.010076	118.894
0.012594	536.406
0.017632	533.641
0.027708	533.641
0.035264	539.171
0.037783	0
0.04534	550.23
0.052897	2.76498
0.060453	555.76
0.06801	561.29
0.070529	2.76498
0.078086	564.055
0.080604	2.76498
0.085642	5.52995
0.09068	5.52995
0.093199	27.6498
0.095718	566.82
0.098237	71.8894
0.103275	118.894
0.105793	566.82
0.108312	196.313
0.110831	235.023
0.11335	284.793
0.115869	326.267
0.118388	378.802
0.120907	411.982
0.125945	456.221
0.128463	575.115
0.133501	489.401
0.13602	508.756
0.138539	514.286
0.143577	525.346
0.146096	577.88
0.148615	533.641
0.151134	541.935
0.156171	577.88
0.161209	547.465
0.168766	550.23
0.176322	577.88
0.178841	555.76
0.186398	580.645
0.188917	558.525
0.198992	564.055
0.214106	580.645
0.224181	566.82
0.256927	575.115
0.267003	583.41
0.274559	575.115
0.304786	577.88
0.31738	588.94
0.327456	580.645
0.355164	586.175
0.365239	588.94
0.372796	583.41
0.403023	583.41
0.418136	591.705
0.425693	586.175
0.445844	591.705
0.448363	586.175
0.465995	586.175
0.468514	591.705
0.486146	594.47
0.503778	591.705
0.521411	594.47
0.564232	594.47
0.604534	591.705
0.619647	594.47
0.657431	591.705
0.670025	591.705
0.710327	591.705
0.720403	591.705
0.758186	597.235
0.770781	597.235
0.808564	591.705
0.81864	594.47
0.856423	594.47
0.866499	597.235
0.906801	597.235
0.916877	597.235
0.957179	597.235
0.987406	597.235
