Adsorption isotherm of Carbon Dioxide on Co2(BDC)2(DPNDO)
DOI: 10.1021/cg501690b
Article source: Figure 8
Adsorbate Carbon Dioxide: InChIKey CURLTUGMZLYLDI-UHFFFAOYSA-N
Kind: experiment
Temperature: 303 K
Tabular data in the source: 0
pressure (bar)	uptake (mmol/g)
0	0
0.987013	2.32598
2.28571	3.14763
3.74026	3.54388
5.24675	3.74259
6.7013	3.88047
8.1039	3.98792
9.24675	4.09517
12.1039	4.23412
14.8571	4.37299
17.7143	4.51194
