Adsorption isotherm of Methane on Co2(BDC)2(DPNDO)
DOI: 10.1021/cg501690b
Article source: Figure 8
Adsorbate Methane: InChIKey VNWKTOKETHGBQD-UHFFFAOYSA-N
Kind: experiment
Temperature: 303 K
Tabular data in the source: 0
pressure (bar)	uptake (mmol/g)
0	0
1.81072	0.717844
3.46798	1.20691
5.33445	1.55894
7.14945	1.86521
8.65403	2.04928
12.339	2.37221
15.9726	2.63413
19.6585	2.86559
