Adsorption isotherm of Nitrogen on Co2(BDC)2(DPNDO)
DOI: 10.1021/cg501690b
Article source: Figure 7
Adsorbate Nitrogen: InChIKey IJGRMHOSHXDMSA-UHFFFAOYSA-N
Kind: experiment
Temperature: 77 K
Tabular data in the source: 0
pressure (bar)	uptake (mmol/g)
0.00105	1.61054
0.002058	1.74147
0.004034	1.97975
0.008049	2.34693
0.008339	2.04643
0.010132	2.17587
0.010314	2.60537
0.014186	2.17692
0.020217	2.82219
0.025906	2.93032
0.030927	2.32964
0.041059	3.01764
0.061707	3.06185
0.06281	2.63246
0.080485	3.08415
0.083387	2.82659
0.103136	3.19228
0.108764	2.97773
0.205783	3.25885
0.20946	3.13007
0.403382	3.17505
0.425396	3.347
0.617066	3.19784
0.628094	3.34821
0.819236	3.30609
1.03136	3.34975
