Adsorption isotherm of Ethane on Co2(BDC)2(DPNDO)
DOI: 10.1021/cg501690b
Article source: Figure 8
Adsorbate Ethane: InChIKey OTMSDBZUPAUEDD-UHFFFAOYSA-N
Kind: experiment
Temperature: 303 K
Tabular data in the source: 0
pressure (bar)	uptake (mmol/g)
0	0
0.741673	1.20061
1.68456	1.71733
2.62506	2.00608
3.61686	2.21884
4.50402	2.38602
5.54695	2.5076
6.4338	2.64438
7.32064	2.78116
8.25909	2.87234
9.25009	3.00912
10.1885	3.1003
10.9709	3.20669
11.9619	3.34347
13.0052	3.49544
