Adsorption isotherm of Nitrogen on ZJNU-40a
DOI: 10.1039/C4cc05833j
Adsorbate Nitrogen: InChIKey IJGRMHOSHXDMSA-UHFFFAOYSA-N
Temperature: 296 K
Tabular data in the source: 0
pressure (bar)	uptake (cm3(STP)/g)
0.112082	1.61169
0.14658	1.5983
0.186819	1.99649
0.275931	2.37571
0.319055	2.35898
0.359284	3.17096
0.399522	3.56914
0.465635	3.95728
0.531748	4.34543
0.59786	4.73357
0.727212	5.51097
0.787565	6.31514
0.856563	6.28838
0.9198	6.67763
1.04628	7.45615
1.11526	7.84318
