Adsorption isotherm of Carbon Dioxide on ZJNU-40a
DOI: 10.1039/C4cc05833j
Adsorbate Carbon Dioxide: InChIKey CURLTUGMZLYLDI-UHFFFAOYSA-N
Temperature: 296 K
Tabular data in the source: 0
pressure (bar)	uptake (cm3(STP)/g)
0.0630199	9.49279
0.0945348	14.0323
0.123185	18.1591
0.154699	22.6986
0.186234	26.4105
0.217759	30.5362
0.255063	33.4183
0.286598	37.1302
0.315258	40.8432
0.346802	44.1413
0.375472	47.4405
0.407017	50.7386
0.438561	54.0368
0.475846	57.7464
0.504525	60.6318
0.536091	63.1024
0.56475	66.8154
0.596304	69.6997
0.627868	72.1702
0.659423	75.0545
0.693863	77.5239
0.719658	80.8242
0.756972	83.2925
0.785661	85.7642
0.817226	88.2347
0.840166	90.7085
0.87748	93.1768
0.972163	101.002
1.00373	103.473
1.0353	105.529
