Adsorption isotherm of Methane on NOTT-101
DOI: 10.1039/C4cc05833j
Adsorbate Methane: InChIKey VNWKTOKETHGBQD-UHFFFAOYSA-N
Temperature: 296 K
Tabular data in the source: 0
pressure (bar)	uptake (cm3(STP)/g)
0.0373241	2.05449
0.0689382	2.45601
0.0976872	2.44486
0.126407	3.6751
0.15802	4.07662
0.189624	4.89195
0.224123	4.87857
0.284447	6.92413
0.318935	7.32454
0.382145	8.95519
0.445371	9.75825
0.50859	10.9751
0.597672	12.5957
0.758607	15.016
0.818951	16.234
0.850565	16.6355
0.974116	19.4841
1.00573	19.8857
1.03447	20.2883
