Adsorption isotherm of Methane on ZJNU-40a
DOI: 10.1039/C4cc05833j
Adsorbate Methane: InChIKey VNWKTOKETHGBQD-UHFFFAOYSA-N
Temperature: 296 K
Tabular data in the source: 0
pressure (bar)	uptake (cm3(STP)/g)
0.0947925	3.27357
0.129281	3.67398
0.155135	4.49154
0.186739	5.30686
0.224104	5.70616
0.255718	6.10769
0.287312	7.33681
0.316041	8.15325
0.35053	8.55366
0.382134	9.36899
0.416612	10.1832
0.439583	11.4157
0.476957	11.4012
0.505676	12.6314
0.53728	13.4467
0.566028	13.4356
0.600508	14.2498
0.632121	14.6513
0.66084	15.8815
0.726924	17.5111
0.787277	18.3153
0.847621	19.5332
0.974047	22.3807
1.00854	22.7811
1.0344	23.1849
