Adsorption isotherm of Carbon Dioxide on NOTT-101
DOI: 10.1039/C4cc05833j
Adsorbate Carbon Dioxide: InChIKey CURLTUGMZLYLDI-UHFFFAOYSA-N
Temperature: 296 K
Tabular data in the source: 0
pressure (bar)	uptake (cm3(STP)/g)
0.0602341	5.76973
0.0917887	8.65404
0.126218	11.5372
0.154898	14.4227
0.186462	16.8932
0.223767	19.7753
0.249571	22.6618
0.286886	25.1301
0.309836	27.1901
0.344265	30.0733
0.378694	32.9565
0.407393	35.0144
0.441833	37.4838
0.470512	40.3692
0.502077	42.8397
0.533651	44.8964
0.565216	47.3669
0.599645	50.2501
0.628344	52.3079
0.657045	54.3658
0.691483	56.8352
0.725932	58.8908
0.751747	61.3635
0.783322	63.4202
0.812012	65.8919
0.843585	67.9486
0.878034	70.0042
0.9096	72.4747
0.941173	74.5314
0.969874	76.5892
1.00431	79.0586
1.0359	80.7016
