Adsorption isotherm of Nitrogen on EB-COF-1 at 500 kGy
DOI: 10.1021/jacs.0c03941
Article source: Figure 2h
Adsorbate Nitrogen: InChIKey IJGRMHOSHXDMSA-UHFFFAOYSA-N
Kind: experiment
Temperature: 77 K
Tabular data in the source: 0
pressure (bar)	uptake (cm3(STP)/g)
0.011805	4.58473
0.018796	11.1408
0.05351	12.9836
0.081292	15.7704
0.102127	17.6262
0.120633	17.609
0.136834	18.5315
0.162274	17.5705
0.183094	17.5512
0.20854	17.5277
0.22242	17.5149
0.238614	17.4999
0.25712	17.4828
0.277941	17.4635
0.298761	17.4442
0.321901	18.3603
0.340408	18.3432
0.365847	17.3822
0.365847	17.3822
0.382041	17.3672
0.419047	16.3954
0.437554	16.3783
0.465328	18.2276
0.500021	17.258
0.516215	17.243
0.539362	19.0966
0.576361	17.1874
0.590234	16.237
0.617994	16.2114
0.641142	18.0649
0.655022	18.0521
0.673536	18.9725
0.703595	17.0697
0.731348	16.1065
0.766048	16.0744
0.747541	16.0915
0.798435	16.0444
0.819284	19.7751
0.856275	16.9284
0.881722	16.9048
0.895609	17.8295
0.93725	17.791
0.9558	23.3988
0.972015	26.1963
0.99517	28.9874
0.035069	21.4382
0.065157	23.2854
0.097551	24.1929
0.12993	23.2254
0.146124	23.2105
0.178496	21.3055
0.215509	21.2713
0.240956	21.2477
0.275656	21.2156
0.308028	19.3106
0.340415	19.2807
0.356609	19.2657
0.384383	21.115
0.409837	22.029
0.430672	23.8847
0.456126	24.7986
0.474632	24.7815
0.504706	24.7537
0.530138	22.8551
0.544018	22.8423
0.567151	22.8209
0.597225	22.7931
0.611105	22.7802
0.636552	22.7567
0.648118	22.746
0.682811	21.7764
0.71287	19.8736
0.736011	20.7897
0.773039	22.6304
0.805411	20.7255
0.844716	17.8766
0.867849	17.8552
0.897937	19.7023
0.925697	19.6767
0.9558	23.3988
0.974335	27.1317
0.995206	33.6748
1.01376	39.2827
