Adsorption isotherm of Nitrogen on EB-COF-1 at 300 kGy
DOI: 10.1021/jacs.0c03941
Article source: Figure 2h
Adsorbate Nitrogen: InChIKey IJGRMHOSHXDMSA-UHFFFAOYSA-N
Kind: experiment
Temperature: 77 K
Tabular data in the source: 0
pressure (bar)	uptake (cm3(STP)/g)
0.007179	4.58901
0.009543	11.1493
0.009586	16.7743
0.009637	23.3367
0.012008	30.8345
0.021326	39.2634
0.026003	45.8216
0.056171	57.9812
0.063125	59.8497
0.088652	70.1386
0.097927	72.9425
0.111828	75.7422
0.132656	76.6604
0.15117	77.5808
0.178922	76.6176
0.208996	76.5898
0.22983	78.4455
0.24371	78.4327
0.269164	79.3466
0.299238	79.3188
0.322386	81.1724
0.345526	82.0885
0.366353	83.0067
0.394114	82.981
0.43344	82.9446
0.454275	84.8003
0.479722	84.7768
0.493602	84.7639
0.516735	84.7425
0.549122	84.7126
0.581509	84.6826
0.609269	84.6569
0.650909	84.6184
0.667102	84.6034
0.683295	84.5884
0.708742	84.5649
0.724936	84.5499
0.755016	85.4596
0.787396	84.4921
0.810529	84.4707
0.833663	84.4493
0.856781	82.5529
0.889168	82.523
0.914651	87.1869
0.930859	89.0469
0.954014	91.838
0.963282	93.7044
0.986437	96.4955
1.00266	100.23
1.00963	104.911
0.04704	73.9271
0.077208	86.0867
0.093459	93.5717
0.114293	95.4274
0.144374	96.3371
0.167507	96.3157
0.186007	95.361
0.213789	98.1478
0.246175	98.1179
0.271615	97.1568
0.285488	96.2065
0.313248	96.1808
0.334046	93.3491
0.359486	92.388
0.380291	90.4938
0.410365	90.466
0.452019	92.3024
0.431199	92.3217
0.489054	95.0807
0.509882	95.9989
0.528388	95.9818
0.549209	95.9625
0.567708	95.0079
0.590841	94.9865
0.61396	93.0901
0.63478	93.0708
0.6556	93.0516
0.676421	93.0323
0.690301	93.0195
0.738866	91.0995
0.773574	92.0049
0.805975	93.8499
0.831422	93.8264
0.856868	93.8028
0.903135	93.76
0.935536	95.6051
0.947117	97.4693
0.970258	98.3854
0.995719	100.237
1.01892	108.653
