Adsorption isotherm of Nitrogen on EB-COF-1
DOI: 10.1021/jacs.0c03941
Article source: Figure 2f
Adsorbate Nitrogen: InChIKey IJGRMHOSHXDMSA-UHFFFAOYSA-N
Kind: experiment
Temperature: 77 K
Tabular data in the source: 0
pressure (bar)	uptake (cm3(STP)/g)
0.011537	2.47934
0.009542	10.7438
0.014052	18.1818
0.012058	26.4463
0.014394	33.8843
0.014484	38.0165
0.014627	44.6281
0.014735	49.5868
0.017053	56.1983
0.017197	62.8099
0.017395	71.9008
0.017575	80.1653
0.0177	85.9504
0.017826	91.7355
0.020126	97.5207
0.024601	103.306
0.026973	112.397
0.064728	148.76
0.067207	162.81
0.091952	200.826
0.116032	208.264
0.126993	212.397
0.148773	214.05
0.164047	216.529
0.185863	219.835
0.192386	219.835
0.212027	223.141
0.235963	223.967
0.257778	227.273
0.281732	228.926
0.310016	229.752
0.33185	233.884
0.349299	236.364
0.375409	237.19
0.399363	238.843
0.418932	238.843
0.434206	241.322
0.458142	242.149
0.477747	243.802
0.493004	245.455
0.516922	245.455
0.543014	245.455
0.566932	245.455
0.582206	247.934
0.601847	251.24
0.632288	251.24
0.654032	251.24
0.67795	251.24
0.706252	252.893
0.756317	255.372
0.736729	254.545
0.773783	258.678
0.804224	258.678
0.823829	260.331
0.841242	261.157
0.86737	262.81
0.897829	263.636
0.926132	265.289
0.947911	266.942
0.965342	268.595
0.976268	271.074
0.978478	272.727
0.99386	280.165
1.00921	285.95
0.043379	166.942
0.072311	197.521
0.090299	224.793
0.110048	233.058
0.127532	237.19
0.147191	241.322
0.160255	242.149
0.182017	242.975
0.197237	242.975
0.232081	245.455
0.256035	247.107
0.284338	248.76
0.301732	248.76
0.327825	248.76
0.356109	249.587
0.380045	250.413
0.406209	253.719
0.434512	255.372
0.454117	257.025
0.475932	260.331
0.493381	262.81
0.51304	266.942
0.53482	268.595
0.55004	268.595
0.576097	266.942
0.613061	266.942
0.636979	266.942
0.663071	266.942
0.702209	266.942
0.721796	267.769
0.767512	270.248
0.789273	271.074
0.808825	270.248
0.826219	270.248
0.863183	270.248
0.880578	270.248
0.904496	270.248
0.93713	271.074
0.952422	274.38
0.985109	277.686
1.0004	280.992
1.01789	285.124
