Adsorption isotherm of Nitrogen on EB-COF-1 at 5 kGy
DOI: 10.1021/jacs.0c03941
Article source: Figure 2h
Adsorbate Nitrogen: InChIKey IJGRMHOSHXDMSA-UHFFFAOYSA-N
Kind: experiment
Temperature: 77 K
Tabular data in the source: 0
pressure (bar)	uptake (cm3(STP)/g)
0.01174	0.852712
0.018702	1.04665
0.067318	3.59587
0.113585	3.55306
0.159873	6.32273
0.192267	7.23026
0.229274	6.25852
0.29404	5.26109
0.319479	4.30006
0.356507	6.1408
0.384253	4.24012
0.45366	5.11341
0.4791	4.15237
0.523068	5.98669
0.571648	5.94174
0.610975	5.90535
0.641048	5.87753
0.673442	6.78505
0.698896	7.699
0.733603	8.60439
0.756722	6.708
0.782176	7.62195
0.803004	8.54018
0.835398	9.44771
0.860859	11.2991
0.87938	13.157
0.907169	16.8813
0.925683	17.8017
0.946532	21.5324
0.969687	24.3235
0.98823	28.9938
0.99984	34.6081
1.00914	41.1619
0.039565	4.55904
0.065027	6.41048
0.08354	7.33085
0.127501	8.22768
0.146008	8.21056
0.180701	7.24096
0.201521	7.22169
0.238541	8.12494
0.270921	7.15748
0.289442	9.01535
0.314896	9.9293
0.335702	8.03504
0.393542	8.91903
0.416683	9.83512
0.44213	9.81157
0.481457	9.77519
0.502277	9.75592
0.534656	8.78846
0.548536	8.77562
0.564737	9.69813
0.60175	9.66389
0.620257	9.64676
0.641077	9.6275
0.661897	9.60824
0.685045	11.4618
0.724372	11.4254
0.735931	10.4772
0.763691	10.4516
0.805339	11.3505
0.835426	13.1977
0.884021	15.0277
0.902549	17.8231
0.937286	22.4784
0.965089	28.0777
0.990601	36.4916
1.00459	50.5412
