Adsorption isotherm of Nitrogen on EB-COF-1 at 100 kGy
DOI: 10.1021/jacs.0c03941
Article source: Figure 2h
Adsorbate Nitrogen: InChIKey IJGRMHOSHXDMSA-UHFFFAOYSA-N
Kind: experiment
Temperature: 77 K
Tabular data in the source: 0
pressure (bar)	uptake (cm3(STP)/g)
0.011805	4.58473
0.011863	12.0847
0.014241	20.52
0.016598	26.1428
0.02129	34.576
0.016728	43.0177
0.016793	51.4551
0.016851	58.9551
0.016916	67.3925
0.01696	73.0175
0.017032	82.3924
0.017104	91.7673
0.019461	97.3901
0.021818	103.013
0.026531	114.259
0.061535	153.601
0.063913	162.037
0.089635	197.638
0.115168	208.864
0.14068	217.278
0.152254	218.205
0.189311	223.795
0.242568	230.309
0.210167	228.464
0.268015	230.285
0.316624	233.99
0.295775	230.259
0.342085	235.842
0.372151	234.876
0.392986	236.732
0.4115	237.652
0.4277	238.575
0.453147	238.551
0.480914	239.463
0.513316	241.308
0.534143	242.226
0.564216	242.199
0.592005	245.923
0.615146	246.839
0.638279	246.818
0.668374	249.602
0.686888	250.523
0.700776	251.447
0.72161	253.303
0.747057	253.279
0.774824	254.191
0.79336	257.924
0.81418	257.905
0.848887	258.81
0.860454	258.8
0.890563	263.459
0.911391	264.377
0.936859	267.166
0.955388	269.962
0.983169	272.748
0.994765	276.488
1.00637	282.102
1.0203	287.714
0.043115	164.868
0.06186	195.788
0.080598	225.771
0.09917	234.191
0.122325	236.982
0.14316	238.838
0.161688	241.634
0.177889	242.556
0.212603	244.399
0.233438	246.255
0.254265	247.173
0.268159	249.035
0.277413	249.026
0.314433	249.93
0.337574	250.846
0.365341	251.758
0.390803	253.609
0.411637	255.465
0.430144	255.448
0.441703	254.499
0.478731	256.34
0.487985	256.332
0.49958	260.071
0.525056	263.797
0.53895	265.659
0.557457	265.642
0.582911	266.556
0.594478	266.546
0.610678	267.468
0.622245	267.457
0.652311	266.492
0.682392	267.402
0.707846	268.316
0.7495	270.152
0.772634	270.131
0.788827	270.116
0.809647	270.097
0.837407	270.071
0.876749	271.909
0.89527	273.767
0.920731	275.619
0.948498	276.531
0.980899	278.376
0.992495	282.115
1.018	289.591
