Adsorption isotherm of Nitrogen on Fe-BTC
DOI: 10.1039/B910175f
Adsorbate Nitrogen: InChIKey IJGRMHOSHXDMSA-UHFFFAOYSA-N
Temperature: 77 K
Tabular data in the source: 0
pressure (bar)	uptake (cm3(STP)/g)
0.00188389	72.1439
0.0297145	229.709
0.0926625	295.707
0.155592	322.362
0.198166	348.879
0.288848	362.605
0.359171	369.637
0.390639	389.522
0.472092	455.645
0.577569	449.8
0.671948	456.994
0.770026	457.656
0.873655	458.356
0.938423	458.793
