Adsorption isotherm of Nitrogen on Fe-BTC
DOI: 10.1039/B910175f
Adsorbate Nitrogen: InChIKey IJGRMHOSHXDMSA-UHFFFAOYSA-N
Temperature: 77 K
Tabular data in the source: 0
pressure (bar)	uptake (cm3(STP)/g)
5.46e-05	118.033
0.00751432	242.674
0.0445642	328.17
0.0945555	387.523
0.150092	433.8
0.192673	473.432
0.244502	506.568
0.277824	533.023
0.390739	605.916
0.479588	658.975
0.577711	757.998
0.681386	857.058
0.729542	949.186
0.779554	1054.44
0.824037	1205.56
0.875994	1514.11
0.929971	2189.88
0.94513	2957.2
0.960247	3632.71
