Adsorption isotherm of Methane on FC-47
DOI: 10.1007/s10450-021-00350-8
Article source: Figure 5
Adsorbate Methane: InChIKey VNWKTOKETHGBQD-UHFFFAOYSA-N
Kind: experiment
Temperature: 333 K
Tabular data in the source: 0
pressure (bar)	uptake (ml/g)
60.2112	0.002798
69.8922	0.003032
79.7267	0.003591
89.715	0.004026
99.7032	0.004396
109.845	0.004734
129.822	0.005435
139.195	0.005377
149.798	0.005532
209.728	0.00635
229.858	0.006531
259.823	0.006719
289.634	0.006888
319.598	0.007043
350.331	0.007094
