Adsorption isotherm of Methane on FC-66
DOI: 10.1007/s10450-021-00350-8
Article source: Figure 5
Adsorbate Methane: InChIKey VNWKTOKETHGBQD-UHFFFAOYSA-N
Kind: experiment
Temperature: 373 K
Tabular data in the source: 0
pressure (bar)	uptake (ml/g)
50.86	0.001133
59.7157	0.003302
70.3825	0.00392
79.6815	0.0048
89.7435	0.005826
99.7967	0.006025
110.009	0.006905
120.22	0.007607
130.425	0.007712
139.569	0.008341
149.771	0.008246
160.286	0.008864
169.576	0.008906
190.295	0.009566
209.944	0.009985
230.05	0.010321
259.599	0.010729
290.213	0.011075
320.824	0.01118
349.762	0.011431
