Adsorption isotherm of Methane on FC-72
DOI: 10.1007/s10450-021-00350-8
Article source: Figure 5
Adsorbate Methane: InChIKey VNWKTOKETHGBQD-UHFFFAOYSA-N
Kind: experiment
Temperature: 333 K
Tabular data in the source: 0
pressure (bar)	uptake (ml/g)
49.6988	0.002304
59.3314	0.003962
69.8887	0.005589
79.6974	0.006141
100.059	0.007799
119.49	0.008604
130.034	0.008652
139.662	0.009647
150.206	0.009694
189.988	0.010815
209.416	0.011352
230.137	0.011636
259.737	0.011968
290.262	0.012189
319.677	0.012489
350.017	0.012741
