Adsorption isotherm of Methane on FC-72
DOI: 10.1007/s10450-021-00350-8
Article source: Figure 5
Adsorbate Methane: InChIKey VNWKTOKETHGBQD-UHFFFAOYSA-N
Kind: experiment
Temperature: 393 K
Tabular data in the source: 0
pressure (bar)	uptake (ml/g)
50.0547	0.00441
59.7843	0.00662
69.8952	0.008337
80.152	0.009002
90.3301	0.009475
99.7461	0.011041
109.614	0.011318
119.788	0.011239
129.969	0.012068
139.84	0.012647
150.014	0.012607
159.885	0.013239
169.754	0.013686
189.645	0.014199
209.996	0.014541
230.193	0.01487
259.796	0.015489
290.167	0.015778
319.615	0.016265
350.138	0.016305
