Adsorption isotherm of Methane on FC-47
DOI: 10.1007/s10450-021-00350-8
Article source: Figure 5
Adsorbate Methane: InChIKey VNWKTOKETHGBQD-UHFFFAOYSA-N
Kind: experiment
Temperature: 393 K
Tabular data in the source: 0
pressure (bar)	uptake (ml/g)
50.223	0.001724
59.699	0.00382
69.9434	0.004166
79.5475	0.004561
89.6638	0.004799
99.3959	0.005601
119.757	0.005974
130.129	0.006521
139.733	0.007019
149.721	0.007208
160.35	0.007186
169.57	0.007343
189.93	0.007689
209.651	0.007862
230.268	0.008203
259.976	0.008419
290.069	0.008651
320.162	0.008872
350.127	0.009007
