Adsorption isotherm of Methane on FC-47
DOI: 10.1007/s10450-021-00350-8
Article source: Figure 5
Adsorbate Methane: InChIKey VNWKTOKETHGBQD-UHFFFAOYSA-N
Kind: experiment
Temperature: 353 K
Tabular data in the source: 0
pressure (bar)	uptake (ml/g)
49.9157	0.001869
59.7503	0.002857
69.8922	0.003162
79.7267	0.003896
100.011	0.004708
109.999	0.005052
119.68	0.005111
139.656	0.005988
149.798	0.006013
160.094	0.006065
169.775	0.006071
189.597	0.006467
209.881	0.006681
230.165	0.006804
260.284	0.007064
290.095	0.007226
319.752	0.007394
349.717	0.0075
