Adsorption isotherm of Methane on FC-72
DOI: 10.1007/s10450-021-00350-8
Article source: Figure 5
Adsorbate Methane: InChIKey VNWKTOKETHGBQD-UHFFFAOYSA-N
Kind: experiment
Temperature: 313 K
Tabular data in the source: 0
pressure (bar)	uptake (ml/g)
50.0723	0.002746
59.6942	0.003062
70.0656	0.004578
80.064	0.005715
99.8668	0.006852
109.862	0.00761
139.471	0.008936
150.389	0.009362
159.083	0.009425
169.445	0.009726
229.946	0.011004
289.888	0.011636
320.044	0.012031
350.382	0.01211
