Adsorption isotherm of Methane on FC-66
DOI: 10.1007/s10450-021-00350-8
Article source: Figure 5
Adsorbate Methane: InChIKey VNWKTOKETHGBQD-UHFFFAOYSA-N
Kind: experiment
Temperature: 353 K
Tabular data in the source: 0
pressure (bar)	uptake (ml/g)
50.2606	0.002065
70.2449	0.005313
79.532	0.005062
100.105	0.00635
109.851	0.006298
119.91	0.007063
129.658	0.007241
140.322	0.007523
149.92	0.007943
159.821	0.008142
169.722	0.008257
189.524	0.008676
209.934	0.008959
229.735	0.009294
259.435	0.009661
289.591	0.009828
319.899	0.010069
349.75	0.010258
