Adsorption isotherm of Methane on FC-47
DOI: 10.1007/s10450-021-00350-8
Article source: Figure 5
Adsorbate Methane: InChIKey VNWKTOKETHGBQD-UHFFFAOYSA-N
Kind: experiment
Temperature: 373 K
Tabular data in the source: 0
pressure (bar)	uptake (ml/g)
50.223	0.00154
59.9551	0.002428
69.6873	0.0035
79.5475	0.004085
89.7918	0.00435
99.652	0.004929
109.64	0.005443
119.629	0.005465
129.745	0.005871
139.349	0.006206
149.337	0.006298
160.094	0.006303
169.698	0.006726
189.674	0.006801
209.523	0.007158
230.14	0.007466
259.72	0.007601
289.941	0.007969
320.29	0.008152
349.998	0.008038
