Adsorption isotherm of Methane on FC-72
DOI: 10.1007/s10450-021-00350-8
Article source: Figure 5
Adsorbate Methane: InChIKey VNWKTOKETHGBQD-UHFFFAOYSA-N
Kind: experiment
Temperature: 353 K
Tabular data in the source: 0
pressure (bar)	uptake (ml/g)
50.0456	0.003265
59.9273	0.005225
69.6533	0.007002
79.8319	0.007528
89.7048	0.008397
99.5756	0.008989
109.6	0.009462
119.469	0.00991
139.67	0.010712
149.848	0.011147
159.563	0.011502
169.738	0.011647
189.937	0.012212
209.981	0.01262
229.869	0.012936
259.933	0.013291
290.305	0.013712
320.213	0.01391
349.967	0.014147
