Adsorption isotherm of Methane on FC-66
DOI: 10.1007/s10450-021-00350-8
Article source: Figure 5
Adsorbate Methane: InChIKey VNWKTOKETHGBQD-UHFFFAOYSA-N
Kind: experiment
Temperature: 333 K
Tabular data in the source: 0
pressure (bar)	uptake (ml/g)
59.4704	0.003153
79.771	0.004624
100.069	0.005831
119.631	0.00661
129.686	0.006975
139.74	0.007188
149.794	0.00749
160.031	0.007792
169.534	0.007804
190.007	0.008295
210.478	0.008596
229.669	0.00886
260.009	0.009149
289.8	0.009451
319.772	0.009615
349.562	0.009803
