Adsorption isotherm of Methane on FC-72
DOI: 10.1007/s10450-021-00350-8
Article source: Figure 5
Adsorbate Methane: InChIKey VNWKTOKETHGBQD-UHFFFAOYSA-N
Kind: experiment
Temperature: 373 K
Tabular data in the source: 0
pressure (bar)	uptake (ml/g)
50.0642	0.005594
59.9414	0.006989
69.969	0.007923
79.839	0.008423
90.0187	0.009094
100.354	0.009883
109.761	0.010397
129.961	0.011081
139.986	0.011633
149.854	0.01191
160.03	0.012068
169.437	0.012581
189.788	0.012805
209.676	0.013094
229.874	0.013462
259.937	0.01387
290.309	0.014199
319.909	0.014397
350.434	0.014739
