Adsorption isotherm of Methane on FC-66
DOI: 10.1007/s10450-021-00350-8
Article source: Figure 5
Adsorbate Methane: InChIKey VNWKTOKETHGBQD-UHFFFAOYSA-N
Kind: experiment
Temperature: 393 K
Tabular data in the source: 0
pressure (bar)	uptake (ml/g)
50.4032	0.001143
60.0184	0.003123
70.0809	0.004203
79.6858	0.005208
89.8343	0.00722
99.7306	0.006979
110.318	0.007262
119.919	0.007922
129.674	0.008739
139.879	0.008859
149.934	0.009263
159.99	0.00964
169.888	0.009598
189.845	0.010258
209.953	0.010761
230.209	0.010949
259.76	0.011546
289.921	0.01229
319.694	0.012274
349.776	0.012772
