Adsorption isotherm of Methane on FC-47
DOI: 10.1007/s10450-021-00350-8
Article source: Figure 5
Adsorbate Methane: InChIKey VNWKTOKETHGBQD-UHFFFAOYSA-N
Kind: experiment
Temperature: 313 K
Tabular data in the source: 0
pressure (bar)	uptake (ml/g)
49.9157	0.00107
59.7503	0.001505
70.1995	0.002531
79.5731	0.003032
89.5613	0.003415
99.5496	0.003857
109.691	0.00383
119.68	0.004175
129.822	0.004681
139.656	0.004883
149.644	0.004947
159.786	0.005233
189.597	0.005512
259.823	0.005972
289.787	0.006134
319.598	0.006341
349.87	0.006425
