Adsorption isotherm of Methane on FC-66
DOI: 10.1007/s10450-021-00350-8
Article source: Figure 5
Adsorbate Methane: InChIKey VNWKTOKETHGBQD-UHFFFAOYSA-N
Kind: experiment
Temperature: 313 K
Tabular data in the source: 0
pressure (bar)	uptake (ml/g)
50.257	0.00172
60.0145	0.002757
69.9208	0.003459
80.132	0.004192
110	0.006004
119.9	0.006141
129.958	0.006717
139.708	0.007115
149.762	0.007356
159.967	0.007523
170.02	0.007712
189.668	0.007901
209.622	0.008309
229.575	0.008603
260.036	0.008885
289.736	0.009137
319.433	0.009242
349.741	0.009441
