Adsorption isotherm of Hydrogen on C1400
DOI: 10.1038/Srep05711
Adsorbate Hydrogen: InChIKey UFHFLCQGNIYNRP-UHFFFAOYSA-N
Temperature: 77 K
Tabular data in the source: 0
pressure (bar)	uptake (cm3(STP)/g)
0.00476152	25.1469
0.00952303	43.1099
0.0166653	51.017
0.0285691	61.8009
0.0428537	68.9944
0.0618997	79.0647
0.0928496	92.735
0.116657	101.372
0.145227	109.293
0.171414	116.495
0.199984	120.824
0.22141	128.023
0.252361	132.354
0.278549	135.245
0.302356	141.008
0.330925	143.183
0.357113	147.511
0.383302	150.402
0.414251	153.296
0.44044	156.187
0.461867	158.357
0.490436	161.968
0.519005	164.143
0.545194	166.315
0.571381	169.207
0.599951	170.663
0.623758	172.116
0.654707	174.292
0.676135	176.461
0.702324	177.916
0.733273	179.373
0.75708	180.826
0.78565	183
0.814218	184.456
0.838026	184.472
0.866595	186.647
0.895165	187.385
0.923733	189.559
0.947541	190.293
0.971348	190.309
0.983252	191.036
0.999918	191.765
1.02611	193.22
1.05467	195.394
1.08086	196.13
