Adsorption isotherm of Hydrogen on C1000
DOI: 10.1038/Srep05711
Adsorbate Hydrogen: InChIKey UFHFLCQGNIYNRP-UHFFFAOYSA-N
Temperature: 77 K
Tabular data in the source: 0
pressure (bar)	uptake (mg/g)
0.382979	14.2651
1.34043	21.0375
2.87234	25.7925
4.78723	28.9625
6.51064	31.268
9.76596	34.2939
13.5957	36.5994
17.8085	38.9049
22.4043	40.3458
27.1915	41.3545
31.9787	42.6513
36.5745	43.3718
41.5532	43.6599
46.7234	44.6686
51.8936	44.0922
56.8723	44.8127
61.8511	44.9568
66.8298	44.9568
72	45.1009
76.9787	46.1095
82.1489	46.6859
