Adsorption isotherm of Carbon Dioxide on C1200
DOI: 10.1038/Srep05711
Adsorbate Carbon Dioxide: InChIKey CURLTUGMZLYLDI-UHFFFAOYSA-N
Temperature: 298 K
Tabular data in the source: 0
pressure (bar)	uptake (mg/g)
0.0627563	19.8187
0.0928794	26.5861
0.120492	32.8701
0.143084	37.7039
0.173207	43.0211
0.1958	47.3716
0.223412	51.7221
0.248516	55.5891
0.276128	59.4562
0.306251	63.8066
0.336374	67.1903
0.358966	70.574
0.386579	73.9577
0.411682	77.3414
0.441805	80.7251
0.464396	84.1088
0.494521	87.4924
0.519623	89.9094
0.547235	92.8097
0.574849	95.71
0.599951	98.6103
0.625053	101.511
0.655177	104.411
0.682789	107.311
0.707891	109.728
0.732994	112.145
0.760607	115.045
0.788219	117.462
0.815833	119.879
0.840935	121.813
0.871058	124.23
0.896161	126.647
0.921263	128.58
0.948875	130.514
0.978999	133.414
1.00159	134.864
1.0292	136.314
1.05682	139.698
