Adsorption isotherm of Hydrogen on C1200
DOI: 10.1038/Srep05711
Adsorbate Hydrogen: InChIKey UFHFLCQGNIYNRP-UHFFFAOYSA-N
Temperature: 77 K
Tabular data in the source: 0
pressure (bar)	uptake (cm3(STP)/g)
0.00714227	18.683
0.00952303	38.0811
0.0142846	51.0154
0.0238075	61.7976
0.0404728	70.4296
0.0642805	84.095
0.0928496	97.7637
0.116657	106.4
0.142846	116.476
0.169034	122.959
0.197602	130.162
0.226172	137.365
0.249979	141.691
0.276168	147.456
0.302356	151.784
0.328545	156.112
0.357113	159.723
0.385683	164.053
0.411871	168.381
0.435679	171.27
0.461867	174.162
0.490436	177.773
0.516624	180.664
0.545194	182.838
0.569001	185.728
0.599951	187.904
0.623758	190.794
0.652328	192.968
0.678516	195.141
0.704703	197.314
0.733273	198.77
0.75708	201.659
0.78565	202.397
0.814218	204.571
0.840407	206.026
0.868977	207.482
0.895165	209.655
0.921352	211.109
0.945161	212.562
0.973729	214.018
1.0023	216.192
1.02849	216.21
1.05229	217.663
1.08086	219.119
