Adsorption isotherm of Carbon Dioxide on C800
DOI: 10.1038/Srep05711
Adsorbate Carbon Dioxide: InChIKey CURLTUGMZLYLDI-UHFFFAOYSA-N
Temperature: 298 K
Tabular data in the source: 0
pressure (bar)	uptake (mg/g)
0.0627563	15.9517
0.0953896	18.852
0.120492	22.2356
0.145595	24.1692
0.173207	26.1027
0.200821	28.0363
0.225923	29.9698
0.251026	32.3867
0.281149	33.3535
0.306251	35.287
0.336374	37.2205
0.361477	38.6707
0.389089	40.1208
0.411682	41.0876
0.441805	42.0544
0.466907	43.0211
0.494521	43.9879
0.517112	45.4381
0.549745	46.8882
0.574849	47.855
0.599951	48.3384
0.627563	50.2719
0.655177	51.2387
0.682789	51.7221
0.710402	52.6888
0.735505	53.6556
0.763117	54.6224
0.788219	55.5891
0.843445	56.5559
0.868547	57.5227
1.0041	60.423
1.0292	61.8731
1.05431	61.8731
