Adsorption isotherm of Nitrogen on C1400
DOI: 10.1038/Srep05711
Adsorbate Nitrogen: InChIKey IJGRMHOSHXDMSA-UHFFFAOYSA-N
Temperature: 77 K
Tabular data in the source: 0
pressure (bar)	uptake (cm3(STP)/g)
0.00346102	237.706
0.00351329	217.135
0.0115445	255.973
0.0236813	278.801
0.0277405	281.078
0.0439713	292.468
0.0662879	308.415
0.084557	317.515
0.106891	326.606
0.12516	335.706
0.149532	342.505
0.169834	351.6
0.188114	356.129
0.204363	360.662
0.222644	365.19
0.24093	367.433
0.255146	371.971
0.277497	374.204
0.307961	383.275
0.324216	385.523
0.34454	385.475
0.362827	387.718
0.397361	394.494
0.419713	396.727
0.433934	398.979
0.458324	398.922
0.478649	398.874
0.494903	401.121
0.517255	403.354
0.533503	407.888
0.55586	407.835
0.574153	407.792
0.594465	412.316
0.614785	414.554
0.626985	412.239
0.651369	414.468
0.671688	416.705
0.69404	418.939
0.708261	421.191
0.72656	418.862
0.748905	423.381
0.765159	425.628
0.791576	427.852
0.805797	430.104
0.824084	432.347
0.846424	439.151
0.862666	445.97
0.885012	450.489
0.901242	461.88
0.921544	470.975
0.941828	486.927
