Adsorption isotherm of Hydrogen on C1000
DOI: 10.1038/Srep05711
Adsorbate Hydrogen: InChIKey UFHFLCQGNIYNRP-UHFFFAOYSA-N
Temperature: 77 K
Tabular data in the source: 0
pressure (bar)	uptake (mg/g)
-0.191489	-0.191489
-3.55271e-15	8.06916
0.382979	14.2651
1.34043	20.7493
2.87234	24.928
4.59574	27.5216
6.31915	29.1066
9.57447	30.9798
13.5957	32.2767
17.8085	33.1412
22.5957	32.9971
27.1915	32.853
31.9787	32.2767
36.766	31.268
41.7447	30.1153
46.9149	29.2507
51.8936	26.9452
56.6809	26.3689
61.6596	24.7839
67.0213	23.3429
72	21.7579
76.9787	21.3256
82.1489	20.4611
