Adsorption isotherm of Hydrogen on C800
DOI: 10.1038/Srep05711
Adsorbate Hydrogen: InChIKey UFHFLCQGNIYNRP-UHFFFAOYSA-N
Temperature: 77 K
Tabular data in the source: 0
pressure (bar)	uptake (cm3(STP)/g)
0.00952303	19.403
0.0357113	30.1965
0.0714227	37.4044
0.0904687	41.7276
0.116657	44.6188
0.142846	46.7916
0.169034	48.9644
0.195223	51.1372
0.226172	53.3133
0.249979	54.7661
0.278549	55.5037
0.304736	57.6765
0.330925	58.4125
0.357113	59.1486
0.385683	61.323
0.411871	62.059
0.438059	62.7951
0.464247	64.2495
0.490436	64.2671
0.519005	65.0047
0.545194	66.4592
0.573762	67.1968
0.59757	68.6496
0.623758	68.6673
0.652328	68.6865
0.678516	70.1409
0.704703	70.8769
0.730892	70.8946
0.761843	71.6338
0.783269	71.6483
0.814218	72.3875
0.840407	73.1235
0.868977	73.1428
0.895165	73.8788
0.921352	73.8964
0.947541	73.9141
0.968968	75.3653
0.985634	76.0949
0.999918	76.1045
1.02611	76.1222
1.05229	76.8582
