Adsorption isotherm of Nitrogen on C800
DOI: 10.1038/Srep05711
Adsorbate Nitrogen: InChIKey IJGRMHOSHXDMSA-UHFFFAOYSA-N
Temperature: 77 K
Tabular data in the source: 0
pressure (bar)	uptake (cm3(STP)/g)
0.00991271	98.2624
0.0261609	102.796
0.0525599	111.876
0.0647433	116.419
0.0911538	120.928
0.107408	123.176
0.127727	125.414
0.150078	127.647
0.188684	132.128
0.204944	132.089
0.223236	132.046
0.245588	134.279
0.259815	134.246
0.278101	136.489
0.30248	141.003
0.326875	138.66
0.345167	138.616
0.363454	140.859
0.379714	140.821
0.43865	142.968
0.458975	142.92
0.477267	142.877
0.495554	145.12
0.513846	145.077
0.536203	145.024
0.552464	144.986
0.57482	144.933
0.593107	147.176
0.613431	147.128
0.633757	147.08
0.652043	149.323
0.670335	149.28
0.69066	149.232
0.710985	149.184
0.729271	151.427
0.747564	151.384
0.767888	151.336
0.784149	151.298
0.804473	151.25
0.824792	153.488
0.843085	153.445
0.863403	155.683
0.881696	155.64
0.899976	160.168
0.922328	162.401
0.940597	171.501
