Adsorption isotherm of Methane on C1000
DOI: 10.1038/Srep05711
Adsorbate Methane: InChIKey VNWKTOKETHGBQD-UHFFFAOYSA-N
Temperature: 298 K
Tabular data in the source: 0
pressure (bar)	uptake (mg/g)
0.83682	23.4516
2.30126	37.0228
4.1841	53.0606
5.85774	64.1614
7.74059	74.6436
11.2971	88.8192
15.4812	102.991
20.2929	115.924
25.1046	125.771
30.1255	134.382
35.3556	142.992
40.3766	149.751
45.1883	157.128
50.4184	162.652
55.0209	169.413
60.251	173.702
65.272	179.227
70.0837	185.37
75.523	190.275
80.5439	194.565
85.3556	200.09
90.3766	203.763
95.1883	209.289
