Adsorption isotherm of Hydrogen on C1000
DOI: 10.1038/Srep05711
Adsorbate Hydrogen: InChIKey UFHFLCQGNIYNRP-UHFFFAOYSA-N
Temperature: 77 K
Tabular data in the source: 0
pressure (bar)	uptake (cm3(STP)/g)
0.00714227	51.7289
0.00952303	43.1099
0.0119038	58.9161
0.0309499	73.2967
0.0357113	82.639
0.0642805	98.4628
0.0904687	112.848
0.116657	121.487
0.142846	130.125
0.173795	138.048
0.199984	143.813
0.22141	149.574
0.247598	155.339
0.278549	159.67
0.302356	163.997
0.330925	169.045
0.357113	172.654
0.383302	175.546
0.411871	179.875
0.442821	182.77
0.464247	186.376
0.488055	187.829
0.521385	190.006
0.542813	192.894
0.569001	195.786
0.59519	197.958
0.618997	199.411
0.652328	202.307
0.676135	203.042
0.707085	205.936
0.733273	207.39
0.75708	210.28
0.783269	211.734
0.811839	212.472
0.840407	215.365
0.868977	216.821
0.890403	217.554
0.918972	218.291
0.945161	220.464
0.971348	221.2
0.997537	223.373
1.02373	224.109
1.04991	224.845
1.07848	226.301
