Adsorption isotherm of Methane on C1200
DOI: 10.1038/Srep05711
Adsorbate Methane: InChIKey VNWKTOKETHGBQD-UHFFFAOYSA-N
Temperature: 298 K
Tabular data in the source: 0
pressure (bar)	uptake (mg/g)
0.00753077	0.596056
0.0451845	1.70134
0.117982	3.9973
0.148105	4.84743
0.168187	5.52783
0.19831	6.12228
0.225923	6.97259
0.253535	7.65245
0.278638	8.24725
0.30123	8.92747
0.331354	9.69237
0.356456	10.0315
0.384068	10.7114
0.416702	11.2204
0.439295	11.8154
0.99908	21.4063
1.03171	21.7449
1.05682	22.084
