Adsorption isotherm of Methane on C1000
DOI: 10.1038/Srep05711
Adsorbate Methane: InChIKey VNWKTOKETHGBQD-UHFFFAOYSA-N
Temperature: 298 K
Tabular data in the source: 0
pressure (bar)	uptake (mg/g)
0.010041	1.19247
0.040164	2.80965
0.0677768	4.00087
0.0928794	5.27749
0.117982	6.38367
0.145595	7.3192
0.170697	8.34015
0.193289	9.27604
0.220902	10.2116
0.253535	11.0615
0.276128	11.9122
0.298721	12.5924
0.328844	13.3573
0.361477	14.0368
0.381558	14.8877
0.411682	15.4821
0.439295	16.162
0.464396	16.842
0.49201	17.4366
0.514602	18.0316
0.544725	18.6261
0.567317	19.3063
0.59744	19.8155
0.625053	20.4101
0.647645	20.9199
0.680279	21.429
0.705381	21.9385
0.732994	22.5332
0.760607	23.0426
0.7832	23.3819
0.810812	23.8913
0.840935	24.4005
0.866038	24.8249
0.89114	25.4197
0.918752	25.7586
0.99908	27.1165
1.0292	27.711
1.05682	28.0499
