Adsorption isotherm of Methane on C800
DOI: 10.1038/Srep05711
Adsorbate Methane: InChIKey VNWKTOKETHGBQD-UHFFFAOYSA-N
Temperature: 298 K
Tabular data in the source: 0
pressure (bar)	uptake (mg/g)
0.0150616	0.425067
0.040164	0.764193
0.0677768	1.18837
0.0903691	1.44244
0.117982	1.86662
0.143084	2.12052
0.170697	2.37424
0.19831	2.62796
0.223412	2.96709
0.251026	3.22081
0.276128	3.38948
0.308761	3.64284
0.331354	3.89692
0.358966	4.06541
0.384068	4.31931
0.414191	4.48763
0.436784	4.65648
0.464396	4.9102
0.494521	5.07851
0.517112	5.24736
0.544725	5.41585
0.572338	5.58435
0.652666	6.00478
0.732994	6.51044
0.818343	7.01574
0.868547	7.26785
1.0041	7.94004
1.02669	8.02367
1.05431	8.10693
