Adsorption isotherm of Carbon Dioxide on C1400
DOI: 10.1038/Srep05711
Adsorbate Carbon Dioxide: InChIKey CURLTUGMZLYLDI-UHFFFAOYSA-N
Temperature: 298 K
Tabular data in the source: 0
pressure (bar)	uptake (mg/g)
0.0175718	4.35045
0.040164	11.1178
0.0652666	16.435
0.0903691	20.3021
0.115472	25.136
0.148105	29.003
0.175718	32.3867
0.1958	36.7372
0.228433	39.6375
0.248516	43.5045
0.276128	46.4048
0.306251	48.3384
0.333863	52.2054
0.358966	55.1057
0.386579	57.5227
0.414191	60.9063
0.436784	63.3233
0.469417	64.7734
0.494521	67.1903
0.522133	70.0906
0.549745	72.5076
0.574849	74.9245
0.604972	76.858
0.625053	79.2749
0.652666	81.2085
0.682789	83.6254
0.705381	85.0755
0.738014	88.4592
0.763117	89.9094
0.788219	92.3263
0.815833	94.2598
0.838424	95.2266
0.871058	97.1601
0.896161	98.6103
0.918752	101.027
0.948875	102.477
0.973979	104.894
1.00661	105.861
1.0292	107.311
1.05431	108.761
