Adsorption isotherm of Nitrogen on C1200
DOI: 10.1038/Srep05711
Adsorbate Nitrogen: InChIKey IJGRMHOSHXDMSA-UHFFFAOYSA-N
Temperature: 77 K
Tabular data in the source: 0
pressure (bar)	uptake (cm3(STP)/g)
0.00329262	303.992
0.00528445	319.988
0.00728209	333.697
0.0113064	349.688
0.0254931	365.654
0.0315731	372.497
0.0477865	390.745
0.0640115	404.421
0.0822748	415.806
0.104592	431.754
0.12894	447.697
0.147221	452.225
0.202029	479.525
0.226401	486.324
0.244675	493.139
0.262945	502.239
0.279193	506.772
0.285279	511.329
0.303566	513.572
0.323867	522.667
0.396996	538.495
0.41732	538.447
0.437628	545.256
0.455921	545.213
0.474201	549.741
0.494514	554.265
0.514833	556.503
0.53312	558.746
0.551407	560.988
0.571725	563.226
0.590006	567.755
0.612358	569.988
0.630644	572.231
0.650957	576.754
0.669243	578.997
0.689557	583.521
0.709882	583.473
0.72613	588.006
0.746449	590.244
0.76473	594.772
0.785048	597.01
0.805362	601.534
0.823648	603.776
0.841923	610.591
0.864263	617.395
0.884571	624.205
0.900801	635.595
0.919059	649.266
0.937299	669.795
0.951462	694.904
0.955499	706.323
