Adsorption isotherm of Nitrogen on C1000
DOI: 10.1038/Srep05711
Adsorbate Nitrogen: InChIKey IJGRMHOSHXDMSA-UHFFFAOYSA-N
Temperature: 77 K
Tabular data in the source: 0
pressure (bar)	uptake (cm3(STP)/g)
0.00166663	143.996
0.00171309	125.71
0.00175374	109.71
0.00181762	84.5672
0.00186988	63.9956
0.00192214	43.424
0.00198022	20.5668
0.00340876	258.278
0.0034436	244.563
0.00350168	221.706
0.00354233	205.706
0.00359459	185.134
0.00365266	162.277
0.00741565	281.125
0.00940748	297.121
0.0134317	313.111
0.0296452	331.359
0.0478853	351.887
0.0641277	358.706
0.0803527	372.382
0.100654	381.477
0.125009	395.134
0.145317	401.944
0.202173	422.381
0.224502	433.758
0.242771	442.857
0.256992	445.11
0.269182	447.367
0.28543	451.9
0.307776	456.419
0.321998	458.671
0.415439	479.023
0.437779	485.827
0.454039	485.789
0.476391	488.022
0.492644	490.27
0.512958	494.793
0.533276	497.031
0.549536	496.993
0.575941	503.788
0.594227	506.031
0.610476	510.564
0.630795	512.802
0.651114	515.04
0.669401	517.282
0.687681	521.811
0.708	524.049
0.728319	526.286
0.742529	533.11
0.762837	539.92
0.785188	542.153
0.805501	546.676
0.82377	555.776
0.837969	567.171
0.860291	580.833
0.882613	594.495
0.898839	608.171
0.919146	614.98
0.939436	628.647
