Adsorption isotherm of Methane on C1000
DOI: 10.1038/Srep05711
Adsorbate Methane: InChIKey VNWKTOKETHGBQD-UHFFFAOYSA-N
Temperature: 298 K
Tabular data in the source: 0
pressure (bar)	uptake (mg/g)
-0.209205	-0.209205
0.209205	13.579
1.04603	22.2158
2.30126	36.4055
3.9749	49.9755
5.85774	59.2231
7.74059	69.088
11.2971	80.7945
15.4812	92.497
20.5021	101.108
25.523	108.484
30.1255	112.16
35.1464	117.684
40.1674	121.357
44.9791	124.414
50.4184	126.232
55.2301	128.671
60.0418	129.876
65.272	131.079
70.0837	132.901
75.1046	134.104
80.5439	134.071
85.3556	135.276
90.3766	134.627
95.1883	135.832
