Adsorption isotherm of Carbon Dioxide on C1000
DOI: 10.1038/Srep05711
Adsorbate Carbon Dioxide: InChIKey CURLTUGMZLYLDI-UHFFFAOYSA-N
Temperature: 298 K
Tabular data in the source: 0
pressure (bar)	uptake (mg/g)
0.010041	10.1511
0.040164	20.7855
0.0602461	29.4864
0.0928794	39.1541
0.120492	45.9215
0.143084	51.2387
0.173207	57.0393
0.200821	62.8399
0.225923	68.1571
0.253535	72.5076
0.281149	76.858
0.308761	81.6918
0.331354	85.5589
0.363987	89.426
0.389089	93.7764
0.411682	97.1601
0.439295	101.027
0.466907	104.411
0.494521	107.311
0.517112	110.211
0.547235	113.595
0.577358	117.462
0.599951	119.879
0.630073	122.779
0.652666	125.68
0.682789	128.097
0.710402	131.48
0.735505	134.381
0.760607	136.314
0.79073	139.215
0.813322	141.148
0.840935	144.532
0.868547	146.465
0.89114	148.882
0.923773	151.299
0.948875	153.716
0.973979	155.166
1.00661	157.583
1.0292	160
1.05431	161.45
