Adsorption isotherm of Methane on C1400
DOI: 10.1038/Srep05711
Adsorbate Methane: InChIKey VNWKTOKETHGBQD-UHFFFAOYSA-N
Temperature: 298 K
Tabular data in the source: 0
pressure (bar)	uptake (mg/g)
0.0376538	1.53142
0.0602461	2.46731
0.0878589	3.2324
0.115472	3.99748
0.143084	4.67734
0.168187	5.27214
0.193289	6.03741
0.223412	6.54663
0.251026	7.14126
0.278638	7.65066
0.30123	8.33088
0.333863	8.83992
0.356456	9.52014
0.384068	9.94431
0.411682	10.4537
0.439295	10.8779
0.469417	11.3019
0.49201	12.0673
0.519623	12.4915
0.544725	12.8306
0.572338	13.2548
0.599951	13.679
0.627563	14.1032
0.655177	14.5273
0.680279	14.9517
0.702872	15.291
0.735505	15.6296
0.758096	16.1393
0.788219	16.5633
0.815833	16.8171
0.835914	17.1565
1.00159	19.3607
1.0292	19.6144
1.0518	19.9537
