Adsorption isotherm of Carbon Dioxide on Gamma-Al2O3
DOI: 10.1016/S0009-2509(00)00531-5
Adsorbate Carbon Dioxide: InChIKey CURLTUGMZLYLDI-UHFFFAOYSA-N
Temperature: 343 K
Tabular data in the source: 0
pressure (bar)	uptake (mmol/g)
0.000102	0.00197648
0.000149	0.00498781
0.000397	0.0160251
0.00108605	0.0344272
0.00336858	0.0655489
0.00571293	0.0868797
0.0118486	0.117493
0.0206064	0.149584
0.0324071	0.186646
0.0980195	0.321355
0.319711	0.624293
0.443379	0.810965
