Adsorption isotherm of Nitrogen on Chabazite
DOI: 10.1016/S0009-2509(00)00531-5
Adsorbate Nitrogen: InChIKey IJGRMHOSHXDMSA-UHFFFAOYSA-N
Temperature: 298 K
Tabular data in the source: 0
pressure (bar)	uptake (mmol/g)
0.105926	0.0955095
0.32288	0.200383
0.477848	0.274669
1.03573	0.42761
3.0968	1.00879
5.11138	1.46761
6.14966	1.79534
