Adsorption isotherm of Water on Chabazite
DOI: 10.1016/S0009-2509(00)00531-5
Adsorbate Water: InChIKey XLYOFNOQVPJJNP-UHFFFAOYSA-N
Temperature: 343 K
Tabular data in the source: 0
pressure (bar)	uptake (mmol/g)
8.52e-05	3.51523
0.000279	4.15006
0.000462	4.54341
0.000916	5.20443
0.001515	5.78437
0.00318987	6.62594
0.00671637	7.47626
