Adsorption isotherm of Nitrogen on Gamma-Al2O3
DOI: 10.1016/S0009-2509(00)00531-5
Adsorbate Nitrogen: InChIKey IJGRMHOSHXDMSA-UHFFFAOYSA-N
Temperature: 298 K
Tabular data in the source: 0
pressure (bar)	uptake (mmol/g)
0.539835	0.0255935
1.05123	0.0299633
2.04302	0.108619
3.1123	0.139207
4.15058	0.270299
