Adsorption isotherm of Water on Gamma-Al2O3
DOI: 10.1016/S0009-2509(00)00531-5
Adsorbate Water: InChIKey XLYOFNOQVPJJNP-UHFFFAOYSA-N
Temperature: 298 K
Tabular data in the source: 0
pressure (bar)	uptake (mmol/g)
2.99e-05	0.431381
8.35e-05	1.08316
0.00013	1.50971
0.000303	1.75566
0.000521	2.04168
0.00773234	2.8457
0.0153269	5.04968
0.0229215	7.82255
0.0303806	9.23526
0.0386786	9.95915
