Adsorption isotherm of Methane on Zeolite 13X
DOI: 10.1016/S0009-2509(00)00531-5
Adsorbate Methane: InChIKey VNWKTOKETHGBQD-UHFFFAOYSA-N
Temperature: 298 K
Tabular data in the source: 0
pressure (bar)	uptake (mmol/g)
0.00061	0.000105
0.00107108	0.000551
0.00298907	0.00268862
0.00504385	0.00491717
0.00655203	0.007541
0.00834161	0.0089929
0.00960343	0.0118595
0.0194227	0.0222422
0.0384992	0.0473051
0.0952202	0.108496
0.184983	0.208663
0.49587	0.478575
0.982903	0.853514
