Adsorption isotherm of Methane on Gamma-Al2O3
DOI: 10.1016/S0009-2509(00)00531-5
Adsorbate Methane: InChIKey VNWKTOKETHGBQD-UHFFFAOYSA-N
Temperature: 343 K
Tabular data in the source: 0
pressure (bar)	uptake (mmol/g)
0.00600337	0.000451
0.00845214	0.000784
0.0109794	0.000745
0.0235874	0.00282734
0.0422791	0.00479502
0.100444	0.0118595
0.207275	0.0177361
0.523074	0.0349797
1.03683	0.0536451
