Adsorption isotherm of Methane on Chabazite
DOI: 10.1016/S0009-2509(00)00531-5
Adsorbate Methane: InChIKey VNWKTOKETHGBQD-UHFFFAOYSA-N
Temperature: 343 K
Tabular data in the source: 0
pressure (bar)	uptake (mmol/g)
0.00285124	0.00150754
0.00828375	0.00699288
0.0200801	0.0181879
0.0390093	0.0358707
0.0713433	0.05785
0.104569	0.0762906
0.195132	0.146725
0.49243	0.282188
0.995926	0.490766
