Adsorption isotherm of Carbon Dioxide on Zeolite 13X
DOI: 10.1016/S0009-2509(00)00531-5
Adsorbate Carbon Dioxide: InChIKey CURLTUGMZLYLDI-UHFFFAOYSA-N
Temperature: 298 K
Tabular data in the source: 0
pressure (bar)	uptake (mmol/g)
2.98e-05	0.00519265
4.92e-05	0.0851488
0.000119	0.175712
0.000301	0.377486
0.000524	0.542266
0.000982	0.763455
0.00320331	1.31447
0.00503775	1.64015
0.00792275	1.88826
0.0101887	2.04653
0.0324071	2.93988
0.0535954	3.38459
0.108395	4.0566
0.198242	4.57719
0.466255	5.48598
