Adsorption isotherm of Water on Zeolite 13X
DOI: 10.1016/S0009-2509(00)00531-5
Adsorbate Water: InChIKey XLYOFNOQVPJJNP-UHFFFAOYSA-N
Temperature: 298 K
Tabular data in the source: 0
pressure (bar)	uptake (mmol/g)
4.66e-05	0.291367
8.52e-05	1.4871
0.000219	5.5283
0.000303	7.94151
0.000532	8.82643
0.00103362	10.2643
0.003003	12.4894
0.00390093	13.0679
0.0053827	14.0922
0.0098443	15.1968
