Adsorption isotherm of Carbon Dioxide on Chabazite
DOI: 10.1016/S0009-2509(00)00531-5
Adsorbate Carbon Dioxide: InChIKey CURLTUGMZLYLDI-UHFFFAOYSA-N
Temperature: 343 K
Tabular data in the source: 0
pressure (bar)	uptake (mmol/g)
8.56e-05	0.00227546
0.000122	0.00551578
0.000333	0.0324103
0.000537	0.0536007
0.000726	0.0682408
0.00101	0.0941621
0.00304614	0.219248
0.00503775	0.334553
0.0137788	0.676623
0.0258417	1.0119
0.0416758	1.31447
0.067212	1.70751
0.105703	2.04653
0.198242	2.404
0.466255	2.76765
0.790743	3.12283
1.04281	3.18631
