Adsorption isotherm of Water on Chabazite
DOI: 10.1016/S0009-2509(00)00531-5
Adsorbate Water: InChIKey XLYOFNOQVPJJNP-UHFFFAOYSA-N
Temperature: 298 K
Tabular data in the source: 0
pressure (bar)	uptake (mmol/g)
8.35e-05	6.23776
0.000274	7.03827
0.000462	7.1453
0.000916	7.94151
0.001515	8.30934
0.00312632	8.82643
0.00671637	9.3757
