Adsorption isotherm of Carbon Dioxide on Chabazite
DOI: 10.1016/S0009-2509(00)00531-5
Adsorbate Carbon Dioxide: InChIKey CURLTUGMZLYLDI-UHFFFAOYSA-N
Temperature: 298 K
Tabular data in the source: 0
pressure (bar)	uptake (mmol/g)
2.4e-05	0.00340298
5.94e-05	0.00674531
8.66e-05	0.010502
0.000114	0.0139195
0.00029	0.0514862
0.000491	0.12993
0.00101926	0.42593
0.0028588	1.16497
0.0098057	2.08813
0.0193391	2.5536
0.0371938	2.93988
0.0663331	3.18631
0.099202	3.6683
0.210985	3.74286
0.496227	3.89657
0.978674	4.22319
