Adsorption isotherm of Methane on Chabazite
DOI: 10.1016/S0009-2509(00)00531-5
Adsorbate Methane: InChIKey VNWKTOKETHGBQD-UHFFFAOYSA-N
Temperature: 298 K
Tabular data in the source: 0
pressure (bar)	uptake (mmol/g)
0.000174	0.000212
0.000389	0.000824
0.000593	0.00132937
0.00106365	0.00289937
0.00279444	0.0089929
0.00500887	0.0160384
0.0101303	0.0300794
0.0200801	0.05785
0.0406113	0.105801
0.0945597	0.219429
0.191244	0.38162
0.473005	0.715715
0.995926	1.04377
