Adsorption isotherm of Nitrogen on Zeolite 13X
DOI: 10.1016/S0009-2509(00)00531-5
Adsorbate Nitrogen: InChIKey IJGRMHOSHXDMSA-UHFFFAOYSA-N
Temperature: 298 K
Tabular data in the source: 0
pressure (bar)	uptake (mmol/g)
0.0284417	0.016854
0.989241	0.515005
2.01203	0.873325
3.01932	1.17047
4.01111	1.43265
5.0184	1.65988
6.16516	1.8303
