Adsorption isotherm of Nitrogen on COF-C3-CHO
DOI: 10.1039/d0cc06536f
Article source: Figure S37
Adsorbate Nitrogen: InChIKey IJGRMHOSHXDMSA-UHFFFAOYSA-N
Kind: experiment
Temperature: 77 K
Tabular data in the source: 0
pressure (bar)	uptake (cm3(STP)/g)
0.001467	63.9957
0.001382	36.6375
0.001869	16.7789
0.007215	90.0455
0.028358	109.471
0.054572	120.919
0.079111	129.689
0.1053	134.01
0.153095	142.429
0.199203	147.439
0.253655	152.821
0.309304	158.335
0.34727	161.408
0.417207	168.094
0.452775	170.322
0.508786	175.624
0.566072	178.974
0.603838	181.233
0.656279	184.307
0.713539	189.279
0.750106	191.991
0.820842	197.985
0.861006	202.488
0.932941	213.83
0.965475	223.901
0.983296	237.942
0.994985	257.278
1.00128	287.966
0.973634	230.273
0.95535	220.898
0.945446	216.797
0.914211	209.18
0.015237	99.6094
0.00838	96.3867
0.004571	83.7891
0.002286	69.7266
0.000762	58.0078
0.000762	51.2695
0.001524	31.0547
0.001524	24.0234
0.003047	8.20312
0.003047	1.75781
0.991918	275.391
0.9843	266.602
0.976682	256.055
0.969063	249.023
0.95535	241.406
0.943161	238.477
0.934018	235.547
0.912687	230.859
0.857834	225
0.809076	220.02
0.757271	216.211
0.710037	213.281
0.653661	209.766
0.60795	207.715
0.553097	204.785
0.505863	203.32
0.457105	193.945
0.400729	192.188
0.353495	189.258
0.304737	188.086
0.246837	181.641
0.207221	176.953
0.150845	173.438
0.100563	165.82
0.077708	162.012
0.054853	153.516
