Adsorption isotherm of Nitrogen on COF-C2V-NH2
DOI: 10.1039/d0cc06536f
Article source: Figure S7
Adsorbate Nitrogen: InChIKey IJGRMHOSHXDMSA-UHFFFAOYSA-N
Kind: experiment
Temperature: 77 K
Tabular data in the source: 0
pressure (bar)	uptake (cm3(STP)/g)
0.004752	202.942
0.002512	85.6399
0.001951	35.7221
0.001951	6.40436
0.003352	137.791
0.027783	247.733
0.074781	261.824
0.104098	269.857
0.150763	275.15
0.200875	281.761
0.252307	288.52
0.305408	295.347
0.359659	300.396
0.402262	303.876
0.459127	312.793
0.5093	318.15
0.557514	320.937
0.602799	326.806
0.653389	332.549
0.712259	341.097
0.765422	348.807
0.807377	356.914
0.859648	371.238
0.908145	396.758
0.926333	412.343
0.955745	451.871
0.969751	492.474
0.981795	544.858
0.99216	604.975
1.00028	712.89
0.961197	465.004
0.951733	442.992
0.943452	429.235
0.050278	256.578
0.010056	231.126
0.005915	221.496
0.004732	211.866
0.002958	188.478
0.002958	174.721
0.002366	158.899
0.001775	125.193
0.001775	111.436
0.002958	97.6784
0.002366	50.9028
0.002366	21.3242
0.002366	68.7876
0.067024	269.387
0.114998	280.037
0.162264	286.802
0.211783	293.363
0.255456	298.186
0.309903	304.57
0.36761	310.232
0.41092	314.867
0.461741	323.083
0.511361	340.883
0.558781	355.309
0.613724	364.298
0.661241	371.692
0.708776	381.292
0.756396	391.879
0.807517	406.945
0.857304	428.371
0.910677	467.169
0.930534	495.528
0.948742	529.284
0.961347	566.455
0.972552	604.568
0.980955	643.577
0.99356	688.857
0.942269	511.78
0.049095	265.52
