Adsorption isotherm of Nitrogen on COF-C3-NH2
DOI: 10.1039/d0cc06536f
Article source: Figure S17
Adsorbate Nitrogen: InChIKey IJGRMHOSHXDMSA-UHFFFAOYSA-N
Kind: experiment
Temperature: 77 K
Tabular data in the source: 0
pressure (bar)	uptake (cm3(STP)/g)
0.000365	16.2292
0.004799	51.2685
0.02977	69.4006
0.069208	76.9299
0.104824	80.2979
0.160805	85.0743
0.206038	88.9196
0.25102	92.5977
0.311882	96.3356
0.360507	100.456
0.406076	102.908
0.452356	106.737
0.504372	110.654
0.556889	115.394
0.612278	121.139
0.669683	125.91
0.712969	130.257
0.771878	136.401
0.818242	143.375
0.863977	154.475
0.906446	170.374
0.937481	192.929
0.955775	218.932
0.965249	235.776
0.971783	263.534
0.981584	310.814
0.976683	282.785
0.991384	381.976
0.986484	345.969
0.994106	430.733
1.00119	485.34
0.999551	462.248
0.948872	204.842
0.049683	72.6257
0.008397	60.5214
0.002799	45.1583
0.002799	33.5196
0.0014	26.0708
-0.0014	7.44879
0.992257	454.376
0.98526	403.166
0.975463	357.542
0.964267	307.263
0.953071	276.536
0.943274	255.121
0.930679	231.844
0.911085	213.222
0.855105	178.771
0.800523	164.804
0.75294	160.149
0.709555	152.7
0.656373	148.976
0.60739	143.389
0.555608	139.665
0.498228	136.872
0.446446	130.354
0.400262	129.423
0.34848	125.698
0.293898	121.974
0.244915	118.25
0.200131	114.525
0.146949	112.663
0.096567	107.076
0.076973	105.214
0.048983	99.6276
