Adsorption isotherm of Nitrogen on COF-C2V-CHO
DOI: 10.1039/d0cc06536f
Article source: Figure S26
Adsorbate Nitrogen: InChIKey IJGRMHOSHXDMSA-UHFFFAOYSA-N
Kind: experiment
Temperature: 77 K
Tabular data in the source: 0
pressure (bar)	uptake (cm3(STP)/g)
0.006442	187.879
0.002822	75.334
0.002169	22.6606
0.003042	1.27243
0.006086	154.957
0.013921	213.775
0.030896	272.065
0.055044	359.383
0.055706	330.729
0.077969	344.922
0.078506	372.118
0.104797	352.891
0.157557	364.33
0.202518	370.71
0.209788	394.96
0.252877	377.171
0.24635	398.419
0.282912	401.5
0.319474	404.394
0.356036	406.658
0.392597	408.796
0.41349	392.695
0.429159	410.809
0.450052	395.211
0.459654	412.647
0.502283	416.784
0.508778	400.117
0.559737	402.507
0.559809	421.249
0.608297	404.96
0.611969	422.633
0.64853	424.205
0.661624	407.843
0.706688	411.83
0.764527	416.821
0.805493	416.669
0.865404	421.35
0.910267	424.362
0.952248	428.245
0.980924	437.067
1.0037	454.771
0.008399	207.12
0.009599	194.984
0.004799	178.803
0.004799	116.505
0.004799	109.223
0.003599	100.324
0.004199	89.8058
0.003599	42.0712
0.003	32.3625
0.0024	9.70874
0.304755	382.282
0.359347	389.159
0.932262	426.375
0.961058	431.23
0.976056	435.275
0.994653	442.557
0.941861	426.78
0.707895	426.375
0.760687	427.184
0.81348	429.612
0.861472	432.848
0.914265	433.657
0.933462	436.084
0.94546	437.702
0.953859	437.702
0.963457	439.32
0.969456	440.939
0.979055	443.366
0.986254	445.793
0.992853	449.029
0.099585	376.214
0.155977	386.731
