Adsorption isotherm of Nitrogen on Zeolite 5A
DOI: 10.8888/Je8006919
Adsorbate Nitrogen: InChIKey IJGRMHOSHXDMSA-UHFFFAOYSA-N
Temperature: 273 K
Tabular data in the source: 0
pressure (bar)	uptake (mmol/g)
0.0349335	0.121429
0.0653569	0.292857
0.109059	0.428571
0.165914	0.585714
0.275256	0.885714
0.468231	1.17143
0.678869	1.42857
0.872127	1.58571
1.12251	1.77857
1.25874	1.85714
