Adsorption isotherm of Nitrogen on Zeolite 5A
DOI: 10.8888/Je8006919
Adsorbate Nitrogen: InChIKey IJGRMHOSHXDMSA-UHFFFAOYSA-N
Temperature: 303 K
Tabular data in the source: 0
pressure (bar)	uptake (mmol/g)
0.0397318	0.0964578
0.0618051	0.147515
0.0971223	0.209847
0.128025	0.232358
0.136854	0.266447
0.167757	0.328816
0.198659	0.36841
0.229562	0.419391
0.260464	0.458985
0.295781	0.521317
0.326684	0.560911
0.357586	0.600504
0.388489	0.65718
0.419392	0.685386
0.454709	0.719248
0.485611	0.758841
0.516514	0.792741
0.587148	0.866159
0.622465	0.900021
0.657783	0.933883
0.6931	0.967745
0.728417	1.00161
0.763734	1.02978
0.799051	1.04656
0.834368	1.08611
0.8741	1.11424
0.913832	1.13668
0.953564	1.16481
0.988881	1.19298
1.02861	1.20972
1.06393	1.23219
1.10366	1.25463
1.14339	1.28276
1.18313	1.2995
1.21844	1.33336
