Adsorption isotherm of Oxygen on Zeolite 5A
DOI: 10.8888/Je8006919
Adsorbate Oxygen: InChIKey MYMOFIZGZYHOMD-UHFFFAOYSA-N
Temperature: 303 K
Tabular data in the source: 0
pressure (bar)	uptake (mmol/g)
0.0485611	0.0337489
0.0838783	0.0846928
0.128025	0.112785
0.18983	0.157809
0.291367	0.213881
0.472367	0.354684
0.728417	0.506234
0.99771	0.680446
1.14781	0.770267
1.24493	0.832071
