Adsorption isotherm of Nitrogen on Zeolite 5A
DOI: 10.8888/Je8006919
Adsorbate Nitrogen: InChIKey IJGRMHOSHXDMSA-UHFFFAOYSA-N
Temperature: 273 K
Tabular data in the source: 0
pressure (bar)	uptake (mmol/g)
0.0435765	0.192857
0.0610039	0.271429
0.0915216	0.4
0.117812	0.45
0.130792	0.55
0.178989	0.642857
0.200864	0.7
0.227123	0.764286
0.248997	0.821429
0.275256	0.885714
0.297194	0.914286
0.327884	0.964286
0.358559	1.02143
0.38925	1.07143
0.419956	1.11429
0.455047	1.16429
0.490137	1.21429
0.525244	1.25714
0.56035	1.3
0.595472	1.33571
0.630578	1.37857
0.670116	1.40714
0.700822	1.45
0.740345	1.48571
0.775467	1.52143
0.814989	1.55714
0.854558	1.57143
0.889727	1.58571
0.898449	1.62143
0.937987	1.65
0.977509	1.68571
1.01706	1.70714
1.061	1.73571
1.14444	1.80714
1.22797	1.84286
