Adsorption isotherm of Nitrogen on Zeolite 5A
DOI: 10.8888/Je8006919
Adsorbate Nitrogen: InChIKey IJGRMHOSHXDMSA-UHFFFAOYSA-N
Temperature: 343 K
Tabular data in the source: 0
pressure (bar)	uptake (mmol/g)
0.0576876	0.0605769
0.101974	0.0891898
0.150786	0.140201
0.274817	0.226082
0.474163	0.366049
0.779583	0.53113
1.11143	0.683272
1.2487	0.769089
