Adsorption isotherm of Methane on Tb-pek-MOF-1
DOI: 10.1021/jacs.5b00450
Article source: Figure 7a
Adsorbate Methane: InChIKey VNWKTOKETHGBQD-UHFFFAOYSA-N
Kind: experiment
Temperature: 298 K
Tabular data in the source: 0
pressure (bar)	uptake (mmol/g)
0.153639	0.048432
0.354709	0.192353
0.555593	0.241035
0.685671	0.321088
0.957578	0.449511
1.04022	0.434075
1.39487	0.594682
1.86763	0.755913
3.0374	1.0002
3.86474	1.29029
5.84989	1.74524
