Adsorption isotherm of Carbon Dioxide on Tb-pek-MOF-1
DOI: 10.1021/jacs.5b00450
Article source: Figure 6
Adsorbate Carbon Dioxide: InChIKey CURLTUGMZLYLDI-UHFFFAOYSA-N
Kind: experiment
Isotherm type: absolute
Temperature: 298 K
Tabular data in the source: 0
pressure (bar)	uptake (cm3(STP)/cm3)
0.119733	15.9494
0.238369	30.3797
0.35317	39.4937
0.575648	47.8481
0.962108	58.481
1.18349	65.3165
1.40323	69.8734
1.8438	80.5063
3.04907	101.013
3.92474	114.684
5.02014	132.911
5.94827	144.304
7.04093	158.734
7.91495	170.127
10.0412	192.152
11.8385	208.101
14.1205	221.013
15.9133	230.886
17.9767	240.759
20.0915	246.835
21.9898	252.911
24.9721	261.266
