Adsorption isotherm of Argon on Y-aea-MOF-1
DOI: 10.1021/jacs.5b00450
Article source: Figure 4
Adsorbate Argon: InChIKey XKRFYHLGVUSROY-UHFFFAOYSA-N
Kind: experiment
Temperature: 87 K
Tabular data in the source: 0
pressure (bar)	uptake (cm3(STP)/g)
0	0
0.00197	93.5115
0.003941	132.166
0.005912	169.573
0.009853	190.778
0.017735	280.565
0.029558	313.01
0.043351	321.772
0.047292	326.77
0.07685	334.325
0.094584	338.11
0.147787	344.479
0.19902	348.35
0.242372	353.447
0.295575	354.829
0.340897	356.191
0.3941	358.82
0.443363	361.438
0.490655	362.805
0.541888	364.182
0.58918	365.549
0.638442	365.674
0.687705	367.046
0.738938	370.917
0.788201	369.795
0.837464	371.167
0.888696	373.791
0.934018	373.906
