Adsorption isotherm of Ethane on Tb-pek-MOF-1
DOI: 10.1021/jacs.5b00450
Article source: Figure 7a
Adsorbate Ethane: InChIKey OTMSDBZUPAUEDD-UHFFFAOYSA-N
Kind: experiment
Temperature: 298 K
Tabular data in the source: 0
pressure (bar)	uptake (mmol/g)
0.095145	0.333837
0.308871	0.906396
0.522346	1.35197
0.700326	1.76561
1.00838	2.2593
1.41115	2.86461
1.90838	3.45454
2.40541	3.94923
2.9022	4.31694
3.41067	4.62122
3.90711	4.81432
