Adsorption isotherm of Methane on Y-pek-MOF-1
DOI: 10.1021/jacs.5b00450
Article source: Figure 5
Adsorbate Methane: InChIKey VNWKTOKETHGBQD-UHFFFAOYSA-N
Kind: experiment
Temperature: 298 K
Tabular data in the source: 0
pressure (bar)	uptake (cm3(STP)/cm3)
0.407864	6.81447
0.712169	9.08443
1.11799	12.2626
1.32129	14.5334
1.72711	17.7116
3.65497	33.1486
5.98635	47.6729
6.79825	54.4837
7.81064	58.5654
9.83798	71.2742
11.762	79.8931
15.7108	96.6754
17.7353	104.384
19.7599	112.093
22.5927	120.249
24.616	125.685
27.6509	133.84
29.7749	138.82
34.63	150.594
39.7868	160.093
44.5396	169.595
48.5831	175.013
