Adsorption isotherm of Carbon Dioxide on Tb-pek-MOF-1
DOI: 10.1021/jacs.5b00450
Article source: Figure 7a
Adsorbate Carbon Dioxide: InChIKey CURLTUGMZLYLDI-UHFFFAOYSA-N
Kind: experiment
Temperature: 298 K
Tabular data in the source: 0
pressure (bar)	uptake (mmol/g)
0.035933	0.254158
0.119361	0.635552
0.332993	1.16049
0.522596	1.47896
1.01988	2.10063
1.24479	2.35579
1.4104	2.48365
1.91906	2.88317
3.04268	3.68277
3.92946	4.16365
5.04089	4.7727
5.90395	5.20584
