Adsorption isotherm of N-propane on Tb-pek-MOF-1
DOI: 10.1021/jacs.5b00450
Article source: Figure 7a
Adsorbate N-propane: InChIKey ATUOYWHBWRKTHZ-UHFFFAOYSA-N
Kind: experiment
Temperature: 298 K
Tabular data in the source: 0
pressure (bar)	uptake (mmol/g)
0.108425	1.07994
0.312902	2.95404
0.527158	3.79644
0.704919	4.09897
1.00067	4.33863
1.43805	4.53142
1.91075	4.6609
2.41885	4.7747
2.92682	4.82501
3.4112	4.89106
3.9074	4.95718
