Adsorption isotherm of Carbon Dioxide on Y-pek-MOF-1
DOI: 10.1021/jacs.5b00450
Article source: Figure 6
Adsorbate Carbon Dioxide: InChIKey CURLTUGMZLYLDI-UHFFFAOYSA-N
Kind: experiment
Isotherm type: absolute
Temperature: 298 K
Tabular data in the source: 0
pressure (bar)	uptake (cm3(STP)/cm3)
0.112061	5.31646
0.118089	13.6709
0.29029	27.3418
0.513316	36.4557
0.683325	47.0886
1.01458	56.2025
1.40104	66.8354
1.95257	81.2658
3.10812	107.848
3.98268	120
5.08137	142.785
6.00951	154.177
7.15957	173.165
8.03304	183.797
10.1632	211.139
12.0697	228.608
14.1386	246.076
16.0932	255.19
18.1577	266.582
20.0566	273.418
22.1719	280.253
24.9907	287.089
