Adsorption isotherm of Argon on Tb-pek-MOF-1
DOI: 10.1021/jacs.5b00450
Article source: Figure 4
Adsorbate Argon: InChIKey XKRFYHLGVUSROY-UHFFFAOYSA-N
Kind: experiment
Temperature: 87 K
Tabular data in the source: 0
pressure (bar)	uptake (cm3(STP)/g)
0	0
0.00197	92.2647
0.003941	192.01
0.005912	199.496
0.007882	226.929
0.009853	214.467
0.011823	245.64
0.013793	264.347
0.015764	278.066
0.021676	294.289
0.023646	305.515
0.029558	316.75
0.03744	327.991
0.049263	334.255
0.074879	341.801
0.082761	345.561
0.094584	348.084
0.104437	350.603
0.128083	353.157
0.143846	354.443
0.179316	357.027
0.19508	359.561
0.202961	359.581
0.248283	362.189
0.256165	364.703
0.291635	366.04
0.295575	364.803
0.340897	368.658
0.348779	367.432
0.39213	372.529
0.39607	370.045
0.439422	373.896
0.447304	373.916
0.488685	375.268
0.496566	375.288
0.537947	377.886
0.545829	375.413
0.58721	378.012
0.593121	379.273
0.636472	379.384
0.644355	380.65
0.685735	380.755
0.693616	382.022
0.731056	383.364
0.738938	384.631
0.78229	383.494
0.794112	384.771
0.833523	386.118
0.839434	386.133
0.884755	388.742
0.890667	388.757
0.935988	387.625
