Adsorption isotherm of N-Butane on Tb-pek-MOF-1
DOI: 10.1021/jacs.5b00450
Article source: Figure 7a
Adsorbate N-Butane: InChIKey IJDNQMDRQITEOD-UHFFFAOYSA-N
Kind: experiment
Temperature: 298 K
Tabular data in the source: 0
pressure (bar)	uptake (mmol/g)
0.10052	3.06402
0.279156	3.811
0.421139	3.93874
0.480257	3.9708
0.610274	4.0191
0.693014	4.05129
0.893898	4.09997
0.952985	4.11615
1.24839	4.18121
1.29563	4.18146
1.55557	4.23045
1.63822	4.21502
