Adsorption isotherm of Argon on Y-pek-MOF-1
DOI: 10.1021/jacs.5b00450
Article source: Figure 4
Adsorbate Argon: InChIKey XKRFYHLGVUSROY-UHFFFAOYSA-N
Kind: experiment
Temperature: 87 K
Tabular data in the source: 0
pressure (bar)	uptake (cm3(STP)/g)
0	107.221
0	132.151
0.00197	180.784
0.003941	155.854
0.005912	198.249
0.007882	216.955
0.009853	240.648
0.011823	259.355
0.013793	278.061
0.015764	295.521
0.017735	301.759
0.019705	319.219
0.021676	321.717
0.023646	351.645
0.025617	356.637
0.027587	367.862
0.029558	377.841
0.033498	386.579
0.045322	395.336
0.051233	400.338
0.065027	407.854
0.070938	409.115
0.084732	415.384
0.094584	416.656
0.108378	421.678
0.159611	430.535
0.200991	435.628
0.242372	438.226
0.254195	438.256
0.297546	442.107
0.301487	440.87
0.342868	444.715
0.400012	447.354
0.403953	447.364
0.443363	448.711
0.449274	448.726
0.488685	450.073
0.494596	451.335
0.535977	451.44
0.541888	452.702
0.583269	454.054
0.593121	454.079
0.63056	455.42
0.638442	455.44
0.691646	456.822
0.699528	456.842
0.736968	458.184
0.742879	458.199
