Adsorption isotherm of Hydrogen on Tb-pek-MOF-1
DOI: 10.1021/jacs.5b00450
Article source: Figure 7a
Adsorbate Hydrogen: InChIKey UFHFLCQGNIYNRP-UHFFFAOYSA-N
Kind: experiment
Temperature: 298 K
Tabular data in the source: 0
pressure (bar)	uptake (mmol/g)
0.213273	0.06462
0.426483	0.113368
0.698866	0.162428
1.04232	0.227737
1.39748	0.261362
1.90662	0.327548
3.90722	0.480991
5.90752	0.555066
