Adsorption isotherm of Methane on Tb-pek-MOF-1
DOI: 10.1021/jacs.5b00450
Article source: Figure 5
Adsorbate Methane: InChIKey VNWKTOKETHGBQD-UHFFFAOYSA-N
Kind: experiment
Isotherm type: absolute
Temperature: 298 K
Tabular data in the source: 0
pressure (bar)	uptake (cm3(STP)/cm3)
0.00102	1.81817
0.103815	4.99906
0.30762	8.17902
0.714464	13.1753
1.22181	17.2616
1.72915	21.3479
2.84408	28.156
3.6565	35.8759
5.68408	49.0392
6.79698	52.2109
7.71014	59.4754
9.83594	67.6379
11.862	78.074
15.7088	93.039
17.8328	98.0197
19.8573	105.729
22.6892	112.066
24.7132	118.866
27.6455	124.294
29.871	130.183
34.8256	139.229
39.7809	149.638
44.634	157.776
49.5881	165.913
