Adsorption isotherm of Hydrogen on Cu2C23H23NO14
DOI: 10.1021/Cg100046j
Adsorbate Hydrogen: InChIKey UFHFLCQGNIYNRP-UHFFFAOYSA-N
Temperature: 77 K
Tabular data in the source: 0
pressure (bar)	uptake (wt%)
0.00210726	0.0288288
0.00421451	0.0576577
0.00845481	0.0960961
0.0169289	0.177778
0.0169869	0.134535
0.0254611	0.216216
0.0318344	0.264264
0.0424996	0.312312
0.0510124	0.365165
0.0637977	0.432432
0.0787161	0.509309
0.100066	0.590991
0.151342	0.759159
0.200525	0.888889
0.2476	0.98979
0.298979	1.08108
0.352518	1.16276
0.401784	1.23003
0.451056	1.29249
0.500335	1.35015
0.54962	1.403
0.601065	1.44625
0.648223	1.48468
0.703972	1.51832
0.753277	1.55676
0.798303	1.58559
0.851918	1.60961
0.901255	1.62402
0.948459	1.62883
