Adsorption isotherm of Nitrogen on Cu2C23H23NO14
DOI: 10.1021/Cg100046j
Adsorbate Nitrogen: InChIKey IJGRMHOSHXDMSA-UHFFFAOYSA-N
Temperature: 77 K
Tabular data in the source: 0
pressure (bar)	uptake (cm3(STP)/g)
0.00203673	0.00203673
0.00407346	161.992
0.0101836	637.979
0.0183306	659.962
0.0407346	677.916
0.0611019	683.874
0.0835059	691.828
0.0957263	697.803
0.134424	703.723
0.160902	705.669
0.195526	705.597
0.240334	709.505
0.293289	711.396
0.342171	713.296
0.386979	713.203
0.43586	717.103
0.484742	715.002
0.537697	714.893
0.584541	714.797
0.631386	718.7
0.680268	718.6
0.731186	716.495
0.818765	714.314
0.843206	722.264
0.894124	718.159
0.928749	716.088
0.967447	718.008
