Adsorption isotherm of Hydrogen on Cu2C23H23NO14
DOI: 10.1021/Cg100046j
Adsorbate Hydrogen: InChIKey UFHFLCQGNIYNRP-UHFFFAOYSA-N
Temperature: 77 K
Tabular data in the source: 0
pressure (bar)	uptake (wt%)
1.08675	1.75495
3.12353	2.76196
5.17717	3.2144
6.99383	3.46117
9.05789	3.57078
11.1238	3.61989
13.0686	3.65187
15.1373	3.61023
17.0845	3.56155
19.1538	3.49974
21.2234	3.42785
23.1722	3.32876
25.1203	3.24983
27.1912	3.1376
29.1403	3.02842
31.2108	2.92628
33.1605	2.79693
35.2316	2.67463
37.1807	2.56545
39.2518	2.44314
41.2012	2.32387
43.1506	2.20461
45.2217	2.0823
47.1711	1.96304
49.2429	1.82057
51.1916	1.72147
53.1414	1.59212
55.2122	1.4799
59.2336	1.20808
