Adsorption isotherm of Hydrogen on Cu2C23H23NO14
DOI: 10.1021/Cg100046j
Adsorbate Hydrogen: InChIKey UFHFLCQGNIYNRP-UHFFFAOYSA-N
Temperature: 87 K
Tabular data in the source: 0
pressure (bar)	uptake (wt%)
0.0064248	0.00966952
0.0149697	0.0386264
0.0256669	0.0627743
0.0406365	0.101401
0.0513273	0.130368
0.0662969	0.168994
0.0834254	0.197992
0.10268	0.241459
0.149774	0.328433
0.201179	0.40097
0.25259	0.468687
0.301875	0.521937
0.351153	0.580006
0.400451	0.623617
0.451908	0.6576
0.501205	0.701211
0.550523	0.730364
0.604125	0.764357
0.653449	0.788691
0.702772	0.813025
0.752096	0.837359
0.799293	0.847226
0.850782	0.857112
0.902271	0.866999
0.951627	0.867237
