Adsorption isotherm of Hydrogen on Cu2C23H23NO14
DOI: 10.1021/Cg100046j
Adsorbate Hydrogen: InChIKey UFHFLCQGNIYNRP-UHFFFAOYSA-N
Temperature: 77 K
Tabular data in the source: 0
pressure (bar)	uptake (wt%)
1.32801	1.81944
3.11954	2.89304
5.17103	3.41606
7.22896	3.72734
9.16887	3.92065
11.1112	4.0333
13.0539	4.13587
15.1201	4.17489
16.9438	4.18975
19.2547	4.18236
21.0787	4.18714
23.1467	4.16566
25.2139	4.17444
29.1078	4.09724
31.1764	4.0556
33.2454	4.00388
35.193	3.94511
37.1399	3.90651
39.2092	3.84471
41.2778	3.80307
42.9817	3.76047
45.051	3.69866
47.2416	3.6439
49.1895	3.57505
51.1365	3.53645
53.3271	3.48168
55.1527	3.43604
59.2915	3.30235
