Adsorption isotherm of Nitrogen on C9H3GdO6
DOI: 10.1039/C1ce05468f
Adsorbate Nitrogen: InChIKey IJGRMHOSHXDMSA-UHFFFAOYSA-N
Temperature: 77 K
Tabular data in the source: 0
pressure (bar)	uptake (cm3(STP)/g)
0.000506	23.8342
0.001451	68.3938
0.003099	146.114
0.003451	162.694
0.03328	168.912
0.080013	172.021
0.130966	174.093
0.194647	176.166
0.245556	176.166
0.292223	176.166
0.347397	177.202
0.394064	177.202
0.43651	178.238
0.48742	178.238
0.534087	178.238
0.585018	179.275
0.631685	179.275
0.678352	179.275
0.733525	180.311
0.77595	180.311
0.826881	181.347
0.860821	181.347
0.945736	184.456
0.971322	190.674
