Adsorption isotherm of Carbon Dioxide on C9H3GdO6
DOI: 10.1039/C1ce05468f
Adsorbate Carbon Dioxide: InChIKey CURLTUGMZLYLDI-UHFFFAOYSA-N
Temperature: 273 K
Tabular data in the source: 0
pressure (bar)	uptake (cm3(STP)/g)
0.023508	3.07692
0.079919	10.2564
0.112773	13.3333
0.141002	17.4359
0.159813	20
0.188042	24.1026
0.216247	27.6923
0.244476	31.7949
0.263336	35.3846
0.329116	43.0769
0.399617	51.7949
0.469998	57.9487
0.535706	64.1026
0.606039	69.2308
0.671651	73.3333
0.741912	76.9231
0.807501	80.5128
0.877714	83.0769
0.943278	86.1538
0.966691	87.1795
0.999497	89.2308
1.02753	89.2308
1.05099	91.2821
1.06971	91.7949
