Adsorption isotherm of Carbon Dioxide on C9H3GdO6
DOI: 10.1039/C1ce05468f
Adsorbate Carbon Dioxide: InChIKey CURLTUGMZLYLDI-UHFFFAOYSA-N
Temperature: 273 K
Tabular data in the source: 0
pressure (bar)	uptake (cm3(STP)/g)
0.014091	1.53846
0.04232	5.64103
0.075222	9.74359
0.103403	12.8205
0.145723	18.4615
0.192811	26.1538
0.206949	28.7179
0.244548	33.3333
0.258639	34.8718
0.291661	41.5385
0.305751	43.0769
0.348047	48.2051
0.362138	49.7436
0.395087	54.8718
0.413851	56.4103
0.451474	61.5385
0.46554	62.5641
0.503091	66.1538
0.554733	71.2821
0.606302	74.8718
0.662545	78.4615
0.718763	81.5385
0.765612	84.1026
0.81711	86.1538
0.868632	88.7179
0.920129	90.7692
0.966906	91.7949
1.02305	93.3333
