Adsorption isotherm of Copper(II) Ion, Water on Cu-IIAFMS
DOI: 10.1166/jnn.2017.14510
Article source: Figure 5
Adsorbate Copper(II) Ion: InChIKey JPVYNHNXODAKFH-UHFFFAOYSA-N
Adsorbate Water: InChIKey XLYOFNOQVPJJNP-UHFFFAOYSA-N
Kind: experiment
Temperature: 298 K
Tabular data in the source: 0
pressure (bar)	Copper(II) Ion fraction	Copper(II) Ion uptake (mmol/g)	Water fraction	Water uptake (mmol/g)	total uptake (mmol/g)
1.01325	0.00124	0.0026			
1.01325	0.04733	0.30179			
1.01325	0.17496	0.45411			
1.01325	0.51256	0.57553			
1.01325	0.70057	0.60069			
