Adsorption isotherm of Copper(II) Ion, Water on AFMS
DOI: 10.1166/jnn.2017.14510
Article source: Figure 5
Adsorbate Copper(II) Ion: InChIKey JPVYNHNXODAKFH-UHFFFAOYSA-N
Adsorbate Water: InChIKey XLYOFNOQVPJJNP-UHFFFAOYSA-N
Kind: experiment
Temperature: 298 K
Tabular data in the source: 0
pressure (bar)	Copper(II) Ion fraction	Copper(II) Ion uptake (mmol/g)	Water fraction	Water uptake (mmol/g)	total uptake (mmol/g)
1.01325	0.00124	0.0026			
1.01325	0.01719	0.36281			
1.01325	0.08325	0.63659			
1.01325	0.18264	0.83456			
1.01325	0.33148	0.93738			
1.01325	0.5032	0.9953			
