Adsorption isotherm of Hydrogen on MIL-101
DOI: 10.1016/j.fluid.2013.11.029
Adsorbate Hydrogen: InChIKey UFHFLCQGNIYNRP-UHFFFAOYSA-N
Temperature: 97 K
Tabular data in the source: 0
pressure (bar)	uptake (mmol/g)
23.4568	17.6853
26.749	18.5592
30.0412	19.433
33.3333	20.1604
37.037	20.8872
40.7407	21.4675
44.4444	22.0479
48.1481	22.6282
51.8519	23.2086
55.5556	23.6425
59.6708	24.2222
63.3745	24.5097
67.0782	25.0901
71.1934	25.3769
74.8971	25.8108
79.0123	26.2441
82.716	26.5316
86.8313	26.8184
90.535	27.2524
94.6502	27.5392
98.3539	27.8267
