Adsorption isotherm of Hydrogen on MIL-101
DOI: 10.1016/j.fluid.2013.11.029
Adsorbate Hydrogen: InChIKey UFHFLCQGNIYNRP-UHFFFAOYSA-N
Temperature: 77 K
Tabular data in the source: 0
pressure (bar)	uptake (mmol/g)
20.02	22.6987
24.5553	23.431
28.2642	23.8703
32.3811	24.0167
36.4981	24.1632
40.6133	24.1632
44.7286	24.1632
48.8421	24.0167
52.9556	23.8703
56.6575	23.7238
60.771	23.5774
64.8845	23.431
68.5848	23.1381
72.6966	22.8452
76.8101	22.6987
80.5104	22.4059
84.6221	22.113
88.3224	21.8201
92.4342	21.5272
98.1938	21.3808
