Adsorption isotherm of Hydrogen on MIL-101
DOI: 10.1016/j.fluid.2013.11.029
Adsorbate Hydrogen: InChIKey UFHFLCQGNIYNRP-UHFFFAOYSA-N
Temperature: 112 K
Tabular data in the source: 0
pressure (bar)	uptake (mmol/g)
8.26446	8.00878
12.8099	10.3355
19.8347	12.8044
23.5537	13.3823
26.8595	14.1067
30.5785	14.6846
34.2975	15.2625
38.4298	15.694
42.1488	16.126
46.281	16.4117
50	16.8438
54.1322	16.9836
57.8512	17.2698
61.9835	17.4096
66.1157	17.5494
70.2479	17.6892
73.9669	17.8296
78.0992	17.8236
82.2314	17.9634
86.3636	17.9574
90.4959	17.9514
94.6281	17.9453
98.7603	17.9393
