Adsorption isotherm of Hydrogen on MIL-101
DOI: 10.1016/j.fluid.2013.11.029
Adsorbate Hydrogen: InChIKey UFHFLCQGNIYNRP-UHFFFAOYSA-N
Temperature: 298 K
Tabular data in the source: 0
pressure (bar)	uptake (mmol/g)
11.8367	0.77551
23.2653	1.24737
27.3469	1.40507
31.8367	1.7149
35.9184	1.8726
39.5918	2.02968
43.6735	2.18738
47.7551	2.34508
51.4286	2.65368
55.5102	2.81138
59.5918	2.96908
63.6735	3.12678
67.7551	3.28448
71.4286	3.59307
75.5102	3.59926
79.5918	3.90847
83.2653	4.06555
87.3469	4.22325
91.4286	4.38095
95.5102	4.53865
99.1837	4.69573
