Adsorption isotherm of Hydrogen on MIL-101
DOI: 10.1016/j.fluid.2013.11.029
Adsorbate Hydrogen: InChIKey UFHFLCQGNIYNRP-UHFFFAOYSA-N
Temperature: 298 K
Tabular data in the source: 0
pressure (bar)	uptake (mmol/g)
13.2231	1.43905
23.9669	1.86088
28.0992	2.00069
32.2314	2.1405
35.9504	2.28091
40.0826	2.42071
44.2149	2.56052
48.3471	2.70033
52.0661	2.84074
56.1983	2.98054
60.3306	2.97452
64.4628	3.11433
68.1818	3.25473
72.314	3.39454
76.4463	3.38852
80.1653	3.52893
84.2975	3.66873
88.4298	3.66271
92.562	3.80251
96.6942	3.94232
