Adsorption isotherm of Hydrogen on CuBTC
DOI: 10.1016/j.fluid.2013.11.029
Adsorbate Hydrogen: InChIKey UFHFLCQGNIYNRP-UHFFFAOYSA-N
Temperature: 77 K
Tabular data in the source: 0
pressure (bar)	uptake (mmol/g)
0.210426	4.81349
0.966491	7.10848
1.08149	9.73911
1.78617	10.8587
1.84734	12.258
3.2249	13.7696
5.23618	14.7776
6.57214	15.3377
11.8475	16.0108
14.4925	16.5152
18.4465	16.9641
23.0563	17.4132
27.6612	17.7503
35.5351	17.8644
39.4818	18.1454
44.7228	18.0349
50.6123	17.7567
63.0421	17.0885
68.9316	16.8103
74.1629	16.476
80.0548	16.2537
85.2885	15.9754
90.5198	15.641
97.7306	15.5871
101.65	15.2523
107.54	14.9741
113.432	14.7519
119.324	14.5297
125.213	14.2515
131.105	14.0292
136.997	13.807
142.887	13.5288
148.778	13.3066
154.67	13.0843
160.56	12.8061
165.148	12.7514
176.922	12.0831
185.424	11.5817
199.829	11.082
204.402	10.6915
