Adsorption isotherm of Hydrogen on MIL-101
DOI: 10.1016/j.fluid.2013.11.029
Adsorbate Hydrogen: InChIKey UFHFLCQGNIYNRP-UHFFFAOYSA-N
Temperature: 97 K
Tabular data in the source: 0
pressure (bar)	uptake (mmol/g)
11.7647	12.4159
16.8067	14.7239
24.7899	17.0408
28.5714	17.8166
32.3529	18.2867
36.1345	18.7567
40.3361	19.2281
44.1176	19.3925
48.3193	19.711
52.521	19.8767
56.7227	19.8895
60.9244	20.0552
65.1261	20.0681
69.3277	20.0809
73.5294	20.0938
77.3109	19.9525
81.5126	19.9653
85.7143	19.8253
89.916	19.8382
94.1176	19.6982
98.3193	19.5582
