Adsorption isotherm of Hydrogen on MIL-101
DOI: 10.1016/j.fluid.2013.11.029
Adsorbate Hydrogen: InChIKey UFHFLCQGNIYNRP-UHFFFAOYSA-N
Temperature: 97 K
Tabular data in the source: 0
pressure (bar)	uptake (mmol/g)
10.3306	12.6724
16.1157	15.1432
21.4876	16.7395
23.9669	17.3192
27.2727	18.0436
31.405	18.6209
35.124	19.1988
38.843	19.6309
42.9752	19.9165
46.6942	20.2027
50.8264	20.3425
54.9587	20.4824
59.0909	20.6222
62.8099	20.7626
66.9421	20.7565
71.0744	20.7505
75.2066	20.7445
79.3388	20.7385
83.4711	20.5866
87.6033	20.5806
91.7355	20.4287
95.8678	20.2769
100	20.2708
