Adsorption isotherm of Hydrogen on CuBTC
DOI: 10.1016/j.fluid.2013.11.029
Adsorbate Hydrogen: InChIKey UFHFLCQGNIYNRP-UHFFFAOYSA-N
Temperature: 296 K
Tabular data in the source: 0
pressure (bar)	uptake (mmol/g)
1.23409	0.376012
6.91228	0.58954
12.5859	0.856832
17.6448	0.909235
23.3411	0.907704
25.8365	1.33714
31.5147	1.55067
37.1974	1.71043
43.5131	1.87002
53.0115	1.81371
56.1489	2.13544
61.8316	2.29521
68.1518	2.40103
73.8345	2.5608
80.1547	2.66663
86.4794	2.71869
92.1622	2.87845
98.4869	2.93051
104.201	2.71392
107.972	3.03549
113.659	3.14149
119.351	3.19372
125.675	3.24579
132	3.29785
137.692	3.35008
144.017	3.40215
149.718	3.34685
155.418	3.29155
159.831	3.50542
166.155	3.55749
171.847	3.60972
178.172	3.66178
183.864	3.71402
191.473	3.55068
196.518	3.76438
202.21	3.81661
