Adsorption isotherm of Hydrogen on CuBTC
DOI: 10.1016/j.fluid.2013.11.029
Adsorbate Hydrogen: InChIKey UFHFLCQGNIYNRP-UHFFFAOYSA-N
Temperature: 113 K
Tabular data in the source: 0
pressure (bar)	uptake (mmol/g)
1.30442	7.04266
3.15782	7.5798
5.00216	8.22446
6.85556	8.7616
13.6862	10.3189
16.81	10.8019
19.9383	11.2312
36.2855	12.5171
41.9637	12.7307
47.6509	12.8367
55.8653	12.9957
62.1901	13.0478
68.5193	13.0461
74.8486	13.0444
81.1778	13.0427
87.5116	12.9872
93.2125	12.9319
102.715	12.8219
109.049	12.7664
114.755	12.6573
121.093	12.5481
127.427	12.4926
133.132	12.3836
139.471	12.2743
146.442	12.1649
152.776	12.1095
158.481	12.0004
164.819	11.8912
174.327	11.7273
180.661	11.6719
197.144	11.3449
202.845	11.2896
