Adsorption isotherm of Hydrogen on Graphite
DOI: 10.1016/j.fluid.2013.11.029
Adsorbate Hydrogen: InChIKey UFHFLCQGNIYNRP-UHFFFAOYSA-N
Temperature: 50 K
Tabular data in the source: 0
pressure (bar)	uptake (mmol/g)
2.67765	32.4409
3.62899	36.0817
6.74655	39.5676
10.7812	41.1563
15.7348	41.1641
20.0662	40.6963
24.7024	39.4378
29.0319	38.6535
31.5028	37.7081
33.9738	36.7626
35.5169	35.9739
37.9898	35.3449
42.6249	33.9282
47.5668	32.0373
50.0377	31.0918
52.5106	30.4628
55.2931	29.8343
58.0746	29.0476
63.6396	27.7906
68.8949	26.5331
76.6271	25.2795
82.8133	24.3399
89.31	23.559
94.5693	22.9344
98.5931	22.7826
