Adsorption isotherm of Hydrogen on CuBTC
DOI: 10.1016/j.fluid.2013.11.029
Adsorbate Hydrogen: InChIKey UFHFLCQGNIYNRP-UHFFFAOYSA-N
Temperature: 296 K
Tabular data in the source: 0
pressure (bar)	uptake (mmol/g)
1.3066	-0.111575
7.2181	0.11396
13.132	0.395466
23.6313	0.566315
28.2338	0.847453
34.7986	1.0172
40.7101	1.24274
46.6216	1.46827
53.8397	1.58223
59.7487	1.7518
66.3111	1.86557
72.2201	2.03514
78.7825	2.14891
84.6891	2.26251
91.2514	2.37628
97.1556	2.43391
105.688	2.6042
111.594	2.7178
118.157	2.83157
124.061	2.8892
130.623	3.00297
137.183	3.06078
143.087	3.1184
148.994	3.23199
157.521	3.29035
164.081	3.34816
170.641	3.40596
176.545	3.46359
183.105	3.52139
192.946	3.63609
199.506	3.69389
206.066	3.7517
