Adsorption isotherm of Hydrogen on MIL-101
DOI: 10.1016/j.fluid.2013.11.029
Adsorbate Hydrogen: InChIKey UFHFLCQGNIYNRP-UHFFFAOYSA-N
Temperature: 87 K
Tabular data in the source: 0
pressure (bar)	uptake (mmol/g)
18.4874	18.7028
21.8487	19.6301
25.6303	20.4059
29.4118	20.8759
33.1933	21.346
37.395	21.6645
41.5966	21.8302
45.3782	21.9946
49.5798	22.1603
53.7815	22.1731
57.9832	22.186
62.1849	22.046
66.3866	21.906
70.5882	21.9188
74.3697	21.7775
78.5714	21.6376
82.7731	21.4976
86.9748	21.2047
90.7563	21.0634
94.958	20.9235
99.1597	20.7835
