Adsorption isotherm of Hydrogen on IRMOF-1
DOI: 10.1016/j.fluid.2013.11.029
Adsorbate Hydrogen: InChIKey UFHFLCQGNIYNRP-UHFFFAOYSA-N
Temperature: 125 K
Tabular data in the source: 0
pressure (bar)	uptake (mmol/g)
3.77517	1.17533
7.21242	3.01399
10.9933	5.01991
16.4865	7.03152
22.6647	9.0454
28.4958	10.3937
33.2962	11.2402
40.1525	12.2596
47.0088	13.2791
52.4918	13.7957
57.2887	14.1438
62.0867	14.6581
64.8265	14.6672
67.9099	14.8436
71.3358	15.021
74.0755	15.0302
77.1601	15.3726
80.586	15.5501
83.3257	15.5592
86.7516	15.7367
90.1764	15.7481
93.6011	15.7595
97.027	15.937
