Adsorption isotherm of Hydrogen on IRMOF-1
DOI: 10.1016/j.fluid.2013.11.029
Adsorbate Hydrogen: InChIKey UFHFLCQGNIYNRP-UHFFFAOYSA-N
Temperature: 50 K
Tabular data in the source: 0
pressure (bar)	uptake (mmol/g)
0.89378	32.2326
2.06103	36.3797
2.09438	34.7839
3.58179	38.6113
4.48558	40.3652
6.33317	41.958
10.0784	42.7499
14.4739	42.4237
18.8761	41.7784
23.9253	40.1746
28.0273	38.8914
30.2418	37.9305
39.7332	33.7664
41.9476	32.8054
44.4789	31.6843
47.0068	30.7229
56.1681	27.3572
58.6927	26.5553
61.5308	25.7529
64.3689	24.9505
66.8934	24.1486
69.7282	23.5058
72.5629	22.8629
75.7112	22.2196
82.638	20.7724
85.4694	20.2891
88.6143	19.8054
91.4457	19.3222
94.5906	18.8384
97.422	18.3552
