Adsorption isotherm of Hydrogen on IRMOF-1
DOI: 10.1016/j.fluid.2013.11.029
Adsorbate Hydrogen: InChIKey UFHFLCQGNIYNRP-UHFFFAOYSA-N
Temperature: 100 K
Tabular data in the source: 0
pressure (bar)	uptake (mmol/g)
1.25392	1.59374
3.44828	3.98386
5.32915	6.69362
10.9718	10.9931
15.9875	13.6979
21.0031	15.9239
26.0188	17.0329
30.4075	17.9834
33.2288	18.6172
36.6771	19.0904
39.4984	19.4051
42.6332	20.0384
45.768	20.1929
48.9028	20.5071
52.0376	20.6616
63.0094	21.2824
66.1442	21.2774
69.279	21.432
72.4138	21.427
75.5486	21.422
83.0721	21.41
86.2069	21.2454
89.3417	21.2404
92.4765	21.2354
95.6113	21.0708
98.4326	21.0663
