Adsorption isotherm of Hydrogen on MIL-101
DOI: 10.1016/j.fluid.2013.11.029
Adsorbate Hydrogen: InChIKey UFHFLCQGNIYNRP-UHFFFAOYSA-N
Temperature: 112 K
Tabular data in the source: 0
pressure (bar)	uptake (mmol/g)
10.9244	8.59235
16.8067	11.2086
21.8487	12.7524
25.6303	13.2225
28.9916	13.9969
33.1933	14.6211
36.9748	15.0912
40.7563	15.5613
44.958	16.0326
48.7395	16.3499
52.9412	16.6684
56.7227	16.8328
60.9244	16.9985
65.1261	17.1641
69.3277	17.3298
73.5294	17.3427
77.7311	17.3555
81.9328	17.5212
86.1345	17.534
90.3361	17.5469
94.5378	17.5597
98.7395	17.5726
