Adsorption isotherm of Hydrogen on IRMOF-1
DOI: 10.1016/j.fluid.2013.11.029
Adsorbate Hydrogen: InChIKey UFHFLCQGNIYNRP-UHFFFAOYSA-N
Temperature: 50 K
Tabular data in the source: 0
pressure (bar)	uptake (mmol/g)
1.57233	27.8623
2.51572	32.316
4.71698	35.6199
6.28931	37.6032
9.74843	39.7574
14.7799	40.763
20.4403	40.452
25.7862	39.4806
29.8742	38.5051
32.3899	37.6892
35.2201	36.8744
37.7358	35.8936
44.6541	33.2791
49.0566	32.1397
53.7736	30.6718
56.6038	30.0218
59.434	29.2069
63.2075	28.3952
66.3522	27.7462
71.6981	26.61
74.8428	26.2907
77.673	25.8055
80.5031	25.3203
83.6478	25.001
86.7925	24.6817
89.6226	24.3614
92.4528	23.8762
95.5975	23.5569
98.7421	23.2376
