Adsorption isotherm of Hydrogen on MIL-101
DOI: 10.1016/j.fluid.2013.11.029
Adsorbate Hydrogen: InChIKey UFHFLCQGNIYNRP-UHFFFAOYSA-N
Temperature: 127 K
Tabular data in the source: 0
pressure (bar)	uptake (mmol/g)
11.7647	6.45518
14.2857	7.53275
19.3277	8.92371
23.5294	10.1593
26.8908	10.6281
31.0924	11.2522
34.8739	11.8752
38.6555	12.4981
42.8571	12.8166
46.6387	13.1338
50.8403	13.6052
54.6218	13.9224
58.8235	14.0881
62.605	14.4053
66.8067	14.571
71.0084	14.7367
75.2101	14.9024
78.9916	15.0668
83.1933	15.2325
87.395	15.2453
91.5966	15.411
95.7983	15.4238
100	15.4367
