Adsorption isotherm of Hydrogen on MIL-101
DOI: 10.1016/j.fluid.2013.11.029
Adsorbate Hydrogen: InChIKey UFHFLCQGNIYNRP-UHFFFAOYSA-N
Temperature: 112 K
Tabular data in the source: 0
pressure (bar)	uptake (mmol/g)
6.53061	6.37353
13.4694	10.6265
18.3673	11.9975
23.2653	13.2171
26.5306	13.9796
30.2041	14.5912
33.8776	15.2028
37.551	15.8145
41.6327	16.2752
45.3061	16.7353
49.3878	17.0445
53.0612	17.3531
57.1429	17.6623
60.8163	17.9709
64.898	18.1286
68.9796	18.2863
72.6531	18.4434
76.7347	18.6011
80.8163	18.7588
84.898	18.765
88.9796	18.9227
93.0612	18.9289
97.1429	18.9351
