Adsorption isotherm of Hydrogen on CuBTC
DOI: 10.1016/j.fluid.2013.11.029
Adsorbate Hydrogen: InChIKey UFHFLCQGNIYNRP-UHFFFAOYSA-N
Temperature: 196 K
Tabular data in the source: 0
pressure (bar)	uptake (mmol/g)
0.0562767	1.28733
4.00788	1.68023
8.61767	2.12928
12.5717	2.57815
21.7791	3.19639
25.7331	3.64526
30.3405	4.03834
35.6011	4.37563
40.8618	4.71293
49.406	5.16308
55.32	5.44459
61.2315	5.67012
67.143	5.89566
73.052	6.06522
79.6168	6.23497
85.5259	6.40453
92.0882	6.51831
97.9948	6.6319
104.557	6.74568
110.461	6.8033
117.021	6.86111
129.485	6.97654
136.048	7.09031
141.949	7.09196
148.509	7.14977
154.413	7.20739
160.973	7.2652
167.533	7.323
175.402	7.32521
181.962	7.38301
188.522	7.44082
193.112	7.4421
200.981	7.4443
206.227	7.44577
