Adsorption isotherm of Hydrogen on MIL-101
DOI: 10.1016/j.fluid.2013.11.029
Adsorbate Hydrogen: InChIKey UFHFLCQGNIYNRP-UHFFFAOYSA-N
Temperature: 127 K
Tabular data in the source: 0
pressure (bar)	uptake (mmol/g)
9.50413	6.25697
16.1157	8.7265
19.0083	9.74311
22.7273	10.4669
26.4463	10.8989
29.7521	11.6233
33.8843	12.0548
37.6033	12.6327
41.3223	13.0647
45.4545	13.3504
49.1736	13.7825
53.3058	14.0681
57.438	14.3537
61.157	14.64
65.2893	14.7798
69.4215	14.9196
73.1405	15.06
77.2727	15.3456
81.405	15.3396
85.5372	15.4794
89.6694	15.4734
93.8017	15.6132
97.5207	15.7536
