Adsorption isotherm of Hydrogen on CuBTC
DOI: 10.1016/j.fluid.2013.11.029
Adsorbate Hydrogen: InChIKey UFHFLCQGNIYNRP-UHFFFAOYSA-N
Temperature: 296 K
Tabular data in the source: 0
pressure (bar)	uptake (mmol/g)
1.26983	0.000346316
6.97481	0.220084
12.6798	0.439822
19.0197	0.659733
23.4572	0.824579
29.1668	0.935227
35.5067	1.15514
41.214	1.32033
46.9212	1.48552
53.2635	1.65089
59.608	1.76171
65.3153	1.9269
71.6598	2.03773
77.3694	2.14837
83.079	2.25902
89.4212	2.42439
95.768	2.48066
104.02	2.53746
108.457	2.70231
114.802	2.81313
120.511	2.92378
126.856	3.0346
133.203	3.09087
138.914	3.14698
145.259	3.2578
156.048	3.36983
162.395	3.42611
167.472	3.48204
173.818	3.53831
179.53	3.59442
187.145	3.70558
195.396	3.76238
201.108	3.81848
207.455	3.87476
