Adsorption isotherm of Hydrogen on MIL-101
DOI: 10.1016/j.fluid.2013.11.029
Adsorbate Hydrogen: InChIKey UFHFLCQGNIYNRP-UHFFFAOYSA-N
Temperature: 87 K
Tabular data in the source: 0
pressure (bar)	uptake (mmol/g)
10.3306	15.1516
12.3967	16.4611
14.4628	17.6247
17.3554	18.6414
20.2479	19.658
23.5537	20.2365
26.4463	21.1073
30.5785	21.6846
34.2975	22.1166
38.0165	22.5487
42.1488	22.6885
46.281	22.9742
49.5868	22.9694
53.719	22.9633
57.8512	23.1031
61.9835	22.9513
65.7025	22.9459
69.4215	22.7946
73.5537	22.6427
77.686	22.6367
81.8182	22.4848
85.5372	22.1878
89.6694	22.0359
93.8017	21.884
97.5207	21.7328
