Adsorption isotherm of Hydrogen on MIL-101
DOI: 10.1016/j.fluid.2013.11.029
Adsorbate Hydrogen: InChIKey UFHFLCQGNIYNRP-UHFFFAOYSA-N
Temperature: 77 K
Tabular data in the source: 0
pressure (bar)	uptake (mmol/g)
16.1157	22.4348
18.595	23.452
23.5537	24.3198
27.2727	24.8977
31.405	25.3292
35.124	25.6154
39.2562	25.7553
43.3884	25.7492
47.5207	25.7432
51.6529	25.5913
55.7851	25.4395
59.5041	25.2882
63.6364	25.1364
67.7686	24.8387
71.4876	24.5416
75.6198	24.3897
79.3388	24.0926
83.4711	23.7949
87.6033	23.4972
91.3223	23.2002
95.4545	22.9025
99.1736	22.6054
