Adsorption isotherm of Hydrogen on IRMOF-1
DOI: 10.1016/j.fluid.2013.11.029
Adsorbate Hydrogen: InChIKey UFHFLCQGNIYNRP-UHFFFAOYSA-N
Temperature: 125 K
Tabular data in the source: 0
pressure (bar)	uptake (mmol/g)
1.88679	2.14908
4.71698	4.30126
7.2327	5.62824
11.0063	6.62969
15.0943	8.12668
20.1258	9.13228
23.2704	10.1317
27.9874	10.6417
33.0189	11.6473
37.4214	11.9915
44.6541	13.0044
48.4277	13.5113
51.8868	13.6875
55.0314	13.8627
59.1195	14.0411
64.4654	14.3883
66.9811	14.5615
70.1258	14.7367
73.2704	14.9119
76.4151	14.9222
79.5597	15.0974
82.3899	15.2716
85.5346	15.282
88.6792	15.2923
91.8239	15.4676
94.9686	15.4779
98.1132	15.6531
