Adsorption isotherm of Hydrogen on Graphite
DOI: 10.1016/j.fluid.2013.11.029
Adsorbate Hydrogen: InChIKey UFHFLCQGNIYNRP-UHFFFAOYSA-N
Temperature: 30 K
Tabular data in the source: 0
pressure (bar)	uptake (mmol/g)
2.80012	52.2196
5.27497	51.9071
7.12473	50.6442
8.33374	45.8993
8.66392	49.2226
8.85007	29.2862
9.1195	22.7992
11.5904	21.8538
14.3729	21.2253
17.1554	20.5968
20.2475	19.9687
23.031	19.4985
25.8154	19.1864
28.9085	18.7166
40.3558	17.4689
43.1403	17.1569
46.2343	16.8453
49.3294	16.692
52.1148	16.5382
54.8992	16.2261
57.9933	15.9145
61.0883	15.7612
64.1833	15.6079
66.9678	15.2958
70.0628	15.1425
73.1578	14.9892
87.3936	14.0623
90.4896	14.0672
93.5846	13.9139
96.6796	13.7606
