Adsorption isotherm of Hydrogen on Graphite
DOI: 10.1016/j.fluid.2013.11.029
Adsorbate Hydrogen: InChIKey UFHFLCQGNIYNRP-UHFFFAOYSA-N
Temperature: 100 K
Tabular data in the source: 0
pressure (bar)	uptake (mmol/g)
1.87916	3.48399
3.13226	5.85939
4.06988	7.28492
7.49214	9.98021
11.8432	12.677
15.5682	14.2651
20.222	15.8548
26.4219	17.1304
30.141	17.7692
33.2399	18.2488
39.7464	19.0502
45.3212	19.3755
49.6576	19.6988
56.4688	19.7096
59.5658	19.8727
63.5906	19.8791
66.6876	20.0422
69.7836	20.0471
72.8796	20.052
75.9756	20.0569
79.0716	20.0618
82.1676	20.0667
87.7404	20.0755
94.241	19.9276
98.2658	19.934
