Adsorption isotherm of Hydrogen on IRMOF-1
DOI: 10.1016/j.fluid.2013.11.029
Adsorbate Hydrogen: InChIKey UFHFLCQGNIYNRP-UHFFFAOYSA-N
Temperature: 125 K
Tabular data in the source: 0
pressure (bar)	uptake (mmol/g)
4.70219	1.74782
7.21003	3.49913
11.5987	5.08787
16.6144	6.83519
22.884	8.42093
29.4671	9.8466
35.4232	10.9541
42.9467	11.8996
47.9624	12.3703
53.9185	13.1586
57.0533	13.3132
64.2633	14.0996
67.0846	13.9355
70.2194	14.2496
73.0408	14.4047
78.0564	14.5563
81.1912	14.7109
84.326	14.7059
87.4608	14.8604
90.5956	15.015
93.7304	15.01
96.8652	15.005
