Adsorption isotherm of Hydrogen on MIL-101
DOI: 10.1016/j.fluid.2013.11.029
Adsorbate Hydrogen: InChIKey UFHFLCQGNIYNRP-UHFFFAOYSA-N
Temperature: 87 K
Tabular data in the source: 0
pressure (bar)	uptake (mmol/g)
9.0535	15.2169
11.1111	16.5318
13.5802	17.4069
16.8724	18.7201
19.3416	19.5951
22.2222	20.4695
25.9259	21.3428
29.2181	22.2166
32.9218	22.797
36.214	23.5244
39.9177	24.2512
43.6214	24.8315
47.3251	25.2654
51.4403	25.8452
55.144	26.2791
58.8477	26.713
62.963	27.1463
66.6667	27.5802
70.7819	28.0135
74.4856	28.4474
78.6008	28.7343
82.716	29.1676
86.4198	29.455
90.535	29.7419
94.6502	30.0288
98.3539	30.3162
