Adsorption isotherm of Hydrogen on IRMOF-1
DOI: 10.1016/j.fluid.2013.11.029
Adsorbate Hydrogen: InChIKey UFHFLCQGNIYNRP-UHFFFAOYSA-N
Temperature: 30 K
Tabular data in the source: 0
pressure (bar)	uptake (mmol/g)
2.7432	50.5075
5.47844	49.8521
7.18284	48.695
8.48674	39.0647
8.50722	42.0548
8.52771	45.0449
8.54477	47.5367
8.78598	32.7534
8.8076	35.9097
9.10911	29.9306
9.77131	26.6105
11.4757	25.4534
16.606	24.4738
19.6848	23.9857
23.1062	23.4987
26.1861	23.1767
29.6086	22.8558
32.6886	22.5338
36.111	22.213
39.5346	22.0583
42.6146	21.7363
46.0371	21.4154
49.1182	21.2595
63.4941	20.1445
66.9189	20.1559
70	20
73.4236	19.8453
76.5047	19.6894
79.9283	19.5346
82.667	19.3776
86.0906	19.2229
89.1717	19.067
92.5953	18.9123
95.6764	18.7564
99.1	18.6017
