Adsorption isotherm of Hydrogen on IRMOF-1
DOI: 10.1016/j.fluid.2013.11.029
Adsorbate Hydrogen: InChIKey UFHFLCQGNIYNRP-UHFFFAOYSA-N
Temperature: 200 K
Tabular data in the source: 0
pressure (bar)	uptake (mmol/g)
4.02685	0.519192
7.04698	0.697911
11.4094	1.21823
13.0872	1.22389
17.4497	1.40713
20.4698	1.92293
23.4899	1.93311
26.1745	2.27924
29.1946	2.45796
32.5503	2.80635
36.5772	3.157
39.9329	3.33685
43.2886	3.5167
46.6443	3.69655
50.6711	4.04721
54.0268	4.05852
57.047	4.40578
60.7383	4.58676
63.4228	4.76435
66.7785	4.77566
70.1342	4.95551
73.4899	4.96682
76.5101	5.14554
79.8658	5.32539
83.2215	5.3367
86.5772	5.51655
89.5973	5.52673
92.953	5.70658
96.3087	5.88643
99.6644	5.89775
