Adsorption isotherm of Hydrogen on MIL-101
DOI: 10.1016/j.fluid.2013.11.029
Adsorbate Hydrogen: InChIKey UFHFLCQGNIYNRP-UHFFFAOYSA-N
Temperature: 298 K
Tabular data in the source: 0
pressure (bar)	uptake (mmol/g)
22.2463	2.05021
26.3633	2.19665
30.0704	2.48954
34.1891	2.78243
38.306	2.92887
42.0132	3.22176
46.1301	3.3682
50.2471	3.51464
53.9542	3.80753
58.0712	3.95397
62.1881	4.10042
65.8936	4.24686
70.0122	4.53975
74.1292	4.68619
78.2461	4.83264
81.9515	4.97908
86.0685	5.12552
90.1854	5.27197
94.3024	5.41841
98.0078	5.56485
