Adsorption isotherm of Hydrogen on IRMOF-1
DOI: 10.1016/j.fluid.2013.11.029
Adsorbate Hydrogen: InChIKey UFHFLCQGNIYNRP-UHFFFAOYSA-N
Temperature: 77 K
Tabular data in the source: 0
pressure (bar)	uptake (mmol/g)
1.582	3.54396
2.1196	7.08457
4.5038	14.9743
10.0212	22.8741
14.7399	27.2324
26.25	32.256
42.7133	35.5262
54.731	37.1734
59.1725	37.8311
67.0083	38.4998
74.5823	39.0067
80.8515	39.6703
89.9921	40.1823
96.7821	40.5258
