Adsorption isotherm of Hydrogen on CuBTC
DOI: 10.1016/j.fluid.2013.11.029
Adsorbate Hydrogen: InChIKey UFHFLCQGNIYNRP-UHFFFAOYSA-N
Temperature: 113 K
Tabular data in the source: 0
pressure (bar)	uptake (mmol/g)
2.27309	6.9969
4.26479	7.55716
5.59831	8.06127
7.59001	8.62153
10.9079	9.51798
14.8742	10.2467
18.1749	10.7514
21.4757	11.256
37.2698	12.5477
43.1813	12.7733
49.088	12.8869
56.3109	13.1128
62.8708	13.1706
69.4307	13.2284
75.3349	13.286
81.8899	13.2319
88.4474	13.2337
94.3442	13.1234
103.52	13.014
110.075	12.9599
116.63	12.9058
122.527	12.7955
129.079	12.6854
134.976	12.5751
141.531	12.521
148.081	12.3549
153.98	12.3006
160.533	12.1904
166.43	12.0802
182.155	11.8047
190.019	11.695
199.846	11.4738
206.398	11.3637
