Adsorption isotherm of Hydrogen on IRMOF-1
DOI: 10.1016/j.fluid.2013.11.029
Adsorbate Hydrogen: InChIKey UFHFLCQGNIYNRP-UHFFFAOYSA-N
Temperature: 40 K
Tabular data in the source: 0
pressure (bar)	uptake (mmol/g)
1.28064	43.7214
2.15775	46.7519
6.21311	47.7029
11.259	46.2586
14.4272	44.6578
17.6155	42.0995
20.1768	39.5423
23.0649	36.3462
24.3488	34.908
25.6328	33.4697
26.6066	31.8724
28.2041	30.4337
30.4419	28.3557
32.036	27.0765
33.9436	25.7969
36.1614	24.6763
38.3792	23.5558
40.597	22.4352
43.1216	21.6333
53.2133	18.7449
56.0447	18.2616
58.8794	17.6188
62.0243	17.1351
64.8558	16.6518
68.0007	16.1681
70.8354	15.5253
73.977	15.2011
80.8938	14.2326
84.0354	13.9085
86.5533	13.4257
89.6915	13.2611
92.5196	12.9375
95.6612	12.6133
98.8027	12.2891
