Adsorption isotherm of Hydrogen on IRMOF-1
DOI: 10.1016/j.fluid.2013.11.029
Adsorbate Hydrogen: InChIKey UFHFLCQGNIYNRP-UHFFFAOYSA-N
Temperature: 200 K
Tabular data in the source: 0
pressure (bar)	uptake (mmol/g)
9.58926	0.031858
15.4159	0.715667
19.8703	1.06269
27.4093	1.75219
32.5509	2.43372
36.664	2.94573
40.0887	2.95711
43.5169	3.46683
46.5992	3.47707
51.0547	3.99022
54.4806	4.16771
63.3883	4.69564
66.8153	5.03925
69.8976	5.04949
72.9821	5.39197
76.408	5.56946
79.8339	5.74696
83.2598	5.92445
86.6845	5.93583
89.7679	6.11219
93.1938	6.28968
96.2772	6.46604
99.703	6.64353
