Adsorption isotherm of Hydrogen on MIL-101
DOI: 10.1016/j.fluid.2013.11.029
Adsorbate Hydrogen: InChIKey UFHFLCQGNIYNRP-UHFFFAOYSA-N
Temperature: 97 K
Tabular data in the source: 0
pressure (bar)	uptake (mmol/g)
6.53061	9.85838
11.0204	13.047
17.551	15.6327
24.0816	17.3092
27.7551	18.0724
31.4286	18.684
35.102	19.2956
38.7755	19.7557
42.8571	20.2165
46.5306	20.525
50.2041	20.9852
54.2857	20.9913
57.9592	21.2999
62.0408	21.4576
66.1224	21.4638
70.2041	21.6215
74.2857	21.6277
78.3673	21.7854
82.449	21.7916
86.5306	21.7978
90.2041	21.6518
94.2857	21.658
98.3673	21.5127
