Adsorption isotherm of Hydrogen on IRMOF-1
DOI: 10.1016/j.fluid.2013.11.029
Adsorbate Hydrogen: InChIKey UFHFLCQGNIYNRP-UHFFFAOYSA-N
Temperature: 77 K
Tabular data in the source: 0
pressure (bar)	uptake (mmol/g)
1.88088	8.61402
2.82132	11.804
4.70219	15.3116
7.83699	20.5726
14.7335	25.5084
21.0031	27.7324
24.7649	28.5243
27.8997	28.998
31.0345	29.1526
34.1693	29.4668
36.9906	29.7814
39.185	29.6183
43.5737	29.6113
47.0219	29.2867
51.7241	29.2792
56.1129	29.2722
63.0094	28.6229
65.8307	28.2992
68.652	27.9756
77.7429	27.0036
80.8777	26.839
83.6991	26.5154
86.8339	26.1912
89.6552	25.8676
92.79	25.5434
95.6113	25.0602
98.7461	24.8956
