Adsorption isotherm of Hydrogen on IRMOF-1
DOI: 10.1016/j.fluid.2013.11.029
Adsorbate Hydrogen: InChIKey UFHFLCQGNIYNRP-UHFFFAOYSA-N
Temperature: 200 K
Tabular data in the source: 0
pressure (bar)	uptake (mmol/g)
7.21003	0.626793
9.71787	0.782365
13.4796	1.09551
17.5549	1.40816
20.3762	1.7228
23.8245	1.87688
26.6458	2.19152
29.1536	2.3471
32.2884	2.50167
35.1097	2.97589
36.9906	2.97289
40.1254	2.80831
43.8871	3.44061
46.7085	3.27653
51.4107	3.74775
54.5455	3.58317
63.9498	4.36604
66.7712	4.20196
69.5925	4.19746
72.7273	4.35203
75.8621	4.5066
78.9969	4.5016
82.1317	4.65617
85.2665	4.81075
88.0878	4.96582
91.2226	4.96082
94.3574	5.11539
97.4922	5.11038
