Adsorption isotherm of Hydrogen on CuBTC
DOI: 10.1016/j.fluid.2013.11.029
Adsorbate Hydrogen: InChIKey UFHFLCQGNIYNRP-UHFFFAOYSA-N
Temperature: 113 K
Tabular data in the source: 0
pressure (bar)	uptake (mmol/g)
0.9997	6.38209
2.24644	6.92789
4.1304	7.41931
5.37714	7.9651
7.25879	8.51107
9.14275	9.00249
14.169	10.2584
16.6878	10.75
19.8416	11.2418
35.6544	12.6643
41.3594	12.884
47.0644	13.1037
54.0415	13.2693
60.386	13.3801
66.0979	13.4362
72.4471	13.4379
78.7962	13.4397
85.1453	13.4414
90.8642	13.3339
99.7576	13.2272
106.109	13.1744
112.46	13.1216
118.179	13.014
124.531	12.9612
130.25	12.8537
136.603	12.7463
142.322	12.6388
148.674	12.586
155.03	12.4241
160.746	12.3711
167.102	12.2092
179.807	12.049
185.529	11.887
191.88	11.8341
198.234	11.7268
203.318	11.6191
