Adsorption isotherm of Hydrogen on MIL-101
DOI: 10.1016/j.fluid.2013.11.029
Adsorbate Hydrogen: InChIKey UFHFLCQGNIYNRP-UHFFFAOYSA-N
Temperature: 298 K
Tabular data in the source: 0
pressure (bar)	uptake (mmol/g)
21.8487	1.44233
26.8908	1.61058
30.6723	1.77498
34.8739	1.94066
39.0756	2.10634
43.2773	2.27203
47.479	2.43771
51.2605	2.60211
55.4622	2.61495
59.6639	2.78063
63.8655	2.94631
68.0672	3.112
71.8487	3.27639
76.0504	3.28924
80.2521	3.45492
84.4538	3.46776
88.6555	3.78628
92.8571	3.79913
96.6387	3.96352
