Adsorption isotherm of Hydrogen on MIL-101
DOI: 10.1016/j.fluid.2013.11.029
Adsorbate Hydrogen: InChIKey UFHFLCQGNIYNRP-UHFFFAOYSA-N
Temperature: 87 K
Tabular data in the source: 0
pressure (bar)	uptake (mmol/g)
4.08163	8.79406
6.93878	12.7378
11.8367	16.0785
24.4898	20.7947
28.1633	21.4063
31.8367	22.1694
35.5102	22.6296
39.5918	22.9388
43.2653	23.2474
47.3469	23.5566
51.4286	23.7143
55.102	23.8714
59.1837	23.8776
63.2653	23.8837
67.3469	23.8899
71.4286	23.8961
75.5102	23.9023
79.5918	23.757
83.6735	23.7631
87.7551	23.6178
91.8367	23.4725
95.5102	23.3265
99.5918	23.1812
