Adsorption isotherm of Hydrogen on Graphite
DOI: 10.1016/j.fluid.2013.11.029
Adsorbate Hydrogen: InChIKey UFHFLCQGNIYNRP-UHFFFAOYSA-N
Temperature: 77 K
Tabular data in the source: 0
pressure (bar)	uptake (mmol/g)
0.97289	7.12179
2.23481	10.9213
2.86576	12.821
3.81024	15.3541
5.3749	18.0465
7.86542	20.2656
11.2867	22.8027
12.531	23.754
15.3233	24.7078
20.9039	25.9824
25.8624	26.7814
31.4392	27.4232
34.8448	27.4286
41.9666	27.598
49.0874	27.6093
56.5129	26.8299
65.7989	26.5282
72.6072	26.0643
77.8675	25.5979
82.8191	25.2893
89.0082	24.8244
94.2685	24.358
98.6009	24.0484
