Adsorption isotherm of Hydrogen on IRMOF-1
DOI: 10.1016/j.fluid.2013.11.029
Adsorbate Hydrogen: InChIKey UFHFLCQGNIYNRP-UHFFFAOYSA-N
Temperature: 50 K
Tabular data in the source: 0
pressure (bar)	uptake (mmol/g)
2.01342	32.7034
3.02013	36.0776
4.36242	39.6214
8.05369	41.4878
15.1007	41.6801
21.4765	40.5218
27.8523	38.8579
33.2215	37.3592
37.2483	35.3503
44.6309	32.8471
50	31.3483
54.0268	30.1821
58.0537	29.1845
63.0872	28.0216
66.7785	27.1914
73.1544	26.0331
77.8523	25.2062
81.8792	24.7142
86.9128	24.057
92.2819	23.401
95.302	23.0741
99.3289	22.582
