Adsorption isotherm of Hydrogen on IRMOF-1
DOI: 10.1016/j.fluid.2013.11.029
Adsorbate Hydrogen: InChIKey UFHFLCQGNIYNRP-UHFFFAOYSA-N
Temperature: 100 K
Tabular data in the source: 0
pressure (bar)	uptake (mmol/g)
1.25786	4.9492
3.77358	7.75969
5.97484	9.74497
10.0629	12.5606
15.7233	15.0518
20.1258	16.2202
25.7862	17.7224
32.7044	18.899
40.2516	19.7481
44.6541	20.2571
51.2579	20.4437
57.5472	20.7941
64.1509	20.9807
67.2956	20.9911
70.4403	21.1663
73.5849	21.1767
76.7296	21.187
84.2767	21.3767
93.7107	21.243
100.314	20.9351
