Adsorption isotherm of Hydrogen on IRMOF-1
DOI: 10.1016/j.fluid.2013.11.029
Adsorbate Hydrogen: InChIKey UFHFLCQGNIYNRP-UHFFFAOYSA-N
Temperature: 77 K
Tabular data in the source: 0
pressure (bar)	uptake (mmol/g)
1.5904	5.47429
2.394	10.1418
4.2455	15.6169
13.1719	26.9056
19.7183	31.2699
28.3507	34.9974
38.0233	37.7631
45.08	39.3944
52.3965	40.7048
59.1893	41.6918
65.7196	42.3562
75.647	43.675
83.2217	44.3428
91.0575	45.0114
98.8933	45.6801
