Adsorption isotherm of Hydrogen on Graphite
DOI: 10.1016/j.fluid.2013.11.029
Adsorbate Hydrogen: InChIKey UFHFLCQGNIYNRP-UHFFFAOYSA-N
Temperature: 200 K
Tabular data in the source: 0
pressure (bar)	uptake (mmol/g)
3.71717	0.322337
5.57673	0.641735
8.67469	0.963093
13.6303	1.28739
18.8964	1.77041
24.4712	2.09568
32.5237	2.58311
37.7899	3.06612
43.6743	3.39189
49.2471	3.40071
54.2026	3.725
60.3966	4.05126
63.4955	4.53085
66.281	4.37703
69.378	4.54015
72.474	4.54505
75.5709	4.70818
78.667	4.71308
81.4543	4.87572
84.5503	4.88062
87.6473	5.04375
90.7433	5.04864
93.8403	5.21177
96.9373	5.3749
