Adsorption isotherm of Hydrogen on IRMOF-1
DOI: 10.1016/j.fluid.2013.11.029
Adsorbate Hydrogen: InChIKey UFHFLCQGNIYNRP-UHFFFAOYSA-N
Temperature: 300 K
Tabular data in the source: 0
pressure (bar)	uptake (mmol/g)
2.83019	0.833506
4.71698	0.674891
9.1195	0.52457
13.8365	0.375285
16.9811	0.385652
20.1258	0.231184
23.5849	0.0777524
26.7296	0.0881194
28.9308	0.0953763
31.761	0.104707
34.9057	-0.0497616
38.0503	-0.0393946
41.5094	-0.192826
44.6541	-0.182459
47.7987	-0.172092
51.5723	-0.324487
54.717	-0.31412
57.8616	-0.303753
61.0063	-0.293386
61.6352	-0.291312
64.7799	-0.280945
67.9245	-0.270578
71.0692	-0.260211
72.0126	-0.257101
75.1572	-0.246734
78.3019	-0.236367
81.761	-0.224964
84.9057	-0.214597
88.0503	-0.20423
92.1384	-0.190753
95.283	-0.180386
98.4277	-0.170019
