Adsorption isotherm of Hydrogen on IRMOF-1
DOI: 10.1016/j.fluid.2013.11.029
Adsorbate Hydrogen: InChIKey UFHFLCQGNIYNRP-UHFFFAOYSA-N
Temperature: 40 K
Tabular data in the source: 0
pressure (bar)	uptake (mmol/g)
1.25786	38.2459
2.83019	42.2071
5.66038	45.5132
9.43396	46.6795
12.2642	46.5239
15.0943	45.7091
17.2956	44.7273
19.1824	43.4149
21.0692	41.9376
23.5849	39.6382
25.7862	36.8433
28.6164	34.0504
30.1887	32.5721
32.0755	31.2596
33.9623	30.112
39.6226	27.4933
42.4528	26.6784
45.283	26.0284
48.1132	25.3784
50.9434	24.8932
54.0881	24.4091
56.9182	23.9239
60.0629	23.6046
62.8931	23.1194
66.0377	22.965
69.1824	22.6457
72.0126	22.3253
75.1572	22.1708
77.9874	21.8505
81.1321	21.5312
84.5912	21.3778
88.9937	20.8978
92.7673	20.7454
96.8553	20.4292
100.314	20.2758
