Adsorption isotherm of Hydrogen on Graphite
DOI: 10.1016/j.fluid.2013.11.029
Adsorbate Hydrogen: InChIKey UFHFLCQGNIYNRP-UHFFFAOYSA-N
Temperature: 40 K
Tabular data in the source: 0
pressure (bar)	uptake (mmol/g)
2.1192	42.2502
3.07053	45.8909
6.48594	47.4786
10.1992	47.168
13.5989	46.224
15.4477	44.8029
17.612	44.3317
19.1521	43.0683
20.6913	41.6467
21.9209	40.2246
23.7687	38.6452
24.9983	37.2231
26.5355	35.485
29.6139	32.6418
31.7713	31.0629
35.4757	29.3283
39.7993	27.5946
44.7422	25.8619
49.0707	24.9194
55.2549	23.6634
61.441	22.7238
67.6281	21.9424
75.3632	21.1635
82.4801	20.5419
86.8116	20.0741
92.3834	19.9247
98.8801	19.1438
