Adsorption isotherm of Hydrogen on CuBTC
DOI: 10.1016/j.fluid.2013.11.029
Adsorbate Hydrogen: InChIKey UFHFLCQGNIYNRP-UHFFFAOYSA-N
Temperature: 196 K
Tabular data in the source: 0
pressure (bar)	uptake (mmol/g)
4.40514	0.928474
8.19846	1.31133
11.9895	1.74872
15.7805	2.18612
20.2087	2.56915
24.6369	2.95217
29.0652	3.3352
34.1283	3.7184
38.5589	4.04688
49.3247	4.70436
54.3924	4.97847
60.0951	5.25275
65.8001	5.47249
71.5028	5.74677
77.845	5.91214
83.5523	6.07733
89.2596	6.24253
95.6018	6.40789
101.311	6.51854
107.656	6.62936
114.003	6.68564
119.712	6.79629
127.327	6.90745
133.039	6.96356
139.383	7.07438
145.73	7.13065
151.442	7.18676
157.789	7.24303
164.135	7.29931
174.289	7.41117
180.639	7.4129
186.985	7.46918
199.681	7.52719
206.031	7.52892
