Adsorption isotherm of Hydrogen on IRMOF-1
DOI: 10.1016/j.fluid.2013.11.029
Adsorbate Hydrogen: InChIKey UFHFLCQGNIYNRP-UHFFFAOYSA-N
Temperature: 77 K
Tabular data in the source: 0
pressure (bar)	uptake (mmol/g)
2.6481	8.53399
3.1773	10.1443
3.7065	11.7546
4.235	13.204
4.7642	14.8143
5.29341	16.4245
6.08301	17.8748
7.13441	19.4868
8.18511	20.9379
9.23581	22.389
10.5469	23.68
14.2163	26.909
17.3572	28.6885
19.7106	29.5004
21.8036	30.4723
23.8959	31.2833
26.2486	31.9343
28.8624	32.5862
31.2151	33.2372
33.5671	33.7273
35.9198	34.3783
38.5329	34.8693
40.8849	35.3594
43.4973	35.6895
45.8486	36.0188
48.4617	36.5098
51.0742	36.8399
53.4255	37.1692
62.5668	37.842
69.6193	38.5082
75.8878	39.0109
86.3332	39.3662
94.6919	40.1974
98.8695	40.2108
