Adsorption isotherm of Hydrogen on CuBTC
DOI: 10.1016/j.fluid.2013.11.029
Adsorbate Hydrogen: InChIKey UFHFLCQGNIYNRP-UHFFFAOYSA-N
Temperature: 77 K
Tabular data in the source: 0
pressure (bar)	uptake (mmol/g)
1.41297	11.6186
1.96708	13.5278
3.16995	15.11
4.41438	15.7103
10.752	15.9848
13.2708	16.4763
17.6991	16.8594
22.1273	17.2424
34.8002	17.8459
41.1516	17.793
46.8751	17.5764
52.6008	17.3053
61.5012	17.035
64.6942	16.5995
69.7851	16.3281
75.5108	16.057
81.2366	15.7858
86.96	15.5692
95.8534	15.4625
99.0442	15.0816
104.77	14.8104
111.128	14.5939
116.849	14.4319
122.573	14.2152
128.296	13.9986
134.02	13.782
139.743	13.5654
145.467	13.3488
151.825	13.1323
156.916	12.861
162.639	12.6444
168.367	12.3186
174.091	12.102
179.817	11.8309
184.908	11.5595
190.636	11.2338
198.908	10.7997
204.001	10.4738
