Adsorption isotherm of Hydrogen on IRMOF-1
DOI: 10.1016/j.fluid.2013.11.029
Adsorbate Hydrogen: InChIKey UFHFLCQGNIYNRP-UHFFFAOYSA-N
Temperature: 60 K
Tabular data in the source: 0
pressure (bar)	uptake (mmol/g)
1.85573	20.9364
2.56343	24.261
3.95608	27.5879
6.0314	30.5848
9.47434	33.2541
13.939	35.0961
19.4209	35.4466
22.5043	35.6229
30.0375	35.4819
37.2249	34.8413
45.0927	33.5385
49.8828	32.89
56.3841	32.081
63.5681	30.9421
69.3833	29.9647
74.1745	29.4823
78.6221	28.8326
82.3859	28.3468
87.8621	27.8667
93.6773	26.8893
99.496	26.4103
