Adsorption isotherm of Hydrogen on IRMOF-1
DOI: 10.1016/j.fluid.2013.11.029
Adsorbate Hydrogen: InChIKey UFHFLCQGNIYNRP-UHFFFAOYSA-N
Temperature: 300 K
Tabular data in the source: 0
pressure (bar)	uptake (mmol/g)
7.53442	0.0250313
14.0391	-0.285584
17.4639	-0.274206
23.2871	-0.0887473
28.7678	0.095574
35.6184	0.284446
44.1825	0.645125
51.7181	0.836273
57.8837	1.02287
61.6532	1.36762
64.0505	1.37558
67.1328	1.38582
70.5587	1.56332
73.9834	1.5747
77.4093	1.75219
80.8351	1.92968
84.2599	1.94106
87.3433	2.11742
90.7691	2.29491
94.1939	2.30629
97.6198	2.48379
