Adsorption isotherm of Hydrogen on IRMOF-1
DOI: 10.1016/j.fluid.2013.11.029
Adsorbate Hydrogen: InChIKey UFHFLCQGNIYNRP-UHFFFAOYSA-N
Temperature: 40 K
Tabular data in the source: 0
pressure (bar)	uptake (mmol/g)
2.01342	43.6585
3.02013	46.527
7.04698	47.7204
12.4161	46.7272
15.4362	44.715
20.1342	41.8656
22.1477	39.8499
24.1611	37.6657
27.1812	34.9793
28.8591	33.4681
30.8725	32.1265
32.8859	30.785
39.2617	27.9413
41.9463	26.9391
44.9664	26.2752
47.9866	25.6112
51.0067	24.7787
54.0268	24.2832
57.047	23.7878
60.4027	23.2935
63.4228	22.9666
66.7785	22.4723
69.7987	22.1454
73.1544	21.8196
78.5235	21.1636
82.8859	21.0097
88.9262	20.3559
91.9463	20.1976
95.302	20.0403
98.3221	19.7134
