Adsorption isotherm of Hydrogen on MIL-101
DOI: 10.1016/j.fluid.2013.11.029
Adsorbate Hydrogen: InChIKey UFHFLCQGNIYNRP-UHFFFAOYSA-N
Temperature: 127 K
Tabular data in the source: 0
pressure (bar)	uptake (mmol/g)
11.9342	6.71892
14.4033	7.74041
23.0453	10.2173
25.9259	11.0917
29.2181	12.112
32.9218	12.6924
36.214	13.5662
39.9177	14.1466
43.6214	14.7269
47.3251	15.4537
51.0288	15.8876
54.7325	16.468
58.8477	17.0477
62.5514	17.4816
66.2551	18.062
70.3704	18.4953
74.0741	18.9292
77.7778	19.3631
81.893	19.6499
85.5967	20.0839
89.7119	20.5172
93.4156	20.8046
97.5309	21.0915
