Adsorption isotherm of Hydrogen on MIL-101
DOI: 10.1016/j.fluid.2013.11.029
Adsorbate Hydrogen: InChIKey UFHFLCQGNIYNRP-UHFFFAOYSA-N
Temperature: 87 K
Tabular data in the source: 0
pressure (bar)	uptake (mmol/g)
12.1236	16.1088
14.6065	17.2803
17.0894	18.4519
19.9821	19.477
23.2812	20.0628
26.9935	20.795
30.7023	21.2343
34.821	21.5272
38.5282	21.8201
42.6451	21.9665
46.7621	22.113
50.879	22.2594
54.9942	22.2594
58.6962	22.113
62.8114	22.113
66.5134	21.9665
70.6286	21.9665
74.7422	21.8201
78.4441	21.6736
82.5576	21.5272
86.6711	21.3808
90.7829	21.0879
94.4849	20.9414
