Adsorption isotherm of Hydrogen on IRMOF-1
DOI: 10.1016/j.fluid.2013.11.029
Adsorbate Hydrogen: InChIKey UFHFLCQGNIYNRP-UHFFFAOYSA-N
Temperature: 77 K
Tabular data in the source: 0
pressure (bar)	uptake (mmol/g)
1.25786	9.23492
1.88679	12.3689
3.14465	15.6697
5.66038	18.645
8.49057	21.2917
11.6352	23.1153
15.7233	24.9419
21.6981	26.2803
27.9874	27.4549
33.9623	28.1339
41.5094	28.1588
46.5409	28.3402
52.8302	28.1961
60.0629	27.7255
66.9811	27.4186
71.6981	27.2693
75.1572	27.1159
83.0189	26.3176
90.2516	25.847
94.6541	25.6967
99.6855	25.2187
