Adsorption isotherm of Hydrogen on IRMOF-1
DOI: 10.1016/j.fluid.2013.11.029
Adsorbate Hydrogen: InChIKey UFHFLCQGNIYNRP-UHFFFAOYSA-N
Temperature: 60 K
Tabular data in the source: 0
pressure (bar)	uptake (mmol/g)
0.943396	17.6405
2.20126	23.7435
3.77358	26.7157
5.03145	28.6979
6.28931	29.8559
8.49057	31.8412
11.3208	33.4989
15.7233	34.3375
19.4969	35.1742
24.5283	35.1908
29.5597	35.2073
32.7044	35.2177
37.1069	34.7377
42.1384	33.9301
45.9119	33.2832
49.0566	32.9639
55.9748	31.8329
60.6918	30.8594
66.6667	29.8901
73.2704	28.758
81.1321	27.6301
88.9937	26.667
95.5975	25.6998
99.6855	25.2187
