Adsorption isotherm of Hydrogen on IRMOF-1
DOI: 10.1016/j.fluid.2013.11.029
Adsorbate Hydrogen: InChIKey UFHFLCQGNIYNRP-UHFFFAOYSA-N
Temperature: 100 K
Tabular data in the source: 0
pressure (bar)	uptake (mmol/g)
2.68456	3.54837
4.69799	6.75741
7.71812	9.96984
10.7383	12.0025
13.4228	13.1913
15.7718	14.7161
20.8054	16.0814
26.1745	17.4478
30.8725	18.3063
37.5839	19.5087
42.953	20.0324
49.3289	20.5595
55.0336	20.9158
64.7651	20.9486
69.4631	20.9645
76.8456	21.1579
84.8993	20.848
91.6107	21.0391
99.3289	20.7281
