Adsorption isotherm of Hydrogen on IRMOF-1
DOI: 10.1016/j.fluid.2013.11.029
Adsorbate Hydrogen: InChIKey UFHFLCQGNIYNRP-UHFFFAOYSA-N
Temperature: 60 K
Tabular data in the source: 0
pressure (bar)	uptake (mmol/g)
1.88088	19.9438
2.82132	23.9317
3.44828	26.803
5.95611	31.5862
7.52351	33.8178
9.40439	35.0914
13.4796	36.6806
18.8088	37.6296
24.1379	37.3019
30.721	36.6531
37.6176	35.6847
43.5737	34.3986
48.5893	33.114
53.2915	32.149
55.7994	31.3471
58.9342	30.7038
61.7555	30.061
64.5768	29.4182
67.3981	28.7754
71.7868	27.9706
74.9216	27.1677
77.7429	26.5249
80.5643	26.0417
83.6991	25.3984
86.5204	24.9151
89.3417	24.4319
92.4765	23.9482
95.2978	23.465
98.4326	22.9812
