Adsorption isotherm of Hydrogen on IRMOF-1
DOI: 10.1016/j.fluid.2013.11.029
Adsorbate Hydrogen: InChIKey UFHFLCQGNIYNRP-UHFFFAOYSA-N
Temperature: 125 K
Tabular data in the source: 0
pressure (bar)	uptake (mmol/g)
4.36242	2.20572
8.72483	4.57997
13.4228	6.61828
18.7919	8.32177
25.1678	9.86012
31.5436	11.2299
38.255	12.2638
45.9732	12.964
52.6846	13.6607
58.7248	14.1867
63.7584	14.3722
66.7785	14.7195
70.1342	14.7308
73.1544	15.078
76.5101	15.0894
79.8658	15.1007
82.8859	15.2794
86.2416	15.2907
89.5973	15.4706
92.953	15.4819
96.3087	15.6617
99.6644	15.673
