Adsorption isotherm of Hydrogen on IRMOF-1
DOI: 10.1016/j.fluid.2013.11.029
Adsorbate Hydrogen: InChIKey UFHFLCQGNIYNRP-UHFFFAOYSA-N
Temperature: 60 K
Tabular data in the source: 0
pressure (bar)	uptake (mmol/g)
2.01342	21.2427
3.02013	24.954
4.36242	29.6776
6.04027	31.8743
11.0738	35.0935
17.7852	36.2959
23.1544	36.1455
28.5235	35.8265
31.5436	35.331
34.8993	34.8367
37.9195	34.3413
43.2886	33.5167
48.9933	32.5247
55.3691	31.3664
61.4094	30.207
67.7852	29.2173
73.8255	28.0578
78.5235	27.5681
83.2215	26.7412
88.9262	25.9177
94.6309	25.2628
98.6577	24.7708
