Adsorption isotherm of Hydrogen on Graphite
DOI: 10.1016/j.fluid.2013.11.029
Adsorbate Hydrogen: InChIKey UFHFLCQGNIYNRP-UHFFFAOYSA-N
Temperature: 60 K
Tabular data in the source: 0
pressure (bar)	uptake (mmol/g)
1.66361	18.6735
1.99085	21.5221
2.94316	25.3211
3.8847	27.3796
5.76092	30.3889
9.49376	33.2429
13.2158	34.3564
17.8657	35.3131
23.1299	35.4796
28.0816	35.171
34.2696	34.5479
39.2184	33.7646
43.2383	32.9798
50.0436	32.0412
53.1357	31.4132
55.9192	30.9429
58.7016	30.3144
61.7947	29.8446
64.5772	29.2161
67.6712	28.9045
70.4547	28.4343
73.2382	27.964
76.3312	27.4942
79.1147	27.0239
81.8991	26.7119
84.9922	26.2421
87.7757	25.7718
90.8697	25.4602
93.6532	24.99
