Adsorption isotherm of Hydrogen on MIL-101
DOI: 10.1016/j.fluid.2013.11.029
Adsorbate Hydrogen: InChIKey UFHFLCQGNIYNRP-UHFFFAOYSA-N
Temperature: 298 K
Tabular data in the source: 0
pressure (bar)	uptake (mmol/g)
22.6337	2.01706
26.749	2.30392
30.4527	2.59139
34.5679	2.87825
38.6831	3.01866
42.3868	3.30613
46.5021	3.59299
50.2058	3.88045
54.321	4.02087
58.4362	4.30773
62.1399	4.44875
65.8436	4.58977
69.9588	4.87663
73.6626	5.16409
77.7778	5.30451
81.893	5.44493
85.5967	5.73239
89.7119	6.01925
93.8272	6.15967
97.5309	6.44713
