Adsorption isotherm of Hydrogen on IRMOF-1
DOI: 10.1016/j.fluid.2013.11.029
Adsorbate Hydrogen: InChIKey UFHFLCQGNIYNRP-UHFFFAOYSA-N
Temperature: 30 K
Tabular data in the source: 0
pressure (bar)	uptake (mmol/g)
1.00671	52.4191
4.02685	52.0922
7.04698	50.2485
8.38926	48.2305
8.72483	43.0069
9.0604	27.8395
9.39597	30.8744
11.4094	21.78
14.094	21.452
17.1141	20.788
20.1342	20.2926
23.4899	19.7983
26.5101	19.3028
29.8658	18.8085
35.906	18.3233
38.9262	17.8278
42.2819	17.5021
45.6376	17.3448
48.6577	17.0179
52.0134	16.6922
55.0336	16.5338
58.0537	16.2069
61.4094	16.0497
64.7651	15.8925
67.7852	15.7341
71.1409	15.4083
82.8859	14.7738
85.906	14.6154
89.2617	14.4582
92.2819	14.2998
95.6376	14.1426
98.6577	14.1528
