Adsorption isotherm of Hydrogen on IRMOF-1
DOI: 10.1016/j.fluid.2013.11.029
Adsorbate Hydrogen: InChIKey UFHFLCQGNIYNRP-UHFFFAOYSA-N
Temperature: 77 K
Tabular data in the source: 0
pressure (bar)	uptake (mmol/g)
2.01342	9.61353
3.02013	11.8079
3.69128	14.6754
5.36913	17.5462
7.38255	19.9125
10.4027	22.7879
13.4228	24.652
17.4497	26.1824
22.4832	27.3792
27.1812	28.0692
32.2148	28.2547
38.5906	28.4447
48.3221	28.309
54.0268	28.1596
64.4295	27.352
72.4832	26.5365
76.8456	28.4051
78.5235	26.2197
86.9128	25.4053
92.6174	25.0875
99.3289	24.6045
