Adsorption isotherm of Hydrogen on IRMOF-1
DOI: 10.1016/j.fluid.2013.11.029
Adsorbate Hydrogen: InChIKey UFHFLCQGNIYNRP-UHFFFAOYSA-N
Temperature: 77 K
Tabular data in the source: 0
pressure (bar)	uptake (mmol/g)
1.057	2.89884
3.1843	11.7529
4.5031	14.8134
6.34691	18.5191
10.5476	23.8409
15.7864	27.7183
24.6792	31.2858
35.1358	34.2149
45.5882	36.1788
56.3018	38.1436
67.5333	39.1449
74.8462	39.651
84.25	40.6464
94.1753	41.4826
99.3987	41.8211
