Adsorption isotherm of Hydrogen on IRMOF-1
DOI: 10.1016/j.fluid.2013.11.029
Adsorbate Hydrogen: InChIKey UFHFLCQGNIYNRP-UHFFFAOYSA-N
Temperature: 77 K
Tabular data in the source: 0
pressure (bar)	uptake (mmol/g)
1.0577	3.0597
2.6565	10.4643
4.2427	14.9734
6.34761	18.6799
9.50041	23.1941
14.217	27.0699
18.9301	30.1413
23.9022	32.7311
30.9596	34.5232
37.4948	36.3137
44.0293	37.9433
50.8222	38.9303
56.8317	39.9147
64.9321	41.3885
73.2915	42.3806
78.7767	42.8808
86.8743	43.7111
92.0977	44.0496
98.6287	44.8749
