Adsorption isotherm of Hydrogen on MIL-101
DOI: 10.1016/j.fluid.2013.11.029
Adsorbate Hydrogen: InChIKey UFHFLCQGNIYNRP-UHFFFAOYSA-N
Temperature: 112 K
Tabular data in the source: 0
pressure (bar)	uptake (mmol/g)
24.2798	14.023
27.572	14.8969
30.8642	15.6243
34.5679	16.3511
38.2716	17.0778
41.5638	17.8052
45.2675	18.3856
49.3827	18.9653
53.0864	19.5457
56.7901	20.126
60.4938	20.5599
64.6091	20.9933
68.3128	21.4272
72.0165	22.0075
76.1317	22.2944
79.8354	22.7283
83.9506	23.1616
87.6543	23.5955
91.7695	23.8823
95.8848	24.1692
