Adsorption isotherm of Hydrogen on IRMOF-1
DOI: 10.1016/j.fluid.2013.11.029
Adsorbate Hydrogen: InChIKey UFHFLCQGNIYNRP-UHFFFAOYSA-N
Temperature: 300 K
Tabular data in the source: 0
pressure (bar)	uptake (mmol/g)
7.71812	0.194555
15.7718	0.390242
21.4765	0.578011
30.2013	0.438881
40.2685	0.978433
47.9866	1.17299
53.3557	1.19109
57.047	1.20353
63.7584	1.39469
67.1141	1.23746
70.4698	1.41731
73.8255	1.42863
77.1812	1.43994
79.8658	1.44899
83.2215	1.62884
86.2416	1.63902
89.5973	1.65033
92.953	1.66164
96.3087	1.67295
99.6644	1.8528
