Adsorption isotherm of Hydrogen on MIL-101
DOI: 10.1016/j.fluid.2013.11.029
Adsorbate Hydrogen: InChIKey UFHFLCQGNIYNRP-UHFFFAOYSA-N
Temperature: 127 K
Tabular data in the source: 0
pressure (bar)	uptake (mmol/g)
10.7753	6.44351
13.6681	7.46862
22.7543	10.251
26.0551	10.9833
29.7674	11.7155
33.478	12.3013
37.1886	12.887
41.309	13.3264
45.0178	13.7657
49.1365	14.0586
52.8436	14.3515
56.964	14.7908
60.6695	14.9372
64.7881	15.2301
68.9051	15.3766
72.6105	15.523
76.3159	15.6695
80.4329	15.8159
84.5498	15.9623
88.2552	16.1088
92.3722	16.2552
96.4874	16.2552
