Adsorption isotherm of Hydrogen on Graphite
DOI: 10.1016/j.fluid.2013.11.029
Adsorbate Hydrogen: InChIKey UFHFLCQGNIYNRP-UHFFFAOYSA-N
Temperature: 125 K
Tabular data in the source: 0
pressure (bar)	uptake (mmol/g)
2.177	1.58572
4.97614	3.64711
9.32231	5.55273
14.9069	7.4603
20.1789	8.89269
24.5192	9.84892
29.1691	10.8056
37.5351	11.9265
41.8725	12.408
47.1386	12.891
54.571	13.2193
63.2438	13.8659
68.1974	13.8737
72.5337	14.197
81.2035	14.369
90.4925	14.5419
98.5441	14.8711
