Adsorption isotherm of Hydrogen on CuBTC
DOI: 10.1016/j.fluid.2013.11.029
Adsorbate Hydrogen: InChIKey UFHFLCQGNIYNRP-UHFFFAOYSA-N
Temperature: 77 K
Tabular data in the source: 0
pressure (bar)	uptake (mmol/g)
0.905152	11.774
2.61337	14.0316
3.20093	14.569
3.73404	15.7517
10.0406	16.0188
12.5315	16.502
16.2973	16.8773
20.0631	17.2527
24.4618	17.6278
33.3091	17.7867
37.7215	18.0006
43.4314	17.8378
49.1504	17.5674
53.6081	17.2437
61.2214	17.0266
65.0507	16.6492
70.1368	16.379
75.8558	16.1086
81.5703	15.8921
87.2893	15.6217
94.8935	15.5121
99.3512	15.1883
105.061	15.0255
110.771	14.8627
116.486	14.6461
122.2	14.4295
127.91	14.2667
133.624	14.0501
139.972	13.8333
145.686	13.6168
151.401	13.4002
157.115	13.1836
162.834	12.9132
170.461	12.5348
175.552	12.2109
180.642	11.8869
197.194	10.7534
201.656	10.3759
206.118	9.99836
