Adsorption isotherm of Hydrogen on MIL-101
DOI: 10.1016/j.fluid.2013.11.029
Adsorbate Hydrogen: InChIKey UFHFLCQGNIYNRP-UHFFFAOYSA-N
Temperature: 97 K
Tabular data in the source: 0
pressure (bar)	uptake (mmol/g)
9.19469	12.0084
12.5093	13.9121
15.8152	15.0837
24.0732	17.4268
27.7838	18.0126
31.4944	18.5983
35.6148	19.0377
39.3237	19.477
43.0308	19.7699
47.1478	19.9163
51.2647	20.0628
55.3816	20.2092
59.4986	20.3556
63.6138	20.3556
67.729	20.3556
71.4328	20.3556
75.548	20.3556
79.6632	20.3556
83.7767	20.2092
87.8919	20.2092
92.0054	20.0628
96.1207	20.0628
