Adsorption isotherm of Hydrogen on IRMOF-1
DOI: 10.1016/j.fluid.2013.11.029
Adsorbate Hydrogen: InChIKey UFHFLCQGNIYNRP-UHFFFAOYSA-N
Temperature: 50 K
Tabular data in the source: 0
pressure (bar)	uptake (mmol/g)
1.92058	30.4051
2.28923	34.2269
4.36682	37.556
7.1214	39.7247
13.6352	40.743
19.1114	40.2628
24.9278	39.4516
29.0329	38.8008
31.4222	37.6459
34.4988	36.8256
37.2329	36.0041
41.3346	34.8549
46.804	33.3781
53.2984	31.5724
56.3762	30.9182
59.4527	30.0978
62.5304	29.4436
65.6093	28.9555
69.0306	28.4685
74.847	27.6573
78.951	26.8404
81.346	26.5161
87.1635	25.871
91.9547	25.3886
95.0347	25.0666
100.168	24.5853
