Adsorption isotherm of Hydrogen on Graphite
DOI: 10.1016/j.fluid.2013.11.029
Adsorbate Hydrogen: InChIKey UFHFLCQGNIYNRP-UHFFFAOYSA-N
Temperature: 300 K
Tabular data in the source: 0
pressure (bar)	uptake (mmol/g)
5.88241	0.00930761
12.6946	0.178314
18.8866	0.188112
27.866	0.360547
34.6772	0.371325
42.1096	0.69954
49.8496	0.711787
56.6618	0.880794
64.0942	1.20901
67.1882	0.89745
70.2842	0.902348
73.3802	0.907247
76.1676	1.06989
79.2636	1.07478
82.3596	1.07968
85.4556	1.08458
88.5516	1.08948
91.6486	1.25261
94.7446	1.25751
97.8406	1.26241
