Adsorption isotherm of Hydrogen on MIL-101
DOI: 10.1016/j.fluid.2013.11.029
Adsorbate Hydrogen: InChIKey UFHFLCQGNIYNRP-UHFFFAOYSA-N
Temperature: 127 K
Tabular data in the source: 0
pressure (bar)	uptake (mmol/g)
6.12245	4.55473
11.0204	6.38033
17.1429	8.81385
23.2653	10.3383
26.9388	10.9499
30.6122	11.713
34.2857	12.3247
37.9592	12.7848
42.0408	13.2455
45.7143	13.7056
49.7959	14.1664
53.4694	14.475
57.551	14.7842
61.2245	15.0928
65.3061	15.2505
68.9796	15.5591
73.0612	15.7168
77.1429	16.026
81.2245	16.0322
85.3061	16.1899
88.9796	16.3469
93.0612	16.5046
97.1429	16.5108
