Adsorption isotherm of Hydrogen on IRMOF-1
DOI: 10.1016/j.fluid.2013.11.029
Adsorbate Hydrogen: InChIKey UFHFLCQGNIYNRP-UHFFFAOYSA-N
Temperature: 100 K
Tabular data in the source: 0
pressure (bar)	uptake (mmol/g)
1.379	1.33349
3.45204	3.99818
6.90295	7.83024
10.6929	11.1651
16.5332	13.8423
21.6839	15.8528
27.176	17.6983
36.7744	19.0591
44.3156	20.0808
51.1674	20.4358
55.9643	20.7839
65.5558	21.148
74.1188	21.3426
82.6806	21.371
86.4467	21.2174
92.9548	21.4052
99.4596	21.0946
