Adsorption isotherm of Hydrogen on IRMOF-1
DOI: 10.1016/j.fluid.2013.11.029
Adsorbate Hydrogen: InChIKey UFHFLCQGNIYNRP-UHFFFAOYSA-N
Temperature: 77 K
Tabular data in the source: 0
pressure (bar)	uptake (mmol/g)
1.75902	6.81648
2.46444	9.80885
2.8183	11.4712
3.86392	14.1324
5.24974	16.4626
6.97918	18.9601
9.39356	21.4598
13.1767	23.7979
18.3275	25.8084
23.815	26.9894
29.6416	27.6732
35.1246	28.1898
40.9489	28.5414
49.5096	28.4037
54.9881	28.2558
62.5202	27.9486
70.0535	27.8075
75.1883	27.4923
84.4294	26.6925
91.2766	26.383
96.4103	25.9017
99.8327	25.5808
