Adsorption isotherm of Hydrogen on MIL-101
DOI: 10.1016/j.fluid.2013.11.029
Adsorbate Hydrogen: InChIKey UFHFLCQGNIYNRP-UHFFFAOYSA-N
Temperature: 77 K
Tabular data in the source: 0
pressure (bar)	uptake (mmol/g)
24.898	24.7347
28.5714	25.3463
32.2449	25.9579
36.3265	26.2672
40.4082	26.4249
44.0816	26.5819
48.1633	26.7396
52.2449	26.7458
56.3265	26.752
60.4082	26.6067
64.4898	26.4613
68.5714	26.316
72.2449	26.1701
76.3265	25.8732
80.4082	25.7279
84.0816	25.5819
88.1633	25.2851
91.8367	24.9876
95.9184	24.8423
99.5918	24.5448
