Adsorption isotherm of Hydrogen on MIL-101
DOI: 10.1016/j.fluid.2013.11.029
Adsorbate Hydrogen: InChIKey UFHFLCQGNIYNRP-UHFFFAOYSA-N
Temperature: 112 K
Tabular data in the source: 0
pressure (bar)	uptake (mmol/g)
19.9029	12.7406
23.6135	13.3264
26.916	14.205
30.6266	14.7908
34.3372	15.3766
38.046	15.8159
42.1664	16.2552
45.8753	16.6946
49.994	16.9874
53.7011	17.2803
57.8181	17.4268
61.935	17.5732
66.052	17.7197
69.7574	17.8661
73.8743	18.0126
77.9913	18.159
82.1065	18.159
86.2217	18.159
90.337	18.159
94.4522	18.159
98.5674	18.159
