Adsorption isotherm of Hydrogen on IRMOF-1
DOI: 10.1016/j.fluid.2013.11.029
Adsorbate Hydrogen: InChIKey UFHFLCQGNIYNRP-UHFFFAOYSA-N
Temperature: 30 K
Tabular data in the source: 0
pressure (bar)	uptake (mmol/g)
2.36785	51.6983
5.23262	49.6193
6.82675	48.3402
7.18693	46.1056
7.60714	40.9985
7.7372	34.7749
8.46423	29.9865
8.6043	23.2841
9.31799	19.1341
9.66483	17.5378
12.1928	16.5763
14.7174	15.7744
20.0767	14.3297
22.9048	14.006
25.7362	13.5228
28.5676	13.0395
31.7125	12.5558
34.5439	12.0725
41.4574	11.2636
44.599	10.9395
47.427	10.6158
50.5686	10.2916
53.3967	9.96798
56.5383	9.64382
59.363	9.47974
62.5046	9.15558
65.3327	8.83192
68.4709	8.66733
71.6125	8.34317
74.4406	8.01951
77.5788	7.85493
80.7204	7.53077
83.5451	7.36668
86.6833	7.2021
89.8216	7.03752
92.9598	6.87294
95.7879	6.54927
98.9261	6.38469
