Adsorption isotherm of Hydrogen on MIL-101
DOI: 10.1016/j.fluid.2013.11.029
Adsorbate Hydrogen: InChIKey UFHFLCQGNIYNRP-UHFFFAOYSA-N
Temperature: 77 K
Tabular data in the source: 0
pressure (bar)	uptake (mmol/g)
5.46218	13.7722
7.98319	17.9065
13.0252	20.8258
17.2269	22.5199
24.3697	24.0701
27.7311	24.0804
31.9328	24.2461
36.1345	24.5646
40.3361	24.5774
44.5378	24.5903
48.3193	24.449
52.521	24.309
56.7227	24.169
60.5042	23.8749
64.7059	23.7349
68.9076	23.4421
72.6891	23.148
76.8908	23.008
81.0924	22.7151
84.8739	22.421
89.0756	22.281
92.8571	21.9869
97.0588	21.6941
