Adsorption isotherm of Hydrogen on IRMOF-1
DOI: 10.1016/j.fluid.2013.11.029
Adsorbate Hydrogen: InChIKey UFHFLCQGNIYNRP-UHFFFAOYSA-N
Temperature: 200 K
Tabular data in the source: 0
pressure (bar)	uptake (mmol/g)
7.2327	0.84802
13.2075	1.19739
19.1824	1.54676
25.4717	1.73232
29.8742	2.07651
35.5346	2.26
40.2516	2.44039
44.9686	2.62078
48.1132	2.79598
51.5723	2.97222
54.717	3.14742
59.7484	3.32884
64.4654	3.50923
67.6101	3.68443
70.7547	3.6948
73.8994	3.87
76.7296	3.87933
79.8742	4.05453
83.0189	4.0649
86.1635	4.2401
89.3082	4.4153
92.4528	4.42567
95.5975	4.43604
98.7421	4.61124
