Adsorption isotherm of Hydrogen on IRMOF-1
DOI: 10.1016/j.fluid.2013.11.029
Adsorbate Hydrogen: InChIKey UFHFLCQGNIYNRP-UHFFFAOYSA-N
Temperature: 40 K
Tabular data in the source: 0
pressure (bar)	uptake (mmol/g)
1.30959	41.2004
3.73535	45.3612
8.87587	45.8767
14.3463	44.5659
18.0988	42.4189
21.1662	40.2697
23.2108	38.7814
24.913	37.2921
28.3184	34.4795
30.3641	33.1574
32.411	32.0014
34.8003	30.8465
37.5321	29.6928
41.2902	28.3764
44.3691	27.8883
47.4468	27.234
50.867	26.581
54.2883	26.094
57.3672	25.6059
60.7885	25.1189
63.8685	24.7969
67.2909	24.476
70.3709	24.1541
73.7934	23.8332
76.8734	23.5112
80.2958	23.1904
83.3769	23.0345
86.4569	22.7125
89.8805	22.5577
93.303	22.2369
96.3841	22.081
99.8077	21.9263
