Adsorption isotherm of Hydrogen on IRMOF-1
DOI: 10.1016/j.fluid.2013.11.029
Adsorbate Hydrogen: InChIKey UFHFLCQGNIYNRP-UHFFFAOYSA-N
Temperature: 30 K
Tabular data in the source: 0
pressure (bar)	uptake (mmol/g)
2.20126	51.7655
3.45912	53.2532
5.97484	53.756
7.86164	52.6083
8.49057	49.8082
8.80503	27.3917
9.1195	22.9422
11.6352	21.1373
14.7799	21.1476
17.9245	21.158
21.0692	21.0035
23.8994	20.848
27.044	20.8584
30.1887	20.7039
33.3333	20.5495
36.478	20.5598
39.6226	20.4053
64.1509	19.3324
67.2956	19.3427
70.4403	19.1883
73.5849	19.0338
76.4151	18.8783
79.5597	18.8887
82.7044	18.7342
85.8491	18.5797
88.9937	18.5901
92.1384	18.4356
94.6541	18.4439
97.7987	18.2894
