Adsorption isotherm of Hydrogen on CuBTC
DOI: 10.1016/j.fluid.2013.11.029
Adsorbate Hydrogen: InChIKey UFHFLCQGNIYNRP-UHFFFAOYSA-N
Temperature: 196 K
Tabular data in the source: 0
pressure (bar)	uptake (mmol/g)
0.496813	1.61277
4.89553	1.98793
8.65679	2.41703
13.0555	2.79219
22.4768	3.64987
26.8755	4.02503
31.9072	4.40002
36.9479	4.66749
41.3466	5.04265
47.6532	5.30977
53.3268	5.57706
58.3721	5.79076
64.0503	6.00429
70.3705	6.11012
76.0486	6.32364
82.3688	6.42947
88.0515	6.58923
94.3763	6.6413
100.064	6.74729
106.388	6.79936
112.713	6.85142
119.038	6.90348
127.261	6.95504
133.586	7.0071
139.278	7.05933
145.602	7.1114
151.294	7.16363
157.623	7.16193
163.948	7.21399
172.176	7.21178
178.501	7.26384
184.83	7.26214
191.159	7.26044
197.484	7.3125
203.818	7.25704
