Adsorption isotherm of Hydrogen on IRMOF-1
DOI: 10.1016/j.fluid.2013.11.029
Adsorbate Hydrogen: InChIKey UFHFLCQGNIYNRP-UHFFFAOYSA-N
Temperature: 300 K
Tabular data in the source: 0
pressure (bar)	uptake (mmol/g)
5.32915	0.15107
14.7335	0.614787
30.721	0.908424
38.8715	1.05499
46.7085	1.20206
51.4107	1.19456
57.0533	1.5047
64.8903	1.17305
67.3981	1.64777
70.5329	1.64277
73.3542	1.63826
76.489	1.63326
79.6238	1.78783
82.7586	1.78283
85.8934	1.77783
89.0282	1.9324
92.163	1.9274
95.2978	1.9224
98.4326	1.91739
