Adsorption isotherm of Hydrogen on MIL-101
DOI: 10.1016/j.fluid.2013.11.029
Adsorbate Hydrogen: InChIKey UFHFLCQGNIYNRP-UHFFFAOYSA-N
Temperature: 77 K
Tabular data in the source: 0
pressure (bar)	uptake (mmol/g)
4.93827	13.3191
6.99588	16.3914
11.5226	19.753
16.8724	22.5276
23.8683	24.1282
27.1605	24.8556
30.8642	25.5824
34.5679	26.1628
38.2716	26.8896
41.9753	27.4699
45.679	27.9038
49.7942	28.4836
53.4979	28.9175
57.2016	29.3514
61.3169	29.7847
65.0206	30.2186
69.1358	30.5054
72.8395	30.9394
76.9547	31.2262
81.07	31.6595
84.7737	31.947
88.8889	32.2338
92.5926	32.5213
96.7078	32.6617
