Adsorption isotherm of Water on C55H52Fe4N20O18
DOI: 10.1016/j.ica.2012.02.002
Adsorbate Water: InChIKey XLYOFNOQVPJJNP-UHFFFAOYSA-N
Temperature: 298 K
Tabular data in the source: 0
pressure (bar)	uptake (cm3(STP)/g)
0.000719317	22.7118
0.000725772	11.6085
0.000863573	54.5783
0.000869748	43.9578
0.000875922	33.3373
0.00118324	64.726
0.00296399	81.6773
0.00466672	92.8331
0.00669697	100.62
0.00897252	106.483
0.0101917	109.417
0.0119809	111.885
0.0141767	114.849
0.0165356	117.336
0.0206025	121.806
0.0247506	126.761
0.0276784	130.713
0.0293037	135.107
