Adsorption isotherm of Methane on Posidonia Shale
DOI: 10.1016/j.coal.2014.07.010
Article source: Figure 5(a)- Lab5_B1
Adsorbate Methane: InChIKey VNWKTOKETHGBQD-UHFFFAOYSA-N
Kind: experiment
Isotherm type: excess
Temperature: 338 K
Tabular data in the source: 0
pressure (bar)	uptake (mmol/g)
14.624	0.03678
34.055	0.069496
52.035	0.091942
72.021	0.110715
90.416	0.124659
111.232	0.136563
130.597	0.144726
148.232	0.150033
166.352	0.154115
182.259	0.156428
197.82	0.158538
211.445	0.161191
223.34	0.163233
233.714	0.163641
242.636	0.164458
249.413	0.166295
