Adsorption isotherm of Ethane on Namurian Shale
DOI: 10.1016/j.coal.2014.07.010
Article source: Figure 4(c)- Lab5_B2
Adsorbate Ethane: InChIKey OTMSDBZUPAUEDD-UHFFFAOYSA-N
Kind: experiment
Isotherm type: excess
Temperature: 338 K
Tabular data in the source: 0
pressure (bar)	uptake (mmol/g)
7.392	0.040959
13.701	0.052819
20.346	0.06148
33.016	0.078673
51.72	0.084389
58.114	0.089041
64.133	0.090924
69.275	0.089674
73.218	0.083618
