Adsorption isotherm of Carbon Dioxide on Posidonia Shale
DOI: 10.1016/j.coal.2014.07.010
Article source: Figure 5(b)- Lab6_B1
Adsorbate Carbon Dioxide: InChIKey CURLTUGMZLYLDI-UHFFFAOYSA-N
Kind: experiment
Isotherm type: excess
Temperature: 338 K
Tabular data in the source: 0
pressure (bar)	uptake (mmol/g)
0.642	0.012122
3.168	0.032078
5.563	0.050704
5.954	0.058307
7.435	0.065339
9.395	0.0718
9.961	0.080849
10.701	0.085009
15.404	0.102874
20.413	0.119502
25.159	0.139457
30.124	0.157132
38.921	0.185543
42.405	0.197421
46.02	0.208063
52.771	0.224881
55.863	0.233243
61.699	0.247495
66.054	0.258517
71.106	0.263077
75.113	0.272863
80.514	0.28436
85.261	0.285784
89.224	0.303933
94.015	0.310108
99.373	0.308585
104.207	0.31286
108.78	0.337472
113.963	0.331862
118.753	0.364267
123.589	0.342312
128.423	0.345446
133.52	0.332424
139.008	0.346962
143.886	0.33603
149.463	0.313219
