Adsorption isotherm of Methane on Namurian Shale
DOI: 10.1016/j.coal.2014.07.010
Article source: Figure 4(a)- Lab7_B1
Adsorbate Methane: InChIKey VNWKTOKETHGBQD-UHFFFAOYSA-N
Kind: experiment
Isotherm type: excess
Temperature: 338 K
Tabular data in the source: 0
pressure (bar)	uptake (mmol/g)
2.143	0.008397
8.584	0.023441
19.875	0.03784
34.605	0.047339
51.539	0.054165
69.531	0.058071
88.228	0.059897
107.631	0.059992
