Adsorption isotherm of Carbon Dioxide on Namurian Shale
DOI: 10.1016/j.coal.2014.07.010
Article source: Figure 4(b)- Lab6_B1
Adsorbate Carbon Dioxide: InChIKey CURLTUGMZLYLDI-UHFFFAOYSA-N
Kind: experiment
Isotherm type: excess
Temperature: 338 K
Tabular data in the source: 0
pressure (bar)	uptake (mmol/g)
0.805	0.026645
3.017	0.056113
5.149	0.072984
7.362	0.083807
10.303	0.097222
15	0.112228
20.371	0.125598
24.743	0.134238
29.683	0.142377
37.241	0.152426
40.318	0.157246
46.527	0.163931
49.982	0.16916
56.271	0.172206
61.508	0.173661
67.419	0.194168
75.689	0.198715
79.503	0.201241
85.287	0.20319
89.273	0.200013
94.714	0.209686
99.299	0.211562
103.842	0.21185
109.069	0.220729
113.996	0.230979
118.839	0.225709
123.338	0.223976
127.453	0.218056
133.28	0.232348
138.465	0.220437
144.765	0.213073
149.094	0.201306
