Adsorption isotherm of Carbon Dioxide on Shale
DOI: 10.1016/j.coal.2014.07.010
Article source: Figure 14- No Gas Predrying
Adsorbate Carbon Dioxide: InChIKey CURLTUGMZLYLDI-UHFFFAOYSA-N
Kind: experiment
Temperature: 273 K
Tabular data in the source: 0
pressure (bar)	uptake (mmol/g)
0.00739	0.010394
0.02961	0.01815
0.05845	0.025767
0.09862	0.034153
0.15107	0.040934
0.19974	0.047923
0.24793	0.052748
0.30321	0.057642
0.39769	0.064776
0.50067	0.070722
0.60271	0.077646
0.69954	0.082475
0.80299	0.08898
0.89841	0.093529
0.96029	0.097376
1.00045	0.100523
1.04155	0.103391
