Adsorption isotherm of Ethane on Namurian Shale
DOI: 10.1016/j.coal.2014.07.010
Article source: Figure 4(c)- Lab6_A1
Adsorbate Ethane: InChIKey OTMSDBZUPAUEDD-UHFFFAOYSA-N
Kind: experiment
Isotherm type: excess
Temperature: 338 K
Tabular data in the source: 0
pressure (bar)	uptake (mmol/g)
0.979	0.022743
3.52	0.03794
5.628	0.045145
7.789	0.051866
9.949	0.057436
15.728	0.066941
20.534	0.074206
25.556	0.079715
29.822	0.085587
35.599	0.090612
39.919	0.095273
45.103	0.10278
49.64	0.110832
54.931	0.114525
59.737	0.121366
65.248	0.139106
69.618	0.131113
74.453	0.161234
79.129	0.185165
84.01	0.173535
88.975	0.151716
93.557	0.142825
98.48	0.126918
103.359	0.10385
108.242	0.097506
113.641	0.101157
118.823	0.09092
123.921	0.08943
128.888	0.078712
133.775	0.089284
138.957	0.079143
143.629	0.085198
147.138	0.069002
