Adsorption isotherm of Carbon Dioxide on Posidonia Shale
DOI: 10.1016/j.coal.2014.07.010
Article source: Figure 5(b)- Lab7_A1
Adsorbate Carbon Dioxide: InChIKey CURLTUGMZLYLDI-UHFFFAOYSA-N
Kind: experiment
Isotherm type: excess
Temperature: 334 K
Tabular data in the source: 0
pressure (bar)	uptake (mmol/g)
1.726	0.022364
10.155	0.072293
23.564	0.11724
41.745	0.151172
