Adsorption isotherm of Methane on Posidonia Shale
DOI: 10.1016/j.coal.2014.07.010
Article source: Figure 5(a)- Lab4_B2
Adsorbate Methane: InChIKey VNWKTOKETHGBQD-UHFFFAOYSA-N
Kind: experiment
Isotherm type: excess
Temperature: 338 K
Tabular data in the source: 0
pressure (bar)	uptake (mmol/g)
6.077	0.007235
9.977	0.015178
20.19	0.027713
40.122	0.047489
60.162	0.061808
80.147	0.072615
100.24	0.080829
120.004	0.088287
140.096	0.093907
160.298	0.098717
180.006	0.102716
200.153	0.10623
220.135	0.109527
240.062	0.112121
