Adsorption isotherm of Methane on Posidonia Shale
DOI: 10.1016/j.coal.2014.07.010
Article source: Figure 5(a)- Lab4_B1
Adsorbate Methane: InChIKey VNWKTOKETHGBQD-UHFFFAOYSA-N
Kind: experiment
Isotherm type: excess
Temperature: 338 K
Tabular data in the source: 0
pressure (bar)	uptake (mmol/g)
9.784	0.01659
19.893	0.027823
40.196	0.042318
60.323	0.051154
80.189	0.056905
100.229	0.061369
120.268	0.064291
140.133	0.066612
160.173	0.068848
180.125	0.070741
200.164	0.071862
220.116	0.07324
240.416	0.074019
