Adsorption isotherm of Carbon Dioxide on Posidonia Shale
DOI: 10.1016/j.coal.2014.07.010
Article source: Figure 5(b)- Lab5_B1
Adsorbate Carbon Dioxide: InChIKey CURLTUGMZLYLDI-UHFFFAOYSA-N
Kind: experiment
Isotherm type: excess
Temperature: 338 K
Tabular data in the source: 0
pressure (bar)	uptake (mmol/g)
12.695	0.085528
38.307	0.189486
77.309	0.30167
95.564	0.35567
107.873	0.368637
117.141	0.365313
125.993	0.362291
135.4	0.347803
144.667	0.345384
154.766	0.329991
164.725	0.32033
174.961	0.314592
186.996	0.300706
198.061	0.296777
208.851	0.291039
219.086	0.288318
228.077	0.284088
236.1	0.283481
243.569	0.28408
