Adsorption isotherm of Methane on Namurian Shale
DOI: 10.1016/j.coal.2014.07.010
Article source: Figure 4(a)- Lab1_A1
Adsorbate Methane: InChIKey VNWKTOKETHGBQD-UHFFFAOYSA-N
Kind: experiment
Isotherm type: excess
Temperature: 338 K
Tabular data in the source: 0
pressure (bar)	uptake (mmol/g)
5.472	0.023553
12.332	0.033831
24.512	0.048737
42.434	0.062229
65.257	0.072739
86.121	0.077834
102.364	0.079636
116.226	0.08081
127.569	0.08167
134.43	0.080884
140.591	0.081197
144.652	0.081117
