Adsorption isotherm of Methane on Namurian Shale
DOI: 10.1016/j.coal.2014.07.010
Article source: Figure 4(a)- Lab5_B1
Adsorbate Methane: InChIKey VNWKTOKETHGBQD-UHFFFAOYSA-N
Kind: experiment
Isotherm type: excess
Temperature: 338 K
Tabular data in the source: 0
pressure (bar)	uptake (mmol/g)
10.387	0.023483
25.168	0.038821
49.895	0.052506
73.955	0.060205
94.681	0.06463
114.629	0.06678
131.743	0.067745
149.968	0.068367
167.138	0.069052
182.141	0.069019
200.033	0.067896
214.369	0.067863
225.816	0.067519
