Adsorption isotherm of Ethane on Posidonia Shale
DOI: 10.1016/j.coal.2014.07.010
Article source: Figure 5(c)- Lab6_B1
Adsorbate Ethane: InChIKey OTMSDBZUPAUEDD-UHFFFAOYSA-N
Kind: experiment
Isotherm type: excess
Temperature: 338 K
Tabular data in the source: 0
pressure (bar)	uptake (mmol/g)
0.54	0.013376
2.482	0.031116
5.567	0.055033
8.061	0.068522
10.173	0.076343
15.541	0.097709
20.146	0.116581
24.993	0.131769
32.263	0.153248
35.067	0.163903
40.467	0.177334
45.105	0.189291
50.815	0.200285
55.175	0.207595
60.298	0.221083
64.415	0.224255
69.743	0.229525
74.242	0.239045
78.952	0.258258
83.757	0.248281
88.277	0.211891
93.321	0.190465
98.295	0.167169
103.379	0.165807
108.484	0.118762
113.78	0.132306
119.035	0.126466
123.148	0.115412
132.862	0.097102
138.669	0.083667
143.544	0.078678
148.942	0.084741
