Adsorption isotherm of Methane on Namurian Shale
DOI: 10.1016/j.coal.2014.07.010
Article source: Figure 4(a)- Lab6_A1
Adsorbate Methane: InChIKey VNWKTOKETHGBQD-UHFFFAOYSA-N
Kind: experiment
Isotherm type: excess
Temperature: 338 K
Tabular data in the source: 0
pressure (bar)	uptake (mmol/g)
0.399	0.008225
3.395	0.018325
4.726	0.023064
6.502	0.028238
11.499	0.036779
16.498	0.043762
20.72	0.047252
25.052	0.051928
30.829	0.057663
35.385	0.06078
39.941	0.063709
46.164	0.067262
50.387	0.06907
59.833	0.073121
64.945	0.074991
70.168	0.075987
75.171	0.075363
79.727	0.077856
85.505	0.081596
89.838	0.085337
95.175	0.081221
105.29	0.082591
109.847	0.08284
116.849	0.084148
120.294	0.085955
123.408	0.082962
126.074	0.086827
129.077	0.082587
131.966	0.085392
134.855	0.087262
137.748	0.081526
140.412	0.088072
144.86	0.083707
148.637	0.087821
