Adsorption isotherm of Carbon Dioxide on Namurian Shale
DOI: 10.1016/j.coal.2014.07.010
Article source: Figure 4(b)- Lab6_A1
Adsorbate Carbon Dioxide: InChIKey CURLTUGMZLYLDI-UHFFFAOYSA-N
Kind: experiment
Isotherm type: excess
Temperature: 338 K
Tabular data in the source: 0
pressure (bar)	uptake (mmol/g)
2.05	0.037852
3.08	0.048039
5.841	0.065684
8.006	0.076326
10.764	0.085876
15.305	0.099427
20.387	0.111705
24.927	0.12271
30.223	0.131804
35.357	0.140534
42.328	0.151447
45.084	0.156267
52.649	0.166361
60.808	0.177546
66.103	0.183093
70.209	0.188458
75.774	0.195642
80.368	0.204827
85.123	0.21001
90.093	0.214011
94.31	0.226744
100.635	0.241477
105.281	0.246114
109.283	0.259848
113.984	0.267487
118.957	0.279947
123.821	0.288677
128.462	0.27867
138.718	0.268206
147.244	0.250102
149.081	0.254195
