Adsorption isotherm of Methane on Namurian Shale
DOI: 10.1016/j.coal.2014.07.010
Article source: Figure 4(a)- Lab5_A1
Adsorbate Methane: InChIKey VNWKTOKETHGBQD-UHFFFAOYSA-N
Kind: experiment
Isotherm type: excess
Temperature: 338 K
Tabular data in the source: 0
pressure (bar)	uptake (mmol/g)
27.159	0.036761
45.219	0.047522
64.259	0.055454
102.198	0.064721
121.238	0.066998
141.397	0.068881
158.477	0.06943
178.636	0.067936
195.436	0.067384
208.736	0.067148
219.516	0.06534
228.195	0.065339
235.615	0.064946
