Adsorption isotherm of Methane on Namurian Shale
DOI: 10.1016/j.coal.2014.07.010
Article source: Figure 4(a)- Lab6_B1
Adsorbate Methane: InChIKey VNWKTOKETHGBQD-UHFFFAOYSA-N
Kind: experiment
Isotherm type: excess
Temperature: 338 K
Tabular data in the source: 0
pressure (bar)	uptake (mmol/g)
50.284	0.07197
59.874	0.076093
69.394	0.079077
79.615	0.081314
90.046	0.082609
99.008	0.083314
109.649	0.084137
120.362	0.082603
128.481	0.086687
137.091	0.09026
147.244	0.088569
