Adsorption isotherm of Methane on Namurian Shale
DOI: 10.1016/j.coal.2014.07.010
Article source: Figure 4(a)- Lab5_B2
Adsorbate Methane: InChIKey VNWKTOKETHGBQD-UHFFFAOYSA-N
Kind: experiment
Isotherm type: excess
Temperature: 338 K
Tabular data in the source: 0
pressure (bar)	uptake (mmol/g)
9.006	0.021545
35.385	0.046576
58.323	0.057061
80.556	0.063094
101.818	0.066851
120.344	0.068876
139.313	0.069566
157.487	0.069811
173.543	0.069808
185.983	0.069658
195.864	0.068964
210.95	0.06812
