Adsorption isotherm of Methane on Namurian Shale
DOI: 10.1016/j.coal.2014.07.010
Article source: Figure 4(a)- Lab7_B2
Adsorbate Methane: InChIKey VNWKTOKETHGBQD-UHFFFAOYSA-N
Kind: experiment
Isotherm type: excess
Temperature: 338 K
Tabular data in the source: 0
pressure (bar)	uptake (mmol/g)
3.475	0.012701
7.968	0.022497
15.635	0.034372
26.389	0.044317
38.644	0.051935
52.134	0.05703
66.155	0.060839
80.353	0.063212
94.992	0.064645
109.896	0.066821
124.359	0.067858
