Adsorption isotherm of Carbon Dioxide on Posidonia Shale
DOI: 10.1016/j.coal.2014.07.010
Article source: Figure 5(b)- Lab2_A1
Adsorbate Carbon Dioxide: InChIKey CURLTUGMZLYLDI-UHFFFAOYSA-N
Kind: experiment
Isotherm type: excess
Temperature: 338 K
Tabular data in the source: 0
pressure (bar)	uptake (mmol/g)
3.581	0.030952
5.008	0.039811
8.465	0.054535
10.221	0.064232
11.429	0.068661
13.075	0.076681
17.301	0.093799
22.843	0.11331
29.264	0.131863
37.221	0.150413
47.703	0.176385
58.569	0.198165
68.502	0.217432
77.941	0.234066
85.13	0.244236
96.544	0.251408
101.374	0.249367
105.27	0.255709
108.508	0.250797
114.27	0.256059
119.703	0.259526
