Adsorption isotherm of Carbon Dioxide on Posidonia Shale
DOI: 10.1016/j.coal.2014.07.010
Article source: Figure 5(b)- Lab6_A1
Adsorbate Carbon Dioxide: InChIKey CURLTUGMZLYLDI-UHFFFAOYSA-N
Kind: experiment
Isotherm type: excess
Temperature: 338 K
Tabular data in the source: 0
pressure (bar)	uptake (mmol/g)
3.786	0.038408
6.442	0.057985
7.531	0.063401
8.793	0.072144
10.448	0.083704
10.709	0.084878
15.935	0.102268
20.42	0.12612
25.602	0.145411
30.348	0.162991
34.267	0.181806
35.139	0.181996
41.932	0.202236
45.372	0.212214
52.253	0.230839
57.087	0.242336
59.787	0.252789
64.969	0.264667
70.021	0.273124
75.944	0.285191
79.602	0.294314
84.393	0.302295
89.575	0.306095
95.062	0.327761
99.853	0.32928
104.687	0.333175
109.434	0.33555
114.181	0.363203
120.016	0.374701
124.241	0.374414
128.989	0.36814
130.164	0.378879
139.094	0.355593
140.748	0.363765
144.146	0.353311
149.372	0.365568
