Adsorption isotherm of Carbon Dioxide on Posidonia Shale
DOI: 10.1016/j.coal.2014.07.010
Article source: Figure 5(b)- Lab7_A2
Adsorbate Carbon Dioxide: InChIKey CURLTUGMZLYLDI-UHFFFAOYSA-N
Kind: experiment
Isotherm type: excess
Temperature: 334 K
Tabular data in the source: 0
pressure (bar)	uptake (mmol/g)
1.743	0.022468
5.859	0.054194
12.638	0.085679
20.486	0.113872
29.954	0.140568
39.861	0.15996
50.179	0.172049
62.007	0.182821
