Adsorption isotherm of Methane on Namurian Shale
DOI: 10.1016/j.coal.2014.07.010
Article source: Figure 4(a)- Lab5_A2
Adsorbate Methane: InChIKey VNWKTOKETHGBQD-UHFFFAOYSA-N
Kind: experiment
Isotherm type: excess
Temperature: 338 K
Tabular data in the source: 0
pressure (bar)	uptake (mmol/g)
10.961	0.020818
25.074	0.035358
42.629	0.046186
62.213	0.054539
103.941	0.064864
124.32	0.067776
143.553	0.068907
160.05	0.069841
173.549	0.070331
190.576	0.069138
