Adsorption isotherm of Carbon Dioxide on Namurian Shale
DOI: 10.1016/j.coal.2014.07.010
Article source: Figure 4(b)- Lab5_C1
Adsorbate Carbon Dioxide: InChIKey CURLTUGMZLYLDI-UHFFFAOYSA-N
Kind: experiment
Isotherm type: excess
Temperature: 338 K
Tabular data in the source: 0
pressure (bar)	uptake (mmol/g)
20.381	0.112494
49.097	0.1587
72.2	0.233828
92.172	0.260934
106.638	0.259844
118.514	0.227103
128.662	0.202366
138.594	0.188906
148.526	0.178721
158.782	0.170718
169.685	0.166172
181.021	0.162717
191.925	0.157625
202.72	0.160537
214.272	0.157991
224.096	0.155992
233.596	0.155629
242.341	0.157449
