Adsorption isotherm of Methane on Posidonia Shale
DOI: 10.1016/j.coal.2014.07.010
Article source: Figure 5(a)- Lab6_A1
Adsorbate Methane: InChIKey VNWKTOKETHGBQD-UHFFFAOYSA-N
Kind: experiment
Isotherm type: excess
Temperature: 338 K
Tabular data in the source: 0
pressure (bar)	uptake (mmol/g)
0.964	0.015158
5.593	0.026523
9.324	0.035847
13.125	0.041565
16.857	0.048507
20.796	0.053612
27.016	0.063345
31.025	0.066953
35.933	0.071923
42.154	0.078934
45.126	0.081929
51.209	0.086899
56.532	0.092073
61.578	0.096702
66.279	0.098814
71.048	0.102762
75.196	0.106643
80.933	0.111068
86.049	0.112975
91.027	0.115903
95.451	0.119035
101.396	0.12176
105.128	0.126592
110.59	0.128228
115.499	0.130203
120.408	0.130886
125.523	0.135175
129.81	0.134972
134.302	0.14069
139.902	0.142393
145.295	0.144097
149.513	0.142738
149.719	0.142808
