Adsorption isotherm of Carbon Dioxide on Posidonia Shale
DOI: 10.1016/j.coal.2014.07.010
Article source: Figure 9- CO2_raw-blank
Adsorbate Carbon Dioxide: InChIKey CURLTUGMZLYLDI-UHFFFAOYSA-N
Kind: experiment
Isotherm type: excess
Temperature: 338 K
Tabular data in the source: 0
pressure (bar)	uptake (grams (excess))
12.321	0.037482
38.865	0.088507
57.127	0.115046
77.419	0.141358
95.878	0.167003
108.118	0.174353
116.626	0.173337
126.64	0.171092
136.195	0.164718
145.031	0.162585
154.782	0.156099
164.796	0.15151
175.399	0.150156
187.375	0.143444
198.633	0.141755
208.843	0.139174
218.987	0.137375
227.823	0.135131
235.808	0.135678
243.073	0.135669
