Adsorption isotherm of Methane on Posidonia Shale
DOI: 10.1016/j.coal.2014.07.010
Article source: Figure 5(a)- Lab7_A1
Adsorbate Methane: InChIKey VNWKTOKETHGBQD-UHFFFAOYSA-N
Kind: experiment
Isotherm type: excess
Temperature: 338 K
Tabular data in the source: 0
pressure (bar)	uptake (mmol/g)
3.478	0.008167
14.619	0.027835
30.878	0.046348
50.596	0.060711
72.181	0.072149
94.803	0.078211
117.977	0.082368
139.768	0.085096
