Adsorption isotherm of Carbon Dioxide on Posidonia Shale
DOI: 10.1016/j.coal.2014.07.010
Article source: Figure 5(b)- Lab4_A2
Adsorbate Carbon Dioxide: InChIKey CURLTUGMZLYLDI-UHFFFAOYSA-N
Kind: experiment
Isotherm type: excess
Temperature: 338 K
Tabular data in the source: 0
pressure (bar)	uptake (mmol/g)
3.159	0.0196
17.296	0.07341
38.77	0.13198
56.645	0.16259
67.45	0.17632
83.193	0.18161
100.003	0.18849
113.756	0.07934
124.58	-0.08466
130.99	-0.13581
138.598	-0.16744
144.469	-0.17956
152.473	-0.16637
