Adsorption isotherm of Methane on Namurian Shale
DOI: 10.1016/j.coal.2014.07.010
Article source: Figure 4(a)- Lab3_A1
Adsorbate Methane: InChIKey VNWKTOKETHGBQD-UHFFFAOYSA-N
Kind: experiment
Isotherm type: excess
Temperature: 338 K
Tabular data in the source: 0
pressure (bar)	uptake (mmol/g)
5.171	0.018063
9.945	0.026977
15.053	0.033086
20.161	0.039257
24.826	0.042997
30.157	0.047173
35.378	0.051162
40.376	0.054154
49.818	0.059203
59.929	0.06207
70.483	0.065187
80.704	0.068241
91.037	0.069924
101.369	0.072167
112.369	0.07304
122.035	0.075159
131.925	0.075158
142.369	0.07603
152.48	0.077214
160.592	0.077152
