Adsorption isotherm of Methane on Posidonia Shale
DOI: 10.1016/j.coal.2014.07.010
Article source: Figure 5(a)- Lab4_A2
Adsorbate Methane: InChIKey VNWKTOKETHGBQD-UHFFFAOYSA-N
Kind: experiment
Isotherm type: excess
Temperature: 338 K
Tabular data in the source: 0
pressure (bar)	uptake (mmol/g)
9.923	0.01345
20.157	0.025029
40.072	0.042195
60.124	0.055414
80.127	0.065425
100.158	0.073272
120.135	0.079821
160.196	0.089787
180.118	0.093635
199.929	0.096835
220.124	0.099819
240.045	0.102479
