Adsorption isotherm of Methane on Posidonia Shale
DOI: 10.1016/j.coal.2014.07.010
Article source: Figure 5(a)- Lab7_A2
Adsorbate Methane: InChIKey VNWKTOKETHGBQD-UHFFFAOYSA-N
Kind: experiment
Isotherm type: excess
Temperature: 338 K
Tabular data in the source: 0
pressure (bar)	uptake (mmol/g)
3.356	0.008079
14.435	0.027788
29.174	0.044411
45.568	0.058892
63.442	0.068403
81.839	0.076114
100.758	0.081939
120.46	0.084166
141.47	0.08605
