Adsorption isotherm of Carbon Dioxide on Posidonia Shale
DOI: 10.1016/j.coal.2014.07.010
Article source: Figure 5(b)- Lab4_A1
Adsorbate Carbon Dioxide: InChIKey CURLTUGMZLYLDI-UHFFFAOYSA-N
Kind: experiment
Isotherm type: excess
Temperature: 338 K
Tabular data in the source: 0
pressure (bar)	uptake (mmol/g)
2.724	0.02051
17.681	0.06758
36.502	0.11929
55.824	0.14711
66.408	0.15306
83.711	0.1517
97.317	0.14172
115.264	-0.08057
121.469	-0.16285
132.039	-0.26571
136.573	-0.27766
144.467	-0.28962
150.518	-0.2684
