Adsorption isotherm of Methane on Posidonia Shale
DOI: 10.1016/j.coal.2014.07.010
Article source: Figure 5(a)- Lab2_A1
Adsorbate Methane: InChIKey VNWKTOKETHGBQD-UHFFFAOYSA-N
Kind: experiment
Isotherm type: excess
Temperature: 338 K
Tabular data in the source: 0
pressure (bar)	uptake (mmol/g)
31.613	0.043965
54.686	0.065582
81.931	0.084176
101.924	0.091963
128.727	0.102345
153.99	0.106461
179.254	0.113386
210.886	0.116207
