Adsorption isotherm of Methane on Namurian Shale
DOI: 10.1016/j.coal.2014.07.010
Article source: Figure 4(a)- Lab2_B1
Adsorbate Methane: InChIKey VNWKTOKETHGBQD-UHFFFAOYSA-N
Kind: experiment
Isotherm type: excess
Temperature: 338 K
Tabular data in the source: 0
pressure (bar)	uptake (mmol/g)
2.031	0.007689
2.803	0.02128
6.444	0.029922
10.855	0.036245
19.675	0.047086
34.164	0.052073
54.74	0.052738
103.875	0.068563
130.738	0.080492
148.847	0.082204
175.123	0.084508
190.621	0.084849
209.787	0.086687
229.563	0.08815
