Adsorption isotherm of Methane on Namurian Shale
DOI: 10.1016/j.coal.2014.07.010
Article source: Figure 4(a)- Lab6_A2
Adsorbate Methane: InChIKey VNWKTOKETHGBQD-UHFFFAOYSA-N
Kind: experiment
Isotherm type: excess
Temperature: 338 K
Tabular data in the source: 0
pressure (bar)	uptake (mmol/g)
2.005	0.008916
4.977	0.023272
6.417	0.028415
11.41	0.036707
16.182	0.043783
20.735	0.047367
24.898	0.05198
30.727	0.057747
35.225	0.060396
39.779	0.063669
46.11	0.067253
50.331	0.069154
59.884	0.073018
64.938	0.075043
69.994	0.075946
79.826	0.077971
85.324	0.081524
95.158	0.081211
100.158	0.082925
105.158	0.082643
109.548	0.082799
111.936	0.084014
116.714	0.0842
120.046	0.085634
123.216	0.083015
125.991	0.086568
129.05	0.082733
131.437	0.085476
134.658	0.087034
137.663	0.081672
140.491	0.088
144.773	0.083822
148.381	0.087905
