Adsorption isotherm of Methane on Posidonia Shale
DOI: 10.1016/j.coal.2014.07.010
Article source: Figure 9- CH4_raw-blank
Adsorbate Methane: InChIKey VNWKTOKETHGBQD-UHFFFAOYSA-N
Kind: experiment
Isotherm type: excess
Temperature: 338 K
Tabular data in the source: 0
pressure (bar)	uptake (grams (excess))
0.033	-1e-05
14.025	0.006101
33.674	0.012286
51.683	0.016415
71.6	0.019915
90.337	0.022349
111.113	0.024592
130.114	0.026245
147.934	0.027232
166.082	0.028257
181.93	0.028749
198.106	0.029489
211.783	0.030095
223.488	0.030398
234.141	0.030529
243.48	0.030642
250.187	0.03085
