Adsorption isotherm of Ethane on Namurian Shale
DOI: 10.1016/j.coal.2014.07.010
Article source: Figure 4(c)- Lab5_B1
Adsorbate Ethane: InChIKey OTMSDBZUPAUEDD-UHFFFAOYSA-N
Kind: experiment
Isotherm type: excess
Temperature: 338 K
Tabular data in the source: 0
pressure (bar)	uptake (mmol/g)
7.351	0.041028
17.071	0.060922
48.217	0.085534
57.688	0.094282
63.002	0.099473
67.116	0.101636
