Adsorption isotherm of Carbon Dioxide on Namurian Shale
DOI: 10.1016/j.coal.2014.07.010
Article source: Figure 4(b)- Lab2_A1
Adsorbate Carbon Dioxide: InChIKey CURLTUGMZLYLDI-UHFFFAOYSA-N
Kind: experiment
Isotherm type: excess
Temperature: 338 K
Tabular data in the source: 0
pressure (bar)	uptake (mmol/g)
1.889	0.030527
7.831	0.064527
17.121	0.088344
21.55	0.09998
27.815	0.112524
36.456	0.121794
46.286	0.133064
56.871	0.138879
67.563	0.142148
77.824	0.143599
84.305	0.146324
90.785	0.144867
95.753	0.137956
101.045	0.131226
105.257	0.122678
112.385	0.115584
