Adsorption isotherm of Methane on Posidonia Shale
DOI: 10.1016/j.coal.2014.07.010
Article source: Figure 5(a)- Lab6_B1
Adsorbate Methane: InChIKey VNWKTOKETHGBQD-UHFFFAOYSA-N
Kind: experiment
Isotherm type: excess
Temperature: 338 K
Tabular data in the source: 0
pressure (bar)	uptake (mmol/g)
1.279	0.001464
3.023	0.004378
6.163	0.011321
8.955	0.017835
10.438	0.021092
15.932	0.029149
20.292	0.036177
25.263	0.043205
31.192	0.050833
35.987	0.05529
39.912	0.061204
45.84	0.06566
50.897	0.071145
56.215	0.074916
60.574	0.079116
64.846	0.081944
70.512	0.085029
74.959	0.089057
80.015	0.091285
86.466	0.095741
90.737	0.097884
94.748	0.100883
100.152	0.102597
104.946	0.103539
110.526	0.107653
115.407	0.108852
120.288	0.110737
124.821	0.111765
129.615	0.113564
135.02	0.116135
139.988	0.116992
144.607	0.117248
149.75	0.11819
