Adsorption isotherm of Ethane on Posidonia Shale
DOI: 10.1016/j.coal.2014.07.010
Article source: Figure 5(c)- Lab6_A1
Adsorbate Ethane: InChIKey OTMSDBZUPAUEDD-UHFFFAOYSA-N
Kind: experiment
Isotherm type: excess
Temperature: 338 K
Tabular data in the source: 0
pressure (bar)	uptake (mmol/g)
3.457	0.034224
5.872	0.048178
7.41	0.060511
10.1	0.077076
14.657	0.097693
19.489	0.117139
25.309	0.134874
32.062	0.156841
35.466	0.168545
41.011	0.18376
46.721	0.198165
50.565	0.208339
55.836	0.215992
59.953	0.228056
65.114	0.237689
69.891	0.242912
75.052	0.251915
79.719	0.26614
83.947	0.249757
89.437	0.244177
94.214	0.224103
98.606	0.201868
104.261	0.186655
108.764	0.147406
113.156	0.147948
118.152	0.135796
123.643	0.127245
129.023	0.107891
134.239	0.107982
138.961	0.111494
143.848	0.108164
148.734	0.091871
