Adsorption isotherm of Methane on Posidonia Shale
DOI: 10.1016/j.coal.2014.07.010
Article source: Figure 5(a)- Lab4_A1
Adsorbate Methane: InChIKey VNWKTOKETHGBQD-UHFFFAOYSA-N
Kind: experiment
Isotherm type: excess
Temperature: 338 K
Tabular data in the source: 0
pressure (bar)	uptake (mmol/g)
1.896	0.000978
4.464	0.008527
9.907	0.016636
20.141	0.02792
39.871	0.04221
60.125	0.050883
79.988	0.056811
100.199	0.061195
120.063	0.064636
139.927	0.066875
159.878	0.068772
179.917	0.070497
200.042	0.071707
220.255	0.073261
239.945	0.073613
