Adsorption isotherm of Carbon Dioxide on Shale
DOI: 10.1016/j.coal.2014.07.010
Article source: Figure 14- Gas Pre-drying
Adsorbate Carbon Dioxide: InChIKey CURLTUGMZLYLDI-UHFFFAOYSA-N
Kind: experiment
Temperature: 273 K
Tabular data in the source: 0
pressure (bar)	uptake (mmol/g)
0.05883	0.012274
0.09759	0.018501
0.20627	0.024456
0.29983	0.033905
0.4071	0.041189
0.50727	0.046724
0.59705	0.051768
0.70195	0.056465
0.80354	0.061231
0.90844	0.066767
1.00295	0.070064
