Adsorption isotherm of Ethane on Posidonia Shale
DOI: 10.1016/j.coal.2014.07.010
Article source: Figure 5(c)- Lab2_A1
Adsorbate Ethane: InChIKey OTMSDBZUPAUEDD-UHFFFAOYSA-N
Kind: experiment
Isotherm type: excess
Temperature: 338 K
Tabular data in the source: 0
pressure (bar)	uptake (mmol/g)
2.532	0.028936
4.833	0.053059
7.464	0.068721
11.413	0.086365
15.362	0.103648
18.103	0.121651
22.272	0.133174
30.391	0.15694
40.815	0.182148
50.583	0.196014
59.913	0.19908
69.899	0.213306
79.229	0.220512
88.339	0.221417
