Adsorption isotherm of Ethane on Namurian Shale
DOI: 10.1016/j.coal.2014.07.010
Article source: Figure 4(c)- Lab2_A1
Adsorbate Ethane: InChIKey OTMSDBZUPAUEDD-UHFFFAOYSA-N
Kind: experiment
Isotherm type: excess
Temperature: 338 K
Tabular data in the source: 0
pressure (bar)	uptake (mmol/g)
1.456	0.02931
6.091	0.048635
9.35	0.054884
13.639	0.063249
17.668	0.065749
20.499	0.073056
29.073	0.079211
37.217	0.083154
42.448	0.090557
47.421	0.093731
51.278	0.094116
58.048	0.091329
61.13	0.0796
64.642	0.072102
69.95	0.052971
72.862	0.046434
75.344	0.035762
