Adsorption isotherm of Nitrogen on {[Zn2BIB1.5SPA(OH)(H2O)]*1.75H2O}n
DOI: 10.1016/j.poly.2013.09.002
Adsorbate Nitrogen: InChIKey IJGRMHOSHXDMSA-UHFFFAOYSA-N
Temperature: 77 K
Tabular data in the source: 0
pressure (bar)	uptake (ml/g)
0.00936162	0.109678
0.0350676	0.164042
0.0561012	0.218511
0.0748073	0.327978
0.102849	0.382289
0.119228	0.546753
0.144942	0.656062
0.163657	0.820474
0.175347	0.875154
0.196389	0.984568
0.219767	1.09393
0.238482	1.25834
0.257214	1.53264
0.275911	1.58716
0.292298	1.80657
0.341416	2.19008
0.392905	2.79331
0.444377	3.28665
0.491168	3.72515
0.537968	4.2186
0.587103	4.71199
0.638618	5.48006
0.685417	5.97351
0.736923	6.68663
0.783749	7.34491
0.807221	8.05866
0.835349	8.66242
0.856476	9.32128
0.879941	9.98009
0.908102	10.8036
0.92929	11.8471
0.957675	14.0992
