Adsorption isotherm of Nitrogen on TFPB-BD
DOI: 10.1039/c9ta02974e
Article source: Figure 2C
Adsorbate Nitrogen: InChIKey IJGRMHOSHXDMSA-UHFFFAOYSA-N
Kind: experiment
Temperature: 77 K
Tabular data in the source: 0
pressure (bar)	uptake (cm3(STP)/g)
4.2e-05	62.1502
0.00358	73.4376
0.00924	91.4975
0.025561	100.503
0.051824	107.983
0.097963	119.945
0.151204	129.635
0.202311	143.846
0.250574	161.074
0.303109	167.753
0.354222	175.941
0.40463	179.612
0.455746	184.788
0.506153	189.966
0.554784	195.146
0.606255	201.075
0.658078	209.261
0.709197	212.178
0.734753	216.649
0.759598	221.873
0.784445	225.592
0.810711	230.061
0.831299	233.035
0.836268	233.778
0.851172	239.774
0.86111	242.768
0.872467	245.758
0.886662	250.25
0.8966	253.243
0.912214	259.238
0.91718	262.24
0.937049	273.497
0.961168	293.782
0.96187	300.557
0.979931	341.182
0.988072	363.002
1.00141	504.529
1.0055	652.096
1.00269	624.995
0.990092	463.138
0.98375	419.48
0.963246	340.46
0.935595	304.37
0.914309	290.857
0.896564	285.619
0.885209	280.37
0.874563	276.625
0.858949	270.63
0.854688	271.391
0.832681	267.667
0.812095	263.187
0.785827	260.224
0.757431	255.759
0.733294	252.039
0.707024	250.582
0.660171	243.139
0.607632	239.472
0.557228	232.788
0.50753	229.116
0.456769	223.186
0.403876	218.766
0.354181	212.835
0.304484	208.409
0.252657	203.234
0.201554	186.011
0.151158	171.799
0.103597	161.346
0.050359	148.644
