Adsorption isotherm of Nitrogen on Carbon
DOI: 10.1080/08927020500108429
Adsorbate Nitrogen: InChIKey IJGRMHOSHXDMSA-UHFFFAOYSA-N
Temperature: 77 K
Tabular data in the source: 0
pressure (bar)	uptake (kmol/m3)
1.36e-05	0.542787
2.29e-05	0.789266
6.43e-05	1.72589
0.000107	3.99349
0.000161	6.11321
0.000237	7.64138
0.000363	8.72589
0.000627	9.90898
0.00128756	10.6484
0.00239988	11.24
0.00727579	12.0287
0.0185146	12.6695
0.0471138	13.5076
0.0572341	13.8034
0.0708945	23.6625
0.076633	27.6555
0.115314	29.085
0.214933	30.071
0.342862	30.5146
0.855663	30.9583
