Adsorption isotherm of Nitrogen on Carbon
DOI: 10.1080/08927020500108429
Adsorbate Nitrogen: InChIKey IJGRMHOSHXDMSA-UHFFFAOYSA-N
Temperature: 77 K
Tabular data in the source: 0
pressure (bar)	uptake (micromoles/m2)
1.89e-05	0.147915
3.65e-05	0.292451
5.24e-05	0.442844
7.41e-05	0.670578
0.000111771	1.09893
0.000168692	1.96837
0.000267495	3.42271
0.00039713	5.13189
0.00057049	6.56959
0.00121669	7.92604
0.0024698	8.57788
0.00461731	9.19206
0.0074432	9.56257
0.0126062	10.2473
0.0239586	10.6603
0.0462902	11.09
0.0698646	11.2001
0.130612	11.7672
0.200402	12.9891
0.297523	15.671
0.406802	19.4754
0.655774	24.9314
0.82578	34.2011
0.911525	53.3469
0.926658	80.7806
