Adsorption isotherm of Nitrogen on Carbon
DOI: 10.1080/08927020500108429
Adsorbate Nitrogen: InChIKey IJGRMHOSHXDMSA-UHFFFAOYSA-N
Temperature: 77 K
Tabular data in the source: 0
pressure (bar)	uptake (kmol/m3)
2.15e-06	0.887857
3.09e-06	2.31744
3.61e-06	3.45124
4.01e-06	5.32448
4.93e-06	19.4724
5.91e-06	22.3315
7.09e-06	23.7611
1.02e-05	24.747
1.47e-05	26.0287
1.95e-05	26.6695
7.14e-05	27.6555
0.000103	28.3456
0.000148	28.3949
0.000212	30.1203
0.00045	30.1203
0.000737	31.1555
0.00197539	30.8597
