Adsorption isotherm of Nitrogen on Carbon
DOI: 10.1080/08927020500108429
Adsorbate Nitrogen: InChIKey IJGRMHOSHXDMSA-UHFFFAOYSA-N
Temperature: 77 K
Tabular data in the source: 0
pressure (bar)	uptake (micromoles/m2)
0.00336809	0.169624
0.00336809	4.95836
0.00336809	9.97244
0.0168892	10.7612
0.0529456	10.9865
0.0822413	11.2682
0.122805	11.6062
0.146467	11.9443
0.19041	12.4513
0.235481	13.3527
0.281678	14.7612
0.329002	16.8457
0.384213	18.3668
0.433791	19.6062
0.487875	20.733
0.538579	21.6908
0.585903	22.6485
0.636608	23.9443
0.691819	25.6344
0.739143	27.6062
0.78534	30.0288
