Adsorption isotherm of Nitrogen on Carbon
DOI: 10.1080/08927020500108429
Adsorbate Nitrogen: InChIKey IJGRMHOSHXDMSA-UHFFFAOYSA-N
Temperature: 77 K
Tabular data in the source: 0
pressure (bar)	uptake (micromoles/m2)
1.25e-05	0.100621
1.58e-05	0.123819
2.62e-05	0.21744
3.83e-05	0.356338
6.18e-05	0.631985
9.96e-05	1.3128
0.000141	2.1093
0.000209	4.00882
0.000246	5.03149
0.000366	6.31505
0.000707	7.77097
0.00263794	8.49355
0.0110504	9.75338
0.0734022	10.981
0.116394	11.884
0.232412	15.3644
0.312588	18.9066
