Adsorption isotherm of Nitrogen on Carbon
DOI: 10.1080/08927020500108429
Adsorbate Nitrogen: InChIKey IJGRMHOSHXDMSA-UHFFFAOYSA-N
Temperature: 77 K
Tabular data in the source: 0
pressure (bar)	uptake (micromoles/m2)
1.36e-05	0.237659
2.3e-05	0.393338
3.31e-05	0.561334
4.99e-05	0.866962
7.05e-05	1.28712
0.000105	2.13024
0.00015	3.32276
0.000223	4.98203
0.000348	6.56959
0.000755	8.00473
0.0019939	8.92363
0.00477189	9.6575
0.0119986	10.6603
0.0287156	10.981
0.0602422	11.09
0.114493	11.4236
0.200402	12.4858
0.302462	15.671
0.380873	18.7208
0.556221	22.5861
0.723867	26.1938
0.881997	36.6499
1.02288	75.3831
