Adsorption isotherm of Nitrogen on Carbon
DOI: 10.1080/08927020500108429
Adsorbate Nitrogen: InChIKey IJGRMHOSHXDMSA-UHFFFAOYSA-N
Temperature: 77 K
Tabular data in the source: 0
pressure (bar)	uptake (micromoles/m2)
1.98e-05	0.304239
3.09e-05	0.503532
5.42e-05	0.910862
9.33e-05	1.76568
0.00015	3.29009
0.000227	4.789
0.000397	6.37774
0.000767	7.54404
0.00216499	8.49355
0.00621015	9.28332
0.0114203	10.349
0.0184098	10.873
0.037991	10.2473
0.0894371	11.09
0.178586	12.8614
0.260804	14.4801
0.374654	18.9066
0.613976	24.2033
0.839489	31.2915
0.989742	42.9259
1.00617	74.6421
