Adsorption isotherm of Nitrogen on Carbon
DOI: 10.1080/08927020500108429
Adsorbate Nitrogen: InChIKey IJGRMHOSHXDMSA-UHFFFAOYSA-N
Temperature: 77 K
Tabular data in the source: 0
pressure (bar)	uptake (micromoles/m2)
0.0247765	10.3668
0.0709737	11.2682
0.105903	11.7753
0.121678	12.1133
0.173509	14.0851
0.234354	16.0006
0.291819	17.9161
0.322241	18.6485
0.386467	20.0006
0.450692	21.1837
0.513791	22.5922
0.58365	24.4513
0.647875	26.3668
0.704213	27.8879
0.74703	29.7471
0.78534	31.0992
