Adsorption isotherm of Nitrogen on Carbon
DOI: 10.1080/08927020500108429
Adsorbate Nitrogen: InChIKey IJGRMHOSHXDMSA-UHFFFAOYSA-N
Temperature: 77 K
Tabular data in the source: 0
pressure (bar)	uptake (micromoles/m2)
0.00111456	8.00061
0.00224133	0.169624
0.0101286	10.5922
0.0292836	10.8175
0.0642132	11.1555
0.126185	11.7189
0.165622	12.0569
0.206185	12.7893
0.259143	14.0851
0.30872	15.7753
0.38534	18.4231
0.433791	19.6062
0.486748	20.6767
0.563368	22.0851
0.614072	23.1555
0.668157	24.564
0.714354	26.5358
0.739143	27.5499
0.763931	28.6203
0.78534	29.8034
