Adsorption isotherm of Nitrogen on Carbon
DOI: 10.1080/08927020500108429
Adsorbate Nitrogen: InChIKey IJGRMHOSHXDMSA-UHFFFAOYSA-N
Temperature: 77 K
Tabular data in the source: 0
pressure (bar)	uptake (kmol/m3)
3.83e-06	0.197717
9.01e-06	0.345604
1.38e-05	0.542787
2.12e-05	0.690674
4.03e-05	1.28222
6.07e-05	1.43011
0.000109	3.40194
0.000174	5.17659
0.000371	8.03574
0.000718	9.61321
0.00147544	10.5498
0.00368219	11.3879
0.0113827	12.1273
0.0295346	12.7188
0.0509273	13.5076
0.0828359	14.5428
0.0930942	27.8034
0.124647	28.5428
0.166895	29.085
0.219156	29.2329
0.450225	29.9724
