Adsorption isotherm of Nitrogen on Carbon
DOI: 10.1080/08927020500108429
Adsorbate Nitrogen: InChIKey IJGRMHOSHXDMSA-UHFFFAOYSA-N
Temperature: 77 K
Tabular data in the source: 0
pressure (bar)	uptake (kmol/m3)
1.08e-08	0.0498294
2.9e-08	0.0498294
1.01e-07	0.0498294
3.15e-07	0.0498294
5.29e-07	0.345604
8.9e-07	0.73997
1.49e-06	1.08504
2.51e-06	2.07096
3.09e-06	3.50053
3.52e-06	17.4512
4.01e-06	22.2329
5.06e-06	24.0076
6.91e-06	25.8808
1.02e-05	26.916
3.19e-05	28.4935
0.000108	29.7259
0.000474	31.0569
0.00197539	31.4019
0.0096156	31.4512
0.0943031	31.4512
1.026	31.4019
