Adsorption isotherm of Nitrogen on Carbon
DOI: 10.1080/08927020500108429
Adsorbate Nitrogen: InChIKey IJGRMHOSHXDMSA-UHFFFAOYSA-N
Temperature: 77 K
Tabular data in the source: 0
pressure (bar)	uptake (micromoles/m2)
0.00111456	0.169624
0.00449485	9.9161
0.0202695	10.5358
0.0675934	10.9302
0.108157	11.6062
0.14872	12.1696
0.192664	12.902
0.235481	13.9161
0.298579	16.1133
0.369565	18.3105
0.409002	19.7189
0.436044	20.1696
0.486748	21.1837
0.543086	22.4231
0.624213	24.733
0.716608	27.2119
0.767312	28.6767
0.802241	29.7471
