Adsorption isotherm of Ni(II) on Hydroxyapatite
DOI: 10.1007/s10450-019-00066-w
Article source: Figure 4
Adsorbate Ni(II): InChIKey VEQPNABPJHWNSG-UHFFFAOYSA-N
Kind: experiment
Temperature: 303 K
Tabular data in the source: 0
pressure (bar)	uptake (mmol/g)
1.01325	0.022857
1.01325	0.037143
1.01325	0.074286
1.01325	0.125714
1.01325	0.16
1.01325	0.165714
1.01325	0.212381
1.01325	0.262857
1.01325	0.289524
1.01325	0.301905
1.01325	0.295238
