Adsorption isotherm of Co(II) on Hydroxyapatite
DOI: 10.1007/s10450-019-00066-w
Article source: Figure 4
Adsorbate Co(II): InChIKey XLJKHNWPARRRJB-UHFFFAOYSA-N
Kind: experiment
Temperature: 303 K
Tabular data in the source: 0
pressure (bar)	uptake (mmol/g)
1.01325	0.021905
1.01325	0.047619
1.01325	0.094286
1.01325	0.134286
1.01325	0.164762
1.01325	0.194286
1.01325	0.2
1.01325	0.314286
1.01325	0.355238
1.01325	0.340952
1.01325	0.398095
1.01325	0.379048
1.01325	0.368571
