Adsorption isotherm of Nitrogen on Hydroxyapatite
DOI: 10.1007/s10450-019-00066-w
Article source: Figure 1
Adsorbate Nitrogen: InChIKey IJGRMHOSHXDMSA-UHFFFAOYSA-N
Kind: experiment
Temperature: 77 K
Tabular data in the source: 0
pressure (bar)	uptake (cm3(STP)/g)
0	14.5749
0.03522	21.0526
0.100241	23.4818
0.154426	26.7206
0.209965	28.3401
0.265504	30.7692
0.327816	33.1984
0.395547	35.6275
0.414511	36.8421
0.447022	38.4615
0.484951	40.4858
0.52288	42.915
0.560809	46.1538
0.596029	48.583
0.633959	52.2267
0.670533	55.8704
0.705753	61.1336
0.739618	66.3968
0.777547	73.6842
0.792448	77.7328
0.807349	81.3765
0.820895	85.4251
0.835796	91.0931
0.849342	96.7611
0.861533	102.429
0.873725	108.097
0.884562	114.17
0.895399	120.648
0.904881	128.34
0.913009	135.223
0.9252	143.32
0.934682	149.798
0.945519	156.275
0.956356	162.348
0.968548	166.802
0.983449	171.255
1.00241	184.615
1.00512	195.951
1.00919	210.526
0.234348	29.9595
0.265504	31.5789
0.302079	33.1984
0.341362	35.6275
0.38471	38.0567
0.436185	40.081
0.49037	44.5344
0.552682	48.9879
0.621767	55.4656
0.658342	60.7287
0.696271	66.8016
0.731491	76.1134
0.749101	82.1862
0.766711	89.4737
0.782966	97.9757
0.797867	106.478
0.812767	117.004
0.824959	128.745
0.83986	139.271
0.85476	150.202
0.871016	161.134
0.896753	166.397
0.9252	168.826
0.956356	170.85
0.987512	172.065
1.00783	185.83
1.01054	210.931
