Adsorption isotherm of Nitrogen on Cu/MIL-101(Cr)
DOI: 10.1016/j.inoche.2013.03.003
Adsorbate Nitrogen: InChIKey IJGRMHOSHXDMSA-UHFFFAOYSA-N
Temperature: 77 K
Tabular data in the source: 0
pressure (bar)	uptake (cm3(STP)/g)
0.0152686	40.5223
0.0339813	102.867
0.0760846	144.43
0.122866	190.611
0.197717	250.647
0.260872	285.283
0.419929	303.755
0.611733	303.755
0.801198	312.991
0.920491	319.918
0.990663	331.464
1.00938	359.172
