Adsorption isotherm of Nitrogen on Cr-MIL(101)
DOI: 10.1016/j.inoche.2013.03.003
Adsorbate Nitrogen: InChIKey IJGRMHOSHXDMSA-UHFFFAOYSA-N
Temperature: 77 K
Tabular data in the source: 0
pressure (bar)	uptake (cm3(STP)/g)
0.0129296	216.011
0.0433376	340.7
0.0784237	470.007
0.122866	573.915
0.148596	668.586
0.197717	724.004
0.258533	841.766
0.356774	857.929
0.469049	874.092
0.616411	881.02
0.738043	894.874
0.819911	894.874
0.927508	906.419
0.978968	924.892
1.00938	952.6
