Adsorption isotherm of Carbon Dioxide on Zeolite 13X
DOI: 10.1016/j.cej.2012.02.026
Adsorbate Carbon Dioxide: InChIKey CURLTUGMZLYLDI-UHFFFAOYSA-N
Temperature: 323 K
Tabular data in the source: 0
pressure (bar)	uptake (mmol/g)
0.00109505	0.00262134
0.0469774	0.100504
0.071885	0.18921
0.10728	0.336033
0.158406	0.467563
0.202977	0.589915
0.258036	0.715327
0.320961	0.852974
0.395683	0.950857
0.486137	1.0885
0.57528	1.19556
