Adsorption isotherm of Carbon Dioxide on Zeolite 5A
DOI: 10.1016/j.cej.2012.02.026
Adsorbate Carbon Dioxide: InChIKey CURLTUGMZLYLDI-UHFFFAOYSA-N
Temperature: 363 K
Tabular data in the source: 0
pressure (bar)	uptake (mmol/g)
0.00433639	0.00299582
0.0517482	0.0274664
0.0976305	0.0624244
0.148101	0.0973824
0.200101	0.121853
0.261278	0.142828
0.317866	0.156811
0.372925	0.170794
0.424925	0.184777
0.476925	0.195265
0.531983	0.205752
0.580925	0.212744
0.637513	0.219735
0.687983	0.219735
