Adsorption isotherm of Nitric oxide on Zeolite 5A
DOI: 10.1016/j.cej.2012.02.026
Adsorbate Nitric oxide: InChIKey MWUXSHHQAYIFBG-UHFFFAOYSA-N
Temperature: 323 K
Tabular data in the source: 0
pressure (bar)	uptake (mmol/g)
-0.000251849	-4.69e-05
0.0456305	0.0396086
0.105278	0.058617
0.166454	0.0697599
0.219983	0.0812304
0.275042	0.0877851
0.346925	0.0972893
0.432572	0.106793
0.519748	0.117281
0.626807	0.132356
