Adsorption isotherm of Nitrogen on Zeolite 13X
DOI: 10.1016/j.cej.2012.02.026
Adsorbate Nitrogen: InChIKey IJGRMHOSHXDMSA-UHFFFAOYSA-N
Temperature: 363 K
Tabular data in the source: 0
pressure (bar)	uptake (mmol/g)
-0.000251849	-0.00015
0.0593952	0.00522495
0.117513	0.00968209
0.172572	0.0134838
0.22916	0.0154502
0.279631	0.0205628
0.327042	0.0241023
0.383631	0.0259376
0.434101	0.029346
0.478454	0.03223
0.530454	0.0348518
0.582454	0.0376048
0.631395	0.0398334
0.678807	0.0427174
