Adsorption isotherm of Carbon Dioxide on Zeolite 13X
DOI: 10.1016/j.cej.2012.02.026
Adsorbate Carbon Dioxide: InChIKey CURLTUGMZLYLDI-UHFFFAOYSA-N
Temperature: 348 K
Tabular data in the source: 0
pressure (bar)	uptake (mmol/g)
0.00127756	0.0121718
0.0379834	0.0711634
0.0792776	0.169483
0.129748	0.261247
0.180219	0.333348
0.230689	0.425113
0.285748	0.490659
0.340807	0.549651
0.398925	0.602088
0.449395	0.654525
0.501395	0.73318
0.551866	0.765953
