Adsorption isotherm of Sulfur dioxide on Zeolite 5A
DOI: 10.1016/j.cej.2012.02.026
Adsorbate Sulfur dioxide: InChIKey RAHZWNYVWXNFOC-UHFFFAOYSA-N
Temperature: 348 K
Tabular data in the source: 0
pressure (bar)	uptake (mmol/g)
-0.000251849	0.0033703
0.0181011	0.141017
0.0456305	0.337656
0.0701011	0.585421
0.100689	0.813522
0.155748	1.06129
0.221513	1.27366
0.343866	1.4585
0.452454	1.50962
0.548807	1.56861
