Adsorption isotherm of Nitric oxide on Zeolite 5A
DOI: 10.1016/j.cej.2012.02.026
Adsorbate Nitric oxide: InChIKey MWUXSHHQAYIFBG-UHFFFAOYSA-N
Temperature: 348 K
Tabular data in the source: 0
pressure (bar)	uptake (mmol/g)
0.00433639	0.000936
0.0502187	0.0310876
0.114454	0.0458355
0.172572	0.058617
0.223042	0.0668103
0.278101	0.0733649
0.353042	0.0769699
0.452454	0.0818859
0.542689	0.0874573
0.635983	0.0940119
