Adsorption isotherm of Carbon Dioxide on Zeolite 13X
DOI: 10.1016/j.cej.2012.02.026
Adsorbate Carbon Dioxide: InChIKey CURLTUGMZLYLDI-UHFFFAOYSA-N
Temperature: 348 K
Tabular data in the source: 0
pressure (bar)	uptake (mmol/g)
0.00619484	0.00156053
0.0761108	0.0195857
0.152581	0.0387034
0.242161	0.0621908
0.342665	0.0873168
0.44317	0.110804
0.534934	0.132107
0.635439	0.155048
0.749052	0.180174
0.87359	0.208031
0.998128	0.233157
