Adsorption isotherm of Sulfur dioxide on Zeolite 13X
DOI: 10.1016/j.cej.2012.02.026
Adsorbate Sulfur dioxide: InChIKey RAHZWNYVWXNFOC-UHFFFAOYSA-N
Temperature: 348 K
Tabular data in the source: 0
pressure (bar)	uptake (mmol/g)
0.00127756	-0.000937
0.0181011	0.156373
0.0349246	0.385785
0.0563364	0.634861
0.0899834	0.962592
0.148101	1.20511
0.215395	1.4673
0.276572	1.85402
0.365278	2.16864
0.438689	2.58814
