Adsorption isotherm of Carbon Dioxide on Zeolite 5A
DOI: 10.1016/j.cej.2012.02.026
Adsorbate Carbon Dioxide: InChIKey CURLTUGMZLYLDI-UHFFFAOYSA-N
Temperature: 348 K
Tabular data in the source: 0
pressure (bar)	uptake (mmol/g)
0.00400996	0.00294945
0.0739259	0.0297142
0.191909	0.071773
0.309892	0.113832
0.436615	0.15742
0.556783	0.195655
0.69006	0.23542
0.821153	0.270597
0.910733	0.298891
1.00031	0.321832
