Adsorption isotherm of Nitrogen on Zeolite 13X
DOI: 10.1016/j.cej.2012.02.026
Adsorbate Nitrogen: InChIKey IJGRMHOSHXDMSA-UHFFFAOYSA-N
Temperature: 348 K
Tabular data in the source: 0
pressure (bar)	uptake (mmol/g)
0.0127495	0.000468
0.132918	0.00920759
0.292413	0.020132
0.469388	0.0299639
0.591741	0.0359723
0.725018	0.0419807
0.849556	0.0479891
0.939136	0.0518126
0.995943	0.0539975
