Adsorption isotherm of Nitrogen on Zeolite 13X
DOI: 10.1016/j.cej.2012.02.026
Adsorbate Nitrogen: InChIKey IJGRMHOSHXDMSA-UHFFFAOYSA-N
Temperature: 348 K
Tabular data in the source: 0
pressure (bar)	uptake (mmol/g)
0.00134075	0.000112
0.0212668	0.00194764
0.0408433	0.00352075
0.0604197	0.00535604
0.0796466	0.00706024
0.0995727	0.00863335
0.120547	0.0102065
0.139774	0.0117796
0.1597	0.0132216
