Adsorption isotherm of Sulfur dioxide on Zeolite 5A
DOI: 10.1016/j.cej.2012.02.026
Adsorbate Sulfur dioxide: InChIKey RAHZWNYVWXNFOC-UHFFFAOYSA-N
Temperature: 348 K
Tabular data in the source: 0
pressure (bar)	uptake (mmol/g)
0.00240598	0.00393202
0.019448	0.146167
0.0456665	0.338873
0.071885	0.591226
0.100725	0.820638
0.155784	1.05923
0.22133	1.27487
0.340624	1.4584
0.452053	1.51346
0.547751	1.56852
