Adsorption isotherm of Sulfur dioxide on Zeolite 13X
DOI: 10.1016/j.cej.2012.02.026
Adsorbate Sulfur dioxide: InChIKey RAHZWNYVWXNFOC-UHFFFAOYSA-N
Temperature: 348 K
Tabular data in the source: 0
pressure (bar)	uptake (mmol/g)
0.000991174	0.00299582
0.0202181	0.24071
0.0401441	0.429483
0.0600702	0.607769
0.0799962	0.76508
0.100272	0.908408
0.119848	1.04474
0.140823	1.18108
0.1597	1.29644
