Adsorption isotherm of Nitric oxide on Zeolite 5A
DOI: 10.1016/j.cej.2012.02.026
Adsorbate Nitric oxide: InChIKey MWUXSHHQAYIFBG-UHFFFAOYSA-N
Temperature: 363 K
Tabular data in the source: 0
pressure (bar)	uptake (mmol/g)
0.00433639	-4.69e-05
0.0563364	0.023222
0.117513	0.0323985
0.175631	0.0422304
0.224572	0.0523901
0.278101	0.0563229
0.353042	0.0687767
0.443278	0.0713985
0.539631	0.0799195
0.637513	0.0812304
