Adsorption isotherm of Carbon Dioxide on Zeolite 5A
DOI: 10.1016/j.cej.2012.02.026
Adsorbate Carbon Dioxide: InChIKey CURLTUGMZLYLDI-UHFFFAOYSA-N
Temperature: 348 K
Tabular data in the source: 0
pressure (bar)	uptake (mmol/g)
0.400996	0.00142004
11.3254	0.0419495
23.1237	0.0809495
34.0481	0.111538
43.443	0.136773
55.8968	0.167361
67.4766	0.193361
79.7119	0.217832
91.5102	0.240008
99.8128	0.253008
