Adsorption isotherm of Sulfur dioxide on Zeolite 13X
DOI: 10.1016/j.cej.2012.02.026
Adsorbate Sulfur dioxide: InChIKey RAHZWNYVWXNFOC-UHFFFAOYSA-N
Temperature: 348 K
Tabular data in the source: 0
pressure (bar)	uptake (mmol/g)
0.00109505	-0.00309868
0.0338682	0.381439
0.0561539	0.634885
0.0902379	0.949506
0.146608	1.21169
0.216087	1.48262
0.2777	1.84967
0.365532	2.17304
0.437633	2.60127
