Adsorption isotherm of Nitric oxide on Zeolite 13X
DOI: 10.1016/j.cej.2012.02.026
Adsorbate Nitric oxide: InChIKey MWUXSHHQAYIFBG-UHFFFAOYSA-N
Temperature: 323 K
Tabular data in the source: 0
pressure (bar)	uptake (mmol/g)
0.00127756	-0.000375
0.0456305	0.0396086
0.108336	0.0553397
0.161866	0.0668103
0.221513	0.0795918
0.273513	0.0858187
0.346925	0.0966338
0.434101	0.105155
0.528925	0.110071
0.623748	0.128751
