Adsorption isotherm of Nitrogen on Zeolite 13X
DOI: 10.1016/j.cej.2012.02.026
Adsorbate Nitrogen: InChIKey IJGRMHOSHXDMSA-UHFFFAOYSA-N
Temperature: 348 K
Tabular data in the source: 0
pressure (bar)	uptake (mmol/g)
0.0171192	0.000468
0.146027	0.00975381
0.309892	0.020132
0.491237	0.0283252
0.633254	0.0348799
0.797119	0.040342
0.921657	0.0441656
1.00031	0.0468967
