Adsorption isotherm of Nitrogen on Zeolite 5A
DOI: 10.1016/j.cej.2012.02.026
Adsorbate Nitrogen: InChIKey IJGRMHOSHXDMSA-UHFFFAOYSA-N
Temperature: 348 K
Tabular data in the source: 0
pressure (bar)	uptake (mmol/g)
0.00837971	0.000655
0.187539	0.01442
0.375439	0.0243612
0.578632	0.0350671
0.794934	0.0442436
0.917287	0.0495965
0.995943	0.0511259
