Adsorption isotherm of Nitric oxide on Zeolite 13X
DOI: 10.1016/j.cej.2012.02.026
Adsorbate Nitric oxide: InChIKey MWUXSHHQAYIFBG-UHFFFAOYSA-N
Temperature: 348 K
Tabular data in the source: 0
pressure (bar)	uptake (mmol/g)
0.00134075	-1.87e-05
0.0205676	0.0128283
0.0404937	0.020956
0.0604197	0.0276418
0.0792971	0.0331476
0.100272	0.0382602
0.119848	0.0424552
0.139774	0.0466502
0.159001	0.0503207
