Adsorption isotherm of Sulfur dioxide on Zeolite 5A
DOI: 10.1016/j.cej.2012.02.026
Adsorbate Sulfur dioxide: InChIKey RAHZWNYVWXNFOC-UHFFFAOYSA-N
Temperature: 348 K
Tabular data in the source: 0
pressure (bar)	uptake (mmol/g)
0.00837971	-0.000109
0.150397	0.00524357
0.290228	0.0083024
0.4388	0.0105965
0.561153	0.0128906
0.70317	0.0151847
0.838632	0.0174789
0.998128	0.019773
