Adsorption isotherm of Sulfur dioxide on Zeolite 5A
DOI: 10.1016/j.cej.2012.02.026
Adsorbate Sulfur dioxide: InChIKey RAHZWNYVWXNFOC-UHFFFAOYSA-N
Temperature: 348 K
Tabular data in the source: 0
pressure (bar)	uptake (mmol/g)
0.000292014	-0.0005
0.0198685	0.237214
0.0404937	0.436475
0.0604197	0.583298
0.0796466	0.705651
0.100272	0.810525
0.120198	0.89792
0.140124	0.974828
0.16005	1.03076
