Adsorption isotherm of Nitrogen on Zeolite 5A
DOI: 10.1016/j.cej.2012.02.026
Adsorbate Nitrogen: InChIKey IJGRMHOSHXDMSA-UHFFFAOYSA-N
Temperature: 323 K
Tabular data in the source: 0
pressure (bar)	uptake (mmol/g)
0.00280698	0.000131
0.0517482	0.00747224
0.112925	0.0140487
0.164925	0.0197075
0.218454	0.0247546
0.270454	0.0305664
0.317866	0.0363781
0.371395	0.0402017
0.421866	0.0454017
0.470807	0.0513664
0.525866	0.054884
0.574807	0.0580958
0.623748	0.0639075
0.67116	0.0684958
