Adsorption isotherm of Carbon Dioxide on Zeolite 5A
DOI: 10.1016/j.cej.2012.02.026
Adsorbate Carbon Dioxide: InChIKey CURLTUGMZLYLDI-UHFFFAOYSA-N
Temperature: 348 K
Tabular data in the source: 0
pressure (bar)	uptake (mmol/g)
0.00203991	0.00299582
0.0198685	0.0589286
0.0404937	0.125349
0.0607693	0.170794
0.0803458	0.230223
0.100272	0.275668
0.120198	0.314122
0.140474	0.363063
0.1597	0.401517
