Adsorption isotherm of Carbon Dioxide on Zeolite 13X
DOI: 10.1016/j.cej.2012.02.026
Adsorbate Carbon Dioxide: InChIKey CURLTUGMZLYLDI-UHFFFAOYSA-N
Temperature: 363 K
Tabular data in the source: 0
pressure (bar)	uptake (mmol/g)
0.00240598	-0.000437
0.0378009	0.0301508
0.0784396	0.0821508
0.123011	0.128033
0.166272	0.173915
0.217398	0.235092
0.271145	0.268739
0.320961	0.314621
0.381263	0.34521
0.431078	0.381915
0.486137	0.415563
0.537263	0.44921
0.587078	0.482857
