Adsorption isotherm of Sulfur dioxide on Zeolite 5A
DOI: 10.1016/j.cej.2012.02.026
Adsorbate Sulfur dioxide: InChIKey RAHZWNYVWXNFOC-UHFFFAOYSA-N
Temperature: 348 K
Tabular data in the source: 0
pressure (bar)	uptake (mmol/g)
0.00619484	-0.000109
0.119808	0.00447886
0.250901	0.00677298
0.35796	0.0105965
0.475943	0.01442
0.591741	0.0167142
0.696615	0.019773
0.810228	0.0243612
0.915102	0.0266553
0.998128	0.0289495
