Adsorption isotherm of Nitric oxide on Zeolite 5A
DOI: 10.1016/j.cej.2012.02.026
Adsorbate Nitric oxide: InChIKey MWUXSHHQAYIFBG-UHFFFAOYSA-N
Temperature: 348 K
Tabular data in the source: 0
pressure (bar)	uptake (mmol/g)
0.00280698	0.00730307
0.0502187	0.0269669
0.112925	0.0387653
0.169513	0.0466308
0.223042	0.0623619
0.275042	0.0662947
0.354572	0.0662947
0.450925	0.0820258
0.542689	0.0820258
0.635983	0.0820258
