Adsorption isotherm of Carbon Dioxide on Zeolite 5A
DOI: 10.1016/j.cej.2012.02.026
Adsorbate Carbon Dioxide: InChIKey CURLTUGMZLYLDI-UHFFFAOYSA-N
Temperature: 323 K
Tabular data in the source: 0
pressure (bar)	uptake (mmol/g)
0.00127756	0.00649162
0.0196305	0.139332
0.0486893	0.275668
0.0899834	0.45745
0.135866	0.618256
0.192454	0.740609
0.25363	0.814021
0.302572	0.936374
0.363748	1.01328
0.423395	1.0797
0.483042	1.12165
0.544219	1.15311
0.597748	1.17758
0.651278	1.19856
