Adsorption isotherm of Nitrogen on Zeolite 13X
DOI: 10.1016/j.cej.2012.02.026
Adsorbate Nitrogen: InChIKey IJGRMHOSHXDMSA-UHFFFAOYSA-N
Temperature: 348 K
Tabular data in the source: 0
pressure (bar)	uptake (mmol/g)
0.00280698	-1.87e-05
0.0532776	0.00614259
0.114454	0.0104686
0.169513	0.0146636
0.223042	0.0179409
0.276572	0.0218737
0.325513	0.025151
0.377513	0.0279039
0.429513	0.0306569
0.478454	0.0344586
0.531983	0.0364249
0.580925	0.0394401
0.631395	0.0416686
0.677278	0.0453392
