Adsorption isotherm of Nitric oxide on Zeolite 13X
DOI: 10.1016/j.cej.2012.02.026
Adsorbate Nitric oxide: InChIKey MWUXSHHQAYIFBG-UHFFFAOYSA-N
Temperature: 363 K
Tabular data in the source: 0
pressure (bar)	uptake (mmol/g)
0.00433639	0.000281
0.0593952	0.0189615
0.119042	0.023222
0.171042	0.0392809
0.224572	0.0491128
0.278101	0.055012
0.360689	0.063533
0.443278	0.0723817
0.54116	0.0812304
0.635983	0.0897514
