Adsorption isotherm of Nitrogen on Zeolite 5A
DOI: 10.1016/j.cej.2012.02.026
Adsorbate Nitrogen: InChIKey IJGRMHOSHXDMSA-UHFFFAOYSA-N
Temperature: 348 K
Tabular data in the source: 0
pressure (bar)	uptake (mmol/g)
0.00127756	0.000131
0.054807	0.00517813
0.112925	0.0100722
0.167983	0.0142017
0.223042	0.0177193
0.275042	0.0220017
0.327042	0.0252134
0.377513	0.0282722
0.429513	0.031484
0.475395	0.0362252
0.525866	0.039437
0.577866	0.0434134
0.629866	0.0466252
0.678807	0.0502958
