Adsorption isotherm of Nitric oxide on Zeolite 13X
DOI: 10.1016/j.cej.2012.02.026
Adsorbate Nitric oxide: InChIKey MWUXSHHQAYIFBG-UHFFFAOYSA-N
Temperature: 348 K
Tabular data in the source: 0
pressure (bar)	uptake (mmol/g)
0.00400996	-7.81e-05
0.143842	0.00101432
0.296783	0.00101432
0.436615	-0.000624
0.598296	0.000468
0.764346	0.000468
0.880144	0.000468
0.995943	0.00101432
