Adsorption isotherm of Sulfur dioxide on Zeolite 13X
DOI: 10.1016/j.cej.2012.02.026
Adsorbate Sulfur dioxide: InChIKey RAHZWNYVWXNFOC-UHFFFAOYSA-N
Temperature: 348 K
Tabular data in the source: 0
pressure (bar)	uptake (mmol/g)
0.0542621	0.000468
0.150397	0.00265297
0.261825	0.00374541
0.35796	0.00538406
0.484682	0.00593028
0.620144	0.00756894
0.766531	0.00866137
0.908548	0.00975381
1.00031	0.00975381
