Adsorption isotherm of Nitrogen on Zeolite 5A
DOI: 10.1016/j.cej.2012.02.026
Adsorbate Nitrogen: InChIKey IJGRMHOSHXDMSA-UHFFFAOYSA-N
Temperature: 363 K
Tabular data in the source: 0
pressure (bar)	uptake (mmol/g)
0.00280698	-0.000175
0.0578658	0.00410754
0.117513	0.0073193
0.175631	0.0116017
0.224572	0.0148134
0.278101	0.0187899
0.330101	0.0220017
0.380572	0.0241428
0.434101	0.0261311
0.481513	0.0301075
0.533513	0.031484
0.583983	0.0334722
0.634454	0.0357664
0.681866	0.0386722
