Adsorption isotherm of Nitrogen on Zeolite 13X
DOI: 10.1016/j.cej.2012.02.026
Adsorbate Nitrogen: InChIKey IJGRMHOSHXDMSA-UHFFFAOYSA-N
Temperature: 348 K
Tabular data in the source: 0
pressure (bar)	uptake (mmol/g)
0.00433639	0.00561717
0.0456305	0.0187264
0.112925	0.025281
0.167983	0.025281
0.216925	0.025281
0.273513	0.025281
0.322454	0.0318357
0.379042	0.0318357
0.427983	0.0318357
0.475395	0.0383903
0.527395	0.0383903
0.579395	0.0318357
0.629866	0.0383903
0.678807	0.0383903
