Adsorption isotherm of Carbon Dioxide on Zeolite 5A
DOI: 10.1016/j.cej.2012.02.026
Adsorbate Carbon Dioxide: InChIKey CURLTUGMZLYLDI-UHFFFAOYSA-N
Temperature: 348 K
Tabular data in the source: 0
pressure (bar)	uptake (mmol/g)
0.00433639	-0.00449525
0.0318658	0.0938241
0.0792776	0.17248
0.114454	0.290463
0.163395	0.420244
0.216925	0.522496
0.270454	0.61295
0.336219	0.671942
0.380572	0.742732
0.432572	0.821387
0.493748	0.860715
0.547278	0.911841
0.597748	0.959034
0.654336	0.986564
