Adsorption isotherm of Carbon Dioxide on Zeolite 13X
DOI: 10.1016/j.cej.2012.02.026
Adsorbate Carbon Dioxide: InChIKey CURLTUGMZLYLDI-UHFFFAOYSA-N
Temperature: 348 K
Tabular data in the source: 0
pressure (bar)	uptake (mmol/g)
0.00240598	0.00262134
0.0417337	0.0637978
0.0823724	0.170857
0.132187	0.256504
0.182003	0.339092
0.231818	0.424739
0.285566	0.492033
0.341935	0.55321
0.399616	0.60521
0.446809	0.663327
0.497935	0.727563
0.551683	0.770386
