Adsorption isotherm of Carbon Dioxide on Zeolite 13X
DOI: 10.1016/j.cej.2012.02.026
Adsorbate Carbon Dioxide: InChIKey CURLTUGMZLYLDI-UHFFFAOYSA-N
Temperature: 348 K
Tabular data in the source: 0
pressure (bar)	uptake (mmol/g)
0.00619484	0.00101432
0.0761108	0.0195857
0.18317	0.0441656
0.279304	0.0632832
0.384178	0.0834933
0.480312	0.100426
0.600481	0.12009
0.720649	0.136477
0.834262	0.152863
0.936951	0.16488
1.0025	0.171981
