Adsorption isotherm of Nitric oxide on Zeolite 5A
DOI: 10.1016/j.cej.2012.02.026
Adsorbate Nitric oxide: InChIKey MWUXSHHQAYIFBG-UHFFFAOYSA-N
Temperature: 348 K
Tabular data in the source: 0
pressure (bar)	uptake (mmol/g)
0.00619484	-0.000109
0.113254	0.000655
0.200649	0.000655
0.316447	0.000655
0.445354	0.000655
0.563338	0.00142004
0.731573	0.00142004
0.849556	0.00142004
0.993758	0.000655
