Adsorption isotherm of Carbon Dioxide on Zeolite 13X
DOI: 10.1016/j.cej.2012.02.026
Adsorbate Carbon Dioxide: InChIKey CURLTUGMZLYLDI-UHFFFAOYSA-N
Temperature: 348 K
Tabular data in the source: 0
pressure (bar)	uptake (mmol/g)
0.000991174	-0.00399577
0.0202181	0.034458
0.0401441	0.0833992
0.0604197	0.125349
0.0806954	0.163803
0.0995727	0.198761
0.120897	0.237214
0.140124	0.265181
0.1604	0.300139
