Adsorption isotherm of Sulfur dioxide on Zeolite 5A
DOI: 10.1016/j.cej.2012.02.026
Adsorbate Sulfur dioxide: InChIKey RAHZWNYVWXNFOC-UHFFFAOYSA-N
Temperature: 323 K
Tabular data in the source: 0
pressure (bar)	uptake (mmol/g)
0.00109505	0.00852025
0.0128934	0.16452
0.0561539	0.650873
0.104658	0.926167
0.158406	1.15558
0.237061	1.40334
0.343246	1.52723
0.437633	1.58687
0.535952	1.66487
