Adsorption isotherm of Nitrogen on Zeolite 5A
DOI: 10.1016/j.cej.2012.02.026
Adsorbate Nitrogen: InChIKey IJGRMHOSHXDMSA-UHFFFAOYSA-N
Temperature: 348 K
Tabular data in the source: 0
pressure (bar)	uptake (mmol/g)
0.0127495	0.000655
0.124178	0.00983181
0.270565	0.0190083
0.445354	0.0304789
0.60922	0.0396553
0.786195	0.0503612
0.932581	0.0572436
1.00031	0.0610671
