Adsorption isotherm of Nitrogen on Zeolite 13X
DOI: 10.1016/j.cej.2012.02.026
Adsorbate Nitrogen: InChIKey IJGRMHOSHXDMSA-UHFFFAOYSA-N
Temperature: 323 K
Tabular data in the source: 0
pressure (bar)	uptake (mmol/g)
0.00127756	0.000112
0.0517482	0.00692915
0.109866	0.0112552
0.166454	0.0153191
0.219983	0.0187275
0.271983	0.0223981
0.319395	0.0272485
0.375983	0.0302636
0.421866	0.033672
0.472336	0.0377359
0.525866	0.0397023
0.574807	0.0437661
0.623748	0.0473056
0.674219	0.0512384
