Adsorption isotherm of Sulfur dioxide on Zeolite 13X
DOI: 10.1016/j.cej.2012.02.026
Adsorbate Sulfur dioxide: InChIKey RAHZWNYVWXNFOC-UHFFFAOYSA-N
Temperature: 323 K
Tabular data in the source: 0
pressure (bar)	uptake (mmol/g)
0.00109505	-0.0205777
0.0351791	0.390179
0.0574648	0.652363
0.0849942	0.966985
0.13612	1.25539
0.193801	1.57001
0.256725	1.98077
0.332759	2.39152
0.425835	2.7848
