Adsorption isotherm of Sulfur dioxide on Zeolite 5A
DOI: 10.1016/j.cej.2012.02.026
Adsorbate Sulfur dioxide: InChIKey RAHZWNYVWXNFOC-UHFFFAOYSA-N
Temperature: 363 K
Tabular data in the source: 0
pressure (bar)	uptake (mmol/g)
0.00240598	-0.00524445
0.0220698	0.141579
0.0469774	0.338873
0.0823724	0.559108
0.130877	0.742638
0.185935	0.912403
0.261969	1.08217
0.351112	1.25652
0.47565	1.32993
0.57528	1.41252
