Adsorption isotherm of Nitric oxide on Zeolite 13X
DOI: 10.1016/j.cej.2012.02.026
Adsorbate Nitric oxide: InChIKey MWUXSHHQAYIFBG-UHFFFAOYSA-N
Temperature: 348 K
Tabular data in the source: 0
pressure (bar)	uptake (mmol/g)
0.00280698	0.0121718
0.0471599	0.0318357
0.114454	0.0449449
0.171042	0.0514995
0.219983	0.0646088
0.276572	0.0711634
0.354572	0.077718
0.440219	0.0908272
0.539631	0.103936
0.632925	0.103936
