Adsorption isotherm of Carbon Dioxide on Zeolite 5A
DOI: 10.1016/j.cej.2012.02.026
Adsorbate Carbon Dioxide: InChIKey CURLTUGMZLYLDI-UHFFFAOYSA-N
Temperature: 348 K
Tabular data in the source: 0
pressure (bar)	uptake (mmol/g)
0.00433639	0.00649162
0.0318658	0.0903908
0.080807	0.17429
0.115983	0.296643
0.161866	0.425987
0.216925	0.52387
0.271983	0.618256
0.33163	0.670693
0.382101	0.747601
0.431042	0.817517
0.492219	0.859466
0.548807	0.911903
0.599278	0.96434
0.655866	0.995803
