Adsorption isotherm of Sulfur dioxide on Zeolite 13X
DOI: 10.1016/j.cej.2012.02.026
Adsorbate Sulfur dioxide: InChIKey RAHZWNYVWXNFOC-UHFFFAOYSA-N
Temperature: 348 K
Tabular data in the source: 0
pressure (bar)	uptake (mmol/g)
0.0477074	0.00156053
0.17443	0.00483784
0.26401	0.00702272
0.362329	0.00920759
0.465018	0.0113925
0.585186	0.0146698
0.683506	0.0174009
0.805859	0.0206782
0.912918	0.0239555
0.998128	0.0261404
