Adsorption isotherm of Nitric oxide on Zeolite 5A
DOI: 10.1016/j.cej.2012.02.026
Adsorbate Nitric oxide: InChIKey MWUXSHHQAYIFBG-UHFFFAOYSA-N
Temperature: 348 K
Tabular data in the source: 0
pressure (bar)	uptake (mmol/g)
0.000991174	-1.87e-05
0.0205676	0.0176787
0.0404937	0.0272485
0.0607693	0.0343275
0.0799962	0.0399644
0.100272	0.0446838
0.119848	0.0488787
0.140124	0.0525493
0.159351	0.0558266
