Adsorption isotherm of Sulfur dioxide on Zeolite 13X
DOI: 10.1016/j.cej.2012.02.026
Adsorbate Sulfur dioxide: InChIKey RAHZWNYVWXNFOC-UHFFFAOYSA-N
Temperature: 363 K
Tabular data in the source: 0
pressure (bar)	uptake (mmol/g)
0.00109505	-0.0118382
0.0443556	0.346481
0.0745068	0.564969
0.105969	0.818414
0.161028	1.02816
0.246238	1.20295
0.347179	1.369
0.412725	1.65741
0.516288	1.84093
