Adsorption isotherm of Nitrogen on Zeolite 5A
DOI: 10.1016/j.cej.2012.02.026
Adsorbate Nitrogen: InChIKey IJGRMHOSHXDMSA-UHFFFAOYSA-N
Temperature: 348 K
Tabular data in the source: 0
pressure (bar)	uptake (mmol/g)
0.00127756	-0.00449525
0.0532776	-0.000562
0.112925	-0.000562
0.167983	0.00730307
0.221513	0.0112358
0.273513	0.0112358
0.325513	0.0151686
0.379042	0.0230342
0.423395	0.0230342
0.473866	0.0269669
0.528925	0.0308997
0.577866	0.0387653
0.628336	0.0387653
0.675748	0.042698
