Adsorption isotherm of Nitric oxide on Zeolite 13X
DOI: 10.1016/j.cej.2012.02.026
Adsorbate Nitric oxide: InChIKey MWUXSHHQAYIFBG-UHFFFAOYSA-N
Temperature: 348 K
Tabular data in the source: 0
pressure (bar)	uptake (mmol/g)
0.00127756	0.000281
0.0502187	0.0310876
0.111395	0.0409195
0.167983	0.050096
0.223042	0.0592725
0.278101	0.0681212
0.354572	0.0763145
0.441748	0.0848355
0.539631	0.0972893
0.635983	0.107121
