Adsorption isotherm of Nitrogen on PCN-80
DOI: 10.1002/anie.201106615
Adsorbate Nitrogen: InChIKey IJGRMHOSHXDMSA-UHFFFAOYSA-N
Temperature: 296 K
Tabular data in the source: 0
pressure (bar)	uptake (wt%)
0.00505213	0.14115
0.0642071	0.112981
0.143644	0.112981
0.226461	0.169319
0.305897	0.169319
0.385334	0.225657
0.513785	0.253826
0.676038	0.310164
0.836601	0.366502
0.946461	0.338333
1.02928	0.310164
1.08167	0.310164
