Adsorption isotherm of Nitrogen on PCN-80
DOI: 10.1002/anie.201106615
Adsorbate Nitrogen: InChIKey IJGRMHOSHXDMSA-UHFFFAOYSA-N
Temperature: 77 K
Tabular data in the source: 0
pressure (bar)	uptake (cm3(STP)/g)
0.00658518	80.9836
0.00658518	158.211
0.00658518	238.299
0.00801532	18.0573
0.00801532	374.163
0.00801532	520.037
0.0137359	677.353
0.0280373	817.507
0.0423388	850.401
0.0938239	896.165
0.25543	926.198
0.332658	933.349
0.417036	939.069
0.535738	941.93
0.615826	944.79
0.691624	947.65
0.774572	949.08
0.85323	950.511
0.937608	951.941
