Adsorption isotherm of Hydrogen on PCN-80
DOI: 10.1002/anie.201106615
Adsorbate Hydrogen: InChIKey UFHFLCQGNIYNRP-UHFFFAOYSA-N
Temperature: 87 K
Tabular data in the source: 0
pressure (bar)	uptake (cm3(STP)/g)
0.0112524	1.69471
0.063365	14.7933
0.129562	29.582
0.191534	42.2581
0.246464	51.9764
0.321112	64.6525
0.398576	77.3285
0.45914	86.2018
0.523928	95.075
0.60421	106.061
0.674633	115.357
0.747872	123.807
0.812661	130.99
0.890126	139.441
0.981675	149.582
1.06477	158.455
