Adsorption isotherm of Hydrogen on PCN-80
DOI: 10.1002/anie.201106615
Adsorbate Hydrogen: InChIKey UFHFLCQGNIYNRP-UHFFFAOYSA-N
Temperature: 77 K
Tabular data in the source: 0
pressure (bar)	uptake (wt%)
0.702701	1.25083
1.40693	2.01702
1.97031	2.63674
3.80129	3.3804
6.05481	3.95505
10.2802	4.58604
15.0689	5.09308
20.421	5.49871
27.0407	5.88181
34.2238	6.19731
42.1112	6.49026
50.9844	6.79449
60.2802	7.04238
67.745	7.24519
75.0689	7.43674
83.3788	7.62829
90.421	7.80857
