Adsorption isotherm of Hydrogen on PCN-80
DOI: 10.1002/anie.201106615
Adsorbate Hydrogen: InChIKey UFHFLCQGNIYNRP-UHFFFAOYSA-N
Temperature: 77 K
Tabular data in the source: 0
pressure (bar)	uptake (wt%)
0.421011	0.0339248
0.421011	0.81139
0.984391	1.63392
1.68862	2.30998
2.95622	3.01984
5.20974	3.57195
8.59002	4.05646
12.3928	4.41702
18.0266	4.68745
24.083	4.84519
31.5478	4.92407
44.3647	4.95787
57.0407	4.86773
67.3224	4.78885
77.4633	4.70998
90.421	4.59731
