Adsorption isotherm of Hydrogen on PCN-80
DOI: 10.1002/anie.201106615
Adsorbate Hydrogen: InChIKey UFHFLCQGNIYNRP-UHFFFAOYSA-N
Temperature: 77 K
Tabular data in the source: 0
pressure (bar)	uptake (cm3(STP)/g)
0.00561856	4.22993
0.0436467	24.5116
0.0830833	45.6384
0.138013	69.3003
0.191534	88.737
0.246464	106.061
0.318295	127.188
0.384492	144.089
0.470407	164.793
0.57745	187.188
0.678858	206.202
0.77745	222.258
0.883083	238.314
0.987309	252.681
1.06759	262.821
