Adsorption isotherm of Carbon Dioxide on PCN-80
DOI: 10.1002/anie.201106615
Adsorbate Carbon Dioxide: InChIKey CURLTUGMZLYLDI-UHFFFAOYSA-N
Temperature: 296 K
Tabular data in the source: 0
pressure (bar)	uptake (wt%)
0.0253338	0.394671
0.087869	1.23974
0.158855	2.16932
0.226461	3.01439
0.292376	3.77495
0.356601	4.59185
0.451249	5.66228
0.559418	6.90171
0.625334	7.57777
0.70139	8.39467
0.799418	9.38059
0.902517	10.3383
0.998855	11.1271
1.06308	11.7186
1.10871	12.1411
