Adsorption isotherm of Nitrogen on PCN-80
DOI: 10.1002/anie.201106615
Adsorbate Nitrogen: InChIKey IJGRMHOSHXDMSA-UHFFFAOYSA-N
Temperature: 273 K
Tabular data in the source: 0
pressure (bar)	uptake (wt%)
0.0371648	0.0566429
0.119982	0.112981
0.307587	0.253826
0.385334	0.42284
0.46477	0.451009
0.544207	0.535516
0.625334	0.591854
0.706461	0.676361
0.785897	0.70453
0.867024	0.732699
0.946461	0.817206
1.0259	0.873544
1.08167	0.873544
