Adsorption isotherm of Carbon Dioxide on PCN-80
DOI: 10.1002/anie.201106615
Adsorbate Carbon Dioxide: InChIKey CURLTUGMZLYLDI-UHFFFAOYSA-N
Temperature: 273 K
Tabular data in the source: 0
pressure (bar)	uptake (wt%)
0.00505213	0.112981
0.0388549	1.12707
0.108151	2.84538
0.167306	4.28199
0.229841	5.77495
0.295756	7.12707
0.361672	8.53552
0.444489	10.1411
0.510404	11.3524
0.594911	12.789
0.681108	14.1693
0.745334	15.1271
0.829841	16.3383
0.914348	17.5496
0.998855	18.62
1.06646	19.3806
