Adsorption isotherm of Hydrogen on MIL-47(V)
DOI: 10.1021/Jp811190g
Adsorbate Hydrogen: InChIKey UFHFLCQGNIYNRP-UHFFFAOYSA-N
Temperature: 77 K
Tabular data in the source: 0
pressure (bar)	uptake (molecules/unitcell)
0.012987	0.310078
0.0311688	0.744186
0.0519481	1.17829
0.0649351	1.48837
0.0857143	1.86047
0.106494	2.23256
0.127273	2.60465
0.148052	2.91473
0.168831	3.28682
0.192208	3.5969
0.212987	3.90698
0.223377	4.03101
0.246753	4.34109
0.25974	4.52713
0.280519	4.77519
0.303896	5.02326
0.327273	5.27132
0.350649	5.51938
0.374026	5.76744
0.4	6.0155
0.418182	6.20155
0.441558	6.3876
