Adsorption isotherm of Hydrogen on MIL-47(V)
DOI: 10.1021/Jp811190g
Adsorbate Hydrogen: InChIKey UFHFLCQGNIYNRP-UHFFFAOYSA-N
Temperature: 77 K
Tabular data in the source: 0
pressure (bar)	uptake (molecules/unitcell)
0.0103896	2.60465
0.0519481	8.8062
0.103896	11.4729
0.205195	13.2093
0.303896	14.1395
0.405195	14.5116
0.503896	14.9457
0.750649	15.5039
0.849351	15.5039
0.997403	15.5659
