Adsorption isotherm of Hydrogen on MIL-53(Cr)
DOI: 10.1021/Jp811190g
Adsorbate Hydrogen: InChIKey UFHFLCQGNIYNRP-UHFFFAOYSA-N
Temperature: 77 K
Tabular data in the source: 0
pressure (bar)	uptake (molecules/unitcell)
0.00775194	0.322081
0.0258398	0.70801
0.0465116	1.15829
0.0645995	1.4797
0.0852713	1.86547
0.105943	2.25123
0.126615	2.50796
0.149871	2.89356
0.170543	3.2148
0.193798	3.53588
0.217054	3.85696
0.237726	4.17821
0.260982	4.43478
0.284238	4.75586
0.307494	5.01242
0.330749	5.3335
0.354005	5.59006
0.377261	5.84663
0.400517	6.10319
0.426357	6.35959
0.449612	6.61615
0.472868	6.87272
0.496124	7.12928
0.51938	7.38585
0.54522	7.64224
0.568475	7.89881
