Adsorption isotherm of Hydrogen on MIL-47
DOI: 10.1021/Jp811190g
Adsorbate Hydrogen: InChIKey UFHFLCQGNIYNRP-UHFFFAOYSA-N
Temperature: 77 K
Tabular data in the source: 0
pressure (bar)	uptake (molecules/unitcell)
0.0519481	0.992248
0.202597	3.5969
0.254545	4.52713
0.405195	5.95349
0.506494	7.00775
0.6	7.50388
0.750649	8.68217
1	9.9845
