Adsorption isotherm of Hydrogen on MIL-53(Cr)
DOI: 10.1021/Jp811190g
Adsorbate Hydrogen: InChIKey UFHFLCQGNIYNRP-UHFFFAOYSA-N
Temperature: 77 K
Tabular data in the source: 0
pressure (bar)	uptake (molecules/unitcell)
0.0490956	1.93232
0.20155	4.95474
0.250646	5.98383
0.397933	7.52271
0.501292	8.35476
0.599483	8.671
0.749354	9.69359
1	10.7097
