Adsorption isotherm of Hydrogen on MIL-53(Cr)
DOI: 10.1021/Jp811190g
Adsorbate Hydrogen: InChIKey UFHFLCQGNIYNRP-UHFFFAOYSA-N
Temperature: 77 K
Tabular data in the source: 0
pressure (bar)	uptake (molecules/unitcell)
0.00775194	4.32208
0.0490956	9.80328
0.0981912	12.1227
0.20155	13.6644
0.299742	14.1742
0.397933	14.555
0.501292	14.8709
0.749354	15.1129
0.850129	15.3
1	15.3548
