Adsorption isotherm of Zinc, Water on Pseudoalteromonas sp. SCSE709-6
DOI: 10.1016/j.molliq.2017.09.117
Article source: Figure 1
Adsorbate Zinc: InChIKey HCHKCACWOHOZIP-UHFFFAOYSA-N
Adsorbate Water: InChIKey XLYOFNOQVPJJNP-UHFFFAOYSA-N
Kind: experiment
Temperature: 298 K
Tabular data in the source: 0
pressure (bar)	Zinc fraction	Zinc uptake (mmol/g)	Water fraction	Water uptake (mmol/g)	total uptake (mmol/g)
1.01325	0.003	0.05208			
1.01325	0.0609	0.10238			
1.01325	0.1029	0.22624			
1.01325	0.3619	0.32732			
1.01325	0.9729	0.54325			
1.01325	6.4136	0.83131			
1.01325	8.3288	0.87651			
