Adsorption isotherm of Zinc, Lead(II) Ion, Water on Pseudoalteromonas sp. SCSE709-6
DOI: 10.1016/j.molliq.2017.09.117
Article source: Figure 4
Adsorbate Zinc: InChIKey HCHKCACWOHOZIP-UHFFFAOYSA-N
Adsorbate Lead(II) Ion: InChIKey RVPVRDXYQKGNMQ-UHFFFAOYSA-N
Adsorbate Water: InChIKey XLYOFNOQVPJJNP-UHFFFAOYSA-N
Kind: experiment
Temperature: 298 K
Tabular data in the source: 0
pressure (bar)	Zinc fraction	Zinc uptake (mmol/g)	Lead(II) Ion fraction	Lead(II) Ion uptake (mmol/g)	Water fraction	Water uptake (mmol/g)	total uptake (mmol/g)
1.01325	0.0903	0.05014	0.0908	0.05258			
1.01325	0.1974	0.08006	0.1704	0.10205			
1.01325	0.5227	0.11259	0.5179	0.231			
1.01325	1.0086	0.17201	0.9822	0.32958			
1.01325	1.9969	0.26222	1.9716	0.48702			
1.01325	4.9697	0.47563	5.0195	0.85665			
1.01325	7.9657	0.55963	8.0062	1.08652			
1.01325	10.0067	0.57361	9.9927	1.09365			
