Adsorption isotherm of Lead(II) Ion, Cadmium(II) Ion, Water on Pseudoalteromonas sp. SCSE709-6
DOI: 10.1016/j.molliq.2017.09.117
Article source: Figure 4
Adsorbate Lead(II) Ion: InChIKey RVPVRDXYQKGNMQ-UHFFFAOYSA-N
Adsorbate Cadmium(II) Ion: InChIKey WLZRMCYVCSSEQC-UHFFFAOYSA-N
Adsorbate Water: InChIKey XLYOFNOQVPJJNP-UHFFFAOYSA-N
Kind: experiment
Temperature: 298 K
Tabular data in the source: 0
pressure (bar)	Lead(II) Ion fraction	Lead(II) Ion uptake (mmol/g)	Cadmium(II) Ion fraction	Cadmium(II) Ion uptake (mmol/g)	Water fraction	Water uptake (mmol/g)	total uptake (mmol/g)
1.01325	0.0559	0.05072	0.211	0.08908			
1.01325	0.2188	0.09718	0.5001	0.12524			
1.01325	0.5276	0.23427	0.9872	0.17967			
1.01325	1.0114	0.31932	2.0318	0.30761			
1.01325	2.0131	0.45834	5.0161	0.63802			
1.01325	5.0207	0.79356	8.0359	0.7399			
1.01325	8.0168	1.02123	10.0339	0.76504			
