Adsorption isotherm of Zn(II), Cadmium(II) Ion, Water on Pseudoalteromonas sp. SCSE709-6
DOI: 10.1016/j.molliq.2017.09.117
Article source: Figure 4
Adsorbate Zn(II): InChIKey PTFCDOFLOPIGGS-UHFFFAOYSA-N
Adsorbate Cadmium(II) Ion: InChIKey WLZRMCYVCSSEQC-UHFFFAOYSA-N
Adsorbate Water: InChIKey XLYOFNOQVPJJNP-UHFFFAOYSA-N
Kind: experiment
Temperature: 298 K
Tabular data in the source: 0
pressure (bar)	Zn(II) fraction	Zn(II) uptake (mmol/g)	Cadmium(II) Ion fraction	Cadmium(II) Ion uptake (mmol/g)	Water fraction	Water uptake (mmol/g)	total uptake (mmol/g)
1.01325	0.074	0.0503	0.4975	0.17417			
1.01325	0.1656	0.07921	1.0055	0.2644			
1.01325	0.4958	0.13601	1.9927	0.37882			
1.01325	0.9566	0.20623	5.0274	0.66877			
1.01325	1.9665	0.28747	8.0027	0.79823			
1.01325	4.9928	0.55702	10.0309	0.80593			
