Adsorption isotherm of Lead(II) Ion, Water on Pseudoalteromonas sp. SCSE709-6
DOI: 10.1016/j.molliq.2017.09.117
Article source: Figure 1
Adsorbate Lead(II) Ion: InChIKey RVPVRDXYQKGNMQ-UHFFFAOYSA-N
Adsorbate Water: InChIKey XLYOFNOQVPJJNP-UHFFFAOYSA-N
Kind: experiment
Temperature: 298 K
Tabular data in the source: 0
pressure (bar)	Lead(II) Ion fraction	Lead(II) Ion uptake (mmol/g)	Water fraction	Water uptake (mmol/g)	total uptake (mmol/g)
1.01325	0.0101	0.04917			
1.01325	0.0251	0.095			
1.01325	0.0826	0.21067			
1.01325	0.2001	0.40685			
1.01325	0.8502	0.5593			
1.01325	3.1635	0.86014			
1.01325	5.7386	1.01896			
1.01325	7.5915	1.04516			
