Adsorption isotherm of Cadmium(II) Ion, Water on Pseudoalteromonas sp. SCSE709-6
DOI: 10.1016/j.molliq.2017.09.117
Article source: Figure 1
Adsorbate Cadmium(II) Ion: InChIKey WLZRMCYVCSSEQC-UHFFFAOYSA-N
Adsorbate Water: InChIKey XLYOFNOQVPJJNP-UHFFFAOYSA-N
Kind: experiment
Temperature: 298 K
Tabular data in the source: 0
pressure (bar)	Cadmium(II) Ion fraction	Cadmium(II) Ion uptake (mmol/g)	Water fraction	Water uptake (mmol/g)	total uptake (mmol/g)
1.01325	0.0052	0.04545			
1.01325	0.0247	0.09812			
1.01325	0.0673	0.21832			
1.01325	0.2741	0.36273			
1.01325	0.795	0.5772			
1.01325	2.4846	1.15179			
1.01325	4.9789	1.28176			
1.01325	6.7901	1.28486			
