Adsorption isotherm of Zinc, Lead(II) Ion, Cadmium(II) Ion, Water on Pseudoalteromonas sp. SCSE709-6
DOI: 10.1016/j.molliq.2017.09.117
Article source: Figure 4
Adsorbate Zinc: InChIKey HCHKCACWOHOZIP-UHFFFAOYSA-N
Adsorbate Lead(II) Ion: InChIKey RVPVRDXYQKGNMQ-UHFFFAOYSA-N
Adsorbate Cadmium(II) Ion: InChIKey WLZRMCYVCSSEQC-UHFFFAOYSA-N
Adsorbate Water: InChIKey XLYOFNOQVPJJNP-UHFFFAOYSA-N
Kind: experiment
Temperature: 298 K
Tabular data in the source: 0
pressure (bar)	Zinc fraction	Zinc uptake (mmol/g)	Lead(II) Ion fraction	Lead(II) Ion uptake (mmol/g)	Cadmium(II) Ion fraction	Cadmium(II) Ion uptake (mmol/g)	Water fraction	Water uptake (mmol/g)	total uptake (mmol/g)
1.01325	0.0903	0.05014	0.1118	0.04581	0.1172	0.05528			
1.01325	0.2386	0.07963	0.2115	0.0998	1.0055	0.14585			
1.01325	0.9962	0.15423	1.0097	0.31556	1.9849	0.23441			
1.01325	1.9927	0.23317	1.9992	0.3959	4.9965	0.5145			
1.01325	4.9983	0.39455	5.0036	0.68361	7.9974	0.63439			
1.01325	7.979	0.49393	8.0331	0.94946	10.0111	0.66565			
