Adsorption isotherm of Sulfur Hexafluoride on Porous Graphitic Carbon
DOI: 10.1021/la00049a033
Article source: Figure 6
Adsorbate Sulfur Hexafluoride: InChIKey SFZCNBIFKDRMGX-UHFFFAOYSA-N
Kind: experiment
Isotherm type: excess
Temperature: 304 K
Tabular data in the source: 0
pressure (bar)	uptake (micromoles/m2)
1.23609	2.91946
1.54512	3.33486
2.07046	3.85236
6.08776	5.5838
10.136	6.89556
14.2769	8.4158
22.157	13.453
23.7021	15.6348
25.0927	19.3909
25.5253	21.5867
25.958	25.5645
26.2979	39.187
26.3597	47.8865
26.4524	61.4073
