Adsorption isotherm of Sulfur Hexafluoride on Graphitized Carbon Black
DOI: 10.1021/la00049a033
Article source: Figure 6
Adsorbate Sulfur Hexafluoride: InChIKey SFZCNBIFKDRMGX-UHFFFAOYSA-N
Kind: experiment
Isotherm type: excess
Temperature: 304 K
Tabular data in the source: 0
pressure (bar)	uptake (micromoles/m2)
2.78121	4.47235
5.12979	5.38621
7.29295	6.09275
9.88875	6.89867
12.2064	7.7081
12.7627	7.91074
15.3894	9.03074
17.3053	10.0549
18.0161	10.4652
19.7775	11.7009
20.3028	12.1136
22.5896	14.3909
24.5056	17.7211
25.6799	22.4233
26.1125	29.0216
26.4833	32.5809
26.6996	34.3602
