Adsorption isotherm of Sulfur Hexafluoride on Porous Graphitic Carbon
DOI: 10.1021/la00049a033
Article source: Figure 4
Adsorbate Sulfur Hexafluoride: InChIKey SFZCNBIFKDRMGX-UHFFFAOYSA-N
Kind: experiment
Temperature: 273 K
Tabular data in the source: 0
pressure (bar)	uptake (micromoles/m2)
11.0137	16.0751
11.0822	16.2457
11.2466	17.2696
11.4521	19.8294
11.5548	23.413
11.5616	19.4881
11.7397	21.8771
11.7671	36.5529
11.8973	46.4505
11.9795	57.7133
12.0342	36.2116
12.1164	52.2526
12.1233	69.1468
12.2123	75.2901
12.274	92.6962
12.3219	101.57
