Adsorption isotherm of Sulfur Hexafluoride on Porous Graphitic Carbon
DOI: 10.1021/la00049a033
Article source: Figure 3
Adsorbate Sulfur Hexafluoride: InChIKey SFZCNBIFKDRMGX-UHFFFAOYSA-N
Kind: experiment
Isotherm type: excess
Temperature: 273 K
Tabular data in the source: 0
pressure (bar)	uptake (micromoles/m2)
1.24823	4.40678
1.51864	4.57627
1.61998	4.74576
2.05936	5.08475
2.12688	5.25424
2.39741	5.25424
2.53256	5.42373
2.97218	5.42373
3.07351	5.59322
3.54671	5.9322
4.01991	6.27119
4.4593	6.61017
5.00025	6.77966
5.1691	7.11864
5.50715	7.28814
5.98046	7.45763
6.18313	7.79661
6.45343	8.13559
6.99427	8.47458
7.06179	8.64407
7.50106	9.15254
7.97414	9.66102
8.10941	9.66102
8.44711	10.339
9.02165	10.8475
9.08917	11.0169
9.52832	11.6949
9.73099	12.0339
9.96736	12.5424
10.0686	12.8814
10.1361	13.0508
10.2373	13.3898
11.0134	15.9322
11.0809	16.1017
11.2155	17.1186
11.4509	18.9831
11.5172	21.0169
11.5497	22.8814
11.6496	25.2542
11.6812	28.4746
11.7099	36.1017
11.7199	21.3559
11.809	39.4915
11.8384	46.1017
11.8518	26.2712
11.8849	27.2881
11.9323	57.2881
11.9332	55.9322
11.9348	53.5593
11.9774	40.5085
12.0091	43.7288
12.0143	35.9322
12.0282	65.4237
12.0712	51.8644
12.0887	75.9322
12.0902	73.7288
12.0936	68.8136
12.0979	62.3729
12.1	59.322
12.1561	76.2712
12.1861	82.0339
12.1884	78.6441
12.1909	74.9153
12.213	92.2034
12.2491	88.8136
12.2743	101.525
