Adsorption isotherm of Sulfur Hexafluoride on Porous Graphitic Carbon
DOI: 10.1021/la00049a033
Article source: Figure 4
Adsorbate Sulfur Hexafluoride: InChIKey SFZCNBIFKDRMGX-UHFFFAOYSA-N
Kind: experiment
Temperature: 293 K
Tabular data in the source: 0
pressure (bar)	uptake (micromoles/m2)
19.519	18.5356
19.626	19.2349
19.7397	20.4485
19.9808	25.4448
19.9939	21.8525
20.1959	37.9681
20.2282	26.1633
20.3038	47.9096
20.4116	56.1395
20.4164	36.458
20.5112	49.4783
20.5125	63.3416
20.613	64.8957
20.6404	72.0877
20.7013	80.14
20.7488	87.6771
