Adsorption isotherm of Sulfur Hexafluoride on Porous Graphitic Carbon
DOI: 10.1021/la00049a033
Article source: Figure 4
Adsorbate Sulfur Hexafluoride: InChIKey SFZCNBIFKDRMGX-UHFFFAOYSA-N
Kind: experiment
Temperature: 314 K
Tabular data in the source: 0
pressure (bar)	uptake (micromoles/m2)
32.8108	22.1655
32.8919	22.8467
33.1351	25.4015
33.1959	26.764
33.3378	33.236
33.3851	34.2579
33.4054	40.219
33.5338	46.5207
33.5473	49.2457
33.5946	54.0146
