Adsorption isotherm of Sulfur Hexafluoride on Porous Graphitic Carbon
DOI: 10.1021/la00049a033
Article source: Figure 4
Adsorbate Sulfur Hexafluoride: InChIKey SFZCNBIFKDRMGX-UHFFFAOYSA-N
Kind: experiment
Temperature: 304 K
Tabular data in the source: 0
pressure (bar)	uptake (micromoles/m2)
25.5855	21.0853
25.6579	21.5469
25.9605	24.4065
26.0066	30.5065
26.2237	41.0885
26.3092	47.8429
26.3158	37.1085
26.3882	45.2343
26.3947	58.0036
26.4803	57.775
26.5066	67.9761
26.6053	84.7701
