Adsorption isotherm of 2-Methylbutane on Porous Graphitic Carbon
DOI: 10.1021/la00049a033
Article source: Figure 5
Adsorbate 2-Methylbutane: InChIKey QWTDNUCVQCZILF-UHFFFAOYSA-N
Kind: experiment
Temperature: 273 K
Tabular data in the source: 0
pressure (bar)	uptake (micromoles/m2)
0.001929	0.989119
0.004823	2.72048
0.006752	2.71888
0.01254	3.20946
0.027974	3.4444
0.046302	3.67694
0.067524	3.9071
0.100322	4.37538
0.135048	4.84207
0.164952	5.56041
0.200643	6.52166
0.229582	7.48848
0.232476	7.73377
0.265273	8.94508
0.272026	10.1779
0.276849	10.1739
0.277814	10.9161
0.291318	13.3818
0.292283	10.9042
0.294212	15.8562
0.306752	26.7437
0.308682	30.2096
0.316399	44.0731
0.317363	19.7999
0.318328	22.5236
0.320257	48.5282
0.322186	51.7464
0.323151	29.2069
0.324116	28.2154
0.327974	57.4382
0.329904	42.8236
0.330868	61.151
0.335691	60.8993
0.336656	65.8521
0.338585	70.5564
0.341479	73.7738
0.344373	80.211
0.346302	82.9339
0.348232	106.214
0.351125	131.227
0.354019	153.02
