Adsorption isotherm of Methane on Mg2(dobdc)
DOI: 10.1016/j.micromeso.2011.09.004
Article source: Figure 1
Adsorbate Methane: InChIKey VNWKTOKETHGBQD-UHFFFAOYSA-N
Kind: experiment
Temperature: 313 K
Tabular data in the source: 0
pressure (bar)	uptake (mmol/g)
0.25641	0.30134
0.598291	0.753479
0.940171	1.11498
4.87179	3.32365
10.3419	5.48235
16.3248	6.91443
22.4786	7.8475
28.8889	8.50789
35.2991	8.98701
