Adsorption isotherm of Hydrogen on Mg2(dobdc)
DOI: 10.1016/j.micromeso.2011.09.004
Adsorbate Hydrogen: InChIKey UFHFLCQGNIYNRP-UHFFFAOYSA-N
Temperature: 313 K
Tabular data in the source: 0
pressure (bar)	uptake (mmol/kg)
9.58263	0.662461
19.2526	1.08833
28.7454	1.56151
38.2368	1.79811
