Adsorption isotherm of Hydrogen on Mg2(dobdc)
DOI: 10.1016/j.micromeso.2011.09.004
Article source: Figure 1
Adsorbate Hydrogen: InChIKey UFHFLCQGNIYNRP-UHFFFAOYSA-N
Kind: experiment
Temperature: 313 K
Tabular data in the source: 0
pressure (bar)	uptake (mmol/g)
9.48232	0.593492
18.9081	1.08069
28.4201	1.47657
37.847	1.78139
