Adsorption isotherm of Methane on Mg2(dobdc)
DOI: 10.1016/j.micromeso.2011.09.004
Adsorbate Methane: InChIKey VNWKTOKETHGBQD-UHFFFAOYSA-N
Temperature: 313 K
Tabular data in the source: 0
pressure (bar)	uptake (mmol/kg)
0.17576	0.142822
0.877681	0.903982
1.31666	1.33224
4.92546	3.28701
10.4749	5.57866
16.3828	6.96926
22.6462	7.98096
28.9118	8.61292
35.2665	9.10269
