Adsorption isotherm of Carbon Dioxide on Mg2(dobdc)
DOI: 10.1016/j.micromeso.2011.09.004
Article source: Figure 1
Adsorbate Carbon Dioxide: InChIKey CURLTUGMZLYLDI-UHFFFAOYSA-N
Kind: experiment
Temperature: 313 K
Tabular data in the source: 0
pressure (bar)	uptake (mmol/g)
0.049762	1.29172
0.116979	4.5287
0.119584	4.07277
0.123753	3.34328
0.126097	2.93294
0.130005	2.24904
0.13235	1.8387
0.133653	1.61074
0.19592	5.71399
0.198265	5.30365
0.200349	4.93891
0.278248	6.30657
0.279551	6.0786
0.444989	7.12698
0.446552	6.85342
0.699789	7.53693
0.783941	7.81036
0.954068	8.03806
2.23328	9.17594
4.45197	10.9051
7.18678	12.3143
10.0107	13.1307
12.9219	13.6734
16.0047	14.1702
19.0881	14.5759
22.2593	14.6166
25.344	14.7943
28.6869	14.7892
31.8566	15.1036
35.2857	15.0072
