Adsorption isotherm of Carbon Dioxide on Mg2(dobdc)
DOI: 10.1016/j.micromeso.2011.09.004
Adsorbate Carbon Dioxide: InChIKey CURLTUGMZLYLDI-UHFFFAOYSA-N
Temperature: 313 K
Tabular data in the source: 0
pressure (bar)	uptake (mmol/kg)
0.316109	6.30094
0.328842	4.13793
0.333548	3.33856
0.344897	1.41066
0.664604	7.10031
0.836499	7.89969
2.32958	9.26332
4.52712	10.9561
7.2564	12.3197
10.077	13.1661
12.8996	13.6834
16.0753	14.2006
19.1634	14.6238
22.2536	14.6708
25.4316	14.8119
28.6987	14.8119
31.8755	15.1411
35.3204	14.953
