Adsorption isotherm of Hydrogen on Zn4O(BDC)3
DOI: 10.1021/Ja076877g
Adsorbate Hydrogen: InChIKey UFHFLCQGNIYNRP-UHFFFAOYSA-N
Temperature: 77 K
Tabular data in the source: 0
pressure (bar)	uptake (wt%)
4.26129	3.71928
8.98062	5.13507
14.0932	6.13138
20.3857	6.60331
26.2848	6.91793
31.3974	7.04902
38.4764	7.07524
51.8478	6.99659
73.0848	6.70818
96.6815	6.23625
122.244	5.76432
170.224	5.26617
