Adsorption isotherm of Hydrogen on Zn4O(BDC)3
DOI: 10.1021/Ja076877g
Adsorbate Hydrogen: InChIKey UFHFLCQGNIYNRP-UHFFFAOYSA-N
Temperature: 77 K
Tabular data in the source: 0
pressure (bar)	uptake (wt%)
1.50835	1.09743
3.47473	2.04129
5.04784	2.80163
7.01423	3.35222
10.947	4.11255
15.6663	4.55827
21.9588	4.82045
28.6445	5.0302
38.4764	5.08264
46.342	4.97776
53.8142	4.82045
