Adsorption isotherm of Hydrogen on Zn4O(BDC)3
DOI: 10.1021/Ja076877g
Adsorbate Hydrogen: InChIKey UFHFLCQGNIYNRP-UHFFFAOYSA-N
Temperature: 77 K
Tabular data in the source: 0
pressure (bar)	uptake (wt%)
1.11507	0.599275
2.2949	1.14986
3.08146	2.09373
3.86801	2.67054
5.8344	3.14247
7.80079	3.53575
10.1604	4.00768
15.6663	4.55827
18.4193	4.82045
23.1386	4.92533
31.7907	5.16129
45.9487	5.23995
56.9604	5.26617
78.5907	4.95154
