Adsorption isotherm of Hydrogen on Zn4O(BDC)3
DOI: 10.1021/Ja076877g
Adsorbate Hydrogen: InChIKey UFHFLCQGNIYNRP-UHFFFAOYSA-N
Temperature: 77 K
Tabular data in the source: 0
pressure (bar)	uptake (wt%)
5.04784	3.92902
9.37389	5.50213
14.4865	6.68196
19.5991	7.41608
26.2848	7.99289
31.7907	8.28129
38.8697	8.64835
45.1621	8.77944
52.6344	9.04163
73.0848	9.53978
95.8949	9.88062
122.638	10.3526
139.549	10.8507
170.224	11.5586
