Adsorption isotherm of Hydrogen on Zn4O(BDC)3
DOI: 10.1021/Ja076877g
Adsorbate Hydrogen: InChIKey UFHFLCQGNIYNRP-UHFFFAOYSA-N
Temperature: 298 K
Tabular data in the source: 0
pressure (bar)	uptake (wt%)
7.40751	0.0486872
17.6327	0.0749056
27.4647	0.153561
38.4764	0.310872
49.4882	0.284654
67.1857	0.415746
84.4899	0.52062
101.401	0.599275
120.671	0.625494
138.762	0.730368
152.92	0.756586
166.292	0.782805
172.584	0.782805
