Adsorption isotherm of Hydrogen on Zn4O(BDC)3
DOI: 10.1021/Ja076877g
Adsorbate Hydrogen: InChIKey UFHFLCQGNIYNRP-UHFFFAOYSA-N
Temperature: 298 K
Tabular data in the source: 0
pressure (bar)	uptake (wt%)
1.90163	0.153561
12.9134	0.258435
27.8579	0.52062
42.8025	0.730368
60.4999	1.01877
77.0176	1.25474
88.4226	1.38583
101.401	1.46449
113.986	1.59558
126.177	1.80533
145.448	2.01507
159.999	2.14617
172.977	2.30348
