Adsorption isotherm of Nitrogen on MIL-101-SO3NaH
DOI: 10.1002/chem.201404104
Adsorbate Nitrogen: InChIKey IJGRMHOSHXDMSA-UHFFFAOYSA-N
Temperature: 77 K
Tabular data in the source: 0
pressure (bar)	uptake (cm3(STP)/g)
-0.000103031	40.8509
0.00115588	141.704
0.00121061	120.002
0.00125569	102.129
0.00136194	60.0018
0.00146175	20.4275
0.00257577	178.727
0.00262407	159.578
0.00282047	81.7058
0.00555723	196.603
0.0070222	215.754
0.0100004	234.907
0.0145048	248.955
0.0220293	265.561
0.0235007	282.159
0.0280148	292.377
0.0355489	305.153
0.041573	316.65
0.0491135	326.873
0.0671987	356.259
0.0837866	379.259
0.104934	394.606
0.129114	407.404
0.147241	420.193
0.169901	435.542
0.186528	443.224
0.204655	456.014
0.225824	462.424
0.248514	466.284
0.262127	468.855
0.281792	471.434
0.301468	470.183
0.321128	475.316
0.340791	479.171
0.358949	479.195
0.378623	479.221
0.399805	480.525
0.419471	483.104
0.43612	481.85
0.457302	483.154
0.476972	484.457
0.495127	485.757
0.513287	485.781
0.535986	485.811
0.554142	487.111
0.570785	488.41
0.587431	488.431
0.611643	488.463
0.631309	491.042
0.650978	492.345
0.666114	491.088
0.691836	492.398
0.711502	494.977
0.726635	494.997
0.744797	493.745
0.770516	496.332
0.784136	496.35
0.806838	495.103
0.828014	498.96
0.846174	498.984
0.868862	502.844
0.883995	502.864
0.902152	504.164
