Adsorption isotherm of Nitrogen on MIL-101-SO3NaH
DOI: 10.1002/chem.201404104
Adsorbate Nitrogen: InChIKey IJGRMHOSHXDMSA-UHFFFAOYSA-N
Temperature: 77 K
Tabular data in the source: 0
pressure (bar)	uptake (cm3(STP)/g)
0.0475713	338.36
0.0566187	351.138
0.0701866	371.582
0.0867842	390.752
0.109445	406.101
0.124555	415.057
0.150245	429.134
0.169875	445.755
0.18345	463.645
0.201599	467.499
0.224289	471.359
0.242441	473.936
0.262107	476.515
0.280267	476.538
0.299933	479.118
0.318088	480.418
0.337761	480.444
0.35592	480.468
0.377099	483.049
0.395259	483.073
0.414927	484.375
0.437627	484.405
0.457293	486.984
0.470912	487.002
0.492098	487.03
0.516304	489.615
0.532947	490.913
0.552619	490.939
0.572291	490.965
0.591964	490.991
0.610119	492.291
0.631305	492.319
0.650978	492.345
0.670651	492.371
0.688807	493.671
0.706962	494.972
0.726632	496.274
0.747818	496.302
0.765974	497.602
0.785643	498.905
0.802282	501.48
0.824978	502.786
0.844647	504.089
0.8628	506.666
0.879446	506.688
0.900628	507.992
0.918788	508.016
