Adsorption isotherm of Nitrogen on MIL-101-SO3NaH
DOI: 10.1002/chem.201404104
Adsorbate Nitrogen: InChIKey IJGRMHOSHXDMSA-UHFFFAOYSA-N
Temperature: 77 K
Tabular data in the source: 0
pressure (bar)	uptake (cm3(STP)/g)
-0.000209282	82.9784
-4.82957e-05	19.1489
0.0011108	159.576
0.00115588	141.704
0.00121705	117.448
0.00126213	99.5761
0.00257899	177.45
0.00287199	61.2804
0.00292672	39.5783
0.00541878	251.496
0.00546707	232.348
0.00551215	214.475
0.00556045	195.326
0.00841311	264.266
0.00988774	279.587
0.0159086	292.361
0.0234331	308.967
0.0294604	319.188
0.0324708	325.575
0.0626267	369.018
0.0837383	398.408
0.10032	423.962
0.125991	445.697
0.14715	455.938
0.169818	468.734
0.186441	477.692
0.201516	500.69
0.21962	522.416
0.242306	527.552
0.264992	532.689
0.299788	536.564
0.319453	539.143
0.34215	540.45
0.358785	544.301
0.379968	545.606
0.399638	546.908
0.423847	548.217
0.473771	553.389
0.497984	553.42
0.516139	554.721
0.569101	556.067
0.597843	559.935
0.609949	559.95
0.629629	557.423
0.653831	561.285
0.671994	560.032
0.687123	561.328
0.709815	563.911
0.729487	563.937
0.744614	566.51
0.765793	569.091
0.790005	569.123
0.806648	570.422
0.82329	571.72
0.841453	570.467
0.864143	574.327
0.880785	575.625
0.904991	578.21
