Adsorption isotherm of Nitrogen on MIL-101-SO3NaH
DOI: 10.1002/chem.201404104
Adsorbate Nitrogen: InChIKey IJGRMHOSHXDMSA-UHFFFAOYSA-N
Temperature: 77 K
Tabular data in the source: 0
pressure (bar)	uptake (cm3(STP)/g)
0.0460129	356.231
0.0656274	379.235
0.0746748	392.013
0.091266	413.737
0.107845	440.567
0.130498	458.469
0.150148	467.431
0.171305	478.949
0.1879	499.396
0.192416	508.338
0.202954	530.054
0.222614	535.186
0.239247	540.314
0.26195	539.068
0.280106	540.368
0.301282	544.226
0.320954	544.252
0.337596	545.55
0.358779	546.854
0.378445	549.433
0.395091	549.455
0.416274	550.76
0.434427	553.337
0.455609	554.641
0.475281	554.667
0.494951	555.97
0.51765	555.999
0.534292	557.298
0.552452	557.322
0.57212	558.624
0.590277	559.925
0.609949	559.95
0.631129	562.531
0.649284	563.832
0.671984	563.862
0.68863	563.884
0.706782	566.461
0.724941	566.485
0.744611	567.787
0.765793	569.091
0.786972	571.672
0.803615	572.971
0.824794	575.552
0.84144	575.574
0.862619	578.155
0.886826	580.74
0.901955	582.036
0.923147	579.511
