Adsorption isotherm of Nitrogen on TAPB COF BDT-OMe
DOI: 10.1021/jacs.9b02800
Article source: Figure S42
Adsorbate Nitrogen: InChIKey IJGRMHOSHXDMSA-UHFFFAOYSA-N
Kind: experiment
Temperature: 77 K
Tabular data in the source: 0
pressure (bar)	uptake (cm3(STP)/g)
0.001733	640.605
0.0321	822.194
0.072002	882.724
0.093695	907.945
0.112775	933.165
0.133597	953.342
0.154419	973.518
0.173499	993.695
0.194321	1018.92
0.214272	1041.61
0.234223	1064.31
0.255045	1084.49
0.275867	1104.67
0.29062	1132.41
0.305363	1150.06
0.320977	1180.33
0.331383	1220.68
0.343532	1291.3
0.353948	1407.31
0.366087	1462.8
0.378236	1467.84
0.39385	1477.93
0.405989	1482.98
0.432019	1490.54
0.45804	1503.15
0.482337	1503.15
0.507496	1508.2
0.532645	1510.72
0.558676	1518.29
0.582963	1523.33
0.608994	1528.37
0.633281	1533.42
0.661044	1535.94
0.683599	1538.46
0.711352	1540.98
0.73565	1548.55
0.76167	1553.59
0.785096	1553.59
0.811988	1561.16
0.836276	1566.2
0.864039	1568.73
0.886594	1578.81
0.912614	1578.81
0.939516	1588.9
0.964665	1593.95
0.992428	1604.04
0.004337	726.356
0.008673	761.665
0.049447	860.025
0.098893	928.121
0.124052	958.386
0.150083	988.651
0.175242	1018.92
0.20039	1046.66
0.226421	1076.92
0.25158	1109.71
0.274135	1134.93
0.288016	1155.11
0.30363	1175.28
0.314037	1200.5
0.324453	1218.16
0.333126	1263.56
0.343532	1382.09
0.35481	1467.84
0.360879	1488.02
0.372157	1488.02
0.38691	1493.06
0.403395	1503.15
0.428554	1513.24
0.452842	1518.29
0.479733	1523.33
0.504892	1528.37
0.530051	1533.42
0.55521	1538.46
0.579498	1543.51
0.603786	1548.55
0.629816	1553.59
0.654104	1553.59
0.680995	1558.64
0.707887	1561.16
0.731313	1566.2
0.756472	1566.2
0.782492	1571.25
0.808523	1576.29
0.831939	1581.34
0.858831	1578.81
0.884861	1581.34
0.910881	1588.9
0.934308	1591.42
0.961199	1593.95
0.991566	1604.04
