Adsorption isotherm of Nitrogen on BDT TAPB-COF with 1,4-dioxane vapor
DOI: 10.1021/jacs.9b02800
Article source: Figure 3(a)
Adsorbate Nitrogen: InChIKey IJGRMHOSHXDMSA-UHFFFAOYSA-N
Kind: experiment
Temperature: 77 K
Tabular data in the source: 0
pressure (bar)	uptake (cm3(STP)/g)
0.010224	6.34921
0.028979	3.1746
0.051129	4.7619
0.072437	4.7619
0.095448	6.34921
0.11164	7.93651
0.136353	6.34921
0.155098	6.34921
0.175546	6.34921
0.194301	6.34921
0.211344	9.52381
0.235206	7.93651
0.255653	12.6984
0.272696	14.2857
0.288037	14.2857
0.305079	14.2857
0.328941	12.6984
0.354506	15.873
0.383485	15.873
0.405645	17.4603
0.43206	19.0476
0.456773	19.0476
0.48404	19.0476
0.507902	17.4603
0.533466	12.6984
0.557328	15.873
0.582892	20.6349
0.610169	21.4286
0.632319	23.8095
0.661298	23.8095
0.686011	20.6349
0.709022	22.2222
0.736288	20.6349
0.761853	17.4603
0.785715	20.6349
0.812981	19.0476
0.835141	28.5714
0.859003	26.9841
0.88627	28.5714
0.913546	31.746
0.937408	33.3333
0.966377	36.5079
0.991941	41.2698
0.005117	0
0.047724	7.93651
0.09715	11.1111
0.124417	9.52381
0.149981	11.1111
0.173843	12.6984
0.20112	15.873
0.226684	15.873
0.250546	17.4603
0.272696	17.4603
0.284632	20.6349
0.299973	19.0476
0.327239	20.6349
0.352804	22.2222
0.377517	23.0159
0.40223	26.9841
0.427794	23.8095
0.453358	25.3968
0.478082	26.9841
0.506199	27.7778
0.528359	31.746
0.553924	30.1587
0.58119	27.7778
0.605903	30.9524
0.630616	31.746
0.656181	31.746
0.681745	34.127
0.705607	33.3333
0.732884	33.3333
0.756746	34.9206
0.784012	34.9206
0.80446	38.0952
0.833439	33.3333
0.860705	30.1587
0.88627	33.3333
0.908429	36.5079
0.935706	33.3333
0.962973	36.5079
0.993654	38.0952
