Adsorption isotherm of Nitrogen on TT TAPB COF activated with scCO2
DOI: 10.1021/jacs.9b02800
Article source: Figure S41 (a)
Adsorbate Nitrogen: InChIKey IJGRMHOSHXDMSA-UHFFFAOYSA-N
Kind: experiment
Temperature: 77 K
Tabular data in the source: 0
pressure (bar)	uptake (cm3(STP)/g)
0	91.6201
0.006161	227.933
0.010781	274.86
0.032333	341.899
0.053895	368.715
0.072376	386.592
0.092398	404.469
0.11087	422.346
0.132432	440.223
0.153224	458.101
0.174005	479.33
0.192487	496.089
0.215589	520.67
0.234831	538.547
0.255623	563.128
0.274874	585.475
0.284885	601.117
0.290266	614.525
0.294116	625.698
0.300277	648.045
0.303357	730.726
0.311058	808.939
0.314138	829.05
0.319528	864.804
0.326459	898.324
0.3357	902.793
0.343401	909.497
0.357252	916.201
0.380354	918.436
0.404996	927.374
0.431168	931.844
0.457351	936.313
0.481983	937.43
0.508165	940.782
0.534348	945.251
0.56052	947.486
0.583622	951.955
0.609024	956.425
0.634436	960.894
0.660619	965.363
0.684481	965.363
0.710663	967.598
0.736065	969.832
0.762248	972.067
0.78535	972.067
0.811522	976.536
0.837704	978.771
0.861566	981.006
0.885439	985.475
0.911621	989.944
0.936253	992.179
0.006161	236.872
0.008471	278.212
0.030803	350.838
0.046194	373.184
0.101629	429.05
0.127811	450.279
0.153224	474.86
0.175546	494.972
0.203268	527.374
0.22482	551.955
0.254853	583.24
0.273334	608.939
0.283345	623.464
0.287185	634.637
0.294116	674.86
0.299507	744.134
0.304127	812.291
0.309517	833.52
0.312598	855.866
0.317218	898.324
0.321069	913.966
0.329539	916.201
0.33493	917.318
0.354171	925.14
0.378814	931.844
0.403456	939.665
0.428088	943.017
0.45273	949.721
0.478902	949.721
0.502775	954.19
0.529727	954.19
0.555129	958.659
0.578231	962.011
0.605944	963.128
0.631356	965.363
0.655998	968.715
0.682171	969.832
0.706813	972.067
0.732985	974.302
0.758397	978.771
0.780729	978.771
0.808442	978.771
0.834624	981.006
0.860796	983.24
0.885439	985.475
0.909311	987.709
0.937023	993.296
0.963206	994.413
0.993228	1000
