Adsorption isotherm of Carbon Dioxide on BDT TAPB-COF treated with 1,4-dioxane vapor
DOI: 10.1021/jacs.9b02800
Article source: Figure 5
Adsorbate Carbon Dioxide: InChIKey CURLTUGMZLYLDI-UHFFFAOYSA-N
Kind: experiment
Temperature: 273 K
Tabular data in the source: 0
pressure (bar)	uptake (mmol/g)
0.01209	0.05674
0.01648	0.07295
0.02308	0.10537
0.03846	0.16211
0.04725	0.18034
0.05385	0.23506
0.06484	0.29179
0.07582	0.31611
0.08901	0.36069
0.10659	0.40932
0.12637	0.46809
0.14945	0.52482
0.17692	0.59169
0.20989	0.66464
0.24945	0.74975
0.2978	0.83891
0.35275	0.94022
0.42088	1.0618
0.5022	1.19554
0.5967	1.3536
0.71319	1.52381
0.85055	1.72239
1.01319	1.94326
