Adsorption isotherm of Nitrogen on TAPB COF BDT
DOI: 10.1021/jacs.9b02800
Article source: Figure S42
Adsorbate Nitrogen: InChIKey IJGRMHOSHXDMSA-UHFFFAOYSA-N
Kind: experiment
Temperature: 77 K
Tabular data in the source: 0
pressure (bar)	uptake (cm3(STP)/g)
0.000871	93.3165
0.004337	146.28
0.012149	196.721
0.029496	262.295
0.050318	287.516
0.069397	307.692
0.09022	322.825
0.111042	343.001
0.133597	358.134
0.152677	378.31
0.172638	398.487
0.190856	408.575
0.212539	423.707
0.234223	448.928
0.253312	466.583
0.279333	489.281
0.305363	524.59
0.328789	549.811
0.35481	638.083
0.381701	789.407
0.405989	822.194
0.430287	824.716
0.456307	834.805
0.480605	842.371
0.506625	842.371
0.531784	852.459
0.558676	852.459
0.582963	862.547
0.608994	870.113
0.633281	872.636
0.657569	877.68
0.684461	882.724
0.708758	885.246
0.734779	887.768
0.759937	892.812
0.785096	897.856
0.811117	902.9
0.835414	905.422
0.860573	907.945
0.885722	915.511
0.910881	920.555
0.936912	928.121
0.959467	940.731
0.993299	968.474
0.005208	151.324
0.008673	191.677
0.052051	295.082
0.072002	317.781
0.091091	335.435
0.100636	343.001
0.127528	365.7
0.151815	385.876
0.176974	406.053
0.201262	428.752
0.227292	453.972
0.252441	479.193
0.278471	506.936
0.304492	534.678
0.329651	572.509
0.353948	711.223
0.379969	817.15
0.405128	832.282
0.430287	837.327
0.454574	842.371
0.480605	847.415
0.506625	852.459
0.530913	857.503
0.556943	862.547
0.581231	867.591
0.607261	872.636
0.633281	872.636
0.657569	877.68
0.682728	882.724
0.708758	887.768
0.733917	890.29
0.759066	892.812
0.785096	897.856
0.810255	902.9
0.835414	905.422
0.860573	907.945
0.885722	915.511
0.911753	918.033
0.937773	928.121
0.963803	940.731
0.990695	968.474
