Adsorption isotherm of Nitrogen on TAPB COF BDT-OEt
DOI: 10.1021/jacs.9b02800
Article source: Figure S42
Adsorbate Nitrogen: InChIKey IJGRMHOSHXDMSA-UHFFFAOYSA-N
Kind: experiment
Temperature: 77 K
Tabular data in the source: 0
pressure (bar)	uptake (cm3(STP)/g)
0.001733	1107.19
0.029496	1215.64
0.053783	1238.34
0.072002	1258.51
0.093695	1281.21
0.111913	1301.39
0.131864	1321.56
0.152677	1341.74
0.171766	1361.92
0.190856	1377.05
0.213411	1397.23
0.233362	1417.4
0.252441	1437.58
0.273263	1460.28
0.288016	1472.89
0.305363	1508.2
0.314037	1523.33
0.324453	1568.73
0.338324	1604.04
0.352206	1609.08
0.362622	1614.12
0.374761	1619.17
0.383434	1624.21
0.395583	1629.26
0.409464	1634.3
0.432019	1639.34
0.45804	1641.87
0.483199	1644.39
0.508358	1641.87
0.534388	1649.43
0.560408	1651.95
0.584696	1654.48
0.610726	1654.48
0.635885	1657
0.661044	1659.52
0.686203	1667.09
0.710491	1669.61
0.737383	1674.65
0.763403	1677.18
0.787701	1677.18
0.813721	1679.7
0.838008	1679.7
0.863167	1682.22
0.887465	1684.74
0.914357	1687.26
0.938644	1689.79
0.962932	1699.87
0.992428	1715.01
0.003465	1155.11
0.010406	1175.28
0.045981	1230.77
0.098893	1291.3
0.124924	1316.52
0.152677	1346.78
0.175242	1372.01
0.202995	1392.18
0.225549	1417.4
0.253312	1442.62
0.274135	1467.84
0.288016	1485.5
0.304492	1518.29
0.314037	1538.46
0.324453	1583.86
0.333126	1604.04
0.342661	1614.12
0.353077	1619.17
0.363483	1621.69
0.374761	1629.26
0.387781	1634.3
0.404256	1639.34
0.428554	1644.39
0.453703	1651.95
0.478862	1651.95
0.504021	1654.48
0.530051	1659.52
0.553468	1659.52
0.580359	1662.04
0.605518	1664.56
0.630677	1667.09
0.655836	1669.61
0.680995	1672.13
0.707015	1674.65
0.732174	1674.65
0.758205	1677.18
0.782492	1679.7
0.808523	1684.74
0.834543	1684.74
0.858831	1684.74
0.883128	1689.79
0.909149	1689.79
0.935179	1694.83
0.962932	1699.87
0.99416	1715.01
