Adsorption isotherm of Nitrogen on BDT TAPB-COF treated with 1,4-dioxane vapor
DOI: 10.1021/jacs.9b02800
Article source: Figure 5
Adsorbate Nitrogen: InChIKey IJGRMHOSHXDMSA-UHFFFAOYSA-N
Kind: experiment
Temperature: 273 K
Tabular data in the source: 0
pressure (bar)	uptake (mmol/g)
0.01868	0.00811
0.04725	0.02026
0.07363	0.02837
0.08901	0.03647
0.10659	0.04458
0.12637	0.05268
0.14835	0.06079
0.17473	0.0689
0.20879	0.08105
0.24725	0.09726
0.29341	0.11348
0.35055	0.13374
0.41648	0.15805
0.4956	0.19048
0.59231	0.21884
0.7044	0.26342
0.84176	0.31206
1.0033	0.36474
