Adsorption isotherm of Nitrogen on TA TAPB COF activated with scCO2
DOI: 10.1021/jacs.9b02800
Article source: Figure S39
Adsorbate Nitrogen: InChIKey IJGRMHOSHXDMSA-UHFFFAOYSA-N
Kind: experiment
Temperature: 77 K
Tabular data in the source: 0
pressure (bar)	uptake (cm3(STP)/g)
0	46.8965
0.005239	110.345
0.010477	142.069
0.03057	182.759
0.050662	202.759
0.071627	216.552
0.092591	228.966
0.111802	240
0.131895	251.724
0.151987	264.828
0.172952	277.241
0.19042	291.034
0.213127	311.724
0.231477	342.069
0.253312	443.448
0.274277	464.828
0.290002	466.207
0.305718	468.966
0.330178	473.103
0.355509	475.862
0.379969	477.931
0.407043	480
0.431503	482.759
0.457705	485.517
0.480422	485.517
0.508368	488.276
0.532828	489.655
0.55903	491.724
0.581747	492.414
0.608821	493.793
0.633281	495.862
0.659484	496.552
0.683944	497.931
0.711018	499.31
0.735478	500.69
0.760809	502.069
0.78614	503.448
0.812343	504.828
0.836803	506.207
0.862134	506.207
0.884851	508.966
0.911925	510.345
0.936385	511.724
0.962587	513.103
0.990543	515.862
0.005239	131.034
0.008734	150.345
0.048038	211.034
0.100454	246.207
0.126656	260.69
0.151987	277.931
0.17819	295.172
0.200026	313.793
0.227981	351.034
0.254184	466.207
0.272534	473.103
0.286507	475.862
0.301351	477.931
0.326682	481.379
0.352895	484.828
0.377344	486.897
0.403557	488.966
0.428007	491.034
0.45422	492.414
0.478669	495.862
0.504882	498.621
0.530213	499.31
0.554663	500.69
0.579994	501.379
0.604454	503.448
0.630657	504.138
0.655988	504.828
0.681319	505.517
0.705779	506.207
0.732863	507.586
0.757313	507.586
0.782644	508.276
0.807104	508.276
0.833307	509.655
0.857767	510.345
0.883969	511.724
0.909301	511.724
0.934632	511.724
0.962587	513.103
0.990543	516.552
