Adsorption isotherm of Nitrogen on BDT TAPB-COF with scCO2
DOI: 10.1021/jacs.9b02800
Article source: Figure 3(a)
Adsorbate Nitrogen: InChIKey IJGRMHOSHXDMSA-UHFFFAOYSA-N
Kind: experiment
Temperature: 77 K
Tabular data in the source: 0
pressure (bar)	uptake (cm3(STP)/g)
0.001763	68.4783
0.032657	193.207
0.069732	226.63
0.092672	239.674
0.112096	251.087
0.132391	262.5
0.152697	273.913
0.172111	285.326
0.191525	298.37
0.213593	309.783
0.233899	324.457
0.253312	339.13
0.272726	352.174
0.288614	365.217
0.304502	376.63
0.330988	399.457
0.355701	453.261
0.378641	536.413
0.405128	549.457
0.457199	559.239
0.482793	561.685
0.50927	563.315
0.533983	565.761
0.559577	567.391
0.584301	567.391
0.609895	569.022
0.634609	572.283
0.661085	575.543
0.684916	577.174
0.710511	578.804
0.736106	581.25
0.759937	582.065
0.786414	582.065
0.811127	585.326
0.837613	586.141
0.862326	588.587
0.88704	590.217
0.913516	593.478
0.936466	600
0.964705	606.522
0.991181	619.565
0.006181	112.5
0.008825	141.848
0.0459	211.957
0.101497	251.902
0.127984	266.576
0.151815	282.88
0.17741	298.37
0.203005	313.043
0.225955	327.717
0.252431	348.098
0.2745	363.587
0.287733	374.185
0.302739	384.783
0.327452	410.87
0.35481	483.424
0.380415	552.717
0.402473	563.315
0.428068	565.761
0.453673	569.022
0.479267	572.283
0.50398	577.989
0.528694	580.435
0.55517	580.435
0.579883	582.88
0.606359	583.696
0.630191	585.326
0.656667	586.141
0.68138	587.772
0.706985	589.402
0.733461	591.848
0.757293	592.663
0.782888	593.478
0.807601	592.663
0.833195	593.478
0.85879	595.109
0.883503	596.739
0.90998	600
0.935574	603.261
0.958524	608.152
0.991181	619.565
