Adsorption isotherm of Nitrogen on BDT TAPB-COF with scCO2 and 1,4-dioxane vapor
DOI: 10.1021/jacs.9b02800
Article source: Figure 3(a)
Adsorbate Nitrogen: InChIKey IJGRMHOSHXDMSA-UHFFFAOYSA-N
Kind: experiment
Temperature: 77 K
Tabular data in the source: 0
pressure (bar)	uptake (cm3(STP)/g)
0	70.6349
0.001723	122.222
0.008613	157.143
0.026709	201.587
0.051696	222.222
0.068931	241.27
0.098224	258.73
0.124072	276.19
0.155088	295.238
0.174046	306.349
0.192143	318.254
0.211952	334.127
0.227464	346.032
0.25159	366.667
0.27227	385.714
0.287773	393.651
0.327411	430.159
0.351537	485.714
0.379107	530.159
0.404094	539.683
0.430804	542.857
0.456652	546.032
0.479916	551.587
0.508348	550.794
0.532473	553.968
0.55746	555.556
0.584169	557.937
0.608295	557.143
0.634143	557.143
0.659129	561.111
0.684977	564.286
0.709103	568.254
0.734089	571.429
0.759937	573.016
0.785786	574.603
0.811634	576.984
0.837482	577.778
0.862468	579.365
0.885732	579.365
0.910719	586.508
0.937429	590.476
0.961554	596.825
0.993431	623.81
0.046528	222.222
0.089612	253.968
0.112005	265.079
0.132685	282.54
0.14992	293.651
0.232632	349.206
0.270548	380.952
0.303286	404.762
0.32655	431.746
0.353259	509.524
0.376524	540.476
0.40151	549.206
0.427358	553.968
0.453206	557.143
0.477332	561.905
0.501457	568.254
0.527305	571.429
0.554015	570.635
0.579001	574.603
0.604849	576.19
0.628975	580.952
0.654823	579.365
0.681532	579.365
0.704796	585.714
0.731506	582.54
0.755631	585.714
0.781479	584.127
0.808188	585.714
0.832314	586.508
0.858162	589.683
0.882287	594.444
0.909858	593.651
0.933983	600
0.961554	611.111
0.994292	623.81
