Adsorption isotherm of Nitrogen on Pyrene-2,7 TAPB COF activated with scCO2
DOI: 10.1021/jacs.9b02800
Article source: Figure S40 (a)
Adsorbate Nitrogen: InChIKey IJGRMHOSHXDMSA-UHFFFAOYSA-N
Kind: experiment
Temperature: 77 K
Tabular data in the source: 0
pressure (bar)	uptake (cm3(STP)/g)
0	68.8875
0.008981	141.656
0.03021	187.257
0.050622	212.484
0.070217	232.859
0.088996	248.383
0.110224	261.966
0.131453	275.55
0.151048	289.133
0.17146	301.746
0.191872	314.36
0.213101	326.003
0.232697	338.616
0.252292	351.229
0.271887	364.812
0.288217	376.455
0.304546	388.098
0.329857	413.325
0.353535	454.075
0.379663	610.285
0.404157	616.106
0.430285	620.957
0.456411	624.838
0.480906	628.719
0.507033	632.6
0.532344	634.541
0.557655	640.362
0.58215	642.303
0.608276	646.184
0.634404	648.124
0.658898	652.005
0.685026	655.886
0.70952	657.827
0.734831	660.737
0.760141	664.618
0.785452	668.499
0.810763	672.38
0.835257	677.232
0.863017	683.053
0.887513	690.815
0.912007	700.517
0.93895	715.071
0.961811	741.268
0.992838	841.203
0.004083	120.31
0.008977	148.448
0.04817	219.276
0.100423	264.877
0.125734	282.342
0.151045	298.836
0.176356	313.389
0.202488	329.884
0.228609	345.408
0.25311	362.872
0.272706	376.455
0.288219	388.098
0.30128	400.712
0.329043	428.849
0.355164	527.814
0.380475	621.928
0.404155	626.779
0.430287	630.66
0.455598	635.511
0.480088	639.392
0.505399	642.303
0.53071	645.213
0.556021	649.094
0.582153	652.005
0.608274	654.916
0.632775	657.827
0.658896	661.708
0.683397	663.648
0.708708	668.499
0.73565	671.41
0.76014	675.291
0.784641	679.172
0.806679	683.053
0.833621	686.934
0.859753	696.636
0.885064	704.398
0.911185	718.952
0.934054	737.387
0.962628	774.256
0.992833	840.233
