Adsorption isotherm of Nitrogen on TAPB COF BDT-OPr
DOI: 10.1021/jacs.9b02800
Article source: Figure S42
Adsorbate Nitrogen: InChIKey IJGRMHOSHXDMSA-UHFFFAOYSA-N
Kind: experiment
Temperature: 77 K
Tabular data in the source: 0
pressure (bar)	uptake (cm3(STP)/g)
0.001733	1591.42
0.031228	1679.7
0.069397	1730.14
0.09022	1745.27
0.111042	1762.93
0.133597	1785.62
0.152677	1795.71
0.171766	1810.84
0.192588	1823.46
0.215143	1836.07
0.234223	1853.72
0.255045	1866.33
0.274135	1881.46
0.289749	1906.68
0.302759	1939.47
0.329651	1997.48
0.353948	2007.57
0.38084	2010.09
0.407732	2012.61
0.432019	2017.65
0.45804	2022.7
0.483199	2025.22
0.51009	2027.74
0.534388	2030.26
0.560408	2032.79
0.584696	2032.79
0.608994	2032.79
0.635014	2037.83
0.660173	2042.88
0.686203	2042.88
0.70962	2042.88
0.73565	2047.92
0.76167	2047.92
0.785096	2052.96
0.810255	2058.01
0.836276	2063.05
0.860573	2063.05
0.886594	2068.1
0.912614	2073.14
0.935179	2083.23
0.962071	2090.79
0.991566	2118.54
0.006069	1624.21
0.010406	1644.39
0.052922	1712.48
0.101497	1765.45
0.126656	1785.62
0.785096	2052.96
0.810255	2058.01
0.836276	2063.05
0.860573	2063.05
0.886594	2068.1
0.912614	2073.14
0.935179	2083.23
0.962071	2090.79
0.991566	2118.54
0.150944	1805.8
0.176974	1820.93
0.202995	1841.11
0.227292	1856.24
0.253312	1871.37
0.275867	1891.55
0.288016	1911.73
0.305363	1967.21
0.329651	2007.57
0.353948	2012.61
0.379097	2022.7
0.404256	2022.7
0.430287	2027.74
0.454574	2032.79
0.479733	2032.79
0.504892	2032.79
0.530051	2035.31
0.55521	2040.35
0.581231	2042.88
0.60639	2045.4
0.63241	2045.4
0.655836	2047.92
0.681867	2050.44
0.707015	2050.44
0.733917	2052.96
0.759066	2058.01
