Adsorption isotherm of Nitrogen on BDT TAPB-COF
DOI: 10.1021/jacs.9b02800
Article source: Figure 5
Adsorbate Nitrogen: InChIKey IJGRMHOSHXDMSA-UHFFFAOYSA-N
Kind: experiment
Temperature: 273 K
Tabular data in the source: 0
pressure (bar)	uptake (mmol/g)
0.06044	0.04458
0.07582	0.05674
0.0956	0.06079
0.10659	0.06687
0.12418	0.08105
0.14835	0.08511
0.17473	0.09726
0.20879	0.12158
0.24835	0.14184
0.2956	0.17021
0.35055	0.19858
0.41648	0.23506
0.4956	0.28369
0.59231	0.33637
0.7044	0.40122
0.84176	0.47214
1.0033	0.56738
