Adsorption isotherm of Carbon Dioxide on BDT TAPB-COF
DOI: 10.1021/jacs.9b02800
Article source: Figure 5
Adsorbate Carbon Dioxide: InChIKey CURLTUGMZLYLDI-UHFFFAOYSA-N
Kind: experiment
Temperature: 273 K
Tabular data in the source: 0
pressure (bar)	uptake (mmol/g)
0.02967	0.05674
0.03846	0.08105
0.04286	0.09321
0.05385	0.10942
0.06264	0.12969
0.07582	0.14995
0.08901	0.17427
0.10659	0.20263
0.12637	0.23708
0.14835	0.27153
0.17692	0.31611
0.20989	0.36474
0.24945	0.42553
0.2978	0.49443
0.35275	0.57751
0.42088	0.66869
0.5022	0.77609
0.5967	0.90172
0.71099	1.04357
0.84835	1.21581
1.01209	1.41439
