Adsorption isotherm of Nitrogen on Activated carbon: AK WS IV-G 20575
DOI: 10.1002/bbpc.19920960105
Article source: Figure 2
Adsorbate Nitrogen: InChIKey IJGRMHOSHXDMSA-UHFFFAOYSA-N
Kind: experiment
Temperature: 298 K
Tabular data in the source: 0
pressure (bar)	uptake (mg/g)
0.975	11
2	16.9
3	23.8
5	35.2
6.99	45
9.01	52.9
11	59.8
13	65.9
15	71.5
18	79.2
20	83.4
25	93
