Adsorption isotherm of Methane on Activated carbon: AK WS IV-G 20575
DOI: 10.1002/bbpc.19920960105
Article source: Figure 2
Adsorbate Methane: InChIKey VNWKTOKETHGBQD-UHFFFAOYSA-N
Kind: experiment
Temperature: 298 K
Tabular data in the source: 0
pressure (bar)	uptake (mg/g)
0.985	18.4
1.62	28.7
2.49	35.9
3.61	42.4
4.7	47.3
6.6	55.7
8.37	63
10	68.9
12.3	73.7
14.3	77.9
16.4	81.7
19.2	86.3
21.6	89.6
25	92.8
