Adsorption isotherm of Nitrogen, Methane on Activated carbon: AK WS IV-G 20575
DOI: 10.1002/bbpc.19920960105
Article source: Figure 3
Adsorbate Nitrogen: InChIKey IJGRMHOSHXDMSA-UHFFFAOYSA-N
Adsorbate Methane: InChIKey VNWKTOKETHGBQD-UHFFFAOYSA-N
Kind: experiment
Temperature: 298 K
Tabular data in the source: 0
pressure (bar)	Nitrogen fraction	Nitrogen uptake (mg/g)	Methane fraction	Methane uptake (mg/g)	total uptake (mg/g)
0	0.5	0	0.5	0	0
1	0.5	0.4	0.5	23.1	23.5
3.9	0.5	21.6	0.5	23.8	45.4
6.8	0.5	30.5	0.5	25.3	55.8
10	0.5	44.3	0.5	24.4	68.7
13.2	0.5	51.2	0.5	28.3	79.5
16	0.5	56.5	0.5	29	85.5
19	0.5	63	0.5	27.3	90.3
