Adsorption isotherm of Methanol on {[Co2(L)Cl(DMF)2(H2O)]*Sx}n Desolvated
DOI: 10.1039/C3ra43290d
Adsorbate Methanol: InChIKey OKKJLVBELUTLKV-UHFFFAOYSA-N
Temperature: 298 K
Tabular data in the source: 0
pressure (bar)	uptake (cm3(STP)/g)
0.0286886	0.43695
0.0488047	1.04871
0.0689209	1.81342
0.115858	2.73107
0.187383	4.7193
0.256671	7.16636
0.350547	10.0722
0.486889	18.9428
0.58747	27.2017
0.694756	38.0605
0.813218	50.2958
0.898153	57.7899
0.947325	65.5899
