Adsorption isotherm of Nitrogen on {[Co2(L)Cl(DMF)2(H2O)]*Sx}n Desolvated
DOI: 10.1039/C3ra43290d
Adsorbate Nitrogen: InChIKey IJGRMHOSHXDMSA-UHFFFAOYSA-N
Temperature: 77 K
Tabular data in the source: 0
pressure (bar)	uptake (cm3(STP)/g)
0.0130427	0.589891
0.035394	0.589891
0.0733911	0.742832
0.104683	0.742832
0.13821	1.04871
0.171737	0.895773
0.205264	0.742832
0.263377	0.589891
0.310314	1.04871
0.357252	0.895773
0.433246	0.742832
0.49136	0.742832
0.538297	0.742832
0.58747	0.895773
0.632173	0.589891
0.685816	0.589891
0.784161	0.589891
0.837804	0.589891
0.866861	0.589891
0.898153	0.895773
0.933915	1.50754
0.962971	2.88401
0.987558	4.7193
1.00097	6.5546
1.01214	7.62519
