Adsorption isotherm of Nitrogen on CuBTC(66%H1,16%H3,18%H6)
DOI: 10.1021/jacs.6b10768
Article source: Figure 4d
Adsorbate Nitrogen: InChIKey IJGRMHOSHXDMSA-UHFFFAOYSA-N
Kind: experiment
Temperature: 77 K
Tabular data in the source: 0
pressure (bar)	uptake (cm3(STP)/g)
0.002938	1.42
0.008197	22.8
0.038361	27.32
0.075506	28.84
0.127576	31.38
0.205828	31.93
0.295032	33.24
0.367195	34.16
0.409811	34.44
0.459743	34.72
0.519422	36.51
0.557803	41.79
0.588231	36.81
0.596164	41.81
0.62723	43.08
0.672298	45.61
0.691144	37.37
0.708238	49.38
0.73138	50.4
0.759416	56.67
0.763611	39.42
0.78196	61.43
0.805731	67.45
0.814161	42.2
0.81793	72.95
0.837435	78.47
0.852684	85.73
0.854963	45.73
0.865491	89.48
0.889089	52.25
0.893517	96.25
0.915919	63.27
0.928261	103.52
0.938494	74.78
0.945222	82.54
0.948981	109.29
0.953784	90.29
0.962335	97.8
0.972113	106.55
0.979429	110.81
