Adsorption isotherm of Nitrogen on CuBTC(85%H6,15%H9)
DOI: 10.1021/jacs.6b10768
Article source: Figure 4d
Adsorbate Nitrogen: InChIKey IJGRMHOSHXDMSA-UHFFFAOYSA-N
Kind: experiment
Temperature: 77 K
Tabular data in the source: 0
pressure (bar)	uptake (cm3(STP)/g)
0	0
0.001753	111.04
0.018643	114.62
0.040843	119.38
0.086712	121.79
0.152359	125.19
0.269235	128.38
0.379211	128.44
0.488428	129.59
0.504133	134.47
0.534783	137.64
0.543983	130.4
0.576163	138.91
0.612953	138.62
0.634424	130.44
0.658164	138.32
0.677334	131.09
0.701844	140.23
0.744765	139.94
0.756275	132.7
0.781545	143.1
0.822925	150.05
0.831375	134
0.864295	157.94
0.873526	137.48
0.898806	142.84
0.905666	166.77
0.921026	148.2
0.934776	172.76
0.936346	153.88
0.950896	160.49
0.952396	177.49
0.963906	168.05
0.972326	174.67
0.976916	181.28
