Adsorption isotherm of Nitrogen on CuBTC(H1)
DOI: 10.1021/jacs.6b10768
Article source: Figure 4d
Adsorbate Nitrogen: InChIKey IJGRMHOSHXDMSA-UHFFFAOYSA-N
Kind: experiment
Temperature: 77 K
Tabular data in the source: 0
pressure (bar)	uptake (cm3(STP)/g)
0.004955	2.92
0.265497	2.8
0.449955	2.62
0.55678	2.07
0.647474	2.13
0.751999	0.95
0.843453	1.65
0.929537	2.03
0.98872	4.59
