Adsorption isotherm of Nitrogen on COK-18
DOI: 10.1021/jacs.6b10768
Article source: Figure 1b
Adsorbate Nitrogen: InChIKey IJGRMHOSHXDMSA-UHFFFAOYSA-N
Kind: experiment
Temperature: 77 K
Tabular data in the source: 0
pressure (bar)	uptake (cm3(STP)/g)
0.000324	0.737
0.002766	227.764
0.009312	230.109
0.017063	233.536
0.030316	236.463
0.046558	239.64
0.057562	241.898
0.0743	244.825
0.10029	248.171
0.114272	249.509
0.145743	251.602
0.162725	252.523
0.188197	253.612
0.213923	254.534
0.236893	255.456
0.27185	256.463
0.320049	257.805
0.379971	258.814
0.415678	259.57
0.448141	259.657
0.485094	260.998
0.492045	264.86
0.500789	269.106
0.515866	273.619
0.521793	260.584
0.543547	261.947
0.546779	273.887
0.584836	274.952
0.586356	262.747
0.602274	274.954
0.619651	262.485
0.633988	275.488
0.655317	263.02
0.667283	276.818
0.699787	278.414
0.70685	264.617
0.737054	280.275
0.740144	265.151
0.767978	282.401
0.779792	267.278
0.805244	284.528
0.826583	272.324
0.836958	285.858
0.855946	277.899
0.860739	285.595
0.877386	286.392
0.881338	282.678
0.906709	285.599
0.928919	287.459
0.957462	288.258
0.985994	289.057
