Adsorption isotherm of Nitrogen on CuBTC(H1)
DOI: 10.1021/jacs.6b10768
Article source: Figure 4d
Adsorbate Nitrogen: InChIKey IJGRMHOSHXDMSA-UHFFFAOYSA-N
Kind: experiment
Temperature: 77 K
Tabular data in the source: 0
pressure (bar)	uptake (cm3(STP)/g)
0.000871	7.614
0.006799	231.953
0.062283	246.855
0.089205	249.649
0.154082	252.842
0.195695	254.838
0.229557	255.503
0.310352	256.966
0.396436	257.897
0.444585	258.562
0.524154	258.295
0.758767	258.426
0.84241	258.293
0.924826	258.691
0.944827	258.957
0.959509	259.489
0.978689	260.154
