Adsorption isotherm of Nitrogen on CuBTC(H48)
DOI: 10.1021/jacs.6b10768
Article source: Figure 4d
Adsorbate Nitrogen: InChIKey IJGRMHOSHXDMSA-UHFFFAOYSA-N
Kind: experiment
Temperature: 77 K
Tabular data in the source: 0
pressure (bar)	uptake (cm3(STP)/g)
0.001033	2.05
0.005218	220.92
0.09882	241.14
0.215362	248.79
0.368674	253.97
0.449925	255.3
0.483645	255.49
0.492491	261.63
0.505926	265.89
0.521651	267.94
0.543436	256.8
0.577602	268.63
0.614017	270.39
0.628902	257.35
0.671133	272.33
0.709839	273.78
0.732383	260.28
0.744349	276.49
0.779225	278.09
0.783359	262.53
0.821395	280.49
0.822479	267.75
0.848985	281.14
0.86467	275.03
0.904946	283.08
0.960512	283.6
0.980067	284.72
