Adsorption isotherm of Nitrogen on CuBTC(24%H9, 76%H12)
DOI: 10.1021/jacs.6b10768
Article source: Figure 4d
Adsorbate Nitrogen: InChIKey IJGRMHOSHXDMSA-UHFFFAOYSA-N
Kind: experiment
Temperature: 77 K
Tabular data in the source: 0
pressure (bar)	uptake (cm3(STP)/g)
0.000973	0.47
0.006525	187.58
0.026486	194.52
0.057936	199.89
0.083247	203.69
0.146118	207.21
0.204368	208.83
0.31169	211.13
0.414401	213.12
0.45952	213.63
0.496726	219.41
0.504031	232.29
0.510212	214.15
0.511803	240.22
0.532584	244.01
0.561552	244.63
0.581199	215.72
0.591483	244.26
0.616449	215.76
0.639784	246.68
0.6686	217.79
0.679381	247.91
0.701611	251.3
0.738138	218.45
0.740742	257.28
0.766843	262.65
0.790775	220.48
0.802113	267.44
0.828457	224.47
0.838813	267.47
0.849249	230.24
0.86086	236.19
0.876353	243.73
0.88613	268.5
0.888937	250.88
0.898624	255.05
0.912181	262.78
0.932486	269.14
0.969195	270.76
0.998163	270.39
