Adsorption isotherm of Nitrogen on CuBTC(22%H6,78%H9)
DOI: 10.1021/jacs.6b10768
Article source: Figure 4d
Adsorbate Nitrogen: InChIKey IJGRMHOSHXDMSA-UHFFFAOYSA-N
Kind: experiment
Temperature: 77 K
Tabular data in the source: 0
pressure (bar)	uptake (cm3(STP)/g)
0.000709	0.64
0.001722	103.06
0.018654	109.61
0.04668	114.79
0.070359	118.77
0.103684	120.59
0.139431	123.59
0.188684	124.43
0.236478	124.28
0.321467	126.54
0.388584	127.79
0.458122	128.84
0.492896	130.66
0.501144	139.38
0.519534	148.31
0.538755	130.11
0.559617	149.74
0.606367	132.94
0.615639	151.18
0.648487	154.18
0.672633	155.39
0.679766	134.2
0.689544	158.77
0.722889	164.94
0.734815	136.63
0.748534	174.48
0.769822	183.21
0.781677	140.83
0.78579	190.16
0.810949	201.48
0.825175	149.39
0.827404	208.23
0.859037	162.69
0.867963	209.26
0.879869	176.18
0.912312	194.24
0.913366	212.07
0.933114	203.37
0.936549	213.08
0.953429	210.52
0.977108	213.12
