Adsorption isotherm of O-Xylene on Zn(BDC)(DABCO)0.5
DOI: 10.1021/Jp9006747
Adsorbate O-Xylene: InChIKey CTQNGGLPUBDAKN-UHFFFAOYSA-N
Temperature: 398 K
Tabular data in the source: 0
pressure (bar)	uptake (mmol/g)
0.003	2.52437
0.006	2.72218
0.016	2.9294
0.038	3.0236
0.082	3.03301
0.104	3.16488
