Adsorption isotherm of Ethylbenzene on Zn(BDC)(DABCO)0.5
DOI: 10.1021/Jp9006747
Adsorbate Ethylbenzene: InChIKey YNQLUTRBYVCPMQ-UHFFFAOYSA-N
Temperature: 423 K
Tabular data in the source: 0
pressure (bar)	uptake (mmol/g)
0.003	1.29044
0.006	1.91212
0.016	2.15702
0.037	2.49611
0.081	2.6845
0.103	2.75044
