Adsorption isotherm of M-Xylene on Zn(BDC)(DABCO)0.5
DOI: 10.1021/Jp9006747
Adsorbate M-Xylene: InChIKey IVSZLXZYQVIEFR-UHFFFAOYSA-N
Temperature: 423 K
Tabular data in the source: 0
pressure (bar)	uptake (mmol/g)
0.003	1.29044
0.006	1.8556
0.016	2.1947
0.038	2.47728
0.081	2.64682
0.102	2.69392
