Adsorption isotherm of Ethylbenzene on Zn(BDC)(DABCO)0.5
DOI: 10.1021/Jp9006747
Adsorbate Ethylbenzene: InChIKey YNQLUTRBYVCPMQ-UHFFFAOYSA-N
Temperature: 448 K
Tabular data in the source: 0
pressure (bar)	uptake (mmol/g)
0.003	0.527481
0.006	1.10206
0.016	1.38464
0.037	1.99689
0.081	2.38308
0.102	2.52437
