Adsorption isotherm of O-Xylene on Zn(BDC)(DABCO)0.5
DOI: 10.1021/Jp9006747
Adsorbate O-Xylene: InChIKey CTQNGGLPUBDAKN-UHFFFAOYSA-N
Temperature: 423 K
Tabular data in the source: 0
pressure (bar)	uptake (mmol/g)
0.003	1.54477
0.006	2.17586
0.016	2.3925
0.038	2.60915
0.082	2.74102
0.104	2.77869
