Adsorption isotherm of M-Xylene on Zn(BDC)(DABCO)0.5
DOI: 10.1021/Jp9006747
Adsorbate M-Xylene: InChIKey IVSZLXZYQVIEFR-UHFFFAOYSA-N
Temperature: 398 K
Tabular data in the source: 0
pressure (bar)	uptake (mmol/g)
0.003	2.27005
0.006	2.55263
0.016	2.91056
0.037	3.05185
0.081	3.18372
0.102	3.2214
