Adsorption isotherm of O-Xylene on Zn(BDC)(DABCO)0.5
DOI: 10.1021/Jp9006747
Adsorbate O-Xylene: InChIKey CTQNGGLPUBDAKN-UHFFFAOYSA-N
Temperature: 448 K
Tabular data in the source: 0
pressure (bar)	uptake (mmol/g)
0.003	0.762963
0.006	1.29986
0.016	1.5636
0.038	2.06283
0.082	2.26063
0.104	2.31715
