Adsorption isotherm of P-Xylene on Zn(BDC)(DABCO)0.5
DOI: 10.1021/Jp9006747
Adsorbate P-Xylene: InChIKey URLKBWYHVLBVBO-UHFFFAOYSA-N
Temperature: 448 K
Tabular data in the source: 0
pressure (bar)	uptake (mmol/g)
0.003	0.489804
0.006	0.94193
0.016	1.13974
0.037	1.75199
0.08	2.09108
0.102	2.17586
