Adsorption isotherm of P-Xylene on Zn(BDC)(DABCO)0.5
DOI: 10.1021/Jp9006747
Adsorbate P-Xylene: InChIKey URLKBWYHVLBVBO-UHFFFAOYSA-N
Temperature: 423 K
Tabular data in the source: 0
pressure (bar)	uptake (mmol/g)
0.003	1.13032
0.006	1.73315
0.016	2.10992
0.037	2.44902
0.08	2.66566
0.102	2.7316
