Adsorption isotherm of M-Xylene on Zn(BDC)(DABCO)0.5
DOI: 10.1021/Jp9006747
Adsorbate M-Xylene: InChIKey IVSZLXZYQVIEFR-UHFFFAOYSA-N
Temperature: 448 K
Tabular data in the source: 0
pressure (bar)	uptake (mmol/g)
0.003	0.565158
0.006	1.04554
0.016	1.46941
0.037	2.06283
0.081	2.3925
0.102	2.51495
