Adsorption isotherm of Ethylbenzene on Zn(BDC)(DABCO)0.5
DOI: 10.1021/Jp9006747
Adsorbate Ethylbenzene: InChIKey YNQLUTRBYVCPMQ-UHFFFAOYSA-N
Temperature: 398 K
Tabular data in the source: 0
pressure (bar)	uptake (mmol/g)
0.003	2.23237
0.006	2.60915
0.016	2.89173
0.037	3.08011
0.081	3.24024
0.102	3.27792
