Adsorption isotherm of P-Xylene on Zn(BDC)(DABCO)0.5
DOI: 10.1021/Jp9006747
Adsorbate P-Xylene: InChIKey URLKBWYHVLBVBO-UHFFFAOYSA-N
Temperature: 398 K
Tabular data in the source: 0
pressure (bar)	uptake (mmol/g)
0.003	2.10992
0.006	2.4396
0.016	2.84463
0.037	3.0236
0.08	3.19314
0.102	3.24024
