Adsorption isotherm of Nitrogen on GS-COF-1 (200 Â°C-treated)
DOI: 10.1021/jacs.0c05970
Article source: Figure S10a
Adsorbate Nitrogen: InChIKey IJGRMHOSHXDMSA-UHFFFAOYSA-N
Kind: experiment
Temperature: 77 K
Tabular data in the source: 0
pressure (bar)	uptake (cm3(STP)/g)
0.014159	23.0938
0.013347	44.0278
0.012806	57.9837
0.009229	83.5816
0.007876	118.471
0.007515	127.775
0.006433	155.687
0.010612	181.25
0.014971	202.16
0.032166	225.337
0.052397	236.872
0.090906	243.672
0.109003	243.589
0.134405	255.1
0.193596	261.805
0.227024	266.303
0.273288	273.067
0.316787	284.495
0.370537	298.202
0.39648	295.757
0.468868	295.425
0.520573	295.188
0.568882	315.896
0.622903	322.625
0.671572	334.03
0.723007	340.77
0.771586	354.501
0.807149	370.617
0.847521	396.013
0.89583	416.721
0.925501	451.469
0.941253	511.861
0.951564	579.256
0.969901	639.637
0.971825	723.349
0.973449	881.481
0.006313	225.455
0.000601	239.435
0.005141	255.693
0.00977	269.626
0.027236	285.824
0.039531	302.047
0.059762	313.582
0.090154	329.722
0.115646	338.907
0.146579	341.091
0.190529	340.889
0.244369	352.27
0.285553	356.732
0.328962	370.486
0.370327	370.296
0.429698	372.349
0.478548	379.102
0.535334	381.167
0.579283	380.965
0.612531	390.115
0.638294	392.322
0.697575	396.701
0.741345	401.151
0.782078	417.243
0.815055	433.371
0.837782	447.22
0.894628	514.401
0.93479	611.891
0.951504	714.14
0.952977	809.482
0.968819	867.549
