Adsorption isotherm of Nitrogen on GS-COF-2
DOI: 10.1021/jacs.0c05970
Article source: Figure S8a
Adsorbate Nitrogen: InChIKey IJGRMHOSHXDMSA-UHFFFAOYSA-N
Kind: experiment
Temperature: 77 K
Tabular data in the source: 0
pressure (bar)	uptake (cm3(STP)/g)
0.009426	9.30233
0.006362	23.2558
0.010898	37.2093
0.010015	60.4651
0.009043	86.0465
0.010781	106.977
0.012077	139.535
0.011281	160.465
0.012842	186.047
0.017113	206.977
0.021738	218.605
0.03134	232.558
0.043652	241.86
0.07134	246.512
0.104005	253.488
0.134049	262.791
0.174049	276.744
0.211693	286.047
0.246891	293.023
0.294756	300
0.35773	309.302
0.40315	313.953
0.46368	320.93
0.504121	323.256
0.53932	330.233
0.594695	339.535
0.652604	348.837
0.708067	355.814
0.748421	360.465
0.785887	374.419
0.856373	386.047
0.898906	400
0.933221	430.233
0.949804	460.465
0.973191	511.628
0.972219	537.209
0.973339	574.419
0.00539	48.8372
0.009396	76.7442
0.008336	104.651
0.007364	130.233
0.006215	160.465
0.00489	195.349
0.004094	216.279
0.003299	237.209
0.008748	260.465
0.021708	286.047
0.031222	302.326
0.050957	316.279
0.073313	327.907
0.101001	332.558
0.128424	344.186
0.166509	341.86
0.196464	353.488
0.252016	358.14
0.28748	358.14
0.340234	369.767
0.375609	372.093
0.418496	376.744
0.479114	381.395
0.527067	386.047
0.582619	390.698
0.628127	393.023
0.675814	404.651
0.733899	409.302
0.786653	420.93
0.829274	432.558
0.896343	467.442
0.929642	524.419
0.95054	574.419
0.965209	588.372
