Adsorption isotherm of Carbon Dioxide on GS-COF-2-COOH
DOI: 10.1021/jacs.0c05970
Article source: Figure S16b
Adsorbate Carbon Dioxide: InChIKey CURLTUGMZLYLDI-UHFFFAOYSA-N
Kind: experiment
Temperature: 194 K
Tabular data in the source: 0
pressure (bar)	uptake (cm3(STP)/g)
0.014228	6.21363
0.009419	10.578
0.009568	11.824
0.013206	19.9214
0.016545	25.5268
0.020108	33.0013
0.02093	39.8544
0.013605	45.4664
0.014277	51.0734
0.023023	57.2985
0.028879	61.6563
0.037699	68.5045
0.04941	77.22
0.063339	82.1958
0.080008	87.793
0.096827	94.6362
0.116312	101.478
0.138463	108.318
0.157574	112.044
0.184908	117.635
0.220315	123.844
0.258313	129.428
0.288164	133.771
0.307275	137.497
0.347865	142.457
0.388604	148.662
0.450672	154.854
0.486004	160.44
0.545256	165.388
0.59955	173.454
0.645323	177.164
0.696353	180.248
0.747756	186.447
0.778952	202.004
0.813761	203.228
0.848719	205.699
0.900123	211.898
0.946269	218.723
1.00233	219.312
1.04011	223.027
0.326885	189.821
0.380655	193.527
0.43465	199.101
0.485904	204.054
0.542266	207.134
0.603811	208.965
0.657283	210.179
0.700015	210.775
0.767191	215.095
0.820663	216.308
0.860804	217.53
0.906352	219.371
0.965081	219.958
