Adsorption isotherm of Carbon Dioxide on GS-COF-1-COOH
DOI: 10.1021/jacs.0c05970
Article source: Figure S16a
Adsorbate Carbon Dioxide: InChIKey CURLTUGMZLYLDI-UHFFFAOYSA-N
Kind: experiment
Temperature: 194 K
Tabular data in the source: 0
pressure (bar)	uptake (cm3(STP)/g)
0.019007	5.65549
0.029918	13.2368
0.032722	20.8282
0.030106	27.1606
0.024779	32.8635
0.02218	40.4616
0.019572	47.4269
0.022359	53.7526
0.025129	58.8124
0.02796	68.3025
0.028028	73.3657
0.033526	80.3208
0.052525	86.6262
0.082331	92.9179
0.106725	98.5836
0.131128	104.882
0.155513	109.915
0.182601	114.944
0.212382	119.337
0.242145	122.465
0.277304	124.952
0.307042	126.181
0.347674	133.725
0.380165	138.747
0.434246	141.844
0.477562	148.119
0.537029	149.943
0.585732	154.946
0.631716	158.685
0.685814	163.048
0.742622	168.04
0.777901	179.388
0.845517	184.367
0.899606	188.097
0.942905	193.106
0.997012	198.101
1.02947	200.592
0.31573	169.208
0.361739	174.846
0.413092	176.048
0.472568	178.505
0.52936	182.231
0.58887	187.22
0.637513	187.792
0.683462	189
0.737535	191.464
0.775404	194.581
0.810546	195.803
0.861874	195.106
0.91321	195.042
0.951019	193.729
