Adsorption isotherm of Carbon Dioxide on GS-COF-1
DOI: 10.1021/jacs.0c05970
Article source: Figure S16a
Adsorbate Carbon Dioxide: InChIKey CURLTUGMZLYLDI-UHFFFAOYSA-N
Kind: experiment
Temperature: 273 K
Tabular data in the source: 0
pressure (bar)	uptake (cm3(STP)/g)
0.748707	5.65211
0.657588	10.0858
0.752835	14.5127
1.03445	18.9329
1.31606	23.353
1.50361	25.8779
2.15913	32.8161
2.62682	36.5965
3.46753	40.9964
5.33384	46.6248
5.98641	47.234
6.92001	50.9976
7.85302	53.4953
8.69255	55.3636
9.4389	57.2352
10.3716	59.1001
11.8634	60.9446
13.5425	64.6811
15.4064	65.2463
17.1781	67.7136
18.7637	70.8206
20.3484	72.0288
21.6532	72.6144
23.1445	73.1931
25.4749	75.0072
27.1552	81.2753
29.0194	82.4734
30.5109	83.685
32.2826	86.1523
33.4017	88.0104
34.8003	89.8584
10.9378	74.2694
12.6163	76.7401
14.6675	79.1972
16.2513	78.5068
18.0235	82.2399
20.0741	83.4312
21.4725	84.6462
22.9634	84.5921
24.3611	84.5413
25.7589	84.4905
26.8771	84.4499
29.3942	86.8902
31.4442	86.8157
32.9349	86.1286
34.8926	87.9563
