Adsorption isotherm of Carbon Dioxide on GS-COF-2
DOI: 10.1021/jacs.0c05970
Article source: Figure S16b
Adsorbate Carbon Dioxide: InChIKey CURLTUGMZLYLDI-UHFFFAOYSA-N
Kind: experiment
Temperature: 194 K
Tabular data in the source: 0
pressure (bar)	uptake (cm3(STP)/g)
0.014302	6.83664
0.017417	10.573
0.028754	16.1735
0.031943	20.5329
0.032541	25.517
0.038546	31.1208
0.041811	36.1032
0.050631	42.9513
0.056561	47.9321
0.067824	52.9096
0.095232	59.1232
0.11701	62.8481
0.149676	68.4354
0.160639	70.9209
0.193006	74.0162
0.230631	76.4852
0.257666	79.5838
0.28181	80.815
0.322026	82.6594
0.375572	84.4955
0.429194	86.9547
0.490738	88.7859
0.544509	92.491
0.576801	94.9633
0.643454	94.9222
0.667449	94.9075
0.720846	95.4976
0.789741	114.147
0.838105	117.232
0.905131	120.306
0.953644	124.638
0.988752	128.354
1.02912	131.445
0.334136	116.92
0.379609	118.138
0.414418	119.363
0.462707	121.825
0.518845	123.036
0.5698	125.497
0.612532	126.094
0.655265	126.691
0.697997	127.287
0.753985	127.253
0.810048	127.841
0.852781	128.438
0.874184	129.048
0.924691	127.771
0.980604	127.113
