Adsorption isotherm of Nitrogen on H3PO4@GS-COF-1-COOH
DOI: 10.1021/jacs.0c05970
Article source: Figure S20
Adsorbate Nitrogen: InChIKey IJGRMHOSHXDMSA-UHFFFAOYSA-N
Kind: experiment
Temperature: 77 K
Tabular data in the source: 0
pressure (bar)	uptake (cm3(STP)/g)
0.028494	1.57553
0.046505	2.00309
0.06446	1.99798
0.085	2.13636
0.10552	2.13052
0.133736	2.12249
0.159387	2.11519
0.177343	2.11007
0.197864	2.10423
0.226098	2.24043
0.256861	2.08744
0.318423	2.06991
0.367179	2.20026
0.408202	2.04435
0.487738	2.16594
0.546735	2.14914
0.600584	1.98958
0.659618	2.26124
0.713578	2.96703
0.75724	3.38729
0.808671	4.38227
0.842147	5.38235
0.867983	6.8173
0.92222	9.68648
0.955899	12.273
0.974077	13.9986
0.993272	23.6566
0.092676	1.98995
0.154313	2.54932
0.20305	2.53545
0.254333	2.37662
0.295319	1.93226
0.356918	2.20318
0.426139	1.89501
0.485081	1.44554
0.546735	2.14914
0.603186	2.2773
0.646793	2.26489
0.705845	2.68077
0.736645	2.81623
0.788132	4.24388
0.862871	6.96299
0.878317	7.39128
0.917016	9.11104
0.945509	11.2664
0.968984	14.2885
0.976993	16.7382
