Adsorption isotherm of Nitrogen on GS-COF-1 (6 M HCl treated)
DOI: 10.1021/jacs.0c05970
Article source: Figure S12a
Adsorbate Nitrogen: InChIKey IJGRMHOSHXDMSA-UHFFFAOYSA-N
Kind: experiment
Temperature: 77 K
Tabular data in the source: 0
pressure (bar)	uptake (cm3(STP)/g)
0.021323	12.9699
0.024831	32.7273
0.026267	61.2894
0.027814	92.0485
0.029844	107.42
0.032316	131.58
0.032758	140.368
0.033862	162.339
0.037702	188.687
0.043391	201.837
0.048971	212.79
0.060019	232.498
0.065709	245.648
0.081673	263.127
0.102886	284.967
0.126059	295.805
0.14125	297.904
0.16934	306.512
0.211958	304.037
0.249991	310.383
0.278081	318.991
0.331305	327.436
0.427037	331.209
0.445073	339.883
0.505617	343.884
0.536441	356.871
0.594471	360.889
0.65043	373.711
0.703323	375.565
0.733816	381.96
0.791735	383.781
0.842557	394.439
0.875673	403.015
0.932516	433.414
0.984332	463.846
1.0109	492.245
1.0201	525.152
1.0328	577.817
1.04233	617.315
1.04673	654.649
0.016241	111.904
0.015384	144.877
0.022069	177.8
0.030935	204.116
0.03795	243.631
0.039276	269.996
0.04585	300.722
0.080182	333.466
0.108492	346.469
0.141278	348.453
0.178979	348.208
0.252422	358.719
0.30827	369.344
0.374614	388.693
0.437892	397.072
0.488161	396.745
0.540833	394.205
0.578645	396.156
0.646839	402.306
0.707052	399.716
0.745195	408.26
0.786405	427.772
0.822477	445.119
0.875591	451.367
0.927627	486.193
0.977482	527.627
1.01239	621.905
1.03449	661.322
