Adsorption isotherm of Nitrogen on GS-COF-2 (200 Â°C-treated)
DOI: 10.1021/jacs.0c05970
Article source: Figure S10b
Adsorbate Nitrogen: InChIKey IJGRMHOSHXDMSA-UHFFFAOYSA-N
Kind: experiment
Temperature: 77 K
Tabular data in the source: 0
pressure (bar)	uptake (cm3(STP)/g)
0.010841	15
0.008378	28.3333
0.016602	51.6667
0.0168	66.6667
0.011654	76.6667
0.011808	88.3333
0.009345	101.667
0.009477	111.667
0.009763	133.333
0.012622	150
0.018185	171.667
0.02377	195
0.029179	205
0.050465	218.333
0.071684	226.667
0.098181	235
0.127294	241.667
0.148403	241.667
0.185433	248.333
0.227717	253.333
0.285856	260
0.312309	265
0.378298	266.667
0.449564	268.333
0.497148	275
0.563312	290
0.618791	295
0.674313	303.333
0.735068	308.333
0.795867	316.667
0.843451	323.333
0.893718	333.333
0.944007	345
0.986445	361.667
1.01848	390
1.01881	415
1.0271	443.333
1.03535	468.333
0.006839	111.667
0.00442	128.333
0.01526	150
0.020889	176.667
0.021065	190
0.023924	206.667
0.034721	225
0.050816	245
0.077423	261.667
0.103942	271.667
0.138508	291.667
0.15975	301.667
0.188885	310
0.231148	313.333
0.276027	315
0.342126	325
0.405476	326.667
0.450465	336.667
0.498093	346.667
0.564126	351.667
0.598363	346.667
0.651136	346.667
0.711958	356.667
0.754264	363.333
0.820341	371.667
0.875863	380
0.944667	395
0.968568	406.667
0.990008	431.667
1.01413	460
1.02774	491.667
