Adsorption isotherm of Carbon Dioxide on GS-COF-2
DOI: 10.1021/jacs.0c05970
Article source: Figure S16b
Adsorbate Carbon Dioxide: InChIKey CURLTUGMZLYLDI-UHFFFAOYSA-N
Kind: experiment
Temperature: 273 K
Tabular data in the source: 0
pressure (bar)	uptake (cm3(STP)/g)
0.396151	5.59227
0.411619	9.33031
0.427087	13.0683
0.631608	18.0491
0.736446	21.1625
1.21939	26.7614
1.69975	31.7372
2.27207	36.7114
3.41412	46.0368
3.9787	49.1419
5.20239	55.9736
6.22928	59.6936
7.6214	62.784
8.82446	64.6316
10.2063	65.23
11.399	64.5856
13.7209	70.1516
15.9251	69.4891
17.5037	73.1992
19.072	74.4173
20.8267	76.2551
22.487	77.4715
23.8739	79.3158
25.077	81.1635
26.372	83.0095
27.8535	85.4752
29.2353	86.0736
30.5277	87.2966
31.9147	89.1409
33.3936	90.9837
35.3348	93.4412
11.0673	73.3143
12.3597	74.5373
14.582	78.2359
16.7862	77.5734
18.3673	81.9065
19.9356	83.1246
21.0441	84.3509
22.7989	86.1886
24.5511	87.4034
25.7541	89.2511
27.7718	87.9689
29.1665	91.6823
31.6517	92.2609
33.2226	94.102
