Adsorption isotherm of Carbon Dioxide on GS-COF-1
DOI: 10.1021/jacs.0c05970
Article source: Figure S16a
Adsorbate Carbon Dioxide: InChIKey CURLTUGMZLYLDI-UHFFFAOYSA-N
Kind: experiment
Temperature: 194 K
Tabular data in the source: 0
pressure (bar)	uptake (cm3(STP)/g)
0.013612	6.29516
0.019084	11.3516
0.027293	18.9363
0.02731	20.2021
0.030097	26.5277
0.030166	31.5909
0.03297	39.1823
0.041153	44.8683
0.05202	49.285
0.065624	56.23
0.087316	61.899
0.114395	66.2955
0.141465	70.0591
0.168527	73.1897
0.192878	75.6909
0.222625	77.5523
0.249653	78.1514
0.279399	80.0129
0.317269	83.13
0.365937	85.6007
0.414614	88.7042
0.463257	89.2762
0.520006	89.8381
0.584928	95.4529
0.657914	97.8932
0.693073	100.381
0.733644	103.494
0.782364	109.763
0.84727	114.112
0.885113	115.33
0.936484	117.797
0.974328	119.016
1.00679	122.14
0.322895	99.5786
0.376967	102.043
0.425618	103.247
0.474278	105.085
0.525632	106.287
0.582397	108.114
0.622952	109.962
0.677007	111.16
0.725675	113.631
0.782424	114.193
0.820259	114.778
0.858111	116.63
0.917579	118.454
0.95001	119.046
