Adsorption isotherm of Nitrogen on H3PO4@GS-COF-2-COOH
DOI: 10.1021/jacs.0c05970
Article source: Figure S20
Adsorbate Nitrogen: InChIKey IJGRMHOSHXDMSA-UHFFFAOYSA-N
Kind: experiment
Temperature: 77 K
Tabular data in the source: 0
pressure (bar)	uptake (cm3(STP)/g)
0.020909	2.44307
0.036355	2.87137
0.056913	3.15397
0.077471	3.43658
0.113401	3.57059
0.131393	3.85392
0.159628	3.99012
0.190409	3.98135
0.234016	3.96894
0.282734	3.81084
0.328869	3.50924
0.395654	4.21138
0.470134	4.91133
0.516287	4.75396
0.552199	4.74374
0.608668	5.01613
0.65746	5.43493
0.711383	5.85227
0.752554	6.85016
0.81419	7.40954
0.875826	7.96891
0.9067	8.68128
0.930045	10.6939
0.95889	15.5895
0.987994	22.5043
1.01249	53.5069
0.05444	3.87583
0.077582	4.30194
0.098121	4.44032
0.11866	4.5787
0.154553	4.42425
0.190446	4.2698
0.228904	4.11463
0.272511	4.10221
0.308422	4.09199
0.339203	4.08322
0.393107	4.35634
0.431528	3.91271
0.485432	4.18583
0.526474	4.17414
0.575284	4.73717
0.613761	4.72621
0.670175	4.56592
0.734468	5.8457
0.785752	5.68687
0.852592	6.82168
0.909302	8.969
0.929971	10.117
0.950732	11.9861
0.97314	26.6912
