Adsorption isotherm of Nitrogen on GS-COF-2 (6 M NaOH treated)
DOI: 10.1021/jacs.0c05970
Article source: Figure S12b
Adsorbate Nitrogen: InChIKey IJGRMHOSHXDMSA-UHFFFAOYSA-N
Kind: experiment
Temperature: 77 K
Tabular data in the source: 0
pressure (bar)	uptake (cm3(STP)/g)
0.013078	16.6161
0.014261	33.4723
0.021054	50.2752
0.024704	62.2886
0.027238	98.4091
0.02859	117.673
0.029942	136.938
0.031969	165.834
0.033321	185.098
0.04275	199.466
0.069177	216.082
0.097902	225.448
0.135041	234.733
0.17235	246.426
0.214931	253.25
0.260485	262.455
0.299923	264.49
0.339192	264.116
0.387044	266.071
0.429287	268.079
0.474166	267.652
0.539017	271.854
0.607348	285.662
0.665745	277.877
0.708156	282.293
0.752697	277.05
0.812445	288.53
0.846273	290.618
0.894126	292.572
0.917072	299.583
0.963302	318.42
0.989898	337.445
1.01717	366.101
1.03059	397.298
1.03738	414.101
1.0389	435.774
0.009293	122.676
0.010645	141.94
0.01514	165.994
0.027711	185.152
0.040452	206.717
0.058633	225.821
0.091008	247.2
0.128654	263.709
0.159846	268.232
0.21314	267.725
0.244332	272.248
0.289886	281.453
0.334934	283.434
0.371398	283.087
0.399447	282.82
0.455714	284.695
0.501269	293.9
0.534928	293.58
0.591364	297.862
0.633438	297.462
0.67007	299.523
0.706872	303.992
0.734921	303.725
0.771554	305.787
0.808187	307.848
0.845496	319.541
0.87439	331.314
0.921465	362.192
0.968878	397.885
1.0044	424.054
1.03049	435.854
