Adsorption isotherm of Nitrogen on GS-COF-1
DOI: 10.1021/jacs.0c05970
Article source: Figure S8a
Adsorbate Nitrogen: InChIKey IJGRMHOSHXDMSA-UHFFFAOYSA-N
Kind: experiment
Temperature: 77 K
Tabular data in the source: 0
pressure (bar)	uptake (cm3(STP)/g)
0.006186	27.907
0.0081	44.186
0.007128	69.7674
0.011046	100
0.014875	132.558
0.016613	153.488
0.018262	176.744
0.020088	195.349
0.026892	216.279
0.036141	239.535
0.048453	248.837
0.078409	260.465
0.106008	267.442
0.140942	281.395
0.166096	286.047
0.208718	297.674
0.251427	306.977
0.291604	316.279
0.316493	327.907
0.361825	334.884
0.389247	346.512
0.449424	362.791
0.487155	369.767
0.55284	374.419
0.595196	393.023
0.637817	404.651
0.698259	413.953
0.777552	460.465
0.804709	479.07
0.856668	511.628
0.893781	534.884
0.942146	595.349
0.963589	697.674
0.959377	741.86
0.96895	823.256
0.971777	948.837
0.001885	74.4186
0.005361	116.279
0.003947	153.488
0.002621	188.372
0.001384	220.93
0.000677	239.535
0.00486	262.791
0.014109	286.047
0.023711	300
0.038291	316.279
0.067805	339.535
0.077761	344.186
0.117938	353.488
0.165272	374.419
0.207893	386.047
0.250691	393.023
0.280823	400
0.328688	406.977
0.384151	413.953
0.437082	420.93
0.469836	425.581
0.522501	439.535
0.585653	444.186
0.625564	460.465
0.688274	476.744
0.720409	497.674
0.777699	523.256
0.811572	565.116
0.847183	627.907
0.908508	813.953
0.924885	916.279
