Adsorption isotherm of Carbon Dioxide on GS-COF-1-COOH
DOI: 10.1021/jacs.0c05970
Article source: Figure S16a
Adsorbate Carbon Dioxide: InChIKey CURLTUGMZLYLDI-UHFFFAOYSA-N
Kind: experiment
Temperature: 273 K
Tabular data in the source: 0
pressure (bar)	uptake (cm3(STP)/g)
0.655524	5.65549
0.750476	9.44951
0.752541	13.8798
0.847198	17.0409
0.94215	20.835
1.0371	24.629
1.3193	30.3149
1.41426	34.1089
1.69705	41.0607
1.97955	47.3796
2.26116	51.7997
2.82439	60.64
3.29118	62.5218
4.22537	67.5511
5.25275	72.5771
6.18634	76.3407
7.30631	80.0975
8.33279	83.2247
9.54653	88.244
10.5727	90.7383
12.2521	95.1077
13.8374	97.5818
15.0499	100.069
16.6349	101.911
18.5009	106.906
20.0865	110.013
21.578	111.225
23.3497	113.692
24.4697	117.449
25.4024	119.314
26.8954	123.69
29.2276	129.301
30.72	132.412
32.3982	134.249
33.7036	136.101
34.9159	137.955
10.9546	110.345
13.0999	114.697
14.4982	115.912
16.177	119.016
17.9474	118.951
19.4395	121.429
20.8379	122.644
22.3294	123.856
23.9138	124.431
25.7783	126.262
28.7614	128.685
30.8126	131.142
32.7703	132.97
33.7956	133.566
