Adsorption isotherm of Nitrogen on GS-COF-1 (6 M NaOH treated)
DOI: 10.1021/jacs.0c05970
Article source: Figure S12a
Adsorbate Nitrogen: InChIKey IJGRMHOSHXDMSA-UHFFFAOYSA-N
Kind: experiment
Temperature: 77 K
Tabular data in the source: 0
pressure (bar)	uptake (cm3(STP)/g)
0.022207	30.5465
0.023091	48.1232
0.024195	70.094
0.024969	85.4736
0.028366	103.034
0.029139	118.414
0.033089	146.959
0.033973	164.536
0.039773	179.883
0.045794	199.624
0.06198	221.497
0.083082	241.139
0.093578	249.862
0.131832	260.602
0.172268	264.735
0.210522	275.475
0.248555	281.821
0.286367	283.773
0.322108	294.529
0.405493	302.778
0.43292	298.204
0.488548	304.435
0.531608	310.748
0.5845	312.602
0.642862	323.211
0.690728	325.097
0.736412	333.591
0.78657	331.067
0.840016	343.906
0.888544	358.975
0.936852	369.65
0.965274	384.849
0.981017	397.934
1.00463	417.56
1.01623	448.254
1.02292	481.178
1.02883	498.722
1.03026	527.284
0.022262	131.645
0.023146	149.222
0.028946	164.569
0.032675	188.72
0.033669	208.494
0.034995	234.859
0.04353	254.584
0.059384	269.865
0.088247	293.853
0.129235	308.971
0.162683	324.138
0.198424	334.894
0.239192	345.618
0.284434	345.324
0.337216	344.98
0.385524	355.655
0.438638	361.903
0.491862	370.348
0.548263	391.959
0.598531	391.631
0.638415	384.779
0.67863	384.517
0.739284	390.716
0.769777	397.111
0.802562	399.095
0.850428	400.981
0.890754	402.917
0.926826	420.264
0.947486	431.119
0.981376	455.074
1.01068	487.851
1.03245	520.676
