Adsorption isotherm of Carbon Dioxide on GS-COF-2-COOH
DOI: 10.1021/jacs.0c05970
Article source: Figure S16b
Adsorbate Carbon Dioxide: InChIKey CURLTUGMZLYLDI-UHFFFAOYSA-N
Kind: experiment
Temperature: 273 K
Tabular data in the source: 0
pressure (bar)	uptake (cm3(STP)/g)
0.4881	5.59062
0.690042	9.94838
0.710666	14.9324
0.728712	19.2935
0.65481	23.6562
0.672856	28.0172
1.06385	33.6177
1.36032	38.5968
1.46774	42.3332
1.77452	49.8044
2.06583	53.5375
2.73525	59.7561
3.30756	64.7302
3.78793	69.7061
4.91193	74.6704
5.65783	77.1493
6.87378	82.112
7.90326	86.4549
9.11921	91.4176
10.6033	94.5064
11.9009	96.9754
13.8498	101.302
15.5229	105.633
17.9239	108.083
19.4999	111.17
21.265	115.5
22.8384	117.964
24.3148	119.183
25.7146	124.143
27.3112	132.214
28.3381	135.934
29.6383	139.026
31.2117	141.49
32.2335	143.964
33.2449	143.946
34.808	143.918
10.7116	120.673
12.3872	125.627
14.1446	128.088
15.8993	129.926
17.6541	131.763
19.1253	131.737
20.1393	132.342
22.3434	131.68
24.5631	134.755
26.494	134.721
28.2488	136.559
29.9038	136.529
31.4352	139.928
33.3265	141.452
