Adsorption isotherm of Nitrogen on GS-COF-2 (6 M HCI treated)
DOI: 10.1021/jacs.0c05970
Article source: Figure S12b
Adsorbate Nitrogen: InChIKey IJGRMHOSHXDMSA-UHFFFAOYSA-N
Kind: experiment
Temperature: 77 K
Tabular data in the source: 0
pressure (bar)	uptake (cm3(STP)/g)
0.007637	19.0775
0.009327	43.1578
0.016627	67.1847
0.01781	84.041
0.018992	100.897
0.023149	120.135
0.030955	151.386
0.035281	173.031
0.050995	196.978
0.075124	220.845
0.095604	232.699
0.130107	244.419
0.158664	251.376
0.204049	258.173
0.249266	262.562
0.288703	264.597
0.333751	266.578
0.387889	278.111
0.433106	282.5
0.478491	289.297
0.521072	296.121
0.580313	300.377
0.634451	311.91
0.679837	318.707
0.756583	332.435
0.808255	348.811
0.86851	367.515
0.908961	383.998
0.955699	410.059
0.98297	438.715
1.0025	477.084
1.0143	525.164
1.03535	585.205
1.04647	623.653
1.05306	717.567
1.06695	835.507
0.018891	139.452
0.020919	168.349
0.028218	192.376
0.035518	216.403
0.039843	238.048
0.053091	266.838
0.068805	290.785
0.086817	307.481
0.121828	326.425
0.14741	331.001
0.200534	328.086
0.260114	337.158
0.31459	353.507
0.362273	353.053
0.410464	359.824
0.458147	359.37
0.542464	360.978
0.610795	374.786
0.667063	376.66
0.714915	378.615
0.769222	392.556
0.820894	408.932
0.855904	427.876
0.885643	451.689
0.933563	494.607
1.00899	609.552
1.0319	696.081
1.06256	772.898
1.06712	837.915
