Adsorption isotherm of Pyridine, Water on Cellulose laurate ester aerogel
DOI: 10.1007/s10570-017-1489-1
Article source: Figure 3
Adsorbate Pyridine: InChIKey JUJWROOIHBZHMG-UHFFFAOYSA-N
Adsorbate Water: InChIKey XLYOFNOQVPJJNP-UHFFFAOYSA-N
Kind: experiment
Temperature: 298 K
Tabular data in the source: 0
pressure (bar)	Pyridine fraction	Pyridine uptake (mmol/g)	Water fraction	Water uptake (mmol/g)	total uptake (mmol/g)
1.01325	0.2572	4.1685			
1.01325	0.81321	6.0798			
1.01325	1.35659	7.8441			
1.01325	1.90156	9.5758			
1.01325	2.44823	9.7572			
1.01325	2.99521	9.7151			
