Adsorption isotherm of Chlorobenzene, Water on Cellulose laurate ester aerogel freeze drying
DOI: 10.1007/s10570-017-1489-1
Article source: Figure 5
Adsorbate Chlorobenzene: InChIKey MVPPADPHJFYWMZ-UHFFFAOYSA-N
Adsorbate Water: InChIKey XLYOFNOQVPJJNP-UHFFFAOYSA-N
Kind: experiment
Temperature: 298 K
Tabular data in the source: 0
pressure (bar)	Chlorobenzene fraction	Chlorobenzene uptake (mmol/g)	Water fraction	Water uptake (mmol/g)	total uptake (mmol/g)
1.01325	0.019	4.6345			
1.01325	0.11012	8.5081			
1.01325	0.26178	11.298			
1.01325	0.32216	12.7616			
1.01325	0.72874	13.5233			
1.01325	1.21257	13.6318			
