Adsorption isotherm of Chlorobenzene, Water on Cellulose laurate ester aerogel
DOI: 10.1007/s10570-017-1489-1
Article source: Figure 3
Adsorbate Chlorobenzene: InChIKey MVPPADPHJFYWMZ-UHFFFAOYSA-N
Adsorbate Water: InChIKey XLYOFNOQVPJJNP-UHFFFAOYSA-N
Kind: experiment
Temperature: 298 K
Tabular data in the source: 0
pressure (bar)	Chlorobenzene fraction	Chlorobenzene uptake (mmol/g)	Water fraction	Water uptake (mmol/g)	total uptake (mmol/g)
1.01325	0.26922	6.2926			
1.01325	0.82423	11.0442			
1.01325	1.37541	14.1097			
1.01325	1.90275	16.4554			
1.01325	2.44807	18.1228			
1.01325	3.00146	18.4536			
