Adsorption isotherm of Chlorobenzene, Water on Cellulose laurate ester aerogel ScCO2 drying
DOI: 10.1007/s10570-017-1489-1
Article source: Figure 5
Adsorbate Chlorobenzene: InChIKey MVPPADPHJFYWMZ-UHFFFAOYSA-N
Adsorbate Water: InChIKey XLYOFNOQVPJJNP-UHFFFAOYSA-N
Kind: experiment
Temperature: 298 K
Tabular data in the source: 0
pressure (bar)	Chlorobenzene fraction	Chlorobenzene uptake (mmol/g)	Water fraction	Water uptake (mmol/g)	total uptake (mmol/g)
1.01325	0.01376	6.1835			
1.01325	0.13441	11.004			
1.01325	0.21271	13.9653			
1.01325	0.27689	16.41			
1.01325	0.60235	18.0486			
1.01325	1.06299	18.4667			
