Adsorption isotherm of Chlorobenzene, Water on Cellulose laurate ester aerogel
DOI: 10.1007/s10570-017-1489-1
Article source: Figure 5
Adsorbate Chlorobenzene: InChIKey MVPPADPHJFYWMZ-UHFFFAOYSA-N
Adsorbate Water: InChIKey XLYOFNOQVPJJNP-UHFFFAOYSA-N
Kind: experiment
Temperature: 298 K
Tabular data in the source: 0
pressure (bar)	Chlorobenzene fraction	Chlorobenzene uptake (mmol/g)	Water fraction	Water uptake (mmol/g)	total uptake (mmol/g)
1.01325	0.01846	3.6177			
1.01325	0.15446	6.4925			
1.01325	0.50377	7.6401			
1.01325	0.89975	8.3584			
1.01325	1.23671	9.6461			
1.01325	1.73655	9.64			
