Adsorption isotherm of Carbon Dioxide on Aluminum formate
DOI: 10.1126/sciadv.ade1473
Article source: Figure S19
Adsorbate Carbon Dioxide: InChIKey CURLTUGMZLYLDI-UHFFFAOYSA-N
Kind: experiment
Isotherm type: excess
Temperature: 373 K
Tabular data in the source: 1
pressure (bar)	uptake (mmol/g)
0.000658	0.000151
0.001114	0.000389
0.001852	0.000773
0.003075	0.00152
0.004118	0.00211
0.005159	0.00271
0.006859	0.00374
0.007737	0.00427
0.008587	0.00474
0.010055	0.00553
0.011515	0.00646
0.014311	0.00967
0.016866	0.01075
0.019157	0.0126
0.021593	0.01404
0.022726	0.01524
0.023962	0.01613
0.027945	0.01846
0.031939	0.02106
0.034028	0.02229
0.035946	0.02369
0.039932	0.02636
0.046616	0.03076
0.053186	0.03492
0.059943	0.03917
0.063131	0.04103
0.066553	0.04483
0.073947	0.04855
0.081443	0.05367
0.087282	0.05736
0.093323	0.06116
0.099918	0.0653
0.106621	0.07058
0.113969	0.07474
0.121899	0.08026
0.130215	0.08586
0.139192	0.09224
0.149321	0.09725
0.159987	0.10487
0.170653	0.11171
0.182036	0.11836
0.194299	0.12718
0.208749	0.13633
0.223314	0.14548
0.238108	0.1549
0.254225	0.16783
0.272454	0.18358
0.291407	0.19367
0.311061	0.21179
0.333154	0.22508
0.363651	0.24854
0.395873	0.27612
0.427968	0.30776
0.45975	0.33328
0.489952	0.36906
0.523982	0.39382
0.553046	0.42597
0.586041	0.44894
0.615952	0.47959
0.649952	0.50674
0.679316	0.53366
0.711666	0.56211
0.7421	0.58906
0.774712	0.62827
0.806712	0.65571
0.838398	0.67905
0.868896	0.69744
0.900975	0.72509
0.932325	0.75803
0.951505	0.77865
0.971421	0.78556
0.992049	0.81069
1.01032	0.82637
1.02761	0.84618
1.04837	0.86039
1.06625	0.88728
1.08665	0.89607
1.10588	0.91124
1.12249	0.93076
1.14233	0.95817
1.16141	0.97062
1.18308	0.97096
1.19903	0.98787
1.15324	0.97283
1.10924	0.95509
1.06658	0.90865
1.01992	0.88217
0.97817	0.83853
0.931707	0.80184
0.888703	0.77396
0.843968	0.7431
0.798921	0.71397
0.755566	0.67255
0.709674	0.63536
0.666596	0.60053
0.621282	0.57301
0.578632	0.53407
0.533175	0.49466
0.489177	0.46186
0.444392	0.42717
0.40057	0.38553
0.355421	0.35214
0.311117	0.31884
0.26693	0.27344
0.221946	0.23481
0.178034	0.19846
0.133769	0.15561
0.079816	0.10825
0.048079	0.08049
0.028832	0.06192
0.017231	0.05034
0.010412	0.04209
0.006273	0.03519
0.003726	0.03071
0.002234	0.0282
0.001354	0.02506
0.000382	0.02291
