Adsorption isotherm of Nitrogen on Aluminum formate
DOI: 10.1126/sciadv.ade1473
Article source: Figure S20
Adsorbate Nitrogen: InChIKey IJGRMHOSHXDMSA-UHFFFAOYSA-N
Kind: experiment
Isotherm type: excess
Temperature: 77 K
Tabular data in the source: 1
pressure (bar)	uptake (mmol/g)
0.010595	0.05883
0.01973	0.06859
0.03032	0.07567
0.04038	0.08083
0.051064	0.08523
0.060304	0.08856
0.070838	0.09194
0.081048	0.09492
0.091086	0.09764
0.101159	0.10023
0.111381	0.10266
0.121455	0.10506
0.131648	0.10734
0.14172	0.10949
0.15168	0.11154
0.161817	0.11357
0.172498	0.11577
0.182263	0.11766
0.192346	0.1196
0.202259	0.12145
0.212297	0.12327
0.222744	0.12519
0.232957	0.12685
0.243545	0.12874
0.252743	0.13026
0.263289	0.13199
0.272879	0.13358
0.28311	0.13523
0.293445	0.13681
0.303008	0.13831
0.313904	0.14002
0.32386	0.14154
0.333463	0.14296
0.344181	0.1445
0.353476	0.14585
0.364385	0.14732
0.374234	0.14877
0.384334	0.1502
0.394563	0.15164
0.403949	0.1529
0.414682	0.1544
0.424264	0.15565
0.434969	0.15708
0.445043	0.15841
0.454994	0.1598
0.465239	0.16121
0.474743	0.16241
0.485418	0.16377
0.495401	0.16508
0.505281	0.16637
0.515669	0.1677
0.525654	0.16905
0.535545	0.1703
0.545854	0.17158
0.555943	0.17302
0.566165	0.17431
0.575747	0.17559
0.586287	0.17692
0.595819	0.17821
0.606453	0.17971
0.616473	0.18098
0.626467	0.18232
0.636172	0.18373
0.646226	0.18522
0.656805	0.18672
0.667025	0.1881
0.677132	0.18973
0.687167	0.19133
0.697425	0.19294
0.707281	0.1944
0.717682	0.19617
0.727841	0.19794
0.737995	0.19957
0.747567	0.20133
0.758046	0.20321
0.767848	0.2051
0.778224	0.20717
0.787837	0.20915
0.798657	0.21157
0.808211	0.21363
0.81876	0.21625
0.828701	0.21873
0.838968	0.22159
0.848901	0.22444
0.859044	0.22744
0.869109	0.23076
0.87925	0.23431
0.889391	0.23825
0.899497	0.24258
0.909658	0.24744
0.919151	0.25273
0.929798	0.25958
0.939744	0.26732
0.949579	0.27669
0.959361	0.28829
0.969863	0.30525
0.979843	0.32876
0.989603	0.36667
0.998537	0.43257
0.995539	0.48546
0.985799	0.3863
0.975184	0.33867
0.963124	0.30949
0.951623	0.29233
0.940916	0.28099
0.930361	0.27227
0.920168	0.26535
0.910037	0.25961
0.900139	0.25462
0.890595	0.25028
0.88043	0.24643
0.870135	0.24261
0.860247	0.23937
0.850133	0.23643
0.840038	0.23363
0.829893	0.23111
0.819734	0.22863
0.809569	0.22628
0.799454	0.22418
0.789284	0.22211
0.779118	0.21997
0.769022	0.21807
0.759025	0.21626
0.748793	0.21459
0.738696	0.21284
0.728542	0.21117
0.718452	0.20956
0.708323	0.20803
0.698251	0.20641
0.688064	0.20506
0.678071	0.20359
0.668014	0.20218
0.657887	0.20076
0.647772	0.19941
0.637654	0.19803
0.62748	0.19668
0.617441	0.1953
0.607301	0.19406
0.597157	0.19282
0.587007	0.19146
0.576828	0.19032
0.566749	0.18899
0.556532	0.18768
0.546434	0.18641
0.53634	0.18507
0.526197	0.18384
0.516333	0.18253
0.506036	0.18014
0.495879	0.17622
0.48553	0.17325
0.475856	0.17102
0.465783	0.16919
0.455683	0.16769
0.445634	0.16611
0.435491	0.16458
0.425141	0.16301
0.415285	0.16141
0.40493	0.15994
0.394854	0.15843
0.384976	0.1571
0.374724	0.15561
0.364621	0.15431
0.354548	0.15287
0.344392	0.15158
0.334286	0.15013
0.324134	0.14869
0.314032	0.14726
0.303917	0.14581
0.293804	0.14428
0.283691	0.1427
0.273609	0.14123
0.263565	0.13972
0.253436	0.13814
0.243355	0.13652
0.233261	0.13482
0.223031	0.13313
0.212909	0.13148
0.202732	0.12973
0.192582	0.12801
0.182497	0.12626
0.172398	0.12438
0.162298	0.1225
0.152039	0.12056
0.141942	0.11862
0.131857	0.11658
