Adsorption isotherm of Carbon Dioxide on Aluminum formate
DOI: 10.1126/sciadv.ade1473
Article source: Figure S19
Adsorbate Carbon Dioxide: InChIKey CURLTUGMZLYLDI-UHFFFAOYSA-N
Kind: experiment
Isotherm type: excess
Temperature: 303 K
Tabular data in the source: 1
pressure (bar)	uptake (mmol/g)
0.000695	0.0128
0.001115	0.02022
0.001844	0.0364
0.003096	0.06354
0.00406	0.08631
0.005119	0.11433
0.006889	0.15916
0.007602	0.17846
0.008529	0.20363
0.01004	0.24523
0.011307	0.2814
0.014292	0.36261
0.016332	0.42369
0.018895	0.49542
0.021054	0.55979
0.022558	0.60318
0.023796	0.63477
0.027565	0.74229
0.03191	0.84418
0.033257	0.89287
0.03633	0.96553
0.039119	1.03005
0.046202	1.19863
0.052646	1.34026
0.059069	1.47215
0.062732	1.54148
0.065825	1.61243
0.072489	1.73137
0.080042	1.86635
0.08649	1.97422
0.092478	2.06716
0.098843	2.15871
0.105976	2.25218
0.113014	2.34161
0.121218	2.43905
0.129606	2.52683
0.138635	2.61772
0.148171	2.70505
0.158405	2.78559
0.169479	2.87053
0.181805	2.94936
0.19365	3.02237
0.208242	3.09116
0.22158	3.15087
0.237201	3.21453
0.255195	3.26726
0.27175	3.31811
0.291176	3.368
0.31111	3.42217
0.333901	3.45775
0.363657	3.50313
0.39654	3.54809
0.427413	3.58156
0.458593	3.61426
0.490524	3.64164
0.521863	3.6619
0.553602	3.68478
0.585192	3.70339
0.6169	3.7235
0.648476	3.74365
0.6807	3.76259
0.711185	3.78248
0.743319	3.80148
0.774456	3.8211
0.806475	3.83995
0.837921	3.85834
0.869091	3.87774
0.900981	3.89503
0.932382	3.91358
0.95139	3.93109
0.970376	3.94745
0.989571	3.96444
1.00879	3.9806
1.02725	3.99615
1.04743	4.01178
1.06535	4.02673
1.08488	4.04225
1.10386	4.05671
1.12234	4.07085
1.14184	4.08581
1.16112	4.10057
1.18083	4.11445
1.19668	4.12831
1.10182	4.15403
1.05709	4.16581
1.01296	4.1753
0.96821	4.18436
0.923968	4.19246
0.879574	4.20029
0.834878	4.2061
0.790387	4.21076
0.746186	4.21552
0.702334	4.21816
0.657181	4.21939
0.612737	4.21901
0.577428	4.21776
0.533352	4.21438
0.489032	4.20899
0.443852	4.19997
0.399667	4.18863
0.355312	4.17004
0.311346	4.13641
0.267148	4.07797
0.223298	3.98232
0.180352	3.85774
0.156562	3.71577
0.135119	3.5644
0.109904	3.26077
0.090636	2.88331
0.071668	2.4469
0.056045	1.91932
