Adsorption isotherm of Nitrogen on Aluminum formate
DOI: 10.1126/sciadv.ade1473
Article source: Figure S20
Adsorbate Nitrogen: InChIKey IJGRMHOSHXDMSA-UHFFFAOYSA-N
Kind: experiment
Isotherm type: excess
Temperature: 303 K
Tabular data in the source: 1
pressure (bar)	uptake (mmol/g)
0.036585	0.000153
0.048434	0.000369
0.063968	0.000727
0.073746	0.00121
0.083407	0.00147
0.103166	0.00185
0.112719	0.00243
0.122829	0.00298
0.132624	0.00355
0.142386	0.00422
0.152167	0.0047
0.161808	0.00536
0.171666	0.00602
0.181571	0.00658
0.191291	0.00716
0.210701	0.0077
0.230071	0.00817
0.248341	0.00932
0.268574	0.01108
0.287904	0.01217
0.30652	0.01326
0.325423	0.01535
0.353017	0.01573
0.38039	0.0161
0.406836	0.01803
0.433644	0.02028
0.460596	0.02143
0.488183	0.02344
0.51527	0.02452
0.54226	0.02597
0.569137	0.02789
0.61349	0.03033
0.657078	0.03277
0.701935	0.03616
0.746078	0.03806
0.789653	0.0399
0.834594	0.04314
0.878202	0.04688
0.922663	0.05225
0.967256	0.05628
1.01026	0.0579
1.00093	0.0579
0.96694	0.05407
0.922594	0.05341
0.878048	0.05601
0.833655	0.05937
0.789723	0.05866
0.746499	0.05835
0.700984	0.05671
0.657478	0.05327
0.613349	0.05262
0.569216	0.05236
0.524519	0.05196
0.480679	0.04949
0.435895	0.04662
0.391712	0.04443
0.347456	0.04295
0.303545	0.04171
0.259224	0.04009
0.214953	0.03783
0.17083	0.03548
0.126637	0.03386
0.084755	0.0319
0.038416	0.02844
0.019316	0.02401
