Adsorption isotherm of Carbon Dioxide on Aluminum formate
DOI: 10.1126/sciadv.ade1473
Article source: Figure 2A, S19
Adsorbate Carbon Dioxide: InChIKey CURLTUGMZLYLDI-UHFFFAOYSA-N
Kind: experiment
Isotherm type: excess
Temperature: 348 K
Tabular data in the source: 1
pressure (bar)	uptake (mmol/g)
0.000662	0.00115
0.001116	0.002
0.001851	0.00338
0.003057	0.0058
0.004096	0.00805
0.005147	0.01031
0.006842	0.01364
0.007724	0.01591
0.008623	0.01777
0.010016	0.02076
0.011466	0.02358
0.014332	0.03133
0.016808	0.03616
0.019074	0.04181
0.021691	0.04565
0.022631	0.04821
0.023956	0.05128
0.027915	0.05967
0.031922	0.06867
0.034076	0.07171
0.035907	0.07445
0.039754	0.08402
0.046565	0.09771
0.053137	0.1137
0.060045	0.12775
0.063232	0.1316
0.066345	0.1417
0.074034	0.15621
0.081221	0.1698
0.087178	0.17879
0.092939	0.19551
0.099804	0.20853
0.105979	0.22783
0.114126	0.24172
0.121296	0.25734
0.130118	0.2764
0.138696	0.30548
0.149716	0.32518
0.158578	0.34705
0.170401	0.36592
0.180903	0.40969
0.195065	0.44476
0.207603	0.4728
0.222051	0.51312
0.237876	0.55583
0.253889	0.60895
0.272688	0.64792
0.290592	0.68054
0.310402	0.73967
0.333865	0.78188
0.363094	0.87035
0.397255	0.93958
0.426477	1.02302
0.459152	1.10731
0.490755	1.17446
0.522319	1.22196
0.553085	1.26778
0.58501	1.33344
0.616519	1.41595
0.649634	1.45626
0.679773	1.5697
0.713501	1.63284
0.744809	1.70401
0.776125	1.72214
0.809096	1.78175
0.83834	1.83688
0.869543	1.90151
0.901834	1.94979
0.932022	2.01419
0.950862	2.09697
0.97271	2.14013
0.993968	2.17426
1.00967	2.17921
1.03276	2.21887
1.04889	2.23353
1.06382	2.30786
1.08677	2.33633
1.10782	2.36461
1.12227	2.4085
1.14231	2.44477
1.16147	2.43727
1.18113	2.53943
1.19866	2.50999
1.15005	2.51
1.10454	2.5
1.066	2.48
1.02209	2.45
0.976833	2.42
0.934348	2.32
0.886039	2.26
0.845313	2.2
0.798872	2.14
0.756456	2.06
0.713322	1.89
0.661667	1.85
0.620083	1.75
0.577035	1.65
0.533458	1.53378
0.489544	1.39859
0.443357	1.30456
0.40261	1.1729
0.353953	1.07103
0.313506	0.96023
0.267508	0.82191
0.222236	0.7037
0.179052	0.59301
0.135071	0.45562
