Adsorption isotherm of Carbon Dioxide on Aluminum formate
DOI: 10.1126/sciadv.ade1473
Article source: Figure S19
Adsorbate Carbon Dioxide: InChIKey CURLTUGMZLYLDI-UHFFFAOYSA-N
Kind: experiment
Isotherm type: excess
Temperature: 308 K
Tabular data in the source: 1
pressure (bar)	uptake (mmol/g)
0.000658	0.00963
0.001114	0.01795
0.001825	0.03449
0.003051	0.06501
0.00406	0.09314
0.005107	0.1179
0.006773	0.17033
0.007711	0.19679
0.00842	0.2183
0.00999	0.26824
0.011319	0.30753
0.014295	0.39498
0.01632	0.46227
0.018901	0.54387
0.021	0.62056
0.022736	0.67493
0.023685	0.70911
0.028116	0.84186
0.031082	0.93837
0.033831	1.01234
0.035343	1.07001
0.039255	1.17854
0.045459	1.33683
0.052242	1.50498
0.059158	1.6627
0.062649	1.74639
0.066693	1.82062
0.072737	1.9502
0.081369	2.08841
0.08621	2.17316
0.092875	2.2778
0.099131	2.37521
0.106256	2.46522
0.113114	2.5455
0.121135	2.64314
0.129963	2.73151
0.138845	2.81384
0.14828	2.89704
0.159065	2.97133
0.169749	3.03243
0.181149	3.106
0.194814	3.17911
0.207539	3.23747
0.22231	3.29819
0.237575	3.35022
0.254425	3.39063
0.271313	3.43769
0.29119	3.48491
0.311577	3.51932
0.33226	3.55478
0.364435	3.59178
0.395222	3.6202
0.427265	3.64628
0.458725	3.6643
0.489981	3.68651
0.522942	3.70348
0.553629	3.72127
0.584777	3.73838
0.616547	3.75588
0.649052	3.77206
0.680453	3.78917
0.711005	3.80604
0.742653	3.82133
0.774402	3.83792
0.806332	3.85377
0.837953	3.869
0.869081	3.88496
0.901076	3.9001
0.932092	3.91501
0.95122	3.93076
0.970873	3.94686
0.989569	3.9613
1.00902	3.97566
1.02791	3.99133
1.04728	4.00684
1.06626	4.01981
1.08525	4.03359
1.10381	4.04757
1.12319	4.06029
1.14244	4.07284
1.16141	4.08599
1.18056	4.09841
1.19728	4.11059
1.14698	4.13286
1.10329	4.1508
1.05807	4.16853
1.01385	4.18586
0.970457	4.20121
0.926004	4.21611
0.882369	4.23047
0.836138	4.2445
0.792856	4.25673
0.746586	4.26757
0.702463	4.27838
0.658758	4.28753
0.613422	4.29456
0.569771	4.29981
0.525831	4.30369
0.480794	4.3055
0.436277	4.30513
0.399527	4.30186
0.355209	4.29621
0.311177	4.28225
0.266714	4.24748
0.222917	4.17847
0.179019	4.05774
0.136564	3.81577
0.080573	3.06077
0.048639	2.19331
0.029226	1.4469
0.017115	0.91932
