Adsorption isotherm of Nitrogen on Aluminum formate
DOI: 10.1126/sciadv.ade1473
Article source: Figure S20
Adsorbate Nitrogen: InChIKey IJGRMHOSHXDMSA-UHFFFAOYSA-N
Kind: experiment
Isotherm type: excess
Temperature: 313 K
Tabular data in the source: 1
pressure (bar)	uptake (mmol/g)
0.013558	6.6e-05
0.017399	9.7e-05
0.021074	0.000153
0.024796	0.000186
0.030707	0.00023
0.036543	0.000307
0.042447	0.000411
0.048306	0.000479
0.054152	0.000576
0.063918	0.000672
0.073724	0.000794
0.08344	0.000901
0.093278	0.00104
0.103035	0.0012
0.113032	0.00133
0.122593	0.00149
0.132264	0.00163
0.142172	0.00183
0.152025	0.00199
0.161806	0.00219
0.171643	0.00237
0.181181	0.00257
0.191301	0.00277
0.210074	0.00303
0.229587	0.00324
0.248888	0.00349
0.268213	0.00381
0.28759	0.0041
0.306829	0.00442
0.326989	0.00478
0.352371	0.00511
0.379797	0.00549
0.406867	0.00589
0.433945	0.0063
0.460179	0.00674
0.487944	0.0072
0.514071	0.0076
0.541744	0.00809
0.569092	0.0086
0.613165	0.00914
0.65653	0.00982
0.701058	0.01043
0.745848	0.01109
0.790331	0.01186
0.83423	0.0126
0.877653	0.01346
0.922648	0.01421
0.966687	0.01501
1.01138	0.01593
1.00072	0.01593
0.96747	0.0164
0.922105	0.01675
0.878841	0.01694
0.833991	0.01713
0.790324	0.01719
0.746122	0.01725
0.701539	0.01722
0.657621	0.01711
0.61326	0.01695
0.568973	0.01681
0.524709	0.01658
0.480424	0.01632
0.43612	0.01606
0.392184	0.01579
0.347733	0.01545
0.303563	0.01509
0.259428	0.01471
0.21509	0.01432
0.170917	0.0139
0.126778	0.01338
0.085095	0.01287
0.038448	0.01229
0.019282	0.01166
0.009607	0.01116
0.004934	0.01055
0.002429	0.01006
0.00126	0.00859
0.001243	0.00837
