Adsorption isotherm of Carbon Dioxide on Aluminum formate
DOI: 10.1126/sciadv.ade1473
Article source: Figure S19
Adsorbate Carbon Dioxide: InChIKey CURLTUGMZLYLDI-UHFFFAOYSA-N
Kind: experiment
Isotherm type: excess
Temperature: 433 K
Tabular data in the source: 1
pressure (bar)	uptake (mmol/g)
0.00111	1.3e-05
0.001846	0.000243
0.00307	0.000744
0.004105	0.00114
0.005122	0.00162
0.006832	0.00233
0.007685	0.00276
0.008548	0.00325
0.010026	0.00373
0.011433	0.00429
0.014499	0.00106
0.016822	0.0009
0.019166	0.00137
0.021588	0.00165
0.022803	0.00146
0.023996	0.00189
0.027988	0.00176
0.031993	0.00195
0.033965	0.00184
0.036021	0.00189
0.039919	0.00249
0.046619	0.00231
0.053264	0.00204
0.06023	0.0017
0.063352	0.00223
0.06659	0.00216
0.074129	0.00199
0.081511	0.00186
0.087199	0.00198
0.093102	0.00237
0.099873	0.00206
0.106578	0.00182
0.113984	0.00345
0.1216	0.00296
0.130389	0.00225
0.13934	0.00141
0.149016	0.00188
0.15937	0.00231
0.170259	0.00331
0.181914	0.00347
0.194527	0.00312
0.208193	0.00432
0.222575	0.00456
0.238178	0.00385
0.254758	0.0028
0.272365	0.00368
0.291246	0.00303
0.311437	0.00367
0.333177	0.00143
0.364061	0.00111
0.395895	0.00582
0.427717	0.00606
0.458912	0.00379
0.490432	0.00465
0.522112	0.00596
0.553866	0.00603
0.584709	0.00675
0.616563	0.00381
0.648474	0.00346
0.679612	0.00489
0.712056	0.00456
0.742702	0.01052
0.775281	0.01002
0.80625	0.00949
0.837421	0.0122
0.869735	0.01366
0.900984	0.01279
0.932105	0.02187
0.952052	0.01999
0.970438	0.02948
0.990261	0.01911
1.00842	0.02076
1.02804	0.02451
1.04675	0.01776
1.06638	0.02139
1.08557	0.01388
1.10404	0.02597
1.1241	0.01901
1.14197	0.02387
1.16131	0.02752
1.18054	0.03196
1.19744	0.03293
1.15587	0.03654
1.11101	0.03996
1.06662	0.03879
1.02239	0.03818
0.977807	0.04261
0.933234	0.04188
0.888907	0.04103
0.844038	0.04576
0.7999	0.04393
0.755392	0.04268
0.71161	0.0395
0.666353	0.04201
0.621991	0.0446
0.577281	0.04326
0.532933	0.0443
0.489222	0.04572
0.44385	0.04717
0.399481	0.0448
0.355015	0.0449
0.310629	0.04388
0.266247	0.0448
0.221868	0.044
0.177517	0.04335
0.13319	0.04278
0.079698	0.04155
0.047755	0.04062
0.028801	0.03452
0.017097	0.02898
0.010363	0.02504
0.006206	0.02016
0.003716	0.01588
0.002229	0.01247
0.001335	0.00986
0.000439	0.00662
0.000403	0.00476
0.000199	0.00253
