Adsorption isotherm of Nitrogen on Aluminum formate
DOI: 10.1126/sciadv.ade1473
Article source: Figure S20
Adsorbate Nitrogen: InChIKey IJGRMHOSHXDMSA-UHFFFAOYSA-N
Kind: experiment
Isotherm type: excess
Temperature: 373 K
Tabular data in the source: 1
pressure (bar)	uptake (mmol/g)
0.171857	0.000389
0.191377	0.0012
0.249156	0.0013
0.267804	0.00401
0.287832	0.00195
0.30675	3.3e-05
0.325379	0.00144
0.352964	0.00616
0.380383	0.00445
0.406925	0.0083
0.434151	0.00579
0.461318	0.00772
0.487983	0.00754
0.515267	0.0121
0.542111	0.0107
0.568381	0.00912
0.613272	0.01615
0.657841	0.01435
0.70161	0.02136
0.745758	0.01612
0.789321	0.02291
0.834614	0.02012
0.878682	0.02744
0.922979	0.02903
0.96721	0.03578
1.01145	0.03627
1.00079	0.03627
0.967215	0.03365
0.922964	0.02726
0.878279	0.03146
0.834312	0.03112
0.790111	0.02702
0.745333	0.03444
0.701687	0.02385
0.656868	0.02673
0.612747	0.0287
0.568415	0.03125
0.524849	0.02876
0.479971	0.03506
0.435916	0.03309
0.39188	0.02828
0.347357	0.02619
0.303465	0.02904
0.259284	0.02434
0.214761	0.02433
0.170808	0.02276
0.126672	0.02066
0.084163	0.01923
