Adsorption isotherm of Nitrogen on Aluminum formate
DOI: 10.1126/sciadv.ade1473
Article source: Figure S20
Adsorbate Nitrogen: InChIKey IJGRMHOSHXDMSA-UHFFFAOYSA-N
Kind: experiment
Isotherm type: excess
Temperature: 298 K
Tabular data in the source: 1
pressure (bar)	uptake (mmol/g)
0.004098	2.4e-05
0.009984	0.000394
0.013753	6.8e-05
0.024838	0.000338
0.030705	0.000488
0.036619	0.000782
0.048397	0.00114
0.064058	0.00154
0.073671	0.00209
0.083439	0.00262
0.102984	0.00326
0.112564	0.00395
0.122671	0.00458
0.132299	0.00535
0.142344	0.00608
0.151839	0.00688
0.161605	0.00758
0.171353	0.00836
0.181554	0.0092
0.191178	0.01001
0.210719	0.01096
0.229863	0.01201
0.249137	0.01313
0.268521	0.01447
0.287742	0.01571
0.306252	0.01712
0.327075	0.01851
0.353021	0.02014
0.379938	0.02183
0.407419	0.02356
0.434203	0.02544
0.460899	0.02739
0.487919	0.02944
0.514994	0.03152
0.541987	0.03364
0.569179	0.03592
0.613119	0.03843
0.657256	0.04102
0.701797	0.04403
0.74608	0.04714
0.790268	0.05043
0.834533	0.05378
0.878808	0.05729
0.922355	0.06095
0.967028	0.06453
1.011	0.06832
1.00033	0.06832
0.965575	0.07122
0.921151	0.07345
0.876808	0.0749
0.832606	0.07596
0.788364	0.07681
0.744306	0.07689
0.700142	0.07697
0.655858	0.07653
0.612763	0.0759
0.568643	0.07513
0.524521	0.07419
0.480198	0.0729
0.435966	0.07153
0.391917	0.07003
0.347603	0.0682
0.303272	0.06633
0.259177	0.06431
0.215045	0.06205
0.17107	0.05922
0.127277	0.05406
0.086209	0.04861
0.039597	0.04381
0.019746	0.03968
0.009706	0.03618
0.004961	0.02405
0.001971	0.02139
