Adsorption isotherm of Water on Aluminum formate
DOI: 10.1126/sciadv.ade1473
Article source: Figure 2C
Adsorbate Water: InChIKey XLYOFNOQVPJJNP-UHFFFAOYSA-N
Kind: experiment
Isotherm type: excess
Temperature: 298 K
Tabular data in the source: 1
pressure (bar)	uptake (mmol/g)
0.000666	0.0583
0.001218	0.1185
0.001937	0.19576
0.002498	0.25345
0.003084	0.31306
0.0037	0.37531
0.004324	0.43823
0.004959	0.49973
0.005682	0.5752
0.006246	0.6292
0.006857	0.6854
0.007481	0.74613
0.008099	0.80665
0.008817	0.87402
0.00943	0.93347
0.010699	1.04409
0.011914	1.14408
0.013237	1.24402
0.014489	1.33829
0.015632	1.43321
0.017083	1.55288
0.0182	1.64567
0.019541	1.75894
0.020667	1.85069
0.022076	1.96449
0.023219	2.0544
0.024451	2.15172
0.025691	2.2477
0.02705	2.36254
0.028297	2.4713
0.028109	2.46974
0.026921	2.40437
0.025446	2.31473
0.02409	2.22726
0.022717	2.13708
0.02111	2.02631
0.019924	1.93831
0.018362	1.82308
0.016934	1.71325
0.015518	1.60058
0.014324	1.50007
0.012802	1.36973
0.011474	1.25188
0.00994	1.11035
0.008546	0.97493
0.007128	0.83714
0.005742	0.70171
0.004403	0.5643
0.002996	0.42643
0.001613	0.28708
