Adsorption isotherm of Carbon Dioxide on Aluminum formate
DOI: 10.1126/sciadv.ade1473
Article source: Figure 2A, S19
Adsorbate Carbon Dioxide: InChIKey CURLTUGMZLYLDI-UHFFFAOYSA-N
Kind: experiment
Isotherm type: excess
Temperature: 273 K
Tabular data in the source: 1
pressure (bar)	uptake (mmol/g)
0.000702	0.06202
0.001123	0.09597
0.001852	0.20858
0.003391	0.40302
0.004145	0.53102
0.005387	0.66737
0.006801	0.85499
0.007716	0.95843
0.008508	1.04059
0.00981	1.15825
0.011238	1.29436
0.014743	1.53926
0.016489	1.68095
0.019588	1.82974
0.021879	1.94009
0.022797	1.96651
0.024019	2.04059
0.027257	2.14596
0.033084	2.29534
0.03534	2.35433
0.04007	2.42613
0.045645	2.4952
0.052926	2.56272
0.059865	2.6007
0.062863	2.6248
0.066748	2.65582
0.074195	2.68217
0.085138	2.72172
0.093334	2.73894
0.099413	2.7536
0.107069	2.76375
0.113396	2.7727
0.12155	2.78513
0.13055	2.79444
0.13912	2.80139
0.14884	2.80694
0.159605	2.81251
0.170258	2.81741
0.182372	2.82219
0.194683	2.82729
0.208247	2.83216
0.222399	2.83666
0.238301	2.84053
0.253944	2.84475
0.272751	2.848
0.290592	2.85181
0.311799	2.85447
0.332342	2.85771
0.364361	2.85754
0.400875	2.85642
0.432909	2.85728
0.458425	2.85911
0.491299	2.85859
0.527096	2.85765
0.559086	2.85722
0.589661	2.85756
0.616869	2.85894
0.649368	2.85859
0.684729	2.85822
0.715896	2.85838
0.743095	2.85948
0.775045	2.8596
0.812398	2.85813
0.842868	2.85887
0.86883	2.85948
0.900896	2.86044
0.932599	2.86081
1.15023	2.91128
1.10594	2.92875
1.06138	2.94595
1.0167	2.96392
0.972358	2.98016
0.926835	2.99657
0.882718	3.01464
0.839118	3.03117
0.794713	3.04877
0.750762	3.06517
0.706185	3.08313
0.66154	3.09977
0.616987	3.11751
0.572585	3.13368
0.52829	3.15007
0.48285	3.16686
0.438531	3.18326
0.393824	3.1993
0.349406	3.21556
0.305239	3.22994
0.260703	3.24499
0.216363	3.25846
0.171962	3.26961
0.127665	3.27671
0.075366	3.2466
0.048045	3.15085
0.029466	2.86438
0.020126	2.63691
0.014604	2.42899
