Adsorption isotherm of Carbon Dioxide on Aluminum formate
DOI: 10.1126/sciadv.ade1473
Article source: Figure S19
Adsorbate Carbon Dioxide: InChIKey CURLTUGMZLYLDI-UHFFFAOYSA-N
Kind: experiment
Isotherm type: excess
Temperature: 195 K
Tabular data in the source: 1
pressure (bar)	uptake (mmol/g)
0.000667	0.01138
0.001097	0.01271
0.001844	0.01421
0.003096	0.01575
0.00515	0.01701
0.008621	0.01823
0.014386	0.02021
0.024059	0.02128
0.040044	0.02356
0.066883	0.02517
0.071179	0.02571
0.076163	0.02655
0.081574	0.02708
0.087123	0.02764
0.093216	0.02789
0.099773	0.02824
0.106629	0.02835
0.114105	0.02862
0.121691	0.02897
0.130103	0.02914
0.13923	0.02938
0.148633	0.02992
0.159129	0.03011
0.170211	0.03052
0.181945	0.03096
0.194662	0.03123
0.208126	0.03077
0.222777	0.03023
0.237954	0.02905
0.254706	0.0284
0.271928	0.02784
0.291008	0.02755
0.310994	0.02795
0.33333	0.02922
0.36478	0.0294
0.39626	0.02972
0.427682	0.03153
0.459556	0.03164
0.4903	0.03413
0.522558	0.03734
0.553949	0.04171
0.585566	0.04446
0.617064	0.04651
0.649007	0.0489
0.680315	0.05301
0.711784	0.0573
0.743256	0.06244
0.774649	0.06652
0.806218	0.07074
0.838212	0.07573
0.869132	0.08295
0.901234	0.08688
0.93236	0.09149
0.951405	0.09519
0.970685	0.09809
0.989428	0.10434
1.00951	0.10932
1.02758	0.11236
1.04746	0.11727
1.06569	0.12176
1.08503	0.1266
1.10377	0.13098
1.12371	0.13452
1.14223	0.13714
1.16176	0.14106
1.181	0.14536
1.19594	0.14878
1.15613	0.13772
1.11109	0.12668
1.06678	0.11642
1.0221	0.10596
0.978239	0.09774
0.933657	0.08897
0.888997	0.08309
0.844411	0.07614
0.799732	0.07015
0.755392	0.06382
0.711649	0.05878
0.667169	0.05446
0.622215	0.05014
0.578005	0.04647
0.533387	0.04443
0.488922	0.04312
0.44438	0.04361
0.399757	0.04395
0.355397	0.04624
0.310899	0.04893
0.266269	0.05184
0.221848	0.05607
0.177441	0.06103
0.133044	0.06625
0.079678	0.07322
0.047703	0.07699
0.028518	0.07873
0.017166	0.07594
0.010347	0.07243
