Adsorption isotherm of Nitrogen on Aluminum formate
DOI: 10.1126/sciadv.ade1473
Article source: Figure S20
Adsorbate Nitrogen: InChIKey IJGRMHOSHXDMSA-UHFFFAOYSA-N
Kind: experiment
Isotherm type: excess
Temperature: 195 K
Tabular data in the source: 1
pressure (bar)	uptake (mmol/g)
0.001874	8.3e-05
0.004094	0.000997
0.006374	0.00214
0.009972	0.00417
0.013733	0.000794
0.01732	0.00119
0.021082	0.00141
0.024785	0.00154
0.030649	0.00177
0.036447	0.00232
0.042397	0.0025
0.048397	0.00272
0.054246	0.00327
0.064103	0.00313
0.07377	0.00376
0.083657	0.00418
0.09345	0.00466
0.103148	0.00487
0.112973	0.00529
0.122436	0.00593
0.132693	0.00617
0.14207	0.00663
0.151954	0.00734
0.161472	0.00808
0.17164	0.00851
0.181078	0.00912
0.191492	0.00972
0.210872	0.00996
0.229435	0.01117
0.248863	0.01173
0.268363	0.01307
0.287641	0.01384
0.306811	0.01481
0.326857	0.01552
0.353211	0.01657
0.379825	0.0182
0.406241	0.01935
0.434299	0.02126
0.460156	0.02272
0.488307	0.0233
0.515411	0.02416
0.541378	0.02451
0.569203	0.02568
0.612815	0.02775
0.657657	0.02917
0.701658	0.03103
0.74601	0.03326
0.790369	0.03483
0.834156	0.03833
0.879083	0.03988
0.921751	0.04215
0.967216	0.04361
1.01161	0.04789
1.00095	0.04789
0.967034	0.0487
0.922726	0.04805
0.878412	0.04711
0.834181	0.04741
0.789752	0.04801
0.745485	0.04589
0.701672	0.04627
0.657381	0.04533
0.613183	0.04484
0.569	0.04389
0.524842	0.04325
0.480181	0.0422
0.435938	0.04109
0.391665	0.04003
0.347843	0.03931
0.303423	0.03784
0.259105	0.03696
0.214973	0.03576
0.17098	0.03394
0.12665	0.03256
0.084711	0.03107
0.038296	0.02936
0.01911	0.02695
0.009429	0.02736
0.004751	0.02285
0.002347	0.02057
0.001215	0.01896
