Adsorption isotherm of Carbon Dioxide on Aluminum formate
DOI: 10.1126/sciadv.ade1473
Article source: Figure S19
Adsorbate Carbon Dioxide: InChIKey CURLTUGMZLYLDI-UHFFFAOYSA-N
Kind: experiment
Isotherm type: excess
Temperature: 333 K
Tabular data in the source: 1
pressure (bar)	uptake (mmol/g)
0.000661	0.00516
0.001124	0.00886
0.001845	0.01483
0.003092	0.02506
0.004032	0.03388
0.005101	0.04364
0.006764	0.05805
0.007644	0.0667
0.008555	0.07524
0.009974	0.08762
0.011405	0.10065
0.014098	0.12527
0.01656	0.14786
0.019072	0.17176
0.021447	0.19546
0.022636	0.21127
0.024052	0.22635
0.027489	0.25921
0.031561	0.30183
0.033702	0.32954
0.035914	0.35642
0.0396	0.39791
0.046076	0.46435
0.052656	0.53456
0.059542	0.60989
0.06285	0.65638
0.066696	0.7028
0.073558	0.77035
0.080753	0.84343
0.086628	0.91031
0.09295	0.97583
0.099076	1.03843
0.10609	1.10693
0.113437	1.18092
0.121437	1.25128
0.129375	1.32766
0.138982	1.40409
0.147934	1.48256
0.158639	1.56584
0.169263	1.65164
0.181682	1.74079
0.193851	1.83075
0.207841	1.92492
0.222155	2.02029
0.236994	2.11485
0.253681	2.21324
0.270974	2.31283
0.290337	2.41184
0.31013	2.51166
0.332439	2.61008
0.365325	2.72377
0.394511	2.83298
0.428264	2.9431
0.457997	3.04501
0.489732	3.14532
0.521112	3.23703
0.553113	3.329
0.586792	3.34562
0.621035	3.44014
0.652635	3.45624
0.684723	3.5414
0.714508	3.55762
0.748024	3.64575
0.776754	3.65655
0.811152	3.74639
0.840602	3.75655
0.874966	3.83703
0.903567	3.84506
0.940065	3.87703
0.950347	3.93397
0.972401	3.93687
0.997338	3.96076
1.00791	3.99874
1.02854	4.01635
1.05491	4.02621
1.07339	4.06065
1.08473	4.09962
1.10583	4.09992
1.13096	4.11974
1.14198	4.16165
1.16194	4.18173
1.18539	4.18674
1.19988	4.21707
1.14654	4.24888
1.10297	4.2359
1.06691	4.24317
1.01357	4.26676
0.969331	4.26447
0.933915	4.24923
0.888253	4.25562
0.835	4.2662
0.791926	4.23067
0.754202	4.22406
0.702365	4.22782
0.659079	4.18103
0.621013	4.16744
0.569371	4.15818
0.535426	4.08928
0.487512	4.07154
0.43888	3.96778
0.399329	3.87591
0.356316	3.76816
0.312026	3.63618
0.267861	3.48334
0.226462	3.21205
0.179055	2.88703
0.135012	2.43685
0.080808	1.70208
0.048917	1.07529
0.027427	0.68198
0.017788	0.47959
0.010185	0.31474
