Adsorption isotherm of Carbon Dioxide on Aluminum formate
DOI: 10.1126/sciadv.ade1473
Article source: Figure 2A, S19
Adsorbate Carbon Dioxide: InChIKey CURLTUGMZLYLDI-UHFFFAOYSA-N
Kind: experiment
Isotherm type: excess
Temperature: 323 K
Tabular data in the source: 1
pressure (bar)	uptake (mmol/g)
0.000667	0.00392
0.00112	0.00644
0.001838	0.01085
0.0031	0.01842
0.004038	0.02516
0.005148	0.03197
0.006754	0.04248
0.007677	0.0494
0.00856	0.05605
0.010032	0.06499
0.011403	0.07475
0.01416	0.09414
0.016751	0.111
0.019014	0.1265
0.021432	0.14356
0.022725	0.15391
0.023915	0.16377
0.027673	0.18677
0.031531	0.21323
0.033841	0.23088
0.035937	0.24676
0.039779	0.27328
0.046255	0.31668
0.052897	0.36664
0.059798	0.41569
0.06277	0.44574
0.066786	0.48063
0.073835	0.53127
0.080936	0.586
0.086927	0.63131
0.09286	0.67904
0.099312	0.72623
0.105971	0.77816
0.113439	0.83716
0.121669	0.89173
0.129459	0.95025
0.139108	1.01334
0.148165	1.07999
0.158946	1.15087
0.169993	1.22323
0.181557	1.29553
0.193452	1.37481
0.20779	1.46303
0.221483	1.54399
0.237757	1.63232
0.253715	1.73115
0.271111	1.84943
0.291386	1.94658
0.30903	2.03784
0.332533	2.14023
0.362879	2.26421
0.394228	2.40459
0.427647	2.5249
0.457395	2.64924
0.490133	2.7605
0.52073	2.86909
0.552589	2.98442
0.584768	3.08597
0.615008	3.1928
0.648045	3.29008
0.681001	3.31367
0.715983	3.419
0.74605	3.4434
0.779169	3.53642
0.806243	3.63737
0.840452	3.65647
0.874547	3.74528
0.903291	3.74889
0.937673	3.853
0.952508	3.8712
0.976911	3.9437
0.990763	3.95715
1.01559	4.02858
1.02922	4.04492
1.05489	4.06003
1.07283	4.1227
1.08778	4.12878
1.11186	4.15927
1.12191	4.20334
1.14294	4.21473
1.16917	4.2433
1.17901	4.29256
1.1969	4.2881
1.14523	4.31169
1.10134	4.32388
1.05803	4.29707
1.02164	4.30696
0.968413	4.3094
0.925567	4.26025
0.886674	4.25916
0.836078	4.23949
0.799949	4.19724
0.754259	4.18499
0.704997	4.0734
0.663018	4.05758
0.615247	3.97681
0.575902	3.93632
0.536834	3.81267
0.488527	3.69051
0.446869	3.54224
0.402108	3.32893
0.354308	3.15426
0.316247	2.90675
0.266358	2.64708
0.227277	2.36454
0.180782	1.97758
0.137191	1.55062
0.079798	0.95982
0.049119	0.67337
