Adsorption isotherm of Nitrogen on Aluminum formate
DOI: 10.1126/sciadv.ade1473
Article source: Figure S20
Adsorbate Nitrogen: InChIKey IJGRMHOSHXDMSA-UHFFFAOYSA-N
Kind: experiment
Isotherm type: excess
Temperature: 323 K
Tabular data in the source: 1
pressure (bar)	uptake (mmol/g)
0.030741	6.3e-05
0.036628	0.000141
0.048301	0.000287
0.064096	0.000454
0.073673	0.000659
0.083707	0.000845
0.10322	0.00111
0.11282	0.00136
0.122834	0.00161
0.132651	0.00185
0.142418	0.0021
0.151726	0.00235
0.161553	0.00262
0.171635	0.00289
0.181288	0.00314
0.191274	0.00341
0.210855	0.00378
0.229929	0.00413
0.249338	0.00454
0.268446	0.00497
0.2875	0.00546
0.307083	0.00596
0.325214	0.00653
0.354043	0.00701
0.379511	0.00768
0.407375	0.00825
0.433792	0.00894
0.460212	0.00969
0.48717	0.01034
0.515148	0.01099
0.542063	0.01163
0.569331	0.01235
0.613464	0.01328
0.656241	0.01437
0.700916	0.01548
0.745197	0.01645
0.78997	0.0175
0.834559	0.01844
0.87834	0.01967
0.922297	0.02097
0.967029	0.02244
1.01163	0.02377
1.00096	0.02377
0.965638	0.02405
0.921412	0.02393
0.878223	0.02394
0.832608	0.02415
0.788505	0.02423
0.744597	0.02396
0.70118	0.02359
0.657643	0.02297
0.613274	0.02225
0.569026	0.02173
0.524575	0.02115
0.480273	0.0204
0.435999	0.01949
0.391761	0.01857
0.347986	0.01765
0.303648	0.01671
0.259254	0.01583
0.215189	0.01485
0.171252	0.01348
0.127243	0.01144
0.085889	0.00962
