Adsorption isotherm of Carbon Dioxide on Aluminum formate
DOI: 10.1126/sciadv.ade1473
Article source: Figure 2A, S19
Adsorbate Carbon Dioxide: InChIKey CURLTUGMZLYLDI-UHFFFAOYSA-N
Kind: experiment
Isotherm type: excess
Temperature: 398 K
Tabular data in the source: 1
pressure (bar)	uptake (mmol/g)
0.001113	2.8e-05
0.00184	8.2e-05
0.003063	0.000179
0.004098	0.000271
0.005131	0.000361
0.00682	0.000533
0.0077	0.000613
0.008565	0.000685
0.01002	0.000821
0.011497	0.000962
0.014484	0.000692
0.016751	0.000805
0.019207	0.000964
0.021477	0.00112
0.022832	0.00118
0.02396	0.00119
0.027927	0.00142
0.032003	0.00164
0.033965	0.00174
0.036049	0.00187
0.040023	0.00205
0.046711	0.00243
0.053413	0.00275
0.059926	0.00314
0.063156	0.00326
0.066685	0.00352
0.073857	0.0038
0.081457	0.00425
0.087079	0.00449
0.092901	0.00494
0.099539	0.00524
0.106524	0.00573
0.113926	0.0061
0.121807	0.00646
0.130308	0.00703
0.138979	0.00759
0.148797	0.00812
0.159107	0.00849
0.169845	0.00941
0.182238	0.01012
0.194875	0.01075
0.207881	0.01184
0.222688	0.01263
0.237886	0.01345
0.254236	0.01454
0.272582	0.01581
0.291485	0.01741
0.31083	0.01863
0.331969	0.0203
0.363576	0.02277
0.395461	0.02476
0.427225	0.02721
0.458768	0.03011
0.490316	0.03202
0.52183	0.03461
0.554227	0.03647
0.584953	0.03877
0.616637	0.04025
0.647706	0.04307
0.679845	0.0457
0.711166	0.04775
0.742281	0.05021
0.774758	0.05191
0.806258	0.05375
0.83755	0.05649
0.86939	0.059
0.900669	0.06218
0.932916	0.06342
0.952606	0.06567
0.970784	0.06647
0.990724	0.06783
1.00908	0.06829
1.02873	0.07003
1.04658	0.07256
1.06703	0.07225
1.08546	0.07559
1.10455	0.076
1.12398	0.07832
1.14272	0.0792
1.16264	0.08098
1.18089	0.0818
1.19781	0.08266
1.15503	0.0805
1.11001	0.07913
1.06717	0.07755
1.02327	0.07344
0.977838	0.0692
0.932519	0.06725
0.886928	0.06413
0.843414	0.06157
0.800029	0.05857
0.755123	0.05557
0.710652	0.05242
0.66607	0.05022
0.622207	0.04727
0.577309	0.04364
0.532278	0.04075
0.488963	0.03779
0.444124	0.03488
0.400168	0.03161
0.355162	0.02862
0.311346	0.02547
0.266427	0.02228
0.222357	0.01932
0.177946	0.01615
0.133314	0.01321
0.080191	0.00916
0.047811	0.00674
0.028789	0.00514
0.017137	0.0041
0.010159	0.00363
0.00627	0.00278
0.003579	0.00229
0.002252	0.0019
0.002209	0.0018
0.001226	0.00152
0.000406	0.00126
0.000398	0.00116
0.000346	0.00108
0.000165	0.000496
0.000152	0.000426
9.4e-05	0.000474
