Adsorption isotherm of Nitrogen on Aluminum formate
DOI: 10.1126/sciadv.ade1473
Article source: Figure S20
Adsorbate Nitrogen: InChIKey IJGRMHOSHXDMSA-UHFFFAOYSA-N
Kind: experiment
Isotherm type: excess
Temperature: 273 K
Tabular data in the source: 1
pressure (bar)	uptake (mmol/g)
0.00119	3.4e-05
0.002117	0.000328
0.00241	0.000338
0.003029	0.000434
0.003481	0.000732
0.004007	0.000809
0.005976	0.00161
0.007194	0.00224
0.008792	0.00312
0.010212	0.0034
0.011715	0.00376
0.015484	0.00191
0.017936	0.00239
0.021175	0.00291
0.028132	0.00316
0.033282	0.00404
0.043481	0.00465
0.055245	0.0057
0.065976	0.0069
0.077488	0.00826
0.088767	0.00955
0.108539	0.01065
0.123519	0.01253
0.141963	0.01456
0.165859	0.01609
0.187681	0.01874
0.210459	0.02161
0.232551	0.02383
0.271439	0.02692
0.30238	0.03039
0.337159	0.03424
0.369965	0.03839
0.403914	0.04204
0.437356	0.04683
0.487911	0.05009
0.537019	0.05444
0.588038	0.05956
0.635868	0.0655
0.685156	0.07194
0.731947	0.07819
0.782046	0.08514
0.827918	0.09284
0.878826	0.0998
0.924798	0.10672
0.974043	0.11403
1.02086	0.12159
1.00086	0.12159
0.957894	0.12953
0.898255	0.13368
0.853309	0.13639
0.800838	0.1374
0.752963	0.13737
0.702312	0.13672
0.65304	0.13587
0.603028	0.13445
0.553728	0.13106
0.504123	0.12788
0.457027	0.12431
0.409553	0.12103
0.361783	0.11651
0.31347	0.11271
0.285565	0.10779
0.244229	0.10395
0.21174	0.09951
0.174061	0.09547
0.139122	0.09021
0.102697	0.08565
0.086409	0.08038
0.058068	0.07678
0.039078	0.0725
0.029004	0.06864
0.019563	0.06423
0.008735	0.06616
0.004104	0.05689
0.002826	0.05326
0.00256	0.05058
0.001772	0.04802
0.00124	0.04556
0.000607	0.04301
0.000318	0.04082
0.00015	0.03065
6.1e-05	0.02935
