Adsorption isotherm of Acetonitrile on Gd-Co
DOI: 10.1021/ic5021302
Article source: Figure 5b
Adsorbate Acetonitrile: InChIKey WEVYAHXRMPXWCK-UHFFFAOYSA-N
Kind: experiment
Temperature: 298 K
Tabular data in the source: 0
pressure (bar)	uptake (mol/mol)
0	0
0.000457	0.605096
0.002285	0.711253
0.005027	0.106157
0.007313	0.796178
0.010512	0.201699
0.013254	0.89172
0.015996	0.276008
0.019195	1.01911
0.022395	0.37155
0.028336	0.467091
0.02925	1.1465
0.03382	0.541401
0.036105	1.25265
0.042961	0.66879
0.043875	1.35881
0.047988	1.41189
0.049816	0.796178
0.054844	1.49682
0.055758	0.902335
0.06307	0.997877
0.064441	1.60297
0.071297	1.13588
0.076781	1.73036
0.079066	1.27389
0.083637	1.79406
0.085465	1.40127
0.09232	1.52866
0.092777	1.86837
0.099633	1.66667
0.101918	1.92144
0.105574	1.81529
0.113344	1.95329
