Adsorption isotherm of Acetonitrile on Er-Co
DOI: 10.1021/ic5021302
Article source: Figure 5b
Adsorbate Acetonitrile: InChIKey WEVYAHXRMPXWCK-UHFFFAOYSA-N
Kind: experiment
Temperature: 298 K
Tabular data in the source: 0
pressure (bar)	uptake (mol/mol)
0	0
0.001828	0.286624
0.004113	1.11465
0.005027	0.403397
0.006855	0.477707
0.00777	1.25265
0.010055	0.541401
0.01234	0.562633
0.013254	1.44374
0.015082	0.583864
0.017367	0.605096
0.019195	0.605096
0.020566	1.70913
0.021937	0.647558
0.02468	0.732484
0.025594	1.79406
0.02925	0.806794
0.031535	1.91083
0.031992	0.859873
0.037477	0.934183
0.037934	2.01699
0.043418	1.0828
0.044332	2.0913
0.048902	1.16773
0.049816	2.19745
0.054387	2.33546
0.054844	1.31635
0.059871	1.44374
0.06627	2.46285
0.066727	1.54989
0.072211	2.52654
0.072668	1.73036
0.078152	2.55839
0.079066	1.90021
0.08318	2.57962
0.085465	2.13376
0.088664	2.60085
0.089578	2.21868
0.095062	2.6327
0.098719	2.39915
0.104203	2.55839
0.108316	2.65393
