Adsorption isotherm of Methanol on La-Co
DOI: 10.1021/ic5021302
Article source: Figure 5c
Adsorbate Methanol: InChIKey OKKJLVBELUTLKV-UHFFFAOYSA-N
Kind: experiment
Temperature: 298 K
Tabular data in the source: 0
pressure (bar)	uptake (mol/mol)
0	0
0.008523	0.031847
0.01049	0.010616
0.01639	0.031847
0.029502	0.021231
0.03278	0.042463
0.050481	0.021231
0.058349	0.042463
0.070805	0.031847
0.082606	0.042463
0.095718	0.042463
0.10883	0.042463
0.121287	0.031847
0.133743	0.042463
0.145544	0.031847
