Adsorption isotherm of Acetonitrile on La-Co
DOI: 10.1021/ic5021302
Article source: Figure 5b
Adsorbate Acetonitrile: InChIKey WEVYAHXRMPXWCK-UHFFFAOYSA-N
Kind: experiment
Temperature: 298 K
Tabular data in the source: 0
pressure (bar)	uptake (mol/mol)
0	0
0.001371	0.010616
0.001828	0.307856
0.005941	0.021231
0.008227	0.392781
0.010969	0.063694
0.014625	0.456476
0.015082	0.095541
0.020109	0.127389
0.024223	0.615711
0.02468	0.169851
0.029707	0.201699
0.030164	0.679406
0.035191	0.265393
0.03702	0.764331
0.04159	0.307856
0.042504	0.806794
0.047988	0.859873
0.049359	0.37155
0.05393	0.912951
0.056215	0.456476
0.060328	0.955414
0.062156	0.530786
0.067184	0.987261
0.069012	0.59448
0.07541	0.66879
0.076781	1.05096
0.08318	1.07219
0.083637	0.753715
0.089578	0.838641
0.093691	1.11465
0.095062	0.89172
0.100547	0.987261
0.102375	1.12527
0.107859	1.07219
0.114715	1.1465
