Adsorption isotherm of Water on La-Co
DOI: 10.1021/ic5021302
Article source: Figure 5a
Adsorbate Water: InChIKey XLYOFNOQVPJJNP-UHFFFAOYSA-N
Kind: experiment
Temperature: 298 K
Tabular data in the source: 0
pressure (bar)	uptake (mol/mol)
0	0
0.000122	0.994898
0.000244	1.30102
0.000489	1.83673
0.000611	2.06633
0.000733	2.37245
0.000856	2.64031
0.000978	6.08418
0.001222	2.8699
0.001467	3.40561
0.001711	3.59694
0.001956	7.23214
0.002078	3.8648
0.002323	7.46173
0.002445	4.05612
0.002689	7.69133
0.002812	4.36224
0.002934	7.92092
0.003178	4.59184
0.003423	4.82143
0.003667	8.64796
0.003912	5.05102
0.004156	8.83929
0.004401	5.24235
0.004523	9.10714
0.005012	9.375
0.005257	9.56633
0.005379	5.66327
0.005746	9.79592
0.005868	5.85459
0.00599	10.0638
0.006357	6.08418
0.006723	10.3699
0.006968	6.35204
0.007335	10.676
0.007824	6.69643
0.007946	11.0204
0.008557	7.00255
0.009291	7.27041
0.009413	11.7092
0.010024	12.0536
0.010635	12.3597
0.01088	7.88265
0.011613	12.7423
0.011736	8.15051
0.012225	13.0867
0.012591	8.41837
0.013202	13.3929
0.013325	8.76276
0.013936	13.7372
0.014547	9.14541
0.014914	14.0434
0.015403	9.52806
0.016136	14.5026
0.016381	9.87245
0.017114	14.9235
0.017481	10.3316
0.018581	15.3444
0.019804	11.25
0.02017	15.727
0.020659	11.7092
0.02176	12.1684
0.021882	16.148
0.022738	12.6658
0.023716	13.0867
0.024449	16.6071
0.024571	13.5459
0.025427	14.0434
0.026283	14.5791
0.026772	17.0281
0.027016	15
0.027627	15.5357
0.028483	16.0714
0.028605	17.2959
0.028972	16.4541
0.029583	16.9898
0.030072	17.3724
