Adsorption isotherm of Water on Gd-Co
DOI: 10.1021/ic5021302
Article source: Figure 5a
Adsorbate Water: InChIKey XLYOFNOQVPJJNP-UHFFFAOYSA-N
Kind: experiment
Temperature: 298 K
Tabular data in the source: 0
pressure (bar)	uptake (mol/mol)
0	0
0.000244	1.22449
0.000367	1.37755
0.000489	4.43878
0.000611	4.82143
0.000733	5.05102
0.000856	2.64031
0.000978	2.94643
0.0011	5.7398
0.001345	6.16071
0.001467	3.44388
0.001711	6.6199
0.001956	3.94133
0.002078	6.84949
0.002323	7.07908
0.002567	7.30867
0.002689	4.40051
0.002934	7.53827
0.003178	7.76786
0.003423	4.93622
0.003545	7.99745
0.00379	5.12755
0.003912	8.18878
0.004156	8.41837
0.004401	5.39541
0.004645	8.68622
0.004768	5.625
0.005012	8.95408
0.005257	5.81633
0.005501	9.14541
0.005746	9.375
0.006357	6.27551
0.006846	9.71939
0.00709	6.54337
0.007579	10.0638
0.007946	6.88776
0.00819	10.3699
0.008924	7.27041
0.009168	10.7143
0.009902	7.53827
0.010269	11.0587
0.011002	7.80612
0.011247	11.4413
0.012225	8.11224
0.012591	11.7092
0.013569	8.4949
0.014058	12.0918
0.015158	8.83929
0.015403	12.398
0.016625	9.14541
0.018337	12.9337
0.018459	9.64286
0.020537	10.0255
0.021393	13.2398
0.022126	10.4464
0.023593	10.9056
0.024082	13.5077
0.024938	11.2883
0.026038	11.6709
0.027138	12.1301
0.02775	13.7372
0.028239	12.5893
0.029217	12.9719
0.02995	13.3929
0.030928	13.8138
