Adsorption isotherm of Water on Er-Co
DOI: 10.1021/ic5021302
Article source: Figure 5a
Adsorbate Water: InChIKey XLYOFNOQVPJJNP-UHFFFAOYSA-N
Kind: experiment
Temperature: 298 K
Tabular data in the source: 0
pressure (bar)	uptake (mol/mol)
0	0
0.000122	0.267857
0.000244	1.60714
0.000367	2.14286
0.000489	2.67857
0.000611	2.98469
0.000733	3.48214
0.000856	6.31378
0.001222	3.97959
0.001345	7.11735
0.001589	4.47704
0.001834	7.69133
0.001956	4.82143
0.002078	8.26531
0.002323	5.05102
0.002445	8.4949
0.002812	8.91582
0.003178	9.06888
0.003301	9.375
0.003423	6.04592
0.003667	6.31378
0.003912	9.79592
0.004034	6.58163
0.004279	6.84949
0.004401	10.0255
0.004768	7.11735
0.00489	10.2551
0.005134	10.4847
0.005257	7.30867
0.005501	7.57653
0.005623	10.7526
0.005868	7.80612
0.006112	10.9439
0.006479	8.07398
0.006846	8.3801
0.00709	11.2883
0.007457	8.80102
0.007946	11.5944
0.008313	9.14541
0.008679	11.9388
0.009168	9.45153
0.00978	12.2449
0.010146	9.79592
0.011002	10.1403
0.011247	12.551
0.01198	10.4464
0.012225	12.8954
0.012958	10.7908
0.013447	13.2781
0.01418	11.0969
0.014914	13.6224
0.015281	11.4413
0.016503	11.7092
0.01687	14.0434
0.017848	12.2066
0.018826	14.5026
0.020048	12.7423
0.022126	13.2398
0.02396	13.7755
0.025427	15.4592
0.026038	14.3112
0.027872	14.8469
0.028361	15.8036
0.029461	15.3827
0.030684	15.9566
