Adsorption isotherm of Methanol on Er-Co
DOI: 10.1021/ic5021302
Article source: Figure 5c
Adsorbate Methanol: InChIKey OKKJLVBELUTLKV-UHFFFAOYSA-N
Kind: experiment
Temperature: 298 K
Tabular data in the source: 0
pressure (bar)	uptake (mol/mol)
0	0
0.001967	0.414013
0.0059	0.806794
0.007212	1.63482
0.013112	1.77282
0.015734	1.15711
0.021635	1.27389
0.025569	1.97452
0.033436	2.05945
0.034747	1.45435
0.039992	1.51805
0.042614	2.12314
0.051137	2.16561
0.057037	1.6879
0.060316	2.19745
0.069494	1.77282
0.071461	2.25053
0.087851	1.8896
0.091784	2.29299
0.106863	2.01699
0.121942	2.13376
0.123253	2.34607
0.133743	2.21868
0.140299	2.37792
0.149478	2.33546
0.164556	2.39915
