Adsorption isotherm of Methanol on Gd-Co
DOI: 10.1021/ic5021302
Article source: Figure 5c
Adsorbate Methanol: InChIKey OKKJLVBELUTLKV-UHFFFAOYSA-N
Kind: experiment
Temperature: 298 K
Tabular data in the source: 0
pressure (bar)	uptake (mol/mol)
0	0
0.002622	0.583864
0.008523	0.14862
0.013112	0.212314
0.015079	0.711253
0.018357	0.233546
0.028846	0.286624
0.033436	0.350318
0.039992	0.764331
0.042614	0.392781
0.057037	0.435244
0.064249	0.477707
0.06556	0.796178
0.078672	0.573248
0.085228	0.81741
0.100307	0.636943
0.110141	0.81741
0.118009	0.700637
0.133743	0.828025
0.135054	0.732484
0.150789	0.774947
0.165868	0.838641
