Adsorption isotherm of Nitrogen on 1ABMOF
DOI: 10.1016/j.ijhydene.2011.04.008
Adsorbate Nitrogen: InChIKey IJGRMHOSHXDMSA-UHFFFAOYSA-N
Temperature: 77 K
Tabular data in the source: 0
pressure (bar)	uptake (cm3(STP)/g)
0.0778259	4.36893
0.131136	2.91262
0.180307	4.36893
0.225399	4.36893
0.274589	4.36893
0.319661	5.82524
0.37707	4.36893
0.422162	4.36893
0.467234	5.82524
0.520524	5.82524
0.569735	4.36893
0.614806	5.82524
0.659898	5.82524
0.709089	5.82524
0.766478	5.82524
0.803372	5.82524
0.840205	10.1942
0.905753	13.1068
0.950825	14.5631
0.971042	34.9515
