Adsorption isotherm of Nitrogen on Zn-MOF-74
DOI: 10.1016/j.ijhydene.2011.04.008
Adsorbate Nitrogen: InChIKey IJGRMHOSHXDMSA-UHFFFAOYSA-N
Temperature: 77 K
Tabular data in the source: 0
pressure (bar)	uptake (cm3(STP)/g)
0.000696473	249.029
0.0211131	254.854
0.0620259	260.68
0.107078	263.592
0.160348	265.049
0.213618	266.505
0.266888	267.961
0.316079	267.961
0.36527	267.961
0.410362	267.961
0.463632	269.417
0.512823	269.417
0.557915	269.417
0.607086	270.874
0.660376	270.874
0.705467	270.874
0.754638	272.33
0.79973	272.33
0.840702	273.786
0.889893	273.786
0.939064	275.243
0.96356	282.524
