Adsorption isotherm of Hydrogen on 1ABMOF
DOI: 10.1016/j.ijhydene.2011.04.008
Adsorbate Hydrogen: InChIKey UFHFLCQGNIYNRP-UHFFFAOYSA-N
Temperature: 77 K
Tabular data in the source: 0
pressure (bar)	uptake (wt%)
2.28137	0.0242718
3.61217	0.0242718
5.22814	0.0242718
7.22433	0.0242718
10.3612	0.0485437
12.8327	0.0242718
17.3954	0.0485437
19.962	0.0485437
22.7186	0.0606796
