Adsorption isotherm of Hydrogen on Zn-MOF-74
DOI: 10.1016/j.ijhydene.2011.04.008
Adsorbate Hydrogen: InChIKey UFHFLCQGNIYNRP-UHFFFAOYSA-N
Temperature: 77 K
Tabular data in the source: 0
pressure (bar)	uptake (wt%)
0.095057	0.92233
0.285171	1.18932
0.380228	1.27427
0.475285	1.3835
0.665399	1.46845
0.95057	1.57767
1.14068	1.66262
1.71103	1.80825
2.18631	1.90534
3.13688	1.99029
4.27757	2.06311
5.79848	2.14806
7.60456	2.18447
9.79087	2.20874
11.692	2.20874
15.1141	2.20874
20.7224	2.1966
24.4297	2.17233
