Adsorption isotherm of Ammonia on Zeolite 4A
DOI: 10.1002/aic.690460807
Adsorbate Ammonia: InChIKey QGZKDVFQNNGYKY-UHFFFAOYSA-N
Temperature: 323 K
Tabular data in the source: 0
pressure (bar)	uptake (mmol/g)
0.0112524	0.0381654
0.0112524	3.48605
0.0126608	1.15366
0.0605481	5.59028
0.215478	6.66774
0.36759	7.12408
0.478858	7.3269
0.72252	7.63112
0.968999	7.83394
