Adsorption isotherm of Ammonia on Zeolite 13X
DOI: 10.1002/aic.690460807
Adsorbate Ammonia: InChIKey QGZKDVFQNNGYKY-UHFFFAOYSA-N
Temperature: 343 K
Tabular data in the source: 0
pressure (bar)	uptake (mmol/g)
0.0137359	1.55351
0.0194565	3.92755
0.129577	5.57221
0.422757	6.33019
0.708785	6.67342
0.969071	6.88794
