Adsorption isotherm of Ammonia on Zeolite 4A
DOI: 10.1002/aic.690460807
Adsorbate Ammonia: InChIKey QGZKDVFQNNGYKY-UHFFFAOYSA-N
Temperature: 393 K
Tabular data in the source: 0
pressure (bar)	uptake (mmol/g)
0.00702701	0.0508414
0.00984391	0.507179
0.0126608	1.43253
0.0408298	2.47197
0.112661	3.25788
0.239421	3.86633
0.447872	4.34802
0.702802	4.72831
0.968999	4.9945
