Adsorption isotherm of Ammonia on Alumina
DOI: 10.1002/aic.690460807
Adsorbate Ammonia: InChIKey QGZKDVFQNNGYKY-UHFFFAOYSA-N
Temperature: 298 K
Tabular data in the source: 0
pressure (bar)	uptake (mmol/g)
0.00702701	0.601462
0.00843546	0.00498294
0.0295622	1.47893
0.152097	1.99653
0.270407	2.25287
0.478858	2.55357
0.721112	2.78033
0.978858	2.96766
