Adsorption isotherm of Ammonia on Zeolite 13X
DOI: 10.1002/aic.690460807
Adsorbate Ammonia: InChIKey QGZKDVFQNNGYKY-UHFFFAOYSA-N
Temperature: 323 K
Tabular data in the source: 0
pressure (bar)	uptake (mmol/g)
0.00801532	1.16737
0.00801532	3.4127
0.065221	5.98695
0.304055	7.00236
0.465661	7.28838
0.584363	7.4743
0.687333	7.57441
0.974792	7.78893
