Adsorption isotherm of Ammonia on Carbon
DOI: 10.1002/aic.690460807
Adsorbate Ammonia: InChIKey QGZKDVFQNNGYKY-UHFFFAOYSA-N
Temperature: 298 K
Tabular data in the source: 0
pressure (bar)	uptake (mmol/g)
0.0478721	0.1015
0.0999848	0.152204
0.190126	0.278965
0.2859	0.405725
0.474633	0.676148
0.721112	1.02263
0.963365	1.34375
