Adsorption isotherm of Ammonia on Zeolite 4A
DOI: 10.1002/aic.690460807
Adsorbate Ammonia: InChIKey QGZKDVFQNNGYKY-UHFFFAOYSA-N
Temperature: 393 K
Tabular data in the source: 0
pressure (bar)	uptake (mmol/g)
0.00702701	0.0761935
0.00702701	0.557884
0.0140693	1.50859
0.0422383	2.51
0.119703	3.30859
0.245055	3.91704
0.446464	4.33535
0.705619	4.71563
0.973224	4.93112
