Adsorption isotherm of Ammonia on Carbon
DOI: 10.1002/aic.690460807
Adsorbate Ammonia: InChIKey QGZKDVFQNNGYKY-UHFFFAOYSA-N
Temperature: 343 K
Tabular data in the source: 0
pressure (bar)	uptake (mmol/g)
0.0492805	0.109951
0.0999848	0.152204
0.188717	0.270514
0.294351	0.414176
0.473224	0.667697
0.714069	1.01418
0.96759	1.34375
