Adsorption isotherm of Ammonia on Alumina
DOI: 10.1002/aic.690460807
Adsorbate Ammonia: InChIKey QGZKDVFQNNGYKY-UHFFFAOYSA-N
Temperature: 343 K
Tabular data in the source: 0
pressure (bar)	uptake (mmol/g)
0.0126608	0.601462
0.0746326	0.97118
0.176041	1.21766
0.288717	1.34583
0.495759	1.50357
0.735196	1.65146
0.97745	1.75005
