Adsorption isotherm of Ammonia on Zeolite 4A
DOI: 10.1002/aic.690460807
Adsorbate Ammonia: InChIKey QGZKDVFQNNGYKY-UHFFFAOYSA-N
Temperature: 298 K
Tabular data in the source: 0
pressure (bar)	uptake (mmol/g)
0.00702701	0.735348
0.00702701	2.06633
0.00843546	4.47479
0.0859002	7.18746
0.408435	8.25225
0.726745	8.53112
0.983083	8.68324
