Adsorption isotherm of Ammonia on Carbon
DOI: 10.1002/aic.690460807
Adsorbate Ammonia: InChIKey QGZKDVFQNNGYKY-UHFFFAOYSA-N
Temperature: 323 K
Tabular data in the source: 0
pressure (bar)	uptake (mmol/g)
0.00984391	0.118401
0.0436467	0.236711
0.0887171	0.329669
0.178858	0.540937
0.284492	0.769106
0.45914	1.20009
0.692943	1.74939
0.943647	2.34094
