Adsorption isotherm of Ammonia on Zeolite 13X
DOI: 10.1002/aic.690460807
Adsorbate Ammonia: InChIKey QGZKDVFQNNGYKY-UHFFFAOYSA-N
Temperature: 298 K
Tabular data in the source: 0
pressure (bar)	uptake (mmol/g)
0.00372489	1.86814
0.00801532	0.137669
0.00801532	0.581013
0.00801532	4.22788
0.0780923	7.73173
0.120997	7.84614
0.401305	8.83294
0.637278	9.01886
0.944759	9.31919
