Adsorption isotherm of Ammonia on Zeolite 4A
DOI: 10.1002/aic.690460807
Adsorbate Ammonia: InChIKey QGZKDVFQNNGYKY-UHFFFAOYSA-N
Temperature: 393 K
Tabular data in the source: 0
pressure (bar)	uptake (mmol/g)
0.00561856	0.0254893
0.00843546	0.507179
0.0394214	2.48464
0.112661	3.30859
0.239421	3.89169
0.44083	4.3607
0.702802	4.69028
0.968999	4.98183
