Adsorption isotherm of Ammonia on Alumina
DOI: 10.1002/aic.690460807
Adsorbate Ammonia: InChIKey QGZKDVFQNNGYKY-UHFFFAOYSA-N
Temperature: 393 K
Tabular data in the source: 0
pressure (bar)	uptake (mmol/g)
0.00421011	5.34e-05
0.00421011	0.133152
0.0394214	0.39442
0.0844918	0.527518
0.180266	0.631039
0.287309	0.704983
0.478858	0.798645
0.74083	0.872589
0.983083	0.951462
