Adsorption isotherm of Ammonia on Silica Gel
DOI: 10.1002/aic.690460807
Adsorbate Ammonia: InChIKey QGZKDVFQNNGYKY-UHFFFAOYSA-N
Temperature: 323 K
Tabular data in the source: 0
pressure (bar)	uptake (mmol/g)
0.00139321	0.60571
0.00702701	1.54937
0.0704073	2.45078
0.290126	3.06346
0.519703	3.38036
0.773224	3.61979
0.978858	3.78881
