Adsorption isotherm of Ammonia on Carbon
DOI: 10.1002/aic.690460807
Adsorbate Ammonia: InChIKey QGZKDVFQNNGYKY-UHFFFAOYSA-N
Temperature: 393 K
Tabular data in the source: 0
pressure (bar)	uptake (mmol/g)
0.00843546	0.00835923
0.050689	0.042345
0.0985763	0.0761478
0.192943	0.126852
0.291534	0.160655
0.484492	0.211359
0.735196	0.355021
0.980266	0.45643
