Adsorption isotherm of Ammonia on Zeolite 13X
DOI: 10.1002/aic.690460807
Adsorbate Ammonia: InChIKey QGZKDVFQNNGYKY-UHFFFAOYSA-N
Temperature: 393 K
Tabular data in the source: 0
pressure (bar)	uptake (mmol/g)
0.00515504	0.0947643
0.00658518	0.666821
0.065221	2.72623
0.208235	3.64152
0.434198	4.25648
0.700205	4.65692
0.964781	4.84284
