Adsorption isotherm of Ammonia on Alumina
DOI: 10.1002/aic.690460807
Adsorbate Ammonia: InChIKey QGZKDVFQNNGYKY-UHFFFAOYSA-N
Temperature: 323 K
Tabular data in the source: 0
pressure (bar)	uptake (mmol/g)
0.00421011	0.680335
0.00561856	0.133152
0.050689	1.11907
0.14083	1.41977
0.236604	1.58245
0.380266	1.75498
0.532379	1.90287
0.730971	2.0409
0.973224	2.174
