Adsorption isotherm of Ammonia on Zeolite 4A
DOI: 10.1002/aic.690460807
Adsorbate Ammonia: InChIKey QGZKDVFQNNGYKY-UHFFFAOYSA-N
Temperature: 323 K
Tabular data in the source: 0
pressure (bar)	uptake (mmol/g)
0.00561856	1.12831
0.00702701	3.47338
0.0591397	5.65366
0.214069	6.68042
0.361957	7.1114
0.473224	7.36493
0.718295	7.6438
0.973224	7.85929
