Adsorption isotherm of Ammonia on Zeolite 4A
DOI: 10.1002/aic.690460807
Adsorbate Ammonia: InChIKey QGZKDVFQNNGYKY-UHFFFAOYSA-N
Temperature: 343 K
Tabular data in the source: 0
pressure (bar)	uptake (mmol/g)
0.00702701	1.6607
0.0154777	3.27056
0.0591397	4.72831
0.198576	5.80577
0.44083	6.40155
0.708435	6.76915
0.968999	6.97197
