Adsorption isotherm of Ammonia on Zeolite 4A
DOI: 10.1002/aic.690460807
Adsorbate Ammonia: InChIKey QGZKDVFQNNGYKY-UHFFFAOYSA-N
Temperature: 343 K
Tabular data in the source: 0
pressure (bar)	uptake (mmol/g)
0.00984391	1.62267
0.0168862	3.18183
0.0591397	4.71563
0.20421	5.80577
0.443647	6.33817
0.712661	6.7438
0.978858	6.98464
