Adsorption isotherm of Ammonia on Zeolite 4A
DOI: 10.1002/aic.690460807
Adsorbate Ammonia: InChIKey QGZKDVFQNNGYKY-UHFFFAOYSA-N
Temperature: 343 K
Tabular data in the source: 0
pressure (bar)	uptake (mmol/g)
0.00984391	1.63535
0.0168862	3.18183
0.0675904	4.74098
0.209844	5.78042
0.433788	6.35084
0.714069	6.7438
0.971816	6.94662
