Adsorption isotherm of Ammonia on Zeolite 4A
DOI: 10.1002/aic.690460807
Adsorbate Ammonia: InChIKey QGZKDVFQNNGYKY-UHFFFAOYSA-N
Temperature: 298 K
Tabular data in the source: 0
pressure (bar)	uptake (mmol/g)
0.00561856	2.06633
0.00702701	0.735348
0.00702701	4.57619
0.0887171	7.21281
0.40421	8.32831
0.728154	8.5438
0.97745	8.73394
