Adsorption isotherm of Ammonia on Silica Gel
DOI: 10.1002/aic.690460807
Adsorbate Ammonia: InChIKey QGZKDVFQNNGYKY-UHFFFAOYSA-N
Temperature: 393 K
Tabular data in the source: 0
pressure (bar)	uptake (mmol/g)
0.00843546	0.0845833
0.0253369	0.366273
0.0760411	0.662048
0.171816	0.873316
0.274633	1.07754
0.463365	1.36627
0.714069	1.59867
0.978858	1.71839
