Adsorption isotherm of Ammonia on Zeolite 4A
DOI: 10.1002/aic.690460807
Adsorbate Ammonia: InChIKey QGZKDVFQNNGYKY-UHFFFAOYSA-N
Temperature: 298 K
Tabular data in the source: 0
pressure (bar)	uptake (mmol/g)
0.00139321	2.07901
0.00561856	0.000137
0.00984391	4.60155
0.091534	7.20014
0.411252	8.30295
0.729562	8.53112
0.9859	8.67056
