Adsorption isotherm of Ammonia on Silica Gel
DOI: 10.1002/aic.690460807
Adsorbate Ammonia: InChIKey QGZKDVFQNNGYKY-UHFFFAOYSA-N
Temperature: 298 K
Tabular data in the source: 0
pressure (bar)	uptake (mmol/g)
0.00421011	0.0352875
0.00561856	1.13388
0.00702701	0.267682
0.0211115	2.65501
0.154914	3.44374
0.449281	4.14796
0.939421	4.8381
