Adsorption isotherm of Ammonia on Zeolite 4A
DOI: 10.1002/aic.690460807
Adsorbate Ammonia: InChIKey QGZKDVFQNNGYKY-UHFFFAOYSA-N
Temperature: 323 K
Tabular data in the source: 0
pressure (bar)	uptake (mmol/g)
0.00561856	0.0508414
0.00561856	1.17901
0.00984391	3.4607
0.0563228	5.74239
0.212661	6.70577
0.361957	7.13676
0.476041	7.40295
0.716886	7.66915
0.973224	7.88464
