Adsorption isotherm of Ammonia on Silica Gel
DOI: 10.1002/aic.690460807
Adsorbate Ammonia: InChIKey QGZKDVFQNNGYKY-UHFFFAOYSA-N
Temperature: 343 K
Tabular data in the source: 0
pressure (bar)	uptake (mmol/g)
0.00561856	0.218386
0.00561856	0.662048
0.0197031	1.2536
0.14083	2.0705
0.268999	2.39444
0.481675	2.64796
0.716886	2.83106
0.981675	3.00712
