Adsorption isotherm of N-Hexane on CuBTC
DOI: 10.1016/j.micromeso.2013.09.005
Adsorbate N-Hexane: InChIKey VLKZOEOYAKHREP-UHFFFAOYSA-N
Temperature: 313 K
Tabular data in the source: 0
pressure (bar)	uptake (mmol/g)
0.00152231	0.554403
0.0031225	1.10222
0.00375831	1.6691
0.00576611	3.6527
0.00719702	4.05782
0.0134751	4.86844
0.0251978	5.19352
0.0399354	5.53846
0.0598741	5.74166
0.100225	5.90464
0.155893	6.10792
0.233701	6.27066
0.331562	6.45351
0.377178	6.53472
