Adsorption isotherm of Benzene on UiO-66(Zr)
DOI: 10.1016/j.micromeso.2013.09.005
Adsorbate Benzene: InChIKey UHOVQNZJYSORNB-UHFFFAOYSA-N
Temperature: 313 K
Tabular data in the source: 0
pressure (bar)	uptake (mmol/g)
0.000134711	0.61181
0.000183483	0.893581
0.000286019	1.21911
0.000541795	2.45121
0.000814995	3.96256
0.00106796	4.20102
0.00127047	4.28809
0.00183271	4.41918
0.00222287	4.54947
0.00244791	4.59304
0.0131013	5.05373
0.0385585	5.23129
0.0786669	5.27776
0.129882	5.45261
0.190977	5.5191
0.231572	5.54157
