Adsorption isotherm of N-Hexane on UiO-66(Zr)
DOI: 10.1016/j.micromeso.2013.09.005
Adsorbate N-Hexane: InChIKey VLKZOEOYAKHREP-UHFFFAOYSA-N
Temperature: 313 K
Tabular data in the source: 0
pressure (bar)	uptake (mmol/g)
0.00147748	1.83307
0.00302345	2.07372
0.00377366	2.14696
0.00587669	2.21995
0.00720996	2.26171
0.0142526	2.37642
0.0250088	2.49126
0.038296	2.60626
0.0586497	2.75276
0.0945322	2.90969
0.155012	3.10861
0.229544	3.34963
0.31721	3.34926
0.345394	3.34916
