Adsorption isotherm of Benzene on CuBTC
DOI: 10.1016/j.micromeso.2013.09.005
Adsorbate Benzene: InChIKey UHOVQNZJYSORNB-UHFFFAOYSA-N
Temperature: 313 K
Tabular data in the source: 0
pressure (bar)	uptake (mmol/g)
7.09554e-05	0.409
0.000202309	0.443311
0.000885757	0.709541
0.00314308	0.931442
0.0164307	1.33011
0.118051	1.77325
0.676551	2.12795
2.08412	2.31663
9.98722	2.59398
33.9426	2.81583
139.616	3.1481
324.881	3.33644
545.676	3.45827
786.185	3.51381
