Adsorption isotherm of Benzene on CuBTC
DOI: 10.1016/j.micromeso.2013.09.005
Adsorbate Benzene: InChIKey UHOVQNZJYSORNB-UHFFFAOYSA-N
Temperature: 313 K
Tabular data in the source: 0
pressure (bar)	uptake (mmol/g)
0.00736266	0.899402
0.0440858	1.37537
0.0856355	1.54146
0.272341	1.81832
0.404148	1.89593
1.09998	2.04038
2.02549	2.11824
4.2046	2.22931
9.42377	2.37353
21.121	2.51774
48.7579	2.68403
111.479	2.88337
250.435	3.0937
436.712	3.25966
