Adsorption isotherm of Benzene on UiO-66(Zr)
DOI: 10.1016/j.micromeso.2013.09.005
Adsorbate Benzene: InChIKey UHOVQNZJYSORNB-UHFFFAOYSA-N
Temperature: 313 K
Tabular data in the source: 0
pressure (bar)	uptake (mmol/g)
3.63307e-05	0.519421
0.000127363	1.32314
0.000214776	2.27437
0.000376951	3.82957
0.000513576	4.24072
0.00100887	4.56733
0.00509958	5.30807
0.0102184	5.87197
0.0234113	6.06992
0.0496555	6.24595
0.0975582	6.63725
0.151978	6.68246
0.191493	6.64041
0.241297	6.61993
