Adsorption isotherm of N-Hexane on CuBTC
DOI: 10.1016/j.micromeso.2013.09.005
Adsorbate N-Hexane: InChIKey VLKZOEOYAKHREP-UHFFFAOYSA-N
Temperature: 313 K
Tabular data in the source: 0
pressure (bar)	uptake (mmol/g)
5.16895e-05	0.526741
0.000209022	0.52981
0.000233412	0.550284
0.000629858	0.532233
0.00348572	1.00131
0.00427349	1.58846
0.00743606	2.50008
0.0107702	3.55292
0.026597	4.76878
0.0516193	5.25578
0.078844	5.53995
0.100156	5.64163
0.197853	5.86567
0.319118	5.88695
0.397887	5.88744
