Adsorption isotherm of N-Hexane on UiO-66(Zr)
DOI: 10.1016/j.micromeso.2013.09.005
Adsorbate N-Hexane: InChIKey VLKZOEOYAKHREP-UHFFFAOYSA-N
Temperature: 313 K
Tabular data in the source: 0
pressure (bar)	uptake (mmol/g)
7.48208e-05	0.965079
0.000184541	1.07954
0.000404001	1.17313
0.000930685	1.24567
0.0018713	1.34986
0.00409641	1.43296
0.00659998	1.49541
0.0115905	1.79923
0.0262599	1.95577
0.0501788	2.10202
0.0808533	2.18546
0.106202	2.25864
0.209911	2.34186
0.305333	2.38342
