Adsorption isotherm of N-propane, Ethene on Zeolite 13X
DOI: 10.1021/je00002a020
Article source: Table III
Adsorbate N-propane: InChIKey ATUOYWHBWRKTHZ-UHFFFAOYSA-N
Adsorbate Ethene: InChIKey VGGSQFUCUMXWEO-UHFFFAOYSA-N
Kind: experiment
Temperature: 293 K
Tabular data in the source: 0
pressure (bar)	N-propane fraction	N-propane uptake (mmol/g)	Ethene fraction	Ethene uptake (mmol/g)	total uptake (mmol/g)
0.0111	0.279279	0.2258	0.720721	0.4491	
0.0334	0.227545	0.4484	0.772455	0.8809	
0.067	0.208955	0.5918	0.791045	1.1467	
0.1492	0.212466	0.7189	0.787534	1.3572	
0.3149	0.243887	0.8049	0.756113	1.4836	
0.5391	0.269523	0.8563	0.730477	1.5586	
0.7988	0.285929	0.8856	0.714071	1.6014	
