Adsorption isotherm of Ethene on Zeolite 13X
DOI: 10.1021/je00002a020
Article source: Table I
Adsorbate Ethene: InChIKey VGGSQFUCUMXWEO-UHFFFAOYSA-N
Kind: experiment
Temperature: 293 K
Tabular data in the source: 0
pressure (bar)	uptake (mmol/g)
0.0023	0.1583
0.0147	0.7082
0.0224	0.9576
0.0333	1.1866
0.0685	1.6298
0.0956	1.8345
0.1352	2.0186
0.2057	2.2204
0.3826	2.4964
0.6256	2.6031
0.8638	2.6415
