Adsorption isotherm of Propene, Ethene on Zeolite 13X
DOI: 10.1021/je00002a020
Article source: Table V
Adsorbate Propene: InChIKey QQONPFPTGQHPMA-UHFFFAOYSA-N
Adsorbate Ethene: InChIKey VGGSQFUCUMXWEO-UHFFFAOYSA-N
Kind: experiment
Temperature: 293 K
Tabular data in the source: 0
pressure (bar)	Propene fraction	Propene uptake (mmol/g)	Ethene fraction	Ethene uptake (mmol/g)	total uptake (mmol/g)
0.0059	0.288136	1.2344	0.711864	0.1141	
0.0612	0.46732	2.007	0.53268	0.1315	
0.3431	0.725444	2.3204	0.274556	0.0707	
0.5487	0.78039	2.3961	0.21961	0.0591	
0.7202	0.805193	2.437	0.194807	0.0544	
0.8652	0.819464	2.4756	0.180536	0.0507	
