Adsorption isotherm of Carbon Dioxide, Ethene on Zeolite 13X
DOI: 10.1021/je00002a020
Article source: Table IV
Adsorbate Carbon Dioxide: InChIKey CURLTUGMZLYLDI-UHFFFAOYSA-N
Adsorbate Ethene: InChIKey VGGSQFUCUMXWEO-UHFFFAOYSA-N
Kind: experiment
Temperature: 293 K
Tabular data in the source: 0
pressure (bar)	Carbon Dioxide fraction	Carbon Dioxide uptake (mmol/g)	Ethene fraction	Ethene uptake (mmol/g)	total uptake (mmol/g)
0.0073	0.082192	0.1429	0.917808	0.2784	
0.0282	0.166667	0.3555	0.833333	0.6905	
0.0631	0.196513	0.5626	0.803487	1.0872	
0.1397	0.193271	0.7545	0.806729	1.4233	
0.2288	0.193619	0.8764	0.806381	1.612	
0.456	0.193421	1.0269	0.806579	1.7732	
0.762	0.194751	1.1566	0.805249	1.8458	
0.9285	0.1972	1.2231	0.8028	1.8845	
