Adsorption isotherm of Carbon Dioxide, Ethene on Zeolite 13X
DOI: 10.1021/je00002a020
Article source: Table IV
Adsorbate Carbon Dioxide: InChIKey CURLTUGMZLYLDI-UHFFFAOYSA-N
Adsorbate Ethene: InChIKey VGGSQFUCUMXWEO-UHFFFAOYSA-N
Kind: experiment
Temperature: 293 K
Tabular data in the source: 0
pressure (bar)	Carbon Dioxide fraction	Carbon Dioxide uptake (mmol/g)	Ethene fraction	Ethene uptake (mmol/g)	total uptake (mmol/g)
0.0061	0.393443	0.2874	0.606557	0.1401	
0.024	0.4875	0.7136	0.5125	0.3473	
0.0515	0.52233	1.127	0.47767	0.5471	
0.1128	0.545213	1.5125	0.454787	0.7259	
0.2283	0.543583	1.8552	0.456417	0.8653	
0.4379	0.537337	2.1187	0.462663	0.9341	
0.6574	0.531792	2.2994	0.468208	0.9544	
