Adsorption isotherm of Carbon Dioxide, Ethene on Zeolite 13X
DOI: 10.1021/je00002a020
Article source: Table IV
Adsorbate Carbon Dioxide: InChIKey CURLTUGMZLYLDI-UHFFFAOYSA-N
Adsorbate Ethene: InChIKey VGGSQFUCUMXWEO-UHFFFAOYSA-N
Kind: experiment
Temperature: 293 K
Tabular data in the source: 0
pressure (bar)	Carbon Dioxide fraction	Carbon Dioxide uptake (mmol/g)	Ethene fraction	Ethene uptake (mmol/g)	total uptake (mmol/g)
0.0068	0.764706	0.4972	0.235294	0.0537	
0.0285	0.831579	1.1458	0.168421	0.1241	
0.0676	0.850592	1.7592	0.149408	0.1899	
0.0884	0.856335	1.9537	0.143665	0.2108	
0.1451	0.858718	2.3217	0.141282	0.2483	
0.1911	0.850863	2.4882	0.149137	0.2611	
0.2976	0.852823	2.7862	0.147177	0.2867	
