Adsorption isotherm of N-propane, Carbon Dioxide on Zeolite 13X
DOI: 10.1021/je00002a020
Article source: Table VI
Adsorbate N-propane: InChIKey ATUOYWHBWRKTHZ-UHFFFAOYSA-N
Adsorbate Carbon Dioxide: InChIKey CURLTUGMZLYLDI-UHFFFAOYSA-N
Kind: experiment
Temperature: 293 K
Tabular data in the source: 0
pressure (bar)	N-propane fraction	N-propane uptake (mmol/g)	Carbon Dioxide fraction	Carbon Dioxide uptake (mmol/g)	total uptake (mmol/g)
0.0042	0.738095	0.2219	0.261905	0.2247	
0.0152	0.552632	0.5941	0.447368	0.5963	
0.0418	0.480861	0.9591	0.519139	0.9564	
0.1034	0.532882	1.2019	0.467118	1.2118	
0.2949	0.600882	1.3279	0.399118	1.4155	
0.6389	0.62545	1.3192	0.37455	1.5568	
0.9383	0.634019	1.3063	0.365981	1.6793	
