Adsorption isotherm of Propene on Zeolite 13X
DOI: 10.1021/je00002a020
Article source: Table I
Adsorbate Propene: InChIKey QQONPFPTGQHPMA-UHFFFAOYSA-N
Kind: experiment
Temperature: 293 K
Tabular data in the source: 0
pressure (bar)	uptake (mmol/g)
0.0002	0.8322
0.0019	1.4104
0.0038	1.6529
0.0105	1.8908
0.0344	2.1005
0.1016	2.2394
0.2832	2.3613
0.5003	2.4257
0.7177	2.4728
