Adsorption isotherm of N-propane, Ethene on Zeolite 13X
DOI: 10.1021/je00002a020
Article source: Table III
Adsorbate N-propane: InChIKey ATUOYWHBWRKTHZ-UHFFFAOYSA-N
Adsorbate Ethene: InChIKey VGGSQFUCUMXWEO-UHFFFAOYSA-N
Kind: experiment
Temperature: 293 K
Tabular data in the source: 0
pressure (bar)	N-propane fraction	N-propane uptake (mmol/g)	Ethene fraction	Ethene uptake (mmol/g)	total uptake (mmol/g)
0.009	0.888889	0.6872	0.111111	0.0762	
0.0168	0.869048	1.0641	0.130952	0.1174	
0.0358	0.857542	1.426	0.142458	0.1565	
0.1077	0.890436	1.7131	0.109564	0.1887	
0.2399	0.90496	1.8402	0.09504	0.2065	
0.4704	0.911777	1.9127	0.088223	0.2217	
0.7768	0.915551	1.9559	0.084449	0.2373	
