Adsorption isotherm of Carbon Dioxide, Propene on Zeolite 13X
DOI: 10.1021/je00002a020
Article source: Table VIII
Adsorbate Carbon Dioxide: InChIKey CURLTUGMZLYLDI-UHFFFAOYSA-N
Adsorbate Propene: InChIKey QQONPFPTGQHPMA-UHFFFAOYSA-N
Kind: experiment
Temperature: 293 K
Tabular data in the source: 0
pressure (bar)	Carbon Dioxide fraction	Carbon Dioxide uptake (mmol/g)	Propene fraction	Propene uptake (mmol/g)	total uptake (mmol/g)
0.0089	0.955056	0.5637	0.044944	0.5769	
0.0324	0.932099	0.9436	0.067901	0.9885	
0.1031	0.892338	1.1667	0.107662	1.2984	
0.3161	0.797849	1.2395	0.202151	1.5417	
0.639	0.707355	1.2431	0.292645	1.6682	
0.8045	0.67371	1.2635	0.32629	1.7117	
