Adsorption isotherm of N-propane, Propene on Zeolite 13X
DOI: 10.1021/je00002a020
Article source: Table VII
Adsorbate N-propane: InChIKey ATUOYWHBWRKTHZ-UHFFFAOYSA-N
Adsorbate Propene: InChIKey QQONPFPTGQHPMA-UHFFFAOYSA-N
Kind: experiment
Temperature: 293 K
Tabular data in the source: 0
pressure (bar)	N-propane fraction	N-propane uptake (mmol/g)	Propene fraction	Propene uptake (mmol/g)	total uptake (mmol/g)
0.0063	0.888889	0.3831	0.111111	0.7899	
0.0359	0.849582	0.5662	0.150418	1.257	
0.1317	0.81549	0.5514	0.18451	1.5288	
0.3776	0.730138	0.4114	0.269862	1.8281	
0.6632	0.645507	0.3074	0.354493	2.0041	
0.8463	0.606168	0.2762	0.393832	2.0801	
