Adsorption isotherm of N-propane, Carbon Dioxide on Zeolite 13X
DOI: 10.1021/je00002a020
Article source: Table VI
Adsorbate N-propane: InChIKey ATUOYWHBWRKTHZ-UHFFFAOYSA-N
Adsorbate Carbon Dioxide: InChIKey CURLTUGMZLYLDI-UHFFFAOYSA-N
Kind: experiment
Temperature: 293 K
Tabular data in the source: 0
pressure (bar)	N-propane fraction	N-propane uptake (mmol/g)	Carbon Dioxide fraction	Carbon Dioxide uptake (mmol/g)	total uptake (mmol/g)
0.0046	0.869565	0.2987	0.130435	0.1514	
0.0133	0.75188	0.7469	0.24812	0.3759	
0.0357	0.714286	1.1798	0.285714	0.5936	
0.1096	0.77646	1.4077	0.22354	0.7305	
0.278	0.806475	1.5058	0.193525	0.839	
0.5025	0.814527	1.5386	0.185473	0.9338	
0.6971	0.816669	1.5327	0.183331	0.9975	
0.9622	0.813656	1.5232	0.186344	1.0742	
