Adsorption isotherm of N-propane, Carbon Dioxide on Zeolite 13X
DOI: 10.1021/je00002a020
Article source: Table VI
Adsorbate N-propane: InChIKey ATUOYWHBWRKTHZ-UHFFFAOYSA-N
Adsorbate Carbon Dioxide: InChIKey CURLTUGMZLYLDI-UHFFFAOYSA-N
Kind: experiment
Temperature: 293 K
Tabular data in the source: 0
pressure (bar)	N-propane fraction	N-propane uptake (mmol/g)	Carbon Dioxide fraction	Carbon Dioxide uptake (mmol/g)	total uptake (mmol/g)
0.0071	0.15493	0.0724	0.84507	0.5829	
0.0239	0.09205	0.1455	0.90795	1.1579	
0.0542	0.073801	0.2184	0.926199	1.7207	
0.0969	0.069143	0.2722	0.930857	2.124	
0.1712	0.07243	0.3185	0.92757	2.4604	
0.3802	0.084429	0.3682	0.915571	2.811	
0.5743	0.103256	0.3832	0.896744	3.0051	
0.1012	0.118612	75.2	0.881388	0.3871	
