Adsorption isotherm of N-propane, Propene on Zeolite 13X
DOI: 10.1021/je00002a020
Article source: Table VII
Adsorbate N-propane: InChIKey ATUOYWHBWRKTHZ-UHFFFAOYSA-N
Adsorbate Propene: InChIKey QQONPFPTGQHPMA-UHFFFAOYSA-N
Kind: experiment
Temperature: 293 K
Tabular data in the source: 0
pressure (bar)	N-propane fraction	N-propane uptake (mmol/g)	Propene fraction	Propene uptake (mmol/g)	total uptake (mmol/g)
0.0536	0.992537	1.3125	0.007463	0.4763	
0.2188	0.969835	1.4319	0.030165	0.6211	
0.3248	0.963978	1.4159	0.036022	0.6884	
0.4607	0.959627	1.3802	0.040373	0.7471	
0.5768	0.955444	1.3731	0.044556	0.8103	
0.8344	0.945709	1.3173	0.054291	0.9248	
