Adsorption isotherm of Propene, Ethene on Zeolite 13X
DOI: 10.1021/je00002a020
Article source: Table V
Adsorbate Propene: InChIKey QQONPFPTGQHPMA-UHFFFAOYSA-N
Adsorbate Ethene: InChIKey VGGSQFUCUMXWEO-UHFFFAOYSA-N
Kind: experiment
Temperature: 293 K
Tabular data in the source: 0
pressure (bar)	Propene fraction	Propene uptake (mmol/g)	Ethene fraction	Ethene uptake (mmol/g)	total uptake (mmol/g)
0.0055	0.181818	0.9925	0.818182	0.1552	
0.0166	0.222892	1.483	0.777108	0.2185	
0.0736	0.347826	1.929	0.652174	0.216	
0.2449	0.530421	2.1818	0.469579	0.1464	
0.4592	0.637631	2.3106	0.362369	0.1101	
0.7922	0.712446	2.4187	0.287554	0.0909	
