Adsorption isotherm of N-propane, Propene on Zeolite 13X
DOI: 10.1021/je00002a020
Article source: Table VII
Adsorbate N-propane: InChIKey ATUOYWHBWRKTHZ-UHFFFAOYSA-N
Adsorbate Propene: InChIKey QQONPFPTGQHPMA-UHFFFAOYSA-N
Kind: experiment
Temperature: 293 K
Tabular data in the source: 0
pressure (bar)	N-propane fraction	N-propane uptake (mmol/g)	Propene fraction	Propene uptake (mmol/g)	total uptake (mmol/g)
0.0483	0.973085	1.1583	0.026915	0.6289	
0.1545	0.956634	1.2413	0.043366	0.7697	
0.3181	0.9453	1.2198	0.0547	0.9061	
0.508	0.932677	1.1461	0.067323	1.0253	
0.7009	0.922243	1.0714	0.077757	1.135	
0.8919	0.909183	1.0128	0.090817	1.2281	
