Adsorption isotherm of N-propane, Propene on Zeolite 13X
DOI: 10.1021/je00002a020
Article source: Table VII
Adsorbate N-propane: InChIKey ATUOYWHBWRKTHZ-UHFFFAOYSA-N
Adsorbate Propene: InChIKey QQONPFPTGQHPMA-UHFFFAOYSA-N
Kind: experiment
Temperature: 293 K
Tabular data in the source: 0
pressure (bar)	N-propane fraction	N-propane uptake (mmol/g)	Propene fraction	Propene uptake (mmol/g)	total uptake (mmol/g)
0.0064	0.9375	0.4616	0.0625	0.4741	
0.0701	0.915835	0.8847	0.084165	1.0153	
0.3144	0.877545	0.8056	0.122455	1.3372	
0.5543	0.842684	0.6912	0.157316	1.5414	
0.8056	0.802507	0.6038	0.197493	1.6954	
0.9297	0.784769	0.5736	0.215231	1.7595	
