Adsorption isotherm of Carbon Dioxide, Propene on Zeolite 13X
DOI: 10.1021/je00002a020
Article source: Table VIII
Adsorbate Carbon Dioxide: InChIKey CURLTUGMZLYLDI-UHFFFAOYSA-N
Adsorbate Propene: InChIKey QQONPFPTGQHPMA-UHFFFAOYSA-N
Kind: experiment
Temperature: 293 K
Tabular data in the source: 0
pressure (bar)	Carbon Dioxide fraction	Carbon Dioxide uptake (mmol/g)	Propene fraction	Propene uptake (mmol/g)	total uptake (mmol/g)
0.0531	0.983051	1.5588	0.016949	0.409	
0.0877	0.981756	1.8731	0.018244	0.4896	
0.1432	0.976257	2.0688	0.023743	0.5676	
0.2289	0.972477	2.2548	0.027523	0.6426	
0.4819	0.957045	2.4486	0.042955	0.7636	
0.8082	0.935783	2.547	0.064217	0.8564	
