Adsorption isotherm of Carbon Dioxide, Propene on Zeolite 13X
DOI: 10.1021/je00002a020
Article source: Table VIII
Adsorbate Carbon Dioxide: InChIKey CURLTUGMZLYLDI-UHFFFAOYSA-N
Adsorbate Propene: InChIKey QQONPFPTGQHPMA-UHFFFAOYSA-N
Kind: experiment
Temperature: 293 K
Tabular data in the source: 0
pressure (bar)	Carbon Dioxide fraction	Carbon Dioxide uptake (mmol/g)	Propene fraction	Propene uptake (mmol/g)	total uptake (mmol/g)
0.0025	0.52	0.1353	0.48	1.235	
0.0323	0.325077	0.2021	0.674923	1.9363	
0.2351	0.150149	0.2243	0.849851	2.2083	
0.4612	0.120338	0.2365	0.879662	2.2803	
0.6583	0.108765	0.247	0.891235	2.3158	
0.8001	0.103112	0.2572	0.896888	2.3556	
