Adsorption isotherm of Carbon Dioxide on Zeolite 13X
DOI: 10.1021/je00002a020
Article source: Table I
Adsorbate Carbon Dioxide: InChIKey CURLTUGMZLYLDI-UHFFFAOYSA-N
Kind: experiment
Temperature: 293 K
Tabular data in the source: 0
pressure (bar)	uptake (mmol/g)
0.002	0.2921
0.0082	0.6516
0.0208	1.078
0.0456	1.6342
0.0552	1.7871
0.0896	2.161
0.1481	2.605
0.2407	2.9818
0.3368	3.2317
0.3935	3.3611
0.6551	3.6365
0.7466	3.7085
0.9141	3.7916
