Adsorption isotherm of N-propane, Carbon Dioxide on Zeolite 13X
DOI: 10.1021/je00002a020
Article source: Table VI
Adsorbate N-propane: InChIKey ATUOYWHBWRKTHZ-UHFFFAOYSA-N
Adsorbate Carbon Dioxide: InChIKey CURLTUGMZLYLDI-UHFFFAOYSA-N
Kind: experiment
Temperature: 293 K
Tabular data in the source: 0
pressure (bar)	N-propane fraction	N-propane uptake (mmol/g)	Carbon Dioxide fraction	Carbon Dioxide uptake (mmol/g)	total uptake (mmol/g)
0.0041	0.97561	0.2988	0.02439	0.076	
0.0079	0.924051	0.6	0.075949	0.1519	
0.0172	0.889535	1.0465	0.110465	0.2644	
0.0285	0.873684	1.3373	0.126316	0.3382	
0.0706	0.893768	1.5837	0.106232	0.4082	
0.3476	0.924626	1.8032	0.075374	0.531	
0.6362	0.924866	1.8569	0.075134	0.6176	
0.9121	0.920513	1.8558	0.079487	0.6682	
