Adsorption isotherm of N-propane, Ethene on Zeolite 13X
DOI: 10.1021/je00002a020
Article source: Table III
Adsorbate N-propane: InChIKey ATUOYWHBWRKTHZ-UHFFFAOYSA-N
Adsorbate Ethene: InChIKey VGGSQFUCUMXWEO-UHFFFAOYSA-N
Kind: experiment
Temperature: 293 K
Tabular data in the source: 0
pressure (bar)	N-propane fraction	N-propane uptake (mmol/g)	Ethene fraction	Ethene uptake (mmol/g)	total uptake (mmol/g)
0.0075	0.8	0.5389	0.2	0.1346	
0.0188	0.728723	0.9968	0.271277	0.2466	
0.0571	0.739054	1.4176	0.260946	0.3469	
0.1506	0.766268	1.6203	0.233732	0.3956	
0.3244	0.788841	1.7229	0.211159	0.4238	
0.5412	0.802661	1.768	0.197339	0.4448	
0.7801	0.810665	1.7844	0.189335	0.4617	
