Adsorption isotherm of N-propane, Ethene on Zeolite 13X
DOI: 10.1021/je00002a020
Article source: Table III
Adsorbate N-propane: InChIKey ATUOYWHBWRKTHZ-UHFFFAOYSA-N
Adsorbate Ethene: InChIKey VGGSQFUCUMXWEO-UHFFFAOYSA-N
Kind: experiment
Temperature: 293 K
Tabular data in the source: 0
pressure (bar)	N-propane fraction	N-propane uptake (mmol/g)	Ethene fraction	Ethene uptake (mmol/g)	total uptake (mmol/g)
0.0143	0.146853	0.1533	0.853147	0.607	
0.0367	0.122616	0.267	0.877384	1.0478	
0.0867	0.110727	0.3764	0.889273	1.448	
0.1627	0.117394	0.4403	0.882606	1.6609	
0.2923	0.127267	0.4913	0.872733	1.8068	
0.5163	0.145071	0.5326	0.854929	1.9183	
0.7799	0.15861	0.5574	0.84139	1.9891	
