Adsorption isotherm of N-propane, Propene on Zeolite 13X
DOI: 10.1021/je00002a020
Article source: Table VII
Adsorbate N-propane: InChIKey ATUOYWHBWRKTHZ-UHFFFAOYSA-N
Adsorbate Propene: InChIKey QQONPFPTGQHPMA-UHFFFAOYSA-N
Kind: experiment
Temperature: 293 K
Tabular data in the source: 0
pressure (bar)	N-propane fraction	N-propane uptake (mmol/g)	Propene fraction	Propene uptake (mmol/g)	total uptake (mmol/g)
0.0064	0.609375	0.1497	0.390625	1.4195	
0.0912	0.425439	0.1512	0.574561	2.0256	
0.2495	0.348697	0.0874	0.651303	2.1727	
0.4568	0.269702	0.058	0.730298	2.2534	
0.6401	0.23262	0.0445	0.76738	2.292	
0.8278	0.208142	0.0357	0.791858	2.3162	
