Adsorption isotherm of N-propane, Carbon Dioxide on Zeolite 13X
DOI: 10.1021/je00002a020
Article source: Table VI
Adsorbate N-propane: InChIKey ATUOYWHBWRKTHZ-UHFFFAOYSA-N
Adsorbate Carbon Dioxide: InChIKey CURLTUGMZLYLDI-UHFFFAOYSA-N
Kind: experiment
Temperature: 293 K
Tabular data in the source: 0
pressure (bar)	N-propane fraction	N-propane uptake (mmol/g)	Carbon Dioxide fraction	Carbon Dioxide uptake (mmol/g)	total uptake (mmol/g)
0.0039	0.538462	0.1491	0.461538	0.3009	
0.0149	0.355705	0.3664	0.644295	0.7343	
0.0347	0.293948	0.5857	0.706052	1.1654	
0.0969	0.25903	0.8064	0.74097	1.5806	
0.2352	0.322704	0.9224	0.677296	1.8335	
0.4716	0.379771	0.9577	0.620229	2.0124	
0.6716	0.406492	0.9733	0.593508	2.1649	
0.9343	0.422134	0.947	0.577866	2.2626	
