Adsorption isotherm of Carbon Dioxide, Ethene on Zeolite 13X
DOI: 10.1021/je00002a020
Article source: Table IV
Adsorbate Carbon Dioxide: InChIKey CURLTUGMZLYLDI-UHFFFAOYSA-N
Adsorbate Ethene: InChIKey VGGSQFUCUMXWEO-UHFFFAOYSA-N
Kind: experiment
Temperature: 293 K
Tabular data in the source: 0
pressure (bar)	Carbon Dioxide fraction	Carbon Dioxide uptake (mmol/g)	Ethene fraction	Ethene uptake (mmol/g)	total uptake (mmol/g)
0.0047	0.191489	0.1455	0.808511	0.1412	
0.0261	0.306513	0.5016	0.693487	0.4867	
0.064	0.35	0.8452	0.65	0.8168	
0.1708	0.357728	1.2207	0.642272	1.1494	
0.3631	0.353346	1.491	0.646654	1.3334	
0.6196	0.360071	1.6426	0.639929	1.3863	
0.9291	0.362501	1.7662	0.637499	1.3885	
