Adsorption isotherm of Carbon Dioxide, Propene on Zeolite 13X
DOI: 10.1021/je00002a020
Article source: Table VIII
Adsorbate Carbon Dioxide: InChIKey CURLTUGMZLYLDI-UHFFFAOYSA-N
Adsorbate Propene: InChIKey QQONPFPTGQHPMA-UHFFFAOYSA-N
Kind: experiment
Temperature: 293 K
Tabular data in the source: 0
pressure (bar)	Carbon Dioxide fraction	Carbon Dioxide uptake (mmol/g)	Propene fraction	Propene uptake (mmol/g)	total uptake (mmol/g)
0.0065	0.923077	0.4037	0.076923	0.826	
0.0251	0.848606	0.6277	0.151394	1.318	
0.0759	0.768116	0.7348	0.231884	1.6292	
0.2331	0.617332	0.7503	0.382668	1.8107	
0.4621	0.513742	0.7625	0.486258	1.9233	
0.719	0.455355	0.7854	0.544645	1.9925	
