Adsorption isotherm of Propene, Ethene on Zeolite 13X
DOI: 10.1021/je00002a020
Article source: Table V
Adsorbate Propene: InChIKey QQONPFPTGQHPMA-UHFFFAOYSA-N
Adsorbate Ethene: InChIKey VGGSQFUCUMXWEO-UHFFFAOYSA-N
Kind: experiment
Temperature: 293 K
Tabular data in the source: 0
pressure (bar)	Propene fraction	Propene uptake (mmol/g)	Ethene fraction	Ethene uptake (mmol/g)	total uptake (mmol/g)
0.0127	0.062992	0.8414	0.937008	0.3933	
0.0466	0.090129	1.3253	0.909871	0.5675	
0.1304	0.13727	1.6315	0.86273	0.5706	
0.2832	0.210452	1.8707	0.789548	0.4761	
0.454	0.288106	2.0446	0.711894	0.4097	
0.751	0.38016	2.1885	0.61984	0.3248	
