Adsorption isotherm of Carbon Dioxide, Ethene on Zeolite 13X
DOI: 10.1021/je00002a020
Article source: Table IV
Adsorbate Carbon Dioxide: InChIKey CURLTUGMZLYLDI-UHFFFAOYSA-N
Adsorbate Ethene: InChIKey VGGSQFUCUMXWEO-UHFFFAOYSA-N
Kind: experiment
Temperature: 293 K
Tabular data in the source: 0
pressure (bar)	Carbon Dioxide fraction	Carbon Dioxide uptake (mmol/g)	Ethene fraction	Ethene uptake (mmol/g)	total uptake (mmol/g)
0.0056	0.035714	0.0734	0.964286	0.2862	
0.028	0.075	0.2172	0.925	0.8429	
0.0573	0.089005	0.3223	0.910995	1.2427	
0.1042	0.101727	0.4244	0.898273	1.6219	
0.2094	0.099809	0.5181	0.900191	1.9173	
0.3919	0.096453	0.6055	0.903547	2.1211	
0.6329	0.097804	0.6727	0.902196	2.216	
0.7803	0.099064	0.7043	0.900936	2.2391	
0.9247	0.100249	0.7358	0.899751	2.2664	
