Adsorption isotherm of N-propane on Zeolite 13X
DOI: 10.1021/je00002a020
Article source: Table I
Adsorbate N-propane: InChIKey ATUOYWHBWRKTHZ-UHFFFAOYSA-N
Kind: experiment
Temperature: 293 K
Tabular data in the source: 0
pressure (bar)	uptake (mmol/g)
0.0025	0.2216
0.0057	0.5174
0.0101	0.8845
0.0126	1.0596
0.0153	1.1769
0.0263	1.4762
0.0326	1.5687
0.0415	1.6736
0.0946	1.8571
0.0991	1.8811
0.2436	2.0162
0.2468	2.0258
0.3346	2.0817
0.5282	2.1269
0.6878	2.1644
0.9221	2.1957
