Adsorption isotherm of Propene, Ethene on Zeolite 13X
DOI: 10.1021/je00002a020
Article source: Table V
Adsorbate Propene: InChIKey QQONPFPTGQHPMA-UHFFFAOYSA-N
Adsorbate Ethene: InChIKey VGGSQFUCUMXWEO-UHFFFAOYSA-N
Kind: experiment
Temperature: 293 K
Tabular data in the source: 0
pressure (bar)	Propene fraction	Propene uptake (mmol/g)	Ethene fraction	Ethene uptake (mmol/g)	total uptake (mmol/g)
0.0078	0.128205	0.9989	0.871795	0.2343	
0.0263	0.159696	1.4854	0.840304	0.3223	
0.0726	0.22865	1.7969	0.77135	0.3278	
0.2412	0.391791	2.1106	0.608209	0.2404	
0.4672	0.522902	2.2661	0.477098	0.1881	
0.7934	0.612049	2.3658	0.387951	0.1564	
