Adsorption isotherm of Propene, Ethene on Zeolite 13X
DOI: 10.1021/je00002a020
Article source: Table V
Adsorbate Propene: InChIKey QQONPFPTGQHPMA-UHFFFAOYSA-N
Adsorbate Ethene: InChIKey VGGSQFUCUMXWEO-UHFFFAOYSA-N
Kind: experiment
Temperature: 293 K
Tabular data in the source: 0
pressure (bar)	Propene fraction	Propene uptake (mmol/g)	Ethene fraction	Ethene uptake (mmol/g)	total uptake (mmol/g)
0.0134	0.014925	0.5734	0.985075	0.5432	
0.0683	0.048316	1.0587	0.951684	0.9157	
0.1631	0.06867	1.2862	0.93133	0.9598	
0.3075	0.097236	1.4831	0.902764	0.9113	
0.4812	0.132585	1.6561	0.867415	0.8361	
0.7311	0.181644	1.8265	0.818356	0.7472	
