Adsorption isotherm of N-propane, Ethene on Zeolite 13X
DOI: 10.1021/je00002a020
Article source: Table III
Adsorbate N-propane: InChIKey ATUOYWHBWRKTHZ-UHFFFAOYSA-N
Adsorbate Ethene: InChIKey VGGSQFUCUMXWEO-UHFFFAOYSA-N
Kind: experiment
Temperature: 293 K
Tabular data in the source: 0
pressure (bar)	N-propane fraction	N-propane uptake (mmol/g)	Ethene fraction	Ethene uptake (mmol/g)	total uptake (mmol/g)
0.0093	0.645161	0.4478	0.354839	0.2233	
0.0208	0.567308	0.8197	0.432692	0.4052	
0.0442	0.552036	1.1062	0.447964	0.5418	
0.1206	0.573798	1.3439	0.426202	0.6469	
0.2987	0.613324	1.4779	0.386676	0.7054	
0.547	0.643876	1.5303	0.356124	0.7371	
0.7931	0.65679	1.561	0.34321	0.763	
