Adsorption isotherm of N-propane, Ethene on Zeolite 13X
DOI: 10.1021/je00002a020
Article source: Table III
Adsorbate N-propane: InChIKey ATUOYWHBWRKTHZ-UHFFFAOYSA-N
Adsorbate Ethene: InChIKey VGGSQFUCUMXWEO-UHFFFAOYSA-N
Kind: experiment
Temperature: 293 K
Tabular data in the source: 0
pressure (bar)	N-propane fraction	N-propane uptake (mmol/g)	Ethene fraction	Ethene uptake (mmol/g)	total uptake (mmol/g)
0.0078	0.461538	0.2995	0.538462	0.2988	
0.0188	0.404255	0.5228	0.595745	0.5177	
0.0356	0.367978	0.744	0.632022	0.73	
0.0781	0.349552	0.9517	0.650448	0.9167	
0.2001	0.392304	1.1039	0.607696	1.0392	
0.4039	0.428076	1.1917	0.571924	1.1046	
0.7214	0.46188	1.2356	0.53812	1.1533	
