Adsorption isotherm of Propene, Ethene on Zeolite 13X
DOI: 10.1021/je00002a020
Article source: Table V
Adsorbate Propene: InChIKey QQONPFPTGQHPMA-UHFFFAOYSA-N
Adsorbate Ethene: InChIKey VGGSQFUCUMXWEO-UHFFFAOYSA-N
Kind: experiment
Temperature: 293 K
Tabular data in the source: 0
pressure (bar)	Propene fraction	Propene uptake (mmol/g)	Ethene fraction	Ethene uptake (mmol/g)	total uptake (mmol/g)
0.046	0.017391	0.5697	0.982609	1.0377	
0.0969	0.024768	0.7557	0.975232	1.2424	
0.1954	0.03173	0.8772	0.96827	1.3446	
0.3367	0.041877	1.031	0.958123	1.3635	
0.4865	0.054676	1.1589	0.945324	1.3567	
0.7825	0.07476	1.3367	0.92524	1.2427	
