Adsorption isotherm of N-propane, Propene on Zeolite 13X
DOI: 10.1021/je00002a020
Article source: Table VII
Adsorbate N-propane: InChIKey ATUOYWHBWRKTHZ-UHFFFAOYSA-N
Adsorbate Propene: InChIKey QQONPFPTGQHPMA-UHFFFAOYSA-N
Kind: experiment
Temperature: 293 K
Tabular data in the source: 0
pressure (bar)	N-propane fraction	N-propane uptake (mmol/g)	Propene fraction	Propene uptake (mmol/g)	total uptake (mmol/g)
0.0039	0.846154	0.2279	0.153846	0.9403	
0.0297	0.744108	0.3428	0.255892	1.552	
0.2267	0.606087	0.2414	0.393913	1.9972	
0.5313	0.466215	0.1523	0.533785	2.1911	
0.7056	0.424036	0.115	0.575964	2.2304	
0.8557	0.392895	0.111	0.607105	2.2918	
