Adsorption isotherm of Carbon Dioxide, Propene on Zeolite 13X
DOI: 10.1021/je00002a020
Article source: Table VIII
Adsorbate Carbon Dioxide: InChIKey CURLTUGMZLYLDI-UHFFFAOYSA-N
Adsorbate Propene: InChIKey QQONPFPTGQHPMA-UHFFFAOYSA-N
Kind: experiment
Temperature: 293 K
Tabular data in the source: 0
pressure (bar)	Carbon Dioxide fraction	Carbon Dioxide uptake (mmol/g)	Propene fraction	Propene uptake (mmol/g)	total uptake (mmol/g)
0.0179	0.994413	0.9576	0.005587	0.4929	
0.0567	0.968254	1.391	0.031746	0.7367	
0.1154	0.957539	1.6248	0.042461	0.8936	
0.2303	0.93617	1.7815	0.06383	1.0406	
0.4197	0.904694	1.8458	0.095306	1.1642	
0.7749	0.854433	1.8844	0.145567	1.2937	
