Adsorption isotherm of N-propane, Carbon Dioxide on Zeolite 13X
DOI: 10.1021/je00002a020
Article source: Table VI
Adsorbate N-propane: InChIKey ATUOYWHBWRKTHZ-UHFFFAOYSA-N
Adsorbate Carbon Dioxide: InChIKey CURLTUGMZLYLDI-UHFFFAOYSA-N
Kind: experiment
Temperature: 293 K
Tabular data in the source: 0
pressure (bar)	N-propane fraction	N-propane uptake (mmol/g)	Carbon Dioxide fraction	Carbon Dioxide uptake (mmol/g)	total uptake (mmol/g)
0.0032	0.4375	0.0742	0.5625	0.3022	
0.0088	0.284091	0.1486	0.715909	0.6002	
0.0213	0.178404	0.2602	0.821596	1.0375	
0.0437	0.15103	0.3701	0.84897	1.4647	
0.0882	0.139456	0.474	0.860544	1.8568	
0.1395	0.144803	0.5379	0.855197	2.0953	
0.2766	0.166667	0.6104	0.833333	2.3739	
0.5275	0.209479	0.6477	0.790521	2.8028	
