Adsorption isotherm of Carbon Dioxide, Propene on Zeolite 13X
DOI: 10.1021/je00002a020
Article source: Table VIII
Adsorbate Carbon Dioxide: InChIKey CURLTUGMZLYLDI-UHFFFAOYSA-N
Adsorbate Propene: InChIKey QQONPFPTGQHPMA-UHFFFAOYSA-N
Kind: experiment
Temperature: 293 K
Tabular data in the source: 0
pressure (bar)	Carbon Dioxide fraction	Carbon Dioxide uptake (mmol/g)	Propene fraction	Propene uptake (mmol/g)	total uptake (mmol/g)
0.0033	0.787879	0.2435	0.212121	0.9896	
0.0232	0.655172	0.3882	0.344828	1.6372	
0.0834	0.48801	0.4289	0.51199	1.9087	
0.2386	0.351215	0.4412	0.648785	2.0549	
0.4375	0.287086	0.4554	0.712914	2.1288	
0.6553	0.252861	0.474	0.747139	2.1763	
0.8137	0.238786	0.4878	0.761214	2.2061	
