Adsorption isotherm of Carbon Dioxide, Ethene on Zeolite 13X
DOI: 10.1021/je00002a020
Article source: Table IV
Adsorbate Carbon Dioxide: InChIKey CURLTUGMZLYLDI-UHFFFAOYSA-N
Adsorbate Ethene: InChIKey VGGSQFUCUMXWEO-UHFFFAOYSA-N
Kind: experiment
Temperature: 293 K
Tabular data in the source: 0
pressure (bar)	Carbon Dioxide fraction	Carbon Dioxide uptake (mmol/g)	Ethene fraction	Ethene uptake (mmol/g)	total uptake (mmol/g)
0.9103	0.532682	2.4614	0.467318	0.9619	
0.0087	0.655172	0.426	0.344828	0.1044	
0.0223	0.663677	0.8425	0.336323	0.2051	
0.0548	0.702555	1.3794	0.297445	0.3351	
0.1202	0.711314	1.8849	0.288686	0.4516	
0.2488	0.713424	2.3223	0.286576	0.5435	
0.4654	0.706704	2.684	0.293296	0.5912	
0.6462	0.7052	2.8512	0.2948	0.6002	
0.9087	0.706834	3.0071	0.293166	0.5961	
