Adsorption isotherm of N-propane on CuBTC
DOI: 10.1021/La803085h
Adsorbate N-propane: InChIKey ATUOYWHBWRKTHZ-UHFFFAOYSA-N
Temperature: 353 K
Tabular data in the source: 0
pressure (bar)	uptake (mmol/g)
0.339018	0.189473
0.432341	0.318679
0.467656	0.339781
0.538271	0.491359
0.62149	0.708286
0.664351	0.882347
0.709735	1.05635
0.767702	1.44883
0.823149	1.81949
0.883642	2.19004
0.934078	2.32019
0.976942	2.47237
1.0299	2.58059
