Adsorption isotherm of Methane on CuBTC
DOI: 10.1021/La803085h
Adsorbate Methane: InChIKey VNWKTOKETHGBQD-UHFFFAOYSA-N
Temperature: 295 K
Tabular data in the source: 0
pressure (bar)	uptake (mmol/g)
0.211357	0.01875
0.325341	0.03125
0.408432	0.05
0.550831	0.1
0.603014	0.13125
0.678867	0.196875
0.771244	0.30625
0.849354	0.421875
0.901284	0.559375
0.950943	0.653125
0.991004	0.7875
0.998129	0.7875
