Adsorption isotherm of Methane on CuBTC
DOI: 10.1021/La803085h
Adsorbate Methane: InChIKey VNWKTOKETHGBQD-UHFFFAOYSA-N
Temperature: 295 K
Tabular data in the source: 0
pressure (bar)	uptake (mmol/g)
0.211357	0.01875
0.332438	0.04375
0.406042	0.05625
0.550779	0.121875
0.605315	0.1625
0.67402	0.2375
0.773456	0.375
0.860926	0.55
0.90334	0.69375
0.955292	0.821875
0.992911	0.984375
