Adsorption isotherm of Ethane on CuBTC
DOI: 10.1021/La803085h
Adsorbate Ethane: InChIKey OTMSDBZUPAUEDD-UHFFFAOYSA-N
Temperature: 295 K
Tabular data in the source: 0
pressure (bar)	uptake (mmol/g)
0.0559455	0.0383095
0.26757	0.172688
0.377013	0.286528
0.576366	0.681547
0.637117	0.869015
0.746379	1.43006
0.809427	1.95297
0.872407	2.64359
0.942573	3.61384
1.0274	4.43529
