Adsorption isotherm of Nitrogen on CuBTC
DOI: 10.1021/La803085h
Adsorbate Nitrogen: InChIKey IJGRMHOSHXDMSA-UHFFFAOYSA-N
Temperature: 295 K
Tabular data in the source: 0
pressure (bar)	uptake (mmol/g)
0.0146232	0.004375
0.157038	0.00546875
0.356212	0.0142188
0.498252	0.0284375
0.647164	0.0514062
0.802449	0.100625
0.886573	0.147656
0.94227	0.1925
0.970196	0.212188
1.0069	0.257031
