Adsorption isotherm of Nitrogen on CuBTC
DOI: 10.1021/La803085h
Adsorbate Nitrogen: InChIKey IJGRMHOSHXDMSA-UHFFFAOYSA-N
Temperature: 295 K
Tabular data in the source: 0
pressure (bar)	uptake (mmol/g)
0.081098	0.004375
0.221076	0.00765625
0.413035	0.0196875
0.562134	0.0360938
0.680027	0.0645312
0.774022	0.0984375
0.869891	0.149844
0.920684	0.200156
0.973757	0.25375
1.00559	0.302969
