Adsorption isotherm of Oxygen on CuBTC
DOI: 10.1021/La803085h
Adsorbate Oxygen: InChIKey MYMOFIZGZYHOMD-UHFFFAOYSA-N
Temperature: 295 K
Tabular data in the source: 0
pressure (bar)	uptake (mmol/g)
0.01239	0.00352127
0.195228	0.00672124
0.417057	0.0116146
0.650715	0.0429282
0.75272	0.0727136
0.825414	0.106077
0.883404	0.144754
0.94376	0.188716
0.99429	0.237983
1.0326	0.289035
