Adsorption isotherm of Oxygen on CuBTC
DOI: 10.1021/La803085h
Adsorbate Oxygen: InChIKey MYMOFIZGZYHOMD-UHFFFAOYSA-N
Temperature: 295 K
Tabular data in the source: 0
pressure (bar)	uptake (mmol/g)
0.0123684	0.00352131
0.158223	0.0085499
0.415588	0.0345331
0.590184	0.0641892
0.69891	0.104539
0.795153	0.162539
0.881505	0.22937
0.945773	0.306817
0.988404	0.370201
1.03107	0.431822
