Adsorption isotherm of N-propane on CuBTC
DOI: 10.1021/La803085h
Adsorbate N-propane: InChIKey ATUOYWHBWRKTHZ-UHFFFAOYSA-N
Temperature: 318 K
Tabular data in the source: 0
pressure (bar)	uptake (mmol/g)
0.0388254	0.108546
0.162421	0.23709
0.288529	0.431203
0.389407	0.647743
0.50541	0.951452
0.606225	1.60549
0.704518	2.25959
0.742337	2.41188
0.790241	2.60771
0.845723	2.73774
0.896162	2.84601
0.959211	2.97588
1.0147	3.08404
