Adsorption isotherm of N-propane on CuBTC
DOI: 10.1021/La803085h
Adsorbate N-propane: InChIKey ATUOYWHBWRKTHZ-UHFFFAOYSA-N
Temperature: 353 K
Tabular data in the source: 0
pressure (bar)	uptake (mmol/g)
0.215404	0.19218
0.331428	0.342764
0.394481	0.450758
0.455017	0.515057
0.565986	0.731376
0.616422	0.861521
0.704668	1.20959
0.76517	1.51451
0.815568	1.90716
0.868452	2.56225
0.901179	3.04278
0.961571	4.11333
1.01949	4.87768
