Adsorption isotherm of Oxygen on CuBTC
DOI: 10.1021/La803085h
Adsorbate Oxygen: InChIKey MYMOFIZGZYHOMD-UHFFFAOYSA-N
Temperature: 273 K
Tabular data in the source: 0
pressure (bar)	uptake (mmol/g)
0.0123684	0.00352131
0.216475	0.0154972
0.415588	0.0345331
0.599594	0.0818001
0.698461	0.129219
0.801713	0.203071
0.887585	0.296344
0.944363	0.384381
1.00095	0.482995
1.02671	0.537595
