Adsorption isotherm of Oxygen on CuBTC
DOI: 10.1021/La803085h
Adsorbate Oxygen: InChIKey MYMOFIZGZYHOMD-UHFFFAOYSA-N
Temperature: 295 K
Tabular data in the source: 0
pressure (bar)	uptake (mmol/g)
0.0123684	0.00352131
0.158287	0.00502426
0.352632	0.0187803
0.583175	0.0483368
0.692061	0.0798727
0.800659	0.127274
0.882242	0.188825
0.944462	0.245123
0.989654	0.301451
1.03232	0.363072
