Adsorption isotherm of Ethane on CuBTC
DOI: 10.1021/La803085h
Adsorbate Ethane: InChIKey OTMSDBZUPAUEDD-UHFFFAOYSA-N
Temperature: 295 K
Tabular data in the source: 0
pressure (bar)	uptake (mmol/g)
0.235857	0.377066
0.29422	0.452687
0.401192	0.65965
0.461981	0.75395
0.627287	1.11107
0.743885	1.57908
0.806971	2.00883
0.852981	2.55006
0.898914	3.27762
0.985764	5.10532
