Adsorption isotherm of N-propane on CuBTC
DOI: 10.1021/La803085h
Adsorbate N-propane: InChIKey ATUOYWHBWRKTHZ-UHFFFAOYSA-N
Temperature: 383 K
Tabular data in the source: 0
pressure (bar)	uptake (mmol/g)
0.233076	0.104293
0.333979	0.145833
0.427305	0.253164
0.518111	0.338676
0.608907	0.489812
0.664386	0.641722
0.73752	0.81512
0.808119	1.07607
0.855998	1.4469
0.913965	1.83938
0.941674	2.12315
0.976942	2.47237
1.03232	3.34616
