Adsorption isotherm of N-propane on CuBTC
DOI: 10.1021/La803085h
Adsorbate N-propane: InChIKey ATUOYWHBWRKTHZ-UHFFFAOYSA-N
Temperature: 383 K
Tabular data in the source: 0
pressure (bar)	uptake (mmol/g)
0.369304	0.10131
0.427323	0.121914
0.513087	0.185661
0.608939	0.271062
0.664426	0.357347
0.704777	0.443963
0.760268	0.508373
0.808191	0.572948
0.856107	0.681274
0.919163	0.767393
0.954475	0.810369
1.0024	0.831195
1.02763	0.808767
