Adsorption isotherm of Nitrogen on CuBTC
DOI: 10.1021/La803085h
Adsorbate Nitrogen: InChIKey IJGRMHOSHXDMSA-UHFFFAOYSA-N
Temperature: 77 K
Tabular data in the source: 0
pressure (bar)	uptake (mmol/g)
-0.0520567	3.87805
0.031379	5.70732
0.137397	11.1951
0.19607	14.0488
0.271937	17.2683
0.352039	18.9512
0.607334	20.2683
0.713928	20.7805
0.85942	21
1.10073	22.5366
