Adsorption isotherm of Ethane on CuBTC
DOI: 10.1021/La803085h
Adsorbate Ethane: InChIKey OTMSDBZUPAUEDD-UHFFFAOYSA-N
Temperature: 295 K
Tabular data in the source: 0
pressure (bar)	uptake (mmol/g)
0.238305	0.339844
0.291802	0.415375
0.396372	0.547758
0.457176	0.604792
0.622504	0.906009
0.739148	1.26222
0.807115	1.65479
0.853185	2.04695
0.901619	2.60686
0.981299	4.11766
