Adsorption isotherm of Oxygen on CuBTC
DOI: 10.1021/La803085h
Adsorbate Oxygen: InChIKey MYMOFIZGZYHOMD-UHFFFAOYSA-N
Temperature: 273 K
Tabular data in the source: 0
pressure (bar)	uptake (mmol/g)
0.0123684	0.00352131
0.216571	0.0102088
0.418149	0.0274775
0.609741	0.0588661
0.708897	0.0904193
0.793233	0.134338
0.870048	0.19061
0.937036	0.252187
0.986773	0.326135
1.02697	0.389523
