Adsorption isotherm of Methane on CuBTC
DOI: 10.1021/La803085h
Adsorbate Methane: InChIKey VNWKTOKETHGBQD-UHFFFAOYSA-N
Temperature: 295 K
Tabular data in the source: 0
pressure (bar)	uptake (mmol/g)
0.0831057	0.0125
0.244618	0.015625
0.415595	0.034375
0.558031	0.06875
0.652954	0.10625
0.719344	0.15625
0.807022	0.24375
0.896949	0.384375
0.939519	0.4625
0.984405	0.565625
1.02216	0.66875
1.02929	0.66875
