Adsorption isotherm of Nitrogen on CuBTC
DOI: 10.1021/La803085h
Adsorbate Nitrogen: InChIKey IJGRMHOSHXDMSA-UHFFFAOYSA-N
Temperature: 77 K
Tabular data in the source: 0
pressure (bar)	uptake (mmol/g)
-0.0589992	3.07317
0.0253638	4.60976
0.18216	11.0488
0.246823	13.6098
0.32665	14.7805
0.513722	15.6585
0.684403	16.3171
0.769944	16.6829
0.882002	17.2683
1.0704	17.9268
