Adsorption isotherm of N-propane on CuBTC
DOI: 10.1021/La803085h
Adsorbate N-propane: InChIKey ATUOYWHBWRKTHZ-UHFFFAOYSA-N
Temperature: 283 K
Tabular data in the source: 0
pressure (bar)	uptake (mmol/g)
0.0295141	0.138069
0.125548	0.218735
0.23631	0.465658
0.361781	0.934395
0.442823	1.70992
0.494163	2.9585
0.579917	4.42834
0.668357	5.17588
0.747039	5.61814
0.79624	5.81122
0.916811	6.19676
1.02511	6.44375
