Adsorption isotherm of Nitrogen on CuBTC
DOI: 10.1021/La803085h
Adsorbate Nitrogen: InChIKey IJGRMHOSHXDMSA-UHFFFAOYSA-N
Temperature: 77 K
Tabular data in the source: 0
pressure (bar)	uptake (mmol/g)
0.609765	14.7073
0.683977	14.8537
0.756059	15.0732
0.793103	15.3659
0.865586	15.6585
0.914083	15.7317
1.06146	16.7561
