Adsorption isotherm of N-propane on CuBTC
DOI: 10.1021/La803085h
Adsorbate N-propane: InChIKey ATUOYWHBWRKTHZ-UHFFFAOYSA-N
Temperature: 283 K
Tabular data in the source: 0
pressure (bar)	uptake (mmol/g)
0.0318746	0.471337
0.122966	0.607695
0.233761	0.743507
0.34702	0.879249
0.430696	1.09915
0.519196	1.65224
0.565755	2.42873
0.629256	4.17697
0.68547	5.59207
0.800953	6.50553
0.914126	6.91905
1.01752	7.11062
