Adsorption isotherm of Nitrogen on CuBTC
DOI: 10.1021/La803085h
Adsorbate Nitrogen: InChIKey IJGRMHOSHXDMSA-UHFFFAOYSA-N
Temperature: 77 K
Tabular data in the source: 0
pressure (bar)	uptake (mmol/g)
0.0170286	0.00328125
0.159381	0.0065625
0.356119	0.0175
0.505218	0.0339063
0.651506	0.065625
0.73613	0.0951562
0.84362	0.155312
0.920184	0.217656
0.968509	0.27125
1.00506	0.321562
