Adsorption isotherm of N-propane on CuBTC
DOI: 10.1021/La803085h
Adsorbate N-propane: InChIKey ATUOYWHBWRKTHZ-UHFFFAOYSA-N
Temperature: 318 K
Tabular data in the source: 0
pressure (bar)	uptake (mmol/g)
0.0388035	0.261671
0.162396	0.41209
0.291036	0.540522
0.389392	0.757118
0.50541	0.951452
0.611286	1.49601
0.681807	2.30384
0.739696	3.24319
0.812674	4.51034
0.840346	5.05661
0.90081	5.62403
0.948705	5.88548
0.99659	6.21256
