Adsorption isotherm of N-propane on CuBTC
DOI: 10.1021/La803085h
Adsorbate N-propane: InChIKey ATUOYWHBWRKTHZ-UHFFFAOYSA-N
Temperature: 283 K
Tabular data in the source: 0
pressure (bar)	uptake (mmol/g)
0.0318404	0.582449
0.125394	0.718739
0.233727	0.854619
0.34696	1.0737
0.438008	1.34894
0.514141	2.06905
0.56803	3.03978
0.650851	6.03748
0.716943	7.36897
0.80044	8.17221
0.908661	8.6692
1.02189	8.91606
