Adsorption isotherm of Oxygen on CuBTC
DOI: 10.1021/La803085h
Adsorbate Oxygen: InChIKey MYMOFIZGZYHOMD-UHFFFAOYSA-N
Temperature: 295 K
Tabular data in the source: 0
pressure (bar)	uptake (mmol/g)
0.01239	0.00352127
0.156236	0.00502791
0.351218	0.0117318
0.587387	0.0377527
0.694293	0.0657666
0.796176	0.104366
0.880844	0.153573
0.948516	0.197521
0.996631	0.24503
1.0326	0.289035
