Adsorption isotherm of Arsenate, Cr(VI), Water on mussel shell
DOI: 10.1007/s11356-016-8015-0
Article source: Figure 1
Adsorbate Arsenate: InChIKey HAYXDMNJJFVXCI-UHFFFAOYSA-N
Adsorbate Cr(VI): InChIKey JOPOVCBBYLSVDA-UHFFFAOYSA-N
Adsorbate Water: InChIKey XLYOFNOQVPJJNP-UHFFFAOYSA-N
Kind: experiment
Temperature: 295 K
Tabular data in the source: 0
pressure (bar)	Arsenate fraction	Arsenate uptake (mmol/kg)	Cr(VI) fraction	Cr(VI) uptake (mmol/kg)	Water fraction	Water uptake (mmol/kg)	total uptake (mmol/kg)
1.01325	0.0054	0.055	0.0054	0.055			
1.01325	0.4847	1.574	0.4901	0.688			
1.01325	1.4829	4.223	1.4883	2.451			
1.01325	2.9967	9.552	2.9966	8.168			
1.01325	6.0042	18.772	5.9988	18.828			
