Adsorption isotherm of Arsenate, Cr(VI), Water on vineyard soil
DOI: 10.1007/s11356-016-8015-0
Article source: Figure 1
Adsorbate Arsenate: InChIKey HAYXDMNJJFVXCI-UHFFFAOYSA-N
Adsorbate Cr(VI): InChIKey JOPOVCBBYLSVDA-UHFFFAOYSA-N
Adsorbate Water: InChIKey XLYOFNOQVPJJNP-UHFFFAOYSA-N
Kind: experiment
Temperature: 295 K
Tabular data in the source: 0
pressure (bar)	Arsenate fraction	Arsenate uptake (mmol/kg)	Cr(VI) fraction	Cr(VI) uptake (mmol/kg)	Water fraction	Water uptake (mmol/kg)	total uptake (mmol/kg)
1.01325	0.0094	0.414	0.0094	0.413			
1.01325	0.4817	2.37	0.4797	1.984			
1.01325	1.4881	5.483	1.4952	4.217			
1.01325	2.9913	10.993	2.9886	9.095			
1.01325	6.0033	23.145	5.9964	22.131			
