Adsorption isotherm of Arsenate, Cr(VI), Water on pine bark
DOI: 10.1007/s11356-016-8015-0
Article source: Figure 1
Adsorbate Arsenate: InChIKey HAYXDMNJJFVXCI-UHFFFAOYSA-N
Adsorbate Cr(VI): InChIKey JOPOVCBBYLSVDA-UHFFFAOYSA-N
Adsorbate Water: InChIKey XLYOFNOQVPJJNP-UHFFFAOYSA-N
Kind: experiment
Temperature: 295 K
Tabular data in the source: 0
pressure (bar)	Arsenate fraction	Arsenate uptake (mmol/kg)	Cr(VI) fraction	Cr(VI) uptake (mmol/kg)	Water fraction	Water uptake (mmol/kg)	total uptake (mmol/kg)
1.01325	0.0065	0.131	0.0065	0.131			
1.01325	0.4937	0.161	0.4938	4.891			
1.01325	1.4978	0.152	1.5032	14.508			
1.01325	3.0006	0.138	2.9955	28.988			
1.01325	5.997	0.145	5.9982	56.636			
