Adsorption isotherm of Arsenate, Cr(VI), Water on forest soil
DOI: 10.1007/s11356-016-8015-0
Article source: Figure 1
Adsorbate Arsenate: InChIKey HAYXDMNJJFVXCI-UHFFFAOYSA-N
Adsorbate Cr(VI): InChIKey JOPOVCBBYLSVDA-UHFFFAOYSA-N
Adsorbate Water: InChIKey XLYOFNOQVPJJNP-UHFFFAOYSA-N
Kind: experiment
Temperature: 295 K
Tabular data in the source: 0
pressure (bar)	Arsenate fraction	Arsenate uptake (mmol/kg)	Cr(VI) fraction	Cr(VI) uptake (mmol/kg)	Water fraction	Water uptake (mmol/kg)	total uptake (mmol/kg)
1.01325	0.0112	0.137	0.0112	0.137			
1.01325	0.4939	4.083	0.4957	2.193			
1.01325	1.4853	9.619	1.4983	4.197			
1.01325	2.9911	15.952	2.9928	8.53			
1.01325	5.9859	28.042	5.9875	20.374			
