Adsorption isotherm of Arsenate, Cr(VI), Water on forest soil and pine bark
DOI: 10.1007/s11356-016-8015-0
Article source: Figure 3
Adsorbate Arsenate: InChIKey HAYXDMNJJFVXCI-UHFFFAOYSA-N
Adsorbate Cr(VI): InChIKey JOPOVCBBYLSVDA-UHFFFAOYSA-N
Adsorbate Water: InChIKey XLYOFNOQVPJJNP-UHFFFAOYSA-N
Kind: experiment
Temperature: 295 K
Tabular data in the source: 0
pressure (bar)	Arsenate fraction	Arsenate uptake (mmol/kg)	Cr(VI) fraction	Cr(VI) uptake (mmol/kg)	Water fraction	Water uptake (mmol/kg)	total uptake (mmol/kg)
1.01325	-0.0018	0.06	-0.0018	0.06			
1.01325	0.4894	3.998	0.4929	3.095			
1.01325	1.4927	10.639	1.4928	6.759			
1.01325	2.9925	18.511	2.9962	11.293			
1.01325	5.9903	31.97	5.9906	23.278			
