Adsorption isotherm of Arsenate, Cr(VI), Water on pyritic material and mussel shell
DOI: 10.1007/s11356-016-8015-0
Article source: Figure 5
Adsorbate Arsenate: InChIKey HAYXDMNJJFVXCI-UHFFFAOYSA-N
Adsorbate Cr(VI): InChIKey JOPOVCBBYLSVDA-UHFFFAOYSA-N
Adsorbate Water: InChIKey XLYOFNOQVPJJNP-UHFFFAOYSA-N
Kind: experiment
Temperature: 295 K
Tabular data in the source: 0
pressure (bar)	Arsenate fraction	Arsenate uptake (mmol/kg)	Cr(VI) fraction	Cr(VI) uptake (mmol/kg)	Water fraction	Water uptake (mmol/kg)	total uptake (mmol/kg)
1.01325	0.0035	0.15	0.0035	0.15			
1.01325	0.4947	5	0.4965	4.761			
1.01325	1.5106	14.731	1.5053	13.176			
1.01325	2.9982	29.312	2.9929	17.767			
1.01325	6	48.963	6	25.842			
