Adsorption isotherm of Arsenate, Cr(VI), Water on vineyard soil and hemp waste
DOI: 10.1007/s11356-016-8015-0
Article source: Figure 3
Adsorbate Arsenate: InChIKey HAYXDMNJJFVXCI-UHFFFAOYSA-N
Adsorbate Cr(VI): InChIKey JOPOVCBBYLSVDA-UHFFFAOYSA-N
Adsorbate Water: InChIKey XLYOFNOQVPJJNP-UHFFFAOYSA-N
Kind: experiment
Temperature: 295 K
Tabular data in the source: 0
pressure (bar)	Arsenate fraction	Arsenate uptake (mmol/kg)	Cr(VI) fraction	Cr(VI) uptake (mmol/kg)	Water fraction	Water uptake (mmol/kg)	total uptake (mmol/kg)
1.01325	0.0036	0.09	0.0036	0.09			
1.01325	0.492	1.527	0.4938	1.856			
1.01325	1.4995	3.984	1.4941	4.821			
1.01325	2.9991	10.06	2.9973	11.315			
1.01325	5.9982	22.631	6	22.422			
