Adsorption isotherm of Arsenate, Cr(VI), Water on forest soil and hemp waste
DOI: 10.1007/s11356-016-8015-0
Article source: Figure 3
Adsorbate Arsenate: InChIKey HAYXDMNJJFVXCI-UHFFFAOYSA-N
Adsorbate Cr(VI): InChIKey JOPOVCBBYLSVDA-UHFFFAOYSA-N
Adsorbate Water: InChIKey XLYOFNOQVPJJNP-UHFFFAOYSA-N
Kind: experiment
Temperature: 295 K
Tabular data in the source: 0
pressure (bar)	Arsenate fraction	Arsenate uptake (mmol/kg)	Cr(VI) fraction	Cr(VI) uptake (mmol/kg)	Water fraction	Water uptake (mmol/kg)	total uptake (mmol/kg)
1.01325	0.0053	0.09	0.0053	0.09			
1.01325	0.4915	3.799	0.4899	1.151			
1.01325	1.4905	10.885	1.4889	4.747			
1.01325	2.9881	18.099	2.9936	9.824			
1.01325	5.9956	31.053	5.9942	19.077			
