Adsorption isotherm of Arsenate, Cr(VI), Water on forest soil and mussel shell
DOI: 10.1007/s11356-016-8015-0
Article source: Figure 3
Adsorbate Arsenate: InChIKey HAYXDMNJJFVXCI-UHFFFAOYSA-N
Adsorbate Cr(VI): InChIKey JOPOVCBBYLSVDA-UHFFFAOYSA-N
Adsorbate Water: InChIKey XLYOFNOQVPJJNP-UHFFFAOYSA-N
Kind: experiment
Temperature: 295 K
Tabular data in the source: 0
pressure (bar)	Arsenate fraction	Arsenate uptake (mmol/kg)	Cr(VI) fraction	Cr(VI) uptake (mmol/kg)	Water fraction	Water uptake (mmol/kg)	total uptake (mmol/kg)
1.01325	0.0018	0.09	0.0018	0.09			
1.01325	0.4888	4.565	0.4906	0.903			
1.01325	1.4894	12.854	1.4824	2.349			
1.01325	2.9929	23.787	2.9912	5.958			
1.01325	6	33.797	6	12.906			
