Adsorption isotherm of Arsenate, Cr(VI), Water on vineyard soil and mussel shell
DOI: 10.1007/s11356-016-8015-0
Article source: Figure 3
Adsorbate Arsenate: InChIKey HAYXDMNJJFVXCI-UHFFFAOYSA-N
Adsorbate Cr(VI): InChIKey JOPOVCBBYLSVDA-UHFFFAOYSA-N
Adsorbate Water: InChIKey XLYOFNOQVPJJNP-UHFFFAOYSA-N
Kind: experiment
Temperature: 295 K
Tabular data in the source: 0
pressure (bar)	Arsenate fraction	Arsenate uptake (mmol/kg)	Cr(VI) fraction	Cr(VI) uptake (mmol/kg)	Water fraction	Water uptake (mmol/kg)	total uptake (mmol/kg)
1.01325	0.0052	0.091	0.0052	0.091			
1.01325	0.5007	2.838	0.5025	1.039			
1.01325	1.5057	8.605	1.5109	4.611			
1.01325	3.0009	15.046	2.9991	10.808			
1.01325	6.0017	22.683	5.9983	18.628			
