Adsorption isotherm of Arsenate, Cr(VI), Water on forest soil and oak ash
DOI: 10.1007/s11356-016-8015-0
Article source: Figure 3
Adsorbate Arsenate: InChIKey HAYXDMNJJFVXCI-UHFFFAOYSA-N
Adsorbate Cr(VI): InChIKey JOPOVCBBYLSVDA-UHFFFAOYSA-N
Adsorbate Water: InChIKey XLYOFNOQVPJJNP-UHFFFAOYSA-N
Kind: experiment
Temperature: 295 K
Tabular data in the source: 0
pressure (bar)	Arsenate fraction	Arsenate uptake (mmol/kg)	Cr(VI) fraction	Cr(VI) uptake (mmol/kg)	Water fraction	Water uptake (mmol/kg)	total uptake (mmol/kg)
1.01325	0.0035	0.12	0.0035	0.12			
1.01325	0.4893	4.152	0.4842	0.269			
1.01325	1.4957	12.577	1.4978	1.769			
1.01325	2.9967	22.684	3.0042	4.26			
1.01325	5.999	36.157	6.0031	13.969			
