Adsorption isotherm of Arsenate, Cr(VI), Water on pyritic material and oak ash
DOI: 10.1007/s11356-016-8015-0
Article source: Figure 3
Adsorbate Arsenate: InChIKey HAYXDMNJJFVXCI-UHFFFAOYSA-N
Adsorbate Cr(VI): InChIKey JOPOVCBBYLSVDA-UHFFFAOYSA-N
Adsorbate Water: InChIKey XLYOFNOQVPJJNP-UHFFFAOYSA-N
Kind: experiment
Temperature: 295 K
Tabular data in the source: 0
pressure (bar)	Arsenate fraction	Arsenate uptake (mmol/kg)	Cr(VI) fraction	Cr(VI) uptake (mmol/kg)	Water fraction	Water uptake (mmol/kg)	total uptake (mmol/kg)
1.01325	0.0034	0.121	0.0034	0.121			
1.01325	0.4874	4.829	0.4943	4.799			
1.01325	1.5017	14.849	1.512	12.949			
1.01325	2.9983	29.397	2.9983	18.115			
1.01325	6	52.609	5.9931	29.985			
