Adsorption isotherm of Arsenate, Cr(VI), Water on pine bark and mussel shell
DOI: 10.1007/s11356-016-8015-0
Article source: Figure 2
Adsorbate Arsenate: InChIKey HAYXDMNJJFVXCI-UHFFFAOYSA-N
Adsorbate Cr(VI): InChIKey JOPOVCBBYLSVDA-UHFFFAOYSA-N
Adsorbate Water: InChIKey XLYOFNOQVPJJNP-UHFFFAOYSA-N
Kind: experiment
Temperature: 295 K
Tabular data in the source: 0
pressure (bar)	Arsenate fraction	Arsenate uptake (mmol/kg)	Cr(VI) fraction	Cr(VI) uptake (mmol/kg)	Water fraction	Water uptake (mmol/kg)	total uptake (mmol/kg)
1.01325	0.006	0.055	0.006	0.055			
1.01325	0.4957	0.142	0.4974	5.092			
1.01325	1.4959	0.399	1.4981	15.082			
1.01325	3.0009	2.31	3.0007	29.725			
1.01325	6.005	10.642	6.0029	58.598			
