Adsorption isotherm of Arsenate, Cr(VI), Water on pyritic material and hemp waste
DOI: 10.1007/s11356-016-8015-0
Article source: Figure 5
Adsorbate Arsenate: InChIKey HAYXDMNJJFVXCI-UHFFFAOYSA-N
Adsorbate Cr(VI): InChIKey JOPOVCBBYLSVDA-UHFFFAOYSA-N
Adsorbate Water: InChIKey XLYOFNOQVPJJNP-UHFFFAOYSA-N
Kind: experiment
Temperature: 295 K
Tabular data in the source: 0
pressure (bar)	Arsenate fraction	Arsenate uptake (mmol/kg)	Cr(VI) fraction	Cr(VI) uptake (mmol/kg)	Water fraction	Water uptake (mmol/kg)	total uptake (mmol/kg)
1.01325	0.0084	0.17	0.0084	0.17			
1.01325	0.4913	4.979	0.4846	4.922			
1.01325	1.4992	14.852	1.4994	12.703			
1.01325	2.9933	29.42	2.9924	20.401			
1.01325	5.9888	53.242	5.9911	25.815			
