Adsorption isotherm of Arsenate, Cr(VI), Water on pyritic material and pine bark
DOI: 10.1007/s11356-016-8015-0
Article source: Figure 5
Adsorbate Arsenate: InChIKey HAYXDMNJJFVXCI-UHFFFAOYSA-N
Adsorbate Cr(VI): InChIKey JOPOVCBBYLSVDA-UHFFFAOYSA-N
Adsorbate Water: InChIKey XLYOFNOQVPJJNP-UHFFFAOYSA-N
Kind: experiment
Temperature: 295 K
Tabular data in the source: 0
pressure (bar)	Arsenate fraction	Arsenate uptake (mmol/kg)	Cr(VI) fraction	Cr(VI) uptake (mmol/kg)	Water fraction	Water uptake (mmol/kg)	total uptake (mmol/kg)
1.01325	0.0051	0.086	0.0051	0.086			
1.01325	0.5037	4.835	0.5037	4.835			
1.01325	1.5035	14.842	1.5026	14.649			
1.01325	2.9965	29.586	2.9983	28.154			
1.01325	5.9997	56.765	5.9955	38.273			
