Adsorption isotherm of Arsenate, Cr(VI), Water on pyritic material
DOI: 10.1007/s11356-016-8015-0
Article source: Figure 1
Adsorbate Arsenate: InChIKey HAYXDMNJJFVXCI-UHFFFAOYSA-N
Adsorbate Cr(VI): InChIKey JOPOVCBBYLSVDA-UHFFFAOYSA-N
Adsorbate Water: InChIKey XLYOFNOQVPJJNP-UHFFFAOYSA-N
Kind: experiment
Temperature: 295 K
Tabular data in the source: 0
pressure (bar)	Arsenate fraction	Arsenate uptake (mmol/kg)	Cr(VI) fraction	Cr(VI) uptake (mmol/kg)	Water fraction	Water uptake (mmol/kg)	total uptake (mmol/kg)
1.01325	0.0152	0.221	0.0152	0.221			
1.01325	0.4956	4.945	0.4956	5.055			
1.01325	1.4962	15	1.4926	13.011			
1.01325	2.9829	29.862	2.9993	20.691			
1.01325	5.9928	56.961	5.981	29.696			
