Adsorption isotherm of Arsenate, Cr(VI), Water on vineyard soil and oak ash
DOI: 10.1007/s11356-016-8015-0
Article source: Figure 3
Adsorbate Arsenate: InChIKey HAYXDMNJJFVXCI-UHFFFAOYSA-N
Adsorbate Cr(VI): InChIKey JOPOVCBBYLSVDA-UHFFFAOYSA-N
Adsorbate Water: InChIKey XLYOFNOQVPJJNP-UHFFFAOYSA-N
Kind: experiment
Temperature: 295 K
Tabular data in the source: 0
pressure (bar)	Arsenate fraction	Arsenate uptake (mmol/kg)	Cr(VI) fraction	Cr(VI) uptake (mmol/kg)	Water fraction	Water uptake (mmol/kg)	total uptake (mmol/kg)
1.01325	0.0017	0.151	0.0017	0.151			
1.01325	0.4962	2.148	0.4875	0.545			
1.01325	1.4991	5.567	1.4904	2.481			
1.01325	3.0017	10.62	2.993	5.567			
1.01325	6.0052	14.856	5.9983	8.29			
