Adsorption isotherm of Arsenate, Cr(VI), Water on hemp waste and mussel shell
DOI: 10.1007/s11356-016-8015-0
Article source: Figure 2
Adsorbate Arsenate: InChIKey HAYXDMNJJFVXCI-UHFFFAOYSA-N
Adsorbate Cr(VI): InChIKey JOPOVCBBYLSVDA-UHFFFAOYSA-N
Adsorbate Water: InChIKey XLYOFNOQVPJJNP-UHFFFAOYSA-N
Kind: experiment
Temperature: 295 K
Tabular data in the source: 0
pressure (bar)	Arsenate fraction	Arsenate uptake (mmol/kg)	Cr(VI) fraction	Cr(VI) uptake (mmol/kg)	Water fraction	Water uptake (mmol/kg)	total uptake (mmol/kg)
1.01325	-0.0015	0.055	-0.0015	0.055			
1.01325	0.4978	0.373	0.502	1.101			
1.01325	1.501	0.091	1.5015	2.337			
1.01325	3.0104	6.337	3.0044	9.03			
1.01325	6.006	15.391	5.9994	23.603			
