Adsorption isotherm of Arsenate, Cr(VI), Water on vineyard soil and pine bark
DOI: 10.1007/s11356-016-8015-0
Article source: Figure 3
Adsorbate Arsenate: InChIKey HAYXDMNJJFVXCI-UHFFFAOYSA-N
Adsorbate Cr(VI): InChIKey JOPOVCBBYLSVDA-UHFFFAOYSA-N
Adsorbate Water: InChIKey XLYOFNOQVPJJNP-UHFFFAOYSA-N
Kind: experiment
Temperature: 295 K
Tabular data in the source: 0
pressure (bar)	Arsenate fraction	Arsenate uptake (mmol/kg)	Cr(VI) fraction	Cr(VI) uptake (mmol/kg)	Water fraction	Water uptake (mmol/kg)	total uptake (mmol/kg)
1.01325	0.0018	0.06	0.0018	0.06			
1.01325	0.5028	2.02	0.4958	4.037			
1.01325	1.4959	4.553	1.4979	8.798			
1.01325	3.0076	9.017	3.0078	12.509			
1.01325	6.0013	22.88	5.998	25.861			
