Adsorption isotherm of Arsenate, Cr(VI), Water on oak ash
DOI: 10.1007/s11356-016-8015-0
Article source: Figure 1
Adsorbate Arsenate: InChIKey HAYXDMNJJFVXCI-UHFFFAOYSA-N
Adsorbate Cr(VI): InChIKey JOPOVCBBYLSVDA-UHFFFAOYSA-N
Adsorbate Water: InChIKey XLYOFNOQVPJJNP-UHFFFAOYSA-N
Kind: experiment
Temperature: 295 K
Tabular data in the source: 0
pressure (bar)	Arsenate fraction	Arsenate uptake (mmol/kg)	Cr(VI) fraction	Cr(VI) uptake (mmol/kg)	Water fraction	Water uptake (mmol/kg)	total uptake (mmol/kg)
1.01325	0.0054	0.111	0.0054	0.111			
1.01325	0.4923	4.618	0.4834	2.046			
1.01325	1.4879	13.742	1.4881	6.028			
1.01325	2.9884	26.82	2.9979	10.977			
1.01325	6.0019	57.124	6.0025	36.138			
