Adsorption isotherm of Arsenate, Cr(VI), Water on hemp waste
DOI: 10.1007/s11356-016-8015-0
Article source: Figure 1
Adsorbate Arsenate: InChIKey HAYXDMNJJFVXCI-UHFFFAOYSA-N
Adsorbate Cr(VI): InChIKey JOPOVCBBYLSVDA-UHFFFAOYSA-N
Adsorbate Water: InChIKey XLYOFNOQVPJJNP-UHFFFAOYSA-N
Kind: experiment
Temperature: 295 K
Tabular data in the source: 0
pressure (bar)	Arsenate fraction	Arsenate uptake (mmol/kg)	Cr(VI) fraction	Cr(VI) uptake (mmol/kg)	Water fraction	Water uptake (mmol/kg)	total uptake (mmol/kg)
1.01325	0.0073	0.056	0.0073	0.056			
1.01325	0.4979	0.023	0.496	0.417			
1.01325	1.5027	0.098	1.4899	1.588			
1.01325	2.9943	3.485	3.0033	5.621			
1.01325	5.9971	18.155	5.9935	17.002			
