Adsorption isotherm of Arsenate, Cr(VI), Water on oak ash and mussel shell
DOI: 10.1007/s11356-016-8015-0
Article source: Figure 2
Adsorbate Arsenate: InChIKey HAYXDMNJJFVXCI-UHFFFAOYSA-N
Adsorbate Cr(VI): InChIKey JOPOVCBBYLSVDA-UHFFFAOYSA-N
Adsorbate Water: InChIKey XLYOFNOQVPJJNP-UHFFFAOYSA-N
Kind: experiment
Temperature: 295 K
Tabular data in the source: 0
pressure (bar)	Arsenate fraction	Arsenate uptake (mmol/kg)	Cr(VI) fraction	Cr(VI) uptake (mmol/kg)	Water fraction	Water uptake (mmol/kg)	total uptake (mmol/kg)
1.01325	0.0046	0.11	0.0046	0.11			
1.01325	0.503	3.934	0.5014	1.536			
1.01325	1.5042	12.768	1.5058	4.637			
1.01325	3.0008	24.378	3.0008	9.853			
1.01325	5.9954	54.626	5.9985	18.824			
