Adsorption isotherm of Nitrogen on Si-COF-5
DOI: 10.1021/jacs.8b01774
Article source: Figure S12
Adsorbate Nitrogen: InChIKey IJGRMHOSHXDMSA-UHFFFAOYSA-N
Kind: experiment
Temperature: 77 K
Tabular data in the source: 0
pressure (bar)	uptake (cm3(STP)/g)
0.000833	0
0.000833	7.24479
0.000833	13.831
0.000833	33.5895
0.000833	41.8222
0.000833	49.3963
0.000833	57.2997
0.000833	64.8738
0.001665	72.7772
0.007493	80.3513
0.02581	86.2788
0.049955	89.2426
0.075765	91.5478
0.101575	93.1943
0.128217	94.5115
0.152362	95.4995
0.175674	96.4874
0.202317	97.4753
0.228127	98.4632
0.253937	99.4512
0.277249	100.11
0.304724	101.427
0.328869	102.086
0.353847	103.074
0.379657	103.732
0.405467	104.72
0.429611	105.708
0.455421	106.696
0.480399	107.355
0.507041	108.013
0.532019	108.672
0.556996	109.989
0.581974	110.648
0.608616	111.965
0.631096	113.611
0.659403	114.929
0.683548	116.246
0.710191	117.563
0.735168	119.539
0.759313	121.515
0.78429	123.491
0.8101	125.796
0.83591	128.76
0.862553	132.711
0.88753	137.651
0.911675	144.237
0.936653	153.458
0.962463	167.618
0.989105	195.28
0.023312	90.8891
0.050787	93.8529
0.075765	96.4874
0.102407	97.8046
0.12572	98.7925
0.153195	100.11
0.17734	101.098
0.202317	101.756
0.228127	102.744
0.253104	103.732
0.278914	104.391
0.304724	105.049
0.329702	105.708
0.355512	106.696
0.379657	107.355
0.406299	108.342
0.431276	109.001
0.454589	109.66
0.482064	110.648
0.507041	111.965
0.532851	112.953
0.557829	113.941
0.583639	114.929
0.606951	115.587
0.634426	116.905
0.657738	117.892
0.683548	119.21
0.710191	120.856
0.736001	122.832
0.759313	124.808
0.785123	127.113
0.8101	130.077
0.836743	134.029
0.86172	138.639
0.885033	144.896
0.912508	153.787
0.937485	164.325
0.963295	183.096
0.98744	219.649
1.00742	270.692
