Adsorption isotherm of Methane on Cu-TEI
DOI: 10.1039/C0cc02771e
Adsorbate Methane: InChIKey VNWKTOKETHGBQD-UHFFFAOYSA-N
Temperature: 142 K
Tabular data in the source: 0
pressure (bar)	uptake (mmol/g)
1.05e-07	0.00132681
2.12e-07	0.00253227
3.1e-07	0.0036425
4.54e-07	0.00483292
5.16e-07	0.00591466
5.86e-07	0.00723852
7.56e-07	0.0088587
9.15e-07	0.0104121
1.04e-06	0.0117538
2.09e-06	0.0274536
3.06e-06	0.036425
4.21e-06	0.0483292
5.1e-06	0.0591466
6.17e-06	0.0784766
7.46e-06	0.092238
9.63e-06	0.112884
1.03e-05	0.122382
2.07e-05	0.243201
2.84e-05	0.297635
4.16e-05	0.445782
6.09e-05	0.615849
7.85e-05	0.78476
0.000107932	0.960409
0.000203887	1.83298
0.000298635	2.85851
0.000385159	4.11183
0.000529371	4.64159
0.000640664	5.45559
0.001	7.23851
0.00201312	10
0.00314225	12.7427
0.00431877	14.3843
0.00593581	16.2379
0.00869421	16.9071
0.010522	18.3299
0.0211821	19.8724
0.0310249	20.6914
0.0375483	20.6914
0.0624568	21.5442
0.10389	23.3572
0.209142	23.3572
0.306329	23.3572
0.543009	24.3198
0.795339	25.3227
1.09314	25.3227
2.06499	25.3227
3.02457	25.3227
4.72099	25.3227
6.91479	25.3227
