Adsorption isotherm of Methane on Cu-TEI
DOI: 10.1039/C0cc02771e
Adsorbate Methane: InChIKey VNWKTOKETHGBQD-UHFFFAOYSA-N
Temperature: 273 K
Tabular data in the source: 0
pressure (bar)	uptake (cm3(STP)/g)
0.0549312	0.309278
0.11444	0.927835
0.160216	1.23711
0.224302	1.54639
0.283811	1.85567
0.352475	2.47423
0.389096	2.78351
0.47607	3.09278
0.540156	3.71134
0.599665	4.02062
0.654596	4.3299
0.709527	4.63918
0.814812	4.94845
0.883476	4.94845
0.975028	5.56701
1.02996	5.87629
1.07116	5.56701
