Adsorption isotherm of Argon on Cu-TEI
DOI: 10.1039/C0cc02771e
Adsorbate Argon: InChIKey XKRFYHLGVUSROY-UHFFFAOYSA-N
Temperature: 87 K
Tabular data in the source: 0
pressure (bar)	uptake (mmol/g)
9.87e-08	0.0205608
1.96e-07	0.0322626
2.93e-07	0.0895715
3.9e-07	0.0951174
4.9e-07	0.17872
6.17e-07	0.227259
7.75e-07	0.264082
8.69e-07	0.325869
1.03e-06	0.414373
1.94e-06	0.559533
2.89e-06	0.690446
4.08e-06	0.755546
5.13e-06	0.990039
6.09e-06	1.05133
6.83e-06	1.22168
8.58e-06	1.46291
1.02e-05	1.64965
2.03e-05	2.66739
2.86e-05	4.06159
4.03e-05	5.01187
5.06e-05	6.37306
6.37e-05	6.97394
8e-05	8.10394
0.000100638	8.86801
0.000200032	11.9746
0.000316228	14.339
0.000421027	15.2268
0.000593581	17.6942
0.000790296	18.7893
0.000993665	21.8338
0.00209141	25.3717
0.00294856	26.1451
0.004157	26.942
0.00657173	27.7639
0.0103889	27.7639
0.0195011	28.6101
0.0308283	28.6101
0.041045	29.4829
0.0648858	30.3816
0.0815831	30.3816
0.102577	30.3816
0.215901	30.3816
0.287451	29.4829
0.405261	30.3816
0.605018	31.3076
0.71838	31.3076
