Adsorption isotherm of Carbon Dioxide on Cu-TEI
DOI: 10.1039/C0cc02771e
Adsorbate Carbon Dioxide: InChIKey CURLTUGMZLYLDI-UHFFFAOYSA-N
Temperature: 179 K
Tabular data in the source: 0
pressure (bar)	uptake (cm3(STP)/g)
0	15.1795
0.00459732	34.4615
0.00919465	45.9487
0.013792	50.8718
0.0183893	54.9744
0.0275839	57.4359
0.0321813	60.3077
