Adsorption isotherm of Methane on Cu-TEI
DOI: 10.1039/C0cc02771e
Adsorbate Methane: InChIKey VNWKTOKETHGBQD-UHFFFAOYSA-N
Temperature: 113 K
Tabular data in the source: 0
pressure (bar)	uptake (cm3(STP)/g)
0.0137328	1.85567
0.0411984	2.16495
0.0778191	2.16495
0.11444	2.78351
0.169371	2.47423
0.219725	2.78351
0.292966	3.09278
0.421139	3.40206
0.508113	3.71134
0.769036	4.3299
0.805657	4.63918
0.865166	4.63918
0.938407	4.94845
1.00707	5.25773
1.05285	5.56701
