Adsorption isotherm of Hydrogen on Cu-TEI
DOI: 10.1039/C0cc02771e
Adsorbate Hydrogen: InChIKey UFHFLCQGNIYNRP-UHFFFAOYSA-N
Temperature: 77 K
Tabular data in the source: 0
pressure (bar)	uptake (cm3(STP)/g)
0.00911606	0.00911606
0.0273482	7.67045
0.0364642	8.80682
0.0592544	9.65909
0.0820445	10.2273
0.109393	11.0795
0.136741	11.6477
0.164089	12.5
0.205111	13.0682
0.241576	14.2045
0.282598	15.3409
0.314504	16.4773
0.360084	17.6136
0.401107	18.75
0.455803	20.7386
0.492267	21.875
0.537848	23.5795
0.592544	25.2841
0.651798	27.2727
0.706495	28.9773
0.742959	30.6818
0.793097	32.1023
0.820445	32.9545
0.852352	34.0909
0.893374	35.5114
0.92528	36.3636
0.952628	37.5
0.979976	38.0682
1.00277	39.2045
1.03011	39.7727
1.04835	40.9091
