Adsorption isotherm of Methane on Cu-TEI
DOI: 10.1039/C0cc02771e
Adsorbate Methane: InChIKey VNWKTOKETHGBQD-UHFFFAOYSA-N
Temperature: 195 K
Tabular data in the source: 0
pressure (bar)	uptake (mmol/g)
1.04e-05	0.000310549
2.01e-05	0.00058576
3.02e-05	0.00100911
4.1e-05	0.00126578
5.03e-05	0.00138589
5.86e-05	0.00208401
7.95e-05	0.00218062
9.75e-05	0.00286213
0.000198765	0.00677189
0.000314224	0.00888833
0.000405257	0.0127732
0.000522673	0.0160221
0.000640664	0.0183561
0.00078529	0.023025
0.00101279	0.0330895
0.00196255	0.0596472
0.00294856	0.0857176
0.00400138	0.112507
0.00490467	0.14767
0.0066558	0.185232
0.00815831	0.254397
0.01	0.291452
0.0193772	0.629815
0.0291132	0.864984
0.0395085	1.18796
0.0536142	1.49014
0.0593581	1.63154
0.0847579	2.24075
0.098737	2.56714
0.191323	5.06669
0.318245	6.3555
0.41045	7.97214
0.503103	8.72861
0.682738	10.9489
0.836858	11.9878
1.02577	11.9878
1.98766	15.7344
2.98633	15.7344
3.85155	17.2274
4.96744	17.2274
6.40664	17.2274
8.2628	18.0264
9.62554	18.8621
