Adsorption isotherm of Methane on Cu-TEI
DOI: 10.1039/C0cc02771e
Adsorbate Methane: InChIKey VNWKTOKETHGBQD-UHFFFAOYSA-N
Temperature: 142 K
Tabular data in the source: 0
pressure (bar)	uptake (cm3(STP)/g)
0.0137328	17.0103
0.022888	21.3402
0.0366208	23.8144
0.045776	25.3608
0.0549312	26.9072
0.0778191	28.1443
0.100707	29.3814
0.13275	30.6186
0.146483	31.2371
0.173949	32.4742
0.210569	33.0928
0.238035	33.7113
0.279233	34.6392
0.320432	35.8763
0.375363	37.1134
0.444027	38.3505
0.5722	41.7526
0.769036	45.4639
0.810235	46.3918
0.860588	47.6289
0.906364	48.5567
0.947562	48.866
0.993338	49.7938
1.03911	51.0309
