Adsorption isotherm of Methane on Cu-TEI
DOI: 10.1039/C0cc02771e
Adsorbate Methane: InChIKey VNWKTOKETHGBQD-UHFFFAOYSA-N
Temperature: 113 K
Tabular data in the source: 0
pressure (bar)	uptake (mmol/g)
1.06e-07	0.00699955
1.98e-07	0.0129622
2.88e-07	0.0185187
4.18e-07	0.0247953
5.04e-07	0.0331994
6.47e-07	0.0365915
7.33e-07	0.0416601
7.8e-07	0.0576182
9.4e-07	0.0614795
1.86e-06	0.142866
3.07e-06	0.197595
4.18e-06	0.247951
5.71e-06	0.291601
6.08e-06	0.403305
8.83e-06	0.489938
1e-05	0.59518
1.98e-05	1.06701
3.07e-05	1.5244
4.18e-05	1.97595
5.04e-05	2.24964
6.08e-05	3.01213
6.88e-05	3.31992
8.83e-05	4.03305
0.000106422	4.89938
0.000211018	7.4686
0.000288045	8.78339
0.000418427	10.6701
0.000571163	12.5484
0.000882978	13.8309
0.00106422	15.244
0.0019829	17.3556
0.00306542	18.5187
0.00418427	19.7592
0.00607827	21.0834
0.0106422	21.7786
0.0211018	22.4962
0.032622	24.0038
0.0607827	24.0038
0.106421	24.0038
0.21102	24.7953
0.445296	24.7953
0.571159	25.6124
0.939665	26.457
