Adsorption isotherm of Carbon Dioxide on Cu-TEI
DOI: 10.1039/C0cc02771e
Adsorbate Carbon Dioxide: InChIKey CURLTUGMZLYLDI-UHFFFAOYSA-N
Temperature: 195 K
Tabular data in the source: 0
pressure (bar)	uptake (cm3(STP)/g)
0.00459732	0.00459732
0.00919465	19.2821
0.0183893	22.9744
0.0321813	26.2564
0.0459732	28.7179
0.0551679	30.359
0.0643625	32.8205
0.0781545	34.4615
0.0919465	36.9231
0.114933	39.7949
0.142517	41.4359
0.174698	43.8974
0.216074	46.359
0.239061	48
0.271242	50.0513
0.312618	52.1026
0.367786	54.1538
0.418356	55.7949
0.455135	57.0256
0.501108	59.0769
0.565471	60.7179
0.666612	64
0.740169	66.0513
0.84131	68.5128
0.919465	70.1538
0.997619	71.7949
