Adsorption isotherm of Oxygen on Cu-TEI
DOI: 10.1039/C0cc02771e
Adsorbate Oxygen: InChIKey MYMOFIZGZYHOMD-UHFFFAOYSA-N
Temperature: 77 K
Tabular data in the source: 0
pressure (bar)	uptake (cm3(STP)/g)
0.00455803	2.77228
0.0227901	4.50495
0.0501383	5.19802
0.0683704	5.19802
0.0911606	5.89109
0.109393	6.23762
0.132183	6.93069
0.154973	6.58416
0.182321	7.9703
