Adsorption isotherm of Argon on Cu-TEI
DOI: 10.1039/C0cc02771e
Adsorbate Argon: InChIKey XKRFYHLGVUSROY-UHFFFAOYSA-N
Temperature: 77 K
Tabular data in the source: 0
pressure (bar)	uptake (mmol/g)
1.03e-07	0.278256
2.02e-07	0.453947
2.95e-07	0.554576
3.93e-07	0.662607
5.24e-07	0.865363
6.04e-07	1.08098
6.97e-07	1.26313
8.85e-07	1.44351
1.02e-06	1.68676
1.99e-06	3.67466
3.06e-06	4.79909
4.07e-06	5.60779
5.16e-06	6.55277
6.25e-06	7.32376
7.93e-06	8.00538
9.15e-06	9.14857
2.06e-05	12.4917
3.02e-05	13.9614
4.21e-05	15.6041
5.34e-05	16.314
7.46e-05	19.0629
9.47e-05	21.3059
0.000104172	22.2756
0.000203091	24.8966
0.000311946	26.0292
0.000395941	26.6146
0.000552841	27.2132
0.000771916	27.8253
0.00102761	28.4518
0.00210131	27.8253
0.0030773	29.0918
0.00429675	29.0918
0.00629245	29.7461
0.0092151	30.4152
0.0197633	29.7461
0.031839	30.4152
