Adsorption isotherm of Carbon Dioxide on Cu-TEI
DOI: 10.1039/C0cc02771e
Adsorbate Carbon Dioxide: InChIKey CURLTUGMZLYLDI-UHFFFAOYSA-N
Temperature: 298 K
Tabular data in the source: 0
pressure (bar)	uptake (mmol/g)
0.46875	0.00974026
1.25	0.496753
2.34375	0.769481
3.4375	1.00325
5	1.16883
6.40625	1.31494
8.28125	1.47078
9.6875	1.55844
11.7188	1.68506
13.2812	1.77273
15.3125	1.84091
17.1875	1.91883
19.2188	2.00649
21.0938	2.05519
22.9688	2.12338
24.6875	2.2013
26.7188	2.23052
28.5938	2.27922
30.4688	2.2987
32.8125	2.33766
35.1562	2.36688
36.7188	2.37662
39.0625	2.43506
41.0938	2.52273
43.2812	2.54221
45.3125	2.55195
47.3438	2.60065
49.6875	2.68831
51.5625	2.76623
53.9062	2.76623
56.0938	2.79545
58.125	2.87338
60.1562	2.93182
