Adsorption isotherm of Argon on Cu-TEI
DOI: 10.1039/C0cc02771e
Adsorbate Argon: InChIKey XKRFYHLGVUSROY-UHFFFAOYSA-N
Temperature: 77 K
Tabular data in the source: 0
pressure (bar)	uptake (cm3(STP)/g)
0.0265539	3.81006
0.0486821	4.21229
0.0752359	4.61453
0.10179	5.01676
0.132769	5.31844
0.168174	6.02235
0.199154	6.32402
0.212431	6.52514
0.247836	6.92737
0.278816	7.43017
0.314221	7.93296
0.349626	8.3352
0.380605	8.93855
0.411585	9.24022
0.44699	9.84358
0.477969	10.3464
0.513375	10.8492
0.557631	11.352
0.610739	12.257
0.654995	12.9609
0.699252	13.7654
0.734657	14.3687
0.778913	15.1732
0.814318	15.7765
0.845298	16.4804
0.876277	17.0838
0.907257	17.8883
0.924959	18.2905
0.938236	18.5922
