Adsorption isotherm of Hydrogen on Cu-TEI
DOI: 10.1039/C0cc02771e
Adsorbate Hydrogen: InChIKey UFHFLCQGNIYNRP-UHFFFAOYSA-N
Temperature: 113 K
Tabular data in the source: 0
pressure (bar)	uptake (cm3(STP)/g)
0.0273482	0.568182
0.0592544	1.13636
0.0957186	1.98864
0.136741	2.27273
0.287156	4.26136
0.364642	5.11364
0.423897	5.96591
0.487709	6.53409
0.569754	6.81818
0.656356	7.67045
0.774865	7.95455
0.893374	8.80682
1.06202	8.80682
