Adsorption isotherm of Nitrogen on Cu-TEI
DOI: 10.1039/C0cc02771e
Adsorbate Nitrogen: InChIKey IJGRMHOSHXDMSA-UHFFFAOYSA-N
Temperature: 77 K
Tabular data in the source: 0
pressure (bar)	uptake (cm3(STP)/g)
0.0022818	3.07754
0.0045636	6.89572
0.00684541	7.28877
0.0205362	7.62567
0.0296634	8.07487
0.057045	8.52406
0.0775813	8.91711
0.11409	9.47861
0.141472	9.81551
0.173417	10.2086
0.214489	10.6016
0.244153	10.9385
0.280662	11.3877
0.308043	11.6123
0.344552	11.893
0.376497	12.0615
0.426697	12.3984
0.472333	12.7353
0.529378	13.0722
0.565887	13.2406
0.618368	13.5775
0.659441	13.8583
0.700513	14.0267
0.748431	14.3075
0.791785	14.4759
0.81004	14.7567
0.832858	14.9813
0.857958	15.262
0.871648	15.5428
0.89903	15.8797
0.92413	16.3289
0.935539	16.8904
0.946948	17.2273
0.953793	17.9011
0.965202	18.5749
0.976611	19.754
