Adsorption isotherm of Oxygen on Cu-TEI
DOI: 10.1039/C0cc02771e
Adsorbate Oxygen: InChIKey MYMOFIZGZYHOMD-UHFFFAOYSA-N
Temperature: 113 K
Tabular data in the source: 0
pressure (bar)	uptake (cm3(STP)/g)
0.00455803	0.00455803
0.0136741	22.5248
0.0227901	27.7228
0.0273482	31.1881
0.0455803	33.9604
0.0501383	35.3465
0.0592544	37.4257
0.0774865	39.1584
0.0957186	40.5446
0.109393	42.2772
0.127625	44.0099
0.154973	45.396
0.186879	46.4356
0.218785	47.1287
0.250692	47.8218
0.296272	48.1683
0.337294	48.8614
0.382874	49.2079
0.423897	49.5545
0.474035	49.901
0.519615	50.2475
0.560638	50.2475
0.606218	49.901
0.656356	49.901
0.711053	49.901
0.756633	49.2079
0.802213	49.2079
0.843235	48.5149
0.884258	48.1683
0.92528	47.4752
0.975418	46.7822
1.00732	46.4356
1.03923	45.7426
