Adsorption isotherm of Hydrogen on Cu-TEI
DOI: 10.1039/C0cc02771e
Adsorbate Hydrogen: InChIKey UFHFLCQGNIYNRP-UHFFFAOYSA-N
Temperature: 87 K
Tabular data in the source: 0
pressure (bar)	uptake (cm3(STP)/g)
0.288901	0.304878
0.738743	12.1951
1.47485	22.561
2.06276	30.1829
3.2254	36.2805
4.0987	41.7683
5.25871	46.0366
6.13025	50.3049
7.4336	53.9634
8.88031	57.0122
10.0385	60.061
11.341	63.1098
12.6431	65.8537
13.9442	67.9878
15.2449	69.8171
16.689	71.0366
18.1348	73.4756
19.7231	74.6951
21.1663	75.3049
22.6121	77.7439
24.2004	78.9634
25.7874	79.2683
27.231	80.1829
28.6742	80.7927
30.1187	82.3171
31.8499	82.622
33.5816	83.2317
34.7376	84.7561
36.1786	83.8415
37.4785	85.061
39.211	86.2805
40.9409	85.6707
42.5292	86.8902
44.2608	87.5
46.1341	86.2805
47.8666	87.5
49.5987	88.4146
51.4724	87.5
53.0598	88.1098
54.9365	89.3293
56.6651	87.8049
58.3963	88.1098
60.4173	89.3293
