Adsorption isotherm of Methane on Cu-TEI
DOI: 10.1039/C0cc02771e
Adsorbate Methane: InChIKey VNWKTOKETHGBQD-UHFFFAOYSA-N
Temperature: 273 K
Tabular data in the source: 0
pressure (bar)	uptake (mmol/g)
1.03e-05	2.25e-05
2.14e-05	4.3e-05
3.07e-05	5.95e-05
3.98e-05	8.23e-05
4.9e-05	0.0001
6.69e-05	0.000129622
7.42e-05	0.000147574
9.13e-05	0.000204108
0.000106701	0.000191289
0.000198879	0.000365915
0.000317256	0.000614795
0.000411225	0.000850315
0.000561436	0.0009681
0.000690939	0.00125484
0.000895592	0.00162656
0.00104645	0.00173556
0.00205438	0.00377972
0.00311143	0.00595182
0.00382913	0.00771472
0.00522769	0.01
0.00677626	0.0129622
0.00974384	0.0179275
0.0108094	0.0204108
0.0212207	0.0390436
0.0305148	0.0576182
0.0416601	0.0850315
0.0539995	0.0907298
0.0599046	0.125485
0.0776497	0.15244
0.100651	0.173555
0.197595	0.403305
0.299265	0.557801
0.430331	0.723028
0.587508	1.06701
0.723028	1.29621
0.937197	1.79276
1.09506	1.79276
2.14978	3.42934
3.0913	5.06087
4.22038	5.4
4.93126	6.55996
6.39196	7.4686
8.7266	9.0729
10.1965	10.3295
