Adsorption isotherm of Hydrogen on Cu-TEI
DOI: 10.1039/C0cc02771e
Adsorbate Hydrogen: InChIKey UFHFLCQGNIYNRP-UHFFFAOYSA-N
Temperature: 87 K
Tabular data in the source: 0
pressure (bar)	uptake (cm3(STP)/g)
0.0136741	2.55682
0.0227901	4.82955
0.0319062	6.81818
0.0455803	7.95455
0.0592544	9.375
0.0774865	10.7955
0.0866026	12.5
0.109393	13.6364
0.127625	15.3409
0.150415	16.4773
0.173205	17.8977
0.200553	19.0341
0.23246	20.4545
0.268924	22.1591
0.296272	23.8636
0.32362	25
0.355526	26.7045
0.396549	28.125
0.433013	29.8295
0.474035	31.5341
0.501383	32.9545
0.537848	34.375
0.597102	36.0795
0.642682	37.7841
0.692821	39.2045
0.752075	40.9091
0.783981	41.7614
0.825003	42.8977
0.888816	44.3182
0.961744	46.0227
1.01644	46.875
1.05746	48.2955
