Adsorption isotherm of Methane on Cu-TEI
DOI: 10.1039/C0cc02771e
Adsorbate Methane: InChIKey VNWKTOKETHGBQD-UHFFFAOYSA-N
Temperature: 298 K
Tabular data in the source: 0
pressure (bar)	uptake (mmol/g)
0.46875	0.00974026
1.71875	0.214286
3.28125	0.38961
4.375	0.545455
6.875	0.672078
8.28125	0.788961
10.1562	0.896104
12.0312	0.954545
13.75	1.02273
15.625	1.10065
17.6562	1.14935
19.5312	1.19805
21.5625	1.25649
23.75	1.31494
25.7812	1.33442
27.6562	1.36364
29.8438	1.4026
32.0312	1.42208
34.2188	1.4513
36.4062	1.49026
38.75	1.53896
40.7812	1.56818
42.9688	1.57792
45.3125	1.60714
47.6562	1.6461
49.6875	1.68506
52.0312	1.73377
54.6875	1.70455
57.1875	1.73377
59.375	1.78247
