Adsorption isotherm of Nitrogen on Cu-TEI
DOI: 10.1039/C0cc02771e
Adsorbate Nitrogen: InChIKey IJGRMHOSHXDMSA-UHFFFAOYSA-N
Temperature: 77 K
Tabular data in the source: 0
pressure (bar)	uptake (cm3(STP)/g)
0.00405764	1.8593
0.00811528	2.41206
0.0243458	2.68844
0.0405764	2.77136
0.0527493	2.85427
0.0649222	2.96482
0.0730375	2.99246
0.0811528	3.07538
0.0933257	3.18593
0.113614	3.29648
0.133902	3.43467
0.15419	3.51759
0.174478	3.62814
0.210997	3.71106
0.239401	3.84925
0.271862	3.90452
0.316496	3.98744
0.348957	4.07035
0.385476	4.09799
0.413879	4.1809
0.462571	4.20854
0.511263	4.23618
0.539666	4.23618
0.555897	4.20854
0.580242	4.26382
0.604588	4.23618
0.637049	4.26382
0.66951	4.20854
0.701972	4.15327
0.730375	4.1809
0.758779	4.15327
0.80747	4.15327
0.848047	4.15327
0.900796	4.20854
0.937315	4.29146
