Adsorption isotherm of Argon on Cu-TEI
DOI: 10.1039/C0cc02771e
Adsorbate Argon: InChIKey XKRFYHLGVUSROY-UHFFFAOYSA-N
Temperature: 87 K
Tabular data in the source: 0
pressure (bar)	uptake (cm3(STP)/g)
0.00442564	2.40223
0.0221282	2.90503
0.0486821	3.2067
0.0752359	3.81006
0.10179	4.21229
0.128344	4.61453
0.154898	4.9162
0.1726	5.21788
0.190303	5.41899
0.212431	6.02235
0.24341	6.42458
