Adsorption isotherm of Carbon Dioxide on Cu-TEI
DOI: 10.1039/C0cc02771e
Adsorbate Carbon Dioxide: InChIKey CURLTUGMZLYLDI-UHFFFAOYSA-N
Temperature: 273 K
Tabular data in the source: 0
pressure (bar)	uptake (cm3(STP)/g)
0.00919465	1.23077
0.0459732	2.87179
0.0873491	4.92308
0.133322	6.5641
0.170101	7.79487
0.225269	9.02564
0.280437	9.84615
0.340202	11.0769
0.39537	11.8974
0.44594	12.7179
0.505706	13.9487
0.560873	15.1795
0.629833	16
0.70339	16.8205
0.767753	17.641
0.845907	18.8718
0.905673	19.2821
0.974632	20.5128
1.05279	21.3333
