Adsorption isotherm of Hydrogen on Cu-TEI
DOI: 10.1039/C0cc02771e
Adsorbate Hydrogen: InChIKey UFHFLCQGNIYNRP-UHFFFAOYSA-N
Temperature: 77 K
Tabular data in the source: 0
pressure (bar)	uptake (cm3(STP)/g)
0.164458	14.0244
0.755892	24.0854
1.91941	30.7927
2.64936	36.8902
3.52222	42.0732
4.24997	46.6463
5.40997	50.9146
6.42443	54.2683
7.7269	57.3171
8.88602	60.9756
9.8996	63.7195
11.2021	66.7683
12.2156	69.5122
13.3734	72.2561
14.5304	74.3902
15.5426	76.2195
16.8429	77.7439
18.2887	80.1829
19.4452	82.0122
20.6013	83.5366
21.7582	85.6707
23.2014	86.2805
24.3579	88.1098
25.6577	89.3293
27.1022	90.8537
28.2574	91.7683
29.7014	92.9878
30.8562	93.5976
31.8675	94.8171
33.3125	96.6463
34.8994	96.9512
36.198	97.2561
37.6412	97.8659
38.9401	98.4756
39.951	99.3902
41.5371	99.0854
42.6919	99.6951
43.9913	100.61
45.4323	99.6951
46.8754	100.305
48.1757	101.829
49.476	103.354
50.9174	102.744
52.3588	102.134
54.0887	101.524
55.5324	102.439
56.976	103.354
58.7068	103.354
60.4375	103.354
