Adsorption isotherm of Methane on Cu-TEI
DOI: 10.1039/C0cc02771e
Adsorbate Methane: InChIKey VNWKTOKETHGBQD-UHFFFAOYSA-N
Temperature: 179 K
Tabular data in the source: 0
pressure (bar)	uptake (cm3(STP)/g)
0.0137328	7.42268
0.0183104	8.65979
0.022888	15.4639
0.0366208	17.6289
0.0411984	20.1031
0.0549312	21.9588
0.0823967	24.1237
0.100707	25.9794
0.11444	27.5258
0.146483	28.7629
0.173949	30.3093
0.215147	31.8557
0.265501	33.7113
0.338742	36.1856
0.393673	37.4227
0.448604	38.6598
0.498958	39.8969
0.558467	41.134
0.613398	42.0619
0.668329	42.6804
0.718683	43.6082
0.782769	44.5361
0.846855	45.1546
0.888054	45.7732
0.938407	46.0825
0.997916	46.701
1.05742	47.6289
