Adsorption isotherm of Nitrogen on Cu-TEI
DOI: 10.1039/C0cc02771e
Adsorbate Nitrogen: InChIKey IJGRMHOSHXDMSA-UHFFFAOYSA-N
Temperature: 77 K
Tabular data in the source: 0
pressure (bar)	uptake (cm3(STP)/g)
1.11e-16	1.84225
0.0022818	2.40374
0.011409	2.74064
0.0273816	2.74064
0.0479178	2.96524
0.0752995	3.18984
0.107245	3.41444
0.148317	3.52674
0.198517	3.69519
0.239589	3.80749
0.266971	3.97594
0.298916	3.97594
0.346834	4.08824
0.387906	4.20053
0.41757	4.20053
0.458642	4.31283
0.50656	4.31283
0.540787	4.25668
0.597832	4.31283
0.632059	4.31283
0.67085	4.14439
0.716486	4.20053
0.771249	4.20053
0.803194	4.20053
0.841985	4.25668
0.869367	4.31283
0.889903	4.31283
0.953793	4.36898
