Adsorption isotherm of Methane on Cu-TEI
DOI: 10.1039/C0cc02771e
Adsorbate Methane: InChIKey VNWKTOKETHGBQD-UHFFFAOYSA-N
Temperature: 179 K
Tabular data in the source: 0
pressure (bar)	uptake (mmol/g)
1.03e-07	9.01e-06
2.11e-07	1.51e-05
3.32e-07	2.54e-05
4.9e-07	3.08e-05
6.35e-07	4.84e-05
8.78e-07	5.88e-05
1.07e-06	8.12e-05
2.18e-06	0.000155096
3.01e-06	0.000214314
4.17e-06	0.000296135
5.4e-06	0.000359484
6.15e-06	0.000497016
8.5e-06	0.00064365
1.03e-05	0.000781484
2.25e-05	0.00159159
3.11e-05	0.00285069
4.3e-05	0.00324258
5.58e-05	0.00393623
7.23e-05	0.00509847
0.0001	0.00751727
0.000204108	0.0143506
0.00030121	0.0211549
0.000444519	0.035505
0.000614795	0.0490614
0.000907298	0.0723219
0.00125484	0.0936591
0.00224962	0.167633
0.00311143	0.24716
0.0072302	0.537
0.01	0.651756
0.0217786	1.24401
0.0321396	1.95672
0.0390436	2.70481
0.0576182	3.50216
0.0796911	4.5354
0.103296	5.87454
0.210836	9.23177
0.311142	11.2026
0.557801	14.4971
0.771479	15.4543
1.06701	17.5788
2.17785	18.7193
3.21397	18.6986
5.06087	21.2613
7.96908	19.9008
9.68088	21.2227
