Adsorption isotherm of Oxygen on Cu-TEI
DOI: 10.1039/C0cc02771e
Adsorbate Oxygen: InChIKey MYMOFIZGZYHOMD-UHFFFAOYSA-N
Temperature: 87 K
Tabular data in the source: 0
pressure (bar)	uptake (cm3(STP)/g)
0.00455803	0.00455803
0.0182321	8.66337
0.0364642	9.70297
0.0729285	10.0495
0.109393	11.4356
0.150415	12.1287
0.182321	12.8218
0.23246	13.5149
0.268924	14.2079
0.32362	15.2475
0.373758	16.2871
0.433013	17.3267
0.487709	18.3663
0.551522	19.4059
0.619892	20.4455
0.67003	21.1386
