Adsorption isotherm of Methane on Cu-TEI
DOI: 10.1039/C0cc02771e
Adsorbate Methane: InChIKey VNWKTOKETHGBQD-UHFFFAOYSA-N
Temperature: 195 K
Tabular data in the source: 0
pressure (bar)	uptake (cm3(STP)/g)
0.00915519	0.00915519
0.0183104	4.3299
0.0320432	6.80412
0.0549312	9.27835
0.0823967	11.4433
0.128173	13.9175
0.173949	16.0825
0.205992	17.0103
0.24719	18.2474
0.297544	19.1753
0.379941	21.0309
0.421139	21.9588
0.49438	22.5773
0.558467	22.8866
0.599665	23.1959
0.631708	23.5052
0.672907	23.5052
0.727838	23.5052
0.787347	23.8144
0.874321	24.1237
0.979606	23.8144
1.03911	23.8144
1.06658	23.8144
