Adsorption isotherm of Methanol on [Zn2(tpa)2(cpb)]
DOI: 10.1021/Ja900373v
Adsorbate Methanol: InChIKey OKKJLVBELUTLKV-UHFFFAOYSA-N
Temperature: 297 K
Tabular data in the source: 0
pressure (bar)	uptake (ml/g)
0.00182509	21.9111
0.00400996	1.26405
0.0324133	28.7935
0.0542621	40.5918
0.0717411	42.8859
0.117623	46.8187
0.580817	54.6842
0.615775	56.3229
0.670397	63.533
0.777455	117.281
0.812413	129.079
0.936951	145.793
