Adsorption isotherm of Hydrogen on ZIF-68
DOI: 10.1021/Jp903735m
Adsorbate Hydrogen: InChIKey UFHFLCQGNIYNRP-UHFFFAOYSA-N
Temperature: 298 K
Tabular data in the source: 0
pressure (bar)	uptake (wt%)
1.35951	0.00679887
2.72162	0.011898
5.21622	0.0229462
6.80533	0.0288952
8.8459	0.0382436
10.435	0.0441926
13.3849	0.0560907
15.2024	0.0620397
17.924	0.0739377
19.5144	0.0790368
22.6913	0.0917847
24.5101	0.0968839
27.4613	0.107932
29.28	0.113031
32.4595	0.124079
34.2783	0.129178
37.4578	0.140227
39.2778	0.144476
42.6869	0.154674
44.507	0.158924
47.6891	0.168272
49.7374	0.172521
52.6938	0.18017
54.5125	0.185269
57.6972	0.192918
59.5172	0.197167
62.702	0.204816
64.522	0.209065
67.708	0.215864
69.7576	0.219263
72.7153	0.226062
74.7649	0.229462
77.7226	0.236261
79.7722	0.23966
82.7299	0.246459
84.7808	0.249008
87.9681	0.254958
90.0177	0.258357
92.9806	0.261756
94.1195	0.263456
