Adsorption isotherm of Carbon Dioxide on ZIF-68
DOI: 10.1021/Jp903735m
Adsorbate Carbon Dioxide: InChIKey CURLTUGMZLYLDI-UHFFFAOYSA-N
Temperature: 273 K
Tabular data in the source: 0
pressure (bar)	uptake (wt%)
0.0286332	24.0682
0.0479192	24.8031
0.0672171	25.1706
0.0838147	25.4462
0.102986	25.8136
0.205636	26.8241
0.310465	27.4672
0.404603	27.9265
0.519583	28.294
0.61086	28.6614
0.707685	29.1207
0.807882	29.3045
0.922266	29.5801
1.03747	29.5801
2.07154	30.315
3.0819	30.958
4.13631	31.601
5.15775	31.8766
7.34201	32.0604
10.923	32.7034
