Adsorption isotherm of Carbon Dioxide on ZIF-70
DOI: 10.1021/Jp903735m
Adsorbate Carbon Dioxide: InChIKey CURLTUGMZLYLDI-UHFFFAOYSA-N
Temperature: 273 K
Tabular data in the source: 0
pressure (bar)	uptake (wt%)
0.0652714	0.487933
0.123774	1.11352
0.155292	1.25382
0.186799	1.53224
0.218312	1.7416
0.24756	2.08892
0.272316	2.29781
0.308333	2.50748
0.330836	2.71622
0.366854	2.92589
0.393855	3.204
0.425362	3.48241
0.456881	3.62271
0.488381	3.97019
0.522152	4.11065
0.549148	4.45781
0.578415	4.59796
0.607681	4.7381
0.639188	5.01652
0.668448	5.22572
0.697709	5.43492
0.731473	5.64444
0.760734	5.85364
0.792253	5.99394
0.819249	6.34111
0.85302	6.48156
0.884526	6.75998
0.911534	6.96903
0.940789	7.24729
0.972307	7.38759
0.994805	7.66539
