Adsorption isotherm of Nitrogen on ZIF-70
DOI: 10.1021/Jp903735m
Adsorbate Nitrogen: InChIKey IJGRMHOSHXDMSA-UHFFFAOYSA-N
Temperature: 77 K
Tabular data in the source: 0
pressure (bar)	uptake (cm3(STP)/g)
0.00282419	363.271
0.00564837	414.298
0.0197693	430.654
0.0508353	440.923
0.0875498	447.123
0.149682	445.212
0.353023	447.68
0.378441	451.815
0.491408	452.053
0.528123	456.211
0.621321	458.448
0.714519	458.644
0.821838	464.992
0.93763	463.194
