Adsorption isotherm of Carbon Dioxide on ZIF-68
DOI: 10.1021/Jp903735m
Adsorbate Carbon Dioxide: InChIKey CURLTUGMZLYLDI-UHFFFAOYSA-N
Temperature: 273 K
Tabular data in the source: 0
pressure (bar)	uptake (g/l)
5.9322	11.2426
8.22034	15.9763
9.91525	19.2308
11.7797	22.7811
13.8136	26.6272
15.5085	30.1775
17.3729	33.7278
19.4068	37.574
21.2712	41.1243
23.1356	44.6746
25	48.2249
26.6949	51.7751
28.7288	55.3254
30.5932	58.8757
32.2881	62.7219
34.4915	66.568
