Adsorption isotherm of Methane on ZIF-70
DOI: 10.1021/Jp903735m
Adsorbate Methane: InChIKey VNWKTOKETHGBQD-UHFFFAOYSA-N
Temperature: 298 K
Tabular data in the source: 0
pressure (bar)	uptake (wt%)
0.665933	0.632375
1.55732	1.32229
1.773	1.81085
1.77756	1.60971
2.44805	2.04093
2.89505	2.32842
3.11529	2.61584
3.56228	2.90332
4.00993	3.16207
4.45693	3.44956
5.13068	3.73711
5.57767	4.02459
6.25208	4.28341
6.69907	4.57089
7.60023	4.82977
8.27398	5.11732
9.17254	5.49114
10.3005	5.75009
11.429	5.9803
12.3302	6.23918
13.4581	6.49812
14.586	6.75706
15.7139	7.01601
16.8425	7.24622
18.1978	7.47649
19.7799	7.70683
21.1359	7.90837
22.7186	8.10998
24.3013	8.31158
26.1115	8.48451
27.9216	8.65745
29.7324	8.80165
31.5425	8.97458
33.5807	9.09011
35.6183	9.23437
37.6571	9.32117
39.9227	9.40802
41.9616	9.49482
44.0004	9.58161
46.266	9.66847
48.3055	9.72652
50.5724	9.75591
52.8387	9.81403
54.8788	9.84336
57.1457	9.87274
59.4127	9.90213
61.6802	9.90278
63.9478	9.90343
66.2153	9.90408
68.4829	9.90474
70.7511	9.87665
73.0193	9.84857
75.0608	9.82042
77.329	9.79234
79.5972	9.76425
81.6386	9.7361
83.9075	9.67928
86.1757	9.6512
88.2178	9.59432
90.486	9.56623
92.7549	9.50941
94.7963	9.48126
97.0652	9.42444
99.3341	9.36762
