Adsorption isotherm of Methane on ZIF-68
DOI: 10.1021/Jp903735m
Adsorbate Methane: InChIKey VNWKTOKETHGBQD-UHFFFAOYSA-N
Temperature: 298 K
Tabular data in the source: 0
pressure (bar)	uptake (wt%)
0.314293	0.452988
0.629806	0.8456
0.778103	1.50983
0.784206	1.20794
0.937386	1.63066
1.09545	1.81187
2.04321	2.92933
2.99768	3.71472
3.95826	4.19822
5.08239	4.59124
6.04601	4.9238
7.17198	5.22625
8.13865	5.40787
9.10411	5.64986
10.2337	5.77119
15.2343	6.40767
20.2404	6.77245
25.7348	6.98653
31.3908	7.2007
36.8882	7.26384
42.7096	7.29696
48.3693	7.33
54.5148	7.33309
