Adsorption isotherm of Carbon Dioxide on ZIF-68
DOI: 10.1021/Jp903735m
Adsorbate Carbon Dioxide: InChIKey CURLTUGMZLYLDI-UHFFFAOYSA-N
Temperature: 273 K
Tabular data in the source: 0
pressure (bar)	uptake (wt%)
0.0286332	5.23622
0.0472194	6.61417
0.0662354	7.8084
0.0838147	9.00262
0.102986	9.64567
0.202632	13.2283
0.305931	15.3412
0.4106	16.9948
0.511994	17.8215
0.619915	18.6483
0.707685	19.5669
0.832009	20.21
0.935936	20.7612
1.03747	21.4042
2.07154	24.9869
3.17393	26.916
4.19762	27.3753
5.08241	27.9265
6.15371	28.5696
7.23477	28.5696
8.50574	28.6614
9.56822	28.937
10.7634	29.3045
16.9836	29.0289
23.8232	29.2126
