Adsorption isotherm of Carbon Dioxide on ZIF-70
DOI: 10.1021/Jp903735m
Adsorbate Carbon Dioxide: InChIKey CURLTUGMZLYLDI-UHFFFAOYSA-N
Temperature: 273 K
Tabular data in the source: 0
pressure (bar)	uptake (wt%)
0.0742616	0.695736
0.103516	0.974
0.130524	1.18305
0.153028	1.39178
0.171021	1.66927
0.189039	1.67051
0.216041	1.94862
0.236286	2.22626
0.254291	2.36563
0.281306	2.50562
0.297053	2.71388
0.321809	2.92278
0.339808	3.1312
0.36457	3.27103
0.382569	3.47946
0.409571	3.75757
0.425325	3.89678
0.447835	4.03645
0.46808	4.31409
0.488338	4.45361
0.510841	4.66235
0.528847	4.80172
0.551357	4.94139
0.576113	5.15028
0.596364	5.35886
0.614363	5.56729
0.636873	5.70697
0.663881	5.91601
0.677382	6.05507
0.702138	6.26396
0.72239	6.47254
0.740395	6.61191
0.762893	6.8897
0.785397	7.09844
0.807906	7.23812
0.828158	7.4467
0.841659	7.58575
0.870913	7.86401
0.906918	8.2118
0.933932	8.35179
0.96318	8.69911
0.992434	8.97738
