Adsorption isotherm of Carbon Dioxide on ZIF-68
DOI: 10.1021/Jp903735m
Adsorbate Carbon Dioxide: InChIKey CURLTUGMZLYLDI-UHFFFAOYSA-N
Temperature: 273 K
Tabular data in the source: 0
pressure (bar)	uptake (g/l)
1.44068	2.95858
2.62712	5.32544
3.47458	7.10059
4.83051	9.76331
5.67797	11.5385
6.69492	14.2012
7.88136	16.2722
8.89831	18.6391
10.1695	21.5976
10.7627	22.7811
11.3559	24.2604
12.0339	26.0355
12.7119	27.5148
13.3898	29.2899
14.0678	31.0651
14.7458	32.8402
15.4237	34.6154
16.1017	36.0947
16.7797	37.574
17.3729	39.645
18.0508	41.4201
18.6441	43.1953
19.322	45.2663
20	47.0414
20.5932	48.8166
21.2712	50.8876
21.9492	52.6627
22.5424	54.4379
23.2203	56.5089
24.0678	58.8757
24.661	60.9467
25.2542	63.0178
25.8475	64.7929
26.4407	67.1598
27.0339	69.2308
27.6271	71.0059
28.2203	73.0769
28.8136	75.1479
29.4068	77.2189
30	79.2899
30.5932	81.3609
31.1864	83.432
31.9492	86.0947
32.4576	88.4615
33.0508	90.5325
33.5593	92.8994
34.1525	95.2663
