Adsorption isotherm of Methane on ZIF-68
DOI: 10.1021/Jp903735m
Adsorbate Methane: InChIKey VNWKTOKETHGBQD-UHFFFAOYSA-N
Temperature: 298 K
Tabular data in the source: 0
pressure (bar)	uptake (wt%)
0.810811	1.99286
0.972973	2.17407
1.94595	3.35192
3.08108	4.04683
3.89189	4.56045
4.86486	4.95339
6	5.25585
7.13514	5.46774
8.10811	5.73993
8.91892	5.92147
10.0541	6.07298
15.2432	6.64918
20.7568	7.04441
25.9459	7.25834
31.4595	7.44224
36.973	7.5054
42.8108	7.56871
48.6486	7.63202
54.4865	7.63496
