Adsorption isotherm of Methane on ZIF-68
DOI: 10.1021/Jp903735m
Adsorbate Methane: InChIKey VNWKTOKETHGBQD-UHFFFAOYSA-N
Temperature: 298 K
Tabular data in the source: 0
pressure (bar)	uptake (wt%)
0.408552	1.98288
0.87705	1.32209
1.97564	2.87413
2.86442	3.67898
3.98647	4.19655
5.11439	4.45549
5.78618	4.82925
6.9141	5.08819
13.0137	6.09569
14.8238	6.26863
18.2187	6.55696
20.2575	6.64375
23.2008	6.84575
25.467	6.90387
28.1855	7.01959
30.4518	7.07772
33.1709	7.1647
35.4378	7.19409
38.385	7.22367
40.6519	7.25306
43.3729	7.25384
45.6398	7.28323
48.3609	7.28401
50.6285	7.28466
53.5763	7.28551
55.8439	7.28616
58.5656	7.25821
60.8331	7.25886
63.7823	7.20224
66.0498	7.20289
68.7715	7.17493
71.0391	7.17559
73.7615	7.1189
76.0297	7.09081
78.7514	7.06286
81.0196	7.03478
83.9687	6.97815
86.0096	6.97874
88.9593	6.89338
91.2269	6.89403
93.9493	6.83734
96.2175	6.80926
