Adsorption isotherm of Nitrogen on ZIF-70
DOI: 10.1021/Jp903735m
Adsorbate Nitrogen: InChIKey IJGRMHOSHXDMSA-UHFFFAOYSA-N
Temperature: 77 K
Tabular data in the source: 0
pressure (bar)	uptake (cm3(STP)/g)
0.00282419	442.863
0.0141209	463.295
0.0395386	477.634
0.0677805	485.857
0.0931981	487.951
0.15533	492.163
0.18922	492.234
0.217462	492.294
0.245704	494.394
0.31066	496.571
0.338902	500.712
0.395386	502.871
0.457518	503.002
0.488584	503.067
0.578958	505.298
0.610024	507.404
0.638266	509.504
0.672156	509.575
0.72864	511.735
0.759706	511.8
0.790772	513.906
0.824662	513.977
0.85008	514.031
0.88397	514.102
0.912212	512.12
0.946102	514.232
0.954575	516.291
