Adsorption isotherm of Carbon Dioxide on ZIF-68
DOI: 10.1021/Jp903735m
Adsorbate Carbon Dioxide: InChIKey CURLTUGMZLYLDI-UHFFFAOYSA-N
Temperature: 273 K
Tabular data in the source: 0
pressure (bar)	uptake (wt%)
0.0804865	1.71504
0.104423	2.17678
0.134876	2.83641
0.160984	3.36412
0.193643	3.89182
0.221924	4.48549
0.256766	5.01319
0.287242	5.5409
0.31774	5.93668
0.346032	6.46438
0.378703	6.92612
0.411385	7.3219
0.444067	7.71768
0.474565	8.11346
0.502904	8.37731
0.535585	8.77309
0.568279	9.1029
0.596606	9.43272
0.627116	9.76253
0.661993	10.0923
0.690319	10.4222
0.723024	10.686
0.753534	11.0158
0.784056	11.2797
0.814589	11.4776
0.847294	11.7414
0.875655	11.8734
0.908372	12.0712
0.938882	12.4011
0.965048	12.5989
0.997765	12.7968
