Adsorption isotherm of Nitrogen on ZIF-68
DOI: 10.1021/Jp903735m
Adsorbate Nitrogen: InChIKey IJGRMHOSHXDMSA-UHFFFAOYSA-N
Temperature: 77 K
Tabular data in the source: 0
pressure (bar)	uptake (cm3(STP)/g)
0.00847256	232.671
0.0141209	253.091
0.0367144	263.342
0.0706047	269.536
0.0988465	271.636
0.124264	273.73
0.138385	273.76
0.160979	273.808
0.169451	273.825
0.192045	273.873
0.214638	273.92
0.259825	276.056
0.29654	276.133
0.321957	276.187
0.361496	276.27
0.39821	276.347
0.41798	276.388
0.457518	276.471
0.497057	278.595
0.511178	276.584
0.55354	278.714
0.576134	280.802
0.593079	280.838
0.615673	282.926
0.652387	283.003
0.689101	285.121
0.703222	285.151
0.745585	285.24
0.765354	285.281
0.793596	287.381
0.807717	285.37
0.85008	287.5
0.881146	287.565
0.923509	285.613
0.965872	285.702
