Adsorption isotherm of Carbon Dioxide on ZIF-68
DOI: 10.1021/Jp903735m
Adsorbate Carbon Dioxide: InChIKey CURLTUGMZLYLDI-UHFFFAOYSA-N
Temperature: 273 K
Tabular data in the source: 0
pressure (bar)	uptake (wt%)
0.028215	5.32808
0.0472194	6.7979
0.0662354	8.17585
0.085057	9.46194
0.102986	10.5643
0.202632	14.0551
0.305931	16.5354
0.4106	17.7297
0.511994	18.9239
0.61086	19.5669
0.718175	20.3937
0.819857	21.1286
0.922266	21.6798
1.03747	22.231
2.04129	25.6299
3.0819	26.8241
4.13631	27.8346
5.15775	28.1102
6.24492	28.4777
7.34201	28.6614
8.50574	28.7533
9.56822	28.8451
10.7634	29.0289
16.7355	29.4882
23.4752	29.5801
