Adsorption isotherm of Nitrogen on ZIF-70
DOI: 10.1021/Jp903735m
Adsorbate Nitrogen: InChIKey IJGRMHOSHXDMSA-UHFFFAOYSA-N
Temperature: 77 K
Tabular data in the source: 0
pressure (bar)	uptake (cm3(STP)/g)
0.00282419	471.435
0.00847256	497.977
0.0367144	512.322
0.076253	518.528
0.115792	522.692
0.158154	522.781
0.217462	522.906
0.257001	525.03
0.347375	525.22
0.384089	527.337
0.45187	531.561
0.502705	527.587
0.570486	533.851
0.643914	536.047
0.703222	538.212
0.773827	538.36
0.835959	540.532
0.900915	540.668
0.960223	540.793
