Adsorption isotherm of Carbon Dioxide on ZIF-70
DOI: 10.1021/Jp903735m
Adsorbate Carbon Dioxide: InChIKey CURLTUGMZLYLDI-UHFFFAOYSA-N
Temperature: 273 K
Tabular data in the source: 0
pressure (bar)	uptake (wt%)
0.549808	18.4273
0.557332	15.3952
0.840628	21.2269
0.934095	23.5596
1.03046	24.726
1.12682	25.8925
1.22318	27.059
1.31954	28.2254
1.51516	29.3922
1.71106	30.4423
1.80742	31.6088
2.00304	32.7755
2.29791	33.9426
2.49353	35.1093
2.98748	36.0437
3.5807	36.9784
4.373	37.6804
5.16559	38.2658
6.15727	38.6185
7.0497	38.971
8.04138	39.3237
9.03364	39.4432
9.82768	39.4456
10.8199	39.5651
11.8122	39.6846
12.8047	39.6875
13.7973	39.6904
14.7898	39.6933
15.7824	39.6962
16.7747	39.8157
17.7672	39.8186
18.7597	39.8215
19.7523	39.8244
20.7448	39.8272
21.7374	39.8301
22.7299	39.833
23.7225	39.8359
24.715	39.8388
25.6086	39.7248
26.6012	39.7277
27.5937	39.7306
28.5863	39.7335
29.5788	39.7364
30.5717	39.6227
31.5639	39.7422
