Adsorption isotherm of Carbon Dioxide on ZIF-68
DOI: 10.1021/Jp903735m
Adsorbate Carbon Dioxide: InChIKey CURLTUGMZLYLDI-UHFFFAOYSA-N
Temperature: 273 K
Tabular data in the source: 0
pressure (bar)	uptake (wt%)
0.939015	21.5771
1.43268	22.6281
2.02243	24.9622
2.51639	25.8965
4.39789	27.6513
5.29031	28.0038
6.2817	28.4731
8.26651	28.5955
9.15923	28.8314
11.1437	29.0704
12.037	29.073
14.0221	29.0788
15.0147	29.0817
16.801	29.2035
17.7935	29.2064
19.6794	29.2119
20.6719	29.2148
22.5578	29.2203
23.5503	29.2232
25.4362	29.2287
26.4287	29.2316
28.4141	29.1207
29.4066	29.1236
