Adsorption isotherm of Carbon Dioxide on ZIF-68
DOI: 10.1021/Jp903735m
Adsorbate Carbon Dioxide: InChIKey CURLTUGMZLYLDI-UHFFFAOYSA-N
Temperature: 273 K
Tabular data in the source: 0
pressure (bar)	uptake (wt%)
0.00402115	1.97889
0.0125359	3.23219
0.0253483	4.88127
0.042562	6.33245
0.057673	7.3219
0.081414	8.90501
0.107465	9.76253
0.137837	10.8839
0.168255	11.7414
0.196478	12.6649
0.235606	13.6544
0.27693	14.5778
0.311726	15.3694
0.359623	16.1609
0.39666	16.6227
0.433697	17.0844
0.472929	17.4802
0.505623	17.81
0.555772	18.2058
0.599371	18.6016
0.651692	19.0633
0.704025	19.4591
0.741096	19.723
0.817423	20.2507
0.874146	20.5145
0.930845	20.9103
0.974479	21.1082
1.01157	21.2401
