Adsorption isotherm of Carbon Dioxide on ZIF-70
DOI: 10.1021/Jp903735m
Adsorbate Carbon Dioxide: InChIKey CURLTUGMZLYLDI-UHFFFAOYSA-N
Temperature: 298 K
Tabular data in the source: 0
pressure (bar)	uptake (wt%)
0.37358	9.44715
0.669319	10.2643
0.764234	12.0139
0.95956	13.2973
1.1546	14.6972
1.24893	16.68
1.64335	17.7307
1.83607	20.0637
1.93243	21.2301
2.03776	18.7815
2.22586	22.9803
2.52188	23.6808
2.91167	26.5974
2.91369	25.7811
3.50315	28.2318
3.89756	29.2825
4.48875	31.0335
5.08225	31.8516
5.57621	32.7859
6.26926	33.4877
7.65536	34.8911
8.54749	35.3602
9.9359	35.8307
10.8283	36.1832
12.217	36.5371
13.209	36.7732
14.499	36.8936
15.491	37.1297
16.781	37.2501
17.7733	37.3696
19.0633	37.49
20.0556	37.6095
21.3456	37.7299
22.3381	37.7328
23.6282	37.8531
24.6207	37.856
25.911	37.8598
26.9036	37.8627
28.2934	37.7501
29.286	37.753
30.5763	37.7568
31.5691	37.6431
32.8594	37.6468
33.852	37.6497
35.1426	37.5369
36.1351	37.5398
37.4257	37.4269
38.418	37.5464
39.7086	37.4336
40.7014	37.3198
41.9918	37.3236
42.9843	37.3265
