Adsorption isotherm of Carbon Dioxide on ZIF-68
DOI: 10.1021/Jp903735m
Adsorbate Carbon Dioxide: InChIKey CURLTUGMZLYLDI-UHFFFAOYSA-N
Temperature: 273 K
Tabular data in the source: 0
pressure (bar)	uptake (wt%)
0.0173866	0.461741
0.0413004	1.05541
0.0717183	1.91293
0.102148	2.70449
0.130394	3.49604
0.163007	4.2876
0.197791	5.14512
0.226049	5.87071
0.265212	6.66227
0.293481	7.3219
0.326105	8.04749
0.358753	8.64116
0.389205	9.30079
0.424059	9.76253
0.454534	10.2902
0.487193	10.8179
0.515497	11.2797
0.552546	11.6755
0.585216	12.1372
0.620093	12.467
0.650592	12.8628
0.678918	13.1926
0.718162	13.5224
0.746489	13.8522
0.779182	14.1821
0.811876	14.5119
0.844581	14.7757
0.875114	14.9736
0.907807	15.3034
0.93834	15.5013
0.973217	15.8311
1.00376	15.9631
