Adsorption isotherm of Carbon Dioxide on ZIF-68
DOI: 10.1021/Jp903735m
Adsorbate Carbon Dioxide: InChIKey CURLTUGMZLYLDI-UHFFFAOYSA-N
Temperature: 273 K
Tabular data in the source: 0
pressure (bar)	uptake (wt%)
0.760182	13.6465
1.05361	15.3967
2.03776	18.7815
2.53028	20.2989
3.32026	21.9339
4.40744	23.8029
5.59589	24.856
7.08269	25.6766
8.4711	26.1471
9.95876	26.618
11.1498	26.6214
12.4398	26.7418
14.0271	27.0963
15.3174	27.1001
16.7069	27.1041
17.997	27.2245
19.3865	27.2285
20.7761	27.2326
22.1654	27.3533
23.3564	27.3567
24.8453	27.3611
26.3341	27.3654
28.1201	27.6038
28.9141	27.6062
30.3037	27.6102
31.8918	27.6148
33.1824	27.502
34.4727	27.5058
36.259	27.6276
37.2521	27.3972
38.6414	27.5179
40.0313	27.4053
41.6193	27.41
43.0092	27.2974
44.2002	27.3009
