Adsorption isotherm of Hydrogen on ZIF-70
DOI: 10.1021/Jp903735m
Adsorbate Hydrogen: InChIKey UFHFLCQGNIYNRP-UHFFFAOYSA-N
Temperature: 298 K
Tabular data in the source: 0
pressure (bar)	uptake (wt%)
1.3621	0.00509915
2.95122	0.0110482
4.54293	0.0152975
6.36036	0.0212465
7.95077	0.0263456
9.7682	0.0322946
11.3586	0.0373938
12.9477	0.0433428
14.7665	0.0484419
16.5852	0.0535411
18.4039	0.0586402
19.993	0.0645892
21.813	0.0688385
23.4021	0.0747875
25.4492	0.0798867
27.0409	0.084136
28.8596	0.0892351
30.9066	0.0943343
32.7254	0.0994334
34.5454	0.103683
36.3654	0.107932
38.4124	0.113031
40.2324	0.11728
42.0525	0.12153
44.1008	0.125779
45.9195	0.130878
47.9678	0.135127
49.7879	0.139377
51.8362	0.143626
53.6562	0.147875
55.7045	0.152125
57.7541	0.155524
59.8025	0.159773
61.8521	0.163173
63.9017	0.166572
65.9513	0.169972
67.9997	0.174221
70.0493	0.17762
72.0989	0.18102
74.1485	0.184419
76.1981	0.187819
78.4761	0.191218
80.5257	0.194618
82.5753	0.198017
84.6262	0.200567
86.6759	0.203966
88.7255	0.207365
90.7764	0.209915
93.0543	0.213314
