Adsorption isotherm of Carbon Dioxide on ZIF-68
DOI: 10.1021/Jp903735m
Adsorbate Carbon Dioxide: InChIKey CURLTUGMZLYLDI-UHFFFAOYSA-N
Temperature: 273 K
Tabular data in the source: 0
pressure (bar)	uptake (wt%)
0.00403268	1.91293
0.00828427	2.57256
0.0125359	3.23219
0.0297727	4.55145
0.040586	5.14512
0.0557085	6.0686
0.0709117	6.53034
0.0969398	7.51979
0.112154	7.91557
0.146916	8.90501
0.164314	9.30079
0.196916	10.1583
0.214314	10.5541
0.249121	11.2797
0.266531	11.6095
0.30135	12.2691
0.318772	12.533
0.351407	13.1926
0.371012	13.4565
0.403682	13.9182
0.423287	14.1821
0.453786	14.5778
0.473413	14.7098
0.506107	15.0396
0.525723	15.2375
0.560611	15.5013
0.580227	15.6992
0.610737	16.029
0.632548	16.1609
0.663058	16.4908
0.684869	16.6227
0.715391	16.8865
0.737202	17.0185
0.765552	17.2164
0.787374	17.2823
0.817907	17.4802
0.839718	17.6121
0.868068	17.81
0.889891	17.876
0.920412	18.1398
0.942235	18.2058
0.972768	18.4037
0.99459	18.4697
