Adsorption isotherm of Nitrogen on ZIF-70
DOI: 10.1021/Jp903735m
Adsorbate Nitrogen: InChIKey IJGRMHOSHXDMSA-UHFFFAOYSA-N
Temperature: 77 K
Tabular data in the source: 0
pressure (bar)	uptake (cm3(STP)/g)
0.0112967	381.656
0.0338902	391.908
0.0875498	396.102
0.110143	398.191
0.138385	398.25
0.158154	400.332
0.18922	400.397
0.211814	400.445
0.24288	400.51
0.257001	400.54
0.293715	400.617
0.319133	400.67
0.341727	400.718
0.358672	402.794
0.39821	400.836
0.409507	402.901
0.446221	402.978
0.460342	403.008
0.48576	403.061
0.514002	403.121
0.542244	403.18
0.567661	403.233
0.615673	405.375
0.663684	405.476
0.706047	405.565
0.756882	405.672
0.807717	407.819
0.852904	409.955
0.898091	408.009
