Adsorption isotherm of Carbon Dioxide on ZIF-70
DOI: 10.1021/Jp903735m
Adsorbate Carbon Dioxide: InChIKey CURLTUGMZLYLDI-UHFFFAOYSA-N
Temperature: 273 K
Tabular data in the source: 0
pressure (bar)	uptake (wt%)
0.00657629	2.00322
0.0155355	2.55632
0.0267407	3.17864
0.0356936	3.80081
0.0514095	4.35438
0.0648794	4.83873
0.0805953	5.39231
0.0963174	5.87682
0.11204	6.36133
0.127762	6.84584
0.14349	7.26129
0.159212	7.7458
0.174934	8.23031
0.190663	8.64576
0.206391	9.06121
0.224371	9.47682
0.242352	9.89243
0.260333	10.308
0.278313	10.7236
0.2963	11.0702
0.314281	11.4858
0.332261	11.9014
0.350242	12.317
0.368222	12.7326
0.386203	13.1482
0.404183	13.5638
0.42217	13.9104
0.440151	14.326
0.458131	14.7416
0.476118	15.0881
0.494099	15.5037
0.512086	15.8503
0.532318	16.266
0.550305	16.6126
0.568286	17.0282
0.586273	17.3747
0.604253	17.7903
0.624486	18.2061
0.642473	18.5527
0.66046	18.8992
0.680692	19.315
0.696427	19.6614
0.716666	20.0081
0.734647	20.4237
0.752633	20.7702
0.772872	21.1169
0.790859	21.4635
0.811098	21.8102
0.831343	22.0878
0.851582	22.4345
0.871828	22.7121
0.892067	23.0588
0.912312	23.3365
0.932557	23.6141
0.952803	23.8918
0.975306	24.1005
0.993299	24.378
