Adsorption isotherm of Nitrogen on TzDa
DOI: 10.1021/acsami.7b08060
Article source: Figure 4C
Adsorbate Nitrogen: InChIKey IJGRMHOSHXDMSA-UHFFFAOYSA-N
Kind: experiment
Temperature: 77 K
Tabular data in the source: 0
pressure (bar)	uptake (cm3(STP)/g)
0.00808	2.55319
0.00808	7.65957
0.00808	12.766
0.00808	17.8723
0.00808	22.9787
0.00808	28.0851
0.00808	33.1915
0.00808	38.2979
0.00808	43.4043
0.00808	53.617
0.009696	62.5532
0.009913	71.9366
0.011861	82.1973
0.011861	91.4319
0.01316	99.6405
0.031345	116.058
0.058621	130.423
0.078105	136.579
0.098887	144.788
0.119669	152.996
0.137854	162.231
0.158636	169.413
0.179418	175.57
0.201499	183.778
0.243064	201.221
0.311905	210.456
0.363861	214.56
0.424909	218.665
0.454783	220.717
0.506739	224.821
0.556097	232.004
0.609351	235.082
0.660008	238.16
0.710665	241.238
0.758724	247.395
0.810679	253.551
0.831462	254.577
0.862635	259.707
0.886015	267.916
0.914591	276.125
0.937971	286.385
0.961351	304.855
0.984731	341.793
0.996421	374.627
1.00551	423.879
1.00811	468
1.00421	435.165
0.995122	403.357
0.982133	386.94
0.958753	345.897
0.930177	316.141
0.91589	303.315
0.889912	291.516
0.862635	282.281
0.839255	277.151
0.811978	272.02
0.761322	263.812
0.711964	259.707
0.660008	256.629
0.608052	253.551
0.556097	249.447
0.508038	246.369
0.457381	242.264
0.404126	236.108
0.287226	226.873
0.197603	205.326
0.144348	186.856
0.078105	164.283
0.039138	144.788
