Adsorption isotherm of Nitrogen on MIL-101-Cr-SO3H.Al(III)
DOI: 10.1021/jacs.5b01352
Article source: Figure 1
Adsorbate Nitrogen: InChIKey IJGRMHOSHXDMSA-UHFFFAOYSA-N
Kind: experiment
Temperature: 77 K
Tabular data in the source: 0
pressure (bar)	uptake (cm3(STP)/g)
0	0
0.000424	40.0022
0.001051	99.1358
0.001235	116.528
0.001419	133.92
0.00588	154.813
0.006102	175.684
0.006323	196.554
0.006507	213.947
0.006655	227.86
0.011079	245.274
0.019687	257.493
0.019798	267.928
0.028425	281.885
0.043467	301.093
0.050011	318.518
0.062859	330.758
0.071449	341.237
0.0758	351.695
0.094989	362.228
0.09722	372.675
0.116355	377.99
0.120668	384.969
0.135562	390.263
0.142032	400.731
0.15477	402.536
0.161259	414.743
0.178237	416.57
0.178439	435.701
0.195362	432.31
0.195509	446.224
0.216726	448.072
0.218791	442.866
0.233741	453.377
0.240027	446.453
0.25494	453.487
0.267622	450.074
0.278295	457.085
0.2846	451.9
0.297319	451.966
0.31437	460.749
0.322776	453.836
0.335587	462.598
0.341892	457.413
0.354611	457.478
0.378021	466.294
0.380068	459.348
0.399165	461.186
0.41194	466.469
0.422502	463.045
0.437397	468.339
0.441581	463.143
0.462817	466.731
0.477712	472.025
0.481896	466.829
0.503131	470.417
0.520146	475.722
0.52645	470.537
0.545548	472.374
0.560424	475.929
0.564608	470.733
0.58166	479.517
0.585844	474.321
0.598637	481.343
0.604923	474.419
0.619855	483.192
0.626122	474.528
0.641054	483.301
0.645219	476.366
0.660096	479.921
0.683488	486.998
0.687673	481.802
0.704669	485.368
0.723803	490.684
0.730107	485.499
0.745039	494.271
0.747084	487.325
0.766237	494.38
0.770403	487.445
0.781095	496.196
0.789501	489.283
0.806589	501.545
0.808616	492.859
0.829852	496.447
0.829926	503.404
0.846812	496.534
0.849005	503.502
0.863862	505.318
0.868047	500.122
0.885098	508.905
0.891384	501.981
0.906334	512.493
0.908381	505.547
0.927459	505.645
0.936031	514.385
0.950833	510.983
0.957267	517.973
0.969931	512.82
