Adsorption isotherm of Nitrogen on MIL-101-Cr-SO3H
DOI: 10.1021/jacs.5b01352
Article source: Figure 1
Adsorbate Nitrogen: InChIKey IJGRMHOSHXDMSA-UHFFFAOYSA-N
Kind: experiment
Temperature: 77 K
Tabular data in the source: 0
pressure (bar)	uptake (cm3(STP)/g)
0	0
0.000166	15.653
0.000424	40.0022
0.000627	59.1337
0.00083	78.2651
0.001051	99.1358
0.001235	116.528
0.001456	137.399
0.001659	156.53
0.001825	172.183
0.004129	189.586
0.00647	210.468
0.008774	227.871
0.008959	245.264
0.011208	257.449
0.015577	269.645
0.019945	281.842
0.024296	292.299
0.028646	302.756
0.035135	314.964
0.039467	323.681
0.048075	335.9
0.052444	348.096
0.061034	358.575
0.071726	367.326
0.078215	379.533
0.086768	386.534
0.097496	398.763
0.118861	414.525
0.138032	423.319
0.140207	428.548
0.15936	435.603
0.161517	439.093
0.170107	449.572
0.178605	451.354
0.18089	467.018
0.195803	474.052
0.202292	486.259
0.217169	489.814
0.238405	493.401
0.257501	495.239
0.278737	498.827
0.302074	500.686
0.321172	502.523
0.34025	502.622
0.35933	502.72
0.382685	506.318
0.399663	508.145
0.420861	508.254
0.442079	510.102
0.461158	510.201
0.482394	513.788
0.501473	513.887
0.52269	515.735
0.543908	517.583
0.562968	515.942
0.584185	517.791
0.605384	517.9
0.624481	519.737
0.645699	521.586
0.666898	521.695
0.685995	523.532
0.707212	525.381
0.728411	525.49
0.745388	527.316
0.764486	529.154
0.785685	529.263
0.806903	531.111
0.83236	532.982
0.849318	533.069
0.868416	534.906
0.891771	538.505
0.91085	538.603
0.912971	538.614
0.92781	538.69
0.936326	542.213
0.946962	545.746
0.95758	547.539
0.970299	547.605
