Adsorption isotherm of Nitrogen on mand-DUT-25
DOI: 10.1016/j.micromeso.2015.02.055
Article source: Figure 6
Adsorbate Nitrogen: InChIKey IJGRMHOSHXDMSA-UHFFFAOYSA-N
Kind: experiment
Temperature: 77 K
Tabular data in the source: 0
pressure (bar)	uptake (cm3(STP)/g)
0	0
0.001683	23.2143
0.003366	39.2857
0.006733	49.2857
0.008416	53.2143
0.010099	57.8571
0.018515	65.3571
0.021881	66.0714
0.025247	69.2857
0.028613	71.7857
0.03198	72.1429
0.035346	75
0.037029	76.7857
0.042078	77.5
0.045445	80.3571
0.048811	82.8571
0.052177	83.2143
0.055544	86.4286
0.05891	87.5
0.063959	89.2857
0.070692	91.0714
0.079108	92.5
0.082474	92.5
0.089206	93.5714
0.09089	93.2143
0.106038	93.9286
0.151483	96.0714
0.156532	96.0714
0.205343	97.5
0.25247	97.8571
0.255838	98.2143
0.308015	98.9286
0.351776	98.5714
0.358509	99.2857
0.409002	99.6429
0.454448	99.2857
0.456131	100
0.506625	100
0.555436	99.6429
0.558802	100.357
0.609297	100.357
0.656425	100
0.659791	100.714
0.710285	100.714
0.757412	100
0.76078	100.714
0.812957	100.357
0.860084	100
0.86345	100.714
0.915627	100.357
0.961073	100.357
0.966122	100.357
0.999785	102.143
