Adsorption isotherm of Carbon Dioxide on C2H6O6Mg
DOI: 10.1021/Cg800181q
Adsorbate Carbon Dioxide: InChIKey CURLTUGMZLYLDI-UHFFFAOYSA-N
Temperature: 298 K
Tabular data in the source: 0
pressure (bar)	uptake (wt%)
0.0193923	0.0214559
0.0412087	0.0429119
0.0606011	0.0643678
0.0799934	0.0858238
0.0993858	0.101916
0.118778	0.128736
0.135746	0.139464
0.155139	0.166284
0.172107	0.187739
0.191499	0.198467
0.210892	0.225287
0.232708	0.246743
0.254525	0.268199
0.276341	0.289655
0.283613	0.295019
0.305429	0.316475
0.327246	0.337931
0.349062	0.359387
0.370879	0.380843
0.392695	0.402299
0.414511	0.418391
0.436328	0.439847
0.458144	0.466667
0.477536	0.482759
0.499353	0.504215
0.521169	0.52567
0.542986	0.547126
0.564802	0.568582
0.586618	0.590038
0.608435	0.60613
0.627827	0.627586
0.649644	0.649042
0.67146	0.670498
0.693276	0.691954
0.715093	0.71341
0.719941	0.718774
0.739333	0.734866
0.76115	0.761686
0.78539	0.783142
0.807206	0.799234
0.826599	0.826054
0.848415	0.84751
0.872656	0.863602
0.892048	0.890421
0.89932	0.901149
0.921136	0.917241
0.935681	0.933333
