Adsorption isotherm of Carbon Dioxide on C2H6O6Mg
DOI: 10.1021/Cg800181q
Adsorbate Carbon Dioxide: InChIKey CURLTUGMZLYLDI-UHFFFAOYSA-N
Temperature: 298 K
Tabular data in the source: 0
pressure (bar)	uptake (wt%)
0.00242404	0.00536398
0.0169683	0.0429119
0.0290885	0.0643678
0.0363606	0.0804598
0.0533289	0.112644
0.0702972	0.128736
0.0872656	0.16092
0.10181	0.193103
0.118778	0.230651
0.135746	0.257471
0.152715	0.284291
0.164835	0.316475
0.181803	0.348659
0.193923	0.375479
0.210892	0.402299
0.235132	0.423755
0.256949	0.445211
0.276341	0.461303
0.295733	0.488123
0.31755	0.514943
0.336942	0.531034
0.358758	0.563218
0.380575	0.584674
0.399967	0.611494
0.419359	0.63295
0.441176	0.65977
0.460568	0.68659
0.482385	0.708046
0.504201	0.734866
0.523593	0.761686
0.542986	0.783142
0.562378	0.82069
0.58177	0.84751
0.601163	0.879693
0.618131	0.911877
0.635099	0.944061
0.652068	0.981609
0.67146	1.00307
0.690852	1.03525
0.712669	1.06207
0.732061	1.08889
0.751453	1.10498
0.77327	1.1318
0.792662	1.15862
0.814478	1.18544
0.836295	1.2069
0.855687	1.23372
0.87508	1.25517
0.896896	1.28199
0.918712	1.30881
0.938105	1.3249
