Adsorption isotherm of Nitrogen on C19H19CdN4O6
DOI: 10.1016/j.inoche.2013.09.053
Adsorbate Nitrogen: InChIKey IJGRMHOSHXDMSA-UHFFFAOYSA-N
Temperature: 77 K
Tabular data in the source: 0
pressure (bar)	uptake (cm3(STP)/g)
0.00251689	8.27586
0.00755067	19.9373
0.0125845	24.8276
0.0302027	28.2132
0.0427872	30.094
0.0578885	31.5987
0.070473	32.3511
0.0805405	33.4796
0.0906081	33.8558
0.11326	34.9843
0.125845	36.1129
0.143463	36.489
0.156047	36.8652
0.173665	37.6176
0.196318	38.7461
0.208902	39.4984
0.22652	39.8746
0.249172	40.627
0.269307	41.3793
0.296993	41.7555
0.312095	42.884
0.334747	43.2602
0.347331	44.0125
0.362432	44.7649
0.375017	45.5172
0.387601	46.2696
0.407736	46.2696
0.422838	46.2696
0.437939	47.7743
0.450524	48.1505
0.470659	49.279
0.488277	50.0313
0.503378	50.0313
0.510929	50.4075
0.520996	50.7837
0.541132	52.2884
0.556233	52.6646
0.571334	53.7931
0.583919	54.5455
0.596503	54.5455
0.609088	55.2978
0.621672	56.4263
0.63929	57.1787
0.649358	57.5549
0.661942	58.3072
0.674527	58.6834
0.682078	60.5643
0.694662	60.9404
0.709763	61.6928
0.717314	63.5737
0.732415	63.9498
0.745	64.7022
0.760101	65.8307
0.772686	68.0878
0.795338	70.721
0.815473	73.3542
0.82554	75.2351
0.835608	77.116
0.848192	77.8683
0.870844	82.3824
0.875878	84.6395
0.901047	90.6583
0.903564	91.4107
0.918665	94.4201
0.941317	98.1818
0.956419	100.439
0.961452	104.953
0.969003	107.21
