Adsorption isotherm of Nitrogen on MIL-101-NH2
DOI: 10.1039/c5ta07026k
Article source: Figure 6
Adsorbate Nitrogen: InChIKey IJGRMHOSHXDMSA-UHFFFAOYSA-N
Kind: experiment
Temperature: 77 K
Tabular data in the source: 0
pressure (bar)	uptake (cm3(STP)/g)
0	116.31
0	140.374
0	155.08
0.001995	26.738
0.009973	235.294
0.029919	275.401
0.059838	312.834
0.079784	328.877
0.099729	340.909
0.12167	350.267
0.141616	358.289
0.145605	362.299
0.159567	368.984
0.177518	378.342
0.195469	390.374
0.207437	393.048
0.255308	398.396
0.263286	398.396
0.305172	401.07
0.321128	401.07
0.357031	405.08
0.365009	403.743
0.406896	406.417
0.458755	407.754
0.50862	409.091
0.55649	410.428
0.608349	413.102
0.660208	414.439
0.712068	417.112
0.763927	417.112
0.809803	418.449
0.831742	418.449
0.837727	418.449
0.855677	418.449
0.86964	422.46
0.885597	419.786
0.897564	423.797
0.909532	423.797
0.923493	425.134
0.935461	423.797
0.959396	427.807
0.96538	431.818
0.981337	431.818
0.983331	441.176
0.991309	447.861
0.997293	458.556
1.00328	462.567
