Adsorption isotherm of Nitrogen on MIL-101-P(n-Bu)3Br
DOI: 10.1039/c5ta07026k
Article source: Figure 6
Adsorbate Nitrogen: InChIKey IJGRMHOSHXDMSA-UHFFFAOYSA-N
Kind: experiment
Temperature: 77 K
Tabular data in the source: 0
pressure (bar)	uptake (cm3(STP)/g)
0	-0.001969
0	57.6408
0.003989	85.7909
0.013962	134.048
0.031913	158.177
0.057843	179.625
0.081778	198.391
0.099729	211.796
0.123664	218.499
0.145605	226.542
0.165551	227.882
0.179512	233.244
0.189486	246.649
0.231372	252.011
0.261291	250.67
0.281237	254.692
0.31315	254.692
0.333096	258.713
0.359026	256.032
0.380966	262.735
0.402907	258.713
0.43482	264.075
0.45676	262.735
0.48269	266.756
0.50463	264.075
0.536544	270.777
0.554495	266.756
0.586408	273.458
0.608349	270.777
0.634278	276.139
0.656219	273.458
0.686137	278.82
0.708078	277.48
0.736003	282.842
0.757942	280.161
0.789857	285.523
0.807807	284.182
0.825759	288.204
0.833738	286.863
0.851688	292.225
0.865651	288.204
0.887591	297.587
0.913521	296.247
0.91751	302.949
0.937456	304.29
0.943439	313.673
0.959396	312.332
0.983331	348.525
0.989315	337.802
0.993304	352.547
0.995298	365.952
1.00128	383.378
1.00527	373.995
1.00926	395.442
