Adsorption isotherm of Nitrogen on MIL-101-N(n-Bu)3Br
DOI: 10.1039/c5ta07026k
Article source: Figure 6
Adsorbate Nitrogen: InChIKey IJGRMHOSHXDMSA-UHFFFAOYSA-N
Kind: experiment
Temperature: 77 K
Tabular data in the source: 0
pressure (bar)	uptake (cm3(STP)/g)
0	1.33691
0	46.7919
0.001227	96.2551
0.001408	73.5276
0.001845	18.7141
0.008917	132.341
0.032628	160.385
0.064361	183.07
0.0882	195.071
0.100093	204.413
0.115933	219.098
0.117938	217.759
0.137799	228.428
0.143793	227.083
0.161691	233.744
0.163675	235.078
0.183567	241.736
0.183589	239.063
0.201488	245.723
0.203493	244.384
0.255203	263.032
0.311009	268.306
0.314988	269.638
0.370816	272.238
0.404713	273.53
0.452563	276.141
0.454536	278.812
0.50438	281.42
0.504401	278.746
0.554235	282.691
0.556219	284.025
0.604078	285.299
0.606041	289.307
0.655927	286.568
0.70575	291.85
0.70976	289.17
0.757599	293.118
0.759572	295.789
0.807443	295.726
0.829372	297.034
0.861223	305.013
0.86326	299.663
0.879185	303.653
0.907088	306.29
0.909039	311.635
0.936943	314.272
0.954841	320.933
0.958798	324.938
0.980664	334.268
0.990531	347.624
1.00037	364.99
