Adsorption isotherm of Nitrogen on MIL-101-Br
DOI: 10.1039/c5ta07026k
Article source: Figure 6
Adsorbate Nitrogen: InChIKey IJGRMHOSHXDMSA-UHFFFAOYSA-N
Kind: experiment
Temperature: 77 K
Tabular data in the source: 0
pressure (bar)	uptake (cm3(STP)/g)
0	-0.001969
0	49.5979
0.009973	199.732
0.029919	241.287
0.061832	277.48
0.085767	296.247
0.099729	308.311
0.119675	317.694
0.145605	328.418
0.161562	332.44
0.183502	341.823
0.195469	356.568
0.203447	365.952
0.253312	372.654
0.303178	375.335
0.355037	378.016
0.406896	378.016
0.45676	382.038
0.50463	384.718
0.558484	386.059
0.60436	386.059
0.658213	388.74
0.710072	390.08
0.759937	391.421
0.809803	395.442
0.831742	392.761
0.841716	395.442
0.86964	396.783
0.885597	396.783
0.893575	399.464
0.911526	399.464
0.91751	400.804
0.935461	400.804
0.953413	407.507
0.963385	406.166
0.981337	422.252
0.98732	414.209
0.995298	434.316
1.00328	434.316
1.00727	451.743
