Adsorption isotherm of Hydrogen on Fe-BTC
DOI: 10.1016/j.ijhydene.2015.03.104
Article source: Figure 5
Adsorbate Hydrogen: InChIKey UFHFLCQGNIYNRP-UHFFFAOYSA-N
Kind: experiment
Temperature: 111 K
Tabular data in the source: 0
pressure (bar)	uptake (mg/g)
0.457516	0.403846
1.28105	1.78846
2.01307	2.88462
3.11111	3.80769
4.11765	4.61538
5.21569	5.25
6.40523	5.94231
7.59477	6.51923
8.60131	6.86538
9.69935	7.32692
10.9804	7.73077
12.1699	8.01923
13.3595	8.42308
14.6405	8.76923
15.8301	8.88462
17.1111	9.23077
18.1176	9.40385
19.4902	9.57692
20.4967	9.75
21.9608	9.92308
23.0588	10.0962
24.2484	10.2692
25.3464	10.3269
26.4444	10.3846
