Adsorption isotherm of Hydrogen on Fe-BTC
DOI: 10.1016/j.ijhydene.2015.03.104
Article source: Figure 5
Adsorbate Hydrogen: InChIKey UFHFLCQGNIYNRP-UHFFFAOYSA-N
Kind: experiment
Temperature: 87 K
Tabular data in the source: 0
pressure (bar)	uptake (mg/g)
0.091503	0.692308
0.27451	2.94231
0.640523	4.61538
1.09804	6.11538
1.83007	7.38462
2.56209	8.42308
3.29412	9.23077
4.11765	9.98077
5.03268	10.5577
6.03922	11.1346
6.95425	11.5385
7.96078	12
8.78431	12.2885
9.79085	12.6346
10.7974	12.8654
11.7124	13.1538
12.6275	13.3269
13.7255	13.5577
14.6405	13.7308
15.7386	13.9038
17.6601	14.1923
19.3987	14.3654
20.9542	14.4808
22.4183	14.5962
23.4248	14.6538
24.0654	14.7692
24.9804	14.5962
25.4379	14.6538
25.8954	14.7115
26.2614	14.7692
26.8105	14.7115
