Adsorption isotherm of Hydrogen on Fe-BTC
DOI: 10.1016/j.ijhydene.2015.03.104
Article source: Figure 5
Adsorbate Hydrogen: InChIKey UFHFLCQGNIYNRP-UHFFFAOYSA-N
Kind: experiment
Temperature: 83 K
Tabular data in the source: 0
pressure (bar)	uptake (mg/g)
0.091503	3.57692
0.457516	5.76923
1.00654	7.32692
1.64706	8.94231
2.56209	10.1538
3.56863	10.9615
4.57516	11.6538
5.5817	12.2308
6.77124	12.75
7.96078	13.1538
9.33333	13.5577
10.3399	13.8462
12.1699	14.25
13.9085	14.5385
15.6471	14.8269
17.4771	15.0577
19.3072	15.2308
20.7712	15.4615
22.4183	15.5192
23.6993	15.5769
24.9804	15.6923
25.8954	15.6923
26.9935	15.75
