Adsorption isotherm of Hydrogen on Fe-BTC
DOI: 10.1016/j.ijhydene.2015.03.104
Article source: Figure 5
Adsorbate Hydrogen: InChIKey UFHFLCQGNIYNRP-UHFFFAOYSA-N
Kind: experiment
Temperature: 100 K
Tabular data in the source: 0
pressure (bar)	uptake (mg/g)
0	0.576923
0.27451	2.65385
1.00654	3.98077
1.83007	5.25
2.65359	6.23077
3.47712	7.15385
4.48366	7.78846
5.5817	8.48077
6.40523	8.94231
7.68627	9.51923
8.78431	9.86538
9.88235	10.2692
10.8889	10.6154
12.2614	10.8462
13.3595	11.1346
14.366	11.4231
15.5556	11.6538
16.6536	11.8269
18.8497	12.3462
20.7712	12.6346
22.4183	12.8077
23.7908	12.9231
24.9804	12.9808
25.8954	13.2115
26.8105	13.3269
