Adsorption isotherm of Hydrogen on Fe-BTC
DOI: 10.1016/j.ijhydene.2015.03.104
Article source: Figure 5
Adsorbate Hydrogen: InChIKey UFHFLCQGNIYNRP-UHFFFAOYSA-N
Kind: experiment
Temperature: 135 K
Tabular data in the source: 0
pressure (bar)	uptake (mg/g)
0.366013	0.288462
1.09804	0.807692
1.92157	1.32692
2.7451	1.84615
3.56863	2.25
4.48366	2.65385
5.30719	3.05769
6.22222	3.40385
7.41176	3.86538
8.60131	4.26923
9.88235	4.61538
11.0719	4.84615
12.3529	5.19231
13.817	5.53846
15.5556	5.88462
17.2026	6.17308
18.8497	6.34615
20.4967	6.51923
22.0523	6.86538
23.4248	7.03846
25.0719	7.21154
26.4444	7.32692
