Adsorption isotherm of Hydrogen on Fe-BTC
DOI: 10.1016/j.ijhydene.2015.03.104
Article source: Figure 5
Adsorbate Hydrogen: InChIKey UFHFLCQGNIYNRP-UHFFFAOYSA-N
Kind: experiment
Temperature: 77 K
Tabular data in the source: 0
pressure (bar)	uptake (mg/g)
0.823529	8.19231
3.01961	11.6538
5.6732	13.3269
8.3268	14.3077
10.7059	14.8846
12.902	15.3462
14.8235	15.5769
16.6536	15.75
18.3922	15.9231
19.9477	16.0385
21.2288	16.1538
22.2353	16.1538
23.2418	16.2115
24.1569	16.2115
24.9804	16.2692
25.8039	16.2692
26.6275	16.2115
