Adsorption isotherm of Carbon Dioxide on IRMOF-1
DOI: 10.1021/Jp062723w
Adsorbate Carbon Dioxide: InChIKey CURLTUGMZLYLDI-UHFFFAOYSA-N
Temperature: 298 K
Tabular data in the source: 0
pressure (bar)	uptake (mmol/g)
1.35732	1.05
3.45327	2.91667
5.54673	5.13333
7.26964	7.11667
9.48139	10.15
11.694	13.0667
13.416	15.1667
15.5145	16.6833
19.7163	19.0167
23.8023	20.1833
27.7667	21
33.9653	21.7
42.0273	22.05
