Adsorption isotherm of Hydrogen on IRMOF-1
DOI: 10.1021/Jp062723w
Adsorbate Hydrogen: InChIKey UFHFLCQGNIYNRP-UHFFFAOYSA-N
Temperature: 298 K
Tabular data in the source: 0
pressure (bar)	uptake (mmol/g)
4.76427	0.11745
17.469	0.402685
29.7767	0.671141
44.665	0.989933
64.9132	1.40101
72.6551	1.54362
