Adsorption isotherm of Hydrogen on CuBTC
DOI: 10.1021/Jp062723w
Adsorbate Hydrogen: InChIKey UFHFLCQGNIYNRP-UHFFFAOYSA-N
Temperature: 298 K
Tabular data in the source: 0
pressure (bar)	uptake (mmol/g)
4.96278	0.167785
18.66	0.578859
29.9752	0.880872
45.062	1.24161
64.9132	1.62752
72.6551	1.77013
