Adsorption isotherm of Carbon Dioxide on IRMOF-1
DOI: 10.1021/Jp062723w
Adsorbate Carbon Dioxide: InChIKey CURLTUGMZLYLDI-UHFFFAOYSA-N
Temperature: 298 K
Tabular data in the source: 0
pressure (bar)	uptake (mmol/g)
3.45823	2.21667
5.42845	4.31667
7.39868	6.41667
9.48139	10.15
11.5658	13.65
13.5335	16.1
15.3805	18.0833
19.4624	19.8333
23.794	21.35
27.7577	22.2833
33.8337	22.75
42.0215	22.8667
