Adsorption isotherm of Hydrogen on IRMOF-1
DOI: 10.1021/Jp062723w
Adsorbate Hydrogen: InChIKey UFHFLCQGNIYNRP-UHFFFAOYSA-N
Temperature: 298 K
Tabular data in the source: 0
pressure (bar)	uptake (mmol/g)
5.16129	0.125839
17.6675	0.427852
29.9752	0.696309
44.8635	1.00671
64.7146	1.4094
72.6551	1.53523
