Adsorption isotherm of Hydrogen on CuBTC
DOI: 10.1021/Jp062723w
Adsorbate Hydrogen: InChIKey UFHFLCQGNIYNRP-UHFFFAOYSA-N
Temperature: 298 K
Tabular data in the source: 0
pressure (bar)	uptake (mmol/g)
4.96278	0.151007
18.66	0.536913
29.9752	0.822148
44.665	1.23322
64.9132	1.72819
72.6551	1.84564
