Adsorption isotherm of Methane on IRMOF-1
DOI: 10.1021/Jp062723w
Adsorbate Methane: InChIKey VNWKTOKETHGBQD-UHFFFAOYSA-N
Temperature: 298 K
Tabular data in the source: 0
pressure (bar)	uptake (mmol/g)
1.36228	0.35
2.10505	0.583333
3.71299	1.28333
6.06369	2.21667
7.92142	2.68333
9.65343	3.38333
11.1398	3.73333
14.1092	4.9
16.4624	5.48333
18.938	6.3
21.4152	6.88333
25.0066	7.81667
27.4847	8.28333
29.962	8.86667
40.4971	10.3833
