Adsorption isotherm of Methane on IRMOF-1
DOI: 10.1021/Jp062723w
Adsorbate Methane: InChIKey VNWKTOKETHGBQD-UHFFFAOYSA-N
Temperature: 298 K
Tabular data in the source: 0
pressure (bar)	uptake (mmol/g)
1.11414	0.35
1.36228	0.35
2.22663	0.933333
3.71133	1.51667
6.06286	2.33333
7.79653	2.8
9.65343	3.38333
11.0157	3.73333
14.11	4.78333
16.4615	5.6
18.9388	6.18333
21.2911	6.88333
25.0074	7.7
27.4855	8.16667
30.2117	8.63333
40.5004	9.91667
