Adsorption isotherm of Carbon Dioxide on (CuC8H10O6P2)*(H2O)x
DOI: 10.1021/ja207606u
Adsorbate Carbon Dioxide: InChIKey CURLTUGMZLYLDI-UHFFFAOYSA-N
Temperature: 273 K
Tabular data in the source: 0
pressure (bar)	uptake (mmol/g)
0.00969697	0.110092
0.0375758	0.409786
0.0824242	0.688073
0.18303	1.04281
0.361212	1.32722
0.650909	1.54128
0.970909	1.65443
1.19879	1.69725
