Adsorption isotherm of Carbon Dioxide on (CuC8H10O6P2)*(H2O)x
DOI: 10.1021/ja207606u
Adsorbate Carbon Dioxide: InChIKey CURLTUGMZLYLDI-UHFFFAOYSA-N
Temperature: 273 K
Tabular data in the source: 0
pressure (bar)	uptake (mmol/g)
0.0109091	0.0489297
0.0363636	0.171254
0.0836364	0.333333
0.185455	0.593272
0.362424	0.87156
0.648485	1.15596
0.972121	1.29664
1.19758	1.38838
