Adsorption isotherm of Carbon Dioxide on (CuC8H10O6P2)*(H2O)x
DOI: 10.1021/ja207606u
Adsorbate Carbon Dioxide: InChIKey CURLTUGMZLYLDI-UHFFFAOYSA-N
Temperature: 273 K
Tabular data in the source: 0
pressure (bar)	uptake (mmol/g)
0.00969697	0.0122324
0.0412121	0.0550459
0.18303	0.211009
0.361212	0.366972
0.648485	0.593272
0.972121	0.718654
1.2	0.828746
