Adsorption isotherm of Carbon Dioxide on (CuC8H10O6P2)*(H2O)x
DOI: 10.1021/ja207606u
Adsorbate Carbon Dioxide: InChIKey CURLTUGMZLYLDI-UHFFFAOYSA-N
Temperature: 273 K
Tabular data in the source: 0
pressure (bar)	uptake (mmol/g)
0.00848485	0.0917431
0.0121212	0.134557
0.0206061	0.180428
0.030303	0.232416
0.04	0.272171
0.0448485	0.293578
0.049697	0.318043
0.0630303	0.370031
0.0690909	0.40367
0.0751515	0.425076
0.0872727	0.452599
0.0957576	0.480122
0.101818	0.498471
0.116364	0.538226
0.146667	0.602446
0.18303	0.663609
0.219394	0.715596
0.255758	0.764526
0.289697	0.801223
0.324848	0.840979
0.398788	0.899083
0.433939	0.926606
0.469091	0.948012
0.505455	0.975535
0.539394	1.00306
0.578182	1.01529
0.612121	1.04281
0.648485	1.06728
0.684848	1.08257
0.72	1.11927
0.756364	1.14985
0.792727	1.18043
0.829091	1.20489
0.864242	1.22936
0.900606	1.25076
0.935758	1.26606
0.973333	1.2844
1.00848	1.29969
1.09939	1.33945
1.2	1.36697
