Adsorption isotherm of Methane on IRMOF-6
DOI: 10.1080/08927020802609447
Adsorbate Methane: InChIKey VNWKTOKETHGBQD-UHFFFAOYSA-N
Temperature: 298 K
Tabular data in the source: 0
pressure (bar)	uptake (mmol/g)
0.23463	0.167331
0.938055	0.613546
1.64055	0.948207
2.34305	1.28287
3.16263	1.67331
3.98313	2.1753
4.68517	2.45418
5.73845	2.9004
6.55802	3.29084
7.96302	3.96016
9.0163	4.40637
10.0696	4.85259
11.2399	5.35458
12.9943	5.96813
14.8653	6.58167
17.554	7.36255
18.2551	7.52988
20.8254	8.08765
22.4604	8.36653
25.3805	8.9243
27.5995	9.31474
29.1178	9.59363
30.7514	9.70518
32.385	9.81673
33.7863	10.0398
35.3037	10.2072
