Adsorption isotherm of Methane on IRMOF-1
DOI: 10.1080/08927020802609447
Adsorbate Methane: InChIKey VNWKTOKETHGBQD-UHFFFAOYSA-N
Temperature: 298 K
Tabular data in the source: 0
pressure (bar)	uptake (mmol/g)
0.887574	0.558759
1.92308	0.950352
3.5503	1.50994
5.76923	2.23751
7.54438	2.85304
9.61538	3.52467
10.9467	3.97237
14.0533	4.97982
16.2722	5.65162
18.787	6.32375
21.3018	7.10743
25	7.83665
27.5148	8.17412
30.0296	8.62314
40.5325	9.75039
