Adsorption isotherm of Methane on IRMOF-6
DOI: 10.1080/08927020802609447
Adsorbate Methane: InChIKey VNWKTOKETHGBQD-UHFFFAOYSA-N
Temperature: 298 K
Tabular data in the source: 0
pressure (bar)	uptake (mmol/g)
0.235095	0.223108
1.64427	1.39442
3.16448	1.89641
5.73845	2.9004
7.96302	3.96016
11.2372	5.01992
14.8621	6.19124
17.5494	6.80478
18.2519	7.13944
20.7046	7.58566
29.2289	8.9243
32.3831	9.59363
35.3028	10.0956
