Adsorption isotherm of Methane on IRMOF-1
DOI: 10.1080/08927020802609447
Adsorbate Methane: InChIKey VNWKTOKETHGBQD-UHFFFAOYSA-N
Temperature: 298 K
Tabular data in the source: 0
pressure (bar)	uptake (mmol/g)
7.11e-15	0.0557769
1.18343	0.447535
2.07101	0.72741
3.69822	1.39855
4.73373	1.84592
5.76923	2.23751
6.50888	2.51722
8.43195	3.24447
9.46746	3.63606
11.3905	4.25175
12.574	4.69929
14.2012	5.25887
15.6805	5.70674
17.1598	6.21038
18.9349	6.77013
20.5621	7.16238
22.7811	7.7784
24.8521	8.2827
26.4793	8.61918
27.6627	8.89938
30.0296	9.40402
32.9882	9.85353
36.8343	10.4156
40.3846	10.9215
