Adsorption isotherm of Nitrogen on Zeolite Na-LSX
DOI: 10.1002/Aic.10306
Adsorbate Nitrogen: InChIKey IJGRMHOSHXDMSA-UHFFFAOYSA-N
Temperature: 293 K
Tabular data in the source: 0
pressure (bar)	uptake (mmol/g)
1	0.348106
2.25	0.590057
3	0.847348
4	1.05909
5	1.25568
6	1.43712
6.75	1.5732
8	1.70909
10	1.92045
13	2.16174
14.75	2.26714
16.5	2.37254
18.25	2.47794
21.25	2.62831
23.25	2.71847
25.5	2.77822
27.75	2.85312
31.25	2.91241
33.25	2.98741
35.75	3.01676
38	3.06136
40.25	3.10597
42	3.13561
44.5	3.14981
46.75	3.17926
49.25	3.20862
51.75	3.22282
