Adsorption isotherm of Hydrogen on Zeolite Na-LSX
DOI: 10.1002/Aic.10306
Adsorbate Hydrogen: InChIKey UFHFLCQGNIYNRP-UHFFFAOYSA-N
Temperature: 293 K
Tabular data in the source: 0
pressure (bar)	uptake (mmol/g)
4.2735	0.0544419
14.9573	0.193577
30.9829	0.356825
39.5299	0.453587
51.2821	0.556333
59.8291	0.640974
80.1282	0.810179
105.769	0.955012
127.137	1.09389
150.641	1.22665
176.282	1.32906
201.923	1.40723
