Adsorption isotherm of Nitrogen on Zeolite Na-LSX
DOI: 10.1002/Aic.10306
Adsorbate Nitrogen: InChIKey IJGRMHOSHXDMSA-UHFFFAOYSA-N
Temperature: 333 K
Tabular data in the source: 0
pressure (bar)	uptake (mmol/g)
1.25	0.151042
3.5	0.45322
5	0.649621
6.25	0.800663
7.75	0.936458
10	1.11742
11.5	1.22292
14	1.37348
17.5	1.55398
19.75	1.67434
23	1.80947
26	1.91439
30.25	2.01884
33	2.10871
36	2.16818
39.75	2.22737
44.5	2.28617
47.25	2.34574
50	2.375
