Adsorption isotherm of Nitrogen on Zeolite Na-LSX
DOI: 10.1002/Aic.10306
Adsorbate Nitrogen: InChIKey IJGRMHOSHXDMSA-UHFFFAOYSA-N
Temperature: 313 K
Tabular data in the source: 0
pressure (bar)	uptake (mmol/g)
0.25	0.136269
1.5	0.347917
3	0.574621
3.75	0.725852
5	0.9375
6.5	1.14905
8.25	1.33021
10.5	1.51117
13	1.7072
15.5	1.85777
18	2.00833
20.25	2.14384
22	2.20379
24.5	2.29375
26.75	2.36866
30	2.50379
32.25	2.53324
34.5	2.59299
36.75	2.62244
39	2.6822
42	2.72652
44.25	2.75597
46.75	2.78532
49	2.82992
