Adsorption isotherm of Nitrogen on Zeolite Na-LSX
DOI: 10.1002/Aic.10306
Adsorbate Nitrogen: InChIKey IJGRMHOSHXDMSA-UHFFFAOYSA-N
Temperature: 293 K
Tabular data in the source: 0
pressure (bar)	uptake (mmol/g)
0.75	0.226989
1	0.378409
1.75	0.514489
2.75	0.786837
3.75	1.02888
5	1.27083
6.25	1.48248
7.25	1.64877
8	1.7697
10.25	1.95066
12.5	2.13163
14.75	2.31259
16.5	2.4483
17.75	2.53873
20	2.68939
23.5	2.82443
26	2.91439
30.25	3.00369
33.75	3.07812
38	3.16742
42.5	3.24148
45.75	3.30085
50	3.375
