Adsorption isotherm of Nitrogen on Zeolite Na-LSX
DOI: 10.1002/Aic.10306
Adsorbate Nitrogen: InChIKey IJGRMHOSHXDMSA-UHFFFAOYSA-N
Temperature: 333 K
Tabular data in the source: 0
pressure (bar)	uptake (mmol/g)
0.75	0.151231
2.5	0.362689
3.5	0.498674
5.75	0.740246
7	0.876136
8.5	0.99678
10	1.11742
10.75	1.16259
12.5	1.26799
14.25	1.37339
16	1.47879
17.75	1.58419
19.75	1.67434
21	1.73447
23	1.82462
25.25	1.89953
27.5	1.95928
29.75	2.01903
31	2.06402
33.25	2.10862
35.75	2.15312
37.5	2.18277
40	2.24242
42.25	2.30218
44.75	2.33153
47	2.37614
49.25	2.42074
50.5	2.42027
