Adsorption isotherm of Hydrogen on Zeolite Na-LSX
DOI: 10.1002/Aic.10306
Adsorbate Hydrogen: InChIKey UFHFLCQGNIYNRP-UHFFFAOYSA-N
Temperature: 293 K
Tabular data in the source: 0
pressure (bar)	uptake (mmol/g)
8.46216	0.127068
19.0611	0.254083
26.467	0.362995
34.9535	0.453698
45.5686	0.556471
56.1878	0.653183
76.3618	0.840573
102.979	0.979322
126.41	1.08784
149.854	1.17819
174.383	1.24426
192.509	1.29836
