Adsorption isotherm of Nitrogen on Zeolite Na-LSX
DOI: 10.1002/Aic.10306
Adsorbate Nitrogen: InChIKey IJGRMHOSHXDMSA-UHFFFAOYSA-N
Temperature: 313 K
Tabular data in the source: 0
pressure (bar)	uptake (mmol/g)
1	0.257197
2.5	0.514205
3.75	0.710701
5	0.922348
7	1.17917
8.25	1.31506
10.25	1.48097
13	1.69205
14.75	1.81259
17	1.96326
20.5	2.14375
23.5	2.29413
25.25	2.35407
27.25	2.42907
30	2.51894
35	2.5928
39.75	2.66676
44.5	2.75587
50.25	2.8446
