Adsorption isotherm of Hydrogen on [Zn2(2)(py-R)2]n
DOI: 10.1021/Ic8018452
Adsorbate Hydrogen: InChIKey UFHFLCQGNIYNRP-UHFFFAOYSA-N
Temperature: 77 K
Tabular data in the source: 0
pressure (bar)	uptake (wt%)
0.00400996	0.0319919
0.0127495	0.45258
0.0586318	1.04796
0.108884	1.28829
0.154766	1.45762
0.209388	1.56687
0.312077	1.71981
0.465018	1.91098
0.661657	1.99838
0.709724	2.0967
0.956615	2.22779
