Adsorption isotherm of Hydrogen on C20H16NO5Zn
DOI: 10.1021/Ic8018452
Adsorbate Hydrogen: InChIKey UFHFLCQGNIYNRP-UHFFFAOYSA-N
Temperature: 77 K
Tabular data in the source: 0
pressure (bar)	uptake (wt%)
0.0105646	0.0265297
0.0105646	0.174009
0.0498923	0.414345
0.102329	0.561824
0.161321	0.660143
0.211573	0.709303
0.362329	0.824009
0.558968	0.933252
0.764346	1.05888
0.96317	1.1572
