Adsorption isotherm of Hydrogen on [Zn2(2)(py-R)2]n
DOI: 10.1021/Ic8018452
Adsorbate Hydrogen: InChIKey UFHFLCQGNIYNRP-UHFFFAOYSA-N
Temperature: 77 K
Tabular data in the source: 0
pressure (bar)	uptake (wt%)
0.0149343	0.0538406
0.0608167	0.157622
0.113254	0.206782
0.211573	0.299639
0.312077	0.337874
0.419136	0.40342
0.510901	0.441656
0.607035	0.463504
0.764346	0.529051
0.96317	0.57821
