Adsorption isotherm of Carbon Dioxide on MIL-53(Al)
DOI: 10.1016/j.seppur.2014.11.040
Article source: Table 1
Adsorbate Carbon Dioxide: InChIKey CURLTUGMZLYLDI-UHFFFAOYSA-N
Kind: experiment
Isotherm type: absolute
Temperature: 323 K
Tabular data in the source: 1
pressure (bar)	uptake (mmol/g)
0.013	0.085
0.041	0.191
0.685	0.876
1.976	1.689
3.193	2.178
4.558	2.509
6.573	2.926
8.526	3.266
9.764	3.471
11.976	3.785
13.496	4.138
15.052	4.139
17.492	4.383
19.981	4.637
21.4	4.84
26.086	5.098
32.926	5.544
