Adsorption isotherm of Carbon Dioxide on MIL-53(Al)
DOI: 10.1016/j.seppur.2014.11.040
Article source: Table 1
Adsorbate Carbon Dioxide: InChIKey CURLTUGMZLYLDI-UHFFFAOYSA-N
Kind: experiment
Isotherm type: excess
Temperature: 303 K
Tabular data in the source: 1
pressure (bar)	uptake (mmol/g)
0.133	0.459
0.348	0.81
0.586	1.181
0.777	1.355
0.974	1.563
1.412	1.998
2.209	2.584
3.523	2.964
4.162	3.49
5.101	3.458
6.454	3.776
7.079	4.208
8.066	4.062
9.572	4.298
10.365	4.684
12.074	4.595
13.133	4.951
14.903	4.87
16.266	5.2
17.596	5.065
19.286	5.371
21.459	5.313
25.505	5.606
30.518	5.76
