Adsorption isotherm of Methane on MIL-53(Al)
DOI: 10.1016/j.seppur.2014.11.040
Article source: Figure 10
Adsorbate Methane: InChIKey VNWKTOKETHGBQD-UHFFFAOYSA-N
Kind: experiment
Temperature: 303 K
Tabular data in the source: 0
pressure (bar)	uptake (g/g)
0.835322	0.009028
1.67064	0.016106
3.81862	0.029043
6.08592	0.042225
7.87589	0.043209
10.3819	0.052977
15.2745	0.059099
17.3031	0.06545
20.8831	0.066931
24.5823	0.074754
30.1909	0.07722
40.3341	0.084831
47.0167	0.089498
