Adsorption isotherm of Carbon Dioxide on MIL-53(Al)
DOI: 10.1016/j.seppur.2014.11.040
Article source: Table 1
Adsorbate Carbon Dioxide: InChIKey CURLTUGMZLYLDI-UHFFFAOYSA-N
Kind: experiment
Isotherm type: absolute
Temperature: 353 K
Tabular data in the source: 1
pressure (bar)	uptake (mmol/g)
0.129	0.102
0.534	0.332
0.976	0.557
1.468	0.78
3.511	1.457
4.182	1.588
4.946	1.807
7.166	2.203
10.242	2.667
13.126	3.013
13.155	2.99
16.012	3.316
19.281	3.59
23.055	3.894
25.205	4.011
33.14	4.482
