Adsorption isotherm of Carbon Dioxide on MIL-53(Al)
DOI: 10.1016/j.seppur.2014.11.040
Article source: Table 1
Adsorbate Carbon Dioxide: InChIKey CURLTUGMZLYLDI-UHFFFAOYSA-N
Kind: experiment
Isotherm type: absolute
Temperature: 303 K
Tabular data in the source: 1
pressure (bar)	uptake (mmol/g)
0.133	0.462
0.348	0.818
0.586	1.194
0.777	1.372
0.974	1.585
1.412	2.03
2.209	2.634
3.523	3.043
4.162	3.584
5.101	3.575
6.454	3.924
7.079	4.371
8.066	4.249
9.572	4.522
10.365	4.927
12.074	4.881
13.133	5.264
14.903	5.229
16.266	5.595
17.596	5.495
19.286	5.848
21.459	5.85
25.505	6.261
30.518	6.571
