Adsorption isotherm of Nitrogen on MIL-53(Al)
DOI: 10.1016/j.seppur.2014.11.040
Article source: Table 2
Adsorbate Nitrogen: InChIKey IJGRMHOSHXDMSA-UHFFFAOYSA-N
Kind: experiment
Isotherm type: absolute
Temperature: 353 K
Tabular data in the source: 1
pressure (bar)	uptake (mmol/g)
0.106	0.018
0.399	0.057
0.716	0.062
1.055	0.103
1.916	0.173
2.998	0.239
4.088	0.309
5.877	0.408
7.136	0.478
9.345	0.593
12.057	0.744
14.553	0.857
17.117	0.974
19.708	1.083
22.287	1.196
25.217	1.277
28.18	1.387
30.384	1.461
33.076	1.548
