Adsorption isotherm of Nitrogen on MIL-53(Al)
DOI: 10.1016/j.seppur.2014.11.040
Article source: Table 2
Adsorbate Nitrogen: InChIKey IJGRMHOSHXDMSA-UHFFFAOYSA-N
Kind: experiment
Isotherm type: absolute
Temperature: 323 K
Tabular data in the source: 1
pressure (bar)	uptake (mmol/g)
0.005	0.002
0.018	0.005
0.101	0.02
0.754	0.109
1.017	0.136
2.016	0.27
3.015	0.315
3.999	0.455
5.564	0.521
7.497	0.712
10.001	0.845
12.634	1.028
15.017	1.146
17.46	1.306
20.401	1.413
24.989	1.622
25.984	1.677
30.145	1.829
34.137	1.99
