Adsorption isotherm of Methane on MIL-53(Al)
DOI: 10.1016/j.seppur.2014.11.040
Article source: Figure 10
Adsorbate Methane: InChIKey VNWKTOKETHGBQD-UHFFFAOYSA-N
Kind: experiment
Temperature: 323 K
Tabular data in the source: 0
pressure (bar)	uptake (g/g)
0.238663	0.002196
0.596659	0.004393
0.835322	0.007077
0.954654	0.00659
1.90931	0.011229
3.22196	0.018308
5.13126	0.024659
7.87589	0.033941
13.8425	0.046165
19.2124	0.053264
24.2243	0.05963
34.7255	0.068462
41.1695	0.072884
49.8807	0.077804
