Adsorption isotherm of Nitrogen on MIL-53(Al)
DOI: 10.1016/j.seppur.2014.11.040
Article source: Table 2
Adsorbate Nitrogen: InChIKey IJGRMHOSHXDMSA-UHFFFAOYSA-N
Kind: experiment
Isotherm type: absolute
Temperature: 303 K
Tabular data in the source: 1
pressure (bar)	uptake (mmol/g)
0.005	0.003
0.025	0.009
0.095	0.023
0.309	0.063
0.764	0.202
1.028	0.235
2.058	0.408
3.054	0.487
4.017	0.593
8.096	0.952
10.448	1.171
13.075	1.315
15.377	1.498
18.129	1.611
22.961	1.855
25.598	1.985
27.997	2.075
31.807	2.234
