Adsorption isotherm of Nitrogen on MIL-53(Al)
DOI: 10.1016/j.seppur.2014.11.040
Article source: Table 2
Adsorbate Nitrogen: InChIKey IJGRMHOSHXDMSA-UHFFFAOYSA-N
Kind: experiment
Isotherm type: excess
Temperature: 303 K
Tabular data in the source: 1
pressure (bar)	uptake (mmol/g)
0.005	0.003
0.025	0.009
0.095	0.021
0.309	0.056
0.764	0.185
1.028	0.212
2.058	0.362
3.054	0.419
4.017	0.504
8.096	0.771
10.448	0.938
13.075	1.023
15.377	1.155
18.129	1.206
22.961	1.342
25.598	1.413
27.997	1.45
31.807	1.523
