Adsorption isotherm of Nitrogen on MIL-53(Al)
DOI: 10.1016/j.seppur.2014.11.040
Article source: Table 2
Adsorbate Nitrogen: InChIKey IJGRMHOSHXDMSA-UHFFFAOYSA-N
Kind: experiment
Isotherm type: excess
Temperature: 323 K
Tabular data in the source: 1
pressure (bar)	uptake (mmol/g)
0.106	0.016
0.716	0.048
1.055	0.083
1.916	0.136
2.998	0.182
4.088	0.231
5.877	0.296
7.136	0.341
9.345	0.414
12.057	0.514
14.553	0.579
17.117	0.648
19.708	0.707
22.287	0.77
25.217	0.796
28.18	0.85
30.384	0.883
33.076	0.918
