Adsorption isotherm of Nitrogen on MIL-53(Al)
DOI: 10.1016/j.seppur.2014.11.040
Article source: Table 2
Adsorbate Nitrogen: InChIKey IJGRMHOSHXDMSA-UHFFFAOYSA-N
Kind: experiment
Isotherm type: excess
Temperature: 323 K
Tabular data in the source: 1
pressure (bar)	uptake (mmol/g)
0.005	0.002
0.018	0.004
0.101	0.018
0.754	0.094
1.017	0.115
2.016	0.228
3.015	0.252
3.999	0.371
5.564	0.405
7.497	0.556
10.001	0.636
12.634	0.764
15.017	0.832
17.46	0.941
20.401	0.987
24.989	1.1
25.984	1.134
30.145	1.2
34.137	1.277
