Adsorption isotherm of Methane on MIL-53(Al)
DOI: 10.1016/j.seppur.2014.11.040
Article source: Figure 10
Adsorbate Methane: InChIKey VNWKTOKETHGBQD-UHFFFAOYSA-N
Kind: experiment
Temperature: 353 K
Tabular data in the source: 0
pressure (bar)	uptake (g/g)
0	-0.000488
0.357995	0.00049
0.596659	0.002198
0.71599	0.003662
1.07399	0.005127
1.78998	0.008545
3.22196	0.013186
5.2506	0.01783
6.92124	0.021741
8.47255	0.024675
8.59189	0.026627
11.2172	0.029079
13.9618	0.034458
19.0931	0.038874
25.0597	0.04622
30.7876	0.049175
41.0501	0.057517
49.0453	0.062191
