Adsorption isotherm of Carbon Dioxide on MIL-53(Al)
DOI: 10.1016/j.seppur.2014.11.040
Article source: Table 1
Adsorbate Carbon Dioxide: InChIKey CURLTUGMZLYLDI-UHFFFAOYSA-N
Kind: experiment
Isotherm type: excess
Temperature: 323 K
Tabular data in the source: 1
pressure (bar)	uptake (mmol/g)
0.129	0.1
0.534	0.322
0.976	0.538
1.468	0.752
3.511	1.389
4.182	1.507
4.946	1.711
7.166	2.063
10.242	2.465
13.126	2.752
13.155	2.729
16.012	2.995
19.281	3.199
23.055	3.421
25.205	3.49
33.14	3.779
