Adsorption isotherm of Carbon Dioxide on MIL-53(Al)
DOI: 10.1016/j.seppur.2014.11.040
Article source: Table 1
Adsorbate Carbon Dioxide: InChIKey CURLTUGMZLYLDI-UHFFFAOYSA-N
Kind: experiment
Isotherm type: excess
Temperature: 323 K
Tabular data in the source: 1
pressure (bar)	uptake (mmol/g)
0.013	0.085
0.041	0.19
0.685	0.861
1.976	1.648
3.193	2.111
4.558	2.412
6.573	2.785
8.526	3.082
9.764	3.259
11.976	3.522
13.496	3.84
15.052	3.804
17.492	3.99
19.981	4.183
21.4	4.35
26.086	4.488
32.926	4.747
