Adsorption isotherm of Carbon Dioxide on TBICOF
DOI: 10.1021/acs.chemmater.8b04683
Article source: Figure 5A
Adsorbate Carbon Dioxide: InChIKey CURLTUGMZLYLDI-UHFFFAOYSA-N
Kind: experiment
Temperature: 283 K
Tabular data in the source: 0
pressure (bar)	uptake (cm3(STP)/g)
0.033224	4.06448
0.047915	5.92646
0.081301	9.46423
0.09065	10.7676
0.124036	13.5606
0.142733	15.6088
0.172113	18.0293
0.218855	21.5671
0.265596	25.4773
0.308331	28.4564
0.356408	31.808
0.399143	34.4148
0.444549	37.5801
0.491291	39.6283
0.534026	42.7937
0.576761	45.0281
0.627509	47.2624
0.672915	49.4968
0.722327	51.545
0.811803	55.4552
0.762391	53.9656
0.853203	58.0619
0.902615	59.9239
0.878577	59.3653
0.85988	58.8067
0.833171	57.6895
0.817145	56.5723
0.80112	55.8276
0.782423	55.269
0.765062	53.9656
0.747701	53.5932
0.731675	53.0346
0.71565	52.2898
0.699624	50.9864
0.680927	50.4278
0.663566	49.4968
0.647541	48.752
0.630179	48.0072
0.614154	46.89
0.598128	46.1453
0.580767	45.2143
0.566077	44.4695
0.54738	43.3523
0.535361	42.7937
0.519335	42.0489
0.501974	41.4903
0.491291	40.3731
0.475265	39.4421
0.459239	38.8835
0.448556	37.9525
0.43253	37.0215
0.416504	36.0906
0.40315	35.3458
0.385788	33.8562
0.368427	33.4838
0.357744	32.2735
0.343053	31.2494
0.325692	30.1322
0.315009	29.3874
0.297647	28.084
0.281622	26.9668
0.268267	26.4083
0.252241	24.9187
0.238887	23.6153
0.226868	22.6843
0.208171	21.5671
0.193481	20.6361
0.181462	19.3327
0.1641	17.8431
0.14941	16.5398
0.133385	14.9571
