Adsorption isotherm of Methane on TBICOF
DOI: 10.1021/acs.chemmater.8b04683
Article source: Figure 5C
Adsorbate Methane: InChIKey VNWKTOKETHGBQD-UHFFFAOYSA-N
Kind: experiment
Temperature: 313 K
Tabular data in the source: 0
pressure (bar)	uptake (cm3(STP)/g)
0.048744	0.431211
0.10192	0.924025
0.14771	1.23203
0.202363	1.72485
0.254062	2.27926
0.296898	2.58727
0.350074	3.08008
0.398818	3.38809
0.44904	3.7577
0.499261	4.06571
0.55096	4.49692
0.598227	4.92813
0.651403	5.11294
0.704579	5.54415
0.751846	5.79055
0.802068	6.22177
0.85229	6.59138
0.899557	6.83778
0.949778	7.20739
1.00591	7.577
0.998523	7.577
0.948301	7.26899
0.899557	6.96099
0.846381	6.65298
0.799114	6.28337
0.748892	6.03696
0.697194	5.48255
0.646972	5.05133
0.598227	4.92813
0.545052	4.43532
0.497784	4.12731
0.447563	3.6345
0.398818	3.44969
0.34712	2.95688
0.298375	2.52567
0.246677	2.09446
0.197932	1.66324
0.149188	1.29363
