Adsorption isotherm of Carbon Dioxide on TBICOF
DOI: 10.1021/acs.chemmater.8b04683
Article source: Figure 5A
Adsorbate Carbon Dioxide: InChIKey CURLTUGMZLYLDI-UHFFFAOYSA-N
Kind: experiment
Temperature: 273 K
Tabular data in the source: 0
pressure (bar)	uptake (cm3(STP)/g)
0.031889	5.74026
0.045244	8.16084
0.074624	13.5606
0.089314	15.0502
0.122701	19.7051
0.13472	21.1947
0.168107	24.9187
0.177455	25.6635
0.213513	29.3874
0.225532	31.0632
0.257583	33.8562
0.308331	38.8835
0.352402	41.6765
0.360415	42.4213
0.400479	45.7729
0.411162	46.5177
0.443214	49.3106
0.453897	49.4968
0.489955	52.6622
0.535361	55.4552
0.583438	58.4343
0.627509	61.4135
0.676921	64.5789
0.719656	66.8132
0.765062	69.6062
0.811803	71.8406
0.85988	74.2612
0.90128	76.4955
0.881248	76.1231
0.869229	75.3784
0.850532	74.4474
0.833171	73.5164
0.819816	73.144
0.80112	72.213
0.782423	71.0958
0.765062	70.351
0.749036	69.6062
0.733011	68.1166
0.719656	67.7442
0.702295	66.2546
0.683598	65.5099
0.671579	64.3927
0.655553	63.6479
0.639528	62.7169
0.626173	62.1583
0.607476	61.4135
0.595457	60.4825
0.582103	59.7377
0.566077	58.4343
0.550051	57.6895
0.538032	56.3861
0.522006	55.269
0.505981	54.7104
0.489955	53.5932
0.479271	52.6622
0.460575	51.3588
0.445885	50.614
0.43253	49.4968
0.413833	48.0072
0.400479	47.2624
0.384453	45.9591
0.373769	45.0281
0.357744	43.5385
0.343053	42.6075
0.328363	40.9317
0.315009	39.6283
0.298983	37.9525
0.286964	36.8353
0.270938	35.3458
