Adsorption isotherm of Carbon Dioxide on TBICOF
DOI: 10.1021/acs.chemmater.8b04683
Article source: Figure 5A
Adsorbate Carbon Dioxide: InChIKey CURLTUGMZLYLDI-UHFFFAOYSA-N
Kind: experiment
Temperature: 263 K
Tabular data in the source: 0
pressure (bar)	uptake (cm3(STP)/g)
0.023876	7.41605
0.037231	10.0228
0.042573	11.5124
0.074624	17.4707
0.083972	19.3327
0.09065	20.8223
0.118694	25.6635
0.130714	27.3392
0.165436	32.3666
0.177455	34.0424
0.208171	38.3249
0.224197	40.0007
0.258919	43.9109
0.268267	45.4005
0.304325	48.752
0.315009	50.4278
0.348395	53.9656
0.359079	55.269
0.395137	58.4343
0.405821	59.5515
0.443214	62.7169
0.453897	63.4617
0.491291	66.627
0.497968	66.8132
0.534026	69.7924
0.578096	73.144
0.590115	74.075
0.626173	76.8679
0.671579	79.6609
0.716985	82.8263
0.763726	85.4331
0.811803	88.226
0.854538	90.8328
0.899944	93.6258
0.909293	94.1844
0.890596	92.881
0.874571	92.4155
0.858545	91.3914
0.843855	90.8328
0.825158	89.9018
0.811803	89.3432
0.794442	88.226
0.777081	87.295
0.761056	86.1778
0.746365	85.2469
0.731675	84.5021
0.71565	83.5711
0.699624	82.2677
0.686269	81.3367
0.672915	80.7781
0.656889	79.6609
0.638192	78.7299
0.624838	77.7989
0.610147	76.4955
0.596793	75.7507
0.582103	74.8198
0.570083	73.3302
0.550051	72.5854
0.538032	71.6544
0.522006	70.1648
0.509987	69.0476
0.491291	67.9304
0.479271	66.627
0.463246	65.5099
0.448556	64.0203
0.43253	62.7169
0.41784	61.4135
0.405821	60.2963
0.388459	58.9929
0.375105	57.6895
0.36175	56.3861
0.345724	54.7104
0.331034	53.2208
0.32035	51.7312
0.300318	49.8692
0.285628	48.9382
0.273609	47.0762
0.269603	46.3315
0.253577	44.8419
0.238887	42.9799
0.226868	41.3041
0.209506	39.8145
0.196152	37.7663
0.181462	36.2768
0.180126	34.9734
0.165436	33.1114
0.150746	31.0632
0.138726	29.3874
0.136056	28.6426
