Adsorption isotherm of Carbon Dioxide, Methane on TBICOF
DOI: 10.1021/acs.chemmater.8b04683
Article source: Figure S47
Adsorbate Carbon Dioxide: InChIKey CURLTUGMZLYLDI-UHFFFAOYSA-N
Adsorbate Methane: InChIKey VNWKTOKETHGBQD-UHFFFAOYSA-N
Kind: experiment
Temperature: 313 K
Tabular data in the source: 0
pressure (bar)	Carbon Dioxide fraction	Carbon Dioxide uptake (mmol/g)	Methane fraction	Methane uptake (mmol/g)	total uptake (mmol/g)
0.020619	0.5	0.026153	0.5	0.002012	
0.054124	0.5	0.034199	0.5	0.006035	
0.085052	0.5	0.048282	0.5	0.004023	
0.123711	0.5	0.088516	0.5	0.011065	
0.201031	0.5	0.122716	0.5	0.020117	
0.314433	0.5	0.199162	0.5	0.032188	
0.502577	0.5	0.307795	0.5	0.044258	
0.796392	0.5	0.474769	0.5	0.072422	
1.26546	0.5	0.782565	0.5	0.108634	
2	0.5	1.20302	0.5	0.164962	
