Adsorption isotherm of Benzene on TBICOF
DOI: 10.1021/acs.chemmater.8b04683
Article source: Figure S49
Adsorbate Benzene: InChIKey UHOVQNZJYSORNB-UHFFFAOYSA-N
Kind: experiment
Temperature: 298 K
Tabular data in the source: 0
pressure (bar)	uptake (mmol/g)
0.005063	0.252525
0.005063	0.808081
0.003797	1.51515
0.007595	2.22222
0.010127	2.72727
0.017722	3.33333
0.031646	3.73737
0.048101	4.19192
0.067089	4.24242
0.094937	4.79798
0.105063	4.84848
0.136709	5.30303
0.167089	5.80808
0.208861	6.21212
0.255696	6.76768
0.260759	6.86869
0.311392	7.52525
0.356962	8.0303
0.405063	8.48485
0.418987	8.58586
0.472152	9.14141
0.540506	10
0.611392	10.7576
0.659494	11.1616
0.727848	12.0202
0.781013	12.8283
0.817722	13.6364
0.85443	14.4949
0.879747	15.2525
0.9	16.0101
0.91519	16.8182
0.934177	17.6263
0.946835	18.6364
0.955696	19.5455
0.960759	20.4545
0.964557	21.3636
0.968354	22.2727
0.972152	23.2323
0.974684	24.0404
0.975949	25.0505
0.977215	26.0101
0.982278	26.8182
0.981013	27.8283
0.981013	28.5859
