Adsorption isotherm of Methane on TBICOF
DOI: 10.1021/acs.chemmater.8b04683
Article source: Figure 5C
Adsorbate Methane: InChIKey VNWKTOKETHGBQD-UHFFFAOYSA-N
Kind: experiment
Temperature: 298 K
Tabular data in the source: 0
pressure (bar)	uptake (cm3(STP)/g)
0.047267	0.862423
0.103397	1.60164
0.149188	2.58727
0.205318	3.26489
0.248154	3.8809
0.296898	4.74333
0.348597	5.29774
0.397341	6.03696
0.447563	6.77618
0.497784	7.5154
0.55096	8.25462
0.601182	8.93224
0.646972	9.48665
0.703102	10.0411
0.751846	10.5955
0.800591	11.2115
0.849335	11.7043
0.899557	12.2587
0.952733	12.9363
1.00443	13.6756
0.998523	13.6756
0.949778	13.1212
0.899557	12.5051
0.849335	11.9507
0.799114	11.2731
0.750369	10.7187
0.698671	10.0411
0.649926	9.24025
0.598227	8.68583
0.549483	8.00821
0.497784	7.3922
0.446086	6.65298
0.39808	6.03696
0.34712	5.23614
0.296898	4.62012
0.245199	3.7577
0.196455	3.14168
0.14771	2.34086
