Adsorption isotherm of Cyclohexane on TBICOF
DOI: 10.1021/acs.chemmater.8b04683
Article source: Figure S50
Adsorbate Cyclohexane: InChIKey XDTMQSROBMDMFD-UHFFFAOYSA-N
Kind: experiment
Temperature: 298 K
Tabular data in the source: 0
pressure (bar)	uptake (mmol/g)
0.001261	0.237347
0.002522	0.530541
0.002522	0.78185
0.006305	1.07504
0.01261	1.25654
0.032787	1.54974
0.044136	1.63351
0.068096	1.89878
0.102144	2.13613
0.143758	2.37347
0.17024	2.48517
0.223203	2.75044
0.263556	2.87609
0.321564	3.1274
0.417402	3.39267
0.494325	3.71379
0.563682	3.9651
0.649433	4.3281
0.660782	4.41187
0.741488	4.81675
0.807062	5.2356
0.856242	5.61257
0.891551	6.00349
0.919294	6.42234
0.947037	6.911
0.958386	7.14834
0.968474	7.49738
0.974779	7.72077
0.979823	7.97208
0.983607	8.32112
