Adsorption isotherm of Nitrogen on TBICOF
DOI: 10.1021/acs.chemmater.8b04683
Article source: Figure 6
Adsorbate Nitrogen: InChIKey IJGRMHOSHXDMSA-UHFFFAOYSA-N
Kind: experiment
Temperature: 263 K
Tabular data in the source: 0
pressure (bar)	uptake (mmol/g)
0.003007	0.001004
0.019752	0.004705
0.035168	0.001156
0.05824	0.00294
0.072083	0.00294
0.090541	0.004725
0.107845	0.004725
0.135532	0.006509
0.152836	0.008294
0.177062	0.008294
0.208209	0.008294
0.262429	0.010079
0.312034	0.013648
0.34895	0.008294
0.402016	0.015433
0.450468	0.015433
0.50238	0.020786
0.551986	0.020786
0.59813	0.022571
0.651196	0.022571
0.704262	0.02614
0.755021	0.024356
0.804626	0.027925
0.854232	0.02971
0.902683	0.02614
0.953442	0.031494
