Adsorption isotherm of Nitrogen on TBICOF
DOI: 10.1021/acs.chemmater.8b04683
Article source: Figure 6
Adsorbate Nitrogen: InChIKey IJGRMHOSHXDMSA-UHFFFAOYSA-N
Kind: experiment
Temperature: 298 K
Tabular data in the source: 0
pressure (bar)	uptake (mmol/g)
0.002312	0
0.021965	0.008048
0.036994	0.01073
0.056647	0.01073
0.069364	0.016095
0.084393	0.018778
0.109827	0.016095
0.13526	0.021461
0.153179	0.018778
0.178035	0.018778
0.206936	0.024143
0.260116	0.024143
0.310983	0.032191
0.346821	0.034873
0.401156	0.042921
0.450867	0.050969
0.500578	0.053651
0.553757	0.061699
0.602312	0.067064
0.652023	0.069747
0.70289	0.067064
0.752601	0.072429
0.8	0.077794
0.854335	0.077794
0.899422	0.083159
0.950289	0.085842
