Adsorption isotherm of Water on TBICOF
DOI: 10.1021/acs.chemmater.8b04683
Article source: Figure S52
Adsorbate Water: InChIKey XLYOFNOQVPJJNP-UHFFFAOYSA-N
Kind: experiment
Temperature: 298 K
Tabular data in the source: 0
pressure (bar)	uptake ()
0.023697	6.2069
0.07425	6.2069
0.14218	8.27586
0.202212	8.96552
0.293839	10.3448
0.369668	12.4138
0.443918	14.4828
0.50079	17.2414
0.57346	18.6207
0.617694	22.7586
0.674566	30.3448
0.703002	36.5517
0.744076	54.4828
0.763033	69.6552
0.778831	84.8276
0.78831	102.759
0.800948	118.621
0.810427	136.552
0.816746	151.034
0.824645	164.138
0.832543	181.379
0.845182	199.31
0.85466	215.172
0.870458	231.034
0.887836	245.517
0.911532	262.069
0.941548	282.759
0.968404	302.759
0.958926	300
0.846761	276.552
0.815166	259.31
0.793049	242.759
0.775671	226.207
0.763033	209.655
0.756714	192.414
0.747235	175.172
0.739336	157.931
0.734597	140
0.726698	122.759
0.718799	105.517
0.71248	88.9655
0.704581	72.4138
0.688784	57.931
0.661927	42.069
0.635071	33.7931
0.581359	26.8966
0.488152	20
0.383886	16.5517
0.254344	12.4138
0.121643	10.3448
