Adsorption isotherm of Nitrogen on TBICOF
DOI: 10.1021/acs.chemmater.8b04683
Article source: Figure 4A
Adsorbate Nitrogen: InChIKey IJGRMHOSHXDMSA-UHFFFAOYSA-N
Kind: experiment
Temperature: 77 K
Tabular data in the source: 0
pressure (bar)	uptake ()
0.018087	260.64
0.053089	291.259
0.068646	300.828
0.086795	302.742
0.103648	314.224
0.125687	318.051
0.141243	327.62
0.151614	329.533
0.163282	337.188
0.176245	341.016
0.194395	342.929
0.209951	344.843
0.237175	354.412
0.298105	367.808
0.329218	381.203
0.343478	383.117
0.384962	400.34
0.434225	413.736
0.484784	425.219
0.531453	436.701
0.579419	453.924
0.628682	467.32
0.676648	488.371
0.727207	507.508
0.777117	536.213
0.823139	568.746
0.871105	612.761
0.902218	664.431
0.924256	721.843
0.941109	777.34
0.954073	861.543
0.961851	941.918
0.956666	934.264
0.947591	909.385
0.933331	848.147
0.92296	806.045
0.897032	737.152
0.873697	702.706
0.827028	651.036
0.775173	620.416
0.728503	597.452
0.680537	582.142
0.626089	568.746
0.580716	551.523
0.534046	543.868
0.497747	528.559
0.453671	507.508
0.394037	490.285
0.331811	459.665
0.276067	436.701
0.224211	409.909
0.169763	385.031
0.12439	360.153
0.075128	321.879
0.041422	283.605
0.00642	241.503
