Adsorption isotherm of Cyclohexane on TBICOF
DOI: 10.1021/acs.chemmater.8b04683
Article source: Figure 9A
Adsorbate Cyclohexane: InChIKey XDTMQSROBMDMFD-UHFFFAOYSA-N
Kind: experiment
Temperature: 298 K
Tabular data in the source: 0
pressure (bar)	uptake (cm3(STP)/g)
0.000789	5.59759
0.000789	12.7635
0.000926	20.9532
0.002159	26.0717
0.006545	36.3088
0.00956	40.4036
0.013671	44.4984
0.019016	51.6643
0.022305	52.688
0.029157	59.854
0.034776	61.9014
0.042313	68.5555
0.054099	72.1385
0.064103	81.3518
0.072874	90.5652
0.083426	94.66
0.085619	96.7074
0.09576	106.944
0.104668	115.134
0.110835	124.347
0.115083	132.537
0.118783	140.727
0.122346	153.011
0.123854	160.177
0.125087	164.272
0.126183	171.438
0.127006	174.509
0.126869	185.77
0.123991	179.628
0.121524	171.438
0.119194	166.319
0.116728	160.177
0.113576	148.916
0.108779	139.703
0.10412	132.537
0.097267	122.3
0.090826	114.11
0.084111	112.063
0.076985	101.826
0.067666	96.7074
0.059032	89.5415
0.049439	80.3281
0.040669	75.2096
0.033405	69.0673
0.027786	68.0436
0.020386	59.854
0.013534	49.6169
0.01093	47.5695
0.006956	41.4273
0.004352	35.7969
