Adsorption isotherm of Nitrogen on TBICOF
DOI: 10.1021/acs.chemmater.8b04683
Article source: Figure 6
Adsorbate Nitrogen: InChIKey IJGRMHOSHXDMSA-UHFFFAOYSA-N
Kind: experiment
Temperature: 273 K
Tabular data in the source: 0
pressure (bar)	uptake (mmol/g)
0.004651	0.021021
0.02093	0.021021
0.039535	0.021021
0.055814	0.021021
0.074419	0.036787
0.089535	0.036787
0.109302	0.026276
0.133721	0.042042
0.153488	0.042042
0.177907	0.057808
0.212791	0.052553
0.261628	0.063063
0.316279	0.078829
0.352326	0.084084
0.402326	0.084084
0.451163	0.120871
0.502326	0.120871
0.55	0.126126
0.602326	0.131381
0.651163	0.147147
0.706977	0.152402
0.754651	0.168168
0.803488	0.183934
0.852326	0.178679
0.904651	0.178679
