Adsorption isotherm of Methane on TBICOF
DOI: 10.1021/acs.chemmater.8b04683
Article source: Figure 5C
Adsorbate Methane: InChIKey VNWKTOKETHGBQD-UHFFFAOYSA-N
Kind: experiment
Temperature: 273 K
Tabular data in the source: 0
pressure (bar)	uptake (cm3(STP)/g)
0.048744	1.78645
0.098966	3.38809
0.14771	4.92813
0.202363	6.34497
0.249631	7.76181
0.302806	9.17865
0.353028	10.4107
0.400295	11.5195
0.450517	12.6899
0.500739	13.8912
0.599705	15.9548
0.646972	17.0637
0.698671	18.0493
0.751846	18.9117
0.802068	19.8973
0.849335	20.8214
0.899557	21.7454
0.949778	22.5462
1.00591	23.4702
0.997046	23.2854
0.949778	22.423
0.899557	21.6222
0.850812	20.8214
0.799114	19.8973
0.751846	19.0349
0.700148	18.0493
0.651403	17.1253
0.598227	16.078
0.55096	14.9692
0.497784	13.8604
0.448301	12.7515
0.400295	11.6427
0.345643	10.2875
0.293944	8.99384
0.246677	7.76181
0.200886	6.40657
0.149188	4.98973
