Adsorption isotherm of Carbon Dioxide on TBICOF
DOI: 10.1021/acs.chemmater.8b04683
Article source: Figure 5B
Adsorbate Carbon Dioxide: InChIKey CURLTUGMZLYLDI-UHFFFAOYSA-N
Kind: experiment
Temperature: 195 K
Tabular data in the source: 0
pressure (bar)	uptake ()
0.004484	3.75235
0.00299	12.758
0.00299	25.5159
0.007474	49.531
0.008969	56.2852
0.008969	60.788
0.011958	66.0413
0.014948	69.7936
0.011958	77.2983
0.014948	84.0525
0.019432	93.8086
0.023916	102.064
0.026906	108.818
0.032885	115.947
0.038864	123.077
0.043348	126.829
0.049327	132.833
0.058296	141.839
0.06577	147.842
0.077728	153.846
0.09716	164.353
0.119581	173.358
0.140508	179.362
0.156951	183.865
0.171898	188.368
0.195815	195.122
0.248132	207.88
0.307922	219.887
0.349776	232.645
0.402093	243.152
0.44843	255.159
0.500747	264.916
0.54858	275.422
0.599402	285.929
0.650224	297.936
0.696562	309.193
0.750374	319.7
0.804185	332.458
0.850523	341.463
0.898356	351.22
0.949178	361.726
1.00448	375.985
0.96861	372.983
0.947683	370.732
0.899851	363.977
0.850523	357.974
0.798206	348.968
0.747384	342.964
0.698057	333.959
0.647235	326.454
0.599402	315.947
0.547085	306.191
0.499253	294.934
0.44843	282.927
0.403587	261.163
0.394619	249.906
0.337818	240.901
0.289985	228.893
0.26009	222.889
0.209268	206.379
0.182362	196.623
