Adsorption isotherm of Carbon Dioxide on TBICOF
DOI: 10.1021/acs.chemmater.8b04683
Article source: Figure 5A
Adsorbate Carbon Dioxide: InChIKey CURLTUGMZLYLDI-UHFFFAOYSA-N
Kind: experiment
Temperature: 298 K
Tabular data in the source: 0
pressure (bar)	uptake (cm3(STP)/g)
0.037231	2.3887
0.047915	3.13349
0.082637	5.55407
0.094656	6.29886
0.128043	8.34704
0.137391	9.27803
0.174784	11.3262
0.181462	11.6986
0.221526	13.933
0.266932	15.9812
0.448556	24.5463
0.495297	27.153
0.540703	28.6426
0.590115	30.877
0.635521	32.3666
0.682263	34.2286
0.726333	35.3458
0.771739	37.2077
0.81581	38.5111
0.851868	40.3731
0.907957	42.6075
0.889261	42.0489
0.875906	41.4903
0.861216	41.1179
0.84519	40.1869
0.8305	40.1869
0.81581	39.0697
0.797113	38.8835
0.782423	38.5111
0.769068	37.7663
0.753043	37.3939
0.738353	36.8353
0.722327	36.0906
0.708972	35.7182
0.694282	35.3458
0.676921	34.601
0.662231	33.8562
0.647541	33.2976
0.630179	33.1114
0.615489	32.3666
0.601467	31.6218
0.586109	30.877
0.570083	30.3184
0.556729	29.5736
0.543374	29.2012
0.527348	28.6426
0.509987	27.8978
0.496632	27.3392
0.480607	26.5945
0.468588	25.8497
0.452562	25.4773
0.436536	24.9187
0.421846	23.8015
0.407156	23.0567
0.393801	22.6843
0.37644	21.9395
0.36175	21.1947
0.351066	20.6361
0.335041	19.8913
0.321686	19.3327
0.313673	18.9603
0.298983	18.2155
0.285628	17.4707
0.266932	16.5398
