Adsorption isotherm of Methane on TBICOF
DOI: 10.1021/acs.chemmater.8b04683
Article source: Figure 5C
Adsorbate Methane: InChIKey VNWKTOKETHGBQD-UHFFFAOYSA-N
Kind: experiment
Temperature: 263 K
Tabular data in the source: 0
pressure (bar)	uptake (cm3(STP)/g)
0.048744	2.40246
0.10192	4.62012
0.255539	10.4107
0.301329	12.0123
0.35229	13.6448
0.201625	8.62423
0.150665	6.65298
0.400295	15.154
0.450517	16.5092
0.500739	17.8029
0.552437	19.2197
0.602659	20.5749
0.65288	21.5606
0.698671	22.7926
0.751846	23.963
0.797637	25.0103
0.847858	26.0575
0.902511	27.1047
0.949778	27.9671
1.00591	29.0144
1	28.9528
0.951256	27.9671
0.89808	26.9815
0.846381	25.9959
0.800591	25.0103
0.745938	23.9014
0.700148	22.6694
0.646972	21.499
0.598227	20.3285
0.549483	19.0965
0.497784	17.8029
0.44904	16.386
0.397341	15.0308
0.348597	13.4908
0.296898	11.8891
0.246677	10.2259
0.197932	8.50103
0.149188	6.59138
