Adsorption isotherm of Benzene on TBICOF
DOI: 10.1021/acs.chemmater.8b04683
Article source: Figure 9A
Adsorbate Benzene: InChIKey UHOVQNZJYSORNB-UHFFFAOYSA-N
Kind: experiment
Temperature: 298 K
Tabular data in the source: 0
pressure (bar)	uptake (cm3(STP)/g)
0.000502	35.2851
0.001036	47.5695
0.002105	60.8777
0.003041	71.1147
0.003709	78.2807
0.004777	84.4229
0.006247	92.6126
0.008786	95.6837
0.011859	106.944
0.013596	108.992
0.017337	118.205
0.021211	126.395
0.026689	139.703
0.032034	149.94
0.033236	149.94
0.039249	164.272
0.045261	173.485
0.051407	183.722
0.05301	186.793
0.059825	203.173
0.068108	216.481
0.077327	234.908
0.08334	248.216
0.091757	267.666
0.098571	287.117
0.103248	304.52
0.107657	321.923
0.110596	339.326
0.113402	356.729
0.115406	374.132
0.117544	393.582
0.119147	414.056
0.12035	435.554
0.120884	456.028
0.121686	476.502
0.121953	495.953
0.12222	517.45
0.122487	538.948
0.122888	558.399
0.123155	579.896
0.123289	600.371
0.12369	620.845
0.123957	640.295
0.12075	618.797
0.119682	596.276
0.118212	572.73
0.11741	549.185
0.116208	528.711
0.115272	506.19
0.11407	484.692
0.1126	462.17
0.110863	438.625
0.108592	417.127
0.106187	396.653
0.102847	376.179
0.098972	355.705
0.094162	338.302
0.088417	317.828
0.08187	298.377
0.077461	288.14
0.069845	269.714
0.062096	255.382
0.05595	242.074
0.049937	229.789
0.042455	217.505
0.03671	205.22
0.031767	192.936
0.029629	188.841
0.024418	176.556
0.019474	164.272
0.015065	153.011
0.011592	143.798
0.008118	131.513
0.00618	123.324
0.004243	113.087
0.002773	102.85
0.001838	97.7311
0.00117	88.5177
0.000769	77.257
0.000636	69.0673
