Adsorption isotherm of Carbon Dioxide on TBICOF
DOI: 10.1021/acs.chemmater.8b04683
Article source: Figure 5A
Adsorbate Carbon Dioxide: InChIKey CURLTUGMZLYLDI-UHFFFAOYSA-N
Kind: experiment
Temperature: 313 K
Tabular data in the source: 0
pressure (bar)	uptake (cm3(STP)/g)
0.038769	1.5444
0.04925	2.0163
0.083972	3.87828
0.095991	3.87828
0.128043	5.55407
0.140062	5.92646
0.17612	7.04365
0.182797	7.22985
0.221526	8.53324
0.268267	10.0228
0.309667	11.5124
0.324357	11.6986
0.359079	12.6296
0.369763	13.002
0.401814	14.1192
0.412498	14.3054
0.455233	15.795
0.465917	15.9812
0.499303	17.0983
0.511323	17.2845
0.543374	17.8431
0.558064	18.2155
0.634186	19.8913
0.686269	21.1947
0.726333	22.1257
0.77441	23.0567
0.822487	24.3601
0.861216	24.9187
0.906622	26.4083
0.891932	25.8497
0.875906	25.4773
0.861216	25.2911
0.843855	24.9187
0.829165	24.5463
0.814474	24.1739
0.798449	24.267
0.782423	23.6153
0.769068	23.4291
0.753043	23.0567
0.739688	22.6843
0.722327	22.4981
0.707637	22.1257
0.694282	21.7533
0.678256	21.1947
0.662231	21.1947
0.646205	20.8223
0.631515	20.2637
0.616825	20.0775
0.600799	19.7051
0.586109	19.3327
0.571419	18.5879
0.555393	18.5879
0.542038	18.0293
0.526013	17.8431
0.512658	17.4707
0.496632	16.726
0.480607	16.5398
0.465917	16.1674
0.452562	15.795
0.437872	15.2364
0.421846	14.864
0.405821	14.4916
0.393801	13.933
0.379111	13.5606
0.363085	13.1882
0.349731	12.8158
0.33237	12.2572
0.317679	11.6986
