Adsorption isotherm of Nitrogen on TBICOF in presence of base
DOI: 10.1021/acs.chemmater.8b04683
Article source: Figure 4A
Adsorbate Nitrogen: InChIKey IJGRMHOSHXDMSA-UHFFFAOYSA-N
Kind: experiment
Temperature: 77 K
Tabular data in the source: 0
pressure (bar)	uptake (cm3(STP)/g)
0.003827	29.0822
0.007716	48.2192
0.007716	59.7014
0.009012	73.0973
0.007716	84.5795
0.00642	145.818
0.007716	164.955
0.009012	178.351
0.009012	187.919
0.018087	207.057
0.025865	218.539
0.751838	429.046
0.802397	450.097
0.041422	235.762
0.054386	239.589
0.069942	251.072
0.086795	260.64
0.104944	264.468
0.130872	275.95
0.147725	277.864
0.159392	279.777
0.174949	291.259
0.184024	291.259
0.200877	291.259
0.217729	291.259
0.24625	298.914
0.305883	316.138
0.342182	318.051
0.356442	329.533
0.401815	337.188
0.448485	348.671
0.501637	362.066
0.552195	369.721
0.602754	386.945
0.65072	398.427
0.698686	413.736
0.851659	480.716
0.902218	520.904
0.93722	572.574
0.95148	610.848
0.956666	643.381
0.933331	620.416
0.9087	576.401
0.873697	572.574
0.824435	551.523
0.775173	526.645
0.728503	497.939
0.681833	476.889
0.629978	444.356
0.579419	423.305
0.53275	419.478
0.496451	400.34
0.453671	392.686
0.395333	383.117
0.330514	360.153
0.27477	341.016
