Adsorption isotherm of Carbon Dioxide, Nitrogen on TBICOF
DOI: 10.1021/acs.chemmater.8b04683
Article source: Figure S47
Adsorbate Carbon Dioxide: InChIKey CURLTUGMZLYLDI-UHFFFAOYSA-N
Adsorbate Nitrogen: InChIKey IJGRMHOSHXDMSA-UHFFFAOYSA-N
Kind: experiment
Temperature: 313 K
Tabular data in the source: 0
pressure (bar)	Carbon Dioxide fraction	Carbon Dioxide uptake (mmol/g)	Nitrogen fraction	Nitrogen uptake (mmol/g)	total uptake (mmol/g)
0.025723	0.5	0.027027	0.5	0.005738	
0.057878	0.5	0.032432	0.5	0.010083	
0.083601	0.5	0.048649	0.5	0.007911	
0.128617	0.5	0.081081	0.5	0.010083	
0.205788	0.5	0.124324	0.5	0.010083	
0.321863	0.5	0.199074	0.5	0.007911	
0.507941	0.5	0.309862	0.5	0.018772	
0.799981	0.5	0.518404	0.5	0.0166	
1.26776	0.5	0.755186	0.5	0.023117	
2.00174	0.5	1.21354	0.5	0.038323	
