Adsorption isotherm of Nitrogen on TBICOF in presence of acid
DOI: 10.1021/acs.chemmater.8b04683
Article source: Figure 4A
Adsorbate Nitrogen: InChIKey IJGRMHOSHXDMSA-UHFFFAOYSA-N
Kind: experiment
Temperature: 77 K
Tabular data in the source: 0
pressure (bar)	uptake ()
0.004475	9.94513
0.005123	21.4273
0.005123	42.4781
0.00642	57.7877
0.007716	69.2699
0.005123	82.6658
0.00642	92.2343
0.007716	107.544
0.00642	119.026
0.00642	130.508
0.00642	143.904
0.00642	157.3
0.00642	166.869
0.00642	180.265
0.007068	193.661
0.009012	210.884
0.011605	224.28
0.023273	245.331
0.041422	252.985
0.056978	264.468
0.069942	270.209
0.086795	279.777
0.106241	283.605
0.126983	297.001
0.142539	298.914
0.154207	298.914
0.167171	302.742
0.182727	308.483
0.200877	314.224
0.219026	319.965
0.24625	325.706
0.305883	335.275
0.340886	348.671
0.356442	352.498
0.397926	363.98
0.451078	375.462
0.50034	390.772
0.552195	402.254
0.600161	413.736
0.649424	429.046
0.702575	440.528
0.749245	457.752
0.8011	486.457
0.852955	513.249
0.899625	543.868
0.938516	591.711
0.961851	635.726
0.957962	622.33
0.948887	612.761
0.921663	593.624
0.897032	568.746
0.873697	555.35
0.825731	520.904
0.773876	490.285
0.727207	459.665
0.677944	429.046
0.629978	417.564
0.578123	413.736
0.535342	413.736
0.479598	406.082
0.440707	398.427
0.392741	386.945
