Adsorption isotherm of Methane on MIL-100(Fe)
DOI: 10.1002/chem.201502893
Article source: Figure 1
Adsorbate Methane: InChIKey VNWKTOKETHGBQD-UHFFFAOYSA-N
Kind: experiment
Temperature: 313 K
Tabular data in the source: 0
pressure (bar)	uptake (mmol/g)
0.02007	0.01256
0.04702	0.02372
0.07019	0.03768
0.08447	0.04046
0.10468	0.04043
0.12381	0.046
0.14483	0.04877
0.16477	0.04874
0.18417	0.05711
0.19979	0.05988
0.22458	0.06544
0.24722	0.06261
0.26931	0.07238
0.29356	0.07234
0.31189	0.08351
0.33452	0.08628
0.35446	0.09744
0.37763	0.1058
0.39595	0.10018
0.41428	0.11415
0.43691	0.11691
0.45685	0.12528
0.47625	0.12805
0.49834	0.14201
0.5172	0.14198
0.54199	0.15314
0.56193	0.16151
0.58241	0.16708
0.60073	0.16985
0.62229	0.18101
0.6433	0.18658
0.66378	0.19215
0.6848	0.20331
0.7042	0.20608
0.72737	0.21164
0.74569	0.22001
0.76456	0.22558
0.78827	0.24234
0.80713	0.24231
0.82868	0.24508
0.84755	0.25345
0.87126	0.26741
0.8912	0.27857
0.91221	0.28414
0.92892	0.29251
0.95371	0.30647
0.97095	0.30644
0.99358	0.30921
1.01245	0.32317
