Adsorption isotherm of Ethane on MIL-100(Fe)
DOI: 10.1002/chem.201502893
Article source: Figure 1
Adsorbate Ethane: InChIKey OTMSDBZUPAUEDD-UHFFFAOYSA-N
Kind: experiment
Temperature: 293 K
Tabular data in the source: 0
pressure (bar)	uptake (mmol/g)
0.00337	0.02466
0.02183	0.10129
0.04204	0.14959
0.06226	0.21992
0.08085	0.28395
0.10309	0.37317
0.12288	0.43984
0.14395	0.51233
0.16363	0.58065
0.18427	0.65314
0.20374	0.71896
0.22423	0.78939
0.24431	0.85343
0.26406	0.92428
0.28508	0.99514
0.3057	1.06232
0.32584	1.12583
0.34646	1.19617
0.36539	1.25758
0.38547	1.32214
0.40575	1.38617
0.41424	1.46174
0.42711	1.43971
0.43472	1.52472
0.44766	1.51214
0.45548	1.59033
0.4674	1.58615
0.47616	1.66067
0.48742	1.64336
0.49791	1.72843
0.50742	1.7086
0.51659	1.78464
0.5283	1.7754
0.53832	1.8554
0.54738	1.84596
0.55877	1.9252
0.56888	1.9079
0.57939	1.98242
0.58821	1.97193
0.60054	2.05223
0.60802	2.04122
0.62042	2.11469
0.62844	2.10263
0.64084	2.17872
0.64872	2.17138
0.66179	2.24381
0.66745	2.23857
0.68268	2.31309
0.69022	2.30365
0.70289	2.37503
0.70828	2.36874
0.72364	2.44116
0.72971	2.43172
0.7444	2.50205
0.75006	2.49786
0.76566	2.56564
0.78552	2.63309
0.8059	2.69658
0.8278	2.76007
0.84783	2.8262
0.86855	2.88968
0.88875	2.95317
0.90997	3.01401
0.93001	3.06824
0.94919	3.1185
0.95293	3.1476
0.97262	3.19918
0.9767	3.21108
0.99113	3.25209
1.0115	3.30103
