Adsorption isotherm of Ethene on MIL-100(Fe)
DOI: 10.1002/chem.201502893
Article source: Figure 1
Adsorbate Ethene: InChIKey VGGSQFUCUMXWEO-UHFFFAOYSA-N
Kind: experiment
Temperature: 525 K
Tabular data in the source: 0
pressure (bar)	uptake (mmol/g)
0.00121	0.21162
0.00363	0.34062
0.02168	0.99944
0.02613	1.01553
0.04324	1.14643
0.04944	1.16182
0.06346	1.24652
0.07572	1.28221
0.08394	1.3326
0.10054	1.38611
0.10417	1.41833
0.12278	1.44942
0.12642	1.48832
0.14332	1.51052
0.1461	1.5583
0.16407	1.57383
0.16707	1.62384
0.18311	1.63493
0.18803	1.68604
0.2045	1.69379
0.20793	1.74491
0.22547	1.75822
0.22889	1.79378
0.24515	1.8082
0.249	1.84598
0.26611	1.8504
0.27039	1.89818
0.28558	1.89816
0.29136	1.94816
0.30804	1.94257
0.31147	2.00147
0.32794	1.997
0.33286	2.04589
0.34741	2.03142
0.35297	2.08809
0.36666	2.07695
0.37329	2.1314
0.38698	2.11137
0.39426	2.18249
0.40517	2.16024
0.41372	2.21691
0.42742	2.19688
0.43512	2.25911
0.4471	2.23797
0.45544	2.30464
0.46806	2.27683
0.4764	2.34462
0.48729	2.31562
0.4978	2.38562
0.50697	2.35059
0.51721	2.41919
0.52664	2.38697
0.53823	2.46116
0.5474	2.42614
0.55818	2.50034
0.56896	2.46251
0.5792	2.53251
0.5881	2.48908
0.60023	2.56888
0.60777	2.52966
0.62233	2.60245
0.62826	2.56323
0.6412	2.64162
0.65036	2.5996
0.66168	2.66959
0.67004	2.63877
0.68243	2.70736
0.68998	2.66954
0.70319	2.73533
0.71074	2.69891
0.72313	2.77451
0.72879	2.73809
0.74416	2.80808
0.74982	2.76606
0.76464	2.83605
0.77057	2.79263
0.78567	2.86542
0.78998	2.8276
0.80723	2.89479
0.81235	2.86957
0.82771	2.92976
0.83122	2.90455
0.8482	2.95913
0.85062	2.93952
0.86949	2.9913
0.8703	2.9717
0.88728	3.01648
0.89213	2.99126
0.90938	3.05004
0.91154	3.02063
0.9296	3.05561
0.95116	3.08778
0.9517	3.09
0.97111	3.11855
0.97326	3.14095
0.99132	3.14792
1.01127	3.1899
