Adsorption isotherm of Acetylene on MIL-100(Fe)
DOI: 10.1002/chem.201502893
Article source: Figure 1
Adsorbate Acetylene: InChIKey HSFWRNGVRCDJHI-UHFFFAOYSA-N
Kind: experiment
Temperature: 313 K
Tabular data in the source: 0
pressure (bar)	uptake (mmol/g)
0.00201	0.05352
0.02273	0.48622
0.02402	0.49209
0.04454	0.78494
0.04562	0.7211
0.06465	0.95011
0.07321	0.9182
0.0807	0.98205
0.08519	1.0792
0.10391	1.10489
0.10594	1.19996
0.12392	1.20761
0.12733	1.29574
0.14381	1.29853
0.14595	1.38319
0.16489	1.37904
0.16735	1.46786
0.18511	1.44845
0.1881	1.54005
0.20565	1.50745
0.20843	1.61362
0.22534	1.57825
0.22854	1.67332
0.24481	1.63794
0.24973	1.73856
0.26653	1.68862
0.2692	1.79964
0.28708	1.75109
0.28974	1.85379
0.30773	1.80523
0.31136	1.90654
0.3272	1.86354
0.33211	1.96208
0.34689	1.90796
0.35201	2.00789
0.36625	1.95308
0.37363	2.05648
0.38787	2.00168
0.39353	2.09536
0.40616	2.05374
0.41429	2.14395
0.42681	2.10233
0.43526	2.19116
0.44661	2.14121
0.45559	2.2342
0.46694	2.19604
0.47592	2.28185
0.48845	2.23006
0.49735	2.31684
0.50824	2.27727
0.5173	2.3562
0.52771	2.30365
0.53887	2.40255
0.54847	2.35155
0.55883	2.44104
0.56816	2.39459
0.57905	2.47515
0.58903	2.42306
0.59945	2.51426
0.61053	2.45708
0.62085	2.55558
0.62904	2.50775
0.64021	2.5892
0.64863	2.52859
0.66196	2.62691
0.66896	2.57787
0.6805	2.66452
0.6895	2.61051
0.70287	2.68685
0.70865	2.6584
0.72449	2.7292
0.73166	2.67855
0.7446	2.76391
0.74835	2.72297
0.76568	2.79377
0.76965	2.75769
0.78548	2.82778
0.78901	2.78823
0.80581	2.86389
0.8086	2.82989
0.827	2.89513
0.83042	2.86738
0.84744	2.92291
0.85011	2.89654
0.86809	2.96386
0.86927	2.92848
0.88852	2.98678
0.89003	2.96319
0.90982	2.99916
0.91014	2.99929
0.93004	3.02806
0.93037	3.02845
0.95144	3.07427
0.95187	3.0749
0.96889	3.08955
0.97327	3.11662
0.99136	3.1201
1.01137	3.16314
