Adsorption isotherm of Acetylene on MIL-100(Fe)
DOI: 10.1002/chem.201502893
Article source: Figure 1
Adsorbate Acetylene: InChIKey HSFWRNGVRCDJHI-UHFFFAOYSA-N
Kind: experiment
Temperature: 293 K
Tabular data in the source: 0
pressure (bar)	uptake (mmol/g)
0.00209	0.0088
0.00533	0.16473
0.02436	1.01879
0.04298	1.34404
0.07062	1.62836
0.08005	1.7081
0.10169	1.86489
0.12219	1.99924
0.14248	2.10257
0.16269	2.21471
0.18195	2.29881
0.20281	2.38874
0.22432	2.477
0.24529	2.56027
0.2653	2.64187
0.28563	2.72431
0.30713	2.78758
0.31141	2.89668
0.32547	2.85689
0.33125	2.97058
0.34738	2.92893
0.35281	3.03138
0.36521	2.99766
0.37337	3.10275
0.38559	3.05119
0.39409	3.17082
0.40538	3.11265
0.41498	3.24285
0.4255	3.17146
0.43544	3.30431
0.44572	3.23689
0.4561	3.36673
0.46655	3.29695
0.47639	3.43492
0.48738	3.37038
0.49729	3.49366
0.50739	3.42756
0.51629	3.5587
0.5264	3.49155
0.53867	3.6185
0.54757	3.55029
0.55835	3.6699
0.56833	3.61429
0.57965	3.73494
0.58841	3.67408
0.60001	3.79264
0.6093	3.73493
0.6205	3.85033
0.62899	3.80102
0.64206	3.91013
0.64853	3.86186
0.66161	3.97202
0.67037	3.91431
0.68251	4.02552
0.68952	3.96492
0.70279	4.08817
0.71017	4.01821
0.72366	4.13979
0.7305	4.08399
0.74356	4.19141
0.74977	4.14353
0.76514	4.24739
0.7708	4.20227
0.78644	4.30351
0.79075	4.25525
0.80598	4.36331
0.81124	4.30665
0.82688	4.41576
0.83038	4.38008
0.84713	4.47336
0.85112	4.42907
0.86811	4.52887
0.87184	4.48656
0.88848	4.57678
0.89151	4.53009
0.91005	4.64077
0.91207	4.60038
0.93027	4.68548
0.93197	4.64882
0.93316	4.64648
0.95014	4.70332
0.95303	4.75289
0.97166	4.77756
0.97423	4.80504
0.99167	4.83751
1.01029	4.89496
