Adsorption isotherm of Ethene on MIL-100(Fe)
DOI: 10.1002/chem.201502893
Article source: Figure 1
Adsorbate Ethene: InChIKey VGGSQFUCUMXWEO-UHFFFAOYSA-N
Kind: experiment
Temperature: 313 K
Tabular data in the source: 0
pressure (bar)	uptake (mmol/g)
0.00253	0.00951
0.02284	0.20934
0.04444	0.31258
0.05235	0.34144
0.0639	0.38362
0.07652	0.43469
0.08315	0.44912
0.10347	0.51239
0.10625	0.52016
0.12379	0.56789
0.12614	0.58121
0.14453	0.61894
0.1471	0.62893
0.16506	0.67222
0.16699	0.68332
0.18517	0.71884
0.1873	0.73105
0.2051	0.78454
0.21019	0.79599
0.2253	0.82418
0.22954	0.83475
0.24516	0.86206
0.24957	0.88144
0.26604	0.90787
0.26994	0.92637
0.28556	0.95104
0.29133	0.96513
0.30559	0.98979
0.31187	1.00741
0.32596	1.02767
0.33224	1.04441
0.34684	1.06026
0.35329	1.08317
0.36704	1.09462
0.374	1.12193
0.38571	1.13514
0.39454	1.15716
0.40659	1.17566
0.41491	1.1968
0.42696	1.21442
0.43511	1.2294
0.44716	1.23732
0.45615	1.26287
0.46719	1.27255
0.47669	1.29898
0.48756	1.30691
0.49774	1.33422
0.50776	1.33421
0.51794	1.36769
0.52813	1.37561
0.53831	1.3994
0.5485	1.40644
0.55953	1.42934
0.567	1.43375
0.57956	1.46194
0.58924	1.47074
0.6018	1.49453
0.60893	1.49628
0.62217	1.52535
0.62913	1.52359
0.64067	1.55795
0.64899	1.55618
0.66172	1.58966
0.66919	1.58965
0.68243	1.61431
0.68973	1.60902
0.70297	1.64162
0.70891	1.64426
0.72334	1.67245
0.72877	1.67597
0.74456	1.69887
0.74965	1.70503
0.76493	1.7297
0.77104	1.7341
0.78564	1.76141
0.79005	1.76493
0.80618	1.78959
0.80958	1.79399
0.82655	1.81778
0.8291	1.81954
0.84828	1.8442
0.84981	1.84684
0.86729	1.86974
0.86848	1.86974
0.88868	1.90497
0.89004	1.89704
0.91024	1.92346
0.91041	1.92385
0.93115	1.96126
0.93197	1.9613
0.95168	1.98789
0.95234	1.98071
0.97307	2.01508
0.97322	2.01529
0.99178	2.03505
1.012	2.0639
