Adsorption isotherm of Acetylene on MIL-100(Fe)
DOI: 10.1002/chem.201502893
Article source: Figure 1
Adsorbate Acetylene: InChIKey HSFWRNGVRCDJHI-UHFFFAOYSA-N
Kind: experiment
Temperature: 525 K
Tabular data in the source: 0
pressure (bar)	uptake (mmol/g)
0.00196	0.33887
0.02219	1.36019
0.02273	1.35766
0.04309	1.59377
0.04768	1.53343
0.06332	1.72057
0.076	1.69608
0.08315	1.81296
0.0845	1.82113
0.10243	1.82899
0.10459	1.91644
0.12213	1.91381
0.12509	1.99688
0.1429	2.00125
0.14532	2.08345
0.16332	2.08659
0.16638	2.16262
0.18372	2.1571
0.18711	2.23973
0.20394	2.23091
0.20734	2.30473
0.22246	2.30142
0.22824	2.36973
0.24523	2.36201
0.24931	2.43363
0.26494	2.4204
0.26936	2.49752
0.28516	2.47989
0.28992	2.55481
0.30691	2.53607
0.3115	2.61209
0.32713	2.59335
0.33172	2.66938
0.34752	2.64403
0.35211	2.72005
0.36418	2.6947
0.3725	2.76742
0.38525	2.73987
0.39357	2.8225
0.40632	2.79165
0.41465	2.87648
0.4262	2.84012
0.43538	2.92385
0.4471	2.8985
0.45594	2.97673
0.46843	2.92221
0.47657	3.01869
0.48802	2.96871
0.49669	3.06796
0.50761	3.00965
0.51767	3.1089
0.52763	3.05615
0.53897	3.14915
0.5485	3.09362
0.55899	3.19009
0.56788	3.14636
0.57997	3.22965
0.58875	3.18106
0.60031	3.27406
0.60834	3.22131
0.62097	3.3157
0.62793	3.27197
0.64174	3.35387
0.64741	3.3254
0.66208	3.3962
0.66786	3.35455
0.68274	3.43297
0.68766	3.3941
0.70351	3.476
0.71025	3.41977
0.72277	3.50861
0.73005	3.47807
0.74493	3.54817
0.74986	3.50791
0.76516	3.58356
0.77062	3.54816
0.78508	3.62797
0.79118	3.58355
0.80511	3.6564
0.80997	3.63541
0.82588	3.69225
0.82993	3.66514
0.84746	3.72897
0.85218	3.69748
0.86742	3.77094
0.87093	3.75082
0.88779	3.80503
0.89143	3.7753
0.90775	3.83651
0.91233	3.8094
0.92865	3.87148
0.93176	3.85136
0.94942	3.87584
0.95185	3.90557
0.97033	3.91519
0.97437	3.93705
0.9915	3.95978
1.0116	3.993
