Adsorption isotherm of Ethene on MIL-100(Fe)
DOI: 10.1002/chem.201502893
Article source: Figure 1
Adsorbate Ethene: InChIKey VGGSQFUCUMXWEO-UHFFFAOYSA-N
Kind: experiment
Temperature: 293 K
Tabular data in the source: 0
pressure (bar)	uptake (mmol/g)
0.00221	0.01597
0.02209	0.38225
0.0265	0.42721
0.04315	0.55285
0.04892	0.58592
0.06319	0.68644
0.07508	0.74728
0.08459	0.79622
0.10276	0.88617
0.10428	0.89939
0.12211	0.96686
0.12517	0.98009
0.14211	1.06115
0.14554	1.07532
0.16304	1.15007
0.16686	1.16462
0.18359	1.2182
0.18783	1.23804
0.20456	1.29692
0.20855	1.32733
0.22451	1.36703
0.22901	1.38423
0.24472	1.4279
0.24956	1.45104
0.26405	1.49964
0.26958	1.51329
0.28534	1.55845
0.29033	1.5763
0.30543	1.62985
0.31122	1.64665
0.32605	1.68236
0.33198	1.70441
0.34667	1.73698
0.35327	1.76008
0.3654	1.79998
0.37322	1.82203
0.38533	1.86054
0.39297	1.88105
0.40538	1.91461
0.41437	1.93795
0.42656	1.9613
0.43544	1.99547
0.44699	2.02131
0.45566	2.06048
0.46721	2.07466
0.47631	2.10717
0.48644	2.1245
0.49702	2.15601
0.50672	2.18069
0.5173	2.21009
0.52768	2.23268
0.53738	2.27153
0.54796	2.28834
0.55834	2.31145
0.5673	2.33508
0.57896	2.37131
0.58809	2.38893
0.59965	2.41977
0.60778	2.43728
0.62018	2.47062
0.6281	2.49146
0.63997	2.51481
0.64875	2.53232
0.66169	2.56649
0.66896	2.58816
0.68202	2.62151
0.68972	2.64235
0.70266	2.67069
0.71026	2.6857
0.72288	2.71405
0.7294	2.73155
0.74481	2.77293
0.75042	2.78352
0.76383	2.81
0.76961	2.83381
0.7854	2.86028
0.79117	2.87616
0.80544	2.90131
0.80934	2.93305
0.82803	2.97664
0.8291	2.97664
0.84772	3.01499
0.84879	3.01833
0.86761	3.05335
0.86911	3.05835
0.8888	3.10337
0.89072	3.1067
0.9104	3.15339
0.91319	3.16172
0.93051	3.20674
0.93458	3.21507
0.95276	3.24343
0.97309	3.29178
0.97523	3.29512
0.99149	3.34346
1.01139	3.36849
