Adsorption isotherm of Acetylene on MIL-100(Fe)
DOI: 10.1002/chem.201502893
Article source: Figure 1
Adsorbate Acetylene: InChIKey HSFWRNGVRCDJHI-UHFFFAOYSA-N
Kind: experiment
Temperature: 313 K
Tabular data in the source: 0
pressure (bar)	uptake (mmol/g)
0.00295	0.01042
0.00564	0.08451
0.02311	0.55603
0.025	0.49027
0.04492	0.78689
0.046	0.72252
0.06376	0.95758
0.07454	0.93239
0.08262	0.97996
0.08557	1.08909
0.10389	1.19158
0.10496	1.20382
0.12382	1.20521
0.12597	1.29895
0.14456	1.29055
0.14697	1.38849
0.16476	1.37589
0.16744	1.47663
0.18576	1.46263
0.18845	1.55917
0.20597	1.52908
0.20906	1.62492
0.22522	1.59133
0.22939	1.68717
0.24435	1.65358
0.25013	1.74593
0.26549	1.71514
0.27154	1.81168
0.28583	1.7585
0.28973	1.85854
0.3067	1.82775
0.31289	1.918
0.32596	1.86692
0.33363	1.96906
0.34643	1.91378
0.35329	2.01732
0.36623	1.96344
0.37404	2.06698
0.38657	2.00681
0.39478	2.11804
0.40596	2.05157
0.4139	2.1614
0.42616	2.10403
0.43559	2.20547
0.44516	2.1432
0.457	2.24883
0.46657	2.18096
0.47572	2.2873
0.48772	2.22712
0.49754	2.33346
0.50765	2.26769
0.51774	2.37053
0.52799	2.30546
0.53822	2.41389
0.54846	2.34253
0.56031	2.45166
0.56745	2.38379
0.57876	2.48593
0.58833	2.41456
0.5995	2.5188
0.60718	2.47262
0.62011	2.55307
0.62739	2.50619
0.64125	2.59223
0.64759	2.54186
0.662	2.6293
0.66927	2.57683
0.68153	2.66007
0.68867	2.61179
0.70348	2.69504
0.70995	2.64816
0.72409	2.73211
0.72908	2.68383
0.74429	2.77547
0.75049	2.7195
0.76395	2.80764
0.7711	2.74957
0.78402	2.83492
0.79144	2.78104
0.80571	2.87128
0.80989	2.82231
0.82551	2.89926
0.83198	2.85728
0.84841	2.93772
0.85137	2.89015
0.86753	2.9643
0.87104	2.92302
0.88774	2.99087
0.89232	2.96428
0.90834	3.02794
0.91185	2.98666
0.93111	3.05591
0.93259	3.01183
0.95118	3.08108
0.95279	3.0538
0.97017	3.07897
0.97286	3.11815
0.99185	3.13143
1.01004	3.1685
