Adsorption isotherm of Ethane on MIL-100(Fe)
DOI: 10.1002/chem.201502893
Article source: Figure 1
Adsorbate Ethane: InChIKey OTMSDBZUPAUEDD-UHFFFAOYSA-N
Kind: experiment
Temperature: 313 K
Tabular data in the source: 0
pressure (bar)	uptake (mmol/g)
0.02387	0.06899
0.0398	0.04844
0.04269	0.10619
0.06151	0.09509
0.06343	0.14339
0.0815	0.13562
0.08546	0.18837
0.10235	0.17227
0.10513	0.21947
0.12246	0.2067
0.12545	0.25612
0.14331	0.24334
0.14641	0.2961
0.16341	0.27944
0.16758	0.32997
0.18444	0.3202
0.18768	0.36828
0.20583	0.35546
0.20837	0.40217
0.22382	0.38807
0.22891	0.43391
0.24809	0.42333
0.24928	0.4674
0.26434	0.46046
0.26965	0.50354
0.28573	0.49489
0.29001	0.54056
0.30605	0.5282
0.31123	0.57846
0.32722	0.56152
0.33143	0.60667
0.34753	0.59039
0.35214	0.64193
0.36635	0.63704
0.37386	0.67895
0.38624	0.6648
0.39389	0.71333
0.4072	0.69923
0.41596	0.75035
0.42648	0.7239
0.43564	0.78208
0.44685	0.7574
0.45669	0.81734
0.46823	0.79794
0.47774	0.84907
0.48894	0.82615
0.49743	0.88433
0.50829	0.85612
0.51847	0.91782
0.52866	0.89138
0.53986	0.95132
0.5497	0.93016
0.55989	0.98129
0.56939	0.95661
0.58093	1.02007
0.58908	0.98657
0.60062	1.05356
0.60911	1.02536
0.62133	1.0853
0.63084	1.05356
0.64136	1.11703
0.65086	1.08706
0.66241	1.15229
0.67089	1.12584
0.68311	1.18402
0.69092	1.15405
0.70416	1.21928
0.71027	1.19283
0.72453	1.24748
0.73301	1.22457
0.74465	1.28227
0.75169	1.2563
0.76646	1.31448
0.77103	1.28803
0.78592	1.34335
0.79106	1.32329
0.80581	1.37778
0.81211	1.36031
0.82741	1.41109
0.83316	1.39028
0.84794	1.44441
0.85251	1.42554
0.86761	1.47551
0.8722	1.45022
0.88771	1.50771
0.89154	1.48547
0.91017	1.54547
0.91277	1.53249
0.93006	1.56879
0.93217	1.56187
0.95372	1.59125
0.95401	1.61099
0.97312	1.62344
0.97475	1.64209
0.99293	1.66541
1.01196	1.69873
