Adsorption isotherm of Ethene on MIL-100(Fe)
DOI: 10.1002/chem.201502893
Article source: Figure 1
Adsorbate Ethene: InChIKey VGGSQFUCUMXWEO-UHFFFAOYSA-N
Kind: experiment
Temperature: 313 K
Tabular data in the source: 0
pressure (bar)	uptake (mmol/g)
0.00472	0.04763
0.0232	0.2039
0.02361	0.20524
0.04397	0.30332
0.04977	0.32574
0.06366	0.37548
0.07661	0.42312
0.08335	0.44554
0.1025	0.51
0.1052	0.51561
0.12462	0.56746
0.12704	0.57727
0.14215	0.6109
0.14835	0.63052
0.16291	0.66695
0.1675	0.68517
0.18422	0.72161
0.18934	0.73142
0.20256	0.76085
0.20876	0.77486
0.22413	0.8029
0.22872	0.82812
0.24328	0.84634
0.25003	0.87156
0.26513	0.88559
0.27133	0.90941
0.28401	0.93183
0.29156	0.95566
0.3045	0.96828
0.31259	0.9935
0.32662	1.01453
0.33282	1.03554
0.34576	1.04536
0.35224	1.07479
0.3668	1.07901
0.37516	1.10423
0.38648	1.10984
0.39377	1.14347
0.4059	1.15049
0.41534	1.18552
0.42586	1.18833
0.43665	1.21776
0.44528	1.21497
0.45822	1.2514
0.46631	1.25421
0.47683	1.28364
0.48492	1.28365
0.50002	1.31868
0.50703	1.32009
0.51998	1.35092
0.52672	1.34953
0.53939	1.38036
0.54775	1.38457
0.55962	1.4084
0.5696	1.41821
0.58093	1.44484
0.58848	1.45045
0.60223	1.47848
0.60843	1.47849
0.62246	1.50932
0.6292	1.50933
0.64133	1.53596
0.64915	1.53456
0.66235	1.57028
0.66888	1.57084
0.68333	1.60088
0.68771	1.60032
0.70409	1.63314
0.71051	1.63537
0.72485	1.65873
0.73309	1.66097
0.74626	1.69267
0.75492	1.69212
0.7668	1.71604
0.77419	1.71604
0.78703	1.74663
0.79206	1.74719
0.80736	1.77667
0.81057	1.77779
0.82695	1.80894
0.8308	1.81061
0.84782	1.8362
0.85124	1.83898
0.86879	1.86346
0.87061	1.86457
0.89052	1.89795
0.8933	1.8974
0.9115	1.92855
0.93183	1.95303
0.93344	1.95414
0.9527	1.98418
0.97271	2.00366
0.97314	2.00922
0.99198	2.02869
1.01156	2.05762
