Adsorption isotherm of Methane on MIL-100(Fe)
DOI: 10.1002/chem.201502893
Article source: Figure 1
Adsorbate Methane: InChIKey VNWKTOKETHGBQD-UHFFFAOYSA-N
Kind: experiment
Temperature: 293 K
Tabular data in the source: 0
pressure (bar)	uptake (mmol/g)
0.01415	0.02344
0.03447	0.03505
0.04988	0.04667
0.06528	0.0533
0.08261	0.0566
0.10251	0.06655
0.12455	0.07316
0.14659	0.08311
0.16627	0.08473
0.18403	0.08969
0.20393	0.08632
0.22469	0.0896
0.2463	0.10455
0.26855	0.10616
0.29144	0.11944
0.31091	0.12939
0.33317	0.13767
0.35435	0.14595
0.37318	0.15424
0.39369	0.1679
0.41457	0.18108
0.43631	0.18367
0.4482	0.19687
0.46111	0.19948
0.47962	0.20473
0.49677	0.20998
0.51969	0.22579
0.54194	0.23764
0.563	0.24156
0.57152	0.25707
0.58478	0.2637
0.6034	0.25866
0.62501	0.27527
0.64384	0.28023
0.66566	0.28185
0.68321	0.28847
0.70289	0.30675
0.72365	0.31503
0.7444	0.31998
0.76611	0.33894
0.78767	0.34815
0.78903	0.35608
0.80567	0.36001
0.80992	0.36925
0.82588	0.37186
0.83437	0.38242
0.84864	0.389
0.86851	0.40085
0.89126	0.40212
0.90926	0.41663
0.931	0.43112
0.95172	0.44165
0.97074	0.44557
0.99248	0.45346
1.01489	0.46002
