Adsorption isotherm of Carbon Dioxide on [PbL2]*DMF*2H2O
DOI: 10.1039/C2dt30935a
Adsorbate Carbon Dioxide: InChIKey CURLTUGMZLYLDI-UHFFFAOYSA-N
Temperature: 273 K
Tabular data in the source: 0
pressure (bar)	uptake (cm3(STP)/g)
0.0198618	-1.1658
0.0846514	2.23957
0.126148	3.35083
0.205822	5.53927
0.288837	8.44696
0.37842	9.36733
0.458095	11.5558
0.497909	11.9648
0.615739	14.5453
0.702027	16.1167
0.778452	20.3266
0.87133	20.5959
0.990728	20.4527
