Adsorption isotherm of Water on [PbL2]*DMF*2H2O
DOI: 10.1039/C2dt30935a
Adsorbate Water: InChIKey XLYOFNOQVPJJNP-UHFFFAOYSA-N
Temperature: 298 K
Tabular data in the source: 0
pressure (bar)	uptake (cm3(STP)/g)
0.0200436	4.31552
0.032338	24.9898
0.0872875	31.7187
0.168689	35.9797
0.240024	36.7126
0.301541	41.4542
0.4493	46.3969
0.520657	47.815
0.600355	50.6886
0.694982	53.7156
0.794632	58.164
0.854422	60.8331
0.947368	63.1579
