Adsorption isotherm of Carbon Dioxide on [PbL2]*2DMF*6H2O
DOI: 10.1039/C2dt30935a
Adsorbate Carbon Dioxide: InChIKey CURLTUGMZLYLDI-UHFFFAOYSA-N
Temperature: 273 K
Tabular data in the source: 0
pressure (bar)	uptake (cm3(STP)/g)
0.0399736	5.20521
0.0765158	6.9505
0.132965	8.90033
0.187756	10.8331
0.267408	12.3364
0.342105	14.4737
0.425098	16.6962
0.501432	18.1654
0.597627	18.4688
0.702186	20.9129
0.750364	23.4626
0.844969	25.8045
0.947846	27.5464
