Adsorption isotherm of Water on [PbL2]*2DMF*6H2O
DOI: 10.1039/C2dt30935a
Adsorbate Water: InChIKey XLYOFNOQVPJJNP-UHFFFAOYSA-N
Temperature: 298 K
Tabular data in the source: 0
pressure (bar)	uptake (cm3(STP)/g)
0.0118853	8.34129
0.0804018	24.1137
0.17378	39.4566
0.3037	56.5449
0.353718	64.593
0.4518	71.7651
0.60499	90.4622
0.65719	114.286
0.705572	123.002
0.757772	146.826
0.808222	167.893
0.855968	207.424
0.94955	278.934
