Adsorption isotherm of Hydrogen on Rht-MOF
DOI: 10.1021/La100509g
Adsorbate Hydrogen: InChIKey UFHFLCQGNIYNRP-UHFFFAOYSA-N
Temperature: 77 K
Tabular data in the source: 0
pressure (bar)	uptake (wt%)
0.0912545	0.155436
0.0912545	0.679806
0.0912545	1.50569
0.528229	1.91207
0.965204	2.52821
3.80554	4.42905
10.2509	5.55644
20.0829	6.00216
30.1333	6.27745
40.1837	6.13325
50.0156	5.98905
