Adsorption isotherm of Hydrogen on Rht-MOF
DOI: 10.1021/La100509g
Adsorbate Hydrogen: InChIKey UFHFLCQGNIYNRP-UHFFFAOYSA-N
Temperature: 77 K
Tabular data in the source: 0
pressure (bar)	uptake (wt%)
0.0912545	0.69666
0.200498	0.17229
0.200498	1.29095
0.418986	1.7454
1.07445	2.58439
3.91478	4.55952
9.92319	5.9054
19.8644	6.72691
30.1333	7.28624
39.856	7.54842
49.7971	7.77565
