Adsorption isotherm of Hydrogen on Rht-MOF
DOI: 10.1021/La100509g
Adsorbate Hydrogen: InChIKey UFHFLCQGNIYNRP-UHFFFAOYSA-N
Temperature: 77 K
Tabular data in the source: 0
pressure (bar)	uptake (wt%)
0.00182509	0.00468097
0.0105646	0.217706
0.0367831	0.50174
0.0957747	0.818547
0.266195	1.33745
0.419136	1.65426
0.561153	1.90006
0.707539	2.0967
0.853926	2.26056
0.95443	2.36981
