Adsorption isotherm of Carbon Dioxide on Rht-MOF
DOI: 10.1021/La100509g
Adsorbate Carbon Dioxide: InChIKey CURLTUGMZLYLDI-UHFFFAOYSA-N
Temperature: 298 K
Tabular data in the source: 0
pressure (bar)	uptake (mmol/g)
0.0105646	0.0449449
0.102329	0.320239
0.198464	0.569315
0.399472	1.17234
0.600481	1.71637
0.799304	2.21452
1.00031	2.86999
