Adsorption isotherm of Hydrogen on Rht-MOF
DOI: 10.1021/La100509g
Adsorbate Hydrogen: InChIKey UFHFLCQGNIYNRP-UHFFFAOYSA-N
Temperature: 77 K
Tabular data in the source: 0
pressure (bar)	uptake (wt%)
0.00837971	0.190395
0.0498923	0.468967
0.100144	0.687454
0.202833	1.00426
0.301153	1.27191
0.401657	1.51771
0.499976	1.72527
0.600481	1.90552
0.801489	2.23325
0.899808	2.36434
1.00031	2.51182
