Adsorption isotherm of Carbon Dioxide on Rht-MOF
DOI: 10.1021/La100509g
Adsorbate Carbon Dioxide: InChIKey CURLTUGMZLYLDI-UHFFFAOYSA-N
Temperature: 298 K
Tabular data in the source: 0
pressure (bar)	uptake (mmol/g)
0.200498	0.0468097
0.528229	1.13925
0.965204	2.88715
3.15008	7.63925
6.09966	12.7191
10.1417	16.7611
20.1921	21.0216
30.1333	22.9334
39.9652	23.5342
50.1249	24.2443
