Adsorption isotherm of P-Xylene, Water, Toluene on spectrogel (type c)
DOI: 10.1002/cjce.22748
Article source: Figure 5
Adsorbate P-Xylene: InChIKey URLKBWYHVLBVBO-UHFFFAOYSA-N
Adsorbate Water: InChIKey XLYOFNOQVPJJNP-UHFFFAOYSA-N
Adsorbate Toluene: InChIKey YXFVVABEGXRONW-UHFFFAOYSA-N
Kind: experiment
Temperature: 298 K
Tabular data in the source: 0
pressure (bar)	P-Xylene fraction	P-Xylene uptake (mmol/g)	Water fraction	Water uptake (mmol/g)	Toluene fraction	Toluene uptake (mmol/g)	total uptake (mmol/g)
1.01325	8.9e-05	0.000118			8.9e-05	0.000118	
1.01325	0.014232	0.012528			0.060479	0.016433	
1.01325	0.045162	0.031615			0.102287	0.03759	
1.01325	0.058408	0.048131			0.161781	0.054288	
1.01325	0.087948	0.072093			0.208468	0.078843	
