Adsorption isotherm of Water, Toluene on spectrogel (type c)
DOI: 10.1002/cjce.22748
Article source: Figure 6
Adsorbate Water: InChIKey XLYOFNOQVPJJNP-UHFFFAOYSA-N
Adsorbate Toluene: InChIKey YXFVVABEGXRONW-UHFFFAOYSA-N
Kind: experiment
Temperature: 298 K
Tabular data in the source: 0
pressure (bar)	Water fraction	Water uptake (mmol/g)	Toluene fraction	Toluene uptake (mmol/g)	total uptake (mmol/g)
1.01325			0.085184	0.015031	
1.01325			0.113221	0.031585	
1.01325			0.163277	0.054969	
1.01325			0.216878	0.086571	
