Adsorption isotherm of P-Xylene, Water on spectrogel (type c)
DOI: 10.1002/cjce.22748
Article source: Figure 6
Adsorbate P-Xylene: InChIKey URLKBWYHVLBVBO-UHFFFAOYSA-N
Adsorbate Water: InChIKey XLYOFNOQVPJJNP-UHFFFAOYSA-N
Kind: experiment
Temperature: 298 K
Tabular data in the source: 0
pressure (bar)	P-Xylene fraction	P-Xylene uptake (mmol/g)	Water fraction	Water uptake (mmol/g)	total uptake (mmol/g)
1.01325	0.038449	0.017307			
1.01325	0.04873	0.032561			
1.01325	0.056995	0.05111			
