Adsorption isotherm of Benzene, Water, Toluene on spectrogel (type c)
DOI: 10.1002/cjce.22748
Article source: Figure 5
Adsorbate Benzene: InChIKey UHOVQNZJYSORNB-UHFFFAOYSA-N
Adsorbate Water: InChIKey XLYOFNOQVPJJNP-UHFFFAOYSA-N
Adsorbate Toluene: InChIKey YXFVVABEGXRONW-UHFFFAOYSA-N
Kind: experiment
Temperature: 298 K
Tabular data in the source: 0
pressure (bar)	Benzene fraction	Benzene uptake (mmol/g)	Water fraction	Water uptake (mmol/g)	Toluene fraction	Toluene uptake (mmol/g)	total uptake (mmol/g)
1.01325	0.00018	9.7e-05			0.00018	9.7e-05	
1.01325	0.06619	0.014651			0.05771	0.020275	
1.01325	0.16291	0.027782			0.11532	0.037147	
1.01325	0.21865	0.039368			0.16544	0.059063	
1.01325	0.35511	0.055636			0.2569	0.080883	
