Adsorption isotherm of Benzene, P-Xylene, Water on spectrogel (type c)
DOI: 10.1002/cjce.22748
Article source: Figure 5
Adsorbate Benzene: InChIKey UHOVQNZJYSORNB-UHFFFAOYSA-N
Adsorbate P-Xylene: InChIKey URLKBWYHVLBVBO-UHFFFAOYSA-N
Adsorbate Water: InChIKey XLYOFNOQVPJJNP-UHFFFAOYSA-N
Kind: experiment
Temperature: 298 K
Tabular data in the source: 0
pressure (bar)	Benzene fraction	Benzene uptake (mmol/g)	P-Xylene fraction	P-Xylene uptake (mmol/g)	Water fraction	Water uptake (mmol/g)	total uptake (mmol/g)
1.01325	0.00027	5.9e-05	0.00027	5.9e-05			
1.01325	0.08281	0.01225	0.03483	0.018077			
1.01325	0.17914	0.02393	0.05246	0.037196			
1.01325	0.26562	0.034999	0.05891	0.049916			
1.01325	0.36526	0.045045	0.07278	0.072403			
