Adsorption isotherm of Benzene, Water on spectrogel (type c)
DOI: 10.1002/cjce.22748
Article source: Figure 6
Adsorbate Benzene: InChIKey UHOVQNZJYSORNB-UHFFFAOYSA-N
Adsorbate Water: InChIKey XLYOFNOQVPJJNP-UHFFFAOYSA-N
Kind: experiment
Temperature: 298 K
Tabular data in the source: 0
pressure (bar)	Benzene fraction	Benzene uptake (mmol/g)	Water fraction	Water uptake (mmol/g)	total uptake (mmol/g)
1.01325	0.06978	0.009687			
1.01325	0.14346	0.033598			
1.01325	0.26872	0.055852			
1.01325	0.47713	0.07589			
