Adsorption isotherm of Carbon Dioxide on Polyvinylamine adsorbent
DOI: 10.1021/acs.iecr.7b00862
Article source: Figure 13
Adsorbate Carbon Dioxide: InChIKey CURLTUGMZLYLDI-UHFFFAOYSA-N
Kind: experiment
Temperature: 298 K
Tabular data in the source: 0
pressure (bar)	uptake (mg/g)
0.00244	0.636
0.20099	33.427
0.41063	41.994
0.59063	44.243
0.80061	47.402
1.00027	48.654
