Adsorption isotherm of Carbon Dioxide on Polyvinylamine adsorbent
DOI: 10.1021/acs.iecr.7b00862
Article source: Figure 13
Adsorbate Carbon Dioxide: InChIKey CURLTUGMZLYLDI-UHFFFAOYSA-N
Kind: experiment
Temperature: 328 K
Tabular data in the source: 0
pressure (bar)	uptake (mg/g)
0.00244	0.636
0.20035	20.542
0.41109	26.069
0.59053	28.243
0.80068	29.446
1.00091	30.424
