Adsorption isotherm of Carbon Dioxide on Polyvinylamine adsorbent
DOI: 10.1021/acs.iecr.7b00862
Article source: Figure 12
Adsorbate Carbon Dioxide: InChIKey CURLTUGMZLYLDI-UHFFFAOYSA-N
Kind: experiment
Temperature: 298 K
Tabular data in the source: 0
pressure (bar)	uptake (mg/g)
0.00235	0.762
0.20026	10.62
0.40969	15.219
0.59077	16.354
0.80077	17.217
1.00022	18.28
