Adsorption isotherm of Carbon Dioxide on Polyvinylamine adsorbent
DOI: 10.1021/acs.iecr.7b00862
Article source: Figure 13
Adsorbate Carbon Dioxide: InChIKey CURLTUGMZLYLDI-UHFFFAOYSA-N
Kind: experiment
Temperature: 303 K
Tabular data in the source: 0
pressure (bar)	uptake (mg/g)
0.00244	0.636
0.19982	26.91
0.41039	34.405
0.58983	36.778
0.80018	38.268
1.0004	39.209
