Adsorption isotherm of Carbon Dioxide on Polyvinylamine adsorbent
DOI: 10.1021/acs.iecr.7b00862
Article source: Figure 12
Adsorbate Carbon Dioxide: InChIKey CURLTUGMZLYLDI-UHFFFAOYSA-N
Kind: experiment
Temperature: 298 K
Tabular data in the source: 0
pressure (bar)	uptake (mg/g)
0.00235	0.762
0.19873	19.243
0.41012	26.889
0.59004	29.519
0.80101	31.588
1.00085	32.58
