Adsorption isotherm of Ethane on Zeolite ITQ-29
DOI: 10.1007/s10450-008-9140-y
Adsorbate Ethane: InChIKey OTMSDBZUPAUEDD-UHFFFAOYSA-N
Temperature: 301 K
Tabular data in the source: 0
pressure (bar)	uptake (molecules/unitcell)
0.0881033	2.21499
0.118136	3.93116
0.168191	5.69023
0.236838	7.10607
0.334088	9.50872
0.467091	13.7562
0.711646	16.2876
0.934748	19.7199
1.01484	20.3206
