Adsorption isotherm of N-propane on Zeolite ITQ-29
DOI: 10.1007/s10450-008-9140-y
Adsorbate N-propane: InChIKey ATUOYWHBWRKTHZ-UHFFFAOYSA-N
Temperature: 301 K
Tabular data in the source: 0
pressure (bar)	uptake (molecules/unitcell)
0.0523498	7.70674
0.0938239	11.611
0.182493	15.7298
0.361261	20.6209
0.505705	22.8949
0.714506	23.281
1.01055	24.6968
