Adsorption isotherm of Ethane on Zeolite ITQ-29
DOI: 10.1007/s10450-008-9140-y
Adsorbate Ethane: InChIKey OTMSDBZUPAUEDD-UHFFFAOYSA-N
Temperature: 301 K
Tabular data in the source: 0
pressure (bar)	uptake (molecules/unitcell)
0.095254	2.55822
0.122427	3.71664
0.168191	5.00376
0.239698	6.93446
0.335518	9.25129
0.471382	12.2975
0.717366	15.9015
0.934748	18.6044
1.01627	19.2909
