Adsorption isotherm of N-propane on Zeolite ITQ-29
DOI: 10.1007/s10450-008-9140-y
Adsorbate N-propane: InChIKey ATUOYWHBWRKTHZ-UHFFFAOYSA-N
Temperature: 301 K
Tabular data in the source: 0
pressure (bar)	uptake (molecules/unitcell)
0.0537799	7.27769
0.0995445	11.0533
0.185353	15.1721
0.362691	19.9345
0.504275	21.4361
0.715936	22.4229
1.01484	23.71
