Adsorption isotherm of Methane on Carbon
DOI: 10.1002/chem.201301806
Adsorbate Methane: InChIKey VNWKTOKETHGBQD-UHFFFAOYSA-N
Temperature: 273 K
Tabular data in the source: 0
pressure (bar)	uptake (cm3(STP)/g)
0.00421011	0.352875
0.102802	6.90217
0.22252	12.536
0.311252	16.3388
0.414069	20.1416
0.514069	23.7332
0.614069	27.3247
0.718295	30.212
0.816886	32.4655
0.905619	35.705
1.00703	38.2402
