Adsorption isotherm of Nitrogen on ZIF-8
DOI: 10.1002/chem.201301806
Adsorbate Nitrogen: InChIKey IJGRMHOSHXDMSA-UHFFFAOYSA-N
Temperature: 77 K
Tabular data in the source: 0
pressure (bar)	uptake (cm3(STP)/g)
0.00658518	865.598
0.00944547	1097.28
0.0137359	1231.71
0.0509196	1248.88
0.109555	1251.74
0.211096	1254.6
0.314066	1263.18
0.415606	1260.32
0.514286	1263.18
0.617256	1260.32
0.721657	1263.18
0.818906	1263.18
0.904715	1260.32
0.966211	1294.64
0.991954	1417.63
