Adsorption isotherm of Carbon Dioxide on Carbon
DOI: 10.1002/chem.201301806
Adsorbate Carbon Dioxide: InChIKey CURLTUGMZLYLDI-UHFFFAOYSA-N
Temperature: 298 K
Tabular data in the source: 0
pressure (bar)	uptake (cm3(STP)/g)
0.0492805	3.83221
0.108435	8.90263
0.211252	16.3392
0.305619	22.6491
0.408435	29.297
0.512661	35.2688
0.609844	40.3392
0.716886	45.635
0.812661	50.7054
0.911252	56.2266
0.952097	58.2547
1.0197	61.1843
