Adsorption isotherm of Carbon Dioxide on ZIF-8
DOI: 10.1002/chem.201301806
Adsorbate Carbon Dioxide: InChIKey CURLTUGMZLYLDI-UHFFFAOYSA-N
Temperature: 298 K
Tabular data in the source: 0
pressure (bar)	uptake (cm3(STP)/g)
0.0675904	1.23974
0.123928	1.97214
0.228154	3.77495
0.328154	5.07073
0.426745	6.47918
0.525337	7.97214
0.625337	9.57777
0.728154	11.4369
0.829562	13.0426
0.928154	14.5355
0.96759	15.3242
1.02393	16.282
