Adsorption isotherm of Carbon Dioxide on Carbon
DOI: 10.1002/chem.201301806
Adsorbate Carbon Dioxide: InChIKey CURLTUGMZLYLDI-UHFFFAOYSA-N
Temperature: 298 K
Tabular data in the source: 0
pressure (bar)	uptake (cm3(STP)/g)
0.0478721	6.64911
0.0999848	11.8322
0.20421	20.7336
0.309844	28.5083
0.409844	34.9308
0.514069	41.2407
0.607027	47.4378
0.718295	52.3956
0.809844	58.8181
0.911252	63.4378
0.961957	65.9167
1.01829	68.959
