Adsorption isotherm of Carbon Dioxide on Carbon
DOI: 10.1002/chem.201301806
Adsorbate Carbon Dioxide: InChIKey CURLTUGMZLYLDI-UHFFFAOYSA-N
Temperature: 298 K
Tabular data in the source: 0
pressure (bar)	uptake (cm3(STP)/g)
0.0380129	5.40967
0.0971678	10.7054
0.20421	18.9308
0.305619	26.0294
0.407027	32.9026
0.511252	39.2125
0.607027	44.7336
0.709844	50.7054
0.808435	56.1139
0.902802	61.1843
0.960548	63.4378
1.02815	66.9308
