Adsorption isotherm of Methane on Carbon
DOI: 10.1002/chem.201301806
Adsorbate Methane: InChIKey VNWKTOKETHGBQD-UHFFFAOYSA-N
Temperature: 273 K
Tabular data in the source: 0
pressure (bar)	uptake (cm3(STP)/g)
0.035196	1.55006
0.0830833	3.73316
0.114069	5.07118
0.211252	9.64865
0.318295	13.3106
0.421112	16.7613
0.525337	19.8599
0.619703	22.8881
0.712661	25.7754
0.814069	28.2402
0.902802	30.6346
1.01407	34.2261
