Adsorption isotherm of Carbon Dioxide on Carbon
DOI: 10.1002/chem.201301806
Adsorbate Carbon Dioxide: InChIKey CURLTUGMZLYLDI-UHFFFAOYSA-N
Temperature: 298 K
Tabular data in the source: 0
pressure (bar)	uptake (cm3(STP)/g)
0.00139321	3.35425
0.0464636	10.65
0.0732242	14.5937
0.0957594	18.143
0.198576	34.1148
0.298576	45.5514
0.40421	57.974
0.50421	69.805
0.601393	79.6641
0.711252	90.312
0.811252	99.5796
0.912661	111.016
1.01548	118.706
