Adsorption isotherm of Carbon Dioxide on Carbon
DOI: 10.1002/chem.201301806
Adsorbate Carbon Dioxide: InChIKey CURLTUGMZLYLDI-UHFFFAOYSA-N
Temperature: 298 K
Tabular data in the source: 0
pressure (bar)	uptake (cm3(STP)/g)
0.0520974	4.17023
0.102802	8.22657
0.225337	16.3392
0.318295	22.6491
0.409844	28.6209
0.512661	34.1421
0.612661	39.4378
0.714069	44.7336
0.809844	49.2407
0.911252	54.1984
0.952097	56.1139
1.0197	59.4942
