Adsorption isotherm of Carbon Dioxide on Carbon
DOI: 10.1002/chem.201301806
Adsorbate Carbon Dioxide: InChIKey CURLTUGMZLYLDI-UHFFFAOYSA-N
Temperature: 298 K
Tabular data in the source: 0
pressure (bar)	uptake (cm3(STP)/g)
0.0478721	9.57868
0.112661	16.4519
0.221112	26.1421
0.318295	33.2407
0.425337	38.9871
0.52252	44.2829
0.629562	49.3533
0.721112	53.297
0.828154	57.128
0.926745	61.1843
0.964773	62.1984
1.02956	64.2266
