Adsorption isotherm of Nitrogen on Carbon
DOI: 10.1002/chem.201301806
Adsorbate Nitrogen: InChIKey IJGRMHOSHXDMSA-UHFFFAOYSA-N
Temperature: 77 K
Tabular data in the source: 0
pressure (bar)	uptake (cm3(STP)/g)
0.00658518	7.51171
0.0108756	611.032
0.0366182	699.701
0.108125	782.649
0.148169	805.531
0.212526	834.134
0.309776	857.017
0.408455	874.178
0.514286	899.921
0.612966	919.943
0.707355	922.803
0.813186	934.244
0.904715	948.546
0.961921	974.288
0.989093	1100.14
