Adsorption isotherm of Methane on Carbon
DOI: 10.1002/chem.201301806
Adsorbate Methane: InChIKey VNWKTOKETHGBQD-UHFFFAOYSA-N
Temperature: 273 K
Tabular data in the source: 0
pressure (bar)	uptake (cm3(STP)/g)
0.0182946	1.19795
0.10421	6.0571
0.211252	11.3388
0.308435	14.9303
0.415478	19.1557
0.516886	22.6768
0.615478	25.705
0.709844	28.3106
0.811252	31.4092
0.919703	34.0853
1.00703	36.6205
