Adsorption isotherm of Nitrogen on Carbon
DOI: 10.1002/chem.201301806
Adsorbate Nitrogen: InChIKey IJGRMHOSHXDMSA-UHFFFAOYSA-N
Temperature: 77 K
Tabular data in the source: 0
pressure (bar)	uptake (cm3(STP)/g)
0.00515504	1369.01
0.00944547	1626.43
0.0423388	1652.18
0.109555	1680.78
0.209665	1703.66
0.312636	1720.82
0.35983	1726.54
0.419897	1735.12
0.511426	1749.43
0.608675	1760.87
0.713076	1780.89
0.816046	1798.05
0.85466	1806.63
0.903285	1820.93
0.95906	1835.23
0.991954	1906.74
