Adsorption isotherm of Carbon Dioxide on Carbon
DOI: 10.1002/chem.201301806
Adsorbate Carbon Dioxide: InChIKey CURLTUGMZLYLDI-UHFFFAOYSA-N
Temperature: 298 K
Tabular data in the source: 0
pressure (bar)	uptake (cm3(STP)/g)
0.0014237	0.392232
0.02252	2.56551
0.0492805	4.93171
0.0985763	10.8472
0.198576	18.9317
0.305619	26.6219
0.402802	33.5233
0.508435	39.2416
0.611252	43.974
0.712661	49.2979
0.815478	52.65
0.915478	57.7768
1.01689	61.5233
