Adsorption isotherm of Carbon Dioxide on Carbon
DOI: 10.1002/chem.201301806
Adsorbate Carbon Dioxide: InChIKey CURLTUGMZLYLDI-UHFFFAOYSA-N
Temperature: 298 K
Tabular data in the source: 0
pressure (bar)	uptake (cm3(STP)/g)
0.00421011	3.35425
0.0478721	8.28382
0.101393	14.0021
0.197168	23.4669
0.301393	31.7486
0.398576	38.4528
0.499985	46.9317
0.607027	52.65
0.699985	57.5796
0.809844	63.1007
0.914069	70.1993
1.01125	74.9317
