Adsorption isotherm of Carbon Dioxide on Carbon
DOI: 10.1002/chem.201301806
Adsorbate Carbon Dioxide: InChIKey CURLTUGMZLYLDI-UHFFFAOYSA-N
Temperature: 298 K
Tabular data in the source: 0
pressure (bar)	uptake (cm3(STP)/g)
0.0549143	8.67728
0.111252	15.7759
0.22252	25.0153
0.318295	32.5646
0.425337	38.0857
0.519703	43.3815
0.626745	48.0012
0.723928	52.2829
0.825337	56.3392
0.923928	59.8322
0.970407	61.8604
1.03238	64.2266
