Adsorption isotherm of Carbon Dioxide on ZIF-8
DOI: 10.1002/chem.201301806
Adsorbate Carbon Dioxide: InChIKey CURLTUGMZLYLDI-UHFFFAOYSA-N
Temperature: 298 K
Tabular data in the source: 0
pressure (bar)	uptake (cm3(STP)/g)
0.0675904	1.23974
0.123928	1.97214
0.228154	3.77495
0.328154	5.07073
0.430971	6.50735
0.529562	8.08481
0.630971	9.71861
0.730971	11.2961
0.828154	12.6764
0.932379	14.3102
0.964773	14.8172
1.02956	16.0848
