Adsorption isotherm of Ethene on Zn3(BDC)3[Cu(SalPyCy)]*5DMF*4H2O Desolvated
DOI: 10.1038/Ncomms1206
Adsorbate Ethene: InChIKey VGGSQFUCUMXWEO-UHFFFAOYSA-N
Temperature: 195 K
Tabular data in the source: 0
pressure (bar)	uptake (cm3(STP)/g)
0.00784249	17.6991
0.015685	28.3186
0.03137	35.3982
0.0705824	47.7876
0.101952	56.6372
0.133322	61.9469
0.164692	67.2566
0.196062	69.0265
0.227432	72.5664
0.258802	77.8761
0.290172	81.4159
0.3137	84.9558
0.352912	92.0354
0.384282	97.3451
0.415652	100.885
0.447022	106.195
0.47055	107.965
0.509762	111.504
0.541132	115.044
0.572502	116.814
0.596029	118.584
0.635242	120.354
0.666612	123.894
0.697982	123.894
0.729352	125.664
0.752879	127.434
0.784249	129.204
0.831304	130.973
0.862674	130.973
0.909729	132.743
0.941099	134.513
0.964627	136.283
1.00384	134.513
