Adsorption isotherm of Acetylene on Zn3(CDC)3[Cu(SalPyCy)]*5DMF*4H2O Desolvated
DOI: 10.1038/Ncomms1206
Adsorbate Acetylene: InChIKey HSFWRNGVRCDJHI-UHFFFAOYSA-N
Temperature: 273 K
Tabular data in the source: 0
pressure (bar)	uptake (cm3(STP)/g)
0.00833266	0.00833266
0.0333306	13.1818
0.0749939	17.7273
0.0999919	20.4545
0.133323	22.2727
0.15832	24.0909
0.191651	25.9091
0.224982	27.2727
0.28331	29.5455
0.341639	30.9091
0.383302	32.2727
0.4083	32.7273
0.466629	34.0909
0.491627	35
0.53329	35.4545
0.566621	36.3636
0.624949	37.2727
0.69161	38.6364
0.749939	40
0.78327	40.4545
0.8166	40.9091
0.849931	42.2727
0.90826	42.7273
0.974921	43.1818
1.04158	44.5455
