Adsorption isotherm of Carbon Dioxide on Zn3(CDC)3[Cu(SalPyCy)]*5DMF*4H2O Desolvated
DOI: 10.1038/Ncomms1206
Adsorbate Carbon Dioxide: InChIKey CURLTUGMZLYLDI-UHFFFAOYSA-N
Temperature: 273 K
Tabular data in the source: 0
pressure (bar)	uptake (cm3(STP)/g)
0.00833266	0.909091
0.0666613	5.90909
0.12499	8.63636
0.174986	10
0.233314	11.8182
0.341639	13.6364
0.399968	14.5455
0.574953	16.3636
0.674945	17.7273
0.983253	20.4545
1.06658	20.4545
