Adsorption isotherm of Carbon Dioxide on Zn3(CDC)3[Cu(SalPyCy)]*5DMF*4H2O Desolvated
DOI: 10.1038/Ncomms1206
Adsorbate Carbon Dioxide: InChIKey CURLTUGMZLYLDI-UHFFFAOYSA-N
Temperature: 295 K
Tabular data in the source: 0
pressure (bar)	uptake (cm3(STP)/g)
0.0331054	1.35135
0.107799	3.15315
0.149312	4.05405
0.207491	4.95495
0.282334	5.85586
0.323848	6.75676
0.423614	8.10811
0.4902	8.55856
0.564969	9.90991
0.63163	9.90991
0.689809	10.8108
0.756395	11.2613
0.822906	12.1622
0.897825	12.6126
0.956003	13.5135
1.03925	13.964
