Adsorption isotherm of Ethene on Zn3(CDC)3[Cu(SalPyCy)]*5DMF*4H2O Desolvated
DOI: 10.1038/Ncomms1206
Adsorbate Ethene: InChIKey VGGSQFUCUMXWEO-UHFFFAOYSA-N
Temperature: 195 K
Tabular data in the source: 0
pressure (bar)	uptake (cm3(STP)/g)
0.108324	1.45833
0.149988	2.91667
0.249979	7.29167
0.28331	7.29167
0.316641	10.2083
0.366637	10.2083
0.4083	13.125
0.466628	14.5833
0.516624	16.0417
0.56662	17.5
0.599951	18.9583
0.658279	18.9583
0.699942	20.4167
0.749938	21.875
0.783269	23.3333
0.841597	24.7917
0.891593	27.7083
0.933257	29.1667
0.97492	29.1667
1.01658	30.625
