Adsorption isotherm of Acetylene on Zn3(CDC)3[Cu(SalPyCy)]*5DMF*4H2O Desolvated
DOI: 10.1038/Ncomms1206
Adsorbate Acetylene: InChIKey HSFWRNGVRCDJHI-UHFFFAOYSA-N
Temperature: 195 K
Tabular data in the source: 0
pressure (bar)	uptake (cm3(STP)/g)
0.00833265	1.45833
0.0583285	1.45833
0.116657	2.91667
0.15832	2.91667
0.183318	4.375
0.224981	4.375
0.299975	96.25
0.399967	115.208
0.433298	118.125
0.474961	121.042
0.508292	123.958
0.549955	126.875
0.591618	129.792
0.633281	131.25
0.658279	132.708
0.69161	135.625
0.733273	137.083
0.783269	137.083
0.8166	138.542
0.866595	141.458
0.916591	144.375
0.966587	145.833
0.991585	145.833
