Adsorption isotherm of Acetylene on Zn3(BDC)3[Cu(SalPyCy)]*5DMF*4H2O Desolvated
DOI: 10.1038/Ncomms1206
Adsorbate Acetylene: InChIKey HSFWRNGVRCDJHI-UHFFFAOYSA-N
Temperature: 295 K
Tabular data in the source: 0
pressure (bar)	uptake (cm3(STP)/g)
0.0181867	6.57147
0.0272427	9.63792
0.0621941	14.4481
0.0882393	17.069
0.131349	19.6828
0.165776	21.4231
0.191672	23.1668
0.226024	24.4685
0.25192	26.2122
0.294804	27.5104
0.312018	28.3805
0.346296	29.2436
0.389256	30.9803
0.406469	31.8504
0.457811	32.7065
0.509153	33.5626
0.569177	35.2923
0.620519	36.1483
0.663254	36.5694
0.706139	37.8675
0.740342	38.292
0.800216	39.1446
0.86009	39.9972
0.928496	40.8463
0.979838	41.7023
1.03971	42.5549
1.06538	42.9829
