Adsorption isotherm of Acetylene on Zn3(BDC)3[Cu(SalPyCy)]*5DMF*4H2O Desolvated
DOI: 10.1038/Ncomms1206
Adsorbate Acetylene: InChIKey HSFWRNGVRCDJHI-UHFFFAOYSA-N
Temperature: 195 K
Tabular data in the source: 0
pressure (bar)	uptake (cm3(STP)/g)
0.015685	0.015685
0.0392125	69.0265
0.0705824	86.7257
0.0941099	95.5752
0.12548	104.425
0.164692	115.044
0.196062	125.664
0.227432	136.283
0.258802	146.903
0.28233	148.673
0.3137	153.982
0.352912	155.752
0.40781	159.292
0.447022	162.832
0.47055	164.602
0.509762	164.602
0.541132	166.372
0.572502	168.142
0.596029	169.912
0.635242	171.681
0.690139	175.221
0.752879	180.531
0.815619	184.071
0.839147	185.841
0.878359	187.611
0.901887	187.611
0.956784	191.15
0.988154	192.92
1.01168	192.92
