Adsorption isotherm of Carbon Dioxide on Zn3(BDC)3[Cu(SalPyCy)]*5DMF*4H2O Desolvated
DOI: 10.1038/Ncomms1206
Adsorbate Carbon Dioxide: InChIKey CURLTUGMZLYLDI-UHFFFAOYSA-N
Temperature: 195 K
Tabular data in the source: 0
pressure (bar)	uptake (cm3(STP)/g)
2.22e-16	2.22e-16
0.0164756	57.7537
0.0247134	60.7046
0.0576646	69.5453
0.082378	73.9536
0.123567	79.8193
0.14828	84.2276
0.172994	87.1545
0.222421	91.5266
0.247134	94.4535
0.280085	98.8497
0.304799	104.74
0.33775	115.062
0.387177	125.36
0.395415	128.311
0.436604	134.176
0.461317	137.103
0.502506	140.006
0.543695	144.39
0.593122	145.799
0.650787	148.678
0.700213	150.087
0.766116	151.472
0.82378	152.87
0.897921	155.724
0.955585	155.64
0.996774	154.098
