Adsorption isotherm of Carbon Dioxide on Zn3(BDC)3[Cu(SalPyCy)]*5DMF*4H2O Desolvated
DOI: 10.1038/Ncomms1206
Adsorbate Carbon Dioxide: InChIKey CURLTUGMZLYLDI-UHFFFAOYSA-N
Temperature: 295 K
Tabular data in the source: 0
pressure (bar)	uptake (cm3(STP)/g)
0.00890625	2.18932
0.0349514	4.81019
0.0525394	7.87313
0.0954241	9.17129
0.121394	11.3536
0.181568	13.9604
0.215921	15.2621
0.258805	16.5602
0.30169	17.8584
0.34465	19.5951
0.41313	20.8827
0.464547	22.1774
0.515889	23.0335
0.584295	23.8825
0.644169	24.7351
0.695511	25.5912
0.738321	26.4508
0.815259	27.2963
0.909336	28.5734
0.977667	28.9839
1.04607	29.833
