Adsorption isotherm of Ethene on Zn3(CDC)3[Cu(SalPyCy)]*5DMF*4H2O Desolvated
DOI: 10.1038/Ncomms1206
Adsorbate Ethene: InChIKey VGGSQFUCUMXWEO-UHFFFAOYSA-N
Temperature: 295 K
Tabular data in the source: 0
pressure (bar)	uptake (cm3(STP)/g)
0.0995415	2.7027
0.174235	4.5045
0.232338	5.85586
0.340363	7.65766
0.440355	7.65766
0.556787	9.00901
0.640113	9.00901
0.698442	9.00901
0.748363	9.45946
0.823432	9.00901
0.915016	9.45946
0.956679	9.45946
0.998342	9.45946
1.04001	9.45946
