Adsorption isotherm of Acetylene on Zn3(CDC)3[Cu(SalPyCy)]*5DMF*4H2O Desolvated
DOI: 10.1038/Ncomms1206
Adsorbate Acetylene: InChIKey HSFWRNGVRCDJHI-UHFFFAOYSA-N
Temperature: 295 K
Tabular data in the source: 0
pressure (bar)	uptake (cm3(STP)/g)
0.00833266	3.18182
0.0166653	5.90909
0.0333306	10.4545
0.0666613	14.0909
0.0999919	16.3636
0.12499	18.6364
0.166653	20.9091
0.191651	22.2727
0.224982	23.6364
0.258312	25
0.291643	25.9091
0.316641	26.8182
0.349972	28.1818
0.383302	29.0909
0.4083	30
0.441631	30.4545
0.474961	31.3636
0.508292	32.2727
0.558288	33.6364
0.633282	35
0.69161	36.3636
0.749939	37.2727
0.824933	38.6364
0.866596	39.5455
0.916592	39.5455
0.974921	40.9091
1.04158	41.8182
