Adsorption isotherm of Acetylene on Zn3(BDC)3[Cu(SalPyCy)]*5DMF*4H2O Desolvated
DOI: 10.1038/Ncomms1206
Adsorbate Acetylene: InChIKey HSFWRNGVRCDJHI-UHFFFAOYSA-N
Temperature: 273 K
Tabular data in the source: 0
pressure (bar)	uptake (cm3(STP)/g)
0.0170653	10.7057
0.0255979	13.9157
0.0426632	17.1214
0.0682611	22.4657
0.093859	25.1314
0.12799	28.3286
0.16212	30.4543
0.187718	31.5129
0.221849	33.6386
0.255979	34.6929
0.298642	35.7429
0.315708	36.8057
0.349838	37.3243
0.383969	38.3786
0.418099	39.4329
0.443697	39.42
0.477828	40.4743
0.511958	40.9929
0.554622	41.5071
0.605817	42.5529
0.648481	43.0671
0.691144	43.5814
0.725274	44.1
0.785003	44.6057
0.836199	45.1157
0.895927	46.1571
0.964188	46.6586
1.01538	47.1686
1.06658	47.6786
