Adsorption isotherm of Carbon Dioxide on Zn3(BDC)3[Cu(SalPyCy)]*5DMF*4H2O Desolvated
DOI: 10.1038/Ncomms1206
Adsorbate Carbon Dioxide: InChIKey CURLTUGMZLYLDI-UHFFFAOYSA-N
Temperature: 273 K
Tabular data in the source: 0
pressure (bar)	uptake (cm3(STP)/g)
0.0170653	0.0170653
0.0341306	9.09
0.0682611	13.3586
0.093859	16.56
0.110924	18.6943
0.153588	20.28
0.187718	21.3343
0.213316	22.3929
0.255979	23.9786
0.307175	26.0957
0.358371	27.1414
0.401034	28.1914
0.45223	29.2371
0.511958	30.2786
0.554622	31.3286
0.631415	32.8971
0.708209	34.4657
0.750872	34.98
0.810601	35.4857
0.870329	35.9914
0.912992	37.0414
0.972721	37.5471
1.03245	38.5886
