Adsorption isotherm of Ethene on Zn3(CDC)3[Cu(SalPyCy)]*5DMF*4H2O Desolvated
DOI: 10.1038/Ncomms1206
Adsorbate Ethene: InChIKey VGGSQFUCUMXWEO-UHFFFAOYSA-N
Temperature: 273 K
Tabular data in the source: 0
pressure (bar)	uptake (cm3(STP)/g)
0.0333306	2.27273
0.0749939	3.63636
0.0916592	5
0.12499	5.90909
0.149988	6.81818
0.183318	7.72727
0.224982	8.18182
0.24998	9.09091
0.28331	9.54545
0.316641	10
0.349972	10.4545
0.4083	11.8182
0.466629	12.2727
0.499959	13.1818
0.541623	13.1818
0.566621	13.6364
0.633282	14.0909
0.69161	14.5455
0.766604	15
0.8166	15.9091
0.833266	15.4545
0.883262	15.9091
0.90826	15.4545
1.04158	16.3636
