Adsorption isotherm of Carbon Dioxide on Zn3(CDC)3[Cu(SalPyCy)]*5DMF*4H2O Desolvated
DOI: 10.1038/Ncomms1206
Adsorbate Carbon Dioxide: InChIKey CURLTUGMZLYLDI-UHFFFAOYSA-N
Temperature: 195 K
Tabular data in the source: 0
pressure (bar)	uptake (cm3(STP)/g)
0.0241376	7.37212
0.0401032	14.7562
0.0808875	16.178
0.1135	17.6118
0.13794	19.0576
0.1788	18.9978
0.211337	21.9132
0.243873	24.8286
0.292829	26.2385
0.324988	36.5619
0.364183	69.0972
0.429407	71.9648
0.453772	74.8921
0.502804	74.8204
0.527168	77.7477
0.559932	76.2184
0.600641	79.1218
0.649597	80.5317
0.698629	80.46
0.739413	81.8819
0.796617	81.7982
0.845573	83.2081
0.886433	83.1484
0.943561	84.5463
0.984421	84.4866
1.01711	84.4388
1.06576	91.7751
