Adsorption isotherm of Ethene on Zn3(BDC)3[Cu(SalPyCy)]*5DMF*4H2O Desolvated
DOI: 10.1038/Ncomms1206
Adsorbate Ethene: InChIKey VGGSQFUCUMXWEO-UHFFFAOYSA-N
Temperature: 273 K
Tabular data in the source: 0
pressure (bar)	uptake (cm3(STP)/g)
0.0426632	10.6929
0.0767938	14.9614
0.119457	17.0829
0.153588	19.7443
0.187718	21.3343
0.238914	23.4514
0.273044	23.97
0.307175	25.56
0.349838	26.0743
0.401034	27.12
0.426632	27.6429
0.469295	28.1571
0.503426	28.6757
0.571687	29.7129
0.61435	29.6914
0.674079	30.1971
0.725274	31.2429
0.767938	31.2214
0.810601	30.6643
0.853264	31.1786
0.921525	31.68
0.981254	32.7214
1.02392	32.7
1.06658	32.6786
