Adsorption isotherm of Ethene on Zn3(BDC)3[Cu(SalPyCy)]*5DMF*4H2O Desolvated
DOI: 10.1038/Ncomms1206
Adsorbate Ethene: InChIKey VGGSQFUCUMXWEO-UHFFFAOYSA-N
Temperature: 295 K
Tabular data in the source: 0
pressure (bar)	uptake (cm3(STP)/g)
0.0609966	7.43106
0.0955738	10.0484
0.224453	15.2586
0.284476	16.9883
0.318754	17.8514
0.361639	19.1495
0.404374	19.5706
0.464323	20.8617
0.515665	21.7178
0.567007	22.5739
0.618348	23.4299
0.686829	24.7176
0.729564	25.1386
0.763842	26.0017
0.815109	26.4192
0.857844	26.8402
0.917643	27.2542
0.951921	28.1173
0.994656	28.5383
1.02871	28.0857
1.07144	28.5068
