Adsorption isotherm of Hydrogen on Zeolite LiA
DOI: 10.1002/Sia.1262
Adsorbate Hydrogen: InChIKey UFHFLCQGNIYNRP-UHFFFAOYSA-N
Temperature: 293 K
Tabular data in the source: 0
pressure (bar)	uptake (mmol/g)
0.160633	0.0026867
3.8647	0.118528
9.77119	0.298726
23.5864	0.779254
39.0033	1.30269
61.1276	2.07067
