Adsorption isotherm of Hydrogen on Zeolite Na-A
DOI: 10.1002/Sia.1262
Adsorbate Hydrogen: InChIKey UFHFLCQGNIYNRP-UHFFFAOYSA-N
Temperature: 293 K
Tabular data in the source: 0
pressure (bar)	uptake (mmol/g)
0.0605226	0.00589415
3.96481	0.161433
10.0715	0.375954
25.2882	0.93371
40.7052	1.48718
61.6282	2.22084
