Adsorption isotherm of Hydrogen on Zeolite KA
DOI: 10.1002/Sia.1262
Adsorbate Hydrogen: InChIKey UFHFLCQGNIYNRP-UHFFFAOYSA-N
Temperature: 293 K
Tabular data in the source: 0
pressure (bar)	uptake (mmol/g)
3.76459	0.157142
11.2728	0.453182
27.2904	1.09675
42.7074	1.67595
62.7294	2.43965
