Adsorption isotherm of Hydrogen on IRMOF-1
DOI: 10.1016/j.ijhydene.2015.05.097
Article source: Figure 2- Purewal et al
Adsorbate Hydrogen: InChIKey UFHFLCQGNIYNRP-UHFFFAOYSA-N
Kind: experiment
Isotherm type: excess
Temperature: 77 K
Tabular data in the source: 0
pressure (bar)	uptake (wt%)
2.9028	2.44495
6.6984	3.6746
11.4812	4.46447
13.9663	4.71959
