Adsorption isotherm of Hydrogen on IRMOF-1
DOI: 10.1016/j.ijhydene.2015.05.097
Article source: Figure 2- test bench point by point 358 gram sample
Adsorbate Hydrogen: InChIKey UFHFLCQGNIYNRP-UHFFFAOYSA-N
Kind: experiment
Isotherm type: excess
Temperature: 77 K
Tabular data in the source: 0
pressure (bar)	uptake (wt%)
3.4839	2.63162
6.3026	3.55661
10.4762	4.23316
14.2423	4.51505
