Adsorption isotherm of Hydrogen on IRMOF-1
DOI: 10.1016/j.ijhydene.2015.05.097
Article source: Figure 2- IRH lab scale less than 1 gram sample
Adsorbate Hydrogen: InChIKey UFHFLCQGNIYNRP-UHFFFAOYSA-N
Kind: experiment
Isotherm type: excess
Temperature: 77 K
Tabular data in the source: 0
pressure (bar)	uptake (wt%)
3.8367	2.93101
6.2376	3.43454
10.8082	4.3615
12.4322	4.41242
