Adsorption isotherm of Nitrogen on NU-110
DOI: 10.1021/Ja3055639
Adsorbate Nitrogen: InChIKey IJGRMHOSHXDMSA-UHFFFAOYSA-N
Temperature: 77 K
Tabular data in the source: 0
pressure (bar)	uptake (cm3(STP)/g)
0.00713753	169.485
0.049658	666.967
0.220567	1066.77
0.283978	1182.26
0.331665	1488.84
0.349353	1647.54
0.399204	2643.12
0.459059	2695.07
0.508325	2694.2
0.554079	2703.99
0.599857	2756.19
0.659693	2776.33
0.710719	2775.43
