Adsorption isotherm of Nitrogen on NU-109
DOI: 10.1021/Ja3055639
Adsorbate Nitrogen: InChIKey IJGRMHOSHXDMSA-UHFFFAOYSA-N
Temperature: 77 K
Tabular data in the source: 0
pressure (bar)	uptake (cm3(STP)/g)
0.00713753	169.485
0.0178811	487.317
0.0566961	666.843
0.0990177	825.106
0.176561	1035.75
0.231267	1310.4
0.261477	1818.7
0.279253	2125.81
0.30922	2220.69
0.35148	2272.94
0.402537	2325.04
0.455334	2345.31
0.504626	2386.84
0.566234	2428.16
0.611975	2416.75
0.666538	2447.59
0.708779	2468.04
