Adsorption isotherm of Nitrogen on [Co(2)(pyridine)2(H2O)]
DOI: 10.1039/B927499e
Adsorbate Nitrogen: InChIKey IJGRMHOSHXDMSA-UHFFFAOYSA-N
Temperature: 298 K
Tabular data in the source: 0
pressure (bar)	uptake (mmol/g)
0.247864	0.0132406
0.655707	0.00887083
1.2966	0.0176103
2.46187	0.0438288
4.29716	0.0787868
7.12293	0.135594
10.6479	0.279795
13.7941	0.384669
17.1151	0.563829
