Adsorption isotherm of Methane on [Co(2)(pyridine)2(H2O)]
DOI: 10.1039/B927499e
Adsorbate Methane: InChIKey VNWKTOKETHGBQD-UHFFFAOYSA-N
Temperature: 298 K
Tabular data in the source: 0
pressure (bar)	uptake (mmol/g)
0.342384	0.0908272
0.735661	0.130155
1.56591	0.22192
2.74575	0.326794
4.44995	0.464441
7.0281	0.582424
10.3491	0.772508
13.7575	0.956037
17.0785	1.14612
