Adsorption isotherm of Oxygen on [Co(2)(pyridine)2(H2O)]
DOI: 10.1039/B927499e
Adsorbate Oxygen: InChIKey MYMOFIZGZYHOMD-UHFFFAOYSA-N
Temperature: 298 K
Tabular data in the source: 0
pressure (bar)	uptake (mmol/g)
0.621825	0.0576506
1.30156	0.0693032
2.44741	0.0809559
4.23415	0.107174
7.06963	0.182917
10.4683	0.279051
13.5757	0.398491
17.1103	0.567455
