Adsorption isotherm of Nitrogen on [Co4(OH)2(2)3DMF2]
DOI: 10.1039/B927499e
Adsorbate Nitrogen: InChIKey IJGRMHOSHXDMSA-UHFFFAOYSA-N
Temperature: 298 K
Tabular data in the source: 0
pressure (bar)	uptake (mmol/g)
0.0439424	0.0219801
0.597444	0.0481986
1.41313	0.091896
2.52013	0.139963
4.38456	0.227358
7.03554	0.336602
10.4148	0.498283
13.6776	0.629375
17.1734	0.786686
