Adsorption isotherm of Carbon Dioxide on [Co(2)(pyridine)2(H2O)]
DOI: 10.1039/B927499e
Adsorbate Carbon Dioxide: InChIKey CURLTUGMZLYLDI-UHFFFAOYSA-N
Temperature: 298 K
Tabular data in the source: 0
pressure (bar)	uptake (mmol/g)
0.167594	0.169483
0.298687	0.287466
0.691964	0.444777
1.43482	0.680743
2.52726	0.942928
4.40625	1.24444
7.11549	1.49352
10.3928	1.72293
13.6701	1.95889
16.7726	2.18175
