Adsorption isotherm of Oxygen on [Co4(OH)2(2)3DMF2]
DOI: 10.1039/B927499e
Adsorbate Oxygen: InChIKey MYMOFIZGZYHOMD-UHFFFAOYSA-N
Temperature: 298 K
Tabular data in the source: 0
pressure (bar)	uptake (mmol/g)
0.335259	0.074417
0.71397	0.091896
1.384	0.139963
2.66579	0.236098
4.35543	0.323493
6.97728	0.445846
10.4439	0.625005
13.7067	0.795425
17.1734	0.952736
