Adsorption isotherm of Oxygen on [Co(2)(pyridine)2(H2O)]
DOI: 10.1039/B927499e
Adsorbate Oxygen: InChIKey MYMOFIZGZYHOMD-UHFFFAOYSA-N
Temperature: 298 K
Tabular data in the source: 0
pressure (bar)	uptake (mmol/g)
0.779359	0.0842726
1.39112	0.110491
2.61465	0.169483
4.36255	0.235029
6.9844	0.339903
10.3928	0.457886
13.8012	0.615197
17.2096	0.851163
