Adsorption isotherm of Nitrogen on [Co(2)(pyridine)2(H2O)]
DOI: 10.1039/B927499e
Adsorbate Nitrogen: InChIKey IJGRMHOSHXDMSA-UHFFFAOYSA-N
Temperature: 298 K
Tabular data in the source: 0
pressure (bar)	uptake (mmol/g)
0.298687	0.0383903
0.691964	0.0383903
1.52222	0.077718
2.74575	0.13671
4.44995	0.182592
6.9844	0.274357
10.2617	0.366121
13.6701	0.464441
17.0785	0.634861
