Adsorption isotherm of Carbon Dioxide on [Co(2)(pyridine)2(H2O)]
DOI: 10.1039/B927499e
Adsorbate Carbon Dioxide: InChIKey CURLTUGMZLYLDI-UHFFFAOYSA-N
Temperature: 298 K
Tabular data in the source: 0
pressure (bar)	uptake (mmol/g)
0.167594	0.110491
0.211292	0.189147
0.648266	0.313684
1.30373	0.503768
2.39617	0.706962
4.31885	0.962592
6.9844	1.27066
10.6113	1.50663
13.7138	1.73604
17.1222	1.99167
