Adsorption isotherm of Methane on [Co(2)(pyridine)2(H2O)]
DOI: 10.1039/B927499e
Adsorbate Methane: InChIKey VNWKTOKETHGBQD-UHFFFAOYSA-N
Temperature: 298 K
Tabular data in the source: 0
pressure (bar)	uptake (mmol/g)
1.30373	0.0842726
2.39617	0.130155
4.27516	0.189147
7.0718	0.267802
10.4802	0.418558
13.8886	0.588979
17.1659	0.772508
