Adsorption isotherm of Carbon Dioxide on [Co4(OH)2(2)3DMF2]
DOI: 10.1039/B927499e
Adsorbate Carbon Dioxide: InChIKey CURLTUGMZLYLDI-UHFFFAOYSA-N
Temperature: 298 K
Tabular data in the source: 0
pressure (bar)	uptake (mmol/g)
0.167594	0.156373
0.342384	0.274357
0.648266	0.464441
1.26003	0.746289
2.52726	1.14612
4.27516	1.56562
7.0718	1.98511
10.4802	2.28007
13.7138	2.51604
17.0348	2.79133
