Adsorption isotherm of Methane on [Co4(OH)2(2)3DMF2]
DOI: 10.1039/B927499e
Adsorbate Methane: InChIKey VNWKTOKETHGBQD-UHFFFAOYSA-N
Temperature: 298 K
Tabular data in the source: 0
pressure (bar)	uptake (mmol/g)
0.306127	0.091896
0.597444	0.148703
1.384	0.253577
2.60753	0.406518
4.3263	0.585678
6.97728	0.795425
10.4148	1.02702
13.6484	1.22366
17.1734	1.43778
