Adsorption isotherm of Oxygen on CuBTC
DOI: 10.1002/anie.201408464
Adsorbate Oxygen: InChIKey MYMOFIZGZYHOMD-UHFFFAOYSA-N
Temperature: 298 K
Tabular data in the source: 0
pressure (bar)	uptake (mmol/g)
2.99427	0.866667
4.71735	1.26667
7.61961	1.96667
10.6115	2.56667
15.0543	3.5
20.946	4.53333
27.562	5.6
30.2808	6.03333
