Adsorption isotherm of Oxygen on UiO-66
DOI: 10.1002/anie.201408464
Adsorbate Oxygen: InChIKey MYMOFIZGZYHOMD-UHFFFAOYSA-N
Temperature: 298 K
Tabular data in the source: 0
pressure (bar)	uptake (mmol/g)
1.90256	0.233333
4.16802	0.566667
7.24857	0.966667
10.4196	1.36667
17.667	2.2
25.5478	3.03333
30.4386	3.46667
