Adsorption isotherm of Oxygen on Norit SX ultra
DOI: 10.1002/anie.201408464
Adsorbate Oxygen: InChIKey MYMOFIZGZYHOMD-UHFFFAOYSA-N
Temperature: 298 K
Tabular data in the source: 0
pressure (bar)	uptake (mmol/g)
1.99668	0.633333
3.62926	1.03333
6.89321	1.7
9.97526	2.26667
17.7683	3.4
25.5596	4.33333
30.2709	4.93333
