Adsorption isotherm of Oxygen on Norit SX ultra
DOI: 10.1002/anie.201408464
Adsorbate Oxygen: InChIKey MYMOFIZGZYHOMD-UHFFFAOYSA-N
Temperature: 298 K
Tabular data in the source: 0
pressure (bar)	uptake (mmol/g)
3.37349	0.884615
11.1325	2
18.8916	2.73077
30.6988	3.42308
41.8313	3.92308
51.9518	4.23077
61.0602	4.42308
70.8434	4.61538
80.2892	4.69231
90.0723	4.80769
100.193	4.84615
109.976	4.84615
120.434	4.92308
130.554	4.92308
138.313	5.03846
141.687	5.07692
