Adsorption isotherm of Oxygen on NU-125
DOI: 10.1002/anie.201408464
Adsorbate Oxygen: InChIKey MYMOFIZGZYHOMD-UHFFFAOYSA-N
Temperature: 298 K
Tabular data in the source: 0
pressure (bar)	uptake (mmol/g)
1.90558	0.566667
3.90287	1.26667
7.16983	2.26667
9.89261	3.13333
17.5125	5.13333
24.7695	7.03333
30.0299	8.3
