Adsorption isotherm of Oxygen on CuBTC
DOI: 10.1002/anie.201408464
Adsorbate Oxygen: InChIKey MYMOFIZGZYHOMD-UHFFFAOYSA-N
Temperature: 298 K
Tabular data in the source: 0
pressure (bar)	uptake (mmol/g)
2.0241	0.615385
4.04819	1.11538
6.40964	1.61538
8.43373	2
13.8313	3
19.2289	3.92308
25.6386	4.73077
34.747	5.76923
42.1687	6.46154
47.2289	6.84615
51.2771	7.07692
54.988	7.34615
59.3735	7.61538
64.4337	7.88462
69.8313	8.03846
74.8916	8.30769
80.2892	8.42308
85.3494	8.53846
90.747	8.57692
95.4699	8.53846
100.193	8.65385
104.916	8.73077
109.639	8.73077
114.699	8.80769
120.096	8.80769
125.157	8.84615
130.217	8.80769
134.94	8.92308
140.337	8.84615
