Adsorption isotherm of Oxygen on NU-125
DOI: 10.1002/anie.201408464
Adsorbate Oxygen: InChIKey MYMOFIZGZYHOMD-UHFFFAOYSA-N
Temperature: 298 K
Tabular data in the source: 0
pressure (bar)	uptake (mmol/g)
19.2289	3.88462
34.747	5.46154
41.8313	6.65385
51.2771	7.46154
59.3735	8.11538
69.8313	8.61538
80.2892	9
90.747	9.34615
100.193	9.61538
109.976	9.73077
120.096	9.96154
130.217	10.0769
134.94	10.0385
140	10.1154
