Adsorption isotherm of Oxygen on Na-X
DOI: 10.1002/anie.201408464
Adsorbate Oxygen: InChIKey MYMOFIZGZYHOMD-UHFFFAOYSA-N
Temperature: 298 K
Tabular data in the source: 0
pressure (bar)	uptake (mmol/g)
0.996078	0.0666667
2.62685	0.266667
4.16682	0.433333
5.88748	0.566667
7.87994	0.733333
11.8646	1.03333
18.746	1.43333
30.4253	2
