Adsorption isotherm of Oxygen on Na-X
DOI: 10.1002/anie.201408464
Adsorbate Oxygen: InChIKey MYMOFIZGZYHOMD-UHFFFAOYSA-N
Temperature: 298 K
Tabular data in the source: 0
pressure (bar)	uptake (mmol/g)
1.01205	0.153846
3.03614	0.346154
5.73494	0.653846
19.9036	1.61538
30.0241	2.07692
40.1446	2.38462
49.5904	2.57692
59.7108	2.73077
69.494	2.84615
79.9518	2.92308
90.4096	2.96154
99.5181	2.96154
110.313	3
120.096	3
129.88	3.03846
136.627	3
