Adsorption isotherm of Hydrogen on Li-MOF-C16
DOI: 10.1021/Ja072599+
Adsorbate Hydrogen: InChIKey UFHFLCQGNIYNRP-UHFFFAOYSA-N
Temperature: 300 K
Tabular data in the source: 0
pressure (bar)	uptake (wt%)
1.05646	0.928881
4.98923	1.87275
9.57747	2.43644
19.8464	2.94771
29.4598	3.28855
39.7287	3.45897
49.3422	3.66871
99.5943	4.19308
