Adsorption isotherm of Hydrogen on MOF-C22
DOI: 10.1021/Ja072599+
Adsorbate Hydrogen: InChIKey UFHFLCQGNIYNRP-UHFFFAOYSA-N
Temperature: 300 K
Tabular data in the source: 0
pressure (bar)	uptake (wt%)
19.8464	0.234091
29.8968	0.352075
39.9472	0.456949
49.9976	0.535604
99.8128	0.928881
