Adsorption isotherm of Hydrogen on MOF-C10
DOI: 10.1021/Ja072599+
Adsorbate Hydrogen: InChIKey UFHFLCQGNIYNRP-UHFFFAOYSA-N
Temperature: 300 K
Tabular data in the source: 0
pressure (bar)	uptake (wt%)
19.8464	0.181654
29.6783	0.273419
39.9472	0.286528
49.5607	0.365184
100.031	0.692915
