Adsorption isotherm of Hydrogen on MOF-C6
DOI: 10.1021/Ja072599+
Adsorbate Hydrogen: InChIKey UFHFLCQGNIYNRP-UHFFFAOYSA-N
Temperature: 300 K
Tabular data in the source: 0
pressure (bar)	uptake (wt%)
1.49343	0.0243436
5.20772	0.0767806
10.4514	0.0767806
20.5018	0.155436
29.4598	0.194764
39.7287	0.26031
49.5607	0.325856
100.25	0.548713
