Adsorption isotherm of Hydrogen on Li-MOF-C22
DOI: 10.1021/Ja072599+
Adsorbate Hydrogen: InChIKey UFHFLCQGNIYNRP-UHFFFAOYSA-N
Temperature: 300 K
Tabular data in the source: 0
pressure (bar)	uptake (wt%)
0.837971	1.21728
4.98923	2.20048
9.79595	2.72485
19.8464	3.28855
29.6783	3.69493
39.7287	3.89157
49.5607	4.06199
99.8128	4.57325
