Adsorption isotherm of Hydrogen on Li-MOF-C10
DOI: 10.1021/Ja072599+
Adsorbate Hydrogen: InChIKey UFHFLCQGNIYNRP-UHFFFAOYSA-N
Temperature: 300 K
Tabular data in the source: 0
pressure (bar)	uptake (wt%)
0.837971	0.535604
4.33377	1.30905
9.57747	1.71544
19.4094	2.16115
30.1153	2.43644
40.1657	2.63308
50.2161	2.76418
99.5943	3.26233
