Adsorption isotherm of Hydrogen on MOF-C30
DOI: 10.1021/Ja072599+
Adsorbate Hydrogen: InChIKey UFHFLCQGNIYNRP-UHFFFAOYSA-N
Temperature: 300 K
Tabular data in the source: 0
pressure (bar)	uptake (wt%)
20.0649	0.247201
29.8968	0.391402
39.7287	0.509386
49.7791	0.588041
99.5943	0.994428
