Adsorption isotherm of Hydrogen on MOF-C16
DOI: 10.1021/Ja072599+
Adsorbate Hydrogen: InChIKey UFHFLCQGNIYNRP-UHFFFAOYSA-N
Temperature: 300 K
Tabular data in the source: 0
pressure (bar)	uptake (wt%)
19.8464	0.194764
29.2413	0.286528
40.1657	0.365184
50.2161	0.456949
99.8128	0.824007
