Adsorption isotherm of Hydrogen on Li-MOF-C6
DOI: 10.1021/Ja072599+
Adsorbate Hydrogen: InChIKey UFHFLCQGNIYNRP-UHFFFAOYSA-N
Temperature: 300 K
Tabular data in the source: 0
pressure (bar)	uptake (wt%)
0.619484	0.247201
4.55226	0.588041
9.35898	0.810898
19.6279	1.16485
30.3338	1.3746
39.5102	1.50569
49.9976	1.63678
99.3758	1.97762
