Adsorption isotherm of Hydrogen on Li-MOF-C30
DOI: 10.1021/Ja072599+
Adsorbate Hydrogen: InChIKey UFHFLCQGNIYNRP-UHFFFAOYSA-N
Temperature: 300 K
Tabular data in the source: 0
pressure (bar)	uptake (wt%)
1.05646	1.91207
4.55226	2.86905
9.57747	3.32787
19.8464	3.91779
30.1153	4.15376
39.5102	4.41594
49.5607	4.54703
100.031	5.16317
