Adsorption isotherm of Nitrogen on IRMOF-1
DOI: 10.1021/Cg101130m
Adsorbate Nitrogen: InChIKey IJGRMHOSHXDMSA-UHFFFAOYSA-N
Temperature: 77 K
Tabular data in the source: 0
pressure (bar)	uptake (cm3(STP)/g)
0.00465957	0.00465957
0.00931914	559.77
0.0279574	658.774
0.0582446	693.429
0.0722233	704.066
0.0955212	720.009
0.132798	730.518
0.163085	738.386
0.200361	743.538
0.246957	751.317
0.288893	759.121
0.342478	766.862
0.391404	774.627
0.43334	774.396
0.482265	776.805
0.53818	784.532
0.580116	786.98
0.636031	789.35
0.687286	789.067
0.717574	788.9
0.731552	791.502
0.768829	791.296
0.799116	793.808
0.843382	798.921
0.894637	803.995
0.927254	809.173
0.950552	819.758
0.957541	827.756
