Adsorption isotherm of Nitrogen on IRMOF-3
DOI: 10.1021/Cg101130m
Adsorbate Nitrogen: InChIKey IJGRMHOSHXDMSA-UHFFFAOYSA-N
Temperature: 77 K
Tabular data in the source: 0
pressure (bar)	uptake (cm3(STP)/g)
0.00516062	87.0308
0.00749325	89.6499
0.0143657	91.9898
0.0166921	94.333
0.0350019	99.8372
0.069126	101.054
0.0827581	100.769
0.103206	100.341
0.132734	99.3541
0.148642	99.2048
0.175894	98.082
0.200875	97.0988
0.246293	95.1355
0.29625	92.8931
0.343931	90.5145
0.389348	88.5512
0.437023	85.8967
0.48471	83.7938
0.532397	81.691
0.582348	79.1728
0.632298	76.6546
0.677722	74.9672
0.716329	73.4225
0.748127	72.2965
0.777667	71.8617
0.795846	71.573
0.816306	71.6964
0.836773	72.0957
0.848154	72.7772
0.859548	74.0105
0.875487	75.2406
0.88917	77.1619
0.905128	79.2195
0.914264	81.1441
0.92567	82.9291
0.932543	85.269
0.943942	86.7782
0.955355	88.8391
0.957687	91.4581
0.962302	94.4893
0.966911	97.2447
