Adsorption isotherm of Propene on MIL-100(Fe)
DOI: 10.1039/C1cp20502a
Adsorbate Propene: InChIKey QQONPFPTGQHPMA-UHFFFAOYSA-N
Temperature: 298 K
Tabular data in the source: 0
pressure (bar)	uptake (mmol/g)
7.22289e-06	0.0107363
1.62515e-05	0.0239502
3.06972e-05	0.0417038
4.87544e-05	0.0482967
6.86174e-05	0.0519952
9.20918e-05	0.051971
0.000112858	0.0519495
0.000135429	0.0519262
0.000156195	0.0519047
0.000178767	0.0518814
0.000200436	0.0522723
0.000246481	0.0522247
0.000293429	0.0521762
