Adsorption isotherm of Propene on MIL-100(Fe)
DOI: 10.1039/C1cp20502a
Adsorbate Propene: InChIKey QQONPFPTGQHPMA-UHFFFAOYSA-N
Temperature: 298 K
Tabular data in the source: 0
pressure (bar)	uptake (mmol/g)
8.10744e-06	0.0124393
1.62149e-05	0.0277792
3.15289e-05	0.061773
4.86447e-05	0.0812659
6.84629e-05	0.093303
9.18843e-05	0.0999571
0.000112603	0.109095
0.000135124	0.11409
0.000155843	0.119913
0.000180165	0.119938
0.000200885	0.119545
0.000246826	0.119593
0.000293669	0.119641
