Adsorption isotherm of Propene on MIL-100(Fe)
DOI: 10.1039/C1cp20502a
Adsorbate Propene: InChIKey QQONPFPTGQHPMA-UHFFFAOYSA-N
Temperature: 298 K
Tabular data in the source: 0
pressure (bar)	uptake (mmol/g)
1.81804e-06	0.0342528
2.72704e-06	0.0589134
5.4541e-06	0.0698817
9.09016e-06	0.0877024
1.36353e-05	0.116485
2.18163e-05	0.141171
3.18155e-05	0.163123
4.54508e-05	0.182347
7.36303e-05	0.204362
0.000107264	0.219545
0.000143624	0.231999
0.000180894	0.237606
0.000256343	0.250193
0.000376333	0.261563
