Adsorption isotherm of Propene on MIL-100(Fe)
DOI: 10.1039/C1cp20502a
Adsorbate Propene: InChIKey QQONPFPTGQHPMA-UHFFFAOYSA-N
Temperature: 298 K
Tabular data in the source: 0
pressure (bar)	uptake (mmol/g)
6.30579e-06	0.000420897
1.44132e-05	0.000843661
3.15289e-05	0.00251885
4.86447e-05	0.00916642
6.84629e-05	0.0158168
9.09835e-05	0.023713
0.000112603	0.0287078
0.000134224	0.0370175
0.000154942	0.0436688
0.000178364	0.0499085
0.000201785	0.0557339
0.000245925	0.06531
0.000292769	0.0777895
