Adsorption isotherm of Propene on MIL-100(Fe)
DOI: 10.1039/C1cp20502a
Adsorbate Propene: InChIKey QQONPFPTGQHPMA-UHFFFAOYSA-N
Temperature: 298 K
Tabular data in the source: 0
pressure (bar)	uptake (mmol/g)
7.20662e-06	0.00207929
1.62149e-05	0.00416044
3.15289e-05	0.0195078
4.86447e-05	0.0327852
6.7562e-05	0.0415065
9.09835e-05	0.0477462
0.000111703	0.0564693
0.000135124	0.0618803
0.000157644	0.0672904
0.000179264	0.0677272
0.000201785	0.0673361
0.000246826	0.0677971
0.000292769	0.0674304
