Adsorption isotherm of Propene on MIL-100(Fe)
DOI: 10.1039/C1cp20502a
Adsorbate Propene: InChIKey QQONPFPTGQHPMA-UHFFFAOYSA-N
Temperature: 298 K
Tabular data in the source: 0
pressure (bar)	uptake (mmol/g)
8.18114e-06	0.00276775
1.27262e-05	0.00552304
2.09073e-05	0.00829078
3.27246e-05	0.00970112
4.54508e-05	0.0152242
5.18139e-05	0.0166158
6.09041e-05	0.0180168
6.90853e-05	0.0194147
7.99934e-05	0.0221918
8.90836e-05	0.0235928
9.81738e-05	0.0249938
0.000112718	0.0264134
0.000121808	0.0278144
0.000129989	0.0305822
0.00013817	0.0306102
0.000149078	0.0333873
0.000158168	0.0334184
0.00016726	0.0348194
0.000176349	0.0362204
0.000187258	0.0376276
0.000196348	0.0390286
0.000205438	0.0404296
0.000213618	0.0418275
0.000222708	0.0432285
0.0002318	0.0446295
0.00024089	0.0460305
0.000249979	0.0460616
0.000256343	0.0460834
0.000261797	0.0488418
0.000270887	0.048873
0.000279977	0.050274
0.000289067	0.051675
0.000297249	0.0530729
0.000306339	0.0544738
0.000315429	0.054505
0.000324519	0.055906
0.000333609	0.057307
0.000341791	0.0587049
0.00035088	0.0601059
0.00035997	0.060137
0.00036906	0.0629078
0.000374515	0.0615567
