Adsorption isotherm of Propene on MIL-100(Fe)
DOI: 10.1039/C1cp20502a
Adsorbate Propene: InChIKey QQONPFPTGQHPMA-UHFFFAOYSA-N
Temperature: 298 K
Tabular data in the source: 0
pressure (bar)	uptake (mmol/g)
4.54508e-06	0.0712484
7.27214e-06	0.105504
9.09016e-06	0.130168
1.27262e-05	0.152098
1.99984e-05	0.171301
3.36336e-05	0.185047
4.72688e-05	0.196052
5.99951e-05	0.204315
7.45393e-05	0.211214
9.36287e-05	0.21128
0.000107264	0.211326
0.000113627	0.211348
0.000122717	0.211379
0.000131807	0.21141
0.000140898	0.211441
0.000143624	0.211451
0.000148169	0.211466
0.00015726	0.211498
0.00016635	0.211529
0.00017544	0.21156
0.000183621	0.212958
0.000186349	0.211597
0.000195439	0.211628
0.000204529	0.211659
0.000213618	0.211691
0.000222708	0.211722
0.0002318	0.211753
0.00024089	0.211784
0.000249979	0.211815
0.00025816	0.213213
0.000261797	0.211856
0.000270887	0.211887
0.000279977	0.211918
0.000289067	0.211949
0.000298157	0.21198
0.000307248	0.212011
0.000316338	0.212042
0.000325428	0.212073
0.000334518	0.212105
0.000343608	0.212136
0.000352698	0.212167
0.000361789	0.212198
0.000370879	0.212229
0.000374515	0.212242
