Adsorption isotherm of Propene on MIL-100(Fe)
DOI: 10.1039/C1cp20502a
Adsorbate Propene: InChIKey QQONPFPTGQHPMA-UHFFFAOYSA-N
Temperature: 298 K
Tabular data in the source: 0
pressure (bar)	uptake (mmol/g)
3.63606e-06	0.108232
7.27214e-06	0.163039
9.09016e-06	0.2151
1.09082e-05	0.238394
1.27262e-05	0.264427
1.63623e-05	0.291837
2.18163e-05	0.308294
2.72704e-05	0.33023
3.18155e-05	0.346684
3.99967e-05	0.36589
4.54508e-05	0.376868
5.4541e-05	0.391968
6.36312e-05	0.404328
7.45393e-05	0.416694
9.09016e-05	0.422229
0.000107264	0.429134
0.000122717	0.434667
0.000143624	0.438848
0.000181804	0.447198
0.000201802	0.451376
0.000223618	0.45556
0.000243616	0.456999
0.000257252	0.458415
0.000276341	0.46122
0.000303611	0.464054
0.000324519	0.465495
0.000343608	0.4683
0.000358152	0.46835
0.000367243	0.468381
0.000376333	0.471152
