Adsorption isotherm of Nitrogen on Mg-MOF-74(S)
DOI: 10.1039/C1ee02234b
Adsorbate Nitrogen: InChIKey IJGRMHOSHXDMSA-UHFFFAOYSA-N
Temperature: 77 K
Tabular data in the source: 0
pressure (bar)	uptake (ml/g)
0.00144339	296.299
0.00405133	331.657
0.00426455	375.428
0.0237995	385.561
0.0384548	394.003
0.0482059	395.703
0.101849	407.577
0.155468	414.4
0.206642	419.535
0.260244	422.991
0.308992	429.806
0.357722	433.254
0.404017	436.698
0.452756	441.83
0.503923	445.282
0.552662	450.413
0.606272	455.553
0.650148	462.36
0.667214	465.755
0.70621	470.87
0.715961	472.57
0.754957	477.685
0.767152	481.073
0.801277	486.18
0.815908	489.571
0.854912	496.37
0.87197	498.082
0.913386	499.834
0.954834	508.32
0.971892	510.032
0.984103	516.787
1.00604	520.19
