Adsorption isotherm of Nitrogen on Mg-MOF-74(C)
DOI: 10.1039/C1ee02234b
Adsorbate Nitrogen: InChIKey IJGRMHOSHXDMSA-UHFFFAOYSA-N
Temperature: 77 K
Tabular data in the source: 0
pressure (bar)	uptake (ml/g)
0.00161561	331.653
0.00654445	343.445
0.0212162	355.254
0.0358633	362.012
0.0553572	363.728
0.0821583	365.456
0.113847	370.56
0.135769	370.596
0.160134	372.32
0.182064	374.04
0.206429	375.764
0.228351	375.8
0.250272	375.837
0.272202	377.557
0.296559	377.597
0.320924	379.321
0.342846	379.358
0.367203	379.398
0.389141	382.801
0.411054	381.154
0.435419	382.878
0.459776	382.919
0.481706	384.639
0.508507	386.367
0.530429	386.403
0.554786	386.444
0.576699	384.797
0.601064	386.521
0.625422	386.561
0.647351	388.281
0.671708	388.321
0.696066	388.362
0.720423	388.402
0.742344	388.439
0.764274	390.159
0.788631	390.199
0.812996	391.923
0.83491	390.276
0.859275	392
0.883632	392.041
0.905562	393.76
0.929919	393.801
0.951857	397.204
0.976214	397.245
0.99816	402.332
1.01766	405.731
