Adsorption isotherm of Carbon Dioxide on Mg-MOF-74(S)
DOI: 10.1039/C1ee02234b
Adsorbate Carbon Dioxide: InChIKey CURLTUGMZLYLDI-UHFFFAOYSA-N
Temperature: 298 K
Tabular data in the source: 0
pressure (bar)	uptake (mmol/g)
0.59509	1.5699
1.33895	2.23743
1.48773	2.53801
1.93404	2.97194
2.08282	3.23911
2.23159	3.47286
2.52913	3.73987
3.273	4.07325
3.57054	4.30685
4.61195	4.63991
5.20704	4.94003
5.9509	5.07292
6.39722	5.23953
7.43863	5.33869
8.33127	5.47142
9.37268	5.60399
10.1165	5.80371
11.4555	5.86915
12.9432	6.00126
14.2822	6.13352
15.3236	6.19927
16.5138	6.26486
18.7454	6.39619
20.9769	6.52753
22.4647	6.59281
25.1426	6.72368
26.3328	6.82268
28.7131	6.92045
30.3496	6.98557
32.5812	7.01666
34.2177	7.14862
36.1517	7.18002
37.7882	7.24514
40.0198	7.30965
41.8051	7.40803
43.8879	7.47269
45.822	7.57092
47.756	7.5689
51.029	7.66574
54.4508	7.79583
57.4262	7.89298
60.4017	7.99012
63.8235	8.05339
