Adsorption isotherm of Carbon Dioxide on Mg-MOF-74(S)
DOI: 10.1039/C1ee02234b
Adsorbate Carbon Dioxide: InChIKey CURLTUGMZLYLDI-UHFFFAOYSA-N
Temperature: 273 K
Tabular data in the source: 0
pressure (bar)	uptake (mmol/g)
0.322162	2.93992
0.402703	2.50537
0.563784	3.40727
0.644325	3.74127
0.885947	5.01058
0.966487	4.27529
1.12757	5.17719
1.53027	5.41033
2.01352	5.74355
2.1746	5.8769
2.81892	6.07615
3.46325	6.2754
4.18811	6.44108
4.91298	6.60676
5.63784	6.73903
6.52379	6.9044
7.00703	7.03713
7.65136	7.0693
8.61784	7.23452
9.10109	7.36725
9.82595	7.4661
10.5508	7.56495
11.5978	7.6966
12.5643	7.8284
13.6114	7.96004
14.4973	8.05858
15.7054	8.25675
16.6719	8.32172
17.7995	8.48662
18.927	8.5847
19.8935	8.7165
21.8265	8.91327
22.793	9.04507
23.7595	9.11004
24.887	9.27494
25.8535	9.3065
27.6254	9.50358
29.3973	9.66724
31.0081	9.76439
32.78	9.96147
34.5519	10.0917
