Adsorption isotherm of Water on Mg-MOF-74(C)
DOI: 10.1039/C1ee02234b
Adsorbate Water: InChIKey XLYOFNOQVPJJNP-UHFFFAOYSA-N
Temperature: 298 K
Tabular data in the source: 0
pressure (bar)	uptake (cm3(STP)/g)
5.5281e-05	193.303
0.000269088	246.815
0.000337376	297.366
0.000405123	353.865
0.00040756	327.099
0.000619471	401.428
0.000761466	443.051
0.000831652	472.784
0.00104709	508.451
0.00118691	573.865
0.00118881	553.047
0.00119044	535.203
0.00147741	585.734
0.00169365	612.479
0.00227519	630.268
0.00293016	642.102
0.00358538	650.962
0.00424092	656.848
0.00489616	665.708
0.00555167	671.593
0.00613428	677.486
0.00744558	686.284
0.00802847	689.203
0.00839267	692.142
0.00904843	695.054
0.0102137	706.84
0.0108686	718.674
0.0114518	718.619
0.012107	727.478
0.0127628	730.39
0.0133457	733.309
0.0140741	739.188
0.0144386	739.154
0.0157494	753.899
0.0167691	762.725
0.0172791	765.651
0.0180075	771.53
0.0182988	774.476
0.018954	783.336
0.0194643	783.288
0.0201198	789.174
0.020484	792.113
0.0215763	803.906
0.0221595	803.85
0.0228153	806.762
0.0235437	812.641
0.0241995	815.553
0.0244908	818.5
0.0252192	824.379
0.0268941	842.064
0.0272583	845.003
0.0279136	853.863
0.0285691	859.749
