Adsorption isotherm of Water on CuBTC
DOI: 10.1039/C1ee02234b
Adsorbate Water: InChIKey XLYOFNOQVPJJNP-UHFFFAOYSA-N
Temperature: 298 K
Tabular data in the source: 0
pressure (bar)	uptake (cm3(STP)/g)
0.000580449	29.6848
0.000725426	38.593
0.000796966	53.4562
0.00108556	86.1426
0.00108746	65.3246
0.00123	100.999
0.00144516	139.64
0.00144706	118.822
0.00166141	166.385
0.00187711	199.079
0.00209363	222.85
0.00260091	255.516
0.00267191	276.327
0.00296159	297.117
0.00332417	317.901
0.00354041	344.646
0.00412249	356.487
0.00434036	365.388
0.00492216	380.203
0.00528528	395.039
0.00557551	409.881
0.00571994	424.737
0.00593646	448.509
0.00608035	469.313
0.00615244	478.228
0.00636949	496.051
0.0068784	510.873
0.00753419	513.785
0.00804364	522.659
0.00928204	531.463
0.010011	531.394
0.0114686	534.23
0.0117596	540.151
0.0124157	540.089
0.0131441	545.968
0.0137273	545.912
0.0144559	548.817
0.0150388	551.736
0.0156209	563.577
0.0164959	560.52
0.0173704	563.411
0.0179527	572.278
0.0197751	572.106
0.0207948	580.931
0.0215235	583.836
0.0222511	598.637
0.0225405	622.402
0.0232678	640.177
0.0234862	643.13
0.0247956	672.746
0.0254506	684.58
0.0260332	690.472
0.0266887	696.358
0.0271258	699.291
0.0287284	711.035
