Adsorption isotherm of Nitrogen on Mg-MOF-74(C)-TEA
DOI: 10.1039/C1ee02234b
Adsorbate Nitrogen: InChIKey IJGRMHOSHXDMSA-UHFFFAOYSA-N
Temperature: 77 K
Tabular data in the source: 0
pressure (bar)	uptake (ml/g)
0.00136958	281.147
0.00410873	343.441
0.0139746	368.71
0.0310574	375.472
0.050576	382.239
0.0944517	389.046
0.121253	390.774
0.169984	394.222
0.218731	401.037
0.269889	402.805
0.347856	407.985
0.40145	409.758
0.450181	413.206
0.464804	414.914
0.508688	423.404
0.559854	426.856
0.611012	428.625
0.662195	435.444
0.701191	440.559
0.718258	443.954
0.757245	447.386
0.771884	452.461
0.806009	457.568
0.820656	464.326
0.857225	471.121
0.869411	472.825
0.905964	476.253
0.920594	479.644
0.96447	486.451
0.988835	488.175
