Adsorption isotherm of Water on Zeolite 13X
DOI: 10.1039/C1ee02234b
Adsorbate Water: InChIKey XLYOFNOQVPJJNP-UHFFFAOYSA-N
Temperature: 298 K
Tabular data in the source: 0
pressure (bar)	uptake (cm3(STP)/g)
0.00233209	5.7272
0.00269657	5.6927
0.00342525	8.5977
0.00459129	11.4613
0.00568499	8.38379
0.00663262	8.29409
0.00757971	14.1524
0.0081626	17.0712
0.00881784	25.9311
0.00947335	31.817
0.0101291	34.7289
0.0107112	46.5697
0.0113667	52.4556
0.0118759	64.3033
0.0125309	76.1372
0.0130398	90.959
0.0136221	99.8258
0.0140587	108.706
0.014495	120.561
0.0151499	132.395
0.0157317	147.21
0.0162404	165.005
0.0167493	179.827
0.0173314	191.668
0.0179132	206.483
0.0196589	247.953
0.0202412	256.82
0.0208962	268.654
0.0214056	277.528
0.021988	286.394
0.0226432	295.254
0.0232984	304.114
0.0238076	315.962
0.0244629	324.822
0.0248989	339.651
0.025481	351.491
0.0260628	366.306
0.0279507	446.425
0.0281675	467.222
0.0283851	479.097
