Adsorption isotherm of Water on Activated Carbon
DOI: 10.1039/C1ee02234b
Adsorbate Water: InChIKey XLYOFNOQVPJJNP-UHFFFAOYSA-N
Temperature: 298 K
Tabular data in the source: 0
pressure (bar)	uptake (cm3(STP)/g)
0.000655512	5.8859
0.00145627	17.706
0.00211016	41.4359
0.00269223	53.2768
0.00281797	273.339
0.00289357	243.592
0.00296186	294.143
0.00296918	213.845
0.00298056	88.9372
0.00298246	68.1192
0.00304343	198.968
0.00304641	166.254
0.00304858	142.462
0.00312337	121.637
0.00346942	323.835
0.00347077	308.965
0.00376045	329.756
0.00412493	329.721
0.00470727	338.588
0.00529016	341.507
0.00601857	347.386
0.00703801	359.185
0.00798565	359.095
0.00929694	367.893
0.0101714	370.784
0.011629	373.62
0.013378	379.403
0.0146169	382.259
0.0167306	385.033
0.018334	387.856
0.0198645	390.685
0.0218327	390.498
0.0238003	396.26
0.027664	392.92
0.029194	401.697
