Adsorption isotherm of Copper(II) Ion on clay, saw-dust and peanut husk ternary composite
DOI: 10.2166/wst.2017.123
Article source: Figure 9
Adsorbate Copper(II) Ion: InChIKey JPVYNHNXODAKFH-UHFFFAOYSA-N
Kind: experiment
Temperature: 298 K
Tabular data in the source: 0
pressure (bar)	uptake (mg/g)
1.01325	14.666
1.01325	19.836
1.01325	23.285
1.01325	24.963
1.01325	24.973
1.01325	25.452
1.01325	25.724
1.01325	26.151
