Adsorption isotherm of Cr(III) on clay, saw-dust and peanut husk ternary composite
DOI: 10.2166/wst.2017.123
Article source: Figure 9
Adsorbate Cr(III): InChIKey BFGKITSFLPAWGI-UHFFFAOYSA-N
Kind: experiment
Temperature: 298 K
Tabular data in the source: 0
pressure (bar)	uptake (mg/g)
1.01325	21.263
1.01325	30.62
1.01325	35.677
1.01325	37.755
1.01325	39.337
1.01325	39.678
1.01325	40.268
1.01325	40.195
