Adsorption isotherm of Lead(II) Ion on clay, saw-dust and peanut husk ternary composite
DOI: 10.2166/wst.2017.123
Article source: Figure 9
Adsorbate Lead(II) Ion: InChIKey RVPVRDXYQKGNMQ-UHFFFAOYSA-N
Kind: experiment
Temperature: 298 K
Tabular data in the source: 0
pressure (bar)	uptake (mg/g)
1.01325	24.158
1.01325	31.944
1.01325	35.594
1.01325	37.424
1.01325	38.262
1.01325	38.768
1.01325	38.944
1.01325	39.037
