Adsorption isotherm of Ni(II) on clay, saw-dust and peanut husk ternary composite
DOI: 10.2166/wst.2017.123
Article source: Figure 9
Adsorbate Ni(II): InChIKey VEQPNABPJHWNSG-UHFFFAOYSA-N
Kind: experiment
Temperature: 298 K
Tabular data in the source: 0
pressure (bar)	uptake (mg/g)
1.01325	27.053
1.01325	35.997
1.01325	38.986
1.01325	40.154
1.01325	40.413
1.01325	41.415
1.01325	41.426
1.01325	41.519
