Adsorption isotherm of Fe(II) on clay, saw-dust and peanut husk ternary composite
DOI: 10.2166/wst.2017.123
Article source: Figure 9
Adsorbate Fe(II): InChIKey CWYNVVGOOAEACU-UHFFFAOYSA-N
Kind: experiment
Temperature: 298 K
Tabular data in the source: 0
pressure (bar)	uptake (mg/g)
1.01325	18.74
1.01325	30.455
1.01325	36.463
1.01325	38.955
1.01325	40.826
1.01325	41.581
1.01325	41.591
1.01325	42.098
