Adsorption isotherm of Nitrogen, Methane on Coal
DOI: 10.1007/s00254-005-0057-4
Article source: Table 3
Adsorbate Nitrogen: InChIKey IJGRMHOSHXDMSA-UHFFFAOYSA-N
Adsorbate Methane: InChIKey VNWKTOKETHGBQD-UHFFFAOYSA-N
Kind: experiment
Temperature: 308 K
Tabular data in the source: 0
pressure (bar)	Nitrogen fraction	Nitrogen uptake (mmol/g)	Methane fraction	Methane uptake (mmol/g)	total uptake (mmol/g)
28.3	0.68	0.08	0.32	0.26	
47.9	0.808	0.19	0.192	0.21	
