Adsorption isotherm of Carbon Dioxide on Coal
DOI: 10.1007/s00254-005-0057-4
Article source: Figure 2
Adsorbate Carbon Dioxide: InChIKey CURLTUGMZLYLDI-UHFFFAOYSA-N
Kind: experiment
Temperature: 308 K
Tabular data in the source: 0
pressure (bar)	uptake (mmol/g)
3.02	0.454
6.03	0.6
12.1	0.803
23.9	1.1
41.5	1.42
60.6	1.66
