Adsorption isotherm of Methane on Coal
DOI: 10.1007/s00254-005-0057-4
Article source: Figure 2
Adsorbate Methane: InChIKey VNWKTOKETHGBQD-UHFFFAOYSA-N
Kind: experiment
Temperature: 308 K
Tabular data in the source: 0
pressure (bar)	uptake (mmol/g)
3.19	0.134
5.56	0.202
11.7	0.301
23.2	0.423
41	0.536
59	0.638
