Adsorption isotherm of Carbon Dioxide, Methane on Coal
DOI: 10.1007/s00254-005-0057-4
Article source: Table 1
Adsorbate Carbon Dioxide: InChIKey CURLTUGMZLYLDI-UHFFFAOYSA-N
Adsorbate Methane: InChIKey VNWKTOKETHGBQD-UHFFFAOYSA-N
Kind: experiment
Temperature: 308 K
Tabular data in the source: 0
pressure (bar)	Carbon Dioxide fraction	Carbon Dioxide uptake (mmol/g)	Methane fraction	Methane uptake (mmol/g)	total uptake (mmol/g)
27.2	0.683	0.96	0.317	0.07	
34.5	0.753	1.1	0.247	0.05	
42.7	0.809	1.25	0.191	0.02	
51.4	0.85	1.43	0.15	0.01	
