Adsorption isotherm of Nitrogen on Coal
DOI: 10.1007/s00254-005-0057-4
Article source: Figure 2
Adsorbate Nitrogen: InChIKey IJGRMHOSHXDMSA-UHFFFAOYSA-N
Kind: experiment
Temperature: 308 K
Tabular data in the source: 0
pressure (bar)	uptake (mmol/g)
3.18	0.0338
6.37	0.0586
11.3	0.0898
23	0.173
40.9	0.25
59.5	0.314
