Adsorption isotherm of Oxygen on Zeolite 5A
DOI: 10.1080/08927029508022335
Adsorbate Oxygen: InChIKey MYMOFIZGZYHOMD-UHFFFAOYSA-N
Temperature: 297 K
Tabular data in the source: 0
pressure (bar)	uptake (molecules/cavity)
0.086177	0.0469882
0.532528	0.197564
0.946612	0.310496
1.52741	0.498716
2.03291	0.665426
2.48464	0.783736
2.88797	0.912801
3.37196	1.05262
3.75916	1.14404
3.97427	1.23009
