Adsorption isotherm of Nitrogen on Silicate MFI
DOI: 10.1080/08927029508022335
Adsorbate Nitrogen: InChIKey IJGRMHOSHXDMSA-UHFFFAOYSA-N
Temperature: 333 K
Tabular data in the source: 0
pressure (bar)	uptake (molecules/unitcell)
0.139438	0.0529182
0.413335	0.164189
0.772826	0.27974
1.12376	0.425248
1.49181	0.575036
1.73147	0.634951
1.92833	0.754781
2.25358	0.874611
2.75002	1.05008
3.18655	1.19558
3.39197	1.28118
3.70011	1.35393
4.08528	1.51656
4.54748	1.64495
5.12951	1.80757
5.62595	1.96164
6.07959	2.08147
6.37061	2.19274
6.84137	2.30401
6.99544	2.35965
