Adsorption isotherm of Oxygen on Zeolite 5A
DOI: 10.1080/08927029508022335
Adsorbate Oxygen: InChIKey MYMOFIZGZYHOMD-UHFFFAOYSA-N
Temperature: 233 K
Tabular data in the source: 0
pressure (bar)	uptake (molecules/cavity)
0.0700438	0.143787
0.494884	0.799869
0.882079	1.33764
1.21012	1.7087
1.63496	2.19808
1.95762	2.52074
2.31793	2.8434
2.73201	3.21446
3.10845	3.51562
3.52792	3.81677
3.99578	4.09103
