Adsorption isotherm of Argon on Zeolite 5A
DOI: 10.1080/08927029508022335
Adsorbate Argon: InChIKey XKRFYHLGVUSROY-UHFFFAOYSA-N
Temperature: 297 K
Tabular data in the source: 0
pressure (bar)	uptake (molecules/cavity)
0.494998	0.121684
0.997744	0.270936
2.00324	0.52231
3.00087	0.765827
4.01422	1.03291
