Adsorption isotherm of Argon on Zeolite 5A
DOI: 10.1080/08927029508022335
Adsorbate Argon: InChIKey XKRFYHLGVUSROY-UHFFFAOYSA-N
Temperature: 233 K
Tabular data in the source: 0
pressure (bar)	uptake (molecules/cavity)
0.487142	0.4359
0.989888	0.922935
1.99538	1.79489
3.00873	2.6197
3.99851	3.30312
