Adsorption isotherm of Nitrogen on Silicate MFI
DOI: 10.1080/08927029508022335
Adsorbate Nitrogen: InChIKey IJGRMHOSHXDMSA-UHFFFAOYSA-N
Temperature: 298 K
Tabular data in the source: 0
pressure (bar)	uptake (molecules/unitcell)
0.088082	0.0743164
0.507488	0.382451
0.935453	0.656349
1.37198	0.943085
1.78282	1.19558
2.39053	1.53368
2.80138	1.78618
3.18655	1.97876
3.70867	2.24838
4.18799	2.47092
4.60739	2.65922
5.00112	2.83469
5.62595	3.08719
7.004	3.59219
