Adsorption isotherm of Argon on Silicate MFI
DOI: 10.1080/08927029508022335
Adsorbate Argon: InChIKey XKRFYHLGVUSROY-UHFFFAOYSA-N
Temperature: 333 K
Tabular data in the source: 0
pressure (bar)	uptake (molecules/unitcell)
0.52367	0.235701
1.04994	0.437078
2.0058	0.873394
3.01537	1.23587
5.00229	2.00782
7.01069	2.69921
