Adsorption isotherm of Oxygen on Zeolite 5A
DOI: 10.1080/08927029508022335
Adsorbate Oxygen: InChIKey MYMOFIZGZYHOMD-UHFFFAOYSA-N
Temperature: 233 K
Tabular data in the source: 0
pressure (bar)	uptake (molecules/cavity)
0.166798	0.193632
0.251349	0.255124
0.335901	0.347362
0.689479	0.57027
0.88164	0.670194
1.26596	0.823923
1.33514	0.839296
