Adsorption isotherm of Argon on Silicate MFI
DOI: 10.1080/08927029508022335
Adsorbate Argon: InChIKey XKRFYHLGVUSROY-UHFFFAOYSA-N
Temperature: 298 K
Tabular data in the source: 0
pressure (bar)	uptake (molecules/unitcell)
0.104806	0.114875
0.416269	0.322964
0.684772	0.504203
0.942534	0.672018
1.254	0.880107
1.6299	1.15532
1.9521	1.33656
2.38171	1.59835
2.84353	1.86014
3.2624	2.08166
3.77792	2.35016
4.33641	2.62537
4.84119	2.8536
5.2708	3.04155
5.76484	3.25636
6.17296	3.39061
6.60257	3.55842
6.99995	3.69938
