Adsorption isotherm of Argon on Silicate MFI
DOI: 10.1080/08927029508022335
Adsorbate Argon: InChIKey XKRFYHLGVUSROY-UHFFFAOYSA-N
Temperature: 333 K
Tabular data in the source: 0
pressure (bar)	uptake (molecules/unitcell)
0.126287	0.0678868
0.50219	0.316252
0.878094	0.484066
1.23252	0.62503
1.6299	0.792844
1.8984	0.906957
2.26357	1.04121
2.69317	1.22916
3.21944	1.38355
3.70274	1.5715
4.25049	1.74603
4.74453	1.90713
5.19562	2.04138
5.77558	2.22262
6.17296	2.36358
6.75293	2.51126
6.97847	2.56496
