Adsorption isotherm of Nitrogen on Zeolite 5A
DOI: 10.1080/08927029508022335
Adsorbate Nitrogen: InChIKey IJGRMHOSHXDMSA-UHFFFAOYSA-N
Temperature: 233 K
Tabular data in the source: 0
pressure (bar)	uptake (molecules/cavity)
0.0937766	0.969966
0.170641	1.47727
0.266722	1.90003
0.854738	3.29128
1.31593	3.86008
2.41509	4.74403
2.76867	4.97462
