Adsorption isotherm of Argon on Zeolite 5A
DOI: 10.1080/08927029508022335
Adsorbate Argon: InChIKey XKRFYHLGVUSROY-UHFFFAOYSA-N
Temperature: 297 K
Tabular data in the source: 0
pressure (bar)	uptake (molecules/cavity)
0.110082	0.0431295
0.416443	0.14525
0.738515	0.255226
0.982033	0.341635
1.39837	0.451611
1.75186	0.569442
2.08179	0.663707
2.47456	0.789393
2.79663	0.907225
3.15013	0.993634
3.44863	1.10361
3.81784	1.21359
3.96709	1.26072
