Adsorption isotherm of Nitrogen on Silicate MFI
DOI: 10.1080/08927029508022335
Adsorbate Nitrogen: InChIKey IJGRMHOSHXDMSA-UHFFFAOYSA-N
Temperature: 298 K
Tabular data in the source: 0
pressure (bar)	uptake (molecules/unitcell)
0.498928	0.391011
0.986808	0.729103
1.98825	1.43952
2.98113	2.11999
3.98256	2.78333
