Adsorption isotherm of Argon on Silicate MFI
DOI: 10.1080/08927029508022335
Adsorbate Argon: InChIKey XKRFYHLGVUSROY-UHFFFAOYSA-N
Temperature: 298 K
Tabular data in the source: 0
pressure (bar)	uptake (molecules/unitcell)
0.50219	0.39009
1.04994	0.745856
2.02728	1.44396
3.01537	2.10851
5.01303	3.29663
6.98921	4.31023
