Adsorption isotherm of Nitrogen on Silicate MFI
DOI: 10.1080/08927029508022335
Adsorbate Nitrogen: InChIKey IJGRMHOSHXDMSA-UHFFFAOYSA-N
Temperature: 333 K
Tabular data in the source: 0
pressure (bar)	uptake (molecules/unitcell)
0.498928	0.211265
1.00393	0.412409
1.98825	0.823255
2.98968	1.23838
3.99968	1.60643
