Adsorption isotherm of Nitrogen on Zeolite 5A
DOI: 10.1080/08927029508022335
Adsorbate Nitrogen: InChIKey IJGRMHOSHXDMSA-UHFFFAOYSA-N
Temperature: 297 K
Tabular data in the source: 0
pressure (bar)	uptake (molecules/cavity)
0.0937766	1.13138
0.170641	1.73861
0.266722	2.3151
0.847051	3.92926
1.30824	4.55186
2.42278	5.53573
