Adsorption isotherm of Oxygen on Zeolite 5A
DOI: 10.1080/08927029508022335
Adsorbate Oxygen: InChIKey MYMOFIZGZYHOMD-UHFFFAOYSA-N
Temperature: 233 K
Tabular data in the source: 0
pressure (bar)	uptake (molecules/cavity)
0.494884	0.633159
1.00577	1.28924
2.0114	2.45621
3.01166	3.62317
4.00116	4.49974
