Adsorption isotherm of Nitrogen on Zeolite 5A
DOI: 10.1080/08927029508022335
Adsorbate Nitrogen: InChIKey IJGRMHOSHXDMSA-UHFFFAOYSA-N
Temperature: 297 K
Tabular data in the source: 0
pressure (bar)	uptake (molecules/cavity)
0.091586	0.216179
0.368299	0.523638
0.721877	0.843396
1.19075	1.18775
1.75955	1.5444
2.42059	1.90105
3.04319	2.17162
3.59662	2.42988
3.99632	2.57746
