Adsorption isotherm of Argon on Zeolite 5A
DOI: 10.1080/08927029508022335
Adsorbate Argon: InChIKey XKRFYHLGVUSROY-UHFFFAOYSA-N
Temperature: 233 K
Tabular data in the source: 0
pressure (bar)	uptake (molecules/cavity)
0.0236729	0.0666957
0.243624	0.365201
0.463576	0.757972
0.73066	1.07219
1.0056	1.44925
1.3041	1.77918
1.64974	2.19551
2.05822	2.60399
2.35673	2.89464
2.67095	3.21672
3.12656	3.57806
3.44078	3.83729
3.58217	3.90799
3.70786	4.0651
3.96709	4.23006
