Adsorption isotherm of Oxygen on Zeolite 5A
DOI: 10.1080/08927029508022335
Adsorbate Oxygen: InChIKey MYMOFIZGZYHOMD-UHFFFAOYSA-N
Temperature: 297 K
Tabular data in the source: 0
pressure (bar)	uptake (molecules/cavity)
0.273662	0.0888126
0.397726	0.130168
0.98129	0.272612
1.11914	0.300182
1.18807	0.313967
