Adsorption isotherm of Oxygen on Silicate MFI
DOI: 10.1080/08927029508022335
Adsorbate Oxygen: InChIKey MYMOFIZGZYHOMD-UHFFFAOYSA-N
Temperature: 333 K
Tabular data in the source: 0
pressure (bar)	uptake (molecules/unitcell)
0.0446116	0.015393
0.49008	0.204954
0.954504	0.416179
1.53266	0.649068
2.05396	0.833213
2.48995	1.06069
3.00176	1.22317
3.52305	1.38023
4.01591	1.55354
4.34764	1.68353
4.74572	1.75935
5.04902	1.88934
5.51344	1.99766
5.87361	2.11681
6.42334	2.27929
6.97306	2.40386
