Adsorption isotherm of Oxygen on Silicate MFI
DOI: 10.1080/08927029508022335
Adsorbate Oxygen: InChIKey MYMOFIZGZYHOMD-UHFFFAOYSA-N
Temperature: 298 K
Tabular data in the source: 0
pressure (bar)	uptake (molecules/unitcell)
0.0635677	0.0749693
0.433211	0.351187
0.859723	0.676148
1.48527	1.09318
2.27195	1.58062
2.94489	1.95975
4.03487	2.50676
4.89737	2.87505
5.89257	3.26501
6.96358	3.63871
