Adsorption isotherm of Oxygen on Silicate MFI
DOI: 10.1080/08927029508022335
Adsorbate Oxygen: InChIKey MYMOFIZGZYHOMD-UHFFFAOYSA-N
Temperature: 333 K
Tabular data in the source: 0
pressure (bar)	uptake (molecules/unitcell)
0.461646	0.21037
1.00189	0.443259
1.99709	0.854877
3.01124	1.26108
3.978	1.66728
