Adsorption isotherm of Oxygen on Zeolite 5A
DOI: 10.1080/08927029508022335
Adsorbate Oxygen: InChIKey MYMOFIZGZYHOMD-UHFFFAOYSA-N
Temperature: 233 K
Tabular data in the source: 0
pressure (bar)	uptake (molecules/cavity)
0.166798	0.201319
0.255193	0.301243
0.335901	0.370421
0.693322	0.708626
0.88164	0.793177
1.25828	0.993026
1.32746	0.96228
