Adsorption isotherm of Nitrogen on Zeolite 5A
DOI: 10.1080/08927029508022335
Adsorbate Nitrogen: InChIKey IJGRMHOSHXDMSA-UHFFFAOYSA-N
Temperature: 297 K
Tabular data in the source: 0
pressure (bar)	uptake (molecules/cavity)
0.480436	0.585072
0.760731	0.837796
2.20356	1.94519
2.58035	2.2071
2.83307	2.32198
