Adsorption isotherm of Oxygen on Silicate MFI
DOI: 10.1080/08927029508022335
Adsorbate Oxygen: InChIKey MYMOFIZGZYHOMD-UHFFFAOYSA-N
Temperature: 298 K
Tabular data in the source: 0
pressure (bar)	uptake (molecules/unitcell)
0.480602	0.410763
1.01137	0.795301
1.98761	1.53188
2.99228	2.14931
3.95904	2.76132
