Adsorption isotherm of Nitrogen on Zeolite 5A
DOI: 10.1080/08927029508022335
Adsorbate Nitrogen: InChIKey IJGRMHOSHXDMSA-UHFFFAOYSA-N
Temperature: 233 K
Tabular data in the source: 0
pressure (bar)	uptake (molecules/cavity)
0.491283	3.18008
0.990904	4.27464
1.99783	5.41839
2.99707	6.02101
3.99632	6.57443
