Adsorption isotherm of Nitrogen on Zeolite 5A
DOI: 10.1080/08927029508022335
Adsorbate Nitrogen: InChIKey IJGRMHOSHXDMSA-UHFFFAOYSA-N
Temperature: 233 K
Tabular data in the source: 0
pressure (bar)	uptake (molecules/cavity)
0.00703475	0.302268
0.0377807	1.00327
0.130018	1.45831
0.283748	2.22081
0.445164	2.78654
0.629639	3.22928
0.875607	3.72121
1.18307	4.21315
1.49052	4.5944
2.02858	5.08633
2.50514	5.43069
2.9279	5.67665
3.41214	5.93492
3.98863	6.20548
