Adsorption isotherm of Carbon Dioxide on SDU-1
DOI: 10.1039/C3nj00700f
Adsorbate Carbon Dioxide: InChIKey CURLTUGMZLYLDI-UHFFFAOYSA-N
Temperature: 303 K
Tabular data in the source: 0
pressure (bar)	uptake (wt%)
0.314351	2.21188
0.671158	6.15554
0.934069	8.80343
1.12186	10.3809
1.61013	13.1978
2.07961	15.2823
3.11247	18.5499
4.089	20.4091
6.04205	23.3386
8.03266	25.3668
10.0421	27.1696
12.0514	28.7471
14.0045	29.8175
15.9951	31.0569
17.028	31.6203
18.0233	32.1837
18.9998	32.6344
19.9575	33.1978
