Adsorption isotherm of Nitrogen on NPC-5
DOI: 10.1039/C3nj00700f
Adsorbate Nitrogen: InChIKey IJGRMHOSHXDMSA-UHFFFAOYSA-N
Temperature: 77 K
Tabular data in the source: 0
pressure (bar)	uptake (wt%)
0.00515504	0.116286
0.0108756	34.9403
0.0280373	36.5134
0.0637909	37.3715
0.100975	37.8006
0.15389	38.3011
0.201085	38.4441
0.302625	38.8732
0.404165	39.2307
0.501415	39.4452
0.604385	39.5167
0.700205	39.7312
0.798884	39.8743
0.900425	40.0173
0.95763	40.0888
