Adsorption isotherm of Methane on NPC-5
DOI: 10.1039/C3nj00700f
Adsorbate Methane: InChIKey VNWKTOKETHGBQD-UHFFFAOYSA-N
Temperature: 195 K
Tabular data in the source: 0
pressure (bar)	uptake (wt%)
0.0560331	0.634077
0.112371	2.71295
0.14054	4.58901
0.225047	6.97211
0.42223	9.07633
0.591244	10.3439
0.957442	11.8651
2.02786	13.4622
3.01378	14.2989
5.01378	15.2115
7.01378	15.82
9.04195	16.2256
11.0701	16.5806
13.0419	16.8087
14.9293	17.0876
16.9856	17.2397
17.9997	17.3665
19.0419	17.4425
20.056	17.4679
