Adsorption isotherm of Carbon Dioxide on SDU-1
DOI: 10.1039/C3nj00700f
Adsorbate Carbon Dioxide: InChIKey CURLTUGMZLYLDI-UHFFFAOYSA-N
Temperature: 273 K
Tabular data in the source: 0
pressure (bar)	uptake (wt%)
0.286249	8.51214
0.499082	12.1178
0.711915	14.8596
0.912228	17.0004
1.10002	18.7281
1.58828	21.6201
2.07655	23.6483
3.05307	26.052
4.10472	27.93
6.12037	30.3337
8.04838	32.0614
9.98891	33.6013
12.0421	34.8783
13.0562	35.592
14.0077	36.268
15.0343	36.6436
15.9858	37.3197
17.0374	37.9206
18.9654	39.1976
19.9795	39.9112
