Adsorption isotherm of Carbon Dioxide on NPC-5
DOI: 10.1039/C3nj00700f
Adsorbate Carbon Dioxide: InChIKey CURLTUGMZLYLDI-UHFFFAOYSA-N
Temperature: 273 K
Tabular data in the source: 0
pressure (bar)	uptake (wt%)
0.258013	6.38089
0.427027	9.19779
0.6336	13.6485
0.802614	17.5922
1.00919	20.6908
1.14064	22.5499
1.66646	27.902
2.09839	30.6062
3.07491	34.7753
4.14534	37.4795
5.06552	39.3386
6.09839	41.1415
7.05613	42.4936
8.05144	43.395
10.0608	45.5358
12.0514	47.2823
13.028	48.1274
15.0186	49.6485
16.0514	50.2682
17.0092	50.9443
18.0045	51.6203
19.0186	52.4654
19.9388	52.9724
