Adsorption isotherm of Methane on SDU-1
DOI: 10.1039/C3nj00700f
Adsorbate Methane: InChIKey VNWKTOKETHGBQD-UHFFFAOYSA-N
Temperature: 293 K
Tabular data in the source: 0
pressure (bar)	uptake (wt%)
1.46448	1.90168
1.97153	2.28196
3.01378	3.04253
3.97153	3.49887
5.04195	3.9552
5.94336	4.31013
7.01378	4.69042
9.01378	5.27351
10.9856	5.7045
13.0701	6.18619
14.9856	6.49042
17.0701	6.76929
18.9293	7.02281
19.9997	7.09887
