Adsorption isotherm of Methane on NPC-5
DOI: 10.1039/C3nj00700f
Adsorbate Methane: InChIKey VNWKTOKETHGBQD-UHFFFAOYSA-N
Temperature: 293 K
Tabular data in the source: 0
pressure (bar)	uptake (mmol/g)
0.186245	0.0529291
0.901316	0.705074
1.83091	1.28857
2.90352	2.03225
4.26215	2.7988
5.7638	3.39374
7.766	4.01157
9.83971	4.61795
12.4855	5.16712
15.2027	5.61333
18.9926	6.11674
22.854	6.47141
26.8584	6.79176
31.8639	7.08923
38.2996	7.37526
44.0916	7.56976
49.8122	7.72994
