Adsorption isotherm of Methane on NPC-5
DOI: 10.1039/C3nj00700f
Adsorbate Methane: InChIKey VNWKTOKETHGBQD-UHFFFAOYSA-N
Temperature: 273 K
Tabular data in the source: 0
pressure (bar)	uptake (wt%)
0.0842021	0.507317
1.01378	2.33267
1.57716	3.19464
1.97153	3.8538
2.98561	5.04534
3.94336	6.00873
5.01378	6.76929
7.01378	7.98619
9.01378	8.87351
11.0138	9.58337
12.9574	10.1411
14.9856	10.6989
17.0138	11.1552
17.9434	11.3327
18.9574	11.5355
19.9715	11.7383
