Adsorption isotherm of Hydrogen on SDU-1
DOI: 10.1039/C3nj00700f
Adsorbate Hydrogen: InChIKey UFHFLCQGNIYNRP-UHFFFAOYSA-N
Temperature: 77 K
Tabular data in the source: 0
pressure (bar)	uptake (wt%)
0.168709	0.135272
0.196878	0.377526
0.225047	0.676117
0.225047	0.94654
0.506737	1.20569
0.675751	1.34091
1.04195	1.55499
1.49265	1.71837
2.0842	1.81978
3.09829	1.96062
5.09829	2.13527
6.92927	2.24795
8.98561	2.33809
10.9856	2.41696
13.0138	2.4902
14.9574	2.54654
16.8729	2.59161
18.056	2.64795
19.0138	2.65922
19.9434	2.68175
