Adsorption isotherm of Carbon Dioxide on NPC-5
DOI: 10.1039/C3nj00700f
Adsorbate Carbon Dioxide: InChIKey CURLTUGMZLYLDI-UHFFFAOYSA-N
Temperature: 293 K
Tabular data in the source: 0
pressure (bar)	uptake (wt%)
0.126557	0.12737
0.33313	3.22596
0.6336	7.45131
0.91529	10.8316
1.12186	13.6485
1.59135	17.9302
2.11717	21.6485
3.07491	26.3809
4.10778	29.7612
6.00449	33.9302
8.01388	37.0851
10.0984	39.5077
11.9951	41.4231
13.9482	43.0569
15.9575	44.6908
18.0233	46.2682
18.9435	46.9443
19.9388	47.564
