Adsorption isotherm of Methane on NPC-5
DOI: 10.1039/C3nj00700f
Adsorbate Methane: InChIKey VNWKTOKETHGBQD-UHFFFAOYSA-N
Temperature: 293 K
Tabular data in the source: 0
pressure (bar)	uptake (mmol/g)
0.257752	0.0186057
1.18734	0.876692
1.61639	1.21993
2.11694	1.56316
3.11804	2.16954
4.11914	2.67295
4.97722	3.1306
7.19395	3.81707
9.05313	4.37768
11.0553	4.86965
12.986	5.27009
15.1312	5.62477
16.9189	5.89935
18.8496	6.1625
19.9937	6.31123
