Adsorption isotherm of Hydrogen on NPC-5
DOI: 10.1039/C3nj00700f
Adsorbate Hydrogen: InChIKey UFHFLCQGNIYNRP-UHFFFAOYSA-N
Temperature: 77 K
Tabular data in the source: 0
pressure (bar)	uptake (wt%)
0.0842021	0.02823
0.14054	0.484568
0.14054	0.749357
0.253216	1.10992
0.365892	1.44795
0.563075	1.69584
0.844766	1.92119
1.07012	2.05077
1.49265	2.23668
2.95744	2.524
5.04195	2.74372
6.98561	2.88457
8.98561	3.00851
11.0419	3.10992
13.0138	3.20006
14.9011	3.2733
16.8729	3.33527
18.0279	3.36344
18.9856	3.40288
19.8589	3.41978
