Adsorption isotherm of Methane on NPC-5
DOI: 10.1039/C3nj00700f
Adsorbate Methane: InChIKey VNWKTOKETHGBQD-UHFFFAOYSA-N
Temperature: 293 K
Tabular data in the source: 0
pressure (bar)	uptake (wt%)
0.000305	0.0763308
0.985611	1.54675
1.49265	2.12985
1.94336	2.66225
2.95744	3.57492
3.97153	4.41154
6.14054	5.72985
7.97153	6.66788
9.97153	7.5045
11.9715	8.16365
13.9434	8.74675
16.056	9.32985
18.0279	9.76084
18.9856	9.9383
19.887	10.0904
