Adsorption isotherm of Methane on SDU-1
DOI: 10.1039/C3nj00700f
Adsorbate Methane: InChIKey VNWKTOKETHGBQD-UHFFFAOYSA-N
Temperature: 273 K
Tabular data in the source: 0
pressure (bar)	uptake (wt%)
0.929273	2.07915
1.43631	2.7383
2.05603	3.29605
2.98561	4.13267
3.97153	4.74112
4.92927	5.17211
7.09829	5.98337
7.9997	6.21154
9.97153	6.66788
11.0419	6.84535
11.9434	7.04816
13.9997	7.42844
15.9434	7.65661
18.0279	7.91013
19.0419	8.01154
19.9434	8.1383
