Adsorption isotherm of Nitrogen on SDU-1
DOI: 10.1039/C3nj00700f
Adsorbate Nitrogen: InChIKey IJGRMHOSHXDMSA-UHFFFAOYSA-N
Temperature: 77 K
Tabular data in the source: 0
pressure (bar)	uptake (wt%)
0.00658518	0.2593
0.015166	21.4254
0.0223168	23.2846
0.0394785	24.2857
0.0780923	25.2153
0.149599	26.1449
0.205375	26.4309
0.302625	26.7885
0.401305	27.146
0.501415	27.3605
0.598664	27.575
0.698774	27.8611
0.797454	28.0756
0.901855	28.2186
0.996244	28.4331
