Adsorption isotherm of Carbon Dioxide on NPC-5
DOI: 10.1039/C3nj00700f
Adsorbate Carbon Dioxide: InChIKey CURLTUGMZLYLDI-UHFFFAOYSA-N
Temperature: 195 K
Tabular data in the source: 0
pressure (bar)	uptake (wt%)
0.14054	31.6065
0.14054	36.508
0.168709	13.0995
0.168709	21.8037
0.168709	27.6347
0.168709	38.7051
0.168709	40.4798
0.253216	45.3812
0.253216	47.1558
0.281385	48.846
0.450399	50.5361
0.647582	52.4798
1.07012	54.9305
