Adsorption isotherm of Carbon Dioxide on SDU-1
DOI: 10.1039/C3nj00700f
Adsorbate Carbon Dioxide: InChIKey CURLTUGMZLYLDI-UHFFFAOYSA-N
Temperature: 195 K
Tabular data in the source: 0
pressure (bar)	uptake (wt%)
0.145337	24.1274
0.145337	28.7471
0.164116	13.0288
0.201675	33.2541
0.239233	35.1696
0.276792	37.2541
0.370689	38.4372
0.483365	39.2823
0.783834	40.8034
