Adsorption isotherm of Phosphate Ion, Water on FMO
DOI: 10.1016/j.jtice.2017.04.023
Article source: Figure 5
Adsorbate Phosphate Ion: InChIKey NBIIXXVUZAFLBC-UHFFFAOYSA-K
Adsorbate Water: InChIKey XLYOFNOQVPJJNP-UHFFFAOYSA-N
Kind: experiment
Temperature: 298 K
Tabular data in the source: 0
pressure (bar)	Phosphate Ion fraction	Phosphate Ion uptake (mg/g)	Water fraction	Water uptake (mg/g)	total uptake (mg/g)
1.01325	0.048	4.0198			
1.01325	0.9	7.6078			
1.01325	5.205	9.8918			
1.01325	7.759	12.8595			
1.01325	16.001	13.5826			
1.01325	24.678	14.0884			
1.01325	41.766	15.2383			
1.01325	51.674	15.3213			
1.01325	61.003	15.5228			
