Adsorption isotherm of Phosphate Ion, Water on FMO
DOI: 10.1016/j.jtice.2017.04.023
Article source: Figure 5
Adsorbate Phosphate Ion: InChIKey NBIIXXVUZAFLBC-UHFFFAOYSA-K
Adsorbate Water: InChIKey XLYOFNOQVPJJNP-UHFFFAOYSA-N
Kind: experiment
Temperature: 308 K
Tabular data in the source: 0
pressure (bar)	Phosphate Ion fraction	Phosphate Ion uptake (mg/g)	Water fraction	Water uptake (mg/g)	total uptake (mg/g)
1.01325	0.048	4.0198			
1.01325	0.344	7.8607			
1.01325	7.53	12.9741			
1.01325	16.834	13.2309			
1.01325	20.451	15.7916			
1.01325	28.174	16.6965			
1.01325	36.042	17.5342			
1.01325	53.528	18.5379			
