Adsorption isotherm of Phosphate Ion, Water on FMO
DOI: 10.1016/j.jtice.2017.04.023
Article source: Figure 5
Adsorbate Phosphate Ion: InChIKey NBIIXXVUZAFLBC-UHFFFAOYSA-K
Adsorbate Water: InChIKey XLYOFNOQVPJJNP-UHFFFAOYSA-N
Kind: experiment
Temperature: 288 K
Tabular data in the source: 0
pressure (bar)	Phosphate Ion fraction	Phosphate Ion uptake (mg/g)	Water fraction	Water uptake (mg/g)	total uptake (mg/g)
1.01325	0.048	4.0198			
1.01325	1.262	7.4616			
1.01325	7.367	9.0264			
1.01325	11.442	11.4132			
1.01325	18.428	12.6026			
1.01325	27.093	13.1479			
1.01325	46.077	13.5154			
1.01325	56.336	13.4245			
1.01325	65.882	13.5866			
