Adsorption isotherm of Nitrogen on WYO
DOI: 10.1016/j.micromeso.2004.04.003
Adsorbate Nitrogen: InChIKey IJGRMHOSHXDMSA-UHFFFAOYSA-N
Temperature: 77 K
Tabular data in the source: 0
pressure (bar)	uptake (mmol/g)
0.00400996	0.444464
0.00400996	1.38833
0.00400996	1.90396
0.0324133	2.16615
0.126363	2.40211
0.202833	2.50699
0.502161	2.74295
0.602665	2.83909
0.700985	2.92648
0.849556	3.15371
0.95443	3.76547
