Adsorption isotherm of Nitrogen on [MoL][BF4]WYO
DOI: 10.1016/j.micromeso.2004.04.003
Adsorbate Nitrogen: InChIKey IJGRMHOSHXDMSA-UHFFFAOYSA-N
Temperature: 77 K
Tabular data in the source: 0
pressure (bar)	uptake (mmol/g)
0.00400996	0.444464
0.00400996	0.776565
0.0411528	1.00379
0.143842	1.1611
0.202833	1.2048
0.397287	1.31841
0.548044	1.44077
0.70317	1.63304
0.849556	2.00883
0.947875	2.9527
