Adsorption isotherm of N-Butane, Water on Activated carbon:  BAX950
DOI: 10.1021/jp014625a
Article source: Figure 9
Adsorbate N-Butane: InChIKey IJDNQMDRQITEOD-UHFFFAOYSA-N
Adsorbate Water: InChIKey XLYOFNOQVPJJNP-UHFFFAOYSA-N
Kind: experiment
Temperature: 294 K
Tabular data in the source: 0
pressure (bar)	N-Butane fraction	N-Butane uptake (mmol/g)	Water fraction	Water uptake (mmol/g)	total uptake (mmol/g)
1	0.983157	2.84035	0.016843	0.020695	
1.01	0.18842	2.86105	0.81158	0.217295	
1.02	0.103574	2.89726	0.896426	0.300074	
1.03	0.071413	2.83001	0.928587	0.403548	
1.04	0.054366	2.87657	0.945634	0.579453	
1.05	0.044	2.87657	0.956	0.745011	
1.06	0.036875	2.87657	0.963125	0.988174	
