Adsorption isotherm of Nitrogen on Co@SiO2
DOI: 10.1021/acs.jpcc.5b02403
Article source: Figure 5
Adsorbate Nitrogen: InChIKey IJGRMHOSHXDMSA-UHFFFAOYSA-N
Kind: experiment
Temperature: 77 K
Tabular data in the source: 0
pressure (bar)	uptake (cm3(STP)/g)
0.00153	154.578
0.010224	166.025
0.030104	170.363
0.038453	171.388
0.051281	172.473
0.075386	174.342
0.098113	176.09
0.100616	176.331
0.122907	177.899
0.129017	178.321
0.14762	178.526
0.155686	179.483
0.172627	179.484
0.181787	180.345
0.198313	180.633
0.207473	181.494
0.223604	181.4
0.232622	182.165
0.248743	182.262
0.257903	183.027
0.273892	183.22
0.283862	183.985
0.299851	183.986
0.309143	183.987
0.350828	185.041
0.356705	185.902
0.402199	187.595
0.409576	188.809
0.454696	189.192
0.460988	189.723
0.505561	191.775
0.558595	194.25
0.605234	197.17
0.657164	201.304
0.668441	202.69
0.708718	206.483
0.719245	208.109
0.756411	210.406
0.761336	212.246
0.776636	218.249
0.804105	227.717
0.814896	222.172
0.83581	242.446
0.846327	231.162
0.853298	254.4
0.862185	236.519
0.878721	245.222
0.903059	309.062
0.908591	319.765
0.914377	274.198
0.922848	282.901
0.934946	365.959
0.939759	373.67
0.945788	380.056
0.952333	335.719
0.963003	388.371
