Adsorption isotherm of Nitrogen on Cu0.5Co0.5@SiO2
DOI: 10.1021/acs.jpcc.5b02403
Article source: Figure 5
Adsorbate Nitrogen: InChIKey IJGRMHOSHXDMSA-UHFFFAOYSA-N
Kind: experiment
Temperature: 77 K
Tabular data in the source: 0
pressure (bar)	uptake (cm3(STP)/g)
0.003232	258.694
0.005107	262.572
0.018968	270.163
0.028857	272.574
0.040743	272.516
0.049264	274.384
0.0719	276.496
0.098407	278.75
0.123566	280.348
0.148624	281.567
0.15291	281.581
0.173458	282.557
0.176133	282.541
0.195142	283.699
0.201414	284.075
0.223959	285.322
0.231751	285.514
0.249371	286.474
0.256889	286.188
0.274104	287.434
0.280113	287.435
0.3013	288.012
0.307582	288.491
0.350615	290.758
0.403588	293.145
0.405533	293.449
0.455638	295.886
0.503362	298.474
0.557581	301.519
0.609419	305.322
0.656272	309.58
0.663648	310.947
0.703175	314.79
0.710065	316.144
0.722457	318.406
0.748792	319.736
0.757921	320.822
0.760323	325.158
0.767385	326.605
0.786485	333.955
0.795786	328.657
0.806973	343.382
0.807651	343.354
0.83658	339.625
0.843784	366.004
0.852245	346.132
0.854798	376.003
0.861019	349.145
0.881669	360.47
0.890272	367.94
0.897446	431.295
0.901742	441.895
0.913496	389.263
0.919514	396.731
0.932332	500.799
0.936628	508.869
0.942819	517.061
0.950266	463.223
0.96278	527.904
