Adsorption isotherm of Nitrogen on Cu@SiO2
DOI: 10.1021/acs.jpcc.5b02403
Article source: Figure 5
Adsorbate Nitrogen: InChIKey IJGRMHOSHXDMSA-UHFFFAOYSA-N
Kind: experiment
Temperature: 77 K
Tabular data in the source: 0
pressure (bar)	uptake (cm3(STP)/g)
0.00155	1.024
0.006971	10.178
0.024784	15.783
0.029263	17.41
0.042253	18.135
0.050176	19.101
0.071262	20.491
0.098802	23.388
0.123242	24.839
0.149394	26.282
0.150691	26.434
0.174654	27.122
0.175738	27.274
0.199813	28.873
0.203501	29.253
0.223452	29.562
0.228974	29.942
0.249037	31.085
0.255765	31.694
0.274013	32.582
0.281157	33.427
0.300783	33.612
0.307146	33.975
0.353016	35.973
0.357839	36.757
0.40456	38.035
0.406283	38.214
0.457118	41.587
0.505348	44.562
0.558493	48.532
0.609125	52.793
0.656809	57.181
0.665837	58.448
0.704482	63.395
0.710846	64.382
0.724788	67.254
0.750565	68.422
0.754658	71.435
0.757121	71.673
0.777477	81.332
0.793051	78.086
0.794692	89.079
0.808077	82.104
0.835536	110.023
0.836489	109.818
0.842092	118.149
0.852062	96.071
0.86108	100.757
0.876248	154.099
0.879248	110.702
0.889633	118.065
0.906778	206.649
0.916556	146.174
0.921196	154.014
0.930853	252.479
0.934976	260.371
0.941704	268.718
0.942343	197.553
0.957308	242.774
0.963601	278.889
