Adsorption isotherm of Nitrogen on miscanthus-16
DOI: 10.1021/acssuschemeng.6b02564
Article source: Figure S2
Adsorbate Nitrogen: InChIKey IJGRMHOSHXDMSA-UHFFFAOYSA-N
Kind: experiment
Temperature: 77 K
Tabular data in the source: 0
pressure (bar)	uptake (cm3(STP)/g)
0.010001	0.0664
0.035483	0.1029
0.072345	0.1471
0.082345	0.1536
0.101759	0.1654
0.122925	0.1803
0.144689	0.1895
0.16312	0.1953
0.187235	0.2096
0.202524	0.2096
0.2535	0.2207
0.306634	0.2298
0.356039	0.2409
0.407602	0.2507
0.456815	0.2546
0.506615	0.2663
0.557986	0.2747
0.608961	0.2793
0.659542	0.2936
0.713061	0.3132
0.762861	0.3392
0.811293	0.3587
0.831872	0.3893
0.863242	0.4251
0.890305	0.4661
0.913244	0.5267
0.937157	0.6126
0.964017	0.7826
0.990878	1.1654
0.99794	1.4102
1.00637	1.9609
1.0097	2.7005
0.126654	0.1178
0.183121	0.1549
0.232334	0.1706
0.284282	0.1908
0.335845	0.2038
0.385645	0.2168
0.435841	0.2305
0.486816	0.2383
0.559546	0.2578
0.610329	0.2695
0.661112	0.2897
0.711885	0.3099
0.763844	0.3379
0.794433	0.3594
0.818345	0.3835
0.843251	0.416
0.869321	0.4551
0.895401	0.5169
0.921087	0.6165
0.948535	0.7943
0.975781	1.1602
0.993036	1.737
