Adsorption isotherm of Nitrogen on pretreated miscanthus-70
DOI: 10.1021/acssuschemeng.6b02564
Article source: Figure S2
Adsorbate Nitrogen: InChIKey IJGRMHOSHXDMSA-UHFFFAOYSA-N
Kind: experiment
Temperature: 77 K
Tabular data in the source: 0
pressure (bar)	uptake (cm3(STP)/g)
0.011227	0.06817
0.033092	0.11514
0.070653	0.15611
0.078394	0.16212
0.101242	0.1826
0.121182	0.19179
0.14093	0.19815
0.162421	0.20698
0.181784	0.21333
0.201734	0.21687
0.253237	0.22675
0.303189	0.23135
0.353526	0.23558
0.424391	0.23947
0.476674	0.24053
0.506686	0.24088
0.557216	0.24159
0.628669	0.24406
0.6579	0.25148
0.70921	0.25748
0.75897	0.27514
0.811243	0.29845
0.829248	0.32035
0.860222	0.35002
0.884226	0.38958
0.912302	0.44397
0.937076	0.52309
0.963582	0.65695
0.987757	0.90419
0.993938	1.03488
1.00358	1.30437
1.00801	1.51912
0.125651	0.1162
0.181986	0.14764
0.231938	0.166
0.282083	0.17801
0.333788	0.18684
0.385291	0.19532
0.435051	0.20026
0.48558	0.20592
0.537083	0.21616
0.58743	0.22605
0.6579	0.24053
0.709403	0.25536
0.75974	0.27868
0.79188	0.2981
0.815893	0.31894
0.841639	0.34896
0.867386	0.38958
0.893132	0.43903
0.919071	0.51885
0.945769	0.65201
0.985802	1.07974
