Adsorption isotherm of Nitrogen on pretreated miscanthus-40
DOI: 10.1021/acssuschemeng.6b02564
Article source: Figure S2
Adsorbate Nitrogen: InChIKey IJGRMHOSHXDMSA-UHFFFAOYSA-N
Kind: experiment
Temperature: 77 K
Tabular data in the source: 0
pressure (bar)	uptake (cm3(STP)/g)
0.011389	0.07268
0.033984	0.11384
0.069518	0.14278
0.081109	0.15499
0.100219	0.16464
0.121851	0.17396
0.142703	0.18038
0.164336	0.18713
0.18075	0.19323
0.200832	0.19644
0.252588	0.20415
0.304141	0.20638
0.355127	0.20733
0.425607	0.20666
0.476583	0.20697
0.506514	0.20664
0.577389	0.20758
0.628952	0.20757
0.657911	0.22042
0.706383	0.21655
0.760642	0.22328
0.810665	0.26733
0.829967	0.28308
0.861833	0.30816
0.886171	0.34514
0.910306	0.38855
0.937339	0.45736
0.963409	0.56671
0.988517	0.76642
0.993918	0.87609
1.00396	1.11248
1.00743	1.33375
0.126289	0.10159
0.181905	0.11508
0.232891	0.13243
0.283481	0.14721
0.334072	0.15684
0.384865	0.1639
0.435456	0.16935
0.486624	0.1732
0.536647	0.17961
0.586853	0.18892
0.658498	0.2053
0.708511	0.22073
0.759872	0.24644
0.79193	0.26508
0.816258	0.28566
0.841173	0.31009
0.867244	0.34321
0.893314	0.38534
0.918604	0.44643
0.944675	0.55545
