Adsorption isotherm of Nitrogen on raw miscanthus-70
DOI: 10.1021/acssuschemeng.6b02564
Article source: Figure S2
Adsorbate Nitrogen: InChIKey IJGRMHOSHXDMSA-UHFFFAOYSA-N
Kind: experiment
Temperature: 77 K
Tabular data in the source: 0
pressure (bar)	uptake (cm3(STP)/g)
0.00997	0.0533
0.034673	0.0918
0.069568	0.1224
0.081332	0.1207
0.115052	0.1336
0.120929	0.1127
0.140535	0.1046
0.182888	0.111
0.200528	0.1029
0.253855	0.1061
0.32169	0.1092
0.353445	0.098
0.425982	0.0915
0.477353	0.0866
0.526363	0.0801
0.576558	0.0784
0.627524	0.08
0.656938	0.0848
0.708298	0.0976
0.760054	0.1217
0.814951	0.1329
0.831811	0.1682
0.865531	0.1891
0.885533	0.2292
0.911015	0.2967
0.938069	0.4092
0.962386	0.6198
0.988649	1.0989
0.993746	1.4172
1.00395	2.1181
1.00943	2.9299
0.125053	-0.3576
0.181115	-0.2845
0.232486	-0.2403
0.283654	-0.2082
0.334042	-0.1801
0.385402	-0.1537
0.43422	-0.1288
0.484608	-0.1007
0.537346	-0.0734
0.590277	-0.0478
0.639287	-0.0068
0.68928	0.0156
0.759862	0.063
0.791819	0.0911
0.813188	0.1256
0.838478	0.161
0.867497	0.2027
0.893963	0.2839
0.917287	0.3964
0.946114	0.611
0.973552	1.0989
0.990027	1.8335
