Adsorption isotherm of Nitrogen on miscanthus-16-treated
DOI: 10.1021/acssuschemeng.6b02564
Article source: Figure S2
Adsorbate Nitrogen: InChIKey IJGRMHOSHXDMSA-UHFFFAOYSA-N
Kind: experiment
Temperature: 77 K
Tabular data in the source: 0
pressure (bar)	uptake (cm3(STP)/g)
0.011338	0.05495
0.034399	0.08255
0.068798	0.10832
0.078961	0.1117
0.10183	0.11508
0.121182	0.12106
0.140535	0.12287
0.163596	0.12703
0.183334	0.1265
0.202494	0.12675
0.252527	0.13115
0.304516	0.13399
0.354357	0.13396
0.425891	0.13471
0.455214	0.13391
0.527336	0.13023
0.578149	0.13124
0.609225	0.13305
0.657505	0.13459
0.729039	0.1421
0.759335	0.15589
0.808588	0.17254
0.831072	0.19258
0.857649	0.21784
0.885604	0.2483
0.9114	0.28631
0.936812	0.34699
0.963197	0.44231
0.987818	0.61284
0.994465	0.70965
1.00357	0.90688
1.00702	1.06703
0.283481	0.00965
0.334984	0.02492
0.385554	0.03523
0.437057	0.0472
0.486391	0.05916
0.537893	0.07113
0.588464	0.0835
0.638416	0.09919
0.689614	0.11694
0.76128	0.15081
0.811861	0.17807
0.817129	0.19172
0.841639	0.21362
0.8677	0.24337
0.89221	0.28264
0.918584	0.3401
0.945273	0.43684
0.986227	0.73163
