Adsorption isotherm of Nitrogen on raw miscanthus-40
DOI: 10.1021/acssuschemeng.6b02564
Article source: Figure S2
Adsorbate Nitrogen: InChIKey IJGRMHOSHXDMSA-UHFFFAOYSA-N
Kind: experiment
Temperature: 77 K
Tabular data in the source: 0
pressure (bar)	uptake (cm3(STP)/g)
0.010831	0.625
0.03445	1.184
0.069497	1.526
0.082274	1.66
0.101242	1.839
0.119055	2.01
0.14248	2.114
0.164559	2.248
0.178106	2.285
0.200954	2.36
0.254969	2.642
0.304729	2.903
0.355461	2.977
0.405799	3.186
0.455751	3.387
0.507061	3.424
0.557793	3.573
0.609286	3.752
0.659826	3.893
0.709585	4.176
0.759923	4.578
0.809682	4.913
0.828457	5.188
0.860597	5.531
0.884793	6.037
0.911502	6.789
0.93279	7.793
0.963551	9.781
0.984029	14.24
0.992905	17.165
1.00309	23.812
1.00726	31.799
0.125843	1.377
0.182564	1.853
0.252852	2.181
0.304344	2.434
0.354884	2.672
0.405029	2.858
0.456339	3.022
0.506291	3.238
0.556436	3.424
0.607938	3.699
0.658275	3.945
0.708805	4.213
0.75895	4.533
0.790319	4.823
0.816066	5.166
0.842197	5.486
0.866595	5.97
0.892919	6.707
0.918463	7.793
0.945931	9.855
0.972995	14.24
0.989379	21.103
