Adsorption isotherm of Nitrogen on Lignin
DOI: 10.1021/acssuschemeng.6b02564
Article source: Figure S2
Adsorbate Nitrogen: InChIKey IJGRMHOSHXDMSA-UHFFFAOYSA-N
Kind: experiment
Temperature: 77 K
Tabular data in the source: 0
pressure (bar)	uptake (cm3(STP)/g)
0.009555	4.234
0.031856	5.524
0.063357	6.375
0.079457	6.71
0.101303	7.02
0.120159	7.561
0.13786	7.716
0.160161	8.18
0.180862	8.567
0.203396	8.876
0.252132	9.082
0.306168	9.674
0.352614	10.474
0.40665	11.144
0.455629	11.891
0.505065	12.406
0.557033	13.206
0.60807	14.289
0.65636	15.527
0.709241	17.281
0.758453	19.216
0.809034	22.132
0.832946	24.196
0.860769	27.345
0.885148	30.907
0.909283	35.785
0.933894	43.192
0.963784	56.408
0.99022	70.037
0.991831	74.709
0.999653	83.795
1.00563	92.932
0.146179	7.987
0.202575	8.703
0.251666	9.399
0.304405	9.91
0.339077	10.483
0.40058	11.178
0.458071	11.996
0.50625	13.512
0.558259	14.842
0.609549	16.439
0.661741	18.589
0.709372	21.17
0.757187	25
0.811384	30.961
0.836026	34.73
0.861205	39.442
0.890771	46.366
0.913954	53.311
0.932932	59.703
0.968334	77.034
0.984029	86.397
0.987859	88.65
0.994252	91.129
