Adsorption isotherm of Water, Sb(V) on FeOOH prepared at pH 4
DOI: 10.3390/su9020238
Article source: Figure 1
Adsorbate Water: InChIKey XLYOFNOQVPJJNP-UHFFFAOYSA-N
Adsorbate Sb(V): InChIKey ZDINGUUTWDGGFF-UHFFFAOYSA-N
Kind: experiment
Temperature: 293 K
Tabular data in the source: 0
pressure (bar)	Water fraction	Water uptake (mg/g)	Sb(V) fraction	Sb(V) uptake (mg/g)	total uptake (mg/g)
1.01325			36	2.483	
1.01325			83.54	3.735	
1.01325			202.37	5.868	
1.01325			375.75	7.907	
1.01325			562.96	14.216	
1.01325			837.77	22.032	
