Adsorption isotherm of Water, Sb(V) on FeOOH prepared at pH 9
DOI: 10.3390/su9020238
Article source: Figure 1
Adsorbate Water: InChIKey XLYOFNOQVPJJNP-UHFFFAOYSA-N
Adsorbate Sb(V): InChIKey ZDINGUUTWDGGFF-UHFFFAOYSA-N
Kind: experiment
Temperature: 293 K
Tabular data in the source: 0
pressure (bar)	Water fraction	Water uptake (mg/g)	Sb(V) fraction	Sb(V) uptake (mg/g)	total uptake (mg/g)
1.01325			89.18	0.3	
1.01325			270.03	2.826	
1.01325			470.8	6.141	
1.01325			705.31	11.01	
1.01325			913.79	17.482	
