Adsorption isotherm of Sb(III), Water on FeOOH synthesized at pH 4
DOI: 10.3390/su9020238
Article source: Figure 5
Adsorbate Sb(III): InChIKey FAWGZAFXDJGWBB-UHFFFAOYSA-N
Adsorbate Water: InChIKey XLYOFNOQVPJJNP-UHFFFAOYSA-N
Kind: experiment
Temperature: 293 K
Tabular data in the source: 0
pressure (bar)	Sb(III) fraction	Sb(III) uptake (mg/g)	Water fraction	Water uptake (mg/g)	total uptake (mg/g)
1.01325	1.046	0.1793			
1.01325	1.94	0.4954			
1.01325	2.661	1.0126			
1.01325	2.946	1.591			
1.01325	3.624	2.1797			
1.01325	4.279	2.7373			
1.01325	6.241	3.3385			
1.01325	8.573	3.7696			
1.01325	10.187	4.3583			
1.01325	12.779	5.0088			
