Adsorption isotherm of Sb(III), Water on FeOOH prepared at pH 4
DOI: 10.3390/su9020238
Article source: Figure 1
Adsorbate Sb(III): InChIKey FAWGZAFXDJGWBB-UHFFFAOYSA-N
Adsorbate Water: InChIKey XLYOFNOQVPJJNP-UHFFFAOYSA-N
Kind: experiment
Temperature: 293 K
Tabular data in the source: 0
pressure (bar)	Sb(III) fraction	Sb(III) uptake (mg/g)	Water fraction	Water uptake (mg/g)	total uptake (mg/g)
1.01325	3.9	2.95			
1.01325	10.616	4.354			
1.01325	15.091	6.337			
1.01325	22.064	9.385			
1.01325	32.058	12.255			
1.01325	85.319	21.774			
1.01325	175.79	48.154			
1.01325	536.88	82.687			
1.01325	788.91	98.167			
1.01325	969.46	105.794			
