Adsorption isotherm of Water, Sb(V) on AquAsZero
DOI: 10.3390/su9020238
Article source: Figure 5
Adsorbate Water: InChIKey XLYOFNOQVPJJNP-UHFFFAOYSA-N
Adsorbate Sb(V): InChIKey ZDINGUUTWDGGFF-UHFFFAOYSA-N
Kind: experiment
Temperature: 293 K
Tabular data in the source: 0
pressure (bar)	Water fraction	Water uptake (mg/g)	Sb(V) fraction	Sb(V) uptake (mg/g)	total uptake (mg/g)
1.01325			2.352	0.057	
1.01325			18.268	0.2351	
1.01325			23.994	0.2547	
1.01325			25.235	0.3231	
1.01325			57.154	0.4793	
1.01325			61.618	0.4948	
1.01325			65.689	0.5124	
1.01325			75.074	0.646	
1.01325			83.804	0.6749	
1.01325			94.255	0.679	
