Adsorption isotherm of Water, Sb(V) on FeOOH prepared at pH 7
DOI: 10.3390/su9020238
Article source: Figure 1
Adsorbate Water: InChIKey XLYOFNOQVPJJNP-UHFFFAOYSA-N
Adsorbate Sb(V): InChIKey ZDINGUUTWDGGFF-UHFFFAOYSA-N
Kind: experiment
Temperature: 293 K
Tabular data in the source: 0
pressure (bar)	Water fraction	Water uptake (mg/g)	Sb(V) fraction	Sb(V) uptake (mg/g)	total uptake (mg/g)
1.01325			62.25	1.507	
1.01325			156.86	2.712	
1.01325			316.66	4.241	
1.01325			533.05	7.347	
1.01325			768.91	12.889	
1.01325			949.09	15.671	
