Adsorption isotherm of Sb(III), Water on GFH
DOI: 10.3390/su9020238
Article source: Figure 3
Adsorbate Sb(III): InChIKey FAWGZAFXDJGWBB-UHFFFAOYSA-N
Adsorbate Water: InChIKey XLYOFNOQVPJJNP-UHFFFAOYSA-N
Kind: experiment
Temperature: 293 K
Tabular data in the source: 0
pressure (bar)	Sb(III) fraction	Sb(III) uptake (mg/g)	Water fraction	Water uptake (mg/g)	total uptake (mg/g)
1.01325	26.77	5.511			
1.01325	42.07	8.31			
1.01325	199.5	26.166			
1.01325	600.21	44.977			
1.01325	900.85	53.092			
