Adsorption isotherm of Sb(III), Water on FeOOH prepared at pH 9
DOI: 10.3390/su9020238
Article source: Figure 1
Adsorbate Sb(III): InChIKey FAWGZAFXDJGWBB-UHFFFAOYSA-N
Adsorbate Water: InChIKey XLYOFNOQVPJJNP-UHFFFAOYSA-N
Kind: experiment
Temperature: 293 K
Tabular data in the source: 0
pressure (bar)	Sb(III) fraction	Sb(III) uptake (mg/g)	Water fraction	Water uptake (mg/g)	total uptake (mg/g)
1.01325	5.099	2.257			
1.01325	8.431	2.967			
1.01325	12.492	3.919			
1.01325	25.457	5.823			
1.01325	57.476	11.711			
1.01325	218.82	22.71			
1.01325	601.7	43.148			
1.01325	944.3	55.53			
