Adsorption isotherm of Sb(III), Water on AquAsZero
DOI: 10.3390/su9020238
Article source: Figure 3
Adsorbate Sb(III): InChIKey FAWGZAFXDJGWBB-UHFFFAOYSA-N
Adsorbate Water: InChIKey XLYOFNOQVPJJNP-UHFFFAOYSA-N
Kind: experiment
Temperature: 293 K
Tabular data in the source: 0
pressure (bar)	Sb(III) fraction	Sb(III) uptake (mg/g)	Water fraction	Water uptake (mg/g)	total uptake (mg/g)
1.01325	62.25	1.172			
1.01325	81.37	1.389			
1.01325	101.35	1.757			
1.01325	147.88	1.909			
1.01325	193.98	2.061			
1.01325	249.01	1.692			
1.01325	550.28	2.821			
1.01325	850.07	4.86			
