Adsorption isotherm of Sb(III), Water on FeOOH prepared at pH 7
DOI: 10.3390/su9020238
Article source: Figure 1
Adsorbate Sb(III): InChIKey FAWGZAFXDJGWBB-UHFFFAOYSA-N
Adsorbate Water: InChIKey XLYOFNOQVPJJNP-UHFFFAOYSA-N
Kind: experiment
Temperature: 293 K
Tabular data in the source: 0
pressure (bar)	Sb(III) fraction	Sb(III) uptake (mg/g)	Water fraction	Water uptake (mg/g)	total uptake (mg/g)
1.01325	3.746	1.741			
1.01325	9.421	2.726			
1.01325	11.556	3.355			
1.01325	27.49	4.663			
1.01325	70.446	10.746			
1.01325	192.57	27.721			
1.01325	517.29	49.615			
1.01325	889.76	70.819			
