Adsorption isotherm of Water, Sb(V) on FeOOH synthesized at pH 4
DOI: 10.3390/su9020238
Article source: Figure 5
Adsorbate Water: InChIKey XLYOFNOQVPJJNP-UHFFFAOYSA-N
Adsorbate Sb(V): InChIKey ZDINGUUTWDGGFF-UHFFFAOYSA-N
Kind: experiment
Temperature: 293 K
Tabular data in the source: 0
pressure (bar)	Water fraction	Water uptake (mg/g)	Sb(V) fraction	Sb(V) uptake (mg/g)	total uptake (mg/g)
1.01325			4.855	0.03	
1.01325			26.846	0.1552	
1.01325			33.008	0.1852	
1.01325			34.445	0.2173	
1.01325			47.334	0.3602	
1.01325			48.815	0.3788	
1.01325			49.838	0.3975	
1.01325			62.815	0.5114	
1.01325			72.983	0.5341	
1.01325			94.059	0.5421	
