Adsorption isotherm of Sb(III), Water on AquAsZero
DOI: 10.3390/su9020238
Article source: Figure 5
Adsorbate Sb(III): InChIKey FAWGZAFXDJGWBB-UHFFFAOYSA-N
Adsorbate Water: InChIKey XLYOFNOQVPJJNP-UHFFFAOYSA-N
Kind: experiment
Temperature: 293 K
Tabular data in the source: 0
pressure (bar)	Sb(III) fraction	Sb(III) uptake (mg/g)	Water fraction	Water uptake (mg/g)	total uptake (mg/g)
1.01325	5.226	0.2135			
1.01325	12.912	0.3388			
1.01325	20.773	0.4372			
1.01325	34.534	0.7583			
1.01325	53.02	0.9914			
1.01325	66.302	1.3291			
1.01325	78.495	1.4648			
1.01325	92.976	1.8854			
