Adsorption isotherm of Sb(III), Water on Bayoxide
DOI: 10.3390/su9020238
Article source: Figure 3
Adsorbate Sb(III): InChIKey FAWGZAFXDJGWBB-UHFFFAOYSA-N
Adsorbate Water: InChIKey XLYOFNOQVPJJNP-UHFFFAOYSA-N
Kind: experiment
Temperature: 293 K
Tabular data in the source: 0
pressure (bar)	Sb(III) fraction	Sb(III) uptake (mg/g)	Water fraction	Water uptake (mg/g)	total uptake (mg/g)
1.01325	11.69	1.996			
1.01325	20.82	3.103			
1.01325	37.18	4.296			
1.01325	106.02	5.489			
1.01325	299.58	8.071			
1.01325	650.14	10.566			
1.01325	920.82	11.651			
