Adsorption isotherm of Sb(III), Water on FeOOH prepared at pH 4
DOI: 10.3390/su9020238
Article source: Figure 3
Adsorbate Sb(III): InChIKey FAWGZAFXDJGWBB-UHFFFAOYSA-N
Adsorbate Water: InChIKey XLYOFNOQVPJJNP-UHFFFAOYSA-N
Kind: experiment
Temperature: 293 K
Tabular data in the source: 0
pressure (bar)	Sb(III) fraction	Sb(III) uptake (mg/g)	Water fraction	Water uptake (mg/g)	total uptake (mg/g)
1.01325	7.22	3.471			
1.01325	13.6	4.361			
1.01325	17.21	5.988			
1.01325	22.52	8.982			
1.01325	31.02	11.456			
1.01325	86.9	21.393			
1.01325	177.62	47.472			
1.01325	540.51	81.666			
1.01325	796.95	96.767			
