Adsorption isotherm of Nitrogen on Ph-An-COF generated by heating Ph-AnCD-COF at 1008C under Ar in the dark
DOI: 10.1002/anie.201503902
Article source: Figure 2d
Adsorbate Nitrogen: InChIKey IJGRMHOSHXDMSA-UHFFFAOYSA-N
Kind: experiment
Temperature: 77 K
Tabular data in the source: 0
pressure (bar)	uptake (cm3(STP)/g)
0.00596	228.296
0.011921	260.45
0.020861	295.82
0.023841	327.974
0.029801	363.344
0.035762	411.576
0.077484	491.961
0.107285	562.701
0.116226	594.855
0.137087	607.717
0.149007	617.363
0.163908	623.794
0.19371	630.225
0.21159	633.44
0.220531	633.44
0.241392	636.656
0.253312	639.871
0.280134	646.302
0.298015	652.733
0.360598	665.595
0.40828	668.81
0.447022	675.241
0.485764	688.103
0.506625	700.965
0.539407	713.826
0.587089	736.334
0.658613	745.981
0.706295	752.412
0.753977	765.273
0.798679	778.135
0.855302	787.781
0.908945	800.643
0.965568	836.013
0.983449	871.383
1.00729	909.968
0.992389	848.875
0.965568	819.936
0.935766	803.859
0.902985	787.781
0.876163	778.135
0.825501	755.627
0.786759	742.765
0.703315	729.904
0.664573	723.473
0.619871	713.826
0.566228	700.965
0.518546	697.749
0.458943	681.672
0.384439	681.672
0.306955	659.164
0.253312	649.518
