Adsorption isotherm of Nitrogen on Ph-An-COF
DOI: 10.1002/anie.201503902
Article source: Figure 2d
Adsorbate Nitrogen: InChIKey IJGRMHOSHXDMSA-UHFFFAOYSA-N
Kind: experiment
Temperature: 77 K
Tabular data in the source: 0
pressure (bar)	uptake (cm3(STP)/g)
0.00298	138.264
0.00596	170.418
0.00298	202.572
0.00894	234.727
0.00894	254.019
0.017881	308.682
0.023841	337.621
0.023841	376.206
0.032782	408.36
0.044702	437.299
0.050662	453.376
0.095365	549.839
0.107285	594.855
0.122186	623.794
0.146027	646.302
0.178809	659.164
0.21159	665.595
0.241392	681.672
0.280134	697.749
0.303975	697.749
0.348677	704.18
0.40828	720.257
0.458943	729.904
0.518546	742.765
0.566228	755.627
0.61689	765.273
0.670533	768.489
0.712255	781.35
0.762918	797.428
0.831461	816.72
0.885104	836.013
0.935766	868.167
0.968548	900.322
0.986429	935.691
0.998349	996.785
0.983449	945.338
0.959607	916.399
0.917885	890.675
0.855302	868.167
0.798679	845.659
0.748017	829.582
0.697354	813.505
0.649672	807.074
0.593049	790.997
0.545367	781.35
0.494704	762.058
0.455962	739.55
0.393379	729.904
0.330796	713.826
0.265233	700.965
0.220531	694.534
0.190729	688.103
0.160928	678.457
0.146027	668.81
0.128146	646.302
