Adsorption isotherm of Nitrogen on Ph-AnCD-COF
DOI: 10.1002/anie.201503902
Article source: Figure 2d
Adsorbate Nitrogen: InChIKey IJGRMHOSHXDMSA-UHFFFAOYSA-N
Kind: experiment
Temperature: 77 K
Tabular data in the source: 0
pressure (bar)	uptake (cm3(STP)/g)
0.00596	215.434
0.00596	241.158
0.014901	270.096
0.023841	305.466
0.032782	340.836
0.041722	363.344
0.053643	389.068
0.065563	405.145
0.089404	446.945
0.098345	469.453
0.119206	491.961
0.140067	508.039
0.160928	517.685
0.181789	524.116
0.20265	527.331
0.214571	530.547
0.238412	533.762
0.259273	533.762
0.283114	540.193
0.303975	543.408
0.369538	546.624
0.423181	553.055
0.473843	562.701
0.518546	565.916
0.569208	572.347
0.619871	575.563
0.673513	598.071
0.724176	598.071
0.774838	604.502
0.825501	614.148
0.873183	627.01
0.920865	652.733
0.968548	691.318
0.989409	745.981
0.995369	813.505
0.992389	787.781
0.977488	745.981
0.923846	704.18
0.864243	675.241
0.8106	662.379
0.750997	655.949
0.703315	639.871
0.649672	633.44
0.59901	620.579
0.548347	610.932
0.509605	594.855
0.458943	575.563
0.39934	569.132
0.342717	556.27
0.292054	556.27
0.247352	549.839
0.226491	549.839
0.20265	546.624
0.175829	540.193
0.149007	530.547
0.125166	508.039
