Adsorption isotherm of Propene on SAPO-5
DOI: 10.1016/j.apsusc.2009.12.120
Adsorbate Propene: InChIKey QQONPFPTGQHPMA-UHFFFAOYSA-N
Temperature: 303 K
Tabular data in the source: 0
pressure (bar)	uptake (mmol/g)
4.96e-05	0.000716
9.94e-05	0.000416
0.000251	0.000284
0.000502	0.00019
