Adsorption isotherm of N-propane on ZSM-5
DOI: 10.1016/j.apsusc.2009.12.120
Adsorbate N-propane: InChIKey ATUOYWHBWRKTHZ-UHFFFAOYSA-N
Temperature: 293 K
Tabular data in the source: 0
pressure (bar)	uptake (mmol/g)
0.000511848	0.0586063
0.00068591	0.0800016
0.000900929	0.110242
0.00113642	0.140875
0.00141288	0.166938
0.00156646	0.17833
0.00185315	0.211322
0.00231391	0.257603
0.00280538	0.311074
0.00378832	0.379202
0.00456648	0.445139
0.00498628	0.466631
0.00567229	0.527493
0.00622519	0.552961
0.00708527	0.625082
0.00788391	0.680452
0.00861088	0.726886
0.00945047	0.720064
0.0100546	0.761982
