Adsorption isotherm of Propene on SAPO-5
DOI: 10.1016/j.apsusc.2009.12.120
Adsorbate Propene: InChIKey QQONPFPTGQHPMA-UHFFFAOYSA-N
Temperature: 303 K
Tabular data in the source: 0
pressure (bar)	uptake (mmol/g)
5.97e-06	0.00935852
8.81e-06	0.00567524
1.45e-05	0.00344161
2.23e-05	0.00202009
3.93e-05	0.00123843
6.19e-05	0.000793
9.38e-05	0.000579
0.000129	0.000422
0.000155	0.000355
0.000194	0.000315
0.000231	0.000267
0.000277	0.00024
0.000318	0.00022
0.000347	0.00021
0.000374	0.000197
0.000407	0.000193
0.000442	0.000179
0.000474	0.000173
0.000502	0.000171
