Adsorption isotherm of N-propane on ZSM-5
DOI: 10.1016/j.apsusc.2009.12.120
Adsorbate N-propane: InChIKey ATUOYWHBWRKTHZ-UHFFFAOYSA-N
Temperature: 296 K
Tabular data in the source: 0
pressure (bar)	uptake (mmol/g)
0.000302	0.0800941
0.000519	0.121489
0.000669	0.168184
0.00094	0.221529
0.00128889	0.270297
0.0018151	0.3298
0.00236347	0.385818
0.00288415	0.419701
0.00351561	0.446198
0.00439633	0.483531
0.00495024	0.510139
0.00567033	0.536156
0.00641257	0.559204
0.00694986	0.574384
0.00747608	0.594509
0.00816847	0.603678
0.00887748	0.624828
0.00940369	0.632042
0.010013	0.639339
