Adsorption isotherm of N-propane on ZSM-5
DOI: 10.1016/j.apsusc.2009.12.120
Adsorbate N-propane: InChIKey ATUOYWHBWRKTHZ-UHFFFAOYSA-N
Temperature: 293 K
Tabular data in the source: 0
pressure (bar)	uptake (mmol/g)
0.000695562	0.0504605
0.00100144	0.0769983
0.00137287	0.124804
0.0017443	0.165418
0.00229052	0.223704
0.00281489	0.247384
0.00342665	0.284806
0.00397287	0.308678
0.00452553	0.345076
0.00504771	0.382795
0.00548799	0.420651
0.00604089	0.457913
0.00652213	0.498475
0.00712623	0.563489
0.00767913	0.613403
0.00822179	0.649112
0.00869279	0.693408
0.00922521	0.726886
0.00969621	0.75483
0.0100239	0.769201
