Adsorption isotherm of Propene on Mordenite
DOI: 10.1016/j.apsusc.2009.12.120
Adsorbate Propene: InChIKey QQONPFPTGQHPMA-UHFFFAOYSA-N
Temperature: 303 K
Tabular data in the source: 0
pressure (bar)	uptake (mmol/g)
7.6e-06	0.220774
1.4e-05	0.274971
3.12e-05	0.290484
5.34e-05	0.306872
8.12e-05	0.306872
0.000111	0.306872
0.000162	0.310259
0.000216	0.310259
0.000266	0.310259
0.000321	0.313683
0.000387	0.310259
0.000437	0.313683
0.00047	0.310259
0.000496	0.310259
