Adsorption isotherm of Propene on Zeolite Beta
DOI: 10.1016/j.apsusc.2009.12.120
Adsorbate Propene: InChIKey QQONPFPTGQHPMA-UHFFFAOYSA-N
Temperature: 303 K
Tabular data in the source: 0
pressure (bar)	uptake (mmol/g)
4.96e-05	1.01784
0.000103	1.72621
0.000251	2.92755
0.000501	3.49121
