Adsorption isotherm of Propene on ZSM-5
DOI: 10.1016/j.apsusc.2009.12.120
Adsorbate Propene: InChIKey QQONPFPTGQHPMA-UHFFFAOYSA-N
Temperature: 303 K
Tabular data in the source: 0
pressure (bar)	uptake (mmol/g)
5.03e-06	0.000824
1.16e-05	0.00175314
2.08e-05	0.00328795
3.91e-05	0.00543766
6.14e-05	0.00876951
0.000101	0.0137796
0.000128	0.0172254
0.000156	0.0198544
0.000184	0.0217526
0.00021	0.0243208
0.000247	0.0313423
0.000288	0.0391801
0.000315	0.0420638
0.000346	0.0451597
0.000383	0.0494773
0.000414	0.0504915
0.000442	0.0525827
0.000468	0.0536606
0.000499	0.0570285
