Adsorption isotherm of N-propane on ZSM-5
DOI: 10.1016/j.apsusc.2009.12.120
Adsorbate N-propane: InChIKey ATUOYWHBWRKTHZ-UHFFFAOYSA-N
Temperature: 296 K
Tabular data in the source: 0
pressure (bar)	uptake (mmol/g)
0.00102329	0.237625
0.00148212	0.334553
0.00187539	0.417445
0.00248716	0.520875
0.00305523	0.599666
0.0035359	0.663143
0.00423506	0.70441
0.00504346	0.794809
0.00565523	0.810965
0.00617959	0.878942
0.00666027	0.878942
0.00740313	0.915038
0.00818968	0.952617
0.00882329	0.991738
0.0095006	1.05345
0.010025	1.03247
