Adsorption isotherm of N-propane on ZSM-5
DOI: 10.1016/j.apsusc.2009.12.120
Adsorbate N-propane: InChIKey ATUOYWHBWRKTHZ-UHFFFAOYSA-N
Temperature: 281 K
Tabular data in the source: 0
pressure (bar)	uptake (mmol/g)
0.000122767	0.00816518
0.000194439	0.0152151
0.000317307	0.0239256
0.000511848	0.0390691
0.000757583	0.055907
0.0010238	0.0763169
0.00140264	0.0957006
0.00202722	0.13566
0.00270299	0.174998
0.00319446	0.199697
0.00396238	0.23222
0.00470983	0.270041
0.00540608	0.311074
0.0059897	0.332302
0.00644021	0.361737
0.00697264	0.39378
0.00754602	0.420651
0.00843681	0.453615
0.00922521	0.489161
0.00976788	0.507965
0.0100239	0.512778
