Adsorption isotherm of N-propane on ZSM-5
DOI: 10.1016/j.apsusc.2009.12.120
Adsorbate N-propane: InChIKey ATUOYWHBWRKTHZ-UHFFFAOYSA-N
Temperature: 281 K
Tabular data in the source: 0
pressure (bar)	uptake (mmol/g)
8.69e-05	0.223231
0.000303	0.268236
0.000624	0.295162
0.000984	0.303175
0.00162677	0.313797
0.00240225	0.319858
0.00295616	0.327286
0.0031888	0.324791
0.00396428	0.327286
0.00503887	0.326036
0.00580881	0.332334
0.00650673	0.328541
0.00729329	0.3298
0.00816293	0.3298
0.00890517	0.331065
0.00953109	0.332334
0.0100296	0.333608
