Adsorption isotherm of N-propane on ZSM-5
DOI: 10.1016/j.apsusc.2009.12.120
Adsorbate N-propane: InChIKey ATUOYWHBWRKTHZ-UHFFFAOYSA-N
Temperature: 296 K
Tabular data in the source: 0
pressure (bar)	uptake (mmol/g)
0.00180985	0.636984
0.00253086	0.663143
0.00296783	0.676623
0.0034485	0.718729
0.00388548	0.748246
0.00427875	0.778974
0.00480312	0.810965
0.00550228	0.82745
0.00607035	0.878942
0.00657287	0.915038
0.00718464	0.915038
0.00766531	0.971981
0.00810228	0.971981
0.00867035	0.991738
0.00926027	1.0119
0.00956615	1.05345
0.00998128	1.03247
