Adsorption isotherm of Propene on ZSM-5
DOI: 10.1016/j.apsusc.2009.12.120
Adsorbate Propene: InChIKey QQONPFPTGQHPMA-UHFFFAOYSA-N
Temperature: 303 K
Tabular data in the source: 0
pressure (bar)	uptake (mmol/g)
4.98e-05	0.392522
9.85e-05	0.648585
0.000251	0.978171
0.000499	1.14765
