Adsorption isotherm of Propene on Zeolite Beta
DOI: 10.1016/j.apsusc.2009.12.120
Adsorbate Propene: InChIKey QQONPFPTGQHPMA-UHFFFAOYSA-N
Temperature: 303 K
Tabular data in the source: 0
pressure (bar)	uptake (mmol/g)
7.13e-06	0.00117504
1.12e-05	0.00227058
1.8e-05	0.00409193
3.1e-05	0.00703925
4.83e-05	0.0111199
6.89e-05	0.0165102
9.96e-05	0.024324
0.000132	0.0326536
0.000168	0.0408824
0.00021	0.0481078
0.000242	0.0574945
0.000264	0.0630979
0.000311	0.0731076
0.000367	0.0840514
0.000407	0.0929606
0.000447	0.0996759
0.000475	0.108546
0.000499	0.114597
