Adsorption isotherm of N-propane on ZSM-5
DOI: 10.1016/j.apsusc.2009.12.120
Adsorbate N-propane: InChIKey ATUOYWHBWRKTHZ-UHFFFAOYSA-N
Temperature: 281 K
Tabular data in the source: 0
pressure (bar)	uptake (mmol/g)
0.000522087	0.019813
0.000716627	0.0280859
0.00100332	0.0348889
0.00163814	0.0458626
0.00227295	0.060288
0.00293848	0.07777
0.0036245	0.0984468
0.00426955	0.121145
0.00499652	0.151914
0.00589755	0.171728
0.00671667	0.197822
0.00739244	0.209338
0.00808869	0.219445
0.00881565	0.227881
0.00963477	0.241147
0.0100648	0.250418
