Adsorption isotherm of Propene on Mordenite
DOI: 10.1016/j.apsusc.2009.12.120
Adsorbate Propene: InChIKey QQONPFPTGQHPMA-UHFFFAOYSA-N
Temperature: 303 K
Tabular data in the source: 0
pressure (bar)	uptake (mmol/g)
5.09e-05	0.221808
0.000102	0.331716
0.000254	0.467023
0.000501	0.571128
