Adsorption isotherm of Nitrogen on CuBTC
DOI: 10.1021/acs.iecr.6b00774
Article source: Figure 2B
Adsorbate Nitrogen: InChIKey IJGRMHOSHXDMSA-UHFFFAOYSA-N
Kind: experiment
Temperature: 77 K
Tabular data in the source: 0
pressure (bar)	uptake (cm3(STP)/g)
0.007042	406.57
0.011024	413.27
0.015847	417.92
0.023609	422.32
0.064169	435.32
0.12235	444.79
0.147144	448.29
0.175242	451.27
0.185536	451.78
0.210189	453.17
0.257903	455.95
0.270406	456.77
0.307076	458.92
0.365439	459.84
0.414115	462.05
0.456044	462.41
0.516251	464.8
0.557439	464.84
0.615063	466.28
0.658572	465.55
0.699892	466.67
0.758853	466.39
0.804338	467.76
0.859256	467.09
0.949354	468.26
0.962719	468.25
0.994221	468.29
