Adsorption isotherm of Nitrogen on CuBTC
DOI: 10.1021/acs.iecr.6b00774
Article source: Figure 2B
Adsorbate Nitrogen: InChIKey IJGRMHOSHXDMSA-UHFFFAOYSA-N
Kind: experiment
Temperature: 77 K
Tabular data in the source: 0
pressure (bar)	uptake (cm3(STP)/g)
0.003141	309.38
0.007863	316.78
0.014165	321.82
0.024511	327.43
0.067746	337.68
0.113038	345.63
0.146556	351.48
0.175748	353.63
0.181605	349.93
0.207625	354.13
0.25999	356.52
0.270872	353.64
0.305475	357.2
0.363929	355.57
0.412859	357.52
0.416912	359.11
0.455871	356.35
0.508864	361.55
0.514001	360.14
0.556771	358.46
0.595284	360.8
0.658511	357.83
0.696164	360.23
0.7578	358.15
0.797793	361.7
0.800711	359.41
0.860766	358.16
0.94671	359.32
0.961655	358.87
0.99415	359.74
