Adsorption isotherm of Congo Red on Luffa cylindrica fiber
DOI: 10.1016/j.proeng.2017.07.057
Article source: Figure 4c
Adsorbate Congo Red: InChIKey IQFVPQOLBLOTPF-HKXUKFGYSA-L
Kind: experiment
Temperature: 298 K
Tabular data in the source: 0
pressure (bar)	uptake (mg/g)
1.01325	0.0686
1.01325	1.0119
1.01325	4.5427
1.01325	6.8369
1.01325	13.3639
