Adsorption isotherm of Nitrogen on MOF(Fe/Co)
DOI: 10.1016/j.ijhydene.2013.12.120
Adsorbate Nitrogen: InChIKey IJGRMHOSHXDMSA-UHFFFAOYSA-N
Temperature: 77 K
Tabular data in the source: 0
pressure (bar)	uptake (cm3(STP)/g)
-0.00187256	67.3913
0.000491163	34.7826
0.0012893	91.3043
0.00162698	115.217
0.00489628	146.739
0.00810419	173.913
0.00841117	195.652
0.00848791	201.087
0.00865675	213.043
0.0144126	220.652
0.0230079	229.348
0.0315879	236.957
0.048886	261.957
0.0546112	267.391
0.0746567	286.957
0.0917707	298.913
0.108915	313.043
0.12606	327.174
0.148761	334.783
0.174209	336.957
0.199658	339.13
0.222297	342.391
0.250585	345.652
0.281697	348.913
0.312793	351.087
0.366469	352.174
0.406038	354.348
0.448417	355.435
0.485146	356.522
0.524715	358.696
0.547324	359.783
0.609471	360.87
0.65188	364.13
0.682962	365.217
0.719707	367.391
0.76778	371.739
0.787549	371.739
0.829942	373.913
0.866672	375
0.903463	380.435
0.926118	384.783
0.948804	391.304
0.954529	396.739
