Adsorption isotherm of Nitrogen on ZIF-8-0.025 WT% CTAB
DOI: 10.1039/C1ce05780d
Adsorbate Nitrogen: InChIKey IJGRMHOSHXDMSA-UHFFFAOYSA-N
Temperature: 77 K
Tabular data in the source: 0
pressure (bar)	uptake (cm3(STP)/g)
0.0015695	284.66
0.091031	407.209
0.130268	421.867
0.158519	421.819
0.213452	423.362
0.240133	424.954
0.277801	424.89
0.304483	426.481
0.331164	424.8
0.367263	428.011
0.393944	427.966
0.426904	426.275
0.456724	426.225
0.492823	429.436
0.516365	429.396
0.543047	429.351
0.574437	432.571
0.607396	434.151
0.634078	432.47
0.665468	435.689
0.761207	438.8
0.786319	442.03
0.84596	446.837
0.875781	453.331
0.905601	468.005
0.930713	508.862
0.969951	690.391
