Adsorption isotherm of Nitrogen on ZIF-8
DOI: 10.1039/C1ce05780d
Adsorbate Nitrogen: InChIKey IJGRMHOSHXDMSA-UHFFFAOYSA-N
Temperature: 77 K
Tabular data in the source: 0
pressure (bar)	uptake (cm3(STP)/g)
0.009417	341.906
0.018834	361.522
0.025112	404.048
0.047085	407.283
0.0769055	407.232
0.087892	410.486
0.279371	413.435
0.307622	411.752
0.354707	413.309
0.382958	411.625
0.417487	409.931
0.444168	411.522
0.536769	409.73
0.56502	411.318
0.624661	407.946
0.685871	409.479
0.717261	412.698
0.747082	411.012
0.761207	412.624
0.838113	409.223
0.850669	409.201
0.87892	410.79
0.91031	417.281
0.926005	417.255
0.9417	422.136
0.952686	430.298
