Adsorption isotherm of Pluronic F127 on Silica
DOI: 10.1016/j.carbpol.2017.02.012
Article source: Figure 6b
Adsorbate Pluronic F127: InChIKey NIST-ISODB-0831C421D22BF0496949
Kind: experiment
Temperature: 303 K
Tabular data in the source: 0
pressure (bar)	uptake (mg/m2)
1.01325	0.09535
1.01325	0.23545
1.01325	1.23563
1.01325	1.2006
1.01325	1.29595
1.01325	1.55784
1.01325	2.36075
