Adsorption isotherm of Pluronic F127, Solcoat P55 on Silica
DOI: 10.1016/j.carbpol.2017.02.012
Article source: Figure 6a
Adsorbate Pluronic F127: InChIKey NIST-ISODB-0831C421D22BF0496949
Adsorbate Solcoat P55: InChIKey NIST-ISODB-88C6BA74DC27D71F866E
Kind: experiment
Temperature: 293 K
Tabular data in the source: 0
pressure (bar)	Pluronic F127 fraction	Pluronic F127 uptake (mg/m2)	Solcoat P55 fraction	Solcoat P55 uptake (mg/m2)	total uptake (mg/m2)
1.01325	0.615	0.06181			50
1.01325	5.074	0.58354			50
1.01325	19.988	0.71604			50
1.01325	50.042	0.8323			50
