Adsorption isotherm of Pluronic F127, Solcoat P55 on Silica
DOI: 10.1016/j.carbpol.2017.02.012
Article source: Figure 6b
Adsorbate Pluronic F127: InChIKey NIST-ISODB-0831C421D22BF0496949
Adsorbate Solcoat P55: InChIKey NIST-ISODB-88C6BA74DC27D71F866E
Kind: experiment
Temperature: 303 K
Tabular data in the source: 0
pressure (bar)	Pluronic F127 fraction	Pluronic F127 uptake (mg/m2)	Solcoat P55 fraction	Solcoat P55 uptake (mg/m2)	total uptake (mg/m2)
1.01325	0.366	0.03016			100
1.01325	4.87	0.62073			100
1.01325	19.937	1.08969			100
1.01325	50.092	1.50391			100
