Adsorption isotherm of Pluronic F127 on Silica
DOI: 10.1016/j.carbpol.2017.02.012
Article source: Figure 6a
Adsorbate Pluronic F127: InChIKey NIST-ISODB-0831C421D22BF0496949
Kind: experiment
Temperature: 293 K
Tabular data in the source: 0
pressure (bar)	uptake (mg/m2)
1.01325	0.01927
1.01325	0.23706
1.01325	0.45647
1.01325	0.52376
1.01325	0.64062
1.01325	0.7091
1.01325	0.92179
