Adsorption isotherm of Hydrogen on MIL-101
DOI: 10.1039/C3ce42006j
Adsorbate Hydrogen: InChIKey UFHFLCQGNIYNRP-UHFFFAOYSA-N
Temperature: 77 K
Tabular data in the source: 0
pressure (bar)	uptake (wt%)
0.721053	1.26953
1.35032	1.53482
2.38002	1.83014
3.63854	2.0604
4.72545	2.23058
5.81236	2.36073
7.35692	2.51089
9.70235	2.66106
12.3338	2.7962
15.3657	2.89631
18.0544	2.98641
20.9147	3.05148
23.9466	3.12657
26.9213	3.19664
30.0104	3.2467
35.9026	3.32178
42.138	3.39186
