Adsorption isotherm of Hydrogen on MIL-101
DOI: 10.1039/C3ce42006j
Adsorbate Hydrogen: InChIKey UFHFLCQGNIYNRP-UHFFFAOYSA-N
Temperature: 77 K
Tabular data in the source: 0
pressure (bar)	uptake (wt%)
0.721053	1.06931
1.1787	1.28955
1.92237	1.63993
3.00928	1.89021
4.32501	2.10544
5.81236	2.27563
7.70015	2.47585
9.93117	2.63603
12.391	2.74615
14.622	2.83625
17.0247	2.91634
20.171	2.98141
22.8025	3.03146
25.8344	3.07151
28.4086	3.09653
31.4977	3.11656
34.644	3.12156
37.5615	3.12156
40.0786	3.12657
41.9664	3.11656
42.9389	3.10654
45.2843	3.09653
