Adsorption isotherm of Hydrogen on MIL-101
DOI: 10.1039/C3ce42006j
Adsorbate Hydrogen: InChIKey UFHFLCQGNIYNRP-UHFFFAOYSA-N
Temperature: 298 K
Tabular data in the source: 0
pressure (bar)	uptake (wt%)
0.0734863	0.00192692
0.876303	0.00624616
2.86222	0.0156358
4.59461	0.0246499
7.59461	0.0370443
9.11574	0.0441804
10.7214	0.0505654
12.4538	0.0580771
14.1017	0.0655889
16.3833	0.0749786
18.6228	0.0826781
20.82	0.0928189
22.8904	0.101645
24.4538	0.106716
26.7355	0.116105
28.9749	0.125119
32.1439	0.138453
35.5242	0.150847
38.5242	0.162303
41.6087	0.17357
44.6932	0.18465
