Adsorption isotherm of Nitrogen on MIL-101
DOI: 10.1039/C3ce42006j
Adsorbate Nitrogen: InChIKey IJGRMHOSHXDMSA-UHFFFAOYSA-N
Temperature: 77 K
Tabular data in the source: 0
pressure (bar)	uptake (cm3(STP)/g)
0.00726683	276.648
0.00914477	310.921
0.0175955	349.888
0.0410696	385.099
0.0758114	435.334
0.107736	475.709
0.128394	504.817
0.161257	522.658
0.199755	542.845
0.225107	580.404
0.239192	586.038
0.309614	593.08
0.40445	602
0.488957	606.695
0.578159	611.86
0.670178	617.024
0.747173	621.719
0.834497	627.822
0.896469	632.517
0.94999	641.906
0.970647	652.705
0.980976	669.137
0.991304	709.512
