Adsorption isotherm of Hydrogen on MIL-101
DOI: 10.1039/C3ce42006j
Adsorbate Hydrogen: InChIKey UFHFLCQGNIYNRP-UHFFFAOYSA-N
Temperature: 298 K
Tabular data in the source: 0
pressure (bar)	uptake (wt%)
0.411514	0.00380485
2.0594	0.0128189
3.66504	0.0210818
5.6087	0.0310349
7.59461	0.040049
9.49602	0.0501898
11.651	0.0599551
13.5946	0.0689692
15.834	0.080049
17.9045	0.0896264
19.8904	0.0988283
22.0031	0.109157
24.1157	0.118359
26.2707	0.128687
28.5946	0.138453
30.2425	0.145401
33.4538	0.160425
35.6932	0.170002
38.3974	0.18127
41.1017	0.192537
42.9186	0.199861
44.651	0.207185
