Adsorption isotherm of Hydrogen on MIL-101
DOI: 10.1039/C3ce42006j
Adsorbate Hydrogen: InChIKey UFHFLCQGNIYNRP-UHFFFAOYSA-N
Temperature: 77 K
Tabular data in the source: 0
pressure (bar)	uptake (wt%)
0.0345843	0.0531895
0.206201	0.413586
0.549436	0.969196
1.1787	1.25451
1.80796	1.46474
2.26561	1.65996
3.81016	1.9703
5.64075	2.19054
7.41412	2.37074
10.2172	2.56595
13.0203	2.7011
16.281	2.81122
19.3701	2.89631
24.8047	2.99142
30.2392	3.05649
35.3877	3.09653
40.7651	3.11155
42.4812	3.11155
45.5131	3.09153
