Adsorption isotherm of Hydrogen on MIL-101
DOI: 10.1039/C3ce42006j
Adsorbate Hydrogen: InChIKey UFHFLCQGNIYNRP-UHFFFAOYSA-N
Temperature: 298 K
Tabular data in the source: 0
pressure (bar)	uptake (wt%)
6.58053	0.0319739
10.2988	0.0515044
12.1157	0.0593917
14.0594	0.0684058
15.9186	0.0776077
17.6932	0.0853072
21.5383	0.102584
25.0453	0.118734
28.6369	0.134321
32.1017	0.148406
35.5664	0.16249
37.2566	0.169814
38.9045	0.176199
42.5383	0.191035
