Adsorption isotherm of Hydrogen on MIL-101
DOI: 10.1039/C3ce42006j
Adsorbate Hydrogen: InChIKey UFHFLCQGNIYNRP-UHFFFAOYSA-N
Temperature: 77 K
Tabular data in the source: 0
pressure (bar)	uptake (wt%)
1.63634	1.69499
2.89487	2.02035
4.55384	2.40077
6.95648	2.7011
9.1875	2.83124
11.7046	2.96139
14.622	3.08152
17.94	3.17662
23.0885	3.29175
27.4933	3.36683
33.4427	3.41188
36.6462	3.42189
39.5065	3.4269
41.9664	3.42189
45.0555	3.42189
