Adsorption isotherm of Hydrogen on MIL-101
DOI: 10.1039/C3ce42006j
Adsorbate Hydrogen: InChIKey UFHFLCQGNIYNRP-UHFFFAOYSA-N
Temperature: 298 K
Tabular data in the source: 0
pressure (bar)	uptake (wt%)
0.453768	0.00474382
2.10166	0.01188
3.53828	0.0208941
4.63687	0.0269034
5.86222	0.0342274
6.8763	0.0404246
8.98898	0.0528189
11.1439	0.0640865
13.0453	0.0742274
14.7777	0.0847438
16.6369	0.0945091
18.3693	0.103899
20.1439	0.112537
22.0453	0.121927
23.6932	0.130565
25.4256	0.139392
27.158	0.147279
28.8904	0.156669
30.496	0.163805
32.0171	0.171129
33.665	0.179392
35.1862	0.186528
37.5524	0.197983
39.5805	0.207373
41.4819	0.215072
43.6791	0.224087
