Adsorption isotherm of Nitrogen on MIL-101
DOI: 10.1039/C3ce42006j
Adsorbate Nitrogen: InChIKey IJGRMHOSHXDMSA-UHFFFAOYSA-N
Temperature: 77 K
Tabular data in the source: 0
pressure (bar)	uptake (cm3(STP)/g)
0.00726683	274.77
0.0175955	353.174
0.030741	394.958
0.0513983	433.456
0.0673607	468.198
0.0936518	511.86
0.112431	560.686
0.13121	594.019
0.173464	626.414
0.190365	636.742
0.203511	651.296
0.219473	697.306
0.238253	707.165
0.289896	715.146
0.384732	727.352
0.475811	736.273
0.596938	745.662
0.721821	753.644
0.810084	760.216
0.887079	767.728
0.933088	775.709
0.962196	781.343
0.978159	790.733
0.987549	812.799
