Adsorption isotherm of Hydrogen on MIL-101
DOI: 10.1039/C3ce42006j
Adsorbate Hydrogen: InChIKey UFHFLCQGNIYNRP-UHFFFAOYSA-N
Temperature: 298 K
Tabular data in the source: 0
pressure (bar)	uptake (wt%)
13.4256	0.0650255
16.9749	0.0813635
18.5805	0.0888753
20.3974	0.0977016
22.2143	0.104838
23.9045	0.112349
25.6369	0.120425
27.496	0.127936
29.1862	0.135448
30.8763	0.141833
34.1298	0.155166
37.2566	0.16681
40.3833	0.178265
41.82	0.183523
43.3833	0.188594
