Adsorption isotherm of Hydrogen on MIL-101
DOI: 10.1039/C3ce42006j
Adsorbate Hydrogen: InChIKey UFHFLCQGNIYNRP-UHFFFAOYSA-N
Temperature: 77 K
Tabular data in the source: 0
pressure (bar)	uptake (wt%)
0.0345843	0.028162
0.148996	0.263421
0.320613	0.678877
0.435024	1.03427
0.835464	1.31458
1.35032	1.60489
1.92237	1.85016
2.55164	2.0604
3.81016	2.32068
4.95428	2.5159
7.01368	2.75115
9.53073	2.96639
12.105	3.12156
14.6792	3.2467
18.1116	3.35682
20.7431	3.43691
24.347	3.517
27.3789	3.56705
30.6968	3.62712
33.2139	3.64714
35.6737	3.68218
38.248	3.69719
40.8795	3.7072
42.9389	3.71221
45.0555	3.71722
