Adsorption isotherm of Nitrogen on MIL-101
DOI: 10.1039/C3ce42006j
Adsorbate Nitrogen: InChIKey IJGRMHOSHXDMSA-UHFFFAOYSA-N
Temperature: 77 K
Tabular data in the source: 0
pressure (bar)	uptake (cm3(STP)/g)
0.00726683	276.648
0.00914477	310.921
0.0175955	349.888
0.0410696	385.099
0.0758114	435.334
0.107736	475.709
0.128394	509.512
0.147173	523.597
0.200694	549.888
0.211023	558.338
0.226985	584.63
0.248581	595.428
0.296469	600.122
0.472056	614.207
0.560318	618.432
0.667361	626.414
0.787549	633.925
0.884262	641.437
0.934966	648.949
0.961257	655.521
0.972525	669.137
0.992243	715.146
