Adsorption isotherm of Nitrogen on MIL-101
DOI: 10.1039/C3ce42006j
Adsorbate Nitrogen: InChIKey IJGRMHOSHXDMSA-UHFFFAOYSA-N
Temperature: 77 K
Tabular data in the source: 0
pressure (bar)	uptake (cm3(STP)/g)
0.00421011	255.641
0.00843546	307.754
0.0281538	375.36
0.0450552	414.092
0.0732242	471.839
0.0985763	519.022
0.126745	557.754
0.166182	587.332
0.198576	614.092
0.209844	630.289
0.225337	665.501
0.239421	679.585
0.343647	692.965
0.449281	701.416
0.588717	711.275
0.711252	716.909
0.821112	723.247
0.925337	728.881
0.974633	735.923
0.990126	760.571
