Adsorption isotherm of Nitrogen on MIL-101
DOI: 10.1039/C3ce42006j
Adsorbate Nitrogen: InChIKey IJGRMHOSHXDMSA-UHFFFAOYSA-N
Temperature: 77 K
Tabular data in the source: 0
pressure (bar)	uptake (cm3(STP)/g)
0.0129006	309.982
0.0335579	385.568
0.0570321	436.273
0.0852011	484.629
0.106797	519.371
0.126516	534.864
0.162196	557.869
0.181915	578.996
0.201633	611.39
0.223229	620.31
0.28614	629.7
0.376281	637.681
0.484262	646.132
0.573464	653.174
0.654215	657.399
0.751868	666.32
0.830741	672.423
0.888957	678.526
0.934027	686.507
0.956563	697.775
0.971586	715.146
0.980976	737.212
0.990365	810.921
