Adsorption isotherm of Nitrogen on ZIF-8 + 25 mg L-1 of OTC
DOI: 10.1371/journal.pone.0128436
Article source: Figure 13
Adsorbate Nitrogen: InChIKey IJGRMHOSHXDMSA-UHFFFAOYSA-N
Kind: experiment
Temperature: 77 K
Tabular data in the source: 0
pressure (bar)	uptake (cm3(STP)/g)
0.009726	170.48
0.034	207.677
0.064514	209.264
0.085263	210.322
0.099908	211.377
0.121882	211.389
0.142635	211.399
0.158506	211.408
0.182919	211.944
0.201231	211.953
0.203672	211.955
0.252504	211.98
0.25494	213.552
0.298892	212.528
0.304999	211.483
0.356268	212.557
0.402655	213.105
0.405097	213.106
0.455152	212.608
0.456368	213.657
0.505199	213.682
0.508863	213.16
0.555259	211.613
0.556472	213.708
0.607745	213.735
0.60896	215.307
0.655352	214.807
0.657793	214.808
0.706622	215.357
0.709066	214.835
0.748131	214.855
0.750572	214.856
0.778648	215.394
0.782309	215.92
0.798179	215.928
0.809168	215.41
0.828697	216.468
0.829916	216.992
0.848229	216.478
0.853108	217.528
0.862875	217.533
0.8702	217.013
0.871417	218.061
0.886067	218.068
0.887282	219.64
0.90316	217.554
0.904373	219.649
0.923904	220.183
0.925114	222.802
0.939754	225.428
0.940988	221.763
0.947072	227.003
0.950761	220.197
0.958045	230.675
0.960514	223.344
0.970231	236.443
0.973889	237.492
0.973929	227.017
0.976371	227.019
0.978753	242.732
0.98734	231.738
0.988496	248.498
0.99343	235.407
0.994577	254.786
1.00196	240.649
1.00678	256.363
1.00926	244.842
