Adsorption isotherm of Nitrogen on ZIF-8 + 10 mg L-1 of OTC
DOI: 10.1371/journal.pone.0128436
Article source: Figure 13
Adsorbate Nitrogen: InChIKey IJGRMHOSHXDMSA-UHFFFAOYSA-N
Kind: experiment
Temperature: 77 K
Tabular data in the source: 0
pressure (bar)	uptake (cm3(STP)/g)
0.00814	266.322
0.029894	323.943
0.062839	328.15
0.087251	329.21
0.103119	329.742
0.122654	329.229
0.140965	329.238
0.161717	329.773
0.183687	330.831
0.201998	330.841
0.204448	328.747
0.252052	330.343
0.254494	330.344
0.303323	330.893
0.33628	331.958
0.353369	332.49
0.40098	332.515
0.407087	331.471
0.454692	333.066
0.458356	332.545
0.505964	333.093
0.507181	334.141
0.553569	334.689
0.553577	332.594
0.608512	332.622
0.609725	334.718
0.659779	334.22
0.660994	335.792
0.7086	336.864
0.709829	334.77
0.747661	337.931
0.748888	336.361
0.779398	338.995
0.779405	336.9
0.811134	340.059
0.811142	337.964
0.830672	338.498
0.831875	343.212
0.851406	343.746
0.852641	340.081
0.870932	345.327
0.873394	340.091
0.883131	347.429
0.888035	342.194
0.900219	348.485
0.903901	343.25
0.916073	352.683
0.920984	345.353
0.927052	354.784
0.934409	346.408
0.938025	358.455
0.944161	350.079
0.945338	361.602
0.953921	351.655
0.955099	363.178
0.963629	366.848
0.96728	369.993
0.967336	355.328
0.973367	374.186
0.97701	379.425
0.977088	358.999
0.983098	383.618
0.986744	387.81
0.986833	364.765
0.99292	368.958
0.995268	393.575
0.997788	373.151
1.00143	378.39
1.00502	396.722
1.0063	381.011
1.00873	384.679
1.01239	384.68
