Adsorption isotherm of Nitrogen on ZIF-8
DOI: 10.1371/journal.pone.0128436
Article source: Figure 13
Adsorbate Nitrogen: InChIKey IJGRMHOSHXDMSA-UHFFFAOYSA-N
Kind: experiment
Temperature: 77 K
Tabular data in the source: 0
pressure (bar)	uptake (cm3(STP)/g)
0.011441	361.119
0.030669	440.736
0.067287	442.326
0.086817	442.86
0.103904	443.916
0.122216	443.926
0.141749	443.936
0.158837	444.468
0.168604	444.473
0.174708	444.477
0.183251	445.005
0.202784	445.015
0.252835	445.041
0.302886	445.59
0.338288	445.609
0.3566	445.618
0.405431	445.643
0.455483	445.669
0.505533	446.219
0.50675	447.267
0.5568	447.816
0.556808	445.722
0.608073	447.843
0.609302	445.749
0.658125	447.869
0.659351	446.298
0.709396	448.419
0.709404	446.324
0.749679	448.964
0.749687	446.869
0.780198	448.979
0.780207	446.884
0.797286	450.036
0.811945	447.425
0.830249	449.529
0.831481	446.387
0.851	450.063
0.852232	446.922
0.859545	450.068
0.871763	447.456
0.872972	450.599
0.885191	447.462
0.887617	451.654
0.902279	448.519
0.903486	452.185
0.918147	449.051
0.923012	453.767
0.930353	449.581
0.938876	455.346
0.941336	450.634
0.949877	451.686
0.954739	457.449
0.960856	453.786
0.965713	460.597
0.9694	454.314
0.977935	456.938
0.979126	464.794
0.986475	458.513
0.991312	470.561
0.992569	461.135
0.998662	463.757
1.0035	475.281
1.00476	466.379
1.01085	470.048
