Adsorption isotherm of Cadmium(II) Ion, Co(II) on straw biochar
DOI: 10.1007/s10967-016-5043-7
Article source: Figure 2
Adsorbate Cadmium(II) Ion: InChIKey WLZRMCYVCSSEQC-UHFFFAOYSA-N
Adsorbate Co(II): InChIKey XLJKHNWPARRRJB-UHFFFAOYSA-N
Kind: experiment
Temperature: 293 K
Tabular data in the source: 0
pressure (bar)	Cadmium(II) Ion fraction	Cadmium(II) Ion uptake (mmol/kg)	Co(II) fraction	Co(II) uptake (mmol/kg)	total uptake (mmol/kg)
1.01325	34.6	22.865	88.1	1.876	
1.01325	212.8	114.343	386.3	46.077	
1.01325	671.8	128.371	882.1	55.204	
1.01325	1667.7	137.315	1942	50.577	
1.01325	3593.1	161.242	3907.7	51.097	
