Adsorption isotherm of Co(II) on straw biochar
DOI: 10.1007/s10967-016-5043-7
Article source: Figure 1
Adsorbate Co(II): InChIKey XLJKHNWPARRRJB-UHFFFAOYSA-N
Kind: experiment
Temperature: 295 K
Tabular data in the source: 0
pressure (bar)	uptake (mmol/kg)
1.01325	29.381
1.01325	77.218
1.01325	84.518
1.01325	83.374
1.01325	91.899
