Adsorption isotherm of Cadmium(II) Ion, Co(II) on straw biochar
DOI: 10.1007/s10967-016-5043-7
Article source: Figure 2
Adsorbate Cadmium(II) Ion: InChIKey WLZRMCYVCSSEQC-UHFFFAOYSA-N
Adsorbate Co(II): InChIKey XLJKHNWPARRRJB-UHFFFAOYSA-N
Kind: experiment
Temperature: 293 K
Tabular data in the source: 0
pressure (bar)	Cadmium(II) Ion fraction	Cadmium(II) Ion uptake (mmol/kg)	Co(II) fraction	Co(II) uptake (mmol/kg)	total uptake (mmol/kg)
1.01325	31.7	24.91	49.8	26.71	
1.01325	259	96.882	443.7	27.661	
1.01325	730.9	105.067	944.6	24.731	
1.01325	1663.3	135.16	1935	27.835	
1.01325	3597.1	162.192	3931.1	33.558	
