Adsorption isotherm of Cadmium(II) Ion, Co(II) on straw biochar
DOI: 10.1007/s10967-016-5043-7
Article source: Figure 2
Adsorbate Cadmium(II) Ion: InChIKey WLZRMCYVCSSEQC-UHFFFAOYSA-N
Adsorbate Co(II): InChIKey XLJKHNWPARRRJB-UHFFFAOYSA-N
Kind: experiment
Temperature: 293 K
Tabular data in the source: 0
pressure (bar)	Cadmium(II) Ion fraction	Cadmium(II) Ion uptake (mmol/kg)	Co(II) fraction	Co(II) uptake (mmol/kg)	total uptake (mmol/kg)
1.01325	11.5	11.822	49.9	10.72	
1.01325	97.8	60.162	221.9	14.831	
1.01325	316.5	74.496	497.3	12.759	
1.01325	702.2	114.782	979.1	12.979	
1.01325	1700.7	120.588	1984.8	14.387	
