Adsorption isotherm of Cadmium(II) Ion, Co(II) on straw biochar
DOI: 10.1007/s10967-016-5043-7
Article source: Figure 1
Adsorbate Cadmium(II) Ion: InChIKey WLZRMCYVCSSEQC-UHFFFAOYSA-N
Adsorbate Co(II): InChIKey XLJKHNWPARRRJB-UHFFFAOYSA-N
Kind: experiment
Temperature: 295 K
Tabular data in the source: 0
pressure (bar)	Cadmium(II) Ion fraction	Cadmium(II) Ion uptake (mmol/kg)	Co(II) fraction	Co(II) uptake (mmol/kg)	total uptake (mmol/kg)
1.01325	17.3	31.879	42.2	29.618	
1.01325	227.3	109.554	302.1	77.697	
1.01325	644.6	143.08	810.7	83.973	
1.01325	1591.4	166.627	1804.9	82.716	
1.01325	3516.5	193.871	3778.1	90.499	
