Adsorption isotherm of Cadmium(II) Ion on straw biochar
DOI: 10.1007/s10967-016-5043-7
Article source: Figure 1
Adsorbate Cadmium(II) Ion: InChIKey WLZRMCYVCSSEQC-UHFFFAOYSA-N
Kind: experiment
Temperature: 295 K
Tabular data in the source: 0
pressure (bar)	uptake (mmol/kg)
1.01325	31.154
1.01325	109.974
1.01325	141.589
1.01325	165.91
1.01325	195.374
