Adsorption isotherm of Ethane, Methane on Templated Carbon (sucrose impregnated, pyrolysed Zeolite Y (NH4Y))
DOI: 10.1021/je101099c
Article source: Table A2
Adsorbate Ethane: InChIKey OTMSDBZUPAUEDD-UHFFFAOYSA-N
Adsorbate Methane: InChIKey VNWKTOKETHGBQD-UHFFFAOYSA-N
Kind: experiment
Temperature: 273 K
Tabular data in the source: 0
pressure (bar)	Ethane fraction	Ethane uptake (mmol/g)	Methane fraction	Methane uptake (mmol/g)	total uptake (mmol/g)
1.01325	1	4.04	0	0	
1.01325	0.78	3.587	0.22	0.1456	
1.01325	0.587	2.985	0.413	0.2214	
1.01325	0.391	2.2989	0.609	0.409	
1.01325	0.188	1.253	0.812	0.6432	
1.01325	0	0	1	0.8123	
