Adsorption isotherm of Ethane on Templated Carbon (sucrose impregnated, pyrolysed Zeolite Y (NH4Y))
DOI: 10.1021/je101099c
Article source: Table A1
Adsorbate Ethane: InChIKey OTMSDBZUPAUEDD-UHFFFAOYSA-N
Kind: experiment
Temperature: 273 K
Tabular data in the source: 0
pressure (bar)	uptake (mmol/g)
0.342	2.421
1.636	4.874
2.588	5.82
3.438	6.481
5.217	7.511
7.132	8.396
9.195	9.031
10.59	9.482
14.65	10.34
20.02	10.96
