Adsorption isotherm of Methane on Templated Carbon (sucrose impregnated, pyrolysed Zeolite Y (NH4Y))
DOI: 10.1021/je101099c
Article source: Table A1
Adsorbate Methane: InChIKey VNWKTOKETHGBQD-UHFFFAOYSA-N
Kind: experiment
Temperature: 273 K
Tabular data in the source: 0
pressure (bar)	uptake (mmol/g)
0.507	0.4429
1.318	1.085
2.772	1.901
4.338	2.533
6.241	3.162
7.839	3.697
9.849	4.209
14.66	5.052
19.35	6.043
24.56	6.754
29.93	7.489
34.13	8.279
39.04	9.184
46.2	10.16
