Adsorption isotherm of Nitrogen on Zeolite 5A
DOI: 10.1021/Ie950291y
Adsorbate Nitrogen: InChIKey IJGRMHOSHXDMSA-UHFFFAOYSA-N
Temperature: 296 K
Tabular data in the source: 0
pressure (bar)	uptake (mmol/g)
0.192622	0.0905433
0.241763	0.17505
0.338603	0.253521
0.435827	0.356137
0.724519	0.476861
0.917045	0.561368
1.06129	0.615694
1.63762	0.790744
1.78187	0.84507
1.97401	0.905433
2.21376	0.953722
2.45379	1.02012
2.69353	1.06841
2.93337	1.12274
3.17321	1.17706
3.46075	1.22535
3.70049	1.27364
4.08391	1.34004
4.37145	1.38833
4.65898	1.43662
4.99422	1.47887
5.28176	1.52716
5.617	1.56942
5.95223	1.61167
6.23968	1.65392
6.52712	1.69618
6.86226	1.73239
7.24529	1.77465
7.58053	1.8169
7.96346	1.85312
8.2986	1.88934
8.68154	1.92555
9.06447	1.96177
9.39961	1.99799
9.83025	2.02817
10.1654	2.06439
10.5483	2.1006
10.979	2.13078
11.3618	2.16097
11.7925	2.19718
12.2231	2.22133
12.6059	2.25151
13.0365	2.28169
13.4672	2.31187
13.8977	2.33602
14.3283	2.3662
14.7589	2.39034
15.1894	2.41449
15.62	2.43863
16.0027	2.46278
16.4332	2.48692
16.9115	2.50503
17.342	2.52918
17.7726	2.55332
18.203	2.57143
18.6812	2.58954
19.1117	2.60765
