Adsorption isotherm of Oxygen on Zeolite 5A
DOI: 10.1021/Ie950291y
Adsorbate Oxygen: InChIKey MYMOFIZGZYHOMD-UHFFFAOYSA-N
Temperature: 318 K
Tabular data in the source: 0
pressure (bar)	uptake (mmol/g)
0.574692	0.0724346
1.05351	0.126761
2.05912	0.247485
3.39978	0.39839
4.97951	0.555332
7.4684	0.778672
10.6266	1.01408
14.1672	1.2495
17.9462	1.45473
