Adsorption isotherm of Oxygen on Zeolite 5A
DOI: 10.1021/Ie950291y
Adsorbate Oxygen: InChIKey MYMOFIZGZYHOMD-UHFFFAOYSA-N
Temperature: 318 K
Tabular data in the source: 0
pressure (bar)	uptake (mmol/g)
0.766159	0.0905433
1.149	0.120724
1.19727	0.150905
1.53251	0.193159
1.96363	0.253521
2.29867	0.283702
2.7295	0.325956
3.06473	0.368209
3.54345	0.416499
3.92639	0.452716
4.21383	0.49497
4.59676	0.531187
5.21906	0.591549
5.93694	0.651911
6.0809	0.688129
6.60713	0.71831
6.99006	0.754527
8.18657	0.857143
8.5695	0.89336
9.09582	0.929577
9.47866	0.959759
9.90939	0.995976
10.2922	1.02616
10.7229	1.05634
11.1056	1.08048
11.5841	1.1167
12.0147	1.14085
12.4454	1.17706
12.8759	1.20121
13.2588	1.23139
13.6893	1.25553
14.1677	1.28571
14.5984	1.3159
15.1246	1.34608
15.5551	1.37022
15.9857	1.39437
16.4162	1.41851
16.8468	1.44266
17.2773	1.4668
17.7557	1.49698
18.1862	1.51509
18.6646	1.54527
19.095	1.56338
