Adsorption isotherm of Nitrogen on Zeolite 5A
DOI: 10.1021/Ie950291y
Adsorbate Nitrogen: InChIKey IJGRMHOSHXDMSA-UHFFFAOYSA-N
Temperature: 296 K
Tabular data in the source: 0
pressure (bar)	uptake (mmol/g)
0.049045	0.0784708
0.242628	0.229376
1.20593	0.694165
2.3106	1.03219
3.89302	1.35815
6.38393	1.70825
9.63897	2.02213
13.4186	2.26358
17.3886	2.4507
