Adsorption isotherm of Oxygen on Zeolite 5A
DOI: 10.1021/Ie950291y
Adsorbate Oxygen: InChIKey MYMOFIZGZYHOMD-UHFFFAOYSA-N
Temperature: 296 K
Tabular data in the source: 0
pressure (bar)	uptake (mmol/g)
0.623256	0.120724
0.95907	0.199195
1.29421	0.235412
1.48616	0.283702
1.7737	0.331992
2.06133	0.386318
2.39647	0.422535
2.6843	0.488934
3.01954	0.531187
3.21148	0.579477
3.54653	0.609658
3.97793	0.688129
4.36087	0.724346
4.6486	0.784708
4.98364	0.814889
5.36687	0.869215
5.70201	0.905433
6.229	0.983903
6.8512	1.03823
7.18644	1.08048
7.85681	1.15895
8.33553	1.20724
8.71847	1.24346
9.1015	1.28571
9.48443	1.32193
9.96296	1.35815
10.2981	1.39437
10.7288	1.43058
11.1117	1.46076
11.5424	1.49698
11.9252	1.52716
12.4518	1.57545
12.8823	1.5996
13.1696	1.63581
13.5523	1.65392
14.1264	1.69014
14.5093	1.72636
14.9877	1.7505
15.3705	1.78068
15.8489	1.81087
16.2318	1.84105
16.71	1.85915
17.1405	1.8833
17.5712	1.91348
18.0017	1.93763
18.4323	1.96177
18.8628	1.98592
