Adsorption isotherm of Oxygen on Zeolite 5A
DOI: 10.1021/Ie950291y
Adsorbate Oxygen: InChIKey MYMOFIZGZYHOMD-UHFFFAOYSA-N
Temperature: 296 K
Tabular data in the source: 0
pressure (bar)	uptake (mmol/g)
0.479391	0.0905433
0.958781	0.181087
1.96526	0.356137
3.30679	0.561368
5.36629	0.832998
7.85614	1.1167
10.776	1.38833
13.8865	1.62978
17.618	1.85312
