Adsorption isotherm of Nitrogen on Zeolite 5A
DOI: 10.1021/Ie950291y
Adsorbate Nitrogen: InChIKey IJGRMHOSHXDMSA-UHFFFAOYSA-N
Temperature: 318 K
Tabular data in the source: 0
pressure (bar)	uptake (mmol/g)
0.192526	0.084507
0.38534	0.187123
0.722211	0.331992
1.58617	0.561368
2.78547	0.839034
4.31913	1.10463
6.95285	1.41851
10.2074	1.70221
13.9394	1.9497
17.9091	2.12475
