Adsorption isotherm of Nitrogen on Zeolite 5A
DOI: 10.1021/Ie950291y
Adsorbate Nitrogen: InChIKey IJGRMHOSHXDMSA-UHFFFAOYSA-N
Temperature: 318 K
Tabular data in the source: 0
pressure (bar)	uptake (mmol/g)
0.19291	0.108652
0.433327	0.199195
0.721634	0.295775
0.86598	0.356137
1.05803	0.410463
1.25007	0.464789
1.68205	0.579477
1.92179	0.627767
2.16163	0.682093
2.40138	0.730382
2.68891	0.778672
2.88086	0.826962
3.2161	0.869215
3.50364	0.917505
3.79108	0.959759
4.12641	1.00805
4.41386	1.0503
4.74919	1.09859
5.08433	1.13481
5.41966	1.1831
5.7548	1.21932
6.09004	1.26157
6.47298	1.29779
6.80812	1.334
7.19115	1.37626
7.57408	1.41247
7.90922	1.44869
8.33986	1.47887
8.72279	1.51509
9.10573	1.55131
9.44077	1.58149
9.87141	1.61167
10.2543	1.64789
10.6372	1.67807
11.0678	1.70825
11.4507	1.73843
11.8813	1.76861
12.3118	1.79276
12.7425	1.82294
13.1252	1.84708
13.5558	1.87726
13.9864	1.90141
14.417	1.93159
14.8475	1.95573
15.278	1.97384
15.7086	2.00402
16.1392	2.02817
16.5697	2.05231
17.0001	2.07042
17.4785	2.09457
17.8613	2.12475
18.3395	2.13682
18.7699	2.15493
19.2004	2.17907
