Adsorption isotherm of Nitrogen on CuBTC/Graphite Oxide
DOI: 10.1016/j.carbon.2010.09.059
Adsorbate Nitrogen: InChIKey IJGRMHOSHXDMSA-UHFFFAOYSA-N
Temperature: 77 K
Tabular data in the source: 0
pressure (bar)	uptake (cm3(STP)/g)
0.0046573	294.96
0.0276366	304.133
0.0489578	309.073
0.0620776	311.895
0.098137	315.423
0.126005	318.952
0.158778	320.363
0.186639	322.48
0.219405	322.48
0.24726	323.185
0.275114	323.891
0.317717	325.302
0.361952	325.302
0.394728	327.419
0.427497	328.125
0.478298	330.948
0.548736	328.831
0.583167	334.476
0.606084	330.242
0.669998	334.476
0.75518	332.359
0.784686	335.887
0.845287	332.359
0.896092	335.887
0.937046	335.181
0.964921	340.121
