Adsorption isotherm of Hydrogen on CuBTC/Graphite Oxide
DOI: 10.1016/j.carbon.2010.09.059
Adsorbate Hydrogen: InChIKey UFHFLCQGNIYNRP-UHFFFAOYSA-N
Temperature: 77 K
Tabular data in the source: 0
pressure (bar)	uptake (mmol/g)
0.045	2.7724
0.055	3.21796
0.0783333	4.03483
0.105	4.72793
0.115	4.92596
0.125	5.12399
0.133333	5.32201
0.166667	5.99036
0.178333	6.16364
0.19	6.36166
0.215	6.63395
0.223333	6.83198
0.235	6.9805
0.268333	7.37656
0.28	7.52508
0.305	7.79737
0.351667	8.26769
0.366667	8.3667
0.381667	8.49047
0.441667	9.03505
0.456667	9.0598
0.468333	9.15882
0.483333	9.25783
0.496667	9.3816
0.511667	9.43111
0.525	9.53012
0.54	9.62913
0.551667	9.72815
0.566667	9.7529
0.581667	9.85192
0.593333	10.0004
0.61	10.0252
0.625	10.0995
0.638333	10.2232
0.651667	10.2727
0.666667	10.3222
0.68	10.3965
0.695	10.4955
0.711667	10.5203
0.725	10.6193
0.74	10.7183
0.753333	10.743
0.768333	10.8173
0.783333	10.8668
0.796667	10.9658
0.811667	10.9906
0.825	11.0401
0.84	11.1391
0.855	11.1886
0.87	11.2381
0.885	11.2876
0.9	11.3866
0.915	11.4114
0.93	11.4609
0.945	11.5599
0.96	11.5599
0.975	11.6342
0.99	11.7084
