Adsorption isotherm of Nitrogen on CuBTC/Graphite Oxide
DOI: 10.1016/j.carbon.2010.09.059
Adsorbate Nitrogen: InChIKey IJGRMHOSHXDMSA-UHFFFAOYSA-N
Temperature: 77 K
Tabular data in the source: 0
pressure (bar)	uptake (cm3(STP)/g)
0.0566667	2.59912
0.08	3.39124
0.108333	4.03483
0.156667	4.92596
0.181667	5.29726
0.205	5.5943
0.258333	6.18839
0.281667	6.43592
0.306667	6.68346
0.331667	6.88149
0.356667	7.07952
0.401667	7.42607
0.41	7.45082
0.45	7.77262
0.456667	7.77262
0.506667	8.09441
0.555	8.3667
0.601667	8.58948
0.605	8.58948
0.65	8.83702
0.656667	8.86177
0.7	9.03505
0.708333	9.08456
0.755	9.25783
0.798333	9.43111
0.806667	9.43111
0.855	9.60438
0.905	9.80241
0.951667	9.95093
0.96	9.97568
1.00167	10.0995
