Adsorption isotherm of Nitrogen on CuBTC/Graphite Oxide
DOI: 10.1016/j.carbon.2010.09.059
Adsorbate Nitrogen: InChIKey IJGRMHOSHXDMSA-UHFFFAOYSA-N
Temperature: 77 K
Tabular data in the source: 0
pressure (bar)	uptake (cm3(STP)/g)
0.00133443	285.081
0.0309067	302.722
0.0948504	313.306
0.125988	315.423
0.184981	318.246
0.204644	318.952
0.247247	320.363
0.281655	321.069
0.314421	321.069
0.365215	322.48
0.396343	322.48
0.425833	322.48
0.488092	323.185
0.548713	323.891
0.609334	324.597
0.668313	324.597
0.758424	325.302
0.845258	326.008
0.89771	331.653
0.933753	331.653
0.968161	332.359
