Adsorption isotherm of Hydrogen on CuBTC/Graphite Oxide
DOI: 10.1016/j.carbon.2010.09.059
Adsorbate Hydrogen: InChIKey UFHFLCQGNIYNRP-UHFFFAOYSA-N
Temperature: 77 K
Tabular data in the source: 0
pressure (bar)	uptake (mmol/g)
0.0116667	0.915882
0.02	1.3862
0.03	1.95553
0.04	2.30208
0.055	2.84666
0.075	3.51501
0.1	4.1586
0.123333	4.70318
0.15	5.27251
0.18	5.66856
0.206667	6.01511
0.228333	6.36166
0.248333	6.58445
0.28	6.88149
0.3	7.07952
0.323333	7.3023
0.355	7.52508
0.395	7.82212
0.405	7.94589
0.415	8.02015
0.43	8.11917
0.466667	8.3667
0.481667	8.44096
0.51	8.63899
0.525	8.71325
0.541667	8.78751
0.561667	8.91128
0.576667	9.01029
0.611667	9.30734
0.625	9.30734
0.661667	9.50537
0.676667	9.55487
0.713333	9.72815
0.728333	9.77765
0.765	9.95093
0.78	10.0004
0.813333	10.149
0.828333	10.1737
0.845	10.1985
0.863333	10.3717
0.876667	10.347
0.91	10.4708
0.926667	10.5203
0.965	10.6688
0.981667	10.7183
1.00167	10.7678
