Adsorption isotherm of Nitrogen on CuBTC/Graphite Oxide
DOI: 10.1016/j.carbon.2010.09.059
Adsorbate Nitrogen: InChIKey IJGRMHOSHXDMSA-UHFFFAOYSA-N
Temperature: 77 K
Tabular data in the source: 0
pressure (bar)	uptake (cm3(STP)/g)
0.00792732	293.548
0.0227085	301.31
0.0423947	306.956
0.0604326	310.484
0.0948603	315.423
0.125992	316.129
0.155491	318.246
0.186622	318.952
0.219402	321.774
0.247257	322.48
0.280023	322.48
0.314431	323.185
0.36686	323.891
0.39635	323.891
0.476644	327.419
0.584785	330.242
0.645406	330.948
0.728964	331.653
0.784663	330.948
0.840369	331.653
0.896082	333.77
0.935395	332.359
0.969816	335.887
