Adsorption isotherm of Nitrogen on CuBTC
DOI: 10.1016/j.carbon.2010.09.059
Adsorbate Nitrogen: InChIKey IJGRMHOSHXDMSA-UHFFFAOYSA-N
Temperature: 77 K
Tabular data in the source: 0
pressure (bar)	uptake (cm3(STP)/g)
0.00619983	274.496
0.0258926	281.552
0.0390156	285.081
0.0537737	287.903
0.0636069	288.609
0.0947414	290.02
0.127518	292.137
0.153734	292.843
0.191418	293.548
0.21272	294.254
0.245493	295.665
0.276617	294.96
0.29628	295.665
0.30611	295.665
0.338873	294.96
0.365093	296.371
0.397856	295.665
0.415881	296.371
0.44537	296.371
0.466668	296.371
0.515814	295.665
0.532198	295.665
0.548581	295.665
0.574794	295.665
0.591177	295.665
0.60756	295.665
0.633773	295.665
0.650156	295.665
0.666539	295.665
0.694391	295.665
0.710774	295.665
0.727157	295.665
0.74354	295.665
0.759923	295.665
0.786136	295.665
0.802523	296.371
0.818906	296.371
0.835289	296.371
0.851672	296.371
0.864782	297.077
0.872977	297.782
0.887725	298.488
0.904115	299.899
0.918863	300.605
0.933614	302.016
0.941812	303.427
0.958195	303.427
0.96967	304.839
