Adsorption isotherm of Nitrogen on Graphite Oxide
DOI: 10.1016/j.carbon.2010.09.059
Adsorbate Nitrogen: InChIKey IJGRMHOSHXDMSA-UHFFFAOYSA-N
Temperature: 77 K
Tabular data in the source: 0
pressure (bar)	uptake (cm3(STP)/g)
0.461667	0
0.488333	0
0.51	0
0.538333	0.0247536
0.611667	0
0.638333	0
0.66	0.0247536
0.688333	0.0247536
0.711667	0
0.74	0.0247536
0.788333	0.0247536
0.838333	0.0247536
0.861667	0.0495071
0.89	0.0247536
0.911667	0.0495071
0.936667	0.0247536
0.963333	0.0247536
1	0.0495071
