Adsorption isotherm of Hydrogen on CuBTC
DOI: 10.1016/j.carbon.2010.09.059
Adsorbate Hydrogen: InChIKey UFHFLCQGNIYNRP-UHFFFAOYSA-N
Temperature: 77 K
Tabular data in the source: 0
pressure (bar)	uptake (mmol/g)
0.0533333	3.09419
0.0816667	3.93582
0.118333	4.9012
0.135	5.19825
0.166667	5.79233
0.18	5.94085
0.191667	6.11413
0.215	6.43592
0.226667	6.58445
0.24	6.73297
0.265	7.03001
0.278333	7.17853
0.291667	7.32705
0.305	7.45082
0.351667	7.84688
0.356667	7.87163
0.401667	8.26769
0.406667	8.29244
0.453333	8.63899
0.463333	8.6885
0.478333	8.76276
0.493333	8.83702
0.506667	8.93603
0.553333	9.23308
0.561667	9.28258
0.576667	9.35684
0.593333	9.40635
0.608333	9.48061
0.613333	9.53012
0.628333	9.60438
0.643333	9.70339
0.656667	9.7529
0.698333	9.95093
0.715	10.0252
0.731667	10.0747
0.763333	10.2232
0.778333	10.2975
0.793333	10.3222
0.808333	10.347
0.813333	10.4212
0.828333	10.4955
0.845	10.5203
0.86	10.5698
0.865	10.6193
0.88	10.6935
0.915	10.7926
0.93	10.8668
0.945	10.8668
0.96	10.8916
0.965	10.9658
0.981667	11.0153
1.00167	11.0401
