Adsorption isotherm of Nitrogen on CuBTC/Graphite Oxide
DOI: 10.1016/j.carbon.2010.09.059
Adsorbate Nitrogen: InChIKey IJGRMHOSHXDMSA-UHFFFAOYSA-N
Temperature: 77 K
Tabular data in the source: 0
pressure (bar)	uptake (cm3(STP)/g)
-0.000977703	141.129
0.00242114	167.238
0.00739884	180.645
0.0172485	184.879
0.0303617	186.29
0.0434814	189.113
0.0582361	191.23
0.0942922	194.052
0.12543	196.169
0.15492	196.169
0.179494	196.169
0.194239	196.169
0.208991	197.581
0.223736	197.581
0.323686	200.403
0.338434	201.109
0.354817	201.109
0.440016	202.52
0.456399	202.52
0.469506	202.52
0.556343	203.931
0.572726	203.931
0.589109	203.931
0.616961	203.931
0.633344	203.931
0.64973	204.637
0.675946	205.343
0.69233	205.343
0.708713	205.343
0.725096	205.343
0.741479	205.343
0.767695	206.048
0.784082	206.754
0.800465	206.754
0.816848	206.754
0.833234	207.46
0.854536	208.165
0.870926	209.577
0.885677	210.988
0.931566	214.516
0.964366	221.573
