Adsorption isotherm of Nitrogen on CuBTC/Graphite Oxide
DOI: 10.1016/j.carbon.2010.09.059
Adsorbate Nitrogen: InChIKey IJGRMHOSHXDMSA-UHFFFAOYSA-N
Temperature: 77 K
Tabular data in the source: 0
pressure (bar)	uptake (cm3(STP)/g)
0.000845581	180.645
0.000891824	190.524
0.000924854	197.581
0.0025929	203.931
0.00918909	213.105
0.0698562	223.69
0.0862427	224.395
0.104267	225.101
0.119016	225.806
0.132125	226.512
0.148509	226.512
0.161618	227.218
0.178001	227.218
0.222239	227.923
0.238622	227.923
0.251729	227.923
0.268112	227.923
0.310715	229.335
0.327098	229.335
0.343481	229.335
0.358223	228.629
0.417202	228.629
0.443415	228.629
0.461436	228.629
0.486018	230.04
0.507312	229.335
0.523696	229.335
0.540079	229.335
0.556462	229.335
0.57121	230.04
0.58759	229.335
0.603973	229.335
0.620356	229.335
0.631824	229.335
0.648207	229.335
0.664591	229.335
0.680974	229.335
0.690807	230.04
0.707187	229.335
0.72357	229.335
0.739953	229.335
0.756336	229.335
0.780917	230.746
0.797294	229.335
0.813677	229.335
0.828428	230.746
0.844812	230.746
0.861195	230.746
0.871025	230.746
0.887411	231.452
0.905439	232.863
0.921829	234.274
0.943137	236.391
0.959527	237.802
0.96936	238.508
