Adsorption isotherm of Hydrogen on CuBTC
DOI: 10.1016/j.jssc.2005.07.002
Adsorbate Hydrogen: InChIKey UFHFLCQGNIYNRP-UHFFFAOYSA-N
Temperature: 77 K
Tabular data in the source: 0
pressure (bar)	uptake (wt%)
0.0127186	0.12059
0.0529942	0.387922
0.0784315	0.497955
0.103869	0.571266
0.127186	0.644587
0.154743	0.707396
0.18018	0.759723
0.205618	0.806804
0.231055	0.84864
0.256492	0.890475
0.281929	0.916573
0.305247	0.95842
0.332804	0.984506
0.358241	1.0106
0.381559	1.03147
0.406996	1.05756
0.432433	1.08366
0.455751	1.10453
0.483308	1.12537
0.508745	1.14622
0.534182	1.17232
0.559619	1.18792
0.587176	1.20352
0.610494	1.21913
0.635931	1.23474
0.659248	1.25036
0.684686	1.27121
0.712243	1.28156
0.73556	1.29718
0.765237	1.30751
0.788554	1.32313
0.816111	1.33348
0.837309	1.35435
0.864866	1.36995
0.890303	1.37506
0.915741	1.38542
0.941178	1.40103
0.966615	1.41663
0.992052	1.42699
1.01537	1.43212
