Adsorption isotherm of Hydrogen on CuBTC
DOI: 10.1016/j.jssc.2005.07.002
Adsorbate Hydrogen: InChIKey UFHFLCQGNIYNRP-UHFFFAOYSA-N
Temperature: 87 K
Tabular data in the source: 0
pressure (bar)	uptake (wt%)
0.0105988	0.0471582
0.027557	0.104775
0.0572338	0.172818
0.0805513	0.240894
0.127186	0.340325
0.154743	0.376904
0.1823	0.418728
0.205618	0.455329
0.233175	0.491908
0.258612	0.523251
0.281929	0.554606
0.307367	0.580704
0.330684	0.606813
0.360361	0.632888
0.383678	0.653751
0.430313	0.695477
0.453631	0.721586
0.506625	0.758033
0.559619	0.79448
0.612613	0.830927
0.638051	0.846533
0.686805	0.87251
0.712243	0.888116
0.786435	0.929699
0.816111	0.940037
0.839429	0.950408
0.864866	0.966014
0.890303	0.971128
0.913621	0.986745
0.943298	1.00758
0.966615	1.03893
0.992052	1.05454
1.01113	1.05968
