Adsorption isotherm of Argon on [Zn3(bpdc)3bpy]*4DMF*H2O
DOI: 10.1016/j.jssc.2005.07.002
Adsorbate Argon: InChIKey XKRFYHLGVUSROY-UHFFFAOYSA-N
Temperature: 87 K
Tabular data in the source: 0
pressure (bar)	uptake (cm3(STP)/g)
0.00204866	145.452
0.00409733	166.428
0.00614599	184.607
0.018438	202.771
0.0286813	208.351
0.0491679	213.916
0.0962872	229.233
0.147504	237.552
0.192574	238.886
0.295008	242.936
0.391295	244.198
0.487582	245.459
0.585918	246.717
0.686302	246.574
0.784638	249.231
0.882974	251.888
0.932142	253.217
0.971067	258.756
