Adsorption isotherm of Hydrogen on Cu(hfipbb)(H2hfipbb)0.5
DOI: 10.1016/j.jssc.2005.07.002
Adsorbate Hydrogen: InChIKey UFHFLCQGNIYNRP-UHFFFAOYSA-N
Temperature: 87 K
Tabular data in the source: 0
pressure (bar)	uptake (wt%)
0.00901112	0.0227273
0.024597	0.0416667
0.0533825	0.0587121
0.0755098	0.0700758
0.102018	0.0785985
0.128517	0.0861742
0.150611	0.09375
0.177093	0.0994318
0.205771	0.104167
0.23005	0.109848
0.256533	0.11553
0.280813	0.121212
0.305076	0.125
0.333753	0.129735
0.358025	0.13447
0.38228	0.137311
0.408754	0.142045
0.433026	0.14678
0.457297	0.151515
0.485966	0.155303
0.510229	0.159091
0.536695	0.162879
0.558748	0.16572
0.587416	0.169508
0.61168	0.173295
0.635951	0.17803
0.664637	0.183712
0.686672	0.184659
0.715332	0.1875
0.737393	0.191288
0.763859	0.195076
0.81458	0.201705
0.916005	0.213068
0.942479	0.217803
0.968929	0.219697
1.01305	0.227273
