Adsorption isotherm of Argon on [Co3(bpdc)3bpy]*4DMF*H2O
DOI: 10.1016/j.jssc.2005.07.002
Adsorbate Argon: InChIKey XKRFYHLGVUSROY-UHFFFAOYSA-N
Temperature: 87 K
Tabular data in the source: 0
pressure (bar)	uptake (cm3(STP)/g)
0.00819466	229.359
0.018438	234.939
0.0286813	241.917
0.0471193	285.248
0.100385	300.556
0.147504	307.482
0.194623	310.212
0.292959	315.666
0.393343	316.922
0.493728	322.373
0.587967	325.036
0.688351	326.292
0.784638	333.147
0.885023	337.2
0.932142	342.727
0.969018	358.059
