Adsorption isotherm of Hydrogen on [Ni(ox)(bpy)]
DOI: 10.1016/j.jssc.2005.07.002
Adsorbate Hydrogen: InChIKey UFHFLCQGNIYNRP-UHFFFAOYSA-N
Temperature: 77 K
Tabular data in the source: 0
pressure (bar)	uptake (wt%)
0.0774611	0.00989399
0.105428	0.00989399
0.154915	0.014841
0.180737	0.019788
0.206553	0.019788
0.230217	0.019788
0.258191	0.024735
0.331342	0.029682
0.357165	0.034629
0.406644	0.034629
0.587389	0.059364
0.613212	0.064311
0.639027	0.064311
0.688514	0.069258
0.712201	0.0840989
0.763839	0.0890459
0.787511	0.0939929
0.813334	0.0989399
0.837005	0.103887
0.864987	0.113781
0.888659	0.118728
0.912338	0.128622
0.938161	0.133569
0.963991	0.143463
0.994132	0.158304
