Adsorption isotherm of Hydrogen on [Co(ox)(bpy)]
DOI: 10.1016/j.jssc.2005.07.002
Adsorbate Hydrogen: InChIKey UFHFLCQGNIYNRP-UHFFFAOYSA-N
Temperature: 77 K
Tabular data in the source: 0
pressure (bar)	uptake (wt%)
0.0107716	0.00989399
0.0301254	0.004947
0.0537894	0.004947
0.0774535	0.004947
0.101117	0.004947
0.126933	0.004947
0.152748	0.004947
0.178563	0.004947
0.206537	0.00989399
0.230202	0.00989399
0.256024	0.014841
0.281832	0.00989399
0.305496	0.00989399
0.329168	0.014841
0.354983	0.014841
0.380806	0.019788
0.408772	0.019788
0.432444	0.024735
0.460411	0.024735
0.507754	0.034629
0.561543	0.039576
0.636853	0.04947
0.68634	0.054417
0.737986	0.064311
0.763801	0.064311
0.789616	0.064311
0.839111	0.0742049
0.88859	0.0742049
0.942387	0.0840989
0.96821	0.0890459
0.991882	0.0939929
1.01125	0.0989399
