Adsorption isotherm of Argon on CuBTC
DOI: 10.1016/j.jssc.2005.07.002
Adsorbate Argon: InChIKey XKRFYHLGVUSROY-UHFFFAOYSA-N
Temperature: 87 K
Tabular data in the source: 0
pressure (bar)	uptake (cm3(STP)/g)
0.000149116	27.7776
0.000350423	65.2773
0.000521906	97.2215
0.000730668	136.11
0.00119293	222.221
0.005398	205.548
0.00562913	248.603
0.0186097	266.64
0.0508709	276.317
0.0981481	283.194
0.151852	287.285
0.291462	294.032
0.394539	295.275
0.493335	299.302
0.592117	300.551
0.690907	303.189
0.785394	304.444
0.886338	308.468
0.93574	311.176
0.976874	373.617
