Adsorption isotherm of Hydrogen on Cu(hfipbb)(H2hfipbb)0.5
DOI: 10.1016/j.jssc.2005.07.002
Adsorbate Hydrogen: InChIKey UFHFLCQGNIYNRP-UHFFFAOYSA-N
Temperature: 77 K
Tabular data in the source: 0
pressure (bar)	uptake (wt%)
4.17e-05	0.00473485
0.000100124	0.0113636
0.00240296	0.0227273
0.00911124	0.0340909
0.024622	0.0445076
0.0511548	0.0558712
0.0776541	0.063447
0.101926	0.0681818
0.128417	0.0748106
0.154899	0.0804924
0.179171	0.0852273
0.205645	0.0899621
0.227714	0.094697
0.256383	0.0984848
0.280655	0.10322
0.304918	0.107008
0.331384	0.110795
0.360078	0.117424
0.384324	0.119318
0.408596	0.124053
0.432859	0.127841
0.459333	0.132576
0.485791	0.135417
0.510054	0.139205
0.534317	0.142992
0.558581	0.14678
0.589444	0.149621
0.613707	0.153409
0.637979	0.158144
0.664445	0.161932
0.686497	0.164773
0.712963	0.168561
0.741632	0.172348
0.765895	0.176136
0.79015	0.178977
0.818818	0.182765
0.840871	0.185606
0.865142	0.190341
0.891608	0.194129
0.918074	0.197917
0.942329	0.200758
0.968795	0.204545
0.99305	0.207386
1.01511	0.211174
