Adsorption isotherm of Nitrogen on MIL-53(Al)
DOI: 10.1021/Ie200206n
Adsorbate Nitrogen: InChIKey IJGRMHOSHXDMSA-UHFFFAOYSA-N
Temperature: 77 K
Tabular data in the source: 0
pressure (bar)	uptake (cm3(STP)/g)
0.00154619	124.138
0.00358769	143.887
0.00361446	138.245
0.018494	152.351
0.0334003	160.815
0.0525837	167.868
0.069652	170.69
0.0909974	172.1
0.110194	176.332
0.127276	176.332
0.146479	179.154
0.16569	180.564
0.184893	183.386
0.206238	184.796
0.225449	186.207
0.244665	186.207
0.266004	189.028
0.285221	189.028
0.30656	191.85
0.323635	193.26
0.344987	193.26
0.366339	193.26
0.387684	194.671
0.40903	196.082
0.42824	197.492
0.449592	197.492
0.470937	198.903
0.492283	200.313
0.517899	201.724
0.539251	201.724
0.560596	203.135
0.581941	204.545
0.616091	207.367
0.637443	207.367
0.677992	211.599
0.699338	213.009
0.720683	214.42
0.739893	215.831
0.759097	218.652
0.778294	222.884
0.799632	225.705
0.818822	231.348
0.835877	236.991
0.855061	244.044
0.880596	262.382
0.891212	275.078
0.899693	287.774
0.916687	306.113
0.923039	317.398
0.9315	334.326
0.946319	361.129
0.965483	372.414
0.969632	397.806
