Adsorption isotherm of Nitrogen on InH(D-C10H14O4)2
DOI: 10.1039/C1ce05110e
Adsorbate Nitrogen: InChIKey IJGRMHOSHXDMSA-UHFFFAOYSA-N
Temperature: 77 K
Tabular data in the source: 0
pressure (bar)	uptake (cm3(STP)/g)
0.00046211	32.1924
0.000600053	41.8021
0.000731099	50.9313
0.00237262	5.28646
0.00248987	13.4547
0.00259333	20.6619
0.00610399	105.228
0.00617296	110.033
0.0108285	114.36
0.0200845	119.169
0.0293198	122.537
0.0408312	124.465
0.0546531	127.354
0.0753722	130.728
0.0937807	133.139
0.105292	135.067
0.1191	136.996
0.132908	138.925
0.1582	140.859
0.176602	142.79
0.197286	143.761
0.217978	145.213
0.236366	146.183
0.25245	146.671
0.282321	147.647
0.31449	148.624
0.342058	149.118
0.362728	149.128
0.399483	149.627
0.415568	150.115
0.433935	149.644
0.461496	149.658
0.495947	149.675
0.530398	149.692
0.557959	149.705
0.57863	149.716
0.608474	148.769
0.626848	148.778
0.654423	149.753
0.679674	148.805
0.702627	147.855
0.727892	147.867
0.757749	147.882
0.794491	147.42
0.817458	147.431
0.838122	146.961
0.872566	146.498
0.897831	146.51
0.920791	146.041
0.939165	146.05
0.957546	146.54
0.971334	147.027
