Adsorption isotherm of Carbon Dioxide on SNU-M10
DOI: 10.1002/anie.200902836
Adsorbate Carbon Dioxide: InChIKey CURLTUGMZLYLDI-UHFFFAOYSA-N
Temperature: 195 K
Tabular data in the source: 0
pressure (bar)	uptake (cm3(STP)/g)
0.00182509	66.3327
0.0236738	79.1798
0.0914049	97.8386
0.139472	104.568
0.250901	111.603
0.408212	117.721
0.554598	119.862
0.6988	121.392
0.847371	123.839
0.95443	123.227
