Adsorption isotherm of Carbon monoxide on SNU-M11
DOI: 10.1002/anie.200902836
Adsorbate Carbon monoxide: InChIKey UGFAIRIUMAVXCW-UHFFFAOYSA-N
Temperature: 273 K
Tabular data in the source: 0
pressure (bar)	uptake (cm3(STP)/g)
0.0914049	3.93272
0.242161	4.23861
0.331741	4.85037
0.445354	4.54449
0.541489	5.15625
0.644178	4.23861
0.740312	4.85037
0.967539	1.79155
