Adsorption isotherm of Methane on SNU-M11
DOI: 10.1002/anie.200902836
Adsorbate Methane: InChIKey VNWKTOKETHGBQD-UHFFFAOYSA-N
Temperature: 195 K
Tabular data in the source: 0
pressure (bar)	uptake (cm3(STP)/g)
0.00837971	1.17978
0.318632	5.46213
0.416951	5.46213
0.51527	6.68566
0.61359	7.90919
0.711909	9.13272
0.762161	9.13272
0.821153	9.43861
0.910733	10.968
0.971909	10.6621
