Adsorption isotherm of Carbon Dioxide on SNU-M11
DOI: 10.1002/anie.200902836
Adsorbate Carbon Dioxide: InChIKey CURLTUGMZLYLDI-UHFFFAOYSA-N
Temperature: 298 K
Tabular data in the source: 0
pressure (bar)	uptake (cm3(STP)/g)
0.742141	4.69632
0.787295	4.69632
0.839732	4.90025
0.909648	4.90025
0.967911	4.69632
