Adsorption isotherm of Carbon Dioxide on SNU-M10
DOI: 10.1002/anie.200902836
Adsorbate Carbon Dioxide: InChIKey CURLTUGMZLYLDI-UHFFFAOYSA-N
Temperature: 298 K
Tabular data in the source: 0
pressure (bar)	uptake (wt%)
0.775761	10.4556
1.8245	12.4613
4.64299	14.1524
9.82114	15.0176
14.8027	15.4108
19.9153	15.6075
24.7657	15.8041
