Adsorption isotherm of Nitrogen on SNU-M11
DOI: 10.1002/anie.200902836
Adsorbate Nitrogen: InChIKey IJGRMHOSHXDMSA-UHFFFAOYSA-N
Temperature: 298 K
Tabular data in the source: 0
pressure (bar)	uptake (cm3(STP)/g)
0.166791	0.821815
0.214858	1.22966
0.267295	1.43358
0.367799	1.43358
0.46539	1.22966
0.514914	1.43358
0.615418	2.65711
0.765446	2.04534
0.868864	1.6375
