Adsorption isotherm of Carbon Dioxide on SNU-M10
DOI: 10.1002/anie.200902836
Adsorbate Carbon Dioxide: InChIKey CURLTUGMZLYLDI-UHFFFAOYSA-N
Temperature: 298 K
Tabular data in the source: 0
pressure (bar)	uptake (cm3(STP)/g)
0.021489	1.02999
0.156951	2.34091
0.309892	3.12747
0.504346	5.35604
0.60485	7.06024
0.646363	16.3678
0.700985	22.7913
0.797119	35.3762
0.897623	43.2418
0.967539	44.5527
