Adsorption isotherm of Methane on SNU-M10
DOI: 10.1002/anie.200902836
Adsorbate Methane: InChIKey VNWKTOKETHGBQD-UHFFFAOYSA-N
Temperature: 195 K
Tabular data in the source: 0
pressure (bar)	uptake (cm3(STP)/g)
0.111069	1.17978
0.213758	1.79155
0.307707	2.09743
0.456279	2.09743
0.51527	2.09743
0.602665	6.99155
0.700985	13.4151
0.803674	18.6151
0.904178	24.4268
0.9588	25.9563
