Adsorption isotherm of Nitrogen on SNU-M10
DOI: 10.1002/anie.200902836
Adsorbate Nitrogen: InChIKey IJGRMHOSHXDMSA-UHFFFAOYSA-N
Temperature: 195 K
Tabular data in the source: 0
pressure (bar)	uptake (cm3(STP)/g)
0.00619484	0.568017
0.104514	1.48566
0.211573	1.79155
0.360144	3.01508
0.454094	4.23861
0.561153	4.54449
0.657287	5.15625
0.757791	5.15625
0.814598	5.15625
0.860481	5.46213
