Adsorption isotherm of Carbon Dioxide on SNU-M11
DOI: 10.1002/anie.200902836
Adsorbate Carbon Dioxide: InChIKey CURLTUGMZLYLDI-UHFFFAOYSA-N
Temperature: 298 K
Tabular data in the source: 0
pressure (bar)	uptake (wt%)
0.160399	0.0852025
1.99569	0.544026
4.96712	1.00285
15.5419	1.46167
20.1738	2.74638
20.1738	16.6028
22.3587	20.0899
24.631	20.0899
30.0495	20.044
34.7688	20.0899
