Adsorption isotherm of Carbon Dioxide on SNU-M10
DOI: 10.1002/anie.200902836
Adsorbate Carbon Dioxide: InChIKey CURLTUGMZLYLDI-UHFFFAOYSA-N
Temperature: 273 K
Tabular data in the source: 0
pressure (bar)	uptake (cm3(STP)/g)
0.0105646	3.01508
0.0542621	9.74449
0.0717411	17.3915
0.0804806	25.3445
0.08922	41.8621
0.152581	51.9563
0.301153	63.8857
0.558968	70.0033
0.810228	73.6739
0.960985	74.2857
