Adsorption isotherm of Hydrogen on SNU-M10
DOI: 10.1002/anie.200902836
Adsorbate Hydrogen: InChIKey UFHFLCQGNIYNRP-UHFFFAOYSA-N
Temperature: 298 K
Tabular data in the source: 0
pressure (bar)	uptake (cm3(STP)/g)
0.137287	3.25856
0.189724	3.25856
0.237791	3.38965
0.34485	3.38965
0.388548	3.65184
0.637623	4.04512
0.764346	4.04512
0.814598	4.04512
0.86485	4.17621
