Adsorption isotherm of Carbon Dioxide on SNU-M11
DOI: 10.1002/anie.200902836
Adsorbate Carbon Dioxide: InChIKey CURLTUGMZLYLDI-UHFFFAOYSA-N
Temperature: 195 K
Tabular data in the source: 0
pressure (bar)	uptake (cm3(STP)/g)
0.00619484	-0.34963
0.163506	1.79155
0.1788	5.15625
0.198464	32.0739
0.226867	95.6974
0.244346	107.933
0.277119	112.827
0.305523	117.415
0.561153	120.78
0.816783	122.615
0.965355	123.533
