Adsorption isotherm of Nitrogen on SNU-M10
DOI: 10.1002/anie.200902836
Adsorbate Nitrogen: InChIKey IJGRMHOSHXDMSA-UHFFFAOYSA-N
Temperature: 298 K
Tabular data in the source: 0
pressure (bar)	uptake (cm3(STP)/g)
0.00619484	0.767806
0.288044	0.898898
0.381993	0.767806
0.537119	1.16108
0.635439	1.02999
0.729388	1.16108
0.829892	1.42327
0.910733	1.55436
0.965355	1.55436
