Adsorption isotherm of Hydrogen on SNU-M10
DOI: 10.1002/anie.200902836
Adsorbate Hydrogen: InChIKey UFHFLCQGNIYNRP-UHFFFAOYSA-N
Temperature: 195 K
Tabular data in the source: 0
pressure (bar)	uptake (cm3(STP)/g)
0.463934	5.30809
0.713009	6.53162
0.740685	6.73554
0.762533	6.12378
0.790208	6.3277
0.842645	6.53162
0.887799	6.73554
0.964998	6.93946
