Adsorption isotherm of Nitrogen on NO2-MIL-53(Al) (NO2-H2BDC 298)
DOI: 10.1039/c4gc01861c
Article source: Figure S8
Adsorbate Nitrogen: InChIKey IJGRMHOSHXDMSA-UHFFFAOYSA-N
Kind: experiment
Temperature: 77 K
Tabular data in the source: 0
pressure (bar)	uptake (cm3(STP)/g)
0.003058	0.003058
0.007645	181.241
0.010703	184.676
0.015291	193.603
0.018349	189.486
0.019878	197.039
0.027523	191.552
0.038226	192.932
0.041284	201.859
0.050459	194.314
0.053517	201.867
0.059633	195.693
0.062691	202.56
0.067278	196.385
0.073395	197.076
0.084098	198.456
0.094801	197.777
0.100917	205.332
0.108563	199.159
0.111621	205.34
0.119266	199.167
0.126911	206.723
0.139144	201.24
0.146789	206.737
0.16055	201.941
0.166667	208.124
0.175841	208.13
0.181957	202.642
0.188073	208.825
0.203364	203.343
0.206422	209.524
0.212538	204.036
0.220183	209.533
0.227829	204.733
0.235474	209.544
0.24159	204.743
0.249235	205.434
0.252294	210.242
0.266055	210.251
0.269113	206.821
0.279817	210.947
0.282875	207.517
0.292049	207.523
0.295107	210.958
0.301223	207.529
0.308869	207.535
0.310398	210.968
0.319572	207.542
0.325688	212.352
0.331804	208.237
0.340979	212.362
0.345566	208.246
0.35474	212.372
0.359327	208.942
0.368502	212.381
0.377676	209.641
0.380734	209.644
0.38685	213.08
0.388379	210.335
0.394495	210.339
0.402141	213.777
0.408257	210.349
0.412844	210.352
0.414373	213.786
0.422018	210.358
0.426606	215.167
0.438838	211.743
0.458716	215.876
0.460245	211.758
0.477064	217.261
0.487768	211.776
0.490826	218.644
0.506116	213.162
0.507645	218.655
0.521407	218.665
0.524465	213.861
0.536697	213.87
0.550459	214.566
0.565749	214.576
0.58104	215.273
0.582569	220.766
0.59633	215.284
0.610092	215.293
0.623853	221.481
0.626911	216.678
0.640673	216.687
0.642202	222.18
0.657492	222.19
0.669725	222.199
0.671254	217.394
0.686544	218.778
0.701835	219.475
0.715596	219.484
0.718654	223.605
0.732416	219.496
0.744648	224.996
0.747706	220.193
0.762997	225.009
0.775229	221.585
0.776758	225.705
0.782875	221.59
0.792049	226.402
0.795107	222.285
0.807339	227.099
0.808869	223.667
0.82263	227.796
0.827217	224.367
0.836391	229.178
0.842508	225.75
0.853211	229.876
0.85474	226.445
0.865443	231.944
0.870031	227.828
0.880734	234.014
0.88685	229.899
0.897554	236.085
0.900612	231.968
0.911315	239.527
0.917431	235.412
0.928135	244.344
0.931193	238.854
0.941896	251.219
0.946483	244.357
0.955657	260.153
0.961774	255.351
0.969419	271.146
0.972477	266.343
0.975535	284.88
0.980122	280.078
0.98318	299.988
0.986239	296.558
0.989297	313.723
