Adsorption isotherm of Nitrogen on MIL-53(Al) (2 NaOH+H2BDC 298)
DOI: 10.1039/c4gc01861c
Article source: Figure S6
Adsorbate Nitrogen: InChIKey IJGRMHOSHXDMSA-UHFFFAOYSA-N
Kind: experiment
Temperature: 77 K
Tabular data in the source: 0
pressure (bar)	uptake (cm3(STP)/g)
0.011842	256.079
0.018304	269.725
0.019891	260.636
0.029545	263.681
0.029569	274.287
0.039201	268.241
0.042438	277.337
0.048872	278.862
0.050462	271.289
0.056911	278.874
0.058501	271.301
0.069765	275.863
0.069776	280.409
0.077818	281.936
0.079415	277.393
0.089072	281.953
0.090673	278.925
0.10034	288.031
0.101927	278.942
0.111577	280.472
0.111587	285.018
0.121223	280.487
0.12124	288.062
0.129279	288.075
0.140519	282.031
0.140533	288.092
0.150183	289.621
0.159826	288.121
0.161416	280.548
0.171083	289.653
0.180716	283.607
0.18073	289.668
0.190376	289.682
0.200012	285.152
0.204849	291.219
0.209658	285.166
0.219318	291.241
0.22253	289.731
0.232173	288.231
0.235399	292.781
0.240212	288.243
0.249869	292.803
0.25148	294.32
0.259508	289.787
0.265946	292.827
0.267543	288.284
0.280415	292.849
0.280419	294.364
0.293274	291.353
0.293281	294.384
0.298097	291.361
0.309354	292.893
0.309365	297.438
0.318997	291.392
0.323831	295.945
0.330251	291.409
0.341516	295.972
0.341523	299.002
0.349547	292.954
0.354381	297.507
0.357593	295.996
0.370451	294.501
0.370455	296.016
0.386535	297.555
0.399394	296.06
0.399401	299.09
0.409037	294.559
0.417086	299.117
0.420294	296.091
0.431559	300.654
0.442802	296.125
0.446032	302.191
0.45889	300.695
0.460505	303.728
0.47496	297.689
0.474974	303.75
0.491044	300.744
0.491051	303.774
0.50391	302.279
0.505524	305.311
0.519983	300.788
0.521602	305.336
0.536057	299.297
0.536068	303.843
0.548929	303.862
0.548933	305.377
0.566618	305.404
0.566625	308.434
0.579476	303.908
0.582705	309.974
0.595557	305.448
0.595567	309.993
0.610023	303.955
0.611645	310.018
0.626111	308.524
0.626114	310.04
0.638969	307.029
0.638983	313.089
0.653442	308.566
0.656668	313.116
0.672734	308.595
0.672745	313.141
0.687214	313.162
0.687221	316.193
0.700066	308.636
0.700083	316.212
0.716153	313.206
0.716157	314.721
0.730626	314.743
0.730633	317.774
0.743485	313.248
0.743502	320.823
0.759565	314.787
0.759583	322.363
0.774045	319.355
0.777271	323.905
0.790123	319.379
0.793352	325.444
0.804599	322.431
0.807825	326.982
0.815857	323.963
0.822301	330.034
0.83516	328.538
0.836774	331.571
0.848021	328.558
0.852862	336.141
0.862505	334.64
0.870561	342.228
0.875367	334.66
0.889878	352.863
0.896288	343.782
0.912386	352.898
0.912424	369.564
0.923661	362.006
0.92371	383.218
0.943006	384.762
0.947871	402.951
0.947968	445.376
0.955972	430.236
0.96265	537.822
0.972209	499.958
0.974127	634.809
0.975512	537.842
0.978901	613.604
0.978995	654.514
0.982252	672.7
0.985496	684.827
