Adsorption isotherm of Nitrogen on MIL-53(Al) (Na2BDC 298)
DOI: 10.1039/c4gc01861c
Article source: Figure S6
Adsorbate Nitrogen: InChIKey IJGRMHOSHXDMSA-UHFFFAOYSA-N
Kind: experiment
Temperature: 77 K
Tabular data in the source: 0
pressure (bar)	uptake (cm3(STP)/g)
0.008613	250.013
0.016669	257.601
0.023107	260.641
0.026326	262.161
0.037583	263.693
0.056886	268.268
0.06654	271.313
0.079401	271.332
0.093871	271.354
0.106733	271.374
0.116382	272.904
0.122817	274.429
0.132463	274.443
0.142106	272.943
0.146933	274.465
0.161402	274.487
0.171052	276.017
0.179091	276.029
0.195178	280.599
0.203217	280.611
0.209648	280.621
0.219294	280.635
0.233764	280.657
0.240194	280.667
0.248233	280.679
0.259487	280.696
0.270741	280.713
0.285211	280.735
0.296468	282.267
0.304507	282.28
0.317369	282.299
0.318976	282.301
0.330234	283.834
0.333449	283.839
0.346311	283.858
0.355954	282.358
0.363996	283.885
0.376858	283.904
0.386504	283.919
0.404193	285.461
0.410623	285.471
0.421878	285.488
0.441177	288.547
0.468512	290.104
0.478158	290.118
0.489409	288.62
0.505486	288.645
0.519959	290.182
0.53604	291.721
0.552117	291.746
0.561763	291.76
0.581056	291.789
0.593918	291.809
0.611603	291.836
0.626076	293.373
0.638941	294.907
0.655018	294.932
0.672703	294.959
0.685565	294.978
0.695218	298.023
0.714507	296.537
0.725768	299.584
0.745061	299.614
0.762753	302.671
0.777226	304.208
0.790091	305.743
0.846421	331.585
0.852827	320.989
0.860915	342.214
0.865693	322.524
0.867363	349.799
0.876957	327.086
0.883478	366.49
0.891444	334.684
0.894785	389.235
0.905955	352.888
0.915821	448.357
0.926911	377.162
0.933645	508.99
0.941471	416.578
0.941704	518.093
0.94634	436.282
0.946528	518.101
0.954434	460.537
0.96423	525.703
0.970626	510.562
0.985141	530.281
0.9932	539.384
