Adsorption isotherm of Nitrogen on MOF-74 (water)
DOI: 10.1039/c4gc01861c
Article source: Figure 8
Adsorbate Nitrogen: InChIKey IJGRMHOSHXDMSA-UHFFFAOYSA-N
Kind: experiment
Temperature: 77 K
Tabular data in the source: 0
pressure (bar)	uptake (cm3(STP)/g)
0.013483	262.338
0.017978	264.935
0.035955	267.532
0.044944	267.532
0.05618	267.532
0.069663	267.532
0.078652	270.13
0.094382	270.13
0.105618	270.13
0.119101	270.13
0.12809	270.13
0.139326	272.727
0.152809	272.727
0.164045	272.727
0.173034	272.727
0.182022	270.13
0.188764	270.13
0.197753	267.532
0.202247	270.13
0.208989	270.13
0.220225	270.13
0.224719	270.13
0.231461	270.13
0.238202	270.13
0.251685	270.13
0.262921	270.13
0.280899	270.13
0.298876	270.13
0.31236	270.13
0.325843	272.727
0.334831	272.727
0.341573	272.727
0.352809	272.727
0.364045	272.727
0.391011	272.727
0.395506	272.727
0.404494	272.727
0.429213	272.727
0.435955	272.727
0.440449	272.727
0.447191	272.727
0.462921	272.727
0.478652	272.727
0.480899	270.13
0.492135	275.325
0.498876	275.325
0.510112	272.727
0.530337	275.325
0.541573	270.13
0.559551	272.727
0.570787	270.13
0.579775	270.13
0.588764	272.727
0.595506	270.13
0.622472	275.325
0.631461	272.727
0.651685	275.325
0.662921	272.727
0.676404	275.325
0.689888	270.13
0.701124	272.727
0.714607	272.727
0.734831	272.727
0.748315	272.727
0.759551	275.325
0.775281	272.727
0.793258	272.727
0.797753	272.727
0.804494	272.727
0.822472	272.727
0.833708	275.325
0.849438	275.325
0.858427	275.325
0.865169	272.727
0.880899	272.727
0.889888	275.325
0.896629	272.727
0.914607	275.325
0.919101	275.325
0.925843	272.727
0.94382	275.325
0.952809	277.922
0.961798	277.922
0.968539	277.922
0.986517	283.117
