Adsorption isotherm of Nitrogen on MOF-5 (Na2BDC 373)
DOI: 10.1039/c4gc01861c
Article source: Figure 10
Adsorbate Nitrogen: InChIKey IJGRMHOSHXDMSA-UHFFFAOYSA-N
Kind: experiment
Temperature: 77 K
Tabular data in the source: 0
pressure (bar)	uptake (cm3(STP)/g)
0.004504	144.578
0.013513	149.096
0.022523	150.602
0.033784	153.614
0.04955	156.627
0.065315	158.133
0.087838	159.639
0.117117	161.145
0.137387	161.145
0.162162	162.651
0.18018	162.651
0.198198	162.651
0.202703	162.651
0.209459	162.651
0.222973	162.651
0.22973	162.651
0.240991	162.651
0.254505	164.157
0.259009	164.157
0.268018	164.157
0.277027	164.157
0.286036	164.157
0.295045	164.157
0.308559	164.157
0.31982	164.157
0.328829	164.157
0.34009	164.157
0.351351	165.663
0.364865	165.663
0.371622	165.663
0.382883	165.663
0.38964	165.663
0.400901	165.663
0.40991	165.663
0.418919	167.169
0.441441	167.169
0.463964	167.169
0.47973	167.169
0.486486	167.169
0.504505	167.169
0.52027	168.675
0.533784	168.675
0.551802	168.675
0.567568	170.181
0.581081	170.181
0.594595	170.181
0.61036	168.675
0.619369	168.675
0.63964	170.181
0.65991	170.181
0.673423	170.181
0.689189	170.181
0.70045	171.687
0.711712	171.687
0.72973	171.687
0.747748	171.687
0.763514	171.687
0.772523	171.687
0.792793	173.193
0.808559	173.193
0.81982	173.193
0.835586	173.193
0.849099	174.699
0.867117	174.699
0.88964	177.711
0.898649	177.711
0.90991	180.723
0.918919	180.723
0.927928	180.723
0.936937	182.229
0.945946	183.735
0.957207	186.747
0.959459	188.253
0.968468	191.265
0.975225	195.783
0.97973	198.795
0.984234	203.313
0.988739	210.843
