Adsorption isotherm of Nitrogen on MIL-53(Al) (493)
DOI: 10.1039/c4gc01861c
Article source: Figure S6
Adsorbate Nitrogen: InChIKey IJGRMHOSHXDMSA-UHFFFAOYSA-N
Kind: experiment
Temperature: 77 K
Tabular data in the source: 0
pressure (bar)	uptake (cm3(STP)/g)
0.008696	286.377
0.016745	290.934
0.032826	292.474
0.040872	295.516
0.047306	297.041
0.053737	297.051
0.060168	297.061
0.077856	298.603
0.095545	300.145
0.106799	300.162
0.121268	300.184
0.130915	300.198
0.13413	300.203
0.146995	301.738
0.163072	301.762
0.167896	301.77
0.17915	301.787
0.190404	301.804
0.20005	301.818
0.208089	301.83
0.212912	301.838
0.220951	301.85
0.232205	301.867
0.24507	303.402
0.249893	303.409
0.261147	303.426
0.28044	303.455
0.290086	303.47
0.296517	303.48
0.312594	303.504
0.323852	305.036
0.343144	305.065
0.356003	303.57
0.368871	306.62
0.378518	306.634
0.39138	306.654
0.39781	306.663
0.409064	306.68
0.413888	306.688
0.431569	305.199
0.436396	306.722
0.447653	308.254
0.463727	306.763
0.474985	308.295
0.491062	308.32
0.502316	308.337
0.521609	308.366
0.536078	308.388
0.550548	308.41
0.563409	308.429
0.577879	308.451
0.614853	306.992
0.635753	307.024
0.656654	307.056
0.669512	305.56
0.683982	305.582
0.696843	305.601
0.719355	307.151
0.730613	308.683
0.743474	308.702
0.765982	308.736
0.778844	308.756
0.794921	308.78
0.807783	308.8
0.823864	310.339
0.839941	310.364
0.846372	310.373
0.862446	308.882
0.875314	311.932
0.87853	311.937
0.892996	310.444
0.910691	315.016
0.915508	311.993
0.929984	315.045
0.936415	315.055
0.946058	313.555
0.950881	313.562
0.966962	315.101
0.978219	316.634
0.983049	319.671
0.989487	322.711
