Adsorption isotherm of Nitrogen on MOF-74 (DMF)
DOI: 10.1039/c4gc01861c
Article source: Figure 8
Adsorbate Nitrogen: InChIKey IJGRMHOSHXDMSA-UHFFFAOYSA-N
Kind: experiment
Temperature: 77 K
Tabular data in the source: 0
pressure (bar)	uptake (cm3(STP)/g)
0.011236	212.987
0.029213	212.987
0.044944	215.584
0.058427	215.584
0.069663	218.182
0.080899	218.182
0.098876	215.584
0.114607	218.182
0.161798	220.779
0.211236	220.779
0.262921	218.182
0.31236	220.779
0.359551	223.377
0.411236	220.779
0.460674	220.779
0.489888	220.779
0.51236	220.779
0.559551	223.377
0.595506	228.571
0.613483	220.779
0.660674	220.779
0.696629	228.571
0.710112	223.377
0.759551	223.377
0.797753	225.974
0.808989	223.377
0.858427	223.377
0.894382	231.169
0.907865	223.377
0.955056	228.571
0.997753	236.364
