Adsorption isotherm of Nitrogen on Nanocrystalline MOF-74 (DMF)
DOI: 10.1039/c4gc01861c
Article source: Figure 8
Adsorbate Nitrogen: InChIKey IJGRMHOSHXDMSA-UHFFFAOYSA-N
Kind: experiment
Temperature: 77 K
Tabular data in the source: 0
pressure (bar)	uptake (cm3(STP)/g)
0.008989	220.779
0.022472	228.571
0.029213	233.766
0.042697	236.364
0.049438	238.961
0.060674	238.961
0.07191	244.156
0.08764	246.753
0.103371	246.753
0.11236	249.351
0.123596	249.351
0.14382	254.545
0.152809	254.545
0.161798	254.545
0.177528	257.143
0.193258	259.74
0.21573	262.338
0.224719	262.338
0.238202	264.935
0.242697	264.935
0.25618	264.935
0.269663	267.532
0.278652	267.532
0.296629	267.532
0.31236	267.532
0.316854	272.727
0.330337	272.727
0.339326	272.727
0.355056	272.727
0.373034	277.922
0.386517	277.922
0.406742	280.519
0.41573	280.519
0.433708	280.519
0.447191	283.117
0.460674	283.117
0.462921	285.714
0.476404	285.714
0.478652	288.312
0.492135	285.714
0.503371	285.714
0.507865	293.506
0.519101	290.909
0.523596	296.104
0.534831	293.506
0.537079	296.104
0.550562	293.506
0.552809	298.701
0.561798	296.104
0.568539	301.299
0.575281	298.701
0.58427	303.896
0.591011	301.299
0.597753	306.494
0.604494	306.494
0.611236	306.494
0.622472	306.494
0.629213	311.688
0.635955	309.091
0.644944	314.286
0.651685	311.688
0.660674	316.883
0.665169	314.286
0.674157	322.078
0.678652	316.883
0.689888	324.675
0.696629	322.078
0.705618	327.273
0.707865	322.078
0.721348	332.468
0.725843	329.87
0.737079	340.26
0.739326	332.468
0.750562	345.455
0.755056	335.065
0.768539	353.247
0.782022	358.442
0.78427	348.052
0.793258	366.234
0.802247	358.442
0.808989	379.221
0.813483	363.636
0.824719	394.805
0.831461	379.221
0.842697	412.987
0.853933	438.961
0.858427	405.195
0.869663	475.325
0.874157	423.377
0.883146	540.26
0.88764	451.948
0.894382	459.74
0.901124	662.338
0.907865	503.896
0.914607	742.857
0.923596	561.039
0.925843	750.649
0.937079	750.649
0.946067	688.312
0.952809	724.675
0.959551	753.247
0.982022	755.844
0.997753	763.636
