Adsorption isotherm of Nitrogen on MIL-53(Al)
DOI: 10.1039/c4gc01861c
Article source: Figure 3
Adsorbate Nitrogen: InChIKey IJGRMHOSHXDMSA-UHFFFAOYSA-N
Kind: experiment
Temperature: 77 K
Tabular data in the source: 0
pressure (bar)	uptake (cm3(STP)/g)
0.009009	250.877
0.015766	256.14
0.018018	261.404
0.029279	261.404
0.033784	266.667
0.036036	263.158
0.045045	268.421
0.047297	264.912
0.054054	270.175
0.056306	266.667
0.065315	271.93
0.067568	268.421
0.081081	268.421
0.083333	273.684
0.087838	270.175
0.103604	275.439
0.105856	273.684
0.117117	275.439
0.128378	275.439
0.141892	277.193
0.153153	277.193
0.157658	273.684
0.168919	277.193
0.18018	275.439
0.186937	278.947
0.20045	278.947
0.204955	277.193
0.213964	280.702
0.216216	278.947
0.220721	278.947
0.227477	280.702
0.231982	278.947
0.238739	280.702
0.245495	280.702
0.254505	280.702
0.263514	280.702
0.272523	280.702
0.277027	282.456
0.283784	280.702
0.295045	282.456
0.29955	280.702
0.310811	282.456
0.31982	284.211
0.326577	280.702
0.337838	282.456
0.344595	284.211
0.346847	282.456
0.355856	284.211
0.358108	282.456
0.367117	282.456
0.371622	285.965
0.385135	285.965
0.38964	282.456
0.398649	285.965
0.405405	284.211
0.416667	285.965
0.418919	284.211
0.432432	285.965
0.439189	284.211
0.441441	285.965
0.457207	287.719
0.472973	285.965
0.477477	289.474
0.488739	287.719
0.490991	291.228
0.502252	291.228
0.504505	287.719
0.515766	292.982
0.52027	289.474
0.531532	292.982
0.536036	289.474
0.54955	292.982
0.563063	291.228
0.565315	294.737
0.581081	291.228
0.583333	294.737
0.594595	291.228
0.599099	296.491
0.608108	292.982
0.623874	296.491
0.626126	292.982
0.63964	292.982
0.646396	298.246
0.653153	294.737
0.662162	298.246
0.668919	294.737
0.682432	298.246
0.684685	296.491
0.695946	296.491
0.702703	300
0.713964	296.491
0.720721	301.754
0.727477	296.491
0.736486	303.509
0.743243	298.246
0.754505	298.246
0.759009	303.509
0.772523	301.754
0.781532	307.018
0.786036	305.263
0.792793	314.035
0.801802	307.018
0.806306	319.298
0.822072	322.807
0.828829	315.789
0.842342	329.825
0.844595	319.298
0.853604	338.596
0.858108	322.807
0.864865	350.877
0.876126	328.07
0.882883	368.421
0.88964	338.596
0.894144	385.965
0.898649	343.86
0.90991	352.632
0.914414	445.614
0.925676	375.439
0.932432	508.772
0.941441	412.281
0.945946	519.298
0.948198	435.088
0.954955	459.649
0.963964	524.561
0.970721	508.772
0.972973	529.825
0.984234	531.579
0.995495	543.86
