Adsorption isotherm of Nitrogen on MOF-5 (Na2BDC 298)
DOI: 10.1039/c4gc01861c
Article source: Figure 10
Adsorbate Nitrogen: InChIKey IJGRMHOSHXDMSA-UHFFFAOYSA-N
Kind: experiment
Temperature: 77 K
Tabular data in the source: 0
pressure (bar)	uptake (cm3(STP)/g)
0.011261	143.072
0.015766	147.59
0.027027	150.602
0.038288	153.614
0.045045	153.614
0.056306	156.627
0.065315	156.627
0.074324	156.627
0.085586	158.133
0.092342	159.639
0.099099	159.639
0.11036	159.639
0.119369	159.639
0.13964	162.651
0.15991	162.651
0.177928	164.157
0.204955	164.157
0.211712	164.157
0.216216	164.157
0.227477	164.157
0.238739	165.663
0.247748	165.663
0.256757	165.663
0.263514	165.663
0.279279	165.663
0.288288	167.169
0.29955	167.169
0.313063	165.663
0.31982	167.169
0.328829	167.169
0.337838	167.169
0.351351	170.181
0.36036	170.181
0.367117	168.675
0.378378	167.169
0.391892	168.675
0.405405	170.181
0.418919	170.181
0.441441	170.181
0.461712	170.181
0.475225	170.181
0.493243	171.687
0.506757	171.687
0.52027	171.687
0.536036	171.687
0.545045	171.687
0.567568	173.193
0.583333	173.193
0.596847	173.193
0.61036	173.193
0.626126	173.193
0.641892	174.699
0.655405	174.699
0.671171	176.205
0.686937	176.205
0.70045	176.205
0.713964	176.205
0.731982	176.205
0.745495	176.205
0.761261	177.711
0.777027	177.711
0.790541	177.711
0.804054	177.711
0.824324	180.723
0.84009	180.723
0.849099	180.723
0.862613	180.723
0.885135	180.723
0.896396	183.735
0.898649	182.229
0.916667	185.241
0.936937	189.759
0.945946	189.759
0.952703	192.771
0.963964	197.289
0.970721	200.301
0.977477	201.807
0.97973	207.831
0.984234	212.349
0.986486	213.855
