Adsorption isotherm of Nitrogen on NH2-MIL-53(Al)
DOI: 10.1039/c4gc01861c
Article source: Figure 6
Adsorbate Nitrogen: InChIKey IJGRMHOSHXDMSA-UHFFFAOYSA-N
Kind: experiment
Temperature: 77 K
Tabular data in the source: 0
pressure (bar)	uptake (cm3(STP)/g)
0.007905	163.58
0.011858	166.742
0.01581	174.126
0.023715	169.896
0.027668	176.224
0.035573	170.939
0.047431	178.314
0.055336	174.084
0.063241	175.131
0.075099	180.396
0.086957	176.162
0.090909	181.434
0.110672	177.192
0.12253	182.456
0.13834	182.44
0.142292	179.269
0.166008	179.244
0.197628	180.266
0.213439	184.471
0.221344	184.463
0.225296	185.514
0.249012	185.489
0.256917	181.259
0.268775	187.579
0.27668	186.515
0.288538	181.226
0.296443	187.55
0.300395	187.546
0.3083	187.537
0.328063	188.572
0.332016	183.291
0.343874	188.555
0.359684	188.539
0.387352	185.343
0.391304	189.561
0.41502	186.369
0.418972	189.531
0.44664	186.336
0.450593	193.72
0.466403	194.758
0.478261	186.303
0.494071	186.286
0.498024	196.836
0.505929	186.273
0.521739	196.811
0.525692	186.253
0.537549	197.85
0.561265	187.27
0.577075	197.808
0.600791	188.284
0.604743	197.779
0.616601	197.766
0.628458	189.31
0.640316	198.797
0.656126	199.835
0.675889	199.814
0.687747	191.359
0.695652	200.849
0.70751	192.393
0.719368	202.935
0.727273	193.428
0.73913	203.969
0.754941	203.953
0.766798	196.552
0.770751	204.991
0.786561	204.975
0.794466	197.578
0.802372	206.013
0.810277	198.617
0.814229	207.056
0.833992	201.758
0.84585	208.078
0.849802	203.852
0.853755	208.07
0.865613	210.168
0.873518	203.827
0.901186	206.964
0.905138	210.127
0.916996	206.948
0.936759	212.204
0.940711	210.089
0.956522	211.128
0.964427	214.286
0.972332	213.222
0.980237	214.269
0.98419	215.32
