Adsorption isotherm of Nalidixic Acid Dimer on goethite
DOI: 10.1021/acs.est.7b02900
Article source: Figure 1d
Adsorbate Nalidixic Acid Dimer: InChIKey NIST-ISODB-98D4952F59F73F25549A
Kind: experiment
Temperature: 298 K
Tabular data in the source: 0
pressure (bar)	uptake (micromoles/m2)
1.01325	0.01295
1.01325	0.02211
1.01325	0.04448
1.01325	0.07503
1.01325	0.11066
1.01325	0.16463
1.01325	0.22878
1.01325	0.27358
1.01325	0.31125
1.01325	0.3306
1.01325	0.36726
1.01325	0.41614
1.01325	0.43854
1.01325	0.46806
1.01325	0.48741
1.01325	0.52202
1.01325	0.5546
1.01325	0.59432
1.01325	0.61468
1.01325	0.62486
1.01325	0.65336
1.01325	0.6615
