Adsorption isotherm of Nalidixic Acid on goethite
DOI: 10.1021/acs.est.7b02900
Article source: Figure 1d
Adsorbate Nalidixic Acid: InChIKey MHWLWQUZZRMNGJ-UHFFFAOYSA-N
Kind: experiment
Temperature: 298 K
Tabular data in the source: 0
pressure (bar)	uptake (micromoles/m2)
1.01325	0.05095
1.01325	0.0744
1.01325	0.11807
1.01325	0.13101
1.01325	0.1488
1.01325	0.15042
1.01325	0.22642
1.01325	0.31053
1.01325	0.29191
1.01325	0.3906
1.01325	0.46903
1.01325	0.45932
1.01325	0.5329
1.01325	0.62754
1.01325	0.58625
1.01325	0.73827
1.01325	0.88139
1.01325	1.14496
1.01325	1.37741
