Adsorption isotherm of Nalidixic Acid Monomer on goethite
DOI: 10.1021/acs.est.7b02900
Article source: Figure 2C
Adsorbate Nalidixic Acid Monomer: InChIKey NIST-ISODB-819A4DBFE69F8A5B244B
Kind: experiment
Temperature: 298 K
Tabular data in the source: 0
pressure (bar)	uptake (micromoles/m2)
1.01325	0.02281
1.01325	0.06362
1.01325	0.12441
1.01325	0.15689
1.01325	0.19858
1.01325	0.24615
1.01325	0.26704
1.01325	0.28214
1.01325	0.30652
1.01325	0.31828
