Adsorption isotherm of Niflumic acid, Nalidixic Acid on goethite
DOI: 10.1021/acs.est.7b02900
Article source: Figure 2C
Adsorbate Niflumic acid: InChIKey JZFPYUNJRRFVQU-UHFFFAOYSA-N
Adsorbate Nalidixic Acid: InChIKey MHWLWQUZZRMNGJ-UHFFFAOYSA-N
Kind: experiment
Temperature: 298 K
Tabular data in the source: 0
pressure (bar)	Niflumic acid fraction	Niflumic acid uptake (micromoles/m2)	Nalidixic Acid fraction	Nalidixic Acid uptake (micromoles/m2)	total uptake (micromoles/m2)
1.01325	2.049	0.03306	1.174	0.12412	
1.01325	2.825	0.05684	1.424	0.14327	
1.01325	4.045	0.08856	1.73	0.16044	
1.01325	4.986	0.10574	2.369	0.1862	
1.01325	8.034	0.17447	3.732	0.27733	
1.01325	10.362	0.24318	4.435	0.38428	
1.01325	12.579	0.29736	5.881	0.47012	
1.01325	14.853	0.36607	7.162	0.56587	
1.01325	17.789	0.42951	8.002	0.66754	
1.01325	21.997	0.49563	9.558	0.75075	
1.01325	36.324	0.58314	16.889	1.07371	
1.01325	52.531	0.68125	28.436	1.2826	
1.01325	67.082	0.80837	40.341	1.47961	
