Adsorption isotherm of Nalidixic Acid Dimer on goethite
DOI: 10.1021/acs.est.7b02900
Article source: Figure 2C
Adsorbate Nalidixic Acid Dimer: InChIKey NIST-ISODB-98D4952F59F73F25549A
Kind: experiment
Temperature: 298 K
Tabular data in the source: 0
pressure (bar)	uptake (micromoles/m2)
1.01325	0.00218
1.01325	0.01794
1.01325	0.04211
1.01325	0.04686
1.01325	0.05371
1.01325	0.06161
1.01325	0.06477
1.01325	0.07006
1.01325	0.08109
1.01325	0.08427
1.01325	0.09376
1.01325	0.10481
1.01325	0.10903
1.01325	0.11325
1.01325	0.11905
1.01325	0.1259
1.01325	0.13014
1.01325	0.13384
1.01325	0.13754
1.01325	0.13862
1.01325	0.14336
1.01325	0.14443
1.01325	0.14443
1.01325	0.1497
1.01325	0.15181
1.01325	0.15498
1.01325	0.15761
1.01325	0.16078
1.01325	0.16395
1.01325	0.16397
1.01325	0.16607
1.01325	0.16557
1.01325	0.16505
1.01325	0.16664
1.01325	0.16771
