Adsorption isotherm of Niflumic acid on goethite
DOI: 10.1021/acs.est.7b02900
Article source: Figure 1d
Adsorbate Niflumic acid: InChIKey JZFPYUNJRRFVQU-UHFFFAOYSA-N
Kind: experiment
Temperature: 298 K
Tabular data in the source: 0
pressure (bar)	uptake (micromoles/m2)
1.01325	0.000521
1.01325	0.000612
1.01325	0.001821
1.01325	0.002189
1.01325	0.000973
1.01325	0.002921
1.01325	0.004214
1.01325	0.005316
1.01325	0.006701
1.01325	0.012205
1.01325	0.007058
1.01325	0.007789
1.01325	0.014319
1.01325	0.010109
1.01325	0.019149
1.01325	0.021637
1.01325	0.029798
1.01325	0.030006
