Adsorption isotherm of Nitrogen on o-TetPB-COF (n-BuOH)
DOI: 10.1002/anie.202015130
Article source: Figure S21
Adsorbate Nitrogen: InChIKey IJGRMHOSHXDMSA-UHFFFAOYSA-N
Kind: experiment
Temperature: 77 K
Tabular data in the source: 0
pressure (bar)	uptake (cm3(STP)/g)
0.002113	5.88745
0.001198	10.2853
0.002539	15.0528
0.002976	20.1857
0.002063	23.8504
0.000245	27.8805
0.000236	31.1798
-0.000683	37.0441
-0.000698	42.1764
0.001093	47.6777
0.001074	54.2763
0.001959	60.8762
0.00285	64.9099
0.002841	68.2092
0.001927	72.2405
0.002361	78.4732
0.000994	82.8705
7.8e-05	87.6349
0.00096	94.968
0.003652	100.837
0.002738	104.868
0.003627	109.635
0.001809	114.032
0.002698	119.165
0.004491	123.567
0.004484	126.133
0.004471	130.899
0.002652	135.296
0.004446	139.697
0.002627	144.46
0.003063	149.96
0.003505	153.26
0.003494	157.292
0.002579	161.324
0.004372	166.092
0.002555	170.122
0.003443	175.255
0.002527	180.02
0.003416	184.787
0.003403	189.552
0.002484	195.417
0.002926	198.716
0.003366	202.75
0.004255	207.516
0.005147	211.55
0.004233	215.582
0.006471	222.183
0.013211	233.557
0.018609	240.529
0.040248	251.19
0.055578	258.176
0.07633	263.336
0.093472	267.758
0.115132	271.087
0.1404	275.887
0.157998	278.66
0.213503	286.8
0.268564	292.19
0.322269	298.128
0.376877	304.067
0.429231	308.903
0.481587	313.007
0.535748	317.479
0.643164	327.155
0.748771	338.113
0.851666	350.532
0.906709	362.338
0.9464	374.855
0.94369	375.585
0.905803	363.253
0.850758	352.364
0.793899	343.856
0.747867	338.661
0.735227	338.278
0.689191	334.549
0.628714	328.602
0.585386	324.878
0.525811	319.298
0.477968	315.568
0.420198	310.174
0.372357	305.894
0.36243	304.414
0.31549	300.685
0.268552	296.222
0.257722	294.741
0.233351	292.142
0.210785	289.912
0.18732	286.581
0.172879	284.729
0.16205	282.515
0.152122	281.401
0.12956	277.705
0.107901	274.01
0.084439	269.212
0.075417	267.001
0.057372	262.211
0.041136	256.69
0.023106	246.584
