Adsorption isotherm of Nitrogen on m-TetPB-COF-K (THF)
DOI: 10.1002/anie.202015130
Article source: Figure S5
Adsorbate Nitrogen: InChIKey IJGRMHOSHXDMSA-UHFFFAOYSA-N
Kind: experiment
Temperature: 77 K
Tabular data in the source: 0
pressure (bar)	uptake (cm3(STP)/g)
0.002913	8.65628
0.003689	26.1436
0.006115	45.7312
0.005235	63.2165
0.006004	83.1518
0.004303	98.188
0.005495	115.326
0.00421	129.663
0.004988	146.451
0.004123	159.04
0.005741	171.632
0.00404	187.018
0.007292	207.306
0.008062	226.892
0.008012	243.679
0.012061	274.46
0.016141	294.749
0.021889	310.843
0.02599	324.138
0.035016	352.127
0.037043	366.469
0.043628	379.766
0.051436	399.71
0.060501	414.41
0.067021	449.391
0.072778	462.688
0.085977	479.491
0.106209	498.051
0.131414	515.219
0.15457	525.04
0.171518	534.154
0.190116	545.368
0.212022	557.985
0.23228	567.803
0.264542	578.684
0.314987	600.779
0.369162	621.83
0.421691	639.381
0.476278	661.132
0.528383	682.18
0.578832	703.226
0.669801	742.508
0.728501	773.356
0.814452	829.419
0.873067	888.945
0.919216	963.843
0.904358	947.737
0.854003	895.216
0.801977	847.589
0.744956	809.049
0.687082	778.9
0.638296	755.758
0.580409	729.807
0.530782	710.86
0.476216	682.115
0.429916	658.277
0.42082	654.069
0.367879	635.817
0.317424	616.87
0.267803	595.825
0.258705	592.316
0.228105	579.688
0.209086	570.572
0.187584	561.452
0.178492	555.845
0.1694	550.239
0.15204	540.425
0.133444	528.861
0.106581	512.39
0.089235	497.681
0.074374	482.974
0.066166	458.483
0.060399	448.683
0.053029	420.696
0.046035	405.999
0.044401	398.303
0.031664	365.413
0.025899	354.914
0.023448	343.72
