Adsorption isotherm of Nitrogen on p-TetPB-COF-K (dioxane)
DOI: 10.1002/anie.202015130
Article source: Figure 1
Adsorbate Nitrogen: InChIKey IJGRMHOSHXDMSA-UHFFFAOYSA-N
Kind: experiment
Temperature: 77 K
Tabular data in the source: 0
pressure (bar)	uptake (cm3(STP)/g)
0.001258	7.93454
0.000842	16.8618
0.001215	29.192
0.001992	38.5471
0.001175	48.7489
0.001946	61.08
0.001921	73.4094
0.001899	84.4633
0.001875	95.9423
0.001849	108.697
0.001827	119.751
0.001799	133.355
0.001774	145.685
0.003344	157.167
0.003318	169.922
0.010844	189.921
0.017597	198.864
0.022354	209.504
0.033474	225.26
0.040623	235.054
0.049362	246.553
0.056115	255.071
0.06844	265.728
0.087539	275.124
0.110618	285.38
0.139277	293.948
0.155198	299.085
0.183062	306.588
0.214114	313.248
0.269054	324.426
0.323997	334.328
0.376551	343.8
0.431892	353.279
0.483649	362.961
0.594329	383.618
0.699829	405.326
0.800138	434.037
0.893645	477.401
0.936577	517.675
0.934587	517.245
0.898794	491.655
0.846276	464.752
0.79772	447.637
0.73602	431.342
0.687056	419.327
0.633707	409.003
0.581949	399.958
0.530192	390.488
0.478435	381.018
0.419532	360.053
0.36618	351.43
0.312034	341.529
0.260276	332.484
0.235592	327.752
0.223651	323.899
0.208921	321.102
0.184636	316.158
0.16712	311.867
0.144033	305.437
0.131294	302.433
0.106618	293.874
0.084331	285.746
0.071597	280.19
0.058084	266.342
0.050934	256.76
0.043784	247.391
0.039811	242.705
