Adsorption isotherm of Nitrogen on p-TetPB-COF-M (synthezied BuOH)
DOI: 10.1002/anie.202015130
Article source: Figure 3
Adsorbate Nitrogen: InChIKey IJGRMHOSHXDMSA-UHFFFAOYSA-N
Kind: experiment
Temperature: 77 K
Tabular data in the source: 0
pressure (bar)	uptake (cm3(STP)/g)
0.000726	4.0996
0.000726	10.2624
-2.7e-05	15.4521
-0.000779	21.6148
-2.7e-05	29.075
-2.7e-05	35.2378
-2.7e-05	38.8057
-2.7e-05	43.9954
-2.7e-05	49.1851
-2.7e-05	53.7261
0.000726	58.2671
-2.7e-05	62.8081
0.000726	68.9709
0.000726	74.4849
0.000726	79.0259
0.000726	84.54
0.000726	91.0271
0.000726	96.5412
0.000726	102.055
0.000726	107.894
0.000726	114.056
0.000726	119.57
-2.7e-05	126.382
-2.7e-05	131.572
0.00035	138.383
-0.000779	145.519
-2.7e-05	152.33
-2.7e-05	157.196
-0.000779	163.359
-2.7e-05	169.197
-2.7e-05	173.414
-2.7e-05	177.306
-2.7e-05	181.198
0.00035	186.064
-2.7e-05	191.253
0.000726	196.767
0.001854	204.876
0.002231	211.039
0.003735	216.553
0.005993	222.067
0.007497	233.42
0.015774	238.934
0.021041	243.637
0.040603	254.503
0.058661	260.017
0.075214	265.855
0.092143	269.91
0.112834	273.964
0.140673	280.127
0.157226	282.073
0.183561	285.641
0.214786	290.506
0.26783	296.993
0.321251	302.507
0.375424	308.022
0.427717	314.022
0.480761	319.374
0.534182	324.888
0.642529	335.592
0.74937	346.944
0.854707	362.676
0.951015	393.976
0.909633	379.056
0.896842	375.812
0.853955	366.081
0.842669	364.46
0.796772	357.972
0.739589	350.837
0.694445	345.971
0.682406	344.349
0.635005	340.133
0.577822	336.241
0.532677	331.213
0.476247	326.185
0.419064	319.374
0.372791	314.509
0.313727	308.346
0.268917	303.129
0.255593	302.228
0.231819	299.525
0.207784	295.471
0.183226	292.543
0.170164	289.614
0.147696	286.573
0.133588	284.659
0.111643	280.604
0.088653	275.762
0.068798	270.468
0.05678	267.09
0.039799	260.557
0.030132	255.151
0.021772	250.872
0.015502	244.565
0.011845	240.51
0.009493	235.33
0.006097	228.572
