Adsorption isotherm of Nitrogen on p-TetPB-COF-K (THF)
DOI: 10.1002/anie.202015130
Article source: Figure 1
Adsorbate Nitrogen: InChIKey IJGRMHOSHXDMSA-UHFFFAOYSA-N
Kind: experiment
Temperature: 77 K
Tabular data in the source: 0
pressure (bar)	uptake (cm3(STP)/g)
0.00043	23.3232
0.002298	44.755
0.000345	65.1579
-0.000173	84.5436
0.001221	104.444
0.002136	124.343
0.002095	144.24
0.003013	163.119
0.002972	183.016
0.003904	194.752
0.006741	210.064
0.008624	223.843
0.010495	243.744
0.012374	260.074
0.018081	273.862
0.027602	292.25
0.032359	303.485
0.038547	315.743
0.047116	332.089
0.056633	353.027
0.058996	365.787
0.064691	385.697
0.078997	401.545
0.100481	412.818
0.120055	423.065
0.142496	433.83
0.165904	439.495
0.187871	448.217
0.206497	454.892
0.227992	461.062
0.257612	466.741
0.276718	472.396
0.308246	480.12
0.329268	483.739
0.357934	488.905
0.388031	495.095
0.409529	499.735
0.431505	504.376
0.461126	509.545
0.489789	516.242
0.508897	520.877
0.528007	524.491
0.559539	530.174
0.582948	535.329
0.613046	541.009
0.639798	547.191
0.66225	552.344
0.691392	558.532
0.710496	565.207
0.759222	576.541
0.807941	591.956
0.857606	611.455
0.903914	637.069
0.91201	651.372
0.91201	651.372
0.912488	651.118
0.86281	637.741
0.813624	617.478
0.763003	597.467
0.710458	583.574
0.683708	576.881
0.656956	570.698
0.634024	566.055
0.603448	560.374
0.575738	555.21
0.552808	550.056
0.525097	545.402
0.504076	541.273
0.483054	537.655
0.454398	527.896
0.423833	516.604
0.4009	512.47
0.379879	508.342
0.350259	502.663
0.321595	496.476
0.300571	493.878
0.269996	487.686
0.249933	482.539
0.220316	475.33
0.199297	470.181
0.179234	465.034
0.160129	458.868
0.14007	451.681
0.118101	443.978
0.099959	434.244
0.085638	426.049
0.072279	414.795
0.063702	402.021
0.057044	385.68
0.051336	372.402
0.045632	357.084
0.040872	347.38
0.035161	335.633
0.03231	327.463
0.026587	321.328
0.024689	314.692
0.022793	307.035
0.01993	304.477
0.018991	296.312
0.017085	293.757
0.014232	286.608
