Adsorption isotherm of Nitrogen on TetPB-TetPB-COF
DOI: 10.1002/anie.202015130
Article source: Figure S31
Adsorbate Nitrogen: InChIKey IJGRMHOSHXDMSA-UHFFFAOYSA-N
Kind: experiment
Temperature: 77 K
Tabular data in the source: 0
pressure (bar)	uptake (cm3(STP)/g)
0.000291	9.08982
-0.001716	14.5053
-0.00173	19.1823
-0.001749	25.5824
-0.001765	30.9979
-0.001783	37.1518
-0.001801	43.0596
-0.001155	49.2136
-0.000177	54.8752
-0.001521	60.5368
-0.000544	66.6908
-0.001224	72.3524
-0.000911	78.5064
-0.001257	83.4295
-0.001276	89.8297
-0.001295	96.2298
-0.001973	100.907
-0.000993	106.076
-0.001344	112.476
-0.000698	118.63
-0.000713	123.553
-0.001392	128.6
-0.00207	133.4
-0.002085	138.569
-0.002764	143.738
-0.002111	147.184
-0.001459	151.369
-0.001139	155.308
-0.002146	159.246
-0.000502	164.416
-0.000182	168.354
0.00044	182.385
0.001748	189.031
0.003063	193.216
0.01629	209.709
0.018931	214.632
0.039481	223.986
0.056061	228.909
0.073969	233.832
0.089229	236.294
0.111124	239.74
0.137665	243.432
0.152261	246.14
0.167526	246.878
0.188756	250.817
0.209996	251.555
0.263754	254.879
0.318173	258.94
0.370605	261.771
0.423697	265.833
0.47679	269.771
0.529883	273.464
0.634408	281.341
0.740254	291.679
0.84441	312.11
0.944184	355.188
0.944516	355.311
0.898409	345.834
0.865591	332.541
0.84238	324.911
0.795947	313.833
0.738223	305.095
0.691771	300.049
0.630722	293.156
0.583605	288.848
0.523544	284.541
0.477093	279.494
0.417041	271.987
0.368926	268.54
0.320138	267.925
0.30786	267.186
0.258417	263.617
0.231206	262.14
0.204654	261.894
0.178773	259.679
0.166829	257.956
0.14028	256.971
0.127676	254.263
0.105114	251.802
0.079235	248.602
0.067959	245.894
0.055688	242.817
