Adsorption isotherm of Nitrogen on m-TetPB-COF-K (dioxane)
DOI: 10.1002/anie.202015130
Article source: Figure S5
Adsorbate Nitrogen: InChIKey IJGRMHOSHXDMSA-UHFFFAOYSA-N
Kind: experiment
Temperature: 77 K
Tabular data in the source: 0
pressure (bar)	uptake (cm3(STP)/g)
0.003502	10.8673
0.003446	30.0042
0.004563	55.1859
0.004516	71.3013
0.005052	91.4462
0.004396	111.59
0.00673	128.715
0.007875	144.832
0.008992	170.014
0.01606	199.231
0.02077	219.382
0.029072	234.5
0.032601	250.62
0.045663	268.766
0.052765	286.401
0.059873	302.021
0.06659	315.795
0.073584	330.492
0.083898	343.095
0.105805	355.362
0.138468	370.441
0.154182	376.756
0.170727	382.022
0.188095	389.388
0.209599	397.808
0.228634	401.328
0.262553	411.862
0.309298	425.21
0.361835	439.963
0.418105	452.623
0.470227	468.075
0.525673	479.335
0.579454	493.391
0.631578	508.144
0.72423	538.335
0.785433	562.891
0.871386	618.254
0.921711	680.918
0.92005	682.664
0.90103	674.247
0.870492	640.286
0.84737	618.924
0.805231	588.096
0.796974	580.392
0.741571	554.443
0.693598	536.198
0.6845	532.69
0.636519	517.243
0.58853	504.593
0.527298	489.829
0.477652	477.177
0.429665	463.828
0.41808	461.016
0.370084	450.815
0.321267	437.815
0.264178	422.356
0.234395	413.226
0.213298	406.905
0.194688	399.888
0.17662	396.135
0.166283	391.459
0.149745	383.861
0.132516	376.262
0.106326	365.738
0.091861	356.977
0.077395	348.508
0.072582	342.673
0.064339	330.131
0.064367	320.805
0.059562	312.056
0.054085	297.477
0.049976	286.98
0.046538	282.896
0.034179	261.897
0.026636	246.15
0.021166	229.24
0.019132	216.997
0.013682	193.092
0.011666	175.02
0.009648	157.531
