Adsorption isotherm of Nitrogen on p-TetPB-COF-K (synthized THF)
DOI: 10.1002/anie.202015130
Article source: Figure 3
Adsorbate Nitrogen: InChIKey IJGRMHOSHXDMSA-UHFFFAOYSA-N
Kind: experiment
Temperature: 77 K
Tabular data in the source: 0
pressure (bar)	uptake (cm3(STP)/g)
-0.00053	24.4823
0.000101	44.6944
-0.00116	65.75
0.000101	85.1194
-0.00116	104.491
-0.00116	123.861
-0.00116	143.231
-0.00116	163.444
0.001432	180.824
0.002648	195.85
0.002648	208.441
0.004473	225.092
0.008121	243.772
0.01177	261.437
0.016635	273.415
0.0215	292.906
0.030014	302.648
0.038528	316.857
0.044001	331.474
0.055555	351.773
0.052515	361.523
0.06042	367.203
0.065894	384.258
0.078968	401.103
0.098124	413.68
0.119409	423.819
0.140693	432.942
0.163194	441.048
0.186303	447.53
0.206371	453.608
0.226439	459.28
0.258062	466.568
0.277218	473.255
0.305496	477.906
0.328605	483.169
0.357187	489.241
0.387593	494.499
0.409486	498.342
0.431378	503.2
0.458744	508.663
0.490367	514.732
0.511651	518.372
0.532936	522.419
0.562126	528.49
0.58189	533.349
0.61108	539.421
0.641791	545.288
0.661859	550.35
0.691657	556.827
0.712333	563.108
0.759159	574.649
0.809026	590.25
0.858892	608.694
0.906326	634.654
0.912408	649.677
0.863149	637.121
0.815715	615.223
0.762504	596.173
0.710509	581.589
0.686184	575.108
0.655778	568.631
0.634493	564.179
0.603479	558.515
0.575505	553.661
0.553612	549.616
0.523814	544.357
0.503137	540.311
0.482461	536.264
0.455095	527.348
0.424689	515.998
0.399756	509.924
0.379688	505.877
0.351714	501.429
0.319483	496.985
0.300023	493.343
0.270224	486.054
0.248636	482.414
0.219446	475.124
0.198465	469.86
0.178397	464.594
0.157113	458.517
0.139781	452.031
0.119409	443.923
0.099645	434.19
0.084441	426.078
0.070759	414.309
0.064069	402.536
0.056772	385.889
0.052515	372.895
0.044609	357.873
0.040352	348.535
0.036703	336.353
0.030014	328.235
0.025149	320.116
0.023933	315.243
0.020284	310.778
0.016027	302.455
0.013595	296.973
0.012682	287.633
