Adsorption isotherm of Nitrogen on m-TetPB-COF-K (n-BuOH)
DOI: 10.1002/anie.202015130
Article source: Figure S20
Adsorbate Nitrogen: InChIKey IJGRMHOSHXDMSA-UHFFFAOYSA-N
Kind: experiment
Temperature: 77 K
Tabular data in the source: 0
pressure (bar)	uptake (cm3(STP)/g)
0.004124	6.39636
0.004553	16.3093
0.002834	29.1167
0.001974	39.8576
0.001974	52.2496
0.002834	60.9227
0.003694	72.0743
0.002834	81.989
0.003694	91.9014
0.002834	99.7508
0.004553	111.314
0.004553	119.989
0.002834	129.905
0.003694	136.099
0.001974	143.124
0.002834	150.145
0.002834	158.406
0.001114	165.431
0.003694	172.036
0.004553	176.991
0.004553	185.666
0.005413	198.883
0.006273	209.621
0.008852	218.292
0.026908	243.463
0.048402	257.064
0.066458	263.648
0.084513	270.645
0.09741	275.17
0.121484	280.506
0.148997	287.076
0.179949	294.468
0.225517	301.426
0.279684	311.676
0.33256	320.276
0.385437	328.05
0.438314	336.236
0.556534	353.006
0.661427	368.554
0.76804	387.198
0.869494	411.633
0.963211	461.482
0.962351	461.07
0.900447	428.525
0.84886	414.553
0.792974	402.653
0.737948	394.469
0.695818	387.92
0.639933	380.563
0.584047	373
0.526441	366.266
0.474854	354.36
0.429286	346.576
0.415959	344.529
0.3734	338.806
0.318804	330.622
0.260769	322.855
0.232396	317.112
0.202136	314.011
0.188404	310.875
0.17288	309.176
0.160341	306.038
0.147206	303.475
0.132876	300.914
0.104814	294.356
0.089887	291.221
0.07496	286.653
0.055854	279.508
0.042121	273.791
0.023015	260.623
