Adsorption isotherm of n-Butyl acetate, P-Xylene on Coal based GAC (Calgon)
DOI: 10.1021/acs.iecr.9b00022
Article source: Figure 8, Figure 8/Table 4
Adsorbate n-Butyl acetate: InChIKey DKPFZGUDAPQIHT-UHFFFAOYSA-N
Adsorbate P-Xylene: InChIKey URLKBWYHVLBVBO-UHFFFAOYSA-N
Kind: experiment
Temperature: 298 K
Tabular data in the source: 0
pressure (bar)	n-Butyl acetate fraction	n-Butyl acetate uptake (g/g)	P-Xylene fraction	P-Xylene uptake (g/g)	total uptake (g/g)
1.2	0.25	0.124	0.75	0.516	
1.2	0.32	0.178	0.68	0.471	
1.2	0.39	0.233	0.61	0.425	
1.2	0.5	0.265	0.5	0.368	
1.2	0.61	0.36	0.39	0.275	
1.2	0.71	0.433	0.29	0.216	
1.2	0.82	0.519	0.18	0.116	
1.2	1	0.664	0	0	
