Adsorption isotherm of n-Butyl acetate on Coal based GAC (Calgon)
DOI: 10.1021/acs.iecr.9b00022
Article source: Figure 6
Adsorbate n-Butyl acetate: InChIKey DKPFZGUDAPQIHT-UHFFFAOYSA-N
Kind: experiment
Temperature: 298 K
Tabular data in the source: 0
pressure (bar)	uptake (g/g)
0.000979	0.427
0.00146	0.487
0.00169	0.522
0.00216	0.544
0.00288	0.618
0.00337	0.669
0.00554	0.741
0.00633	0.755
