Adsorption isotherm of P-Xylene on Coal based GAC (Calgon)
DOI: 10.1021/acs.iecr.9b00022
Article source: Figure 6
Adsorbate P-Xylene: InChIKey URLKBWYHVLBVBO-UHFFFAOYSA-N
Kind: experiment
Temperature: 298 K
Tabular data in the source: 0
pressure (bar)	uptake (g/g)
0.000954	0.435
0.00143	0.501
0.00169	0.522
0.00216	0.542
0.00288	0.576
0.00337	0.617
0.00503	0.67
