Adsorption isotherm of Nitrogen on 1 wt% salts/ PAN-CNF
DOI: 10.1039/c5nr07368e
Article source: Figure 4
Adsorbate Nitrogen: InChIKey IJGRMHOSHXDMSA-UHFFFAOYSA-N
Kind: experiment
Temperature: 77 K
Tabular data in the source: 0
pressure (bar)	uptake (cm3(STP)/g)
0.001743	82.249
0.001915	74.579
0.002594	91.611
0.002726	97.709
0.003141	105.181
0.003293	101.72
0.003567	108.807
0.003972	115.036
0.003982	115.016
0.005674	124.63
0.006809	129.63
0.008086	135.014
0.008653	139.299
0.010639	143.969
0.011774	145.851
0.013193	151.605
0.049274	170.61
0.052841	170.445
0.083087	176.265
0.122046	180.106
0.130466	179.94
0.154987	181.697
0.186701	183.83
0.191687	183.786
0.224425	186.049
0.227373	185.787
0.259433	187.256
0.261135	187.394
0.2944	188.878
0.297186	188.878
0.331981	189.393
0.367952	190.773
0.401399	191.807
0.441858	192.84
0.475305	193.251
0.512167	194.285
0.548128	195.18
0.582477	196.214
0.617718	196.695
0.65387	197.508
0.689436	198.288
0.724555	198.981
0.758701	199.723
0.795746	200.272
0.830987	201.583
0.866227	203.101
0.901651	204.412
0.93834	205.999
0.973936	209.871
1.00683	222.327
