Adsorption isotherm of Nitrogen on 0 wt% salts/ PAN-CNF
DOI: 10.1039/c5nr07368e
Article source: Figure 4
Adsorbate Nitrogen: InChIKey IJGRMHOSHXDMSA-UHFFFAOYSA-N
Kind: experiment
Temperature: 77 K
Tabular data in the source: 0
pressure (bar)	uptake (cm3(STP)/g)
0.000557	83.231
0.001804	101.562
0.008045	106.119
0.047136	112.886
0.079682	114.935
0.127639	115.834
0.152616	116.168
0.186843	116.757
0.222094	116.804
0.257396	116.745
0.263384	118.296
0.295373	116.652
0.296933	117.873
0.330634	116.46
0.332478	117.45
0.366878	115.913
0.368134	116.578
0.402493	116.044
0.402666	116.041
0.438109	115.593
0.473715	115.308
0.511124	114.815
0.546203	113.948
0.581271	113.58
0.616715	113.057
0.61786	113.044
0.651834	112.338
0.652695	112.325
0.688088	112.99
0.688665	112.98
0.723491	112.732
0.725213	111.545
0.758894	111.88
0.7609	110.891
0.793446	111.094
0.795452	110.237
0.829132	110.638
0.830855	109.781
0.86568	109.632
0.867109	109.523
0.900516	109.924
0.902512	110.452
0.937337	110.92
0.97274	112.772
0.974736	113.036
1.00554	122.143
