Adsorption isotherm of Nitrogen on 10 wt% salts/ PAN-CNF
DOI: 10.1039/c5nr07368e
Article source: Figure 4
Adsorbate Nitrogen: InChIKey IJGRMHOSHXDMSA-UHFFFAOYSA-N
Kind: experiment
Temperature: 77 K
Tabular data in the source: 0
pressure (bar)	uptake (cm3(STP)/g)
0.000719	82.005
0.0015	85.409
0.001723	92.347
0.002057	102.368
0.002168	102.528
0.002391	102.793
0.006231	108.048
0.010295	109.833
0.048849	120.751
0.082033	124.997
0.129899	130.361
0.15597	132.498
0.189599	135.259
0.226066	138.944
0.258551	141.706
0.294734	144.4
0.332913	146.963
0.369097	149.592
0.40529	151.891
0.441757	154.256
0.477656	156.819
0.512421	159.316
0.546081	162.178
0.582345	164.828
0.618599	167.312
0.65306	170.128
0.68824	172.945
0.725213	176.675
0.761113	180.405
0.795574	184.053
0.829325	188.033
0.866653	192.844
0.902188	197.738
0.938442	205.126
0.971697	216.717
0.050085	122.831
0.084556	127.447
0.119746	131.205
0.155787	134.436
0.191687	137.305
0.227535	140.277
0.262249	142.789
0.298169	145.74
0.333258	148.274
0.371133	151.052
0.398765	153.212
0.440156	157.416
0.47717	168.364
0.511377	174.696
0.546203	176.149
0.581028	177.852
0.616208	179.513
0.653729	181.423
0.688736	183.084
0.724281	185.286
0.758924	187.778
0.796587	190.616
0.831919	194.507
0.866106	199.189
0.905126	207.499
0.941856	218.183
0.973743	231.374
1.0045	238.892
