Adsorption isotherm of Nitrogen on 5 wt% salts/ PAN-CNF
DOI: 10.1039/c5nr07368e
Article source: Figure 4
Adsorbate Nitrogen: InChIKey IJGRMHOSHXDMSA-UHFFFAOYSA-N
Kind: experiment
Temperature: 77 K
Tabular data in the source: 0
pressure (bar)	uptake (cm3(STP)/g)
0.001003	84.314
0.001246	93.023
0.00152	95.448
0.002077	98.021
0.002351	100.825
0.002553	103.019
0.002888	105.773
0.003232	108.347
0.003435	111.745
0.004631	113.905
0.005978	116.182
0.006465	118.772
0.008157	123.606
0.011136	125.106
0.048089	139.715
0.08109	145.303
0.128673	150.023
0.155453	152.331
0.189022	154.902
0.221912	157.027
0.259443	159.337
0.296021	161.115
0.331728	162.679
0.369411	164.721
0.403334	166.558
0.439507	167.244
0.475913	169.03
0.510273	169.978
0.546446	171.24
0.581494	172.188
0.616988	173.188
0.652482	174.397
0.687125	175.47
0.722113	176.93
0.757465	177.8
0.792787	179.025
0.82669	179.954
0.86486	181.246
0.899401	183.482
0.934034	185.98
0.969731	190.474
1.00451	199.083
0.050703	143.407
0.085984	148.665
0.122289	152.797
0.15678	155.018
0.192295	157.259
0.226775	159.597
0.262969	161.55
0.298939	163.456
0.333542	164.97
0.368934	166.38
0.403456	167.805
0.441362	169.878
0.475842	172.611
0.509898	173.805
0.547601	174.714
0.582132	175.468
0.617758	175.991
0.6531	176.845
0.688716	177.632
0.724058	178.683
0.75939	179.602
0.7953	180.521
0.830632	181.572
0.867109	182.689
0.901306	184.466
0.936648	186.903
0.971129	192.176
1.0056	199.428
