Adsorption isotherm of Hydrogen on MIL-110(Al)
DOI: 10.1021/Ic801624v
Adsorbate Hydrogen: InChIKey UFHFLCQGNIYNRP-UHFFFAOYSA-N
Temperature: 77 K
Tabular data in the source: 0
pressure (bar)	uptake (wt%)
0.918197	0.865979
1.10184	0.927835
1.28548	1.56186
1.83639	1.39175
2.20367	1.60825
5.1419	2.18041
12.4875	2.65979
20.9349	2.86856
36.3606	3.09278
37.0952	3.10052
59.3155	3.10825
60.601	3.10825
80.985	2.96907
81.9032	3.03866
91.8197	2.93814
