Adsorption isotherm of Hydrogen on In3O15.5C25.5H12N0.5
DOI: 10.1021/Ic801624v
Adsorbate Hydrogen: InChIKey UFHFLCQGNIYNRP-UHFFFAOYSA-N
Temperature: 77 K
Tabular data in the source: 0
pressure (bar)	uptake (wt%)
0.183639	0.324742
1.10184	0.541237
1.65275	0.796392
6.24374	1.29124
6.79466	1.39175
13.4057	1.53866
15.793	1.70876
22.0367	1.70103
23.8731	1.87887
37.0952	1.79381
38.197	1.97938
59.6828	1.96392
70.3339	1.96392
81.7195	1.90206
86.4942	2.07216
92.187	1.85567
94.0234	2.01804
