Adsorption isotherm of Hydrogen on Ga3O15C24H15
DOI: 10.1021/Ic801624v
Adsorbate Hydrogen: InChIKey UFHFLCQGNIYNRP-UHFFFAOYSA-N
Temperature: 77 K
Tabular data in the source: 0
pressure (bar)	uptake (wt%)
0.367279	0.139175
1.65275	0.935567
2.20367	1.39175
5.87646	1.79381
11.202	2.03351
18.3639	2.19588
22.0367	2.02577
25.8932	2.2732
37.0952	2.16495
44.0735	2.4433
51.7863	2.33505
59.6828	2.23454
62.8047	2.45103
80.4341	2.47423
81.5359	2.39691
83.005	2.46649
92.187	2.50515
