Adsorption isotherm of Nitrogen on UiO-66-NH2
DOI: 10.1002/cctc.201700169
Article source: Figure 2
Adsorbate Nitrogen: InChIKey IJGRMHOSHXDMSA-UHFFFAOYSA-N
Kind: experiment
Temperature: 77 K
Tabular data in the source: 0
pressure (bar)	uptake (cm3(STP)/g)
0.001125	12.739
0.001337	44.052
0.001469	1.285
0.002006	76.971
0.003222	160.151
0.004235	171.445
0.004803	173.747
0.005816	177.547
0.007619	183.275
0.008744	185.791
0.009423	188.361
0.020812	214.324
0.023406	218.285
0.030063	223.854
0.048453	230.228
0.052171	231.407
0.082973	236.928
0.099793	238.431
0.103177	238.593
0.108476	239.344
0.111293	239.88
0.121679	240.953
0.148195	243.368
0.15395	244.173
0.162299	244.657
0.167153	245.033
0.17459	245.409
0.180912	245.786
0.1861	246.162
0.192088	246.378
0.196374	246.539
0.198857	247.022
0.205625	247.345
0.211603	247.667
0.217804	248.044
0.219952	248.258
0.226041	248.474
0.229882	248.475
0.234056	248.583
0.236873	248.744
0.241392	248.853
0.247147	248.961
0.251879	249.177
0.256053	249.392
0.260461	249.554
0.264291	249.608
0.269144	249.931
0.273096	250.039
0.276024	250.307
0.281333	250.469
0.283927	250.63
0.286977	250.845
0.291263	251.114
0.295215	251.383
0.298143	251.598
0.301983	251.813
0.30559	251.921
0.349483	254.609
0.356697	254.985
0.402739	256.817
0.406234	257.032
0.452833	259.132
0.457686	259.508
0.50316	260.912
0.514893	260.487
0.529788	261.668
0.556527	262.692
0.604817	264.739
0.608769	265.115
0.654911	266.679
0.660099	267.109
0.706708	268.727
0.710426	269.049
0.733893	270.019
0.757815	271.577
0.762101	272.006
0.807575	273.999
0.811182	275.177
0.848752	278.024
0.856656	277.866
0.900093	282.748
0.908107	282.161
0.937552	288.86
0.940034	286.291
0.997576	310.661
