Adsorption isotherm of Nitrogen on Zr-MOF-PC
DOI: 10.1002/cctc.201700169
Article source: Figure 2
Adsorbate Nitrogen: InChIKey IJGRMHOSHXDMSA-UHFFFAOYSA-N
Kind: experiment
Temperature: 77 K
Tabular data in the source: 0
pressure (bar)	uptake (cm3(STP)/g)
-0.000132	15.667
0.001125	12.948
0.001277	101.824
0.001287	76.419
0.001287	74.125
0.001469	44.386
0.002189	42.687
0.003415	128.589
0.003952	136.151
0.006282	140.995
0.008065	146.688
0.01917	157.737
0.029556	162.413
0.04675	168.62
0.087584	173.474
0.101019	175.262
0.10568	176.028
0.115701	176.965
0.121973	177.477
0.124485	177.817
0.148306	178.758
0.153677	179.609
0.161732	180.716
0.16926	181.483
0.174985	181.824
0.182696	182.166
0.190568	182.678
0.196658	182.934
0.201319	183.275
0.207226	183.617
0.21135	183.958
0.215291	184.044
0.220479	184.385
0.225677	184.641
0.235171	184.984
0.246458	185.751
0.251291	185.923
0.260957	185.925
0.266338	186.096
0.276906	187.289
0.282458	187.46
0.289257	187.632
0.295711	187.974
0.303584	188.57
0.307525	188.996
0.351945	190.537
0.358572	191.984
0.402992	193.61
0.40514	194.715
0.454221	195.577
0.463532	197.704
0.507588	198.565
0.513505	199.417
0.530162	199.676
0.553446	200.192
0.606459	202.755
0.609498	203.605
0.65714	205.402
0.665206	207.699
0.708015	210.599
0.716962	212.131
0.735777	212.051
0.75207	215.708
0.757622	213.926
0.804373	218.781
0.809925	222.351
0.850039	230.434
0.852187	226.611
0.9129	241.666
0.919881	263.674
0.936539	255.692
0.948525	303.701
0.972174	296.4
0.983451	329.796
0.992033	361.406
0.994354	391.485
