Adsorption isotherm of Nitrogen on Zr-MOF-FePC
DOI: 10.1002/cctc.201700169
Article source: Figure 2
Adsorbate Nitrogen: InChIKey IJGRMHOSHXDMSA-UHFFFAOYSA-N
Kind: experiment
Temperature: 77 K
Tabular data in the source: 0
pressure (bar)	uptake (cm3(STP)/g)
-0.001591	101.738
0.001895	90.406
0.001905	31.956
0.002371	1.981
0.002807	61.074
0.002888	104.798
0.005036	108.792
0.006829	111.851
0.009514	116.695
0.02294	128.169
0.027955	130.21
0.048554	135.568
0.079002	138.975
0.100492	141.87
0.109449	143.147
0.123422	143.66
0.147597	145.111
0.151711	145.877
0.161387	147.494
0.169979	148.006
0.18306	148.774
0.192017	148.946
0.203477	149.714
0.204733	149.714
0.211714	150.396
0.213325	150.566
0.223356	151.334
0.224967	151.334
0.230885	151.505
0.232496	151.506
0.244847	152.189
0.246823	152.274
0.254341	152.956
0.257928	153.297
0.264727	153.724
0.266348	153.724
0.274585	153.896
0.278162	153.897
0.286227	154.069
0.287301	154.069
0.293928	154.326
0.296795	154.497
0.305033	154.669
0.306289	154.754
0.35303	156.126
0.355542	156.381
0.406052	159.369
0.408909	159.539
0.455477	160.996
0.456551	161.336
0.505095	163.813
0.509928	164.919
0.532493	164.755
0.557216	165.951
0.606469	168.853
0.613987	170.384
0.657333	172.435
0.663422	173.371
0.708562	175.168
0.714469	176.953
0.733994	177.553
0.746528	181.125
0.75817	179.769
0.80259	187.768
0.804555	185.134
0.849867	195.937
0.857213	192.455
0.90521	204.533
0.911117	222.293
0.936914	219.156
0.97415	263.009
0.986146	298.698
0.994019	331.498
0.995802	356.139
