Adsorption isotherm of Arsenate on Fe-sericite
DOI: 10.1016/j.jiec.2016.12.008
Article source: Figure 7
Adsorbate Arsenate: InChIKey HAYXDMNJJFVXCI-UHFFFAOYSA-N
Kind: experiment
Temperature: 298 K
Tabular data in the source: 0
pressure (bar)	uptake (mg/g)
1.01325	0.4339
1.01325	1.1321
1.01325	1.8502
1.01325	2.9174
1.01325	3.391
1.01325	4.4677
1.01325	4.9359
