Adsorption isotherm of Nitrogen on Sericite
DOI: 10.1016/j.jiec.2016.12.008
Article source: Figure 1
Adsorbate Nitrogen: InChIKey IJGRMHOSHXDMSA-UHFFFAOYSA-N
Kind: experiment
Temperature: 77 K
Tabular data in the source: 0
pressure (bar)	uptake (cm3(STP)/g)
0.062344	0.8696
0.080714	0.8472
0.095031	0.9022
0.118538	0.9128
0.14168	0.9676
0.142784	1.1665
0.162249	0.9561
0.199708	0.9996
0.200812	1.088
0.253328	1.1864
0.303645	1.2628
0.305489	1.0528
0.336706	1.1737
0.354337	1.1734
0.405018	1.3492
0.458274	1.2487
0.459003	1.3703
0.508591	1.513
0.557074	1.6004
0.610329	1.6988
0.611059	1.3452
0.658437	1.4879
0.659542	1.7973
0.709494	1.5532
0.710588	2.0174
0.749162	1.8287
0.750621	2.1603
0.781109	1.9165
0.781849	2.226
0.811597	2.4685
0.812327	1.9933
0.83324	2.6401
0.833473	2.2084
0.850596	2.4309
0.855683	2.8694
0.86772	2.5977
0.872806	3.0988
0.887843	2.8618
0.906354	3.5995
0.906588	3.2096
0.915838	3.4113
0.918159	3.9473
0.920935	3.5435
0.925565	4.3092
0.926953	3.6756
0.933894	4.6642
0.936437	3.9052
0.94199	4.0931
0.944766	5.0121
0.947775	4.3575
0.949852	4.5594
0.951474	5.4018
0.951707	4.6568
0.954483	4.7821
0.957725	4.9422
0.957948	5.9239
0.962113	5.0953
0.963045	6.3206
0.965588	5.2832
0.968364	5.5129
0.969286	6.9401
0.97114	5.7774
0.97184	5.854
0.974383	6.0419
0.975538	7.7685
0.977159	6.2437
0.980624	6.5848
0.982012	6.8563
0.984556	7.2462
0.986876	9.4044
0.987109	7.4341
0.990341	7.7752
0.992661	8.1302
0.993583	8.3043
0.997515	10.9707
0.997981	8.7706
0.99867	9.1675
0.999602	9.4529
1.00029	9.7105
1.00122	10.1491
1.00283	10.9428
1.00307	11.1168
1.00584	12.5162
