Adsorption isotherm of Phosphate Ion on Fe-sericite
DOI: 10.1016/j.jiec.2016.12.008
Article source: Figure 7
Adsorbate Phosphate Ion: InChIKey NBIIXXVUZAFLBC-UHFFFAOYSA-K
Kind: experiment
Temperature: 298 K
Tabular data in the source: 0
pressure (bar)	uptake (mg/g)
1.01325	0.8728
1.01325	1.6457
1.01325	2.6224
1.01325	3.7586
1.01325	3.9218
