Adsorption isotherm of Nitrogen on Fe-sericite
DOI: 10.1016/j.jiec.2016.12.008
Article source: Figure 1
Adsorbate Nitrogen: InChIKey IJGRMHOSHXDMSA-UHFFFAOYSA-N
Kind: experiment
Temperature: 77 K
Tabular data in the source: 0
pressure (bar)	uptake (cm3(STP)/g)
0.066022	2.9615
0.081291	3.0517
0.100725	3.2323
0.12178	3.2458
0.141214	3.6841
0.143757	3.3707
0.164123	3.4887
0.20299	3.7803
0.203224	3.85
0.254351	4.0996
0.254584	4.1344
0.287443	4.3983
0.302713	4.3841
0.353151	4.8217
0.355694	4.773
0.401969	5.2316
0.407055	5.1201
0.456105	5.4533
0.463279	6.3304
0.507243	7.353
0.556061	7.9578
0.558604	6.4678
0.607887	7.0377
0.609975	8.3884
0.655783	8.8052
0.66018	7.5728
0.709464	9.2776
0.712007	8.1427
0.749952	8.6223
0.751573	9.597
0.780957	9.8332
0.78119	9.0186
0.812185	10.2224
0.812418	9.4148
0.831629	9.6999
0.832318	10.424
0.850596	10.0267
0.852218	10.6324
0.87003	10.9384
0.871185	10.3814
0.887154	11.2444
0.88762	10.583
0.90219	11.5783
0.902423	10.8682
0.916304	11.1882
0.918848	11.9957
0.925099	12.1418
0.926021	11.5152
0.926254	12.3507
0.930652	11.6543
0.93435	11.8144
0.93667	12.7334
0.937359	11.9536
0.941757	12.1206
0.947076	12.3224
0.950552	12.5103
0.951707	13.4781
0.955172	12.7609
0.959113	12.9627
0.962579	13.1785
0.963967	14.369
0.965355	13.3873
0.969752	13.6518
0.973451	13.8884
0.975771	15.239
0.976004	14.0485
0.977159	15.6707
0.979469	14.306
0.982478	14.5845
0.983634	14.7655
0.985022	14.9743
0.986177	16.8471
0.986643	15.2667
0.987109	15.4477
0.989652	15.747
0.991506	15.9071
0.992428	18.2255
0.992661	16.1508
0.99405	16.297
0.994739	16.464
0.995894	16.826
0.996593	17.021
0.997981	17.2437
0.999136	17.5292
1.00052	17.8842
1.00191	18.3785
1.00283	18.7823
1.00377	19.214
1.00422	19.5412
