Adsorption isotherm of Copper(II) Ion, Zn(II), Lead(II) Ion, Water on Pan/Clay CNF
DOI: 10.1080/01496395.2016.1231692
Article source: Figure 7
Adsorbate Copper(II) Ion: InChIKey JPVYNHNXODAKFH-UHFFFAOYSA-N
Adsorbate Zn(II): InChIKey PTFCDOFLOPIGGS-UHFFFAOYSA-N
Adsorbate Lead(II) Ion: InChIKey RVPVRDXYQKGNMQ-UHFFFAOYSA-N
Adsorbate Water: InChIKey XLYOFNOQVPJJNP-UHFFFAOYSA-N
Kind: experiment
Temperature: 298 K
Tabular data in the source: 0
pressure (bar)	Copper(II) Ion fraction	Copper(II) Ion uptake (mg/g)	Zn(II) fraction	Zn(II) uptake (mg/g)	Lead(II) Ion fraction	Lead(II) Ion uptake (mg/g)	Water fraction	Water uptake (mg/g)	total uptake (mg/g)
1.01325	1.65	0.1153	0.79	0.0294	0.99	0.0255			
1.01325	4.22	1.1637	5.3	1.2599	5.46	0.7616			
1.01325	8.13	3.7316	8.63	3.9241	7.8	3.554			
1.01325	47.61	7.1361	47.27	7.0375	46.61	6.7513			
1.01325	185.88	9.8507	187	9.3641	185.54	8.5581			
1.01325	248.22	10.3051	248.82	9.6257	248.54	8.7559			
1.01325	373.21	10.4541	373.31	9.9623	372.87	8.9444			
1.01325	474.67	10.6029	474.82	10.2242	474.33	8.9748			
