Adsorption isotherm of Zn(II), Water on Pan/Clay CNF
DOI: 10.1080/01496395.2016.1231692
Article source: Figure 6
Adsorbate Zn(II): InChIKey PTFCDOFLOPIGGS-UHFFFAOYSA-N
Adsorbate Water: InChIKey XLYOFNOQVPJJNP-UHFFFAOYSA-N
Kind: experiment
Temperature: 298 K
Tabular data in the source: 0
pressure (bar)	Zn(II) fraction	Zn(II) uptake (mg/g)	Water fraction	Water uptake (mg/g)	total uptake (mg/g)
1.01325	0.72	0.0294			
1.01325	5.44	3.2885			
1.01325	9.8	6.9248			
1.01325	48.13	10.2812			
1.01325	186.3	12.8165			
1.01325	474.3	13.7472			
