Adsorption isotherm of Lead(II) Ion, Water on Pan/Clay CNF
DOI: 10.1080/01496395.2016.1231692
Article source: Figure 6
Adsorbate Lead(II) Ion: InChIKey RVPVRDXYQKGNMQ-UHFFFAOYSA-N
Adsorbate Water: InChIKey XLYOFNOQVPJJNP-UHFFFAOYSA-N
Kind: experiment
Temperature: 298 K
Tabular data in the source: 0
pressure (bar)	Lead(II) Ion fraction	Lead(II) Ion uptake (mg/g)	Water fraction	Water uptake (mg/g)	total uptake (mg/g)
1.01325	1.51	0.978			
1.01325	5.33	4.7011			
1.01325	8.75	8.5659			
1.01325	47.92	11.5679			
1.01325	186.29	14.7932			
1.01325	474.3	15.985			
