Adsorption isotherm of Copper(II) Ion, Water on Pan/Clay CNF
DOI: 10.1080/01496395.2016.1231692
Article source: Figure 6
Adsorbate Copper(II) Ion: InChIKey JPVYNHNXODAKFH-UHFFFAOYSA-N
Adsorbate Water: InChIKey XLYOFNOQVPJJNP-UHFFFAOYSA-N
Kind: experiment
Temperature: 298 K
Tabular data in the source: 0
pressure (bar)	Copper(II) Ion fraction	Copper(II) Ion uptake (mg/g)	Water fraction	Water uptake (mg/g)	total uptake (mg/g)
1.01325	1.05	0.4904			
1.01325	5.78	4.1749			
1.01325	10.41	6.7651			
1.01325	48.44	10.2134			
1.01325	186.05	13.454			
1.01325	474.19	14.1183			
