Adsorption isotherm of Hydrogen on HNUST-4
DOI: 10.1039/C4ce01165a
Adsorbate Hydrogen: InChIKey UFHFLCQGNIYNRP-UHFFFAOYSA-N
Temperature: 87 K
Tabular data in the source: 0
pressure (bar)	uptake (cm3(STP)/g)
0.0162267	6.12245
0.0283862	11.4796
0.0588528	19.898
0.077139	24.4898
0.111694	32.1429
0.12998	36.7347
0.182841	47.449
0.239801	56.6327
0.292725	62.7551
0.343609	68.8776
0.402681	72.7041
0.449489	78.8265
0.504482	82.6531
0.557406	88.7755
0.614439	92.602
0.665365	95.6633
0.720369	98.7245
0.771296	101.786
0.824252	105.612
0.879256	108.673
0.936299	111.735
1.01575	115.561
