Adsorption isotherm of Hydrogen on HNUST-4
DOI: 10.1039/C4ce01165a
Adsorbate Hydrogen: InChIKey UFHFLCQGNIYNRP-UHFFFAOYSA-N
Temperature: 77 K
Tabular data in the source: 0
pressure (bar)	uptake (cm3(STP)/g)
-0.00209074	3.82653
0.0079989	11.4796
0.00995442	17.602
0.0240696	29.0816
0.0544321	45.1531
0.0828391	55.102
0.107158	65.8163
0.137615	75
0.155869	81.8878
0.220952	93.3673
0.267719	102.551
0.347084	113.265
0.397948	120.918
0.454929	128.571
0.507863	133.929
0.558769	138.52
0.611723	142.347
0.672833	146.173
0.721712	150
0.770599	153.061
0.827622	157.653
0.880597	159.949
0.93763	163.776
0.988577	165.306
1.01099	166.071
