Adsorption isotherm of Carbon Dioxide on HNUST-4
DOI: 10.1039/C4ce01165a
Adsorbate Carbon Dioxide: InChIKey CURLTUGMZLYLDI-UHFFFAOYSA-N
Temperature: 298 K
Tabular data in the source: 0
pressure (bar)	uptake (cm3(STP)/g)
0.0460997	4.70986
0.0775312	5.43514
0.104772	8.04764
0.132013	10.392
0.186494	13.7403
0.243071	17.3515
0.291267	21.2518
0.347843	24.3267
0.40442	27.4017
0.454711	30.4924
0.492429	33.0786
0.538528	34.8394
0.590914	37.9249
0.6433	39.938
0.695685	42.7553
0.754358	45.5569
0.804649	47.5753
0.854939	50.1298
0.913612	52.6633
0.963902	54.4136
1.01629	56.9629
1.06239	58.7237
