Adsorption isotherm of Nitrogen on HNUST-4
DOI: 10.1039/C4ce01165a
Adsorbate Nitrogen: InChIKey IJGRMHOSHXDMSA-UHFFFAOYSA-N
Temperature: 77 K
Tabular data in the source: 0
pressure (bar)	uptake (cm3(STP)/g)
-0.00799859	13.7755
-0.00418879	21.4286
-0.00326128	100.255
-0.00274266	60.4592
-0.0014561	111.735
-0.000927518	71.1735
-0.000388959	29.8469
-0.0001496	161.48
0.000378986	120.918
0.000628319	251.786
0.000738025	243.367
0.000787891	89.5408
0.000867678	233.418
0.000907571	80.3571
0.00131648	48.9796
0.0014561	38.2653
0.00169546	169.898
0.00193482	151.531
0.00209439	139.286
0.0022041	130.867
0.00297204	221.939
0.0031017	211.99
0.00321141	203.571
0.003361	192.092
0.00353055	179.082
0.00441817	260.969
0.0141122	267.092
0.0413294	278.571
0.0784301	281.633
0.11943	285.459
0.158516	286.224
0.176099	286.99
0.205401	288.52
0.230792	290.051
0.283561	290.816
0.351968	291.582
0.416456	293.112
0.490726	293.878
0.561089	294.643
0.625596	294.643
0.694013	294.643
0.764365	296.173
0.828862	296.939
0.862093	296.939
0.897278	296.939
0.93442	296.939
0.965696	296.939
