Adsorption isotherm of Nitrogen on HNUST-4
DOI: 10.1039/C4ce01165a
Adsorbate Nitrogen: InChIKey IJGRMHOSHXDMSA-UHFFFAOYSA-N
Temperature: 298 K
Tabular data in the source: 0
pressure (bar)	uptake (cm3(STP)/g)
0.121297	0.261788
0.142211	0.75067
0.188219	0.378489
0.242595	0.523577
0.290695	0.682858
0.342978	0.832676
0.399444	0.43684
0.455911	0.845293
0.489372	0.769595
0.533289	0.670241
0.589755	0.542501
0.642039	0.424223
0.694322	0.305945
0.748697	0.451033
0.805163	0.859486
0.857445	1.0093
0.905547	0.364296
0.959921	0.241287
1.0143	0.386374
1.07076	0.526731
