Adsorption isotherm of Nitrogen on HNUST-4
DOI: 10.1039/C4ce01165a
Adsorbate Nitrogen: InChIKey IJGRMHOSHXDMSA-UHFFFAOYSA-N
Temperature: 298 K
Tabular data in the source: 0
pressure (bar)	uptake (cm3(STP)/g)
0.0688789	0.0949618
0.0918384	-0.230846
0.160717	0.668405
0.212898	0.269146
0.26508	0.137983
0.319347	0.26967
0.373616	0.669454
0.432058	0.254456
0.505112	0.338924
0.559379	0.470612
0.613648	0.066106
0.667916	0.197793
0.71801	0.339974
0.770191	0.476907
0.824459	0.608595
0.87664	0.209336
0.930909	0.0729264
0.985176	0.204614
1.03736	-0.194645
