Adsorption isotherm of Nitrogen on HNUST-4
DOI: 10.1039/C4ce01165a
Adsorbate Nitrogen: InChIKey IJGRMHOSHXDMSA-UHFFFAOYSA-N
Temperature: 77 K
Tabular data in the source: 0
pressure (bar)	uptake (cm3(STP)/g)
0.0491285	280.102
0.111592	286.99
0.183878	290.051
0.252275	291.582
0.320672	293.112
0.385189	292.347
0.459441	294.643
0.525892	295.408
0.592365	294.643
0.660772	295.408
0.729178	296.173
0.793696	295.408
0.852329	296.173
0.883605	296.173
0.920745	296.173
