Adsorption isotherm of Methane on HNUST-4
DOI: 10.1039/C4ce01165a
Adsorbate Methane: InChIKey VNWKTOKETHGBQD-UHFFFAOYSA-N
Temperature: 298 K
Tabular data in the source: 0
pressure (bar)	uptake (cm3(STP)/g)
0.0691495	2.23905
0.0963902	2.70677
0.14249	2.5909
0.18859	3.01121
0.23888	3.1529
0.295457	4.08307
0.347843	4.48759
0.40442	5.41776
0.452615	6.10091
0.496619	6.52649
0.536433	7.23071
0.59301	8.16088
0.6433	8.57066
0.693591	8.98044
0.748072	9.37969
0.802554	9.77894
0.859131	10.1729
0.909421	11.1189
0.961808	11.5234
1.01629	12.1908
1.07496	12.8476
