Adsorption isotherm of Methane on HNUST-4
DOI: 10.1039/C4ce01165a
Adsorbate Methane: InChIKey VNWKTOKETHGBQD-UHFFFAOYSA-N
Temperature: 273 K
Tabular data in the source: 0
pressure (bar)	uptake (cm3(STP)/g)
0.117345	3.1903
0.199066	5.39775
0.259835	7.12168
0.322697	8.57224
0.372988	9.78631
0.42747	11.2579
0.505001	12.9397
0.561578	13.6018
0.613964	15.3468
0.666351	16.2875
0.725022	17.2124
0.773218	18.1637
0.83189	19.0886
0.880085	20.0398
0.934566	20.9753
0.991143	22.1735
1.03934	22.8567
