Adsorption isotherm of Carbon Dioxide on HNUST-4
DOI: 10.1039/C4ce01165a
Adsorbate Carbon Dioxide: InChIKey CURLTUGMZLYLDI-UHFFFAOYSA-N
Temperature: 298 K
Tabular data in the source: 0
pressure (bar)	uptake (cm3(STP)/g)
0.0460997	3.63747
0.0628632	5.74011
0.0942948	7.80587
0.11944	9.61935
0.161349	11.6588
0.21164	15.2857
0.268217	19.165
0.322697	22.5133
0.375084	25.5987
0.425374	28.4214
0.509191	33.0364
0.561578	36.39
0.61606	38.6659
0.666351	40.9524
0.722927	44.0273
0.773218	46.3138
0.827699	48.3216
0.877989	51.1443
0.932471	52.884
0.989048	55.1547
1.04353	56.8944
