Adsorption isotherm of Nitrogen on HNUST-4
DOI: 10.1039/C4ce01165a
Adsorbate Nitrogen: InChIKey IJGRMHOSHXDMSA-UHFFFAOYSA-N
Temperature: 273 K
Tabular data in the source: 0
pressure (bar)	uptake (cm3(STP)/g)
0.0963902	2.17058
0.18859	1.93883
0.23888	2.34861
0.297553	2.20113
0.349938	2.33755
0.400228	2.21114
0.452615	2.34756
0.500811	2.49451
0.534337	2.41024
0.586724	2.54665
0.641205	2.6778
0.697781	2.53559
0.750168	2.94011
0.802554	2.54033
0.859131	2.39812
0.907325	2.54507
0.963902	2.40286
1.01629	2.53928
1.07287	2.93326
