Adsorption isotherm of Hydrogen on HNUST-4
DOI: 10.1039/C4ce01165a
Adsorbate Hydrogen: InChIKey UFHFLCQGNIYNRP-UHFFFAOYSA-N
Temperature: 77 K
Tabular data in the source: 0
pressure (bar)	uptake (cm3(STP)/g)
0.0180261	23.7245
0.038247	35.9694
0.0909004	61.9898
0.123396	71.1735
0.17012	83.4184
0.198579	89.5408
0.25143	101.02
0.279931	104.082
0.330773	113.265
0.361314	116.327
0.418304	123.214
0.440689	126.276
0.489535	132.398
0.520085	134.694
0.573029	139.286
0.605618	141.582
0.650428	144.643
0.701344	148.469
0.738011	150.765
0.784849	154.592
0.845981	156.888
0.870403	159.949
0.921351	161.48
0.970239	164.541
