Adsorption isotherm of Methane on HNUST-4
DOI: 10.1039/C4ce01165a
Adsorbate Methane: InChIKey VNWKTOKETHGBQD-UHFFFAOYSA-N
Temperature: 298 K
Tabular data in the source: 0
pressure (bar)	uptake (cm3(STP)/g)
0.0921993	2.18112
0.161349	2.81159
0.217926	3.47367
0.268217	3.61535
0.320603	4.55606
0.375084	5.2234
0.42747	5.62792
0.507097	6.50016
0.559482	7.17277
0.61606	8.10294
0.670541	8.23409
0.722927	8.63861
0.775312	9.57931
0.827699	9.98383
0.884275	10.3778
0.940852	11.308
0.986952	11.7283
1.03724	12.1381
