Adsorption isotherm of Nitrogen on HNUST-4
DOI: 10.1039/C4ce01165a
Adsorbate Nitrogen: InChIKey IJGRMHOSHXDMSA-UHFFFAOYSA-N
Temperature: 273 K
Tabular data in the source: 0
pressure (bar)	uptake (cm3(STP)/g)
0.158942	1.78521
0.213316	1.6622
0.269782	2.07065
0.322066	2.48857
0.378532	2.09273
0.430814	2.24255
0.506102	2.34032
0.560477	2.21732
0.614851	2.6305
0.669226	2.50749
0.717326	2.66677
0.773792	2.53903
0.830258	2.67939
0.87836	2.83867
0.934824	2.71093
0.987108	2.59265
1.04148	2.46964
