Adsorption isotherm of Carbon Dioxide on HNUST-4
DOI: 10.1039/C4ce01165a
Adsorbate Carbon Dioxide: InChIKey CURLTUGMZLYLDI-UHFFFAOYSA-N
Temperature: 273 K
Tabular data in the source: 0
pressure (bar)	uptake (cm3(STP)/g)
0.0167636	5.0517
0.0440042	7.66419
0.0754358	13.4833
0.0921993	17.7307
0.121535	22.2146
0.163444	28.0074
0.21583	36.4548
0.268217	43.0255
0.322697	51.1996
0.372988	56.9713
0.425374	62.7377
0.505001	69.5081
0.561578	73.1192
0.61606	76.1995
0.670541	79.8159
0.727118	83.1589
0.775312	85.9868
0.827699	88.268
0.884275	90.8068
0.936662	93.3561
0.989048	95.6372
1.04562	97.3717
