Adsorption isotherm of Methane on HNUST-4
DOI: 10.1039/C4ce01165a
Adsorbate Methane: InChIKey VNWKTOKETHGBQD-UHFFFAOYSA-N
Temperature: 273 K
Tabular data in the source: 0
pressure (bar)	uptake (cm3(STP)/g)
0.108963	3.74756
0.138299	3.94191
0.159254	4.69353
0.186494	5.69745
0.21583	6.428
0.240976	6.63289
0.272407	7.35817
0.289171	7.85223
0.347843	9.31333
0.40442	10.5116
0.460997	11.978
0.490333	12.9766
0.530146	13.4127
0.590914	14.6005
0.6433	16.0774
0.691495	16.7605
0.745976	17.696
0.802554	18.6261
0.854939	19.8349
0.913612	20.7598
0.963902	21.7058
1.0121	22.6571
1.07077	23.582
