Adsorption isotherm of Carbon Dioxide on HNUST-4
DOI: 10.1039/C4ce01165a
Adsorbate Carbon Dioxide: InChIKey CURLTUGMZLYLDI-UHFFFAOYSA-N
Temperature: 273 K
Tabular data in the source: 0
pressure (bar)	uptake (cm3(STP)/g)
0.00628632	2.39707
0.0272407	6.36584
0.0565768	11.3859
0.0754358	15.36
0.108963	20.1014
0.138299	24.0492
0.184398	31.9762
0.23888	40.4183
0.295457	48.0509
0.352034	54.8792
0.400228	60.3881
0.458901	65.0663
0.536433	71.3058
0.590914	74.6541
0.639109	78.2863
0.695685	81.0931
0.750168	84.4414
0.804649	87.2536
0.861225	89.5242
0.911517	91.8107
0.963902	94.0919
1.0121	96.1155
1.06867	98.3862
