Adsorption isotherm of Hydrogen on HNUST-4
DOI: 10.1039/C4ce01165a
Adsorbate Hydrogen: InChIKey UFHFLCQGNIYNRP-UHFFFAOYSA-N
Temperature: 87 K
Tabular data in the source: 0
pressure (bar)	uptake (cm3(STP)/g)
0.0366722	14.5408
0.0958051	30.6122
0.146809	40.5612
0.19986	49.7449
0.250874	58.1633
0.301908	63.5204
0.359061	70.4082
0.414181	75.7653
0.471345	81.1224
0.522394	84.1837
0.575466	90.3061
0.634689	93.3673
0.683695	96.4286
0.730661	99.4898
0.787839	102.551
0.842969	106.378
0.896057	110.204
0.985917	114.031
