Adsorption isotherm of Nitrogen on CuBTC
DOI: 10.1002/adem.201000246
Adsorbate Nitrogen: InChIKey IJGRMHOSHXDMSA-UHFFFAOYSA-N
Temperature: 77 K
Tabular data in the source: 0
pressure (bar)	uptake (cm3(STP)/g)
0.0609465	419.304
0.0891099	427.215
0.114692	430.38
0.137718	433.544
0.158179	435.127
0.193997	439.873
0.219563	439.873
0.242589	443.038
0.273268	443.038
0.298843	444.62
0.324417	446.203
0.349983	446.203
0.373001	447.785
0.393462	449.367
0.419029	449.367
0.444603	450.949
0.470169	450.949
0.488074	452.532
0.511084	452.532
0.53665	452.532
0.567338	454.114
0.592904	454.114
0.61847	454.114
0.644037	454.114
0.669603	454.114
0.692629	457.278
0.718187	455.696
0.743753	455.696
0.766771	457.278
0.792337	457.278
0.817912	458.861
0.843478	458.861
0.871609	460.443
0.897175	460.443
0.922742	460.443
0.94576	462.025
