Adsorption isotherm of Nitrogen on MOF/PAN
DOI: 10.1002/adem.201000246
Adsorbate Nitrogen: InChIKey IJGRMHOSHXDMSA-UHFFFAOYSA-N
Temperature: 77 K
Tabular data in the source: 0
pressure (bar)	uptake (cm3(STP)/g)
0.00927183	313.291
0.0195145	316.456
0.0451051	321.203
0.0630339	327.532
0.0835112	332.278
0.0963187	337.025
0.144919	341.772
0.150032	341.772
0.190954	344.937
0.236982	346.519
0.295809	351.266
0.341836	352.848
0.38275	354.43
0.392985	356.013
0.439004	356.013
0.48758	356.013
0.536173	359.177
0.584757	360.759
0.630776	360.759
0.67936	362.342
0.727936	362.342
0.776528	365.506
0.827661	365.506
0.876253	368.671
0.924821	367.089
0.942726	368.671
0.968308	371.835
