Adsorption isotherm of Nitrogen on Au@HKUST-1
DOI: 10.1021/Cm4034319
Adsorbate Nitrogen: InChIKey IJGRMHOSHXDMSA-UHFFFAOYSA-N
Temperature: 77 K
Tabular data in the source: 0
pressure (bar)	uptake (cm3(STP)/g)
0.090141	302.559
0.178279	303.191
0.26842	303.434
0.354554	303.297
0.446699	303.151
0.516809	303.812
0.56889	304.501
0.618968	304.421
0.659032	304.358
0.691081	304.693
0.727138	305.794
0.755182	306.522
0.779219	306.483
0.80526	308.372
0.825292	309.113
0.839314	310.635
0.853336	311.385
0.873366	313.283
0.891395	316.344
0.90141	319.416
0.909422	323.265
0.921442	330.195
0.925448	333.664
0.933461	338.284
0.943476	344.832
0.945479	349.848
0.947483	356.409
0.953492	367.982
0.959501	404.652
