Adsorption isotherm of Nitrogen on Au@Cu2O@HKUST-1
DOI: 10.1021/Cm4034319
Adsorbate Nitrogen: InChIKey IJGRMHOSHXDMSA-UHFFFAOYSA-N
Temperature: 77 K
Tabular data in the source: 0
pressure (bar)	uptake (cm3(STP)/g)
0.139395	254.561
0.179155	254.648
0.225839	256.878
0.274238	255.92
0.327828	256.037
0.369317	256.128
0.440189	255.219
0.471301	254.224
0.516256	256.45
0.569836	254.439
0.616507	253.478
0.663182	253.58
0.702923	249.412
0.73404	249.48
0.780714	249.582
0.796268	248.552
0.825661	249.681
0.841224	250.778
0.851597	250.801
0.877531	251.922
0.901746	255.166
0.920772	257.336
0.936344	260.561
