Adsorption isotherm of Nitrogen on Au@HKUST-1
DOI: 10.1021/Cm4034319
Adsorbate Nitrogen: InChIKey IJGRMHOSHXDMSA-UHFFFAOYSA-N
Temperature: 77 K
Tabular data in the source: 0
pressure (bar)	uptake (cm3(STP)/g)
0.00801253	302.69
0.0861348	306.041
0.180282	307.822
0.26842	307.681
0.358561	307.924
0.444696	308.559
0.508796	308.071
0.570893	308.745
0.586919	309.106
0.620971	309.824
0.657028	309.766
0.693084	310.481
0.747169	312.326
0.791238	314.572
0.825292	317.607
0.861348	324.886
0.8954	335.642
0.915432	352.599
0.93947	373.41
