Adsorption isotherm of Nitrogen on Au@Cu2O@HKUST-1
DOI: 10.1021/Cm4034319
Adsorbate Nitrogen: InChIKey IJGRMHOSHXDMSA-UHFFFAOYSA-N
Temperature: 77 K
Tabular data in the source: 0
pressure (bar)	uptake (cm3(STP)/g)
0.00175169	5.32299
0.00363671	41.4973
0.00380222	79.7956
0.00398613	122.349
0.00410566	150.009
0.00604125	197.886
0.00620677	236.184
0.0183261	240.466
0.033912	246.883
0.0460128	246.909
0.0615941	252.263
0.0823431	253.372
0.103092	254.481
0.116926	255.575
0.160143	255.67
0.199909	256.821
0.244859	257.983
0.294987	257.029
0.343386	256.071
0.4108	255.155
0.457466	253.13
0.50587	253.236
0.554269	252.278
0.604396	251.324
0.65452	249.306
0.744412	249.503
0.772067	248.499
0.796268	248.552
0.8343	248.636
0.870616	251.907
0.889633	251.948
0.91039	255.185
0.938068	259.501
0.951939	269.106
0.958867	272.313
0.974532	296.815
