Adsorption isotherm of Hydrogen on IRMOF-1
DOI: 10.1021/Jp809539w
Adsorbate Hydrogen: InChIKey UFHFLCQGNIYNRP-UHFFFAOYSA-N
Temperature: 298 K
Tabular data in the source: 0
pressure (bar)	uptake (mmol/g)
0.843546	0.0311689
9.85763	0.115676
19.2943	0.183282
39.8576	-0.0364368
79.9985	-0.323761
100.139	-0.627986
