Adsorption isotherm of Hydrogen on MOF-74
DOI: 10.1021/jp809539w
Article source: Figure 2c
Adsorbate Hydrogen: InChIKey UFHFLCQGNIYNRP-UHFFFAOYSA-N
Kind: experiment
Isotherm type: excess
Temperature: 298 K
Tabular data in the source: 0
pressure (bar)	uptake (mmol/g)
8.11722	0.14191
13.0396	0.241731
18.4468	0.315377
24.8387	0.410035
33.932	0.531036
44.7464	0.678327
57.2818	0.85191
70.5526	1.02553
