Adsorption isotherm of Hydrogen on MOF-177
DOI: 10.1021/Jp809539w
Adsorbate Hydrogen: InChIKey UFHFLCQGNIYNRP-UHFFFAOYSA-N
Temperature: 298 K
Tabular data in the source: 0
pressure (bar)	uptake (mmol/g)
4.78721	0.101668
10.5619	0.365048
19.7168	0.484766
40.1393	0.867865
59.9985	1.20308
79.8576	1.29885
