Adsorption isotherm of Hydrogen on MOF-177
DOI: 10.1021/Jp809539w
Adsorbate Hydrogen: InChIKey UFHFLCQGNIYNRP-UHFFFAOYSA-N
Temperature: 298 K
Tabular data in the source: 0
pressure (bar)	uptake (mmol/g)
1.12524	-0.0419944
9.99848	0.0537803
19.7168	0.173499
39.8576	0.077724
80.421	-0.496924
100.562	-0.880023
