Adsorption isotherm of Hydrogen on MOF-14
DOI: 10.1021/Jp809539w
Adsorbate Hydrogen: InChIKey UFHFLCQGNIYNRP-UHFFFAOYSA-N
Temperature: 298 K
Tabular data in the source: 0
pressure (bar)	uptake (mmol/g)
5.0689	0.11563
9.71679	0.255067
19.8576	0.369151
40.2802	0.673377
59.7168	0.850841
79.9985	0.990278
