Adsorption isotherm of Methane on MOF-177
DOI: 10.1021/Jp809539w
Adsorbate Methane: InChIKey VNWKTOKETHGBQD-UHFFFAOYSA-N
Temperature: 298 K
Tabular data in the source: 0
pressure (bar)	uptake (mmol/g)
4.78721	1.92139
9.85763	3.9566
19.9985	7.16505
40.421	11.858
59.9985	13.9411
80.2802	14.4679
