Adsorption isotherm of Methane on IRMOF-1
DOI: 10.1021/Jp809539w
Adsorbate Methane: InChIKey VNWKTOKETHGBQD-UHFFFAOYSA-N
Temperature: 298 K
Tabular data in the source: 0
pressure (bar)	uptake (mmol/g)
3.09707	0.943845
5.35059	1.89032
10.1393	3.66497
15.4914	5.203
20.2802	6.50441
25.0689	7.48469
30.1393	8.51568
35.0689	9.14103
40.2802	9.69877
