Adsorption isotherm of Hydrogen on IRMOF-1
DOI: 10.1021/Jp809539w
Adsorbate Hydrogen: InChIKey UFHFLCQGNIYNRP-UHFFFAOYSA-N
Temperature: 298 K
Tabular data in the source: 0
pressure (bar)	uptake (mmol/g)
0.658518	0.0093348
10.0975	0.318246
19.9654	0.578246
39.9874	0.992701
60.2955	1.37112
80.3175	1.68003
