Adsorption isotherm of Methane on MOF-177
DOI: 10.1021/Jp809539w
Adsorbate Methane: InChIKey VNWKTOKETHGBQD-UHFFFAOYSA-N
Temperature: 298 K
Tabular data in the source: 0
pressure (bar)	uptake (mmol/g)
0.702701	0.365048
9.43509	1.96927
19.7168	3.66927
39.8576	6.47068
80.421	9.34392
100.28	10.7327
