Adsorption isotherm of Methane on IRMOF-1
DOI: 10.1021/Jp809539w
Adsorbate Methane: InChIKey VNWKTOKETHGBQD-UHFFFAOYSA-N
Temperature: 298 K
Tabular data in the source: 0
pressure (bar)	uptake (mmol/g)
1.12524	0.369197
9.57594	1.6537
20.1393	3.12413
40.1393	4.72976
80.5619	7.5861
100.139	8.36356
