Adsorption isotherm of Hydrogen on MOF-14
DOI: 10.1021/Jp809539w
Adsorbate Hydrogen: InChIKey UFHFLCQGNIYNRP-UHFFFAOYSA-N
Temperature: 298 K
Tabular data in the source: 0
pressure (bar)	uptake (mmol/g)
0.984391	0.0395738
9.57594	0.0395738
19.8576	0.0142217
39.9985	-0.150567
79.9985	-0.568877
99.7168	-0.759018
