Adsorption isotherm of Methane on IRMOF-1
DOI: 10.1021/jp809539w
Article source: Figure 3a
Adsorbate Methane: InChIKey VNWKTOKETHGBQD-UHFFFAOYSA-N
Kind: experiment
Isotherm type: excess
Temperature: 298 K
Tabular data in the source: 0
pressure (bar)	uptake (mmol/g)
3.3259	0.943775
5.48565	1.87149
10.3049	3.63855
15.142	5.14056
20.235	6.51004
25.1078	7.48193
29.7337	8.45382
34.6244	9.16064
39.53	9.64659
