Adsorption isotherm of Hydrogen on MOF-74
DOI: 10.1021/Jp809539w
Adsorbate Hydrogen: InChIKey UFHFLCQGNIYNRP-UHFFFAOYSA-N
Temperature: 298 K
Tabular data in the source: 0
pressure (bar)	uptake (mmol/g)
8.44918	0.143965
13.2379	0.244528
18.59	0.319458
24.9281	0.414106
33.6604	0.536359
44.5055	0.682275
57.0407	0.851852
70.1393	1.01749
