Adsorption isotherm of Hydrogen on IRMOF-11
DOI: 10.1021/Jp809539w
Adsorbate Hydrogen: InChIKey UFHFLCQGNIYNRP-UHFFFAOYSA-N
Temperature: 298 K
Tabular data in the source: 0
pressure (bar)	uptake (mmol/g)
4.92805	0.183282
10.2802	0.301591
19.8576	0.504408
40.1393	0.893141
60.1393	1.16356
80.2802	1.38328
