Adsorption isotherm of Methane on MOF-14
DOI: 10.1021/Jp809539w
Adsorbate Methane: InChIKey VNWKTOKETHGBQD-UHFFFAOYSA-N
Temperature: 298 K
Tabular data in the source: 0
pressure (bar)	uptake (mmol/g)
4.92805	3.25929
9.57594	4.56493
20.2802	6.12408
40.1393	7.11281
59.9985	6.97338
79.9985	6.79591
