Adsorption isotherm of Methane on MOF-74
DOI: 10.1021/Jp809539w
Adsorbate Methane: InChIKey VNWKTOKETHGBQD-UHFFFAOYSA-N
Temperature: 298 K
Tabular data in the source: 0
pressure (bar)	uptake (mmol/g)
10.1393	4.08181
19.7168	5.00576
39.8576	5.65928
60.5619	5.72688
79.9985	5.61421
99.7168	5.50153
