Adsorption isotherm of Methane on MOF-74
DOI: 10.1021/Jp809539w
Adsorbate Methane: InChIKey VNWKTOKETHGBQD-UHFFFAOYSA-N
Temperature: 298 K
Tabular data in the source: 0
pressure (bar)	uptake (mmol/g)
0.561856	0.0254741
0.984391	1.0959
5.0689	3.06773
19.8576	3.9804
39.7168	4.73533
79.9985	5.36632
99.9985	5.44519
