Adsorption isotherm of Hydrogen on IRMOF-1
DOI: 10.1021/jp809539w
Article source: Figure 2a
Adsorbate Hydrogen: InChIKey UFHFLCQGNIYNRP-UHFFFAOYSA-N
Kind: experiment
Isotherm type: excess
Temperature: 298 K
Tabular data in the source: 0
pressure (bar)	uptake (mmol/g)
7.93706	0.203109
10.9179	0.304663
16.8694	0.449741
23.8124	0.61658
32.741	0.841451
43.8994	1.10984
56.2976	1.40725
69.439	1.71917
