Adsorption isotherm of Hydrogen on MOF-74
DOI: 10.1021/Jp809539w
Adsorbate Hydrogen: InChIKey UFHFLCQGNIYNRP-UHFFFAOYSA-N
Temperature: 298 K
Tabular data in the source: 0
pressure (bar)	uptake (mmol/g)
1.12524	0.00293886
5.0689	0.00293886
20.1393	0.00293886
39.8576	-0.087202
79.9985	-0.335089
99.7168	-0.459033
