Adsorption isotherm of Hydrogen on IRMOF-1
DOI: 10.1021/Jp809539w
Adsorbate Hydrogen: InChIKey UFHFLCQGNIYNRP-UHFFFAOYSA-N
Temperature: 298 K
Tabular data in the source: 0
pressure (bar)	uptake (mmol/g)
1.23058	0.00676054
10.2405	0.246166
20.3945	0.495869
40.2735	0.897454
60.5815	1.29389
70.4495	1.44834
