Adsorption isotherm of Methane on IRMOF-1
DOI: 10.1021/Jp809539w
Adsorbate Methane: InChIKey VNWKTOKETHGBQD-UHFFFAOYSA-N
Temperature: 298 K
Tabular data in the source: 0
pressure (bar)	uptake (mmol/g)
5.0689	1.5523
9.99848	3.14103
20.421	5.67624
39.8576	8.66779
60.2802	9.91849
80.2802	10.8819
