Adsorption isotherm of Hydrogen on IRMOF-1
DOI: 10.1021/jp809539w
Article source: Figure 2a
Adsorbate Hydrogen: InChIKey UFHFLCQGNIYNRP-UHFFFAOYSA-N
Kind: experiment
Isotherm type: excess
Temperature: 298 K
Tabular data in the source: 0
pressure (bar)	uptake (mmol/g)
0.987654	0
10.1235	0.245361
20	0.497938
40	0.902062
60.2469	1.29897
70.1235	1.4433
