Adsorption isotherm of Hydrogen on IRMOF-11
DOI: 10.1021/Jp809539w
Adsorbate Hydrogen: InChIKey UFHFLCQGNIYNRP-UHFFFAOYSA-N
Temperature: 298 K
Tabular data in the source: 0
pressure (bar)	uptake (mmol/g)
1.40693	0.0649717
10.1393	0.0649717
19.7168	-0.00263396
40.1393	-0.137845
79.9985	-0.594183
99.9985	-0.746296
