Adsorption isotherm of Methane on IRMOF-11
DOI: 10.1021/Jp809539w
Adsorbate Methane: InChIKey VNWKTOKETHGBQD-UHFFFAOYSA-N
Temperature: 298 K
Tabular data in the source: 0
pressure (bar)	uptake (mmol/g)
0.280166	0.0480703
0.843546	1.40018
9.99848	3.86779
19.9985	5.1861
40.2802	6.94384
80.1393	7.31568
99.9985	7.48469
