Adsorption isotherm of Methane on IRMOF-11
DOI: 10.1021/Jp809539w
Adsorbate Methane: InChIKey VNWKTOKETHGBQD-UHFFFAOYSA-N
Temperature: 298 K
Tabular data in the source: 0
pressure (bar)	uptake (mmol/g)
0.984391	1.38328
5.20974	4.18892
9.99848	5.86215
20.1393	7.6368
39.9985	8.54948
60.1393	8.66779
80.1393	8.34666
