Adsorption isotherm of Hydrogen on IRMOF-11
DOI: 10.1021/Jp809539w
Adsorbate Hydrogen: InChIKey UFHFLCQGNIYNRP-UHFFFAOYSA-N
Temperature: 298 K
Tabular data in the source: 0
pressure (bar)	uptake (mmol/g)
0.561856	0.0236833
4.36467	0.161711
9.57594	0.283965
19.7168	0.508754
39.5759	0.869599
60.1393	1.13974
80.1393	1.35073
