Adsorption isotherm of Hydrogen on MOF-74
DOI: 10.1021/Jp809539w
Adsorbate Hydrogen: InChIKey UFHFLCQGNIYNRP-UHFFFAOYSA-N
Temperature: 298 K
Tabular data in the source: 0
pressure (bar)	uptake (mmol/g)
5.20974	0.115615
10.1393	0.239559
20.1393	0.431108
39.9985	0.735333
59.7168	0.994488
79.7168	1.1635
99.5759	1.32125
