Adsorption isotherm of Hydrogen on IRMOF-1
DOI: 10.1021/Jp809539w
Adsorbate Hydrogen: InChIKey UFHFLCQGNIYNRP-UHFFFAOYSA-N
Temperature: 298 K
Tabular data in the source: 0
pressure (bar)	uptake (mmol/g)
4.64636	0.0987745
9.85763	0.352296
19.9985	0.622718
39.9985	1.06215
60.1393	1.41708
79.8576	1.67061
