Adsorption isotherm of Hydrogen on IRMOF-11
DOI: 10.1021/Jp809539w
Adsorbate Hydrogen: InChIKey UFHFLCQGNIYNRP-UHFFFAOYSA-N
Temperature: 298 K
Tabular data in the source: 0
pressure (bar)	uptake (mmol/g)
8.16749	0.195233
12.8154	0.309599
18.3083	0.435796
24.6464	0.560021
33.5196	0.703965
44.5055	0.922838
57.0407	1.13777
70.2802	1.35861
