Adsorption isotherm of Methane on MOF-14
DOI: 10.1021/Jp809539w
Adsorbate Methane: InChIKey VNWKTOKETHGBQD-UHFFFAOYSA-N
Temperature: 298 K
Tabular data in the source: 0
pressure (bar)	uptake (mmol/g)
0.421011	0.0268978
0.702701	1.21845
9.99848	3.17056
20.1393	4.3114
40.421	5.7438
99.9985	6.17479
