Adsorption isotherm of Hydrogen on IRMOF-1
DOI: 10.1021/Jp809539w
Adsorbate Hydrogen: InChIKey UFHFLCQGNIYNRP-UHFFFAOYSA-N
Temperature: 298 K
Tabular data in the source: 0
pressure (bar)	uptake (mmol/g)
8.5243	0.204978
11.5276	0.297652
17.5342	0.446959
24.2559	0.61686
32.9798	0.838246
44.1349	1.10597
56.5771	1.39686
69.5914	1.7032
