Adsorption isotherm of Hydrogen on MOF-74
DOI: 10.1021/Jp809539w
Adsorbate Hydrogen: InChIKey UFHFLCQGNIYNRP-UHFFFAOYSA-N
Temperature: 298 K
Tabular data in the source: 0
pressure (bar)	uptake (mmol/g)
0.984391	0.00593684
5.0689	0.132134
9.71679	0.242557
19.8576	0.431852
40.1393	0.751289
59.8576	0.985937
79.7168	1.17326
99.4351	1.32904
