Adsorption isotherm of Methane on Carbon
DOI: 10.1021/jp209512n
Adsorbate Methane: InChIKey VNWKTOKETHGBQD-UHFFFAOYSA-N
Temperature: 70 K
Tabular data in the source: 0
pressure (bar)	uptake (micromoles/m2)
9.94e-09	0.00222852
3.07e-08	0.00691216
1.49668e-07	0.0320627
5.31761e-07	0.121616
7.56237e-07	0.191263
1.28254e-06	0.5785
1.47654e-06	0.843662
1.47654e-06	8.97552
1.061e-05	10.1784
0.000159722	10.4377
0.00216336	10.1784
0.00796179	10.4377
0.0101876	22.1992
0.0237208	21.11
0.0416711	50.9144
