Adsorption isotherm of Methane on Carbon
DOI: 10.1021/jp209512n
Adsorbate Methane: InChIKey VNWKTOKETHGBQD-UHFFFAOYSA-N
Temperature: 113 K
Tabular data in the source: 0
pressure (bar)	uptake (micromoles/m2)
1.02554e-06	0.00110188
3.22925e-06	0.00397446
8.23168e-06	0.0126415
2.67146e-05	0.0681917
0.000100822	0.743955
0.000163419	1.05801
0.000484436	1.4308
0.00262636	1.74975
0.0223929	2.08663
0.0982796	2.48838
