Adsorption isotherm of Methane on Carbon
DOI: 10.1021/jp209512n
Adsorbate Methane: InChIKey VNWKTOKETHGBQD-UHFFFAOYSA-N
Temperature: 104 K
Tabular data in the source: 0
pressure (bar)	uptake (micromoles/m2)
7.75e-05	0.0143358
0.000118249	0.0255671
0.000169867	0.0467591
0.00033	0.1564
0.000603529	0.4613
0.00113761	1.0061
0.00289987	1.4308
0.0106188	1.74975
0.0287529	1.74975
0.0826999	2.08663
0.245153	2.30751
0.58831	2.42657
0.897709	2.68343
