Adsorption isotherm of Methane on Carbon
DOI: 10.1021/jp209512n
Adsorbate Methane: InChIKey VNWKTOKETHGBQD-UHFFFAOYSA-N
Temperature: 113 K
Tabular data in the source: 0
pressure (bar)	uptake (micromoles/m2)
6.66383e-06	0.0136324
1.18249e-05	0.0262184
1.69867e-05	0.0455976
2.59203e-05	0.0969779
3.20187e-05	0.152515
4.46279e-05	0.300794
7.01851e-05	0.623844
0.000107096	1.0061
0.000201868	1.3606
0.000999673	1.79432
0.00270684	1.74975
0.0077855	2.13979
0.0245153	2.30751
0.0537376	2.42657
0.0897709	2.55177
