Adsorption isotherm of Methane on Carbon
DOI: 10.1021/jp209512n
Adsorbate Methane: InChIKey VNWKTOKETHGBQD-UHFFFAOYSA-N
Temperature: 70 K
Tabular data in the source: 0
pressure (bar)	uptake (micromoles/m2)
1.03e-08	0.00341768
4.21e-08	0.0108706
1.66345e-07	0.0455976
7.30069e-07	0.228087
1.37613e-06	0.743955
1.52947e-06	7.33947
9.21595e-06	9.67905
0.000475863	9.9256
0.00824717	9.9256
0.00854278	22.1992
0.0228999	21.6477
0.0374932	57.7381
