Adsorption isotherm of Argon on Carbon
DOI: 10.1021/jp209512n
Adsorbate Argon: InChIKey XKRFYHLGVUSROY-UHFFFAOYSA-N
Temperature: 77 K
Tabular data in the source: 0
pressure (bar)	uptake (micromoles/m2)
0.000261852	14.9111
0.000529589	29.3168
0.000893647	44.3774
0.00125816	62.712
0.00184411	65.3312
0.0587464	70.3514
0.163944	71.661
0.260438	77.7725
0.331572	79.5187
0.505949	83.884
0.92532	98.7263
