Adsorption isotherm of Argon on Carbon
DOI: 10.1021/jp209512n
Adsorbate Argon: InChIKey XKRFYHLGVUSROY-UHFFFAOYSA-N
Temperature: 77 K
Tabular data in the source: 0
pressure (bar)	uptake (micromoles/m2)
0.000267175	14.038
0.000585648	31.936
0.000988242	49.6158
0.00130983	63.3668
0.00221026	66.4225
0.00960343	67.5139
0.057576	69.6966
0.181298	71.661
0.24518	77.7725
0.430716	80.1735
0.657235	87.8129
0.853756	98.2898
