Adsorption isotherm of Methane on Carbon
DOI: 10.1021/jp209512n
Adsorbate Methane: InChIKey VNWKTOKETHGBQD-UHFFFAOYSA-N
Temperature: 113 K
Tabular data in the source: 0
pressure (bar)	uptake (micromoles/m2)
2.94967e-06	0.00350474
5.7303e-06	0.00803823
1.11322e-05	0.0214393
2.03594e-05	0.0467591
3.10667e-05	0.107243
5.51278e-05	0.386824
0.000124543	1.03172
0.000272999	1.3606
0.000739206	1.54296
0.00388843	1.93496
0.0397362	2.30751
0.125123	2.82188
0.258202	5.16087
0.565978	7.71815
1.0351	15.6097
