Adsorption isotherm of Argon on Carbon
DOI: 10.1021/jp209512n
Adsorbate Argon: InChIKey XKRFYHLGVUSROY-UHFFFAOYSA-N
Temperature: 77 K
Tabular data in the source: 0
pressure (bar)	uptake (micromoles/m2)
0.000137529	4.8707
0.000376156	21.6774
0.000674238	33.2457
0.00104974	44.3774
0.00184411	62.712
0.00456105	67.5139
0.0202203	69.6966
0.0704103	71.2244
0.29386	73.4071
0.397405	80.3917
0.726805	88.2494
0.853756	98.9446
