Adsorption isotherm of Methane on Carbon
DOI: 10.1021/jp209512n
Adsorbate Methane: InChIKey VNWKTOKETHGBQD-UHFFFAOYSA-N
Temperature: 104 K
Tabular data in the source: 0
pressure (bar)	uptake (micromoles/m2)
2.94967e-06	0.00341768
5.55992e-06	0.00764384
1.11322e-05	0.0214393
3.40113e-05	0.107243
6.03529e-05	0.377215
0.00012836	1.0061
0.000264881	1.3606
0.00135192	1.79432
0.0108515	2.0348
0.0312113	2.19429
0.128957	2.75178
0.309467	6.00163
0.638611	8.32312
0.945489	14.8439
