Adsorption isotherm of Methane on Carbon
DOI: 10.1021/jp209512n
Adsorbate Methane: InChIKey VNWKTOKETHGBQD-UHFFFAOYSA-N
Temperature: 85 K
Tabular data in the source: 0
pressure (bar)	uptake (micromoles/m2)
9.95042e-07	0.00657303
1.93306e-06	0.0143358
3.87041e-06	0.0289937
7.29544e-06	0.0530259
2.09834e-05	0.148726
4.7405e-05	0.473051
8.93549e-05	1.62257
0.000100822	5.16087
0.00012836	7.33947
0.00123487	9.9256
0.0126193	10.9763
0.101291	11.8366
0.145507	21.11
0.266114	21.6477
0.516977	44.8972
