Adsorption isotherm of Methane on Carbon
DOI: 10.1021/jp209512n
Adsorbate Methane: InChIKey VNWKTOKETHGBQD-UHFFFAOYSA-N
Temperature: 85 K
Tabular data in the source: 0
pressure (bar)	uptake (micromoles/m2)
9.01189e-06	0.0969779
4.59955e-05	0.523125
8.66981e-05	1.54296
0.000117247	7.15715
0.000184391	8.75256
0.00131172	9.9256
0.0982796	11.2559
0.128957	18.6151
0.222031	22.7647
