Adsorption isotherm of Methane on ZIF-20
DOI: 10.1038/Nmat1927
Adsorbate Methane: InChIKey VNWKTOKETHGBQD-UHFFFAOYSA-N
Temperature: 273 K
Tabular data in the source: 0
pressure (bar)	uptake (cm3(STP)/g)
0.0019346	0.324581
0.0621497	1.89769
0.14784	4.34475
0.252059	5.91786
0.344698	6.9666
0.444284	8.19013
0.550819	9.93803
0.659669	10.812
0.752308	12.3851
0.858842	13.0842
0.953797	13.7834
1.00706	14.8321
