Adsorption isotherm of Carbon Dioxide on ZIF-20
DOI: 10.1038/Nmat1927
Adsorbate Carbon Dioxide: InChIKey CURLTUGMZLYLDI-UHFFFAOYSA-N
Temperature: 273 K
Tabular data in the source: 0
pressure (bar)	uptake (cm3(STP)/g)
0.000381	2.24727
0.0250943	7.66576
0.0598338	13.4338
0.0992052	18.5027
0.14784	24.6204
0.198792	29.5145
0.296062	37.38
0.402597	44.5464
0.506815	50.8389
0.606402	55.5582
0.71062	60.4523
0.807891	64.1229
0.90053	67.6187
0.963061	69.1918
1.00243	70.4153
