Adsorption isotherm of Hydrogen on ZIF-20
DOI: 10.1038/Nmat1927
Adsorbate Hydrogen: InChIKey UFHFLCQGNIYNRP-UHFFFAOYSA-N
Temperature: 77 K
Tabular data in the source: 0
pressure (bar)	uptake (mg/g)
0.00269734	0.52062
0.0135144	1.6218
0.0181464	2.09373
0.045938	3.11625
0.0737296	4.06012
0.161736	5.63322
0.272903	6.86549
0.379437	7.67827
0.485972	8.30751
0.592506	8.91054
0.705988	9.33003
0.807891	9.69709
0.912109	10.0641
1.02791	10.405
1.06728	10.5099
