Adsorption isotherm of Hydrogen on ZIF-20
DOI: 10.1038/Nmat1927
Adsorbate Hydrogen: InChIKey UFHFLCQGNIYNRP-UHFFFAOYSA-N
Temperature: 87 K
Tabular data in the source: 0
pressure (bar)	uptake (cm3(STP)/g)
0.00656653	0.0486872
0.0227783	0.940116
0.0320422	1.28096
0.0667817	2.06751
0.166368	3.29978
0.277535	4.16499
0.384069	4.89911
0.488288	5.50213
0.604086	5.89541
0.712936	6.26247
0.812523	6.65575
0.921373	6.91793
1.02096	7.25877
1.08117	7.33743
