Adsorption isotherm of Argon on ZIF-20
DOI: 10.1038/Nmat1927
Adsorbate Argon: InChIKey XKRFYHLGVUSROY-UHFFFAOYSA-N
Temperature: 87 K
Tabular data in the source: 0
pressure (bar)	uptake (cm3(STP)/g)
0.00182509	1.56053
0.00182509	34.8799
0.00182509	98.2412
0.00400996	144.67
0.0105646	176.897
0.0367831	191.645
0.100144	202.569
0.154766	206.939
0.248716	212.947
0.504346	219.502
0.657287	222.779
0.803674	224.964
0.904178	229.334
0.969724	231.519
0.998128	260.468
