Adsorption isotherm of Nitrogen on Zn2(BPDC)2(BPEE)*2DMF
DOI: 10.1002/chem.201002683
Adsorbate Nitrogen: InChIKey IJGRMHOSHXDMSA-UHFFFAOYSA-N
Temperature: 298 K
Tabular data in the source: 0
pressure (bar)	uptake (cm3(STP)/g)
0.0477255	0.00299628
0.104629	0.00656876
0.161533	0.0101412
0.205587	0.012907
0.260655	0.0163643
0.323065	0.0202825
0.405667	0.0890816
0.506625	0.0954198
0.569035	0.162951
0.644295	0.104063
0.719554	0.172401
0.805827	0.177817
0.90495	0.247654
1.01141	0.254338
