Adsorption isotherm of Carbon Dioxide on Zn2(BPDC)2(BPEE)*2DMF
DOI: 10.1002/chem.201002683
Adsorbate Carbon Dioxide: InChIKey CURLTUGMZLYLDI-UHFFFAOYSA-N
Temperature: 298 K
Tabular data in the source: 0
pressure (bar)	uptake (cm3(STP)/g)
0.0256984	0.383293
0.0422187	0.57517
0.0513967	0.702972
0.0642459	1.02185
0.0807663	1.34095
0.104629	1.78774
0.128492	8.46863
0.161533	12.3511
0.203751	14.5802
0.256984	16.6828
0.32123	18.5316
0.403832	20.318
0.508461	21.7876
0.570871	22.5549
0.638788	23.2589
0.719554	23.9637
0.805827	24.6689
0.903114	25.3748
1.00774	25.9539
