Adsorption isotherm of Hydrogen on Mg-MOF-74
DOI: 10.1039/C0cc00091d
Adsorbate Hydrogen: InChIKey UFHFLCQGNIYNRP-UHFFFAOYSA-N
Temperature: 77 K
Tabular data in the source: 0
pressure (bar)	uptake (mg/g)
0.0109366	12.7462
0.0109366	13.6201
0.0356985	14.7854
0.109984	16.5333
0.185727	17.735
0.281861	18.9003
0.383822	20.0655
0.4785	21.1215
0.723206	22.9059
0.919844	24.1075
