Adsorption isotherm of Hydrogen on Mg-MOF-74
DOI: 10.1039/C0cc00091d
Adsorbate Hydrogen: InChIKey UFHFLCQGNIYNRP-UHFFFAOYSA-N
Temperature: 77 K
Tabular data in the source: 0
pressure (bar)	uptake (mol/mol)
0.0826655	0.0191951
0.366699	0.0126405
0.421321	0.0552456
0.491237	0.169951
0.574262	0.428859
0.631069	0.612388
0.672581	0.727094
0.6988	0.779531
0.718464	0.809027
0.860481	0.995834
0.891069	1.0581
0.993758	1.48088
