Adsorption isotherm of Hydrogen on MOF-74-Co
DOI: 10.1039/C0cc00091d
Adsorbate Hydrogen: InChIKey UFHFLCQGNIYNRP-UHFFFAOYSA-N
Temperature: 87 K
Tabular data in the source: 0
pressure (bar)	uptake (mg/g)
0.0123932	6.41006
0.0386117	11.1804
0.0750263	12.1271
0.190096	13.4017
0.289144	13.9843
0.382365	14.749
0.455194	15.186
0.530937	15.4409
0.631441	15.9143
0.829536	16.8975
0.925671	17.298
