Adsorption isotherm of Hydrogen on Mg-MOF-74
DOI: 10.1039/C0cc00091d
Adsorbate Hydrogen: InChIKey UFHFLCQGNIYNRP-UHFFFAOYSA-N
Temperature: 87 K
Tabular data in the source: 0
pressure (bar)	uptake (mol/mol)
0.489052	0.0191951
0.552413	0.0650775
0.628884	0.225666
0.679136	0.369867
0.720649	0.514069
0.757792	0.651716
0.78838	0.746758
0.840817	0.845078
0.932581	1.01222
0.993758	1.19247
