Adsorption isotherm of Hydrogen on MOF-74-Ni
DOI: 10.1039/C0cc00091d
Adsorbate Hydrogen: InChIKey UFHFLCQGNIYNRP-UHFFFAOYSA-N
Temperature: 87 K
Tabular data in the source: 0
pressure (bar)	uptake (mol/mol)
0.447539	0.0978506
0.52401	0.268271
0.574262	0.458355
0.622329	0.63533
0.672581	0.763145
0.722834	0.861464
0.812413	0.933565
0.908548	1.06138
0.974094	1.23835
0.985018	1.30718
