Adsorption isotherm of Hydrogen on MOF-74-Ni
DOI: 10.1039/C0cc00091d
Adsorbate Hydrogen: InChIKey UFHFLCQGNIYNRP-UHFFFAOYSA-N
Temperature: 87 K
Tabular data in the source: 0
pressure (bar)	uptake (mg/g)
0.0473512	11.7994
0.107071	12.6734
0.211945	13.5109
0.308079	14.2756
0.399844	14.8582
0.504718	15.5137
0.605222	16.3148
0.701357	16.679
0.806231	17.1888
0.991217	17.9535
