Adsorption isotherm of Hydrogen on MOF-74-Co
DOI: 10.1039/C0cc00091d
Adsorbate Hydrogen: InChIKey UFHFLCQGNIYNRP-UHFFFAOYSA-N
Temperature: 77 K
Tabular data in the source: 0
pressure (bar)	uptake (mol/mol)
0.0367832	0.0159178
0.301153	0.0224724
0.333926	0.0323044
0.416951	0.127346
0.526195	0.455077
0.591741	0.700876
0.61359	0.750035
0.646363	0.818859
0.718464	0.923733
0.77527	0.963061
0.856111	1.07121
0.96317	1.43827
