Adsorption isotherm of Hydrogen on MOF-74-Co
DOI: 10.1039/C0cc00091d
Adsorbate Hydrogen: InChIKey UFHFLCQGNIYNRP-UHFFFAOYSA-N
Temperature: 77 K
Tabular data in the source: 0
pressure (bar)	uptake (mg/g)
0.0109366	11.7994
0.0138498	7.42967
0.0298722	12.6005
0.0997882	13.9843
0.209032	15.6229
0.300797	16.7882
0.404214	17.8078
0.64018	19.5921
0.842645	20.6482
0.93878	21.0123
