Adsorption isotherm of Hydrogen on MOF-74-Ni
DOI: 10.1039/C0cc00091d
Adsorbate Hydrogen: InChIKey UFHFLCQGNIYNRP-UHFFFAOYSA-N
Temperature: 77 K
Tabular data in the source: 0
pressure (bar)	uptake (mol/mol)
0.0171193	0.00936321
0.209388	0.0159178
0.309892	0.0847414
0.491237	0.654993
0.565523	0.825414
0.60922	0.871296
0.722834	0.936842
0.762161	0.953229
0.86485	1.10071
0.884514	1.17609
0.991573	1.68079
