Adsorption isotherm of Hydrogen on MOF-74-Ni
DOI: 10.1039/C0cc00091d
Adsorbate Hydrogen: InChIKey UFHFLCQGNIYNRP-UHFFFAOYSA-N
Temperature: 77 K
Tabular data in the source: 0
pressure (bar)	uptake (mg/g)
0.0313288	12.6734
0.152225	15.1496
0.203206	16.0235
0.305166	17.2252
0.40567	18.3904
0.513458	19.1552
0.609592	20.0291
0.707183	20.4661
0.806231	21.1215
0.992673	21.9591
