Adsorption isotherm of Hydrogen on Mg-MOF-74
DOI: 10.1039/C0cc00091d
Adsorbate Hydrogen: InChIKey UFHFLCQGNIYNRP-UHFFFAOYSA-N
Temperature: 87 K
Tabular data in the source: 0
pressure (bar)	uptake (mg/g)
0.0342419	12.2364
0.117267	14.7854
0.182813	15.5501
0.300797	16.4241
0.386735	16.8975
0.493065	17.5165
0.624158	18.3176
0.724662	18.9003
0.82371	19.3008
0.921301	19.7742
