Adsorption isotherm of Hydrogen on MOF-74-Co
DOI: 10.1039/C0cc00091d
Adsorbate Hydrogen: InChIKey UFHFLCQGNIYNRP-UHFFFAOYSA-N
Temperature: 87 K
Tabular data in the source: 0
pressure (bar)	uptake (mol/mol)
0.416951	0.0224724
0.491237	0.0519682
0.545859	0.130624
0.598296	0.264993
0.631069	0.386254
0.663842	0.523901
0.722834	0.700876
0.753422	0.789363
0.77964	0.858187
0.87796	1.00239
