Adsorption isotherm of Methane on Zeolite 13X
DOI: 10.3390/Ma6062464
Adsorbate Methane: InChIKey VNWKTOKETHGBQD-UHFFFAOYSA-N
Temperature: 77 K
Tabular data in the source: 0
pressure (bar)	uptake (mmol adsorbed)
0.016463	0.12965
0.0879701	1.1665
0.148751	2.41788
0.155902	4.84912
0.159477	7.20886
0.177354	12.3216
0.281039	13.5372
0.792316	14.8244
0.885275	15.9685
0.953207	17.2199
1.17488	18.6858
1.53957	19.7584
1.98649	21.117
2.15453	22.2254
2.3476	23.4767
