Adsorption isotherm of Carbon Dioxide on ([Cu2(pzdc)2pyz]
DOI: 10.1021/Jp054411j
Adsorbate Carbon Dioxide: InChIKey CURLTUGMZLYLDI-UHFFFAOYSA-N
Temperature: 195 K
Tabular data in the source: 0
pressure (bar)	uptake (Guest molecules per Cu ion)
0.0502643	0.731248
0.0677433	0.817187
0.0866789	0.908951
0.118724	0.962845
0.191553	1.00654
0.217771	1.00654
0.353234	1.02256
0.412953	1.02402
0.475586	1.0313
0.53822	1.02839
0.726119	1.04004
0.785839	1.04004
0.848472	1.03859
0.916931	1.03713
