Adsorption isotherm of Argon on ([Cu2(pzdc)2pyz]
DOI: 10.1021/Jp054411j
Adsorbate Argon: InChIKey XKRFYHLGVUSROY-UHFFFAOYSA-N
Temperature: 77 K
Tabular data in the source: 0
pressure (bar)	uptake (Guest molecules per Cu ion)
0.0298722	0.767663
0.0313288	0.833209
0.0313288	0.904582
0.0342419	0.962845
0.061917	1.00072
0.144942	1.01528
0.329928	1.02693
0.426063	1.0313
0.796035	1.04004
0.978108	1.0517
