Adsorption isotherm of Oxygen on ([Cu2(pzdc)2pyz]
DOI: 10.1021/Jp054411j
Adsorbate Oxygen: InChIKey MYMOFIZGZYHOMD-UHFFFAOYSA-N
Temperature: 77 K
Tabular data in the source: 0
pressure (bar)	uptake (Guest molecules per Cu ion)
7.08e-06	0.00405726
1.15e-05	0.00405726
9.49e-05	0.025906
0.000114	0.0543094
0.000149	0.12641
0.000202	0.222545
0.000235	0.323049
0.000273	0.397335
0.000308	0.469435
0.000337	0.537166
0.000369	0.622377
0.000417	0.701032
0.000429	0.799351
0.000515	0.886746
0.00127272	0.978511
