Adsorption isotherm of Carbon Dioxide on ([Cu2(pzdc)2pyz]
DOI: 10.1021/Jp054411j
Adsorbate Carbon Dioxide: InChIKey CURLTUGMZLYLDI-UHFFFAOYSA-N
Temperature: 273 K
Tabular data in the source: 0
pressure (bar)	uptake (cm3(STP)/g)
0.0343581	2.82471
0.0621497	4.90034
0.0853094	7.08522
0.143209	12.9844
0.191844	19.6482
0.242795	24.7827
0.296062	29.0432
0.388701	33.7407
0.48134	37.1272
0.585558	39.8583
0.687461	42.0432
0.791679	44.1188
0.891266	45.3205
1.02559	46.9592
