Adsorption isotherm of Carbon Dioxide on ([Cu2(pzdc)2pyz]
DOI: 10.1021/Jp054411j
Adsorbate Carbon Dioxide: InChIKey CURLTUGMZLYLDI-UHFFFAOYSA-N
Temperature: 293 K
Tabular data in the source: 0
pressure (bar)	uptake (cm3(STP)/g)
0.113101	3.37093
0.171	5.00959
0.235847	6.97597
0.300694	9.48858
0.370173	12.5474
0.425756	15.3877
0.485972	18.3373
0.548503	21.1777
0.611034	23.4718
0.680513	25.6566
0.743044	27.623
0.803259	29.0432
0.875054	30.9003
0.944533	32.2113
1.01633	33.7407
