Adsorption isotherm of Nitrogen on ([Cu2(pzdc)2pyz]
DOI: 10.1021/Jp054411j
Adsorbate Nitrogen: InChIKey IJGRMHOSHXDMSA-UHFFFAOYSA-N
Temperature: 77 K
Tabular data in the source: 0
pressure (bar)	uptake (Guest molecules per Cu ion)
4.74e-05	0.0390152
0.000101	0.0674186
0.000174	0.137335
0.000235	0.240024
0.000265	0.349267
0.000308	0.486914
0.000337	0.587419
0.000381	0.661704
0.000442	0.760024
0.000547	0.832124
0.000696	0.90204
0.000913	0.939183
0.00177392	0.963217
0.00575697	0.987251
0.0134046	0.985066
0.0663809	0.99599
