Adsorption isotherm of Carbon Dioxide on ([Cu2(pzdc)2pyz]
DOI: 10.1021/Jp054411j
Adsorbate Carbon Dioxide: InChIKey CURLTUGMZLYLDI-UHFFFAOYSA-N
Temperature: 283 K
Tabular data in the source: 0
pressure (bar)	uptake (cm3(STP)/g)
0.0389901	2.49698
0.0992052	4.68185
0.15942	7.84992
0.217319	11.7827
0.272903	16.3709
0.32617	20.7407
0.384069	24.2365
0.474392	28.6062
0.573978	32.2113
0.675881	34.7239
0.777783	37.2365
0.872738	38.8751
0.983904	40.5138
