Adsorption isotherm of Methane on ([Cu2(pzdc)2pyz]
DOI: 10.1021/Jp054411j
Adsorbate Methane: InChIKey VNWKTOKETHGBQD-UHFFFAOYSA-N
Temperature: 77 K
Tabular data in the source: 0
pressure (bar)	uptake (Guest molecules per Cu ion)
0.0284156	0.0320886
0.0327854	0.527327
0.0342419	0.662789
0.0371551	0.793881
0.0488078	0.863797
0.0633736	0.923517
0.283318	0.974498
0.966455	1.00654
