Adsorption isotherm of Methane on ([Cu2(pzdc)2pyz]
DOI: 10.1021/Jp054411j
Adsorbate Methane: InChIKey VNWKTOKETHGBQD-UHFFFAOYSA-N
Temperature: 77 K
Tabular data in the source: 0
pressure (bar)	uptake (Guest molecules per Cu ion)
0.000404	0.00187239
0.000696	0.0346455
0.001	0.0630489
0.00162034	0.170108
0.00262636	0.312124
0.00452189	0.449772
0.0059334	0.48036
0.00878463	0.504393
0.016066	0.725066
0.0175888	0.786242
0.0252666	0.856158
0.0435024	0.930444
0.274269	0.978511
0.917376	1.00691
