Adsorption isotherm of Nitrogen on ([Cu2(pzdc)2pyz]
DOI: 10.1021/Jp054411j
Adsorbate Nitrogen: InChIKey IJGRMHOSHXDMSA-UHFFFAOYSA-N
Temperature: 77 K
Tabular data in the source: 0
pressure (bar)	uptake (Guest molecules per Cu ion)
0.0255024	0.667159
0.0255024	0.933713
0.0371551	0.987607
0.0852223	0.991977
0.245446	0.997803
0.347407	0.996346
0.398388	0.999259
0.446455	0.999259
0.501805	1.00509
0.600853	1.01237
0.70864	1.0182
0.81497	1.02548
0.909648	1.04004
