Adsorption isotherm of Oxygen on ([Cu2(pzdc)2pyz]
DOI: 10.1021/Jp054411j
Adsorbate Oxygen: InChIKey MYMOFIZGZYHOMD-UHFFFAOYSA-N
Temperature: 77 K
Tabular data in the source: 0
pressure (bar)	uptake (Guest molecules per Cu ion)
0.0255024	0.0335452
0.026959	0.365646
0.026959	0.518587
0.0284156	0.719596
0.0284156	0.887103
0.0284156	0.974498
0.160965	1.01237
0.284774	1.01674
0.386735	1.01528
0.456651	1.02111
0.519284	1.02256
0.590657	1.02839
0.659116	1.02256
