Adsorption isotherm of Carbon Dioxide on ([Cu2(pzdc)2pyz]
DOI: 10.1021/Jp054411j
Adsorbate Carbon Dioxide: InChIKey CURLTUGMZLYLDI-UHFFFAOYSA-N
Temperature: 300 K
Tabular data in the source: 0
pressure (bar)	uptake (cm3(STP)/g)
0.0158304	0.421351
0.15942	3.0432
0.210372	4.13564
0.270587	5.11883
0.319222	6.539
0.418809	8.83312
0.513763	11.7827
0.615666	15.2785
0.712936	18.3373
0.805575	20.9592
0.905161	23.581
1.00938	25.8751
