Adsorption isotherm of Argon on ([Cu2(pzdc)2pyz]
DOI: 10.1021/Jp054411j
Adsorbate Argon: InChIKey XKRFYHLGVUSROY-UHFFFAOYSA-N
Temperature: 77 K
Tabular data in the source: 0
pressure (bar)	uptake (Guest molecules per Cu ion)
0.000809	0.0652337
0.00270684	0.0914522
0.00425698	0.159183
0.00466047	0.226914
0.0051022	0.362377
0.00525856	0.497839
0.00525856	0.631116
0.00558579	0.698847
0.0059334	0.768763
0.00630263	0.899856
0.011184	0.961032
0.0435024	1.00254
0.132909	1.01784
0.974464	1.05717
