Adsorption isotherm of Carbon Dioxide on ([Cu2(pzdc)2pyz]
DOI: 10.1021/Jp054411j
Adsorbate Carbon Dioxide: InChIKey CURLTUGMZLYLDI-UHFFFAOYSA-N
Temperature: 310 K
Tabular data in the source: 0
pressure (bar)	uptake (cm3(STP)/g)
0.133945	1.62303
0.18258	2.27849
0.240479	2.82471
0.300694	3.69866
0.365541	4.35412
0.504499	6.539
0.638825	8.94236
0.705988	10.0348
0.770835	11.455
0.84263	12.9844
0.902846	14.7323
0.970009	16.2617
