Adsorption isotherm of Carbon Dioxide on ([Cu2(pzdc)2pyz]
DOI: 10.1021/Jp054411j
Adsorbate Carbon Dioxide: InChIKey CURLTUGMZLYLDI-UHFFFAOYSA-N
Temperature: 195 K
Tabular data in the source: 0
pressure (bar)	uptake (Guest molecules per Cu ion)
0.000184	0.025906
0.000308	0.0717884
0.000456	0.161368
0.000655	0.292461
0.00116253	0.427923
0.0029634	0.552461
0.00649578	0.626746
0.0175888	0.698847
0.0409539	0.788427
0.0726726	0.928259
0.145507	0.993805
0.720565	1.04406
