Adsorption isotherm of Xenon on MIL-53(Al)lp
DOI: 10.1021/Jz9003087
Adsorbate Xenon: InChIKey FHNFHKCVQCLJFQ-UHFFFAOYSA-N
Temperature: 220 K
Tabular data in the source: 0
pressure (bar)	uptake (molecules/unitcell)
0.00154664	0.0697971
0.00418033	0.208754
0.00797113	0.385567
0.01	0.456456
0.0121152	0.563564
0.0177828	0.813814
0.0227018	0.956684
0.0327454	1.35117
0.0456131	1.81791
0.0624381	2.32078
0.0854712	2.89571
0.0982698	3.18327
0.132194	3.7583
0.171731	4.36955
0.231013	5.05269
0.310759	5.69979
0.357298	5.95131
0.480638	6.52634
0.657933	7.10128
0.982707	7.56766
1.21153	7.78278
1.41747	7.85404
