Adsorption isotherm of Xenon on MIL-53(Al)
DOI: 10.1021/Jz9003087
Adsorbate Xenon: InChIKey FHNFHKCVQCLJFQ-UHFFFAOYSA-N
Temperature: 220 K
Tabular data in the source: 0
pressure (bar)	uptake (molecules/unitcell)
0.00108395	0.0869565
0.00123948	0.0434783
0.00141739	0.0434783
0.00159926	0.0434783
0.00180455	0.0869565
0.00206376	0.130435
0.00235999	0.130435
0.00269892	0.173913
0.0033907	0.26087
0.00387766	0.304348
0.00443466	0.347826
0.00500438	0.434783
0.00572387	0.565217
0.00645981	0.695652
0.00729071	0.869565
0.00822906	1.08696
0.00928774	1.26087
0.0103443	1.52174
0.0116748	1.69565
0.0131777	1.91304
0.0148727	2.08696
0.0152795	2.17391
0.0174739	2.21739
0.0197188	2.30435
0.0225512	2.34783
0.0257899	2.3913
0.0294937	2.43478
0.0332805	2.47826
0.038061	2.52174
0.0435271	2.56522
0.0497749	2.56522
0.0569246	2.6087
0.0642333	2.65217
0.0734531	2.65217
0.0839963	2.65217
0.0960616	2.69565
0.109849	2.69565
0.136155	2.73913
0.155699	2.73913
0.178048	2.73913
0.19559	2.78261
0.223698	2.86957
0.252474	3.04348
0.281175	3.26087
0.309012	3.56522
0.339604	3.86957
0.363372	4.21739
0.388834	4.6087
0.421697	5
0.45121	5.34783
0.48931	5.69565
0.523594	6.08696
0.575432	6.3913
0.624019	6.73913
0.704497	7.08696
0.795178	7.30435
0.897466	7.47826
1.01284	7.6087
1.14313	7.78261
1.3075	7.91304
1.47548	8
