Adsorption isotherm of Xenon on MIL-53(Al)np
DOI: 10.1021/Jz9003087
Adsorbate Xenon: InChIKey FHNFHKCVQCLJFQ-UHFFFAOYSA-N
Temperature: 220 K
Tabular data in the source: 0
pressure (bar)	uptake (molecules/unitcell)
0.00101761	0.576486
0.00129909	0.68332
0.00154664	0.790518
0.00197447	0.897352
0.00235077	1.00455
0.00289814	1.1476
0.00357298	1.29065
0.00418033	1.43398
0.00515371	1.57703
0.00624382	1.68414
0.00769768	1.86323
0.00982698	2.0061
0.0252069	2.36154
0.0316228	2.46847
0.0582304	2.60943
0.0839924	2.64355
0.109114	2.67822
0.160157	2.71226
0.200923	2.71107
0.289815	2.7452
0.376494	2.74383
0.448245	2.74292
0.562341	2.74174
0.693281	2.74065
0.854709	2.73956
1.05373	2.73847
1.36888	2.7371
