Adsorption isotherm of Carbon Dioxide on SBA-RT-20A
DOI: 10.1007/s10450-019-00118-1
Article source: Figure 6A
Adsorbate Carbon Dioxide: InChIKey CURLTUGMZLYLDI-UHFFFAOYSA-N
Kind: experiment
Temperature: 298 K
Tabular data in the source: 0
pressure (bar)	uptake (mmol/g)
0.010801	0.082008
0.010567	0.157009
0.006543	0.246309
0.011949	0.314147
0.017411	0.364127
0.034043	0.435496
0.052647	0.474715
0.089978	0.513868
0.123541	0.560177
0.157082	0.613628
0.198237	0.627767
0.259912	0.666832
0.323416	0.720177
0.34775	0.723662
0.418778	0.766265
0.456165	0.78756
0.491701	0.801719
0.542163	0.833681
0.600161	0.851331
0.645049	0.869028
0.693705	0.879569
0.751692	0.90079
0.785389	0.904241
0.832172	0.914789
0.880817	0.928901
0.946317	0.942952
0.985587	0.960669
