Adsorption isotherm of Carbon Dioxide on SBA-333-50P
DOI: 10.1007/s10450-019-00118-1
Article source: Figure 7A
Adsorbate Carbon Dioxide: InChIKey CURLTUGMZLYLDI-UHFFFAOYSA-N
Kind: experiment
Temperature: 298 K
Tabular data in the source: 0
pressure (bar)	uptake (mmol/g)
0.007624	0.04522
0.009531	0.102999
0.02703	0.19948
0.02691	0.347072
0.032686	0.44982
0.030602	0.610221
0.036394	0.693718
0.063695	0.745405
0.094924	0.771474
0.133986	0.771976
0.17109	0.778869
0.223813	0.79238
0.270683	0.799398
0.307807	0.780624
0.378114	0.787943
0.417165	0.801278
0.464029	0.814714
0.506998	0.815266
0.571435	0.835344
0.614392	0.848729
0.667126	0.849406
0.721787	0.882193
0.772563	0.889262
0.848718	0.909491
0.895592	0.910092
0.946384	0.89791
0.999123	0.89217
