Adsorption isotherm of Carbon Dioxide on SBA-373-50P
DOI: 10.1007/s10450-019-00118-1
Article source: Figure 7B
Adsorbate Carbon Dioxide: InChIKey CURLTUGMZLYLDI-UHFFFAOYSA-N
Kind: experiment
Temperature: 318 K
Tabular data in the source: 0
pressure (bar)	uptake (mmol/g)
0.003871	0.158738
0.010012	0.31763
0.009771	0.452731
0.0116	0.627551
0.015628	0.770566
0.015316	0.945402
0.01506	1.08845
0.01472	1.27918
0.016592	1.43016
0.027001	1.59696
0.033283	1.67639
0.097269	1.81892
0.125035	1.85844
0.195644	1.88967
0.244895	1.88927
0.32828	1.96013
0.394605	1.99139
0.463129	1.99085
0.516606	2.02221
0.576522	2.04558
0.636451	2.061
0.698537	2.06845
0.758509	2.06003
0.843993	2.15471
0.910417	2.13034
0.963951	2.12992
1.00889	2.14545
