Adsorption isotherm of Carbon Dioxide on SBA-373-50P
DOI: 10.1007/s10450-019-00118-1
Article source: Figure 7B
Adsorbate Carbon Dioxide: InChIKey CURLTUGMZLYLDI-UHFFFAOYSA-N
Kind: experiment
Temperature: 298 K
Tabular data in the source: 0
pressure (bar)	uptake (mmol/g)
0.007899	0.301753
0.003247	0.508412
0.009289	0.722934
0.013231	0.913631
0.017117	1.13612
0.025356	1.31883
0.027228	1.46981
0.061305	1.57285
0.110514	1.5963
0.178952	1.64344
0.256041	1.64283
0.313858	1.64237
0.373788	1.65779
0.450805	1.69691
0.493633	1.69657
0.566439	1.69599
0.619916	1.72735
0.681973	1.7507
0.741917	1.75817
0.774023	1.76586
0.812567	1.76556
0.86179	1.78106
0.906688	1.82044
0.966561	1.86764
1.01366	1.87522
