Adsorption isotherm of Carbon Dioxide on SBA-353-50T
DOI: 10.1007/s10450-019-00118-1
Article source: Figure 8A
Adsorbate Carbon Dioxide: InChIKey CURLTUGMZLYLDI-UHFFFAOYSA-N
Kind: experiment
Temperature: 298 K
Tabular data in the source: 0
pressure (bar)	uptake (mmol/g)
0.000387	0.094503
0.002716	0.293854
0.012644	0.406877
0.016915	0.606241
0.009857	0.971642
0.01018	1.13776
0.010451	1.27729
0.022398	1.4302
0.036094	1.48345
0.059537	1.55669
0.115977	1.62351
0.150968	1.64368
0.207383	1.69721
0.244341	1.73067
0.304536	1.73108
0.356977	1.73807
0.388071	1.75156
0.428861	1.75848
0.506583	1.78557
0.603711	1.80615
0.683375	1.83326
0.72801	1.82027
0.759078	1.82047
0.811558	1.8474
0.881513	1.87444
0.908724	1.88791
0.947624	1.92139
1.00593	1.94836
