Adsorption isotherm of Carbon Dioxide on SBA-373-50T
DOI: 10.1007/s10450-019-00118-1
Article source: Figure 8B
Adsorbate Carbon Dioxide: InChIKey CURLTUGMZLYLDI-UHFFFAOYSA-N
Kind: experiment
Temperature: 338 K
Tabular data in the source: 0
pressure (bar)	uptake (mmol/g)
0.00533	0.033566
0.010673	0.201687
0.014248	0.306749
0.017691	0.481995
0.01744	0.615342
0.017162	0.762726
0.01687	0.917129
0.016685	1.01539
0.018307	1.15564
0.02373	1.28166
0.027146	1.47094
0.024941	1.63948
0.02659	1.76571
0.026219	1.96222
0.025981	2.08855
0.029477	2.23572
0.046248	2.34706
0.063059	2.43734
0.100613	2.53348
0.151482	2.57273
0.208039	2.59762
0.275852	2.65698
0.317339	2.66868
0.394706	2.66434
0.472086	2.65298
0.524829	2.69914
0.581399	2.71702
0.641637	2.79083
0.709582	2.77999
0.756757	2.77734
0.807692	2.7815
0.858601	2.7997
0.900089	2.8114
0.956685	2.81524
0.986851	2.82759
1.01514	2.83301
