Adsorption isotherm of Carbon Dioxide on SBA-393-50P
DOI: 10.1007/s10450-019-00118-1
Article source: Figure 7A
Adsorbate Carbon Dioxide: InChIKey CURLTUGMZLYLDI-UHFFFAOYSA-N
Kind: experiment
Temperature: 298 K
Tabular data in the source: 0
pressure (bar)	uptake (mmol/g)
0.003676	0.096506
0.015244	0.282751
0.015124	0.430343
0.014998	0.584352
0.012941	0.712668
0.012831	0.847426
0.012763	0.930848
0.010716	1.04633
0.006669	1.21954
0.006596	1.30938
0.016225	1.47635
0.043517	1.54087
0.084527	1.54781
0.127479	1.56761
0.176291	1.58749
0.244624	1.62045
0.307102	1.64692
0.352013	1.66033
0.412549	1.67395
0.475054	1.66833
0.5356	1.66911
0.584422	1.67615
0.641052	1.68971
0.695733	1.69683
0.709405	1.69701
0.771915	1.68498
0.807066	1.69184
0.86956	1.69906
0.896898	1.70583
0.943767	1.71285
0.990642	1.71345
1.01602	1.73303
