Adsorption isotherm of Carbon Dioxide on SBA-RT-50P
DOI: 10.1007/s10450-019-00118-1
Article source: Figure 7A
Adsorbate Carbon Dioxide: InChIKey CURLTUGMZLYLDI-UHFFFAOYSA-N
Kind: experiment
Temperature: 298 K
Tabular data in the source: 0
pressure (bar)	uptake (mmol/g)
0.007614	0.058054
0.01339	0.160802
0.017218	0.257108
0.024952	0.353464
0.032665	0.475488
0.056071	0.514291
0.075591	0.527376
0.110753	0.52141
0.167398	0.51572
0.210366	0.516271
0.249423	0.52319
0.298256	0.517399
0.347073	0.53086
0.382224	0.537728
0.425192	0.53828
0.472061	0.545298
0.511113	0.558634
0.556034	0.55921
0.595086	0.572546
0.628289	0.572972
0.692741	0.573799
0.733741	0.593577
0.784495	0.626314
0.831365	0.633332
0.895833	0.614908
0.936832	0.634686
0.979774	0.667323
1.00711	0.674091
