Adsorption isotherm of Carbon Dioxide on SBA-353-20A
DOI: 10.1007/s10450-019-00118-1
Article source: Figure 6B
Adsorbate Carbon Dioxide: InChIKey CURLTUGMZLYLDI-UHFFFAOYSA-N
Kind: experiment
Temperature: 318 K
Tabular data in the source: 0
pressure (bar)	uptake (mmol/g)
0.016058	0.068278
0.028639	0.138852
0.02436	0.206184
0.025683	0.276957
0.027034	0.34419
0.035973	0.400669
0.065609	0.449702
0.110366	0.484308
0.164561	0.511667
0.218923	0.517785
0.273201	0.534523
0.297539	0.541172
0.350051	0.543782
0.42864	0.57071
0.473619	0.576994
0.511093	0.58341
0.55792	0.593201
0.587916	0.596209
0.63662	0.605967
0.685241	0.626345
0.752682	0.639311
0.807015	0.648969
0.835106	0.655551
0.865129	0.65502
0.934502	0.660872
0.979509	0.663615
