Adsorption isotherm of Carbon Dioxide on SBA-373-50T
DOI: 10.1007/s10450-019-00118-1
Article source: Figure 8B
Adsorbate Carbon Dioxide: InChIKey CURLTUGMZLYLDI-UHFFFAOYSA-N
Kind: experiment
Temperature: 298 K
Tabular data in the source: 0
pressure (bar)	uptake (mmol/g)
0.010819	0.124486
-0.0009	0.33567
0.006237	0.552813
0.002026	0.784629
-0.000166	0.946155
0.005072	1.17042
0.010428	1.33152
0.017738	1.45743
0.01734	1.66798
0.022829	1.7589
0.045208	1.89799
0.097951	1.94416
0.130017	1.94937
0.184713	1.96034
0.248845	1.97077
0.303567	1.9677
0.375286	1.95666
0.431896	1.95348
0.544983	2.0173
0.575135	2.03666
0.648741	2.02552
0.731756	2.02787
0.794027	2.02438
0.891965	2.11712
0.939126	2.12149
1.01084	2.11045
