Adsorption isotherm of Carbon Dioxide on SBA-393-20A
DOI: 10.1007/s10450-019-00118-1
Article source: Figure 6A
Adsorbate Carbon Dioxide: InChIKey CURLTUGMZLYLDI-UHFFFAOYSA-N
Kind: experiment
Temperature: 298 K
Tabular data in the source: 0
pressure (bar)	uptake (mmol/g)
0.018404	0.046266
0.020042	0.12126
0.025504	0.171241
0.03645	0.264059
0.05491	0.349707
0.075286	0.421063
0.108805	0.481658
0.142357	0.531538
0.175954	0.567132
0.232045	0.595503
0.282496	0.631037
0.33103	0.680864
0.373979	0.719996
0.433782	0.759069
0.491723	0.794576
0.545975	0.812239
0.617026	0.8477
0.658136	0.876124
0.704863	0.904529
0.759082	0.932907
0.794618	0.947066
0.852582	0.97543
0.897527	0.975269
0.948067	0.982232
0.983614	0.992819
