Adsorption isotherm of Carbon Dioxide on SBA-353-50P
DOI: 10.1007/s10450-019-00118-1
Article source: Figure 7A
Adsorbate Carbon Dioxide: InChIKey CURLTUGMZLYLDI-UHFFFAOYSA-N
Kind: experiment
Temperature: 298 K
Tabular data in the source: 0
pressure (bar)	uptake (mmol/g)
0.009551	0.07733
0.009442	0.212088
0.009322	0.35968
0.015129	0.423926
0.022842	0.54595
0.028628	0.635864
0.02656	0.777014
0.030367	0.898988
0.034132	1.0723
0.061403	1.16249
0.086767	1.1949
0.133641	1.1955
0.166844	1.19593
0.223484	1.19665
0.25864	1.19711
0.317233	1.19786
0.342598	1.23027
0.401149	1.28236
0.440242	1.24435
0.471492	1.24476
0.528127	1.2519
0.569121	1.2781
0.619886	1.298
0.664792	1.31782
0.725328	1.33144
0.754624	1.33181
0.813202	1.35182
0.830769	1.36487
0.881524	1.39761
0.944023	1.39841
0.981132	1.39889
