Adsorption isotherm of Carbon Dioxide on SBA-373-50T
DOI: 10.1007/s10450-019-00118-1
Article source: Figure 8A
Adsorbate Carbon Dioxide: InChIKey CURLTUGMZLYLDI-UHFFFAOYSA-N
Kind: experiment
Temperature: 298 K
Tabular data in the source: 0
pressure (bar)	uptake (mmol/g)
0.010277	0.187592
0.016515	0.400258
0.011051	0.586268
0.009431	0.75237
0.009664	0.871973
0.011876	1.01152
0.017998	1.16439
0.020185	1.29065
0.020353	1.37703
0.018721	1.53648
0.020908	1.66275
0.021101	1.76242
0.025191	1.86875
0.040868	1.94195
0.068194	2.01522
0.13235	2.05551
0.149839	2.06227
0.184817	2.07579
0.246966	2.08285
0.254733	2.0829
0.316896	2.09661
0.349919	2.10347
0.408185	2.1105
0.460613	2.11085
0.526685	2.13787
0.559734	2.15802
0.61809	2.21156
0.664718	2.22516
0.70538	2.16563
0.761717	2.1793
0.806429	2.20617
0.860825	2.21982
0.907466	2.24007
0.971609	2.27371
0.983259	2.27379
1.01627	2.27401
