Adsorption isotherm of Carbon Dioxide on SBA-413-50T
DOI: 10.1007/s10450-019-00118-1
Article source: Figure 8A
Adsorbate Carbon Dioxide: InChIKey CURLTUGMZLYLDI-UHFFFAOYSA-N
Kind: experiment
Temperature: 298 K
Tabular data in the source: 0
pressure (bar)	uptake (mmol/g)
0.008115	0.074621
0.006509	0.247368
0.006974	0.486573
0.013031	0.606215
0.019063	0.712567
0.025108	0.825564
0.044641	0.885495
0.093289	0.938974
0.130234	0.965798
0.188591	1.01934
0.202196	1.02608
0.242999	1.03964
0.279931	1.05982
0.330482	1.09337
0.371311	1.12022
0.414017	1.11386
0.421758	1.10063
0.472218	1.08767
0.518963	1.16107
0.5753	1.17473
0.62778	1.20166
0.678304	1.22193
0.719082	1.2222
0.755975	1.22245
0.792869	1.22269
0.823937	1.2229
0.870566	1.2365
0.919149	1.25675
0.95221	1.28355
1.00276	1.31711
