Adsorption isotherm of Carbon Dioxide on SBA-353
DOI: 10.1007/s10450-019-00118-1
Article source: Figure 3A
Adsorbate Carbon Dioxide: InChIKey CURLTUGMZLYLDI-UHFFFAOYSA-N
Kind: experiment
Temperature: 298 K
Tabular data in the source: 0
pressure (bar)	uptake (mmol/g)
0.024435	0.017662
0.065056	0.098323
0.097523	0.144272
0.136075	0.197869
0.176625	0.23595
0.219238	0.297226
0.255759	0.346983
0.310525	0.411942
0.359191	0.461511
0.413976	0.538082
0.472764	0.587494
0.511297	0.629478
0.562007	0.690628
0.610654	0.728585
0.655253	0.766604
0.693785	0.808588
0.730287	0.846732
0.815416	0.911221
0.886401	0.991412
0.943165	1.04086
1.00803	1.09405
