Adsorption isotherm of Carbon Dioxide on SBA-413
DOI: 10.1007/s10450-019-00118-1
Article source: Figure 3A
Adsorbate Carbon Dioxide: InChIKey CURLTUGMZLYLDI-UHFFFAOYSA-N
Kind: experiment
Temperature: 298 K
Tabular data in the source: 0
pressure (bar)	uptake (mmol/g)
0.016344	0.021658
0.077156	0.071039
0.109603	0.105375
0.15014	0.135715
0.210965	0.192838
0.265685	0.230701
0.308252	0.26488
0.350794	0.283576
0.405494	0.309826
0.45008	0.340103
0.480469	0.355117
0.516951	0.381649
0.557475	0.404247
0.600017	0.422943
0.652712	0.460837
0.689181	0.479627
0.739827	0.502069
0.766174	0.521016
0.814815	0.555101
0.857356	0.573797
0.885735	0.596584
0.926252	0.615311
0.960697	0.634133
0.993118	0.652985
1.01337	0.660414
