Adsorption isotherm of Carbon Dioxide on SBA-353-20A
DOI: 10.1007/s10450-019-00118-1
Article source: Figure 6B
Adsorbate Carbon Dioxide: InChIKey CURLTUGMZLYLDI-UHFFFAOYSA-N
Kind: experiment
Temperature: 338 K
Tabular data in the source: 0
pressure (bar)	uptake (mmol/g)
0.023702	0.050443
0.026846	0.128264
0.03573	0.191823
0.044558	0.262464
0.061059	0.311729
0.098228	0.357089
0.128112	0.374259
0.167379	0.391263
0.236641	0.411276
0.294838	0.406706
0.371716	0.412425
0.397986	0.41196
0.457866	0.43214
0.487889	0.431608
0.540374	0.437759
0.585297	0.451123
0.634029	0.45734
0.677215	0.453036
0.707238	0.452505
0.746698	0.444727
0.780474	0.444129
0.812401	0.440024
0.864941	0.439094
0.900538	0.445544
0.934258	0.452026
0.979293	0.451229
1.01119	0.450665
