Adsorption isotherm of Nitrogen on SBA-RT
DOI: 10.1007/s10450-019-00118-1
Article source: Figure 2A
Adsorbate Nitrogen: InChIKey IJGRMHOSHXDMSA-UHFFFAOYSA-N
Kind: experiment
Temperature: 77 K
Tabular data in the source: 0
pressure (bar)	uptake (cm3(STP)/g)
0.005049	34.033
0.000814	51.8572
0.002517	74.0608
0.004368	85.1516
0.010187	98.4211
0.014095	105.045
0.019944	116.092
0.029819	124.873
0.039665	135.876
0.059446	151.214
0.069411	153.327
0.079375	155.44
0.093308	159.732
0.105271	161.823
0.127228	163.804
0.139191	165.895
0.15918	165.676
0.17517	165.501
0.201155	165.216
0.229108	167.132
0.247068	169.157
0.286837	184.276
0.338717	190.374
0.358676	192.377
0.388658	192.049
0.410497	202.92
0.462318	213.463
0.486215	219.868
0.506114	226.316
0.526013	232.765
0.55952	267.953
0.583091	298.805
0.608631	331.859
0.64652	338.11
0.670505	337.847
0.696549	333.117
0.908275	341.906
0.93426	341.621
0.960215	343.559
0.998133	347.587
0.308557	204.038
0.35456	201.311
0.402294	218.566
0.440242	220.372
0.56137	279.044
0.578797	321.075
0.602664	329.702
0.6305	340.508
0.658394	346.869
0.724473	337.255
0.750458	336.97
0.774444	336.707
0.806425	336.356
0.83041	336.093
0.874355	337.834
0.924266	341.731
0.995986	358.722
