Adsorption isotherm of Carbon Dioxide on SBA-333
DOI: 10.1007/s10450-019-00118-1
Article source: Figure 3B
Adsorbate Carbon Dioxide: InChIKey CURLTUGMZLYLDI-UHFFFAOYSA-N
Kind: experiment
Temperature: 318 K
Tabular data in the source: 0
pressure (bar)	uptake (mmol/g)
0.016724	0.009825
0.075911	0.045988
0.120914	0.08239
0.175365	0.115254
0.206177	0.148517
0.279564	0.191196
0.334007	0.220682
0.393154	0.239953
0.445233	0.269479
0.494941	0.295666
0.537532	0.311839
0.594355	0.348041
0.641691	0.37089
0.679562	0.390521
0.736369	0.419966
0.814444	0.445675
0.904331	0.467805
0.973014	0.520699
1.01326	0.543668
1.11265	0.585908
1.1955	0.631805
1.23808	0.6446
1.27832	0.66419
