Adsorption isotherm of Nitrogen on SBA-393
DOI: 10.1007/s10450-019-00118-1
Article source: Figure 2A
Adsorbate Nitrogen: InChIKey IJGRMHOSHXDMSA-UHFFFAOYSA-N
Kind: experiment
Temperature: 77 K
Tabular data in the source: 0
pressure (bar)	uptake (cm3(STP)/g)
0.005167	25.1428
0.008987	38.4343
0.014865	47.2587
0.026621	64.9076
0.048371	82.4468
0.074178	95.4972
0.096017	106.369
0.129819	119.331
0.171646	129.984
0.175644	129.94
0.219558	133.903
0.237548	133.706
0.2675	135.599
0.293485	135.315
0.31941	139.475
0.357299	145.726
0.377198	152.174
0.429019	162.717
0.47893	166.614
0.528841	170.511
0.570698	178.941
0.594595	185.346
0.628456	193.864
0.648415	195.867
0.678219	208.873
0.700058	219.745
0.71787	232.883
0.749732	241.423
0.765516	256.805
0.802516	329.733
0.827893	525.01
0.853893	673.614
0.904944	741.943
0.944802	750.395
0.98654	767.715
0.309357	144.029
0.353272	147.992
0.399126	156.378
0.468995	162.279
0.524844	170.555
0.508853	170.731
0.560615	185.719
0.580514	192.167
0.60644	196.327
0.636274	207.111
0.654174	213.581
0.670076	220.074
0.697911	230.88
0.709697	246.306
0.725332	272.801
0.733061	292.716
0.749392	416.982
0.779182	581.1
0.83731	718.24
0.861029	737.98
0.882868	748.851
0.91479	752.946
0.946593	765.93
0.986451	774.382
