Adsorption isotherm of Nitrogen on SBA-373
DOI: 10.1007/s10450-019-00118-1
Article source: Figure 2A
Adsorbate Nitrogen: InChIKey IJGRMHOSHXDMSA-UHFFFAOYSA-N
Kind: experiment
Temperature: 77 K
Tabular data in the source: 0
pressure (bar)	uptake (cm3(STP)/g)
-0.001214	54.1017
0.002487	76.2833
0.004368	85.1516
0.014125	102.822
0.027939	116.004
0.037785	127.007
0.06944	151.105
0.089251	164.221
0.123023	179.406
0.148801	194.679
0.178694	201.018
0.212496	213.98
0.236334	224.83
0.284305	224.304
0.33013	234.913
0.36599	243.408
0.397882	249.725
0.503523	270.789
0.421927	245.017
0.47169	260.027
0.559194	292.401
0.606958	307.433
0.636763	320.439
0.658601	331.311
0.688376	346.54
0.714124	364.035
0.735874	381.574
0.753567	403.603
0.770594	625.638
0.833046	738.287
0.868847	751.227
0.892714	759.855
0.912643	764.081
0.93654	770.485
0.976368	781.159
0.302265	226.329
0.366079	236.741
0.405907	247.415
0.449614	266.936
0.47551	273.318
0.517337	283.971
0.545202	292.554
0.567011	305.648
0.590849	316.498
0.614568	336.238
0.63432	353.799
0.652102	369.16
0.705803	688.571
0.729315	723.869
0.741189	732.627
0.768995	745.656
0.804855	754.151
0.820787	758.421
0.878722	760.008
0.916552	770.704
0.962554	767.978
0.988391	778.805
0.856824	753.581
