Adsorption isotherm of Carbon Dioxide on SBA-333
DOI: 10.1007/s10450-019-00118-1
Article source: Figure 3A
Adsorbate Carbon Dioxide: InChIKey CURLTUGMZLYLDI-UHFFFAOYSA-N
Kind: experiment
Temperature: 298 K
Tabular data in the source: 0
pressure (bar)	uptake (mmol/g)
0.028483	0.017599
0.058971	0.090675
0.087408	0.1483
0.127978	0.197994
0.178695	0.263015
0.229444	0.347391
0.257849	0.385661
0.308559	0.446811
0.341025	0.49276
0.401864	0.557624
0.450511	0.595581
0.509305	0.648864
0.555954	0.702335
0.633012	0.782432
0.691826	0.847328
0.748603	0.904513
0.815494	0.957671
0.880361	1.01086
0.939168	1.07188
0.979718	1.10997
1.03042	1.16725
