Adsorption isotherm of Carbon Dioxide on SBA-353-20A
DOI: 10.1007/s10450-019-00118-1
Article source: Figure 6A
Adsorbate Carbon Dioxide: InChIKey CURLTUGMZLYLDI-UHFFFAOYSA-N
Kind: experiment
Temperature: 298 K
Tabular data in the source: 0
pressure (bar)	uptake (mmol/g)
0.009018	0.053443
0.010545	0.164152
0.0103	0.242724
0.013722	0.346283
0.015327	0.431992
0.024389	0.528388
0.039081	0.621192
0.063181	0.699678
0.089231	0.753156
0.13587	0.810133
0.173156	0.863571
0.189932	0.888511
0.262799	0.941822
0.333772	1.00228
0.402927	1.04489
0.468393	1.06966
0.520705	1.10876
0.563721	1.12646
0.61046	1.15129
0.679593	1.20105
0.72446	1.22589
0.776794	1.25784
0.825395	1.28624
0.857186	1.30041
0.885243	1.31103
0.931993	1.33229
0.975042	1.33928
0.991874	1.34636
