Adsorption isotherm of Nitrogen on SBA-413
DOI: 10.1007/s10450-019-00118-1
Article source: Figure 2A
Adsorbate Nitrogen: InChIKey IJGRMHOSHXDMSA-UHFFFAOYSA-N
Kind: experiment
Temperature: 77 K
Tabular data in the source: 0
pressure (bar)	uptake (cm3(STP)/g)
0.01143	5.07416
0.019277	16.0992
0.025007	36.0364
0.034913	42.5944
0.064776	51.1558
0.084705	55.3817
0.106515	68.4759
0.130441	72.658
0.15037	76.8839
0.178353	76.577
0.20228	80.7591
0.2362	84.8316
0.250103	91.3458
0.279937	102.13
0.319825	108.359
0.345809	108.074
0.37779	107.723
0.413769	107.329
0.443722	109.223
0.473704	108.894
0.523585	115.014
0.571409	125.6
0.593307	132.027
0.62323	136.143
0.651124	142.504
0.688924	155.423
0.712821	161.827
0.740597	177.078
0.75641	190.238
0.784068	214.379
0.80564	245.254
0.825095	285.041
0.84649	329.25
0.898474	477.569
0.928056	657.245
0.976872	743.376
0.299807	110.801
0.369766	110.034
0.411622	118.464
0.453597	118.003
0.495513	121.988
0.535401	128.217
0.575318	132.224
0.60524	136.34
0.641012	151.504
0.646949	155.883
0.676665	175.557
0.714376	195.144
0.738125	212.661
0.755818	234.689
0.769573	252.316
0.781388	265.52
0.794935	298.705
0.816508	329.579
0.837813	380.457
0.852235	498.076
0.87283	602.295
0.889812	677.664
0.940923	741.548
0.960703	756.887
0.996475	772.05
