Adsorption isotherm of Carbon Dioxide on SBA-413-50P
DOI: 10.1007/s10450-019-00118-1
Article source: Figure 7A
Adsorbate Carbon Dioxide: InChIKey CURLTUGMZLYLDI-UHFFFAOYSA-N
Kind: experiment
Temperature: 298 K
Tabular data in the source: 0
pressure (bar)	uptake (mmol/g)
0.009578	0.045245
0.003635	0.147843
0.009405	0.257008
0.011249	0.391791
0.013108	0.507323
0.013056	0.571493
0.012941	0.712668
0.010909	0.808899
0.012768	0.924431
0.024424	1.00159
0.038049	1.05951
0.065325	1.14329
0.094579	1.195
0.12385	1.22746
0.186323	1.26035
0.211708	1.26709
0.260536	1.26772
0.30153	1.29391
0.348384	1.32018
0.412805	1.35951
0.459674	1.36653
0.510455	1.36718
0.539736	1.38681
0.596355	1.4132
0.621745	1.41353
0.66276	1.41406
0.713531	1.42754
0.74477	1.44078
0.777962	1.45404
0.83266	1.44191
0.863909	1.44231
0.914685	1.44938
0.940075	1.4497
0.981085	1.45664
1.00452	1.45694
