Adsorption isotherm of Carbon Dioxide on SBA-RT
DOI: 10.1007/s10450-019-00118-1
Article source: Figure 3A
Adsorbate Carbon Dioxide: InChIKey CURLTUGMZLYLDI-UHFFFAOYSA-N
Kind: experiment
Temperature: 298 K
Tabular data in the source: 0
pressure (bar)	uptake (mmol/g)
0.026452	0.01376
0.056933	0.082965
0.09751	0.13653
0.127945	0.17864
0.166484	0.224495
0.223287	0.297163
0.276021	0.358282
0.336866	0.427018
0.397678	0.476399
0.46662	0.545009
0.525421	0.602163
0.58827	0.659254
0.640972	0.701019
0.705832	0.750337
0.764633	0.807491
0.827463	0.85297
0.890286	0.894578
0.942988	0.936342
0.98758	0.970491
1.02609	0.996991
