Adsorption isotherm of Carbon Dioxide on SBA-333-50T
DOI: 10.1007/s10450-019-00118-1
Article source: Figure 8A
Adsorbate Carbon Dioxide: InChIKey CURLTUGMZLYLDI-UHFFFAOYSA-N
Kind: experiment
Temperature: 298 K
Tabular data in the source: 0
pressure (bar)	uptake (mmol/g)
0.010096	0.094568
0.008412	0.227447
0.002793	0.333722
0.001122	0.473245
-0.002464	0.626046
-0.002206	0.758938
0.001974	0.911789
0.006038	1.00484
0.01207	1.11119
0.025856	1.21095
0.060937	1.27763
0.125093	1.31792
0.187178	1.29176
0.194919	1.27852
0.245392	1.27221
0.323115	1.2993
0.363905	1.30622
0.420294	1.34646
0.47078	1.3468
0.505719	1.34039
0.58339	1.3409
0.6164	1.34112
0.699961	1.3749
0.750485	1.39517
0.808752	1.4022
0.853451	1.42243
0.929193	1.42958
0.942798	1.43631
1.00495	1.44337
1.03019	1.44354
