Adsorption isotherm of Carbon Dioxide on SBA-393-50T
DOI: 10.1007/s10450-019-00118-1
Article source: Figure 8A
Adsorbate Carbon Dioxide: InChIKey CURLTUGMZLYLDI-UHFFFAOYSA-N
Kind: experiment
Temperature: 298 K
Tabular data in the source: 0
pressure (bar)	uptake (mmol/g)
0.00647	0.227434
-0.000987	0.386853
0.005071	0.506494
0.007348	0.679267
0.011593	0.865342
0.005999	0.984906
0.004432	1.17759
0.004793	1.36363
0.008844	1.45004
0.022876	1.67605
0.026991	1.79568
0.048583	1.91542
0.070033	1.96207
0.11481	2.02217
0.143975	2.0423
0.182862	2.06914
0.21006	2.07596
0.274151	2.08303
0.342126	2.09013
0.373246	2.11691
0.450994	2.1573
0.509299	2.18426
0.588886	2.1715
0.61611	2.19162
0.658854	2.20519
0.715205	2.2255
0.750182	2.23902
0.789043	2.25257
0.882287	2.27312
0.888113	2.27316
0.985253	2.30038
1.0299	2.29403
0.942482	2.27352
0.825976	2.27275
