Adsorption isotherm of Carbon Dioxide on SBA-373-20A
DOI: 10.1007/s10450-019-00118-1
Article source: Figure 6A
Adsorbate Carbon Dioxide: InChIKey CURLTUGMZLYLDI-UHFFFAOYSA-N
Kind: experiment
Temperature: 298 K
Tabular data in the source: 0
pressure (bar)	uptake (mmol/g)
0.010645	0.132008
0.008561	0.199873
0.008405	0.249873
0.011949	0.314147
0.024791	0.399815
0.043306	0.467606
0.061899	0.510397
0.08611	0.553167
0.121568	0.592326
0.157049	0.624343
0.207488	0.663448
0.257928	0.702554
0.29342	0.730998
0.355085	0.773635
0.411154	0.809149
0.459799	0.823261
0.499103	0.830264
0.523414	0.840891
0.581389	0.865684
0.615075	0.872707
0.64875	0.883301
0.701151	0.893828
0.744156	0.915103
0.789089	0.918514
0.837746	0.929054
0.867675	0.939662
0.912564	0.957359
0.955591	0.971491
0.996745	0.985629
