Adsorption isotherm of Carbon Dioxide on SBA-RT-50T
DOI: 10.1007/s10450-019-00118-1
Article source: Figure 8A
Adsorbate Carbon Dioxide: InChIKey CURLTUGMZLYLDI-UHFFFAOYSA-N
Kind: experiment
Temperature: 298 K
Tabular data in the source: 0
pressure (bar)	uptake (mmol/g)
0.008064	0.048042
0.004542	0.234066
0.010509	0.307195
0.022301	0.380363
0.053512	0.45366
0.080696	0.453841
0.131221	0.47411
0.162251	0.454383
0.228284	0.461466
0.278796	0.47509
0.327405	0.508636
0.401244	0.535705
0.476986	0.542853
0.531317	0.52328
0.595369	0.510417
0.653687	0.544027
0.708083	0.557677
0.781947	0.598035
0.832485	0.624949
0.882984	0.631929
0.921832	0.638832
0.982053	0.652521
1.0268	0.69933
