Adsorption isotherm of Nitrogen on SBA-353
DOI: 10.1007/s10450-019-00118-1
Article source: Figure 2A
Adsorbate Nitrogen: InChIKey IJGRMHOSHXDMSA-UHFFFAOYSA-N
Kind: experiment
Temperature: 77 K
Tabular data in the source: 0
pressure (bar)	uptake (cm3(STP)/g)
0.006752	56.2366
0.006485	76.2395
0.00422	96.2643
0.00989	120.647
0.01568	136.139
0.027376	158.233
0.033225	169.28
0.048919	191.33
0.060794	200.088
0.082573	215.405
0.102443	224.076
0.128309	232.681
0.142153	243.641
0.177894	261.027
0.201732	271.876
0.23965	275.905
0.251614	277.996
0.281418	291.002
0.343144	308.103
0.353109	310.216
0.377035	314.398
0.42474	333.875
0.454545	346.882
0.4805	348.819
0.510334	359.603
0.534142	372.676
0.565945	385.66
0.589842	392.065
0.607743	398.535
0.637488	415.987
0.657298	429.103
0.685015	448.799
0.712762	466.272
0.720668	472.852
0.756395	641.349
0.830662	767.202
0.872371	786.744
0.898326	788.682
0.928189	797.243
0.96208	803.538
0.986066	803.275
0.293292	299.761
0.352961	321.329
0.412747	334.007
0.438554	347.057
0.476354	359.976
0.516064	379.54
0.559801	396.839
0.599511	416.403
0.629256	433.855
0.65564	553.565
0.683372	722.15
0.700947	753.069
0.728723	768.32
0.764524	781.26
0.780514	781.085
0.830307	793.872
0.864168	802.39
0.916048	808.488
0.951968	812.538
