Adsorption isotherm of Carbon Dioxide on SBA-393
DOI: 10.1007/s10450-019-00118-1
Article source: Figure 3A
Adsorbate Carbon Dioxide: InChIKey CURLTUGMZLYLDI-UHFFFAOYSA-N
Kind: experiment
Temperature: 298 K
Tabular data in the source: 0
pressure (bar)	uptake (mmol/g)
0.02241	0.017693
0.079174	0.067137
0.113645	0.101442
0.16636	0.150948
0.215007	0.188905
0.2373	0.204043
0.292	0.230293
0.336566	0.248958
0.364951	0.275615
0.393323	0.294531
0.446012	0.328554
0.502743	0.358643
0.543266	0.381241
0.59192	0.423068
0.644596	0.44935
0.670944	0.468297
0.73984	0.50981
0.776322	0.536342
0.828998	0.562623
0.893812	0.584846
0.926233	0.603698
0.956629	0.622583
1.00727	0.641153
