Adsorption isotherm of Carbon Dioxide on SBA-373-50P
DOI: 10.1007/s10450-019-00118-1
Article source: Figure 7B
Adsorbate Carbon Dioxide: InChIKey CURLTUGMZLYLDI-UHFFFAOYSA-N
Kind: experiment
Temperature: 338 K
Tabular data in the source: 0
pressure (bar)	uptake (mmol/g)
0.006055	0.13488
0.003574	0.325628
0.009686	0.500414
0.009289	0.722934
0.006807	0.913682
0.006509	1.08057
0.006296	1.19978
0.005928	1.4064
0.005828	1.46203
0.022449	1.748
0.024264	1.93076
0.036885	2.05781
0.055959	2.16892
0.092192	2.264
0.134934	2.31134
0.162715	2.34291
0.214008	2.39813
0.27398	2.3897
0.325302	2.42903
0.387345	2.46033
0.4109	2.46014
0.468688	2.47557
0.498667	2.47534
0.579968	2.51443
0.59066	2.52229
0.669834	2.55345
0.716873	2.59281
0.789622	2.62402
0.840986	2.6395
0.883814	2.63916
0.958719	2.66241
0.995079	2.68596
0.920188	2.65477
