Adsorption isotherm of Carbon Dioxide on SBA-373-50T
DOI: 10.1007/s10450-019-00118-1
Article source: Figure 8B
Adsorbate Carbon Dioxide: InChIKey CURLTUGMZLYLDI-UHFFFAOYSA-N
Kind: experiment
Temperature: 318 K
Tabular data in the source: 0
pressure (bar)	uptake (mmol/g)
0.010964	0.047285
0.016374	0.180314
0.017599	0.531123
0.011527	0.749008
0.016831	0.938183
0.018373	1.12055
0.01593	1.41543
0.011905	1.54899
0.017062	1.81536
0.018685	1.95562
0.035323	2.13715
0.082326	2.22573
0.118152	2.23776
0.176609	2.25553
0.214309	2.27447
0.272766	2.29224
0.336845	2.33074
0.387793	2.32788
0.436921	2.29004
0.470901	2.28111
0.567031	2.33186
0.608532	2.33654
0.661341	2.34761
0.702802	2.37336
0.755598	2.39145
0.797099	2.39613
0.863117	2.40646
0.929109	2.43083
0.947952	2.4438
0.998901	2.44094
