Adsorption isotherm of Carbon Dioxide on SBA-413-20A
DOI: 10.1007/s10450-019-00118-1
Article source: Figure 6A
Adsorbate Carbon Dioxide: InChIKey CURLTUGMZLYLDI-UHFFFAOYSA-N
Kind: experiment
Temperature: 298 K
Tabular data in the source: 0
pressure (bar)	uptake (mmol/g)
0.005172	0.085599
0.008784	0.128444
0.017902	0.206982
0.023219	0.303392
0.023108	0.339107
0.032226	0.417646
0.045167	0.471171
0.063716	0.528247
0.089788	0.574583
0.115894	0.610204
0.158832	0.652908
0.216729	0.702701
0.242891	0.720465
0.285885	0.745311
0.343826	0.780818
0.39051	0.823509
0.437204	0.862628
0.489583	0.880298
0.553221	0.890785
0.586896	0.901379
0.631762	0.926219
0.684141	0.943889
0.747734	0.968662
0.777664	0.979269
0.803848	0.98989
0.839418	0.993334
0.871253	0.99322
0.944243	1.00724
0.981674	1.01426
1.006	1.02131
0.906823	0.996665
