Adsorption isotherm of Nitrogen on SBA-333
DOI: 10.1007/s10450-019-00118-1
Article source: Figure 2A
Adsorbate Nitrogen: InChIKey IJGRMHOSHXDMSA-UHFFFAOYSA-N
Kind: experiment
Temperature: 77 K
Tabular data in the source: 0
pressure (bar)	uptake (cm3(STP)/g)
0.005167	25.1428
0.002724	58.503
0.004397	82.9291
0.012008	111.734
0.017678	136.117
0.027436	153.788
0.035224	169.258
0.060823	197.866
0.072698	206.625
0.092538	217.518
0.130308	232.659
0.144299	232.506
0.18013	243.224
0.2	251.895
0.229923	256.012
0.25185	260.216
0.305641	272.959
0.339443	285.922
0.355344	292.414
0.375273	296.64
0.393144	305.333
0.427035	311.628
0.464776	328.992
0.490731	330.929
0.508631	337.4
0.540583	339.272
0.562451	347.921
0.58235	354.369
0.608187	365.197
0.641959	380.382
0.651865	386.94
0.679345	424.417
0.711489	561.842
0.791115	585.413
0.815101	585.15
0.855048	586.934
0.928945	590.568
0.960955	587.995
0.984911	589.955
0.309342	295.141
0.347142	308.059
0.396964	318.624
0.456721	333.525
0.496609	339.754
0.532528	343.804
0.556336	356.877
0.583727	401.021
0.620135	518.399
0.633416	571.587
0.663339	575.703
0.679271	579.973
0.711252	579.622
0.743233	579.272
0.777183	581.122
0.825125	582.818
0.85108	584.756
0.900991	588.653
0.922918	592.857
0.974828	596.732
1.00081	596.447
