Adsorption isotherm of Carbon Dioxide on SBA-333
DOI: 10.1007/s10450-019-00118-1
Article source: Figure 3B
Adsorbate Carbon Dioxide: InChIKey CURLTUGMZLYLDI-UHFFFAOYSA-N
Kind: experiment
Temperature: 338 K
Tabular data in the source: 0
pressure (bar)	uptake (mmol/g)
0.019119	0.023298
0.068771	0.025838
0.137382	0.048328
0.213085	0.070698
0.260396	0.083412
0.336091	0.102404
0.390495	0.114998
0.43545	0.131131
0.513541	0.163595
0.596336	0.185845
0.672047	0.211593
0.714622	0.221009
0.759554	0.227007
0.806873	0.2431
0.863672	0.269167
0.939367	0.288159
0.986655	0.290739
1.03159	0.296736
1.10258	0.325943
1.16171	0.338457
1.25394	0.353791
1.28234	0.366825
