Adsorption isotherm of Carbon Dioxide on SBA-373
DOI: 10.1007/s10450-019-00118-1
Article source: Figure 3A
Adsorbate Carbon Dioxide: InChIKey CURLTUGMZLYLDI-UHFFFAOYSA-N
Kind: experiment
Temperature: 298 K
Tabular data in the source: 0
pressure (bar)	uptake (mmol/g)
0.022423	0.025435
0.04881	0.067607
0.083301	0.113525
0.121827	0.151638
0.15428	0.189845
0.184709	0.228083
0.237417	0.273719
0.294187	0.327033
0.336788	0.380567
0.379362	0.418618
0.43002	0.448801
0.488801	0.494343
0.537481	0.551653
0.602355	0.608713
0.632777	0.643081
0.689547	0.696396
0.734146	0.734415
0.766579	0.761009
0.803055	0.78367
0.851689	0.813885
0.882098	0.840511
0.934767	0.862921
0.961108	0.877997
0.991518	0.904623
1.02597	0.927315
