Adsorption isotherm of Carbon Dioxide on SBA-333-20A
DOI: 10.1007/s10450-019-00118-1
Article source: Figure 6A
Adsorbate Carbon Dioxide: InChIKey CURLTUGMZLYLDI-UHFFFAOYSA-N
Kind: experiment
Temperature: 298 K
Tabular data in the source: 0
pressure (bar)	uptake (mmol/g)
0.003511	0.017748
0.008895	0.092729
0.004782	0.210601
0.012039	0.285575
0.009854	0.385583
0.011459	0.471291
0.022383	0.571252
0.037208	0.621199
0.063158	0.706821
0.104112	0.785246
0.148867	0.8458
0.201146	0.895614
0.255309	0.941849
0.31888	0.973765
0.393653	1.01636
0.475884	1.06963
0.561904	1.10861
0.601186	1.12276
0.651693	1.14043
0.711485	1.18308
0.801306	1.20419
0.87239	1.22893
0.921046	1.23947
0.949092	1.25366
0.997726	1.27134
