Adsorption isotherm of Carbon Dioxide on ZIF-8
DOI: 10.8888/j.cej.2011.01.096
Adsorbate Carbon Dioxide: InChIKey CURLTUGMZLYLDI-UHFFFAOYSA-N
Temperature: 298 K
Tabular data in the source: 0
pressure (bar)	uptake (mmol/g)
0.0209042	0.0430848
0.170714	0.161568
0.29551	0.247739
0.424456	0.333907
0.599123	0.44162
0.748854	0.538561
0.894476	0.646273
0.998446	0.7109
