Adsorption isotherm of Nitrogen on ZIF-8
DOI: 10.8888/j.cej.2011.01.096
Adsorbate Nitrogen: InChIKey IJGRMHOSHXDMSA-UHFFFAOYSA-N
Temperature: 298 K
Tabular data in the source: 0
pressure (bar)	uptake (mmol/g)
0.0209042	0.0677046
0.166211	0.101557
0.31551	0.0677046
0.419244	0.0677046
0.576999	0.101557
0.726377	0.101557
0.821813	0.101557
0.97534	0.101557
