Adsorption isotherm of Carbon Dioxide on ZIF-8
DOI: 10.8888/j.cej.2011.01.096
Adsorbate Carbon Dioxide: InChIKey CURLTUGMZLYLDI-UHFFFAOYSA-N
Temperature: 273 K
Tabular data in the source: 0
pressure (bar)	uptake (mmol/g)
0.0209106	0.0448357
0.112532	0.136695
0.279176	0.319682
0.420758	0.457652
0.570841	0.650893
0.754205	0.867555
0.904248	1.04981
1.00429	1.17498
