Adsorption isotherm of N-propane on CuBTC
DOI: 10.1021/Ie500310c
Adsorbate N-propane: InChIKey ATUOYWHBWRKTHZ-UHFFFAOYSA-N
Temperature: 323 K
Tabular data in the source: 0
pressure (bar)	uptake (mmol/g)
0.0161261	0.523222
0.0354689	1.17203
0.0580541	1.8836
0.0886724	2.93008
0.127247	4.49995
0.177362	5.81828
0.247342	6.50791
0.335415	6.90397
0.408851	7.1328
0.492091	7.36142
0.593348	7.48496
0.69297	7.60852
0.804031	7.73185
0.897161	7.75084
0.991898	7.83263
