Adsorption isotherm of Ethene on CuBTC
DOI: 10.1021/Ie500310c
Adsorbate Ethene: InChIKey VGGSQFUCUMXWEO-UHFFFAOYSA-N
Temperature: 373 K
Tabular data in the source: 0
pressure (bar)	uptake (mmol/g)
0.168122	0.215131
0.336245	0.394118
0.473799	0.537276
0.565502	0.644762
0.718341	0.715473
0.810044	0.786815
0.947598	0.893829
1.08515	0.964697
1.16157	1.07234
1.31441	1.14305
1.46725	1.21376
1.6048	1.28463
1.74236	1.39165
1.80349	1.4633
1.95633	1.49787
2.09389	1.56874
2.18559	1.67622
2.33843	1.71079
2.47598	1.78166
2.61354	1.88867
2.76638	1.92324
2.90393	1.99411
3.05677	2.10096
3.20961	2.13553
3.34716	2.2064
3.39301	2.27821
3.53057	2.31294
3.66812	2.34766
3.85153	2.49035
4.00437	2.52491
4.14192	2.55964
4.3559	2.702
4.50873	2.73657
6.41921	3.54817
6.57205	3.58273
