Adsorption isotherm of Ethene on CuBTC
DOI: 10.1021/Ie500310c
Adsorbate Ethene: InChIKey VGGSQFUCUMXWEO-UHFFFAOYSA-N
Temperature: 323 K
Tabular data in the source: 0
pressure (bar)	uptake (mmol/g)
0.116667	2.32732
0.320833	4.58866
1.09375	7.07684
1.89583	8.05669
2.39167	8.54617
2.84375	8.97029
3.31042	9.32876
4.2	9.68525
5.14792	9.91031
6.02292	10.1357
6.67917	10.4933
