Adsorption isotherm of Ethene on CuBTC
DOI: 10.1021/Ie500310c
Adsorbate Ethene: InChIKey VGGSQFUCUMXWEO-UHFFFAOYSA-N
Temperature: 295 K
Tabular data in the source: 0
pressure (bar)	uptake (mmol/g)
0.0152838	0.469722
0.0458515	1.08386
0.0764192	3.28837
0.19869	4.87747
0.519651	6.57295
0.779476	7.25701
0.855895	7.58152
