Adsorption isotherm of Ethane on CuBTC
DOI: 10.1021/Ie500310c
Adsorbate Ethane: InChIKey OTMSDBZUPAUEDD-UHFFFAOYSA-N
Temperature: 348 K
Tabular data in the source: 0
pressure (bar)	uptake (mmol/g)
0.101273	0.5
0.173849	0.710526
0.246382	0.947368
0.33354	1.15789
0.435325	1.34211
0.522484	1.55263
0.624312	1.71053
0.711471	1.92105
0.769548	2.07895
0.871418	2.21053
0.973203	2.39474
1.06036	2.60526
1.16219	2.76316
1.26397	2.94737
1.35109	3.18421
1.45296	3.31579
1.55475	3.5
1.65657	3.65789
1.75836	3.84211
1.86014	4.02632
1.96193	4.21053
2.07834	4.36842
2.18021	4.5
2.29662	4.65789
2.39849	4.78947
2.5149	4.94737
2.63135	5.07895
2.74776	5.23684
2.84963	5.36842
2.9515	5.5
3.06796	5.63158
3.21362	5.73684
3.33007	5.86842
3.4612	5.94737
3.59223	6.07895
3.70873	6.18421
3.82523	6.28947
3.92705	6.44737
4.05826	6.47368
4.18938	6.55263
4.3205	6.63158
4.45163	6.71053
4.58275	6.78947
4.71387	6.86842
4.83041	6.94737
5.06353	7.07895
5.19469	7.13158
5.32586	7.18421
5.38415	7.21053
5.51531	7.26316
5.55902	7.28947
5.70481	7.31579
5.82135	7.39474
5.9671	7.44737
6.0691	7.5
6.21489	7.52632
6.31693	7.55263
6.44809	7.60526
6.59388	7.63158
6.72505	7.68421
