Adsorption isotherm of N-propane on CuBTC
DOI: 10.1021/Ie500310c
Adsorbate N-propane: InChIKey ATUOYWHBWRKTHZ-UHFFFAOYSA-N
Temperature: 423 K
Tabular data in the source: 0
pressure (bar)	uptake (mmol/g)
0.0179997	-0.0632042
0.0538878	0.0826411
0.0898102	0.144716
0.205739	0.351712
0.290596	0.622186
0.341207	0.725839
0.401596	0.892113
0.496283	1.09955
0.586059	1.32804
0.700319	1.61884
0.808061	1.86789
0.9093	2.03331
0.994157	2.30379
