Adsorption isotherm of N-propane on CuBTC
DOI: 10.1021/Ie500310c
Adsorbate N-propane: InChIKey ATUOYWHBWRKTHZ-UHFFFAOYSA-N
Temperature: 318 K
Tabular data in the source: 0
pressure (bar)	uptake (mmol/g)
0.0442421	2.14814
0.0482679	2.35874
0.0542752	2.54832
0.0582958	2.73786
0.0623216	2.94846
0.0663474	3.15906
0.0703733	3.36966
0.0763806	3.55923
0.0804012	3.74878
0.084427	3.95938
0.0884528	4.16997
0.0924786	4.38057
0.098486	4.57015
0.102507	4.75969
0.108519	4.97032
0.114526	5.1599
0.122521	5.34952
0.128528	5.5391
0.13454	5.74973
0.142535	5.93934
0.148542	6.12892
0.156536	6.31854
0.168493	6.46611
0.180461	6.6558
0.192418	6.80338
0.204375	6.95095
0.218319	7.09857
0.234245	7.22516
0.25017	7.35176
0.268072	7.43628
0.283987	7.52077
0.303875	7.60533
0.321772	7.6688
0.341655	7.73231
0.359552	7.79578
0.377448	7.85925
0.397332	7.92276
0.415218	7.94413
0.433109	7.98655
0.452982	8.00795
0.47286	8.0504
0.490746	8.07177
0.510619	8.09317
0.530497	8.13562
0.548383	8.15699
0.566275	8.19941
0.590126	8.24193
0.609999	8.26333
0.629872	8.28473
0.647758	8.3061
0.667631	8.3275
0.687504	8.3489
0.705395	8.39132
0.725263	8.39167
0.743149	8.41304
0.763027	8.45549
0.7829	8.47689
0.802768	8.47724
0.820654	8.49861
0.840521	8.49896
0.860394	8.52036
0.880262	8.52071
0.900129	8.52105
0.920002	8.54246
0.93987	8.5428
0.959743	8.56421
0.977629	8.58557
0.997497	8.58592
1.01737	8.60732
1.03724	8.60767
1.05711	8.62907
1.07698	8.65047
1.09685	8.65082
1.11672	8.67222
1.13659	8.67257
1.15448	8.69394
1.17434	8.69429
1.19422	8.71569
