Adsorption isotherm of N-propane on CuBTC
DOI: 10.1021/Ie500310c
Adsorbate N-propane: InChIKey ATUOYWHBWRKTHZ-UHFFFAOYSA-N
Temperature: 323 K
Tabular data in the source: 0
pressure (bar)	uptake (mmol/g)
0.0111386	0.732751
0.015955	0.942074
0.0224226	1.10948
0.0272476	1.29786
0.0353406	1.48617
0.0401656	1.67455
0.0449821	1.88387
0.0514496	2.05128
0.0579001	2.26057
0.0627337	2.42801
0.0675501	2.63733
0.0723751	2.82571
0.0788341	3.01406
0.0836591	3.20244
0.0884756	3.41176
0.0949432	3.57916
0.0997596	3.78849
0.107861	3.95586
0.112678	4.16518
0.119137	4.35353
0.128812	4.66746
0.13528	4.83486
0.140096	5.04419
0.144921	5.23257
0.154657	5.3999
0.164392	5.56724
0.172485	5.75555
0.18548	5.94376
0.195225	6.09015
0.20496	6.25749
0.217981	6.38287
0.229368	6.50829
0.242388	6.63367
0.253783	6.73814
0.270098	6.80063
0.283136	6.88412
0.29945	6.94661
0.31413	7.00913
0.328811	7.07165
0.343491	7.13417
0.358163	7.21763
0.374486	7.25917
0.387532	7.32173
0.403846	7.38421
0.418544	7.40485
0.434867	7.44639
0.45119	7.48793
0.465878	7.52951
0.482201	7.57105
0.495256	7.61266
0.511579	7.65421
0.527911	7.67481
0.5426	7.71639
0.558931	7.73699
0.57362	7.77856
0.589943	7.82011
0.60464	7.84074
0.620972	7.86134
0.637303	7.88194
0.653635	7.90254
0.668332	7.92318
0.684663	7.94378
0.699361	7.96441
0.715692	7.98501
0.732032	7.98467
0.748364	8.00527
0.763061	8.0259
0.779393	8.0465
0.795724	8.06711
0.812064	8.06676
0.828404	8.06642
0.844744	8.06608
0.861084	8.06574
0.877424	8.06539
0.893764	8.06505
0.910104	8.06471
0.926444	8.06437
0.942784	8.06403
0.959133	8.04274
0.975473	8.0424
0.991813	8.04206
