Adsorption isotherm of Propene on CuBTC
DOI: 10.1021/Ie500310c
Adsorbate Propene: InChIKey QQONPFPTGQHPMA-UHFFFAOYSA-N
Temperature: 333 K
Tabular data in the source: 0
pressure (bar)	uptake (mmol/g)
0.0145681	1.80067
0.0235357	2.88598
0.0415859	4.04425
0.0585502	4.7582
0.0812133	5.32331
0.0993532	5.69144
0.122028	6.15777
0.14017	6.50121
0.162867	6.77002
0.184433	6.98958
0.204868	7.15989
0.226437	7.35476
0.252554	7.52438
0.269586	7.64573
0.303649	7.88844
0.347954	8.00643
0.384304	8.12539
0.426339	8.21897
0.466106	8.26344
0.504732	8.35744
0.547906	8.42618
0.586537	8.4708
0.626302	8.53996
