Adsorption isotherm of N-propane on CuBTC
DOI: 10.1021/Ie500310c
Adsorbate N-propane: InChIKey ATUOYWHBWRKTHZ-UHFFFAOYSA-N
Temperature: 353 K
Tabular data in the source: 0
pressure (bar)	uptake (mmol/g)
0.0185714	0.324263
0.0385714	0.587825
0.0628571	0.871718
0.0914286	1.25691
0.0985714	1.419
0.121429	1.70286
0.137143	1.90561
0.154286	2.14887
0.18	2.47328
0.198571	2.71657
0.22	3.06113
0.238571	3.36515
0.258571	3.64896
0.284286	3.83167
0.307143	4.15602
0.332857	4.37921
0.348571	4.52123
0.385714	4.84586
0.422857	5.1705
0.462857	5.43447
0.505714	5.67825
0.545714	5.80052
0.585714	5.94303
0.621429	6.1057
0.664286	6.20778
0.707143	6.35035
0.745714	6.41186
0.787143	6.47342
0.828571	6.63621
0.87	6.65729
0.912857	6.75937
0.95	6.82085
0.995714	6.8825
