Adsorption isotherm of N-propane on CuBTC
DOI: 10.1021/Ie500310c
Adsorbate N-propane: InChIKey ATUOYWHBWRKTHZ-UHFFFAOYSA-N
Temperature: 313 K
Tabular data in the source: 0
pressure (bar)	uptake (mmol/g)
0.0142857	1.05292
0.0171429	1.21492
0.0342857	2.24766
0.0571429	3.48294
0.0742857	4.63713
0.105714	5.73088
0.124286	6.1766
0.152857	6.46058
0.171429	6.70388
0.194286	6.9675
0.211429	7.04881
0.225714	7.10983
0.261429	7.31298
0.304286	7.49604
0.347143	7.63861
0.388571	7.78115
0.42	7.84251
0.46	7.92429
0.507143	7.98597
0.544286	8.0677
0.588571	8.14957
0.622857	8.21099
0.668571	8.23216
0.708571	8.31394
0.747143	8.35521
0.787143	8.37626
0.83	8.41761
0.87	8.47915
0.911429	8.50023
0.95	8.5415
0.988571	8.60301
