Adsorption isotherm of Ethene on CuBTC
DOI: 10.1021/Ie500310c
Adsorbate Ethene: InChIKey VGGSQFUCUMXWEO-UHFFFAOYSA-N
Temperature: 348 K
Tabular data in the source: 0
pressure (bar)	uptake (mmol/g)
0.137555	1.29978
0.351528	2.67107
0.611354	3.93345
1.10044	5.19346
1.69651	6.1632
2.30786	6.80749
2.87336	7.30768
3.72926	7.87715
4.58515	8.2659
5.41048	8.54654
5.99127	8.54054
