Adsorption isotherm of N-propane on CuBTC
DOI: 10.1021/Ie500310c
Adsorbate N-propane: InChIKey ATUOYWHBWRKTHZ-UHFFFAOYSA-N
Temperature: 333 K
Tabular data in the source: 0
pressure (bar)	uptake (mmol/g)
0.15	4.11235
0.157143	4.27444
0.165714	4.47704
0.171429	4.57837
0.242857	5.81463
0.25	5.89575
0.287143	6.34184
0.295714	6.44323
0.338571	6.68702
0.351429	6.70752
0.41	7.01235
0.424286	7.03288
0.43	7.09372
0.444286	7.09401
0.47	7.19575
0.484286	7.21628
0.51	7.33826
0.524286	7.31831
0.538571	7.37932
0.552857	7.44034
0.565714	7.50133
0.567143	7.46087
0.58	7.48138
0.614286	7.60353
0.628571	7.60382
0.665714	7.78676
0.675714	7.70599
0.715714	7.78777
0.73	7.8083
0.754286	7.86952
0.768571	7.86981
0.782857	7.89034
0.795714	7.95133
0.81	7.95162
0.838571	8.01293
0.852857	8.01322
0.877143	8.03395
0.891429	8.03424
0.918571	8.05503
0.932857	8.05532
0.967143	8.11674
0.981429	8.11703
