Adsorption isotherm of Ethane on CuBTC
DOI: 10.1021/Ie500310c
Adsorbate Ethane: InChIKey OTMSDBZUPAUEDD-UHFFFAOYSA-N
Temperature: 373 K
Tabular data in the source: 0
pressure (bar)	uptake (mmol/g)
5.68434e-16	0
0.308629	0.67481
0.71964	1.27022
1.08651	1.73568
1.57074	2.33027
2.08434	2.9767
2.61225	3.41427
3.16974	4.03413
4.02003	4.59853
4.87016	5.05859
5.79328	5.3874
6.65771	5.63861
