Adsorption isotherm of Ethene on CuBTC
DOI: 10.1021/Ie500310c
Adsorbate Ethene: InChIKey VGGSQFUCUMXWEO-UHFFFAOYSA-N
Temperature: 373 K
Tabular data in the source: 0
pressure (bar)	uptake (mmol/g)
0.244541	1.04567
0.504367	1.9466
0.79476	2.84721
1.20742	3.71042
1.77293	4.57205
2.33843	5.21681
2.91921	5.75299
3.72926	6.28679
4.631	6.71121
5.44105	7.10044
6.23581	7.48982
