Adsorption isotherm of N-propane on CuBTC
DOI: 10.1021/Ie500310c
Adsorbate N-propane: InChIKey ATUOYWHBWRKTHZ-UHFFFAOYSA-N
Temperature: 373 K
Tabular data in the source: 0
pressure (bar)	uptake (mmol/g)
0.0130378	0.0834966
0.0390791	0.33426
0.092813	0.793868
0.159576	1.35791
0.245862	2.13098
0.324028	2.77855
0.395668	3.40533
0.488532	4.07354
0.605958	4.61558
0.697333	4.9278
0.805049	5.23968
0.901361	5.46803
0.987912	5.59188
