Adsorption isotherm of Propene on CuBTC
DOI: 10.1021/Ie500310c
Adsorbate Propene: InChIKey QQONPFPTGQHPMA-UHFFFAOYSA-N
Temperature: 323 K
Tabular data in the source: 0
pressure (bar)	uptake (mmol/g)
0.00898161	0.961854
0.0112291	1.1838
0.0235946	2.36746
0.0258393	2.61409
0.0292092	2.95936
0.0325959	3.15647
0.0348406	3.40311
0.0370853	3.64974
0.0461118	4.21653
0.0494956	4.43833
0.0528795	4.66014
0.0573942	4.93119
0.0619173	5.12816
0.0653039	5.32527
0.0698214	5.57163
0.0754837	5.74377
0.0822823	5.91577
0.0890809	6.08777
0.0947404	6.2846
0.101542	6.43191
0.110619	6.55424
0.119696	6.67658
0.126506	6.74981
0.135586	6.84746
0.145802	6.94496
0.156018	7.04247
0.165095	7.1648
0.174175	7.26245
0.184391	7.35995
0.193471	7.4576
0.202551	7.55524
0.213909	7.60322
0.226403	7.65106
0.236625	7.69918
0.246847	7.7473
0.255932	7.79556
0.267293	7.81885
0.277512	7.89167
0.288873	7.91495
0.299095	7.96307
0.318402	8.05946
0.329763	8.08275
0.341124	8.10603
0.383151	8.27369
0.394515	8.27228
0.405876	8.29557
0.416097	8.34369
0.442226	8.41454
0.453589	8.41314
0.48199	8.4837
0.493354	8.4823
0.518346	8.55329
0.52971	8.55189
0.541068	8.59987
0.551293	8.6233
0.562657	8.62189
0.567197	8.67072
0.57856	8.66931
0.622868	8.76261
0.634234	8.73651
0.638777	8.76064
