Adsorption isotherm of N-propane on CuBTC
DOI: 10.1021/Ie500310c
Adsorbate N-propane: InChIKey ATUOYWHBWRKTHZ-UHFFFAOYSA-N
Temperature: 348 K
Tabular data in the source: 0
pressure (bar)	uptake (mmol/g)
0.0161946	0.355682
0.0340317	0.690387
0.0567281	1.1297
0.0826839	1.58989
0.102138	1.96645
0.131336	2.4894
0.184839	3.51445
0.314875	5.18712
0.389859	5.62534
0.453482	5.87532
0.548135	6.16653
0.647723	6.37387
0.778358	6.58056
0.864925	6.66251
0.99562	6.7226
