Adsorption isotherm of Ethene on CuBTC
DOI: 10.1021/Ie500310c
Adsorbate Ethene: InChIKey VGGSQFUCUMXWEO-UHFFFAOYSA-N
Temperature: 323 K
Tabular data in the source: 0
pressure (bar)	uptake (mmol/g)
-5.68434e-16	-0.0327869
0.175	2.78607
0.247917	3.67097
0.39375	4.91619
0.4375	5.24385
0.495833	5.57145
0.56875	5.8334
0.641667	6.06257
0.714583	6.32452
0.7875	6.58648
0.875	6.84836
0.947917	7.11031
1.225	7.69918
1.34167	7.86257
1.44375	8.0916
1.54583	8.22227
1.6625	8.38566
2.12917	8.94085
2.26042	9.03859
2.96042	9.62548
3.09167	9.72322
3.47083	9.95096
3.61667	9.98306
4.05417	10.2433
4.2	10.2754
4.40417	10.3728
4.55	10.4049
4.725	10.5025
4.87083	10.5346
5.425	10.7615
5.57083	10.7936
5.73125	10.8912
5.87708	10.9233
6.22708	11.02
6.37292	11.0193
6.51875	11.0514
6.66458	11.1163
6.81042	11.0829
