Adsorption isotherm of Ethane on CuBTC
DOI: 10.1021/Ie500310c
Adsorbate Ethane: InChIKey OTMSDBZUPAUEDD-UHFFFAOYSA-N
Temperature: 323 K
Tabular data in the source: 0
pressure (bar)	uptake (mmol/g)
0.236513	1.35388
0.560635	2.55025
1.16444	4.63046
1.85551	6.34447
2.45749	7.30296
3.49824	7.91741
4.02606	8.30281
4.87589	8.58027
5.82801	8.72615
6.76561	8.95045
