Adsorption isotherm of Ethene on CuBTC
DOI: 10.1021/Ie500310c
Adsorbate Ethene: InChIKey VGGSQFUCUMXWEO-UHFFFAOYSA-N
Temperature: 348 K
Tabular data in the source: 0
pressure (bar)	uptake (mmol/g)
0.183406	0.359552
0.305677	0.575157
0.427948	0.754617
0.565502	0.897775
0.687773	1.04109
0.840611	1.14795
0.962882	1.29126
1.10044	1.39827
1.23799	1.50529
1.36026	1.6486
1.5131	1.75546
1.65066	1.86247
1.80349	1.96933
1.94105	2.11248
2.0786	2.2195
2.21616	2.32651
2.35371	2.43352
2.50655	2.54038
2.6441	2.64739
2.79694	2.7181
2.9345	2.86126
3.08734	2.93197
3.22489	3.03899
3.36245	3.146
3.5	3.21687
3.65284	3.32372
3.79039	3.43074
3.92795	3.53775
4.08079	3.60846
4.21834	3.67933
4.3559	3.78634
4.50873	3.8932
5.1048	4.24849
5.25764	4.28305
5.3952	4.35392
5.53275	4.42479
5.68559	4.4955
5.82314	4.60251
5.97598	4.63708
6.11354	4.74409
6.26638	4.81481
6.40393	4.84953
6.55677	4.92024
6.70961	4.99095
6.84716	5.06182
