Adsorption isotherm of N-propane on CuBTC
DOI: 10.1021/Ie500310c
Adsorbate N-propane: InChIKey ATUOYWHBWRKTHZ-UHFFFAOYSA-N
Temperature: 333 K
Tabular data in the source: 0
pressure (bar)	uptake (mmol/g)
0.0185714	0.607663
0.0414286	1.07371
0.0557143	1.55983
0.0814286	2.12715
0.101429	2.63363
0.117143	3.18051
0.14	3.74777
0.165714	4.23412
0.18	4.72024
0.208571	5.10544
0.228571	5.42973
0.255714	5.69344
0.275714	5.83554
0.311429	6.13991
0.345714	6.34303
0.385714	6.4653
0.421429	6.62796
0.464286	6.75029
0.507143	6.9131
0.544286	6.99482
0.584286	7.09685
0.624286	7.09766
0.668571	7.19977
0.705714	7.30174
0.748571	7.32285
0.791429	7.38444
0.824286	7.44584
0.87	7.50749
0.912857	7.5286
0.952857	7.5699
0.988571	7.57062
