Adsorption isotherm of N-propane on CuBTC
DOI: 10.1021/Ie500310c
Adsorbate N-propane: InChIKey ATUOYWHBWRKTHZ-UHFFFAOYSA-N
Temperature: 373 K
Tabular data in the source: 0
pressure (bar)	uptake (mmol/g)
0.0243646	0.355511
0.0357427	0.501869
0.0422359	0.606445
0.0552566	0.731827
0.0682773	0.857209
0.0813065	0.961648
0.0959783	1.04511
0.108999	1.17049
0.122037	1.25399
0.136709	1.33745
0.149729	1.46283
0.159508	1.52546
0.174171	1.62986
0.1872	1.7343
0.201872	1.81776
0.214901	1.9222
0.22793	2.02664
0.242602	2.1101
0.253997	2.21458
0.267035	2.29807
0.281698	2.40248
0.294728	2.50692
0.309399	2.59038
0.319152	2.71583
0.330564	2.77842
0.341985	2.82006
0.356657	2.90353
0.369686	3.00796
0.382716	3.1124
0.397387	3.19587
0.412059	3.27933
0.426731	3.36279
0.441403	3.44625
0.456083	3.50877
0.469121	3.59227
0.485427	3.6757
0.498464	3.75919
0.513136	3.84266
0.526174	3.92615
0.540863	3.96773
0.553892	4.07217
0.570206	4.13466
0.583244	4.21815
0.597916	4.30161
0.612588	4.38508
0.628902	4.44756
0.643582	4.51008
0.658254	4.59354
0.671301	4.6561
0.687606	4.73953
0.702287	4.80205
0.71861	4.84359
0.73329	4.90611
0.749613	4.94765
0.764293	5.01017
0.780616	5.05171
0.796939	5.09326
0.805058	5.21874
0.818147	5.17658
0.832836	5.21816
0.84915	5.28065
0.863839	5.32222
0.880162	5.36377
0.89811	5.42622
0.914433	5.46776
0.929122	5.50934
0.945445	5.55088
0.960134	5.59246
0.976457	5.634
0.987912	5.59188
