Adsorption isotherm of Propene on CuBTC
DOI: 10.1021/Ie500310c
Adsorbate Propene: InChIKey QQONPFPTGQHPMA-UHFFFAOYSA-N
Temperature: 313 K
Tabular data in the source: 0
pressure (bar)	uptake (mmol/g)
0.00898161	0.961854
0.0112291	1.1838
0.0335695	4.58845
0.0358142	4.83508
0.0426184	4.9577
0.0629105	6.38729
0.0674336	6.58427
0.0901051	7.0753
0.0980401	7.24716
0.151385	7.80847
0.160471	7.85673
0.1673	7.75712
0.219512	8.29389
0.228612	8.21869
0.299036	8.4816
0.309261	8.50503
0.344475	8.62414
0.355838	8.62274
0.379694	8.69386
0.388779	8.74213
0.436493	8.85969
0.44786	8.8336
0.459224	8.83219
0.491031	8.92703
0.502395	8.92563
0.543307	8.89589
0.551251	8.99367
0.578518	9.03969
0.589888	8.9889
