Adsorption isotherm of Propene on CuBTC
DOI: 10.1021/Ie500310c
Adsorbate Propene: InChIKey QQONPFPTGQHPMA-UHFFFAOYSA-N
Temperature: 318 K
Tabular data in the source: 0
pressure (bar)	uptake (mmol/g)
0.0402746	4.48062
0.0440058	4.70478
0.0477276	4.95381
0.0514493	5.20284
0.05519	5.40213
0.0589118	5.65116
0.0645513	5.87546
0.0682826	6.09962
0.0739127	6.3488
0.0833879	6.52364
0.0928537	6.72335
0.100411	6.92292
0.113703	7.09804
0.128922	7.22355
0.142224	7.3738
0.157443	7.49931
0.170744	7.64956
0.184046	7.7998
0.197357	7.92518
0.214503	8.00108
0.229732	8.10172
0.246879	8.17763
0.265943	8.2288
0.28309	8.30471
0.298328	8.38047
0.317393	8.43165
0.334549	8.48268
0.353613	8.53385
0.370769	8.58488
0.389834	8.63606
0.408907	8.66236
0.426064	8.71339
0.445138	8.73969
0.464211	8.76599
0.483285	8.79228
0.498533	8.84317
0.517607	8.86947
0.536681	8.89577
0.555755	8.92207
0.572921	8.94823
0.591985	8.9994
0.611068	9.00083
0.632041	9.05214
0.651115	9.07844
0.670189	9.10474
0.689272	9.10616
0.706429	9.1572
0.725512	9.15862
0.744586	9.18492
0.76366	9.21122
0.782743	9.21264
0.799909	9.2388
0.818983	9.2651
0.838066	9.26652
0.85714	9.29282
0.874296	9.34385
0.89338	9.34528
0.912463	9.3467
0.931528	9.39788
0.950611	9.3993
0.967777	9.42546
0.98686	9.42688
