Adsorption isotherm of Propene on CuBTC
DOI: 10.1021/Ie500310c
Adsorbate Propene: InChIKey QQONPFPTGQHPMA-UHFFFAOYSA-N
Temperature: 353 K
Tabular data in the source: 0
pressure (bar)	uptake (mmol/g)
0.00453429	0.0982056
0.0294308	1.00871
0.078124	2.50887
0.0973723	3.12378
0.131382	3.83563
0.154062	4.25258
0.165398	4.4981
0.201681	5.20967
0.273197	5.86751
0.332244	6.25528
0.398109	6.64221
0.467403	6.85588
0.537841	6.99533
0.60259	7.20956
0.642355	7.27872
