Adsorption isotherm of Propene on CuBTC
DOI: 10.1021/Ie500310c
Adsorbate Propene: InChIKey QQONPFPTGQHPMA-UHFFFAOYSA-N
Temperature: 353 K
Tabular data in the source: 0
pressure (bar)	uptake (mmol/g)
0.0262326	1.27061
0.0356129	1.6942
0.0564623	2.06889
0.0754412	2.34394
0.100145	2.61941
0.134344	3.01998
0.164792	3.24613
0.202873	3.47285
0.237166	3.62466
0.269532	3.82608
0.301926	3.95288
0.332431	4.02978
0.366734	4.15672
0.401037	4.28366
0.435368	4.33597
0.465863	4.43775
0.500185	4.51494
0.532608	4.56711
0.568838	4.64444
0.601261	4.69661
0.631785	4.72377
0.668024	4.77622
0.696649	4.77836
0.732889	4.83081
0.76722	4.88313
0.799634	4.96017
0.833965	5.01248
0.866397	5.03978
0.902656	5.04249
0.931262	5.09437
0.965621	5.07206
0.992329	5.09893
