Adsorption isotherm of Ethane on CuBTC
DOI: 10.1021/Ie500310c
Adsorbate Ethane: InChIKey OTMSDBZUPAUEDD-UHFFFAOYSA-N
Temperature: 295 K
Tabular data in the source: 0
pressure (bar)	uptake (mmol/g)
0.000509359	0.313038
0.0599771	0.860199
0.0901991	1.43377
0.179549	2.34582
0.26873	3.15352
0.387325	4.03915
0.520693	5.00287
0.727111	5.86144
0.933359	6.61565
