Adsorption isotherm of Ethane on CuBTC
DOI: 10.1021/Ie500310c
Adsorbate Ethane: InChIKey OTMSDBZUPAUEDD-UHFFFAOYSA-N
Temperature: 323 K
Tabular data in the source: 0
pressure (bar)	uptake (mmol/g)
0.0716801	0.763158
0.101273	0.5
0.144256	0.973684
0.173849	0.710526
0.231159	1.34211
0.246382	0.947368
0.303734	1.55263
0.361726	1.76316
0.9851	4.05263
1.05768	4.26316
1.21737	4.71053
1.28994	4.92105
1.34798	5.10526
1.42055	5.31579
1.47867	5.44737
1.56587	5.63158
1.59487	5.73684
1.69666	5.92105
1.78386	6.10526
1.87102	6.31579
1.97284	6.47368
2.0893	6.60526
2.29308	6.84211
2.39495	6.97368
2.65698	7.26316
2.77343	7.39474
3.45804	7.89474
3.58916	7.97368
4.94452	8.52632
5.09031	8.55263
5.76076	8.78947
5.83367	8.78947
