Adsorption isotherm of N-propane on CuBTC
DOI: 10.1021/Ie500310c
Adsorbate N-propane: InChIKey ATUOYWHBWRKTHZ-UHFFFAOYSA-N
Temperature: 353 K
Tabular data in the source: 0
pressure (bar)	uptake (mmol/g)
0.0180273	0.58979
0.0279611	0.589964
0.0539093	1.07463
0.0658717	1.24326
0.149577	2.29736
0.161524	2.40283
0.195424	2.90869
0.207366	2.99311
0.255195	3.58342
0.271104	3.64686
0.326938	4.46889
0.342858	4.57444
0.358757	4.59577
0.392652	5.08057
0.406575	5.14398
0.420483	5.14422
0.472238	5.54513
0.490135	5.6086
0.529933	5.86193
0.547829	5.9254
0.565731	6.00993
0.597577	6.24206
0.61745	6.26346
0.635346	6.32694
0.655224	6.36939
0.679091	6.47507
0.698964	6.49647
0.716856	6.53889
0.746689	6.66573
0.766561	6.68713
0.784453	6.72955
0.804331	6.77201
0.826206	6.8566
0.846074	6.85695
0.865952	6.8994
0.883843	6.94182
0.903716	6.96322
0.921607	7.00564
0.941491	7.06915
0.961358	7.0695
0.981236	7.11195
0.999123	7.13332
1.019	7.17577
1.03887	7.19717
1.08856	7.28226
1.10843	7.2826
1.12831	7.32506
1.1462	7.34642
1.16607	7.36783
1.18594	7.38923
