Adsorption isotherm of Propene on CuBTC
DOI: 10.1021/Ie500310c
Adsorbate Propene: InChIKey QQONPFPTGQHPMA-UHFFFAOYSA-N
Temperature: 373 K
Tabular data in the source: 0
pressure (bar)	uptake (mmol/g)
0.0132576	0.299839
0.030303	1.07572
0.0662879	2.10086
0.126894	3.27458
0.193182	4.14703
0.282197	4.91749
0.352273	5.38855
0.416667	5.73468
0.477273	6.03096
0.537879	6.2771
0.602273	6.49788
0.698864	6.71624
0.795455	6.9346
0.907197	7.07662
0.994318	7.19541
