Adsorption isotherm of Propene on CuBTC
DOI: 10.1021/Ie500310c
Adsorbate Propene: InChIKey QQONPFPTGQHPMA-UHFFFAOYSA-N
Temperature: 313 K
Tabular data in the source: 0
pressure (bar)	uptake (mmol/g)
0.002197	0.666395
0.00875714	2.93719
0.0120765	3.7269
0.0210385	4.8616
0.0368243	5.94607
0.0571865	6.75837
0.0798384	7.42224
0.10139	7.76526
0.125223	8.03392
0.146789	8.25348
0.16723	8.37442
0.187674	8.47066
0.228561	8.66314
0.264914	8.75742
0.305804	8.92521
0.343296	8.99465
0.385336	9.03885
0.423968	9.08346
0.466005	9.15235
0.504637	9.19696
0.543271	9.21688
0.585314	9.23638
0.630764	9.28015
