Adsorption isotherm of Propene on CuBTC (Rubes)
DOI: 10.1021/Ie500310c
Adsorbate Propene: InChIKey QQONPFPTGQHPMA-UHFFFAOYSA-N
Temperature: 303 K
Tabular data in the source: 0
pressure (bar)	uptake (mmol/g)
-0.00117566	0.345824
0.00219139	0.715779
0.00301351	3.48111
0.00314258	2.34529
0.00328568	1.08601
0.0042481	2.61676
0.00436594	1.57971
0.00534519	2.9623
0.00546585	1.90056
0.00638898	3.77699
0.00966905	4.91239
0.0119081	5.20841
0.0254072	6.41662
0.0310358	6.88506
0.0411959	7.4764
0.0547847	7.89447
0.0695071	8.3371
0.0921898	8.72936
0.12171	8.94794
0.148961	9.1421
0.177357	9.26205
0.214837	9.43027
0.259148	9.49887
0.368223	9.63355
0.521604	9.88622
0.642057	9.89604
