Adsorption isotherm of N-propane on CuBTC
DOI: 10.1021/Ie500310c
Adsorbate N-propane: InChIKey ATUOYWHBWRKTHZ-UHFFFAOYSA-N
Temperature: 353 K
Tabular data in the source: 0
pressure (bar)	uptake (mmol/g)
0.0157143	0.445662
0.0228571	0.567264
0.0542857	1.07397
0.112857	1.74318
0.15	2.27024
0.198571	2.919
0.252857	3.60836
0.321429	4.39922
0.397143	5.08901
0.481429	5.59679
0.552857	5.96261
0.604286	6.26729
0.617143	6.2878
0.664286	6.41021
0.732857	6.61403
0.808571	6.79774
0.874286	6.92053
0.944286	7.06365
0.995714	7.16591
