Adsorption isotherm of Propene on CuBTC
DOI: 10.1021/Ie500310c
Adsorbate Propene: InChIKey QQONPFPTGQHPMA-UHFFFAOYSA-N
Temperature: 303 K
Tabular data in the source: 0
pressure (bar)	uptake (mmol/g)
0.00862246	4.12239
0.0108475	4.54187
0.0163835	5.82514
0.0367177	6.88436
0.0570827	7.67197
0.0865669	8.21153
0.100184	8.38269
0.122881	8.6515
0.145594	8.77215
0.166032	8.91777
0.206928	9.03618
0.244417	9.13032
0.285313	9.24873
0.323952	9.21927
0.363709	9.36251
0.403479	9.38229
0.444386	9.40193
0.48529	9.44626
0.520515	9.4666
0.562553	9.53549
0.603457	9.57982
0.644367	9.57477
