Adsorption isotherm of Propene on CuBTC (Lamia)
DOI: 10.1021/Ie500310c
Adsorbate Propene: InChIKey QQONPFPTGQHPMA-UHFFFAOYSA-N
Temperature: 323 K
Tabular data in the source: 0
pressure (bar)	uptake (mmol/g)
0.0122476	2.22071
0.0290885	4.0211
0.0573016	5.74601
0.0912583	6.92701
0.137763	7.6867
0.186577	8.12511
0.256999	8.41272
0.341065	8.62456
0.402419	8.71575
0.519452	8.82476
0.6399	8.88396
