Adsorption isotherm of N-propane on CuBTC
DOI: 10.1021/Ie500310c
Adsorbate N-propane: InChIKey ATUOYWHBWRKTHZ-UHFFFAOYSA-N
Temperature: 303 K
Tabular data in the source: 0
pressure (bar)	uptake (mmol/g)
0.0671429	5.305
0.0714286	5.48728
0.0742857	5.68976
0.14	7.59393
0.15	7.73583
0.161429	7.81703
0.172857	7.87799
0.185714	7.93898
0.2	8.02024
0.212857	8.08123
0.274286	8.32539
0.287143	8.38638
0.302857	8.46767
0.317143	8.46796
0.331429	8.48849
0.345714	8.48878
0.36	8.50931
0.372857	8.52981
0.392857	8.48973
0.404286	8.55069
0.418571	8.57123
0.431429	8.59173
0.445714	8.59202
0.46	8.61255
0.474286	8.63308
0.488571	8.65361
0.511429	8.63383
0.524286	8.69482
0.538571	8.69511
0.551429	8.71562
0.565714	8.73615
0.58	8.73644
0.594286	8.75697
0.608571	8.75726
0.622857	8.77779
0.637143	8.77808
0.651429	8.77837
0.664286	8.79887
0.678571	8.8194
0.692857	8.81969
0.71	8.84028
0.724286	8.84057
0.738571	8.84086
0.747143	8.84104
0.761429	8.86157
0.775714	8.86186
0.791429	8.86217
0.805714	8.88271
0.82	8.90324
0.834286	8.90353
0.848571	8.90382
0.862857	8.90411
0.887143	8.92484
0.901429	8.92513
0.918571	8.86475
0.93	8.92571
0.941429	8.9057
0.951429	8.86541
0.962857	8.94662
0.977143	8.94691
