Adsorption isotherm of Ethane on CuBTC
DOI: 10.1021/Ie500310c
Adsorbate Ethane: InChIKey OTMSDBZUPAUEDD-UHFFFAOYSA-N
Temperature: 295 K
Tabular data in the source: 0
pressure (bar)	uptake (mmol/g)
0.146138	1.61576
0.189979	1.85005
0.23382	2.29304
0.263048	2.55358
0.292276	2.78804
0.336117	3.20494
0.379958	3.43923
0.394572	3.69994
0.438413	4.06466
0.482255	4.29896
0.511482	4.5595
0.613779	5.44531
0.65762	5.6796
0.701461	5.9139
0.745303	6.09602
0.77453	6.35656
0.832985	6.5646
0.876827	6.82498
0.949896	7.03286
1.00835	7.2409
