Adsorption isotherm of Propene on CuBTC
DOI: 10.1021/Ie500310c
Adsorbate Propene: InChIKey QQONPFPTGQHPMA-UHFFFAOYSA-N
Temperature: 348 K
Tabular data in the source: 0
pressure (bar)	uptake (mmol/g)
0.0284091	1.42683
0.0473485	2.65382
0.0814394	3.87967
0.125	5.05467
0.176136	5.7277
0.234848	6.37509
0.333333	7.06964
0.397727	7.36563
0.507576	7.70834
0.596591	7.87714
0.700758	8.06986
0.801136	8.13752
0.903409	8.20504
0.988636	8.24877
