Adsorption isotherm of Ethene on CuBTC
DOI: 10.1021/Ie500310c
Adsorbate Ethene: InChIKey VGGSQFUCUMXWEO-UHFFFAOYSA-N
Temperature: 373 K
Tabular data in the source: 0
pressure (bar)	uptake (mmol/g)
-5.68434e-16	-0.0327869
0.21875	0.982582
0.510417	1.96482
0.772917	2.81605
1.23958	3.76469
1.77917	4.58183
2.3625	5.23484
2.93125	5.78955
3.74792	6.3431
4.65208	6.7651
5.48333	7.12186
6.27083	7.5444
