Adsorption isotherm of N-propane on CuBTC
DOI: 10.1021/Ie500310c
Adsorbate N-propane: InChIKey ATUOYWHBWRKTHZ-UHFFFAOYSA-N
Temperature: 323 K
Tabular data in the source: 0
pressure (bar)	uptake (mmol/g)
0.0285714	1.33661
0.0328571	1.51888
0.0414286	1.74173
0.0471429	1.92403
0.0528571	2.08609
0.0642857	2.49118
0.07	2.67348
0.0742857	2.85575
0.0785714	3.03803
0.0842857	3.28106
0.09	3.44312
0.0957143	3.62542
0.101429	3.80772
0.105714	4.01024
0.111429	4.15205
0.117143	4.33436
0.121429	4.49639
0.13	4.75972
0.135714	4.94202
0.141429	5.10408
0.148571	5.36738
0.158571	5.50928
0.167143	5.63091
0.188571	6.09693
0.2	6.15789
0.208571	6.32001
0.221429	6.44173
0.232857	6.56342
0.244286	6.70535
0.255714	6.8068
0.268571	6.78681
0.278571	6.88823
0.291429	6.96946
0.305714	6.96975
0.314286	7.07114
0.328571	7.11191
0.34	7.17287
0.344286	7.15272
0.355714	7.23392
0.368571	7.29491
0.381429	7.29517
0.392857	7.33589
0.402857	7.41706
0.418571	7.37689
0.43	7.43785
0.44	7.51903
0.454286	7.53956
0.464286	7.47903
0.472857	7.58042
0.487143	7.6212
0.505714	7.60133
0.515714	7.6825
0.528571	7.72325
0.538571	7.70321
0.542857	7.76403
0.557143	7.78456
0.57	7.8253
0.58	7.74453
0.59	7.86619
0.604286	7.90697
0.618571	7.90726
0.627143	7.82646
0.634286	7.92782
0.648571	7.94835
0.662857	7.94864
0.675714	7.98939
0.69	7.98968
0.701429	7.96966
0.715714	7.94971
0.725714	8.03088
0.738571	8.07163
0.754286	8.07195
0.768571	8.09248
0.782857	8.11301
0.797143	8.1133
0.811429	8.11359
0.835714	8.11408
0.85	8.15486
0.877143	8.15541
0.891429	8.1557
0.918571	8.17649
0.932857	8.17678
0.955714	8.17724
0.97	8.19777
0.984286	8.19806
