Adsorption isotherm of N-propane on CuBTC
DOI: 10.1021/Ie500310c
Adsorbate N-propane: InChIKey ATUOYWHBWRKTHZ-UHFFFAOYSA-N
Temperature: 348 K
Tabular data in the source: 0
pressure (bar)	uptake (mmol/g)
0.0177601	0.523188
0.0242277	0.690592
0.0339718	0.836985
0.0420734	1.00435
0.0501835	1.15078
0.0615616	1.29714
0.0696803	1.42262
0.0842922	1.65268
0.0956789	1.7781
0.110299	1.98722
0.120035	2.15455
0.129788	2.28
0.139549	2.38451
0.149276	2.57279
0.15902	2.71918
0.170398	2.86554
0.181776	3.0119
0.191512	3.17924
0.20289	3.32559
0.214268	3.47195
0.224012	3.61835
0.235399	3.74376
0.245134	3.9111
0.258164	4.01554
0.269542	4.16189
0.287413	4.41283
0.297157	4.55922
0.310186	4.66366
0.323207	4.78904
0.347632	4.99796
0.359035	5.08149
0.372056	5.20687
0.381809	5.33232
0.394846	5.41581
0.40951	5.52022
0.425807	5.62459
0.438862	5.6662
0.481243	5.91662
0.494281	6.00012
0.52691	6.12509
0.543241	6.14569
0.585665	6.2914
0.601997	6.312
0.70481	6.62398
0.721142	6.64458
0.752145	6.74865
0.768477	6.76925
0.820705	6.91475
0.837036	6.93535
0.843564	6.95616
0.859895	6.97676
0.884379	7.03907
0.900711	7.05967
0.917042	7.08027
0.933382	7.07993
0.93991	7.10073
0.95625	7.10039
0.972581	7.12099
