Adsorption isotherm of N-propane on CuBTC
DOI: 10.1021/Ie500310c
Adsorbate N-propane: InChIKey ATUOYWHBWRKTHZ-UHFFFAOYSA-N
Temperature: 323 K
Tabular data in the source: 0
pressure (bar)	uptake (mmol/g)
0.0228571	0.891151
0.0357143	1.55943
0.06	2.30891
0.0828571	3.32152
0.1	4.11134
0.121429	4.92149
0.144286	5.38754
0.168571	5.83337
0.195714	6.13757
0.215714	6.38088
0.24	6.56356
0.271429	6.80711
0.304286	6.98997
0.35	7.17308
0.387143	7.27504
0.422857	7.35674
0.465714	7.47906
0.508571	7.58115
0.545714	7.62238
0.587143	7.74468
0.634286	7.80636
0.665714	7.807
0.708571	7.90908
0.747143	7.99083
0.788571	7.99167
0.83	8.07348
0.868571	8.05402
0.912857	8.13589
0.945714	8.17704
0.988571	8.21839
