Adsorption isotherm of Propene on CuBTC
DOI: 10.1021/Ie500310c
Adsorbate Propene: InChIKey QQONPFPTGQHPMA-UHFFFAOYSA-N
Temperature: 423 K
Tabular data in the source: 0
pressure (bar)	uptake (mmol/g)
0.0493724	4.93724
0.066466	0.248055
0.0759694	0.322996
0.0930629	0.397555
0.110156	0.472115
0.134856	0.621711
0.153842	0.671036
0.170935	0.745595
0.235525	1.0943
0.252618	1.16886
0.271609	1.24333
0.288703	1.31789
0.307694	1.39235
0.366586	1.71621
0.383679	1.79076
0.40267	1.86523
0.417872	1.96502
0.436857	2.01435
0.452053	2.089
0.467249	2.16366
0.486235	2.21298
0.529926	2.43704
0.548911	2.48637
0.554614	2.53636
0.5736	2.58568
0.628681	2.83431
0.647662	2.8585
0.659062	2.93334
0.678043	2.95753
0.681843	2.98248
0.700834	3.05694
0.75971	3.30538
0.778691	3.32956
0.822371	3.50334
0.841351	3.52753
0.862239	3.6019
0.88122	3.62608
0.898313	3.70064
0.917294	3.72483
0.936285	3.79929
0.955265	3.82348
0.970461	3.89813
0.989442	3.92232
