Adsorption isotherm of N-propane on CuBTC
DOI: 10.1021/Ie500310c
Adsorbate N-propane: InChIKey ATUOYWHBWRKTHZ-UHFFFAOYSA-N
Temperature: 423 K
Tabular data in the source: 0
pressure (bar)	uptake (mmol/g)
0.0228503	0.0623487
0.0375307	0.124868
0.0473176	0.166548
0.0603639	0.229102
0.0766783	0.291588
0.0913501	0.37505
0.107673	0.416593
0.12237	0.437228
0.133774	0.520759
0.150106	0.541359
0.164786	0.603879
0.179475	0.645456
0.194164	0.687033
0.208853	0.72861
0.225176	0.770153
0.234954	0.832776
0.251285	0.853376
0.265974	0.894953
0.288816	0.978245
0.305148	0.998845
0.319836	1.04042
0.336168	1.06102
0.372065	1.18593
0.388396	1.20653
0.409604	1.28985
0.425935	1.31045
0.440624	1.35203
0.504282	1.51823
0.520613	1.53884
0.56142	1.64269
0.577752	1.66329
0.592441	1.70487
0.613657	1.76725
0.629989	1.78785
0.644686	1.80849
0.661009	1.85003
0.675689	1.91255
0.692021	1.93315
0.70671	1.97473
0.723041	1.99533
0.732837	2.01607
0.747525	2.05764
0.763857	2.07824
0.778546	2.11982
0.794877	2.14042
0.824255	2.22358
0.840587	2.24418
0.848748	2.26495
0.865088	2.26461
0.881411	2.30615
0.887938	2.32695
0.902627	2.36853
0.918959	2.38913
0.935282	2.43067
0.949979	2.45131
0.96631	2.47191
0.977723	2.5345
0.994054	2.5551
