Adsorption isotherm of Propene on CuBTC
DOI: 10.1021/Ie500310c
Adsorbate Propene: InChIKey QQONPFPTGQHPMA-UHFFFAOYSA-N
Temperature: 348 K
Tabular data in the source: 0
pressure (bar)	uptake (mmol/g)
0.0382842	1.58187
0.0440191	1.7827
0.0459431	1.9083
0.0516675	2.05885
0.0612452	2.48575
0.0669854	2.71172
0.0746178	2.91245
0.0803634	3.16356
0.116618	4.11704
0.126142	4.29254
0.152819	4.81913
0.162338	4.96949
0.173766	5.17003
0.183301	5.39581
0.192825	5.57131
0.230861	5.97163
0.244164	6.07152
0.253668	6.14646
0.26888	6.29654
0.477802	7.2162
0.496783	7.24039
0.637278	7.61042
0.656253	7.60946
0.699917	7.70783
0.718892	7.70687
0.815703	7.87798
0.834678	7.87703
0.853658	7.90121
0.865054	7.95092
0.884024	7.92483
0.906805	7.97396
0.92578	7.97301
0.939068	7.99748
0.958043	7.99652
0.977028	8.04585
0.995998	8.01975
