Adsorption isotherm of N-propane on CuBTC
DOI: 10.1021/Ie500310c
Adsorbate N-propane: InChIKey ATUOYWHBWRKTHZ-UHFFFAOYSA-N
Temperature: 303 K
Tabular data in the source: 0
pressure (bar)	uptake (mmol/g)
0.00571429	1.11348
0.02	1.64008
0.0428571	4.06969
0.0771429	6.03395
0.105714	6.6823
0.118571	6.98621
0.142857	7.16888
0.167143	7.3718
0.184286	7.47337
0.227143	7.73739
0.265714	7.87987
0.304286	8.00211
0.347143	8.14468
0.384286	8.20616
0.422857	8.28791
0.464286	8.36972
0.502857	8.43123
0.542857	8.51301
0.585714	8.57461
0.621429	8.57533
0.664286	8.61669
0.704286	8.65798
0.745714	8.71955
0.788571	8.7609
0.827143	8.82241
0.868571	8.80301
0.912857	8.84439
0.95	8.88563
0.991429	8.94719
