Adsorption isotherm of Ethene on CuBTC
DOI: 10.1021/Ie500310c
Adsorbate Ethene: InChIKey VGGSQFUCUMXWEO-UHFFFAOYSA-N
Temperature: 323 K
Tabular data in the source: 0
pressure (bar)	uptake (mmol/g)
0.0611354	6.11354
0.137555	0.866049
0.550218	1.29552
0.672489	1.47498
0.962882	1.90572
1.10044	2.01273
1.22271	2.19219
1.34498	2.37165
1.43668	2.51528
1.57424	2.65844
1.69651	2.8379
1.92576	3.08855
2.03275	3.23202
2.0786	3.33998
2.21616	3.44699
2.47598	3.73347
2.61354	3.87662
2.73581	4.01994
2.85808	4.1994
2.99563	4.30641
3.13319	4.41343
3.27074	4.55658
3.4083	4.6636
3.69869	4.9859
3.82096	5.05693
4.00437	5.23576
4.15721	5.34261
4.47817	5.59231
4.61572	5.66318
5.16594	6.05508
5.31878	6.08965
5.45633	6.16052
5.88428	6.44526
6.03712	6.47982
6.06769	6.51565
6.22052	6.55022
6.38865	6.65692
6.54148	6.69148
6.67904	6.76235
