Adsorption isotherm of Ethene on CuBTC
DOI: 10.1021/Ie500310c
Adsorbate Ethene: InChIKey VGGSQFUCUMXWEO-UHFFFAOYSA-N
Temperature: 373 K
Tabular data in the source: 0
pressure (bar)	uptake (mmol/g)
-5.68434e-16	-0.0327869
0.160417	0.622199
0.21875	0.851434
0.335417	1.3099
0.408333	1.53907
0.714583	2.48846
0.816667	2.71749
1.02083	3.37227
1.10833	3.60137
1.29792	4.09228
1.4	4.32131
1.64792	4.77917
1.76458	4.94255
1.96875	5.30225
2.08542	5.43286
2.20208	5.56346
2.33333	5.6612
2.43542	5.75908
2.55208	5.92247
2.82917	6.21626
2.96042	6.314
3.26667	6.57486
3.39792	6.67261
3.47083	6.77063
3.60208	6.83559
3.73333	6.93333
3.79167	6.96585
3.90833	7.06366
3.98125	7.16168
4.12708	7.19378
4.22917	7.29167
4.375	7.32377
4.47708	7.42165
4.62292	7.45376
4.73958	7.55157
4.9	7.61639
5.03125	7.68135
5.30833	7.8112
5.45417	7.81052
5.67292	7.94064
5.81875	7.93996
6.0375	8.07008
6.18333	8.0694
