Adsorption isotherm of N-propane on CuBTC
DOI: 10.1021/Ie500310c
Adsorbate N-propane: InChIKey ATUOYWHBWRKTHZ-UHFFFAOYSA-N
Temperature: 318 K
Tabular data in the source: 0
pressure (bar)	uptake (mmol/g)
0.0101168	0.73702
0.0201604	1.1793
0.0321751	1.55846
0.0441846	1.91656
0.0661645	2.42221
0.110088	3.28614
0.135973	3.51817
0.1698	3.72929
0.201636	3.91933
0.235426	3.98308
0.267241	4.0889
0.303013	4.13163
0.334817	4.19535
0.370584	4.21703
0.400406	4.30176
0.436178	4.34449
0.467977	4.38716
0.503744	4.40884
0.535543	4.4515
0.567336	4.47311
0.599135	4.51577
0.632915	4.53742
0.668687	4.58015
0.700475	4.58071
0.732274	4.62337
0.766049	4.62397
0.803808	4.66673
0.835591	4.64624
0.867379	4.6468
0.899183	4.71051
0.934945	4.71114
0.966743	4.7538
0.998537	4.77541
1.03629	4.77608
1.06808	4.81874
1.09987	4.8193
1.12968	4.84087
1.16743	4.84153
