Adsorption isotherm of Propene on CuBTC
DOI: 10.1021/Ie500310c
Adsorbate Propene: InChIKey QQONPFPTGQHPMA-UHFFFAOYSA-N
Temperature: 318 K
Tabular data in the source: 0
pressure (bar)	uptake (mmol/g)
0.00895307	1.54296
0.0144502	2.14038
0.0164535	1.89178
0.0200044	2.58856
0.0237451	2.78784
0.0350812	3.0872
0.0387745	3.41085
0.0501011	3.73508
0.0690801	4.01013
0.0975913	4.31077
0.135635	4.63699
0.166121	4.76364
0.202332	4.89072
0.238533	5.04268
0.269038	5.11958
0.299553	5.17161
0.330058	5.24851
0.364389	5.30083
0.39873	5.32826
0.43307	5.3557
0.465484	5.43275
0.499824	5.46019
0.530348	5.48734
0.564689	5.51478
0.600929	5.56723
0.633351	5.6194
0.667692	5.64684
0.700134	5.64926
0.732557	5.70143
0.766897	5.72887
0.799339	5.73129
0.829844	5.8082
0.868011	5.81105
0.896627	5.83806
0.934784	5.86578
0.967197	5.94283
