Adsorption isotherm of Ethane on CuBTC
DOI: 10.1021/Ie500310c
Adsorbate Ethane: InChIKey OTMSDBZUPAUEDD-UHFFFAOYSA-N
Temperature: 348 K
Tabular data in the source: 0
pressure (bar)	uptake (mmol/g)
0.309181	1.01393
0.794219	2.10416
1.30854	3.19407
1.88145	4.28331
2.46861	5.13762
3.08472	5.7829
3.94979	6.42541
4.91697	6.83198
5.84015	7.18688
6.76319	7.46352
