Adsorption isotherm of Propene on CuBTC
DOI: 10.1021/Ie500310c
Adsorbate Propene: InChIKey QQONPFPTGQHPMA-UHFFFAOYSA-N
Temperature: 353 K
Tabular data in the source: 0
pressure (bar)	uptake (mmol/g)
0.0286807	0.990809
0.0363289	1.21377
0.0611855	2.00646
0.0650096	2.25408
0.0956023	3.09643
0.10325	3.29463
0.105163	3.41844
0.116635	3.56724
0.126195	3.7655
0.145315	4.16201
0.152964	4.33547
0.164436	4.50902
0.195029	5.17809
0.204589	5.30209
0.214149	5.40134
0.231358	5.52553
0.256214	5.79842
0.277247	6.02171
0.290631	6.12106
0.307839	6.27
0.319312	6.31978
0.391969	6.74238
0.466539	6.99175
0.51434	7.09194
0.581262	7.29162
0.600382	7.31684
0.657744	7.41727
0.728489	7.56754
0.797323	7.76726
0.816444	7.76773
0.829828	7.79282
0.848948	7.79329
0.887189	7.86849
0.90631	7.86897
0.917782	7.91876
0.936902	7.89448
0.948375	7.94427
0.967495	7.94474
