Adsorption isotherm of Ethene on CuBTC
DOI: 10.1021/Ie500310c
Adsorbate Ethene: InChIKey VGGSQFUCUMXWEO-UHFFFAOYSA-N
Temperature: 348 K
Tabular data in the source: 0
pressure (bar)	uptake (mmol/g)
0.145833	1.37637
0.335417	2.62138
0.627083	3.8987
1.09375	5.1752
1.67708	6.15608
2.30417	6.77609
2.85833	7.29809
3.73333	7.85137
4.66667	8.27322
5.46875	8.63012
6.00833	8.59481
