Adsorption isotherm of Ethene on CuBTC
DOI: 10.1021/Ie500310c
Adsorbate Ethene: InChIKey VGGSQFUCUMXWEO-UHFFFAOYSA-N
Temperature: 295 K
Tabular data in the source: 0
pressure (bar)	uptake (mmol/g)
0.0611354	0.577682
0.137555	0.866049
0.259825	1.22623
0.351528	1.51444
0.458515	1.76635
0.580786	2.09039
0.672489	2.34245
0.825328	2.77461
0.932314	3.02652
