Adsorption isotherm of Propene on CuBTC
DOI: 10.1021/Ie500310c
Adsorbate Propene: InChIKey QQONPFPTGQHPMA-UHFFFAOYSA-N
Temperature: 323 K
Tabular data in the source: 0
pressure (bar)	uptake (mmol/g)
0.00780207	1.00519
0.00975258	1.25649
0.0135953	1.48256
0.0155458	1.73386
0.0194151	2.08562
0.0213656	2.33691
0.0233161	2.58821
0.0271588	2.81428
0.0291093	3.06558
0.0310599	3.31687
0.0349079	3.56808
0.0387506	3.79414
0.0406958	4.0203
0.0445386	4.24636
0.0483866	4.49757
0.0541268	4.72354
0.0560773	4.97483
0.0618176	5.2008
0.0656656	5.45201
0.0714006	5.65283
0.0790383	5.87871
0.0866708	6.07944
0.107644	6.55604
0.120959	6.70621
0.134278	6.88152
0.149485	7.00645
0.162799	7.15662
0.176114	7.30679
0.191326	7.45686
0.204635	7.58189
0.221733	7.68159
0.238827	7.75615
0.25592	7.83071
0.273014	7.90527
0.292005	7.97973
0.307201	8.05439
0.326187	8.10371
0.34328	8.17827
0.360374	8.25283
0.377462	8.30225
0.396448	8.35158
0.413536	8.401
0.432522	8.45032
0.451502	8.47451
0.46859	8.52393
0.487576	8.57325
0.504664	8.62267
0.516076	8.7478
0.529348	8.69685
0.548323	8.69589
0.565406	8.72018
0.584392	8.7695
0.60148	8.81892
0.620455	8.81797
0.639435	8.84215
0.658411	8.8412
0.677391	8.86538
0.696366	8.86443
0.713449	8.88871
0.732424	8.88776
0.751405	8.91194
0.766579	8.88604
0.78556	8.91022
0.802643	8.9345
0.821623	8.95869
0.840604	8.98287
0.859584	9.00706
0.874759	8.98116
0.882365	9.05619
0.90134	9.05524
0.920326	9.10456
0.939301	9.10361
0.956384	9.12789
0.975364	9.15208
0.994345	9.17626
