Adsorption isotherm of Ethene on CuBTC
DOI: 10.1021/Ie500310c
Adsorbate Ethene: InChIKey VGGSQFUCUMXWEO-UHFFFAOYSA-N
Temperature: 295 K
Tabular data in the source: 0
pressure (bar)	uptake (mmol/g)
-5.68434e-16	-0.0327869
0.102083	4.39296
0.13125	4.68791
0.175	5.60574
0.204167	5.90068
0.233333	6.22842
0.2625	6.55615
0.30625	6.81824
0.35	7.1459
0.408333	7.40792
0.466667	7.70273
0.525	7.96475
0.583333	8.25956
0.670833	8.52145
0.74375	8.7834
0.83125	9.04529
0.904167	9.30724
