Adsorption isotherm of N-propane on CuBTC (Lamia)
DOI: 10.1021/Ie500310c
Adsorbate N-propane: InChIKey ATUOYWHBWRKTHZ-UHFFFAOYSA-N
Temperature: 323 K
Tabular data in the source: 0
pressure (bar)	uptake (mmol/g)
0.0357143	1.19505
0.0614286	1.90408
0.0885714	2.91677
0.128571	4.53702
0.182857	5.79318
0.25	6.54352
0.338571	6.99066
0.408571	7.17426
0.498571	7.39876
0.6	7.54251
0.697143	7.64569
0.81	7.74919
0.897143	7.79144
0.997143	7.89468
