Adsorption isotherm of Propene on CuBTC
DOI: 10.1021/Ie500310c
Adsorbate Propene: InChIKey QQONPFPTGQHPMA-UHFFFAOYSA-N
Temperature: 303 K
Tabular data in the source: 0
pressure (bar)	uptake (mmol/g)
0.00191922	3.11087
0.00874591	3.03596
0.0244251	5.05871
0.0266727	5.28066
0.0289174	5.52729
0.0311649	5.74924
0.044692	6.71053
0.0503514	6.90736
0.0560109	7.1042
0.0616731	7.27634
0.068469	7.47303
0.0764096	7.5955
0.0843474	7.74267
0.0922881	7.86515
0.102504	7.96265
0.11272	8.06016
0.122942	8.10828
0.143377	8.2786
0.153596	8.35141
0.163815	8.42422
0.172895	8.52186
0.183114	8.59468
0.189927	8.64322
0.200146	8.71603
0.210368	8.76415
0.221726	8.81213
0.231948	8.86025
0.241033	8.90851
0.252391	8.95649
0.262616	8.97992
0.273974	9.0279
0.287602	9.1003
0.298963	9.12358
0.310324	9.14687
0.31941	9.19513
0.32964	9.16918
0.339862	9.2173
0.351225	9.2159
0.359177	9.23961
0.36826	9.31256
0.377359	9.23736
0.387581	9.28548
0.398942	9.30877
0.406894	9.33248
0.417127	9.28184
0.428491	9.28043
0.437571	9.37808
0.447807	9.30274
0.45917	9.30134
0.470534	9.29993
0.480759	9.32336
0.488716	9.29769
0.50008	9.29629
0.526211	9.34244
0.537575	9.34104
0.54553	9.34006
0.556893	9.33866
0.568257	9.33725
0.579621	9.33585
0.594388	9.38341
0.605752	9.38201
0.617113	9.40529
0.627335	9.45342
0.638699	9.45201
