Adsorption isotherm of Propene on CuBTC
DOI: 10.1021/Ie500310c
Adsorbate Propene: InChIKey QQONPFPTGQHPMA-UHFFFAOYSA-N
Temperature: 353 K
Tabular data in the source: 0
pressure (bar)	uptake (mmol/g)
0.0101517	0.665413
0.0248488	1.33027
0.0463138	2.43873
0.058755	2.95571
0.0757446	3.44744
0.0984161	3.93847
0.122232	4.35528
0.140384	4.62464
0.158529	4.94339
0.183504	5.16253
0.202792	5.43175
0.225494	5.65117
0.245924	5.87087
0.266362	6.0165
0.2868	6.16212
0.307238	6.30775
0.351523	6.59858
0.382185	6.76763
0.423078	6.91073
0.462829	7.10335
0.507126	7.29542
0.54576	7.31534
0.583241	7.48355
0.625275	7.57713
