Adsorption isotherm of N-propane on CuBTC
DOI: 10.1021/Ie500310c
Adsorbate N-propane: InChIKey ATUOYWHBWRKTHZ-UHFFFAOYSA-N
Temperature: 318 K
Tabular data in the source: 0
pressure (bar)	uptake (mmol/g)
0.020014	0.589825
0.0380518	1.22172
0.0560842	1.83256
0.102182	3.45442
0.35698	5.43784
0.613382	5.88445
1.18566	6.27343
