Adsorption isotherm of N-propane on CuBTC
DOI: 10.1021/Ie500310c
Adsorbate N-propane: InChIKey ATUOYWHBWRKTHZ-UHFFFAOYSA-N
Temperature: 353 K
Tabular data in the source: 0
pressure (bar)	uptake (mmol/g)
0.0199461	0.316139
0.0378897	0.569086
0.0598173	0.864207
0.0917048	1.26477
0.0997094	1.49649
0.119635	1.72841
0.141546	1.96038
0.15949	2.21332
0.181412	2.48739
0.203335	2.76146
0.221294	3.07757
0.241235	3.37265
0.263163	3.66777
0.285059	3.83658
0.308989	4.19489
0.324925	4.3636
0.350794	4.53247
0.384648	4.84885
0.426448	5.16538
0.462268	5.39758
0.506039	5.65098
0.547793	5.77803
0.589562	5.96824
0.629318	6.05315
0.667103	6.20118
0.708856	6.32823
0.746621	6.39205
0.792337	6.47706
0.83409	6.60411
0.873836	6.64691
0.915584	6.7529
0.953349	6.81673
0.995081	6.85956
