Adsorption isotherm of Ethene on CuBTC
DOI: 10.1021/Ie500310c
Adsorbate Ethene: InChIKey VGGSQFUCUMXWEO-UHFFFAOYSA-N
Temperature: 323 K
Tabular data in the source: 0
pressure (bar)	uptake (mmol/g)
0.0917031	2.31231
0.336245	4.5146
1.10044	7.03683
1.8952	8.07681
2.39956	8.54148
2.88865	8.93402
3.30131	9.32735
4.18777	9.60736
5.12009	9.92303
6.00655	10.1669
6.66376	10.5215
