Adsorption isotherm of Ethene on CuBTC
DOI: 10.1021/Ie500310c
Adsorbate Ethene: InChIKey VGGSQFUCUMXWEO-UHFFFAOYSA-N
Temperature: 295 K
Tabular data in the source: 0
pressure (bar)	uptake (mmol/g)
-5.68434e-16	0.52459
0.0291667	1.1474
0.0875	3.2127
0.160417	4.98286
0.495833	6.58784
0.758333	7.3735
0.860417	7.60253
