Adsorption isotherm of N-propane on CuBTC (Rubes)
DOI: 10.1021/Ie500310c
Adsorbate N-propane: InChIKey ATUOYWHBWRKTHZ-UHFFFAOYSA-N
Temperature: 303 K
Tabular data in the source: 0
pressure (bar)	uptake (mmol/g)
0.0128571	1.39702
0.0228571	2.40937
0.0242857	2.02478
0.0285714	2.75361
0.0314286	3.13829
0.0357143	3.52299
0.0385714	4.00888
0.0457143	4.33291
0.0471429	4.7378
0.0542857	5.04158
0.0571429	5.40602
0.0614286	5.81096
0.0785714	6.37811
0.112857	7.04682
0.125714	7.20902
0.14	7.37126
0.161429	7.51339
0.181429	7.73647
0.208571	7.83823
0.23	7.98036
0.27	8.1836
0.384286	8.48956
0.504286	8.63369
0.704286	8.98187
0.881429	9.06643
