Adsorption isotherm of N-propane on CuBTC
DOI: 10.1021/Ie500310c
Adsorbate N-propane: InChIKey ATUOYWHBWRKTHZ-UHFFFAOYSA-N
Temperature: 353 K
Tabular data in the source: 0
pressure (bar)	uptake (mmol/g)
0.0239614	0.484631
0.0518545	0.80091
0.0717901	1.07494
0.0956888	1.30694
0.133531	1.68655
0.167369	1.93978
0.203199	2.21409
0.23505	2.46728
0.268877	2.6784
0.302694	2.84742
0.336495	2.95327
0.372293	3.10127
0.406094	3.20712
0.435922	3.31291
0.467721	3.35557
0.501511	3.41932
0.535302	3.48308
0.569088	3.52577
0.602878	3.58952
0.634666	3.59008
0.666476	3.67485
0.702248	3.71758
0.734046	3.76025
0.763853	3.78182
0.79961	3.7614
0.835371	3.76202
0.869167	3.84683
0.902947	3.86847
0.936728	3.89012
0.970497	3.86966
1.00229	3.89127
1.03409	3.95498
1.06986	3.95561
1.09966	3.95613
1.13344	3.99883
1.16523	3.97834
1.20297	3.979
