Adsorption isotherm of N-propane on CuBTC
DOI: 10.1021/Ie500310c
Adsorbate N-propane: InChIKey ATUOYWHBWRKTHZ-UHFFFAOYSA-N
Temperature: 313 K
Tabular data in the source: 0
pressure (bar)	uptake (mmol/g)
0.0485714	2.79451
0.0514286	2.87553
0.0542857	3.07802
0.242857	7.75795
0.255714	7.7987
0.294286	7.92094
0.305714	8.00214
0.317143	7.94164
0.331429	7.96217
0.341429	8.08383
0.352857	8.08407
0.365714	8.04384
0.414286	8.18652
0.425714	8.26773
0.457143	8.32909
0.471429	8.32938
0.481429	8.2891
0.508571	8.4111
0.52	8.35061
0.538571	8.4522
0.55	8.41194
0.558571	8.43236
0.572857	8.43265
0.628571	8.53499
0.642857	8.51504
0.648571	8.5354
0.66	8.59636
0.671429	8.53586
0.684286	8.55636
0.694286	8.59705
0.698571	8.53641
0.707143	8.65804
0.718571	8.5773
0.747143	8.69933
0.757143	8.63881
0.771429	8.6391
0.785714	8.63939
0.834286	8.7011
0.848571	8.70139
0.862857	8.70168
0.875714	8.70194
0.89	8.70223
0.918571	8.72305
0.932857	8.72334
0.947143	8.72363
0.961429	8.72392
0.975714	8.7242
0.99	8.72449
