Adsorption isotherm of Propene on CuBTC
DOI: 10.1021/Ie500310c
Adsorbate Propene: InChIKey QQONPFPTGQHPMA-UHFFFAOYSA-N
Temperature: 323 K
Tabular data in the source: 0
pressure (bar)	uptake (mmol/g)
0.0122028	2.61578
0.0188751	3.8989
0.0403429	4.98267
0.0584436	5.69649
0.0776891	6.33609
0.101497	6.82698
0.121912	7.17013
0.143464	7.51315
0.167298	7.78182
0.19	8.00123
0.208171	8.09776
0.232021	8.21827
0.268362	8.41131
0.30471	8.55497
0.346739	8.69793
0.384228	8.79207
0.423999	8.81185
0.468312	8.85576
0.506949	8.85099
0.545577	8.9203
0.586478	8.98932
0.629661	8.98399
