Adsorption isotherm of Propene on CuBTC
DOI: 10.1021/Ie500310c
Adsorbate Propene: InChIKey QQONPFPTGQHPMA-UHFFFAOYSA-N
Temperature: 333 K
Tabular data in the source: 0
pressure (bar)	uptake (mmol/g)
0.0202977	1.38021
0.0236816	1.60201
0.0304325	2.19377
0.0349584	2.36605
0.0372059	2.588
0.0518806	3.45039
0.0564009	3.67205
0.0665666	4.214
0.0699505	4.43581
0.0778799	4.65705
0.0835393	4.85388
0.090338	5.02588
0.094861	5.22286
0.13455	5.9587
0.142496	6.03179
0.148161	6.17924
0.15838	6.25205
0.166318	6.39922
0.174256	6.54639
0.183333	6.66872
0.191271	6.81589
0.199212	6.93837
0.225329	7.10798
0.235553	7.13141
0.259398	7.30131
0.270759	7.3246
0.325274	7.58947
0.336638	7.58807
0.426381	7.84859
0.437745	7.84719
0.449106	7.87048
0.458191	7.91874
0.469558	7.89265
0.47637	7.94119
0.487734	7.93979
0.495683	7.98819
0.507047	7.98678
0.51386	8.03533
0.525223	8.03392
0.536584	8.05721
0.56044	8.12834
0.571804	8.12694
0.595657	8.22276
0.60702	8.22136
0.622927	8.24408
0.634291	8.24268
0.645654	8.24128
