Adsorption isotherm of Propene on CuBTC
DOI: 10.1021/Ie500310c
Adsorbate Propene: InChIKey QQONPFPTGQHPMA-UHFFFAOYSA-N
Temperature: 373 K
Tabular data in the source: 0
pressure (bar)	uptake (mmol/g)
0.0171412	0.300814
0.0285634	0.476217
0.0380934	0.676856
0.0476233	0.877494
0.0590455	1.0529
0.070473	1.25344
0.0819005	1.45398
0.0914251	1.62948
0.102853	1.83002
0.11427	1.98029
0.125697	2.18083
0.137124	2.38137
0.148547	2.55678
0.159969	2.73218
0.171396	2.93272
0.182818	3.10813
0.194241	3.28353
0.20756	3.45884
0.220875	3.60901
0.234189	3.75917
0.247504	3.90934
0.262715	4.05942
0.27603	4.20959
0.28935	4.38489
0.304556	4.50983
0.319768	4.6599
0.334969	4.75969
0.350176	4.88463
0.365377	4.98442
0.380584	5.10936
0.397683	5.20906
0.412879	5.28371
0.429978	5.38341
0.448969	5.45787
0.466062	5.53243
0.483156	5.60699
0.500254	5.70669
0.513548	5.7563
0.530636	5.80572
0.547735	5.90542
0.564828	5.97998
0.583819	6.05444
0.599015	6.1291
0.618001	6.17842
0.636981	6.20261
0.654075	6.27717
0.671163	6.32659
0.690149	6.37591
0.707237	6.42533
0.726217	6.44952
0.7433	6.4738
0.762286	6.52313
0.775579	6.57274
0.794565	6.62206
0.811648	6.64634
0.830628	6.67053
0.849609	6.69471
0.868589	6.7189
0.885677	6.76832
0.904653	6.76736
0.923638	6.81669
0.940721	6.84097
0.959702	6.86515
0.978682	6.88934
0.997663	6.91353
