Adsorption isotherm of Propene on CuBTC
DOI: 10.1021/Ie500310c
Adsorbate Propene: InChIKey QQONPFPTGQHPMA-UHFFFAOYSA-N
Temperature: 353 K
Tabular data in the source: 0
pressure (bar)	uptake (mmol/g)
0.0130926	0.697494
0.0281124	1.34538
0.0467686	2.46618
0.0561205	2.96439
0.0769129	3.48833
0.101531	3.98768
0.122362	4.41212
0.139442	4.66215
0.156494	4.9868
0.183115	5.23755
0.205921	5.488
0.224928	5.68843
0.243945	5.86398
0.26676	6.08956
0.289612	6.21564
0.304822	6.36603
0.346692	6.66766
0.380956	6.8941
0.420965	7.07122
0.460983	7.22346
0.504809	7.40086
0.546764	7.47861
0.584874	7.63071
0.624901	7.75808
0.668765	7.83598
0.706903	7.91345
0.748849	8.01608
0.787006	8.04381
0.825154	8.0964
0.865191	8.19889
0.905247	8.25164
0.945294	8.32925
0.989177	8.3574
