Adsorption isotherm of Ethene on CuBTC
DOI: 10.1021/Ie500310c
Adsorbate Ethene: InChIKey VGGSQFUCUMXWEO-UHFFFAOYSA-N
Temperature: 348 K
Tabular data in the source: 0
pressure (bar)	uptake (mmol/g)
-5.68434e-16	-0.0327869
0.0729167	0.524249
0.116667	0.819126
0.160417	1.24515
0.21875	1.53996
0.247917	1.8349
0.30625	2.1625
0.35	2.58852
0.408333	2.85055
0.466667	3.14536
0.525	3.40738
0.583333	3.73497
0.6125	3.89877
0.685417	4.16072
0.758333	4.42268
0.83125	4.68463
0.904167	4.94658
0.977083	5.20854
1.06458	5.43764
1.16667	5.69945
1.25417	5.89577
1.37083	6.09194
1.47292	6.32097
1.58958	6.48436
1.70625	6.68053
1.80833	6.84399
1.93958	7.00731
2.04167	7.17077
2.1875	7.26844
2.30417	7.36626
2.43542	7.49679
2.56667	7.62732
2.69792	7.75786
2.82917	7.8556
2.96042	8.01892
3.10625	8.08381
3.2375	8.18156
3.36875	8.2793
3.5	8.34426
3.64583	8.40915
3.77708	8.5069
3.90833	8.57186
4.05417	8.66954
4.18542	8.73449
4.33125	8.79939
4.4625	8.86434
4.60833	8.92923
4.73958	8.96141
4.88542	9.0263
5.01667	9.09126
5.1625	9.15615
5.30833	9.18825
5.43958	9.22042
5.58542	9.28531
5.73125	9.31742
5.8625	9.34959
6.00833	9.41448
6.15417	9.44658
6.2125	9.4791
6.34375	9.51127
6.48958	9.54337
6.63542	9.60827
6.76667	9.67322
6.9125	9.70533
