Adsorption isotherm of Propene on CuBTC
DOI: 10.1021/Ie500310c
Adsorbate Propene: InChIKey QQONPFPTGQHPMA-UHFFFAOYSA-N
Temperature: 423 K
Tabular data in the source: 0
pressure (bar)	uptake (mmol/g)
0.0208333	0.0485724
0.0511364	0.397268
0.0965909	0.669616
0.147727	0.991675
0.19697	1.28881
0.268939	1.70958
0.352273	2.10443
0.403409	2.37635
0.501894	2.74498
0.594697	3.11405
0.708333	3.55675
0.801136	3.72526
0.924242	4.04191
0.992424	4.21227
