Adsorption isotherm of Ethane on CuBTC
DOI: 10.1021/Ie500310c
Adsorbate Ethane: InChIKey OTMSDBZUPAUEDD-UHFFFAOYSA-N
Temperature: 373 K
Tabular data in the source: 0
pressure (bar)	uptake (mmol/g)
0.13061	0.394737
0.203271	0.552632
0.246382	0.947368
0.305056	0.736842
0.33354	1.15789
0.363219	0.842105
0.47963	1
0.581457	1.15789
0.697911	1.28947
0.799738	1.44737
0.916192	1.57895
1.0326	1.73684
1.13452	1.84211
1.25097	1.97368
1.36746	2.07895
1.48392	2.21053
1.6877	2.44737
1.78953	2.60526
1.90602	2.71053
2.00789	2.84211
2.24084	3.07895
2.35734	3.18421
2.67762	3.52632
2.80874	3.60526
2.92515	3.76316
3.20185	4
3.31835	4.10526
3.46405	4.18421
3.60963	4.34211
3.74075	4.42105
3.87183	4.52632
4.33794	4.86842
4.46907	4.94737
4.60015	5.05263
4.73131	5.10526
5.314	5.5
5.44521	5.52632
5.67829	5.68421
5.80941	5.76316
5.94058	5.81579
6.33403	6
6.47982	6.02632
6.58177	6.10526
6.72756	6.13158
6.85869	6.21053
6.98989	6.23684
