Adsorption isotherm of Propene on CuBTC
DOI: 10.1021/Ie500310c
Adsorbate Propene: InChIKey QQONPFPTGQHPMA-UHFFFAOYSA-N
Temperature: 323 K
Tabular data in the source: 0
pressure (bar)	uptake (mmol/g)
0.000201227	0.849985
0.0156839	2.24882
0.0274735	4.04794
0.0581607	5.67064
0.094423	6.84292
0.140037	7.5145
0.187503	8.01094
0.259548	8.33053
0.344833	8.57414
0.405462	8.66959
0.522901	8.73578
0.644129	8.80169
0.759669	8.84302
0.882773	8.83379
0.996407	8.82527
