Adsorption isotherm of Krypton on Carbon Nanotube
DOI: 10.1016/s0039-6028(02)01424-3
Adsorbate Krypton: InChIKey DNNSSWSSYDEUBZ-UHFFFAOYSA-N
Temperature: 77 K
Tabular data in the source: 0
pressure (bar)	uptake (mmol/g)
2.6606e-07	0.0359375
6.62491e-07	0.0719189
1.00374e-06	0.112802
1.40777e-06	0.322944
1.91182e-06	0.560547
2.46972e-06	0.789036
3.34234e-06	0.921457
6.83768e-06	1.02617
1.49195e-05	1.07595
2.75591e-05	1.09841
4.68603e-05	1.12093
7.45368e-05	1.12977
0.000102169	1.14785
0.000122591	1.14773
0.000133217	1.15682
0.000149617	1.16132
0.000162562	1.16584
0.000188725	1.17031
