Adsorption isotherm of Krypton on Carbon Nanotube
DOI: 10.1016/s0039-6028(02)01424-3
Adsorbate Krypton: InChIKey DNNSSWSSYDEUBZ-UHFFFAOYSA-N
Temperature: 77 K
Tabular data in the source: 0
pressure (bar)	uptake (mmol/g)
2.67769e-07	0.04803
6.64599e-07	0.0716011
9.95726e-07	0.12025
1.41987e-06	0.340731
1.92516e-06	0.573535
2.48154e-06	0.794123
3.27846e-06	0.916526
6.65255e-06	1.0262
8.35166e-06	1.06277
1.49279e-05	1.07442
2.80686e-05	1.11056
4.53544e-05	1.13458
6.7924e-05	1.12188
9.9204e-05	1.13375
0.000118391	1.14583
0.000168613	1.17
0.000196205	1.1821
0.000228297	1.18194
0.000279422	1.194
