Adsorption isotherm of Krypton on Carbon Nanotube
DOI: 10.1016/s0039-6028(02)01424-3
Adsorbate Krypton: InChIKey DNNSSWSSYDEUBZ-UHFFFAOYSA-N
Temperature: 77 K
Tabular data in the source: 0
pressure (bar)	uptake (mmol/g)
2.44726e-07	0.013127
6.1917e-07	0.0308052
1.01835e-06	0.0487685
1.24286e-06	0.0623561
1.64836e-06	0.085035
1.9468e-06	0.107791
2.22367e-06	0.121422
2.62588e-06	0.139605
2.76218e-06	0.16701
3.00343e-06	0.194394
3.26723e-06	0.235497
3.73473e-06	0.271994
3.92918e-06	0.303972
4.41828e-06	0.345053
4.80926e-06	0.404448
5.14806e-06	0.459281
5.60703e-06	0.536968
6.00568e-06	0.610094
6.76452e-06	0.701478
7.74769e-06	0.797425
9.47587e-06	0.875036
1.39081e-05	0.957099
2.25158e-05	0.997938
3.52418e-05	1.02051
5.51687e-05	1.04765
7.94742e-05	1.0657
0.00013071	1.08366
0.000191443	1.1017
