Adsorption isotherm of Krypton on Carbon Nanotube
DOI: 10.1016/s0039-6028(02)01424-3
Adsorbate Krypton: InChIKey DNNSSWSSYDEUBZ-UHFFFAOYSA-N
Temperature: 77 K
Tabular data in the source: 0
pressure (bar)	uptake (mmol/g)
1.25004e-06	0.236133
1.8139e-06	0.473691
2.26722e-06	0.706775
2.87243e-06	0.848387
4.66289e-06	0.971542
7.55678e-06	1.04439
2.62071e-05	1.08015
2.84745e-05	1.08467
3.47417e-05	1.08911
4.4548e-05	1.09352
5.71222e-05	1.09793
6.96947e-05	1.10237
8.50472e-05	1.11139
9.87354e-05	1.11586
0.000116523	1.11575
0.00013087	1.12025
0.00014696	1.12017
0.000159698	1.12926
0.000182356	1.13375
