Adsorption isotherm of Krypton on Carbon Nanotube
DOI: 10.1016/s0039-6028(02)01424-3
Adsorbate Krypton: InChIKey DNNSSWSSYDEUBZ-UHFFFAOYSA-N
Temperature: 77 K
Tabular data in the source: 0
pressure (bar)	uptake (mmol/g)
1.74313e-07	0.0362176
7.16952e-07	0.0837902
9.70666e-07	0.0834673
1.25032e-06	0.193627
1.49272e-06	0.267058
2.076e-06	0.524375
2.41798e-06	0.683722
3.36047e-06	0.83061
4.3283e-06	0.9285
9.47319e-06	1.02582
2.95177e-05	1.08596
3.70481e-05	1.08572
4.09882e-05	1.09788
5.54885e-05	1.08529
6.45742e-05	1.10967
0.000121398	1.12127
0.000222572	1.15743
0.000316993	1.18159
0.000387998	1.20592
0.00046301	1.20573
0.000643073	1.25446
0.000767574	1.29108
0.000988644	1.38897
0.00104129	1.60977
0.00115523	2.06365
0.00124759	2.24762
0.00156841	2.50504
0.00187348	2.66436
0.00212936	2.94643
0.00218786	3.24088
0.00236478	3.55982
