Adsorption isotherm of Krypton on Carbon Nanotube
DOI: 10.1016/s0039-6028(02)01424-3
Adsorbate Krypton: InChIKey DNNSSWSSYDEUBZ-UHFFFAOYSA-N
Temperature: 77 K
Tabular data in the source: 0
pressure (bar)	uptake (mmol/g)
1.2509e-06	0.267246
1.78376e-06	0.487727
2.24213e-06	0.720612
2.88854e-06	0.855311
4.55423e-06	0.989795
7.36121e-06	1.0629
2.6017e-05	1.0861
3.34919e-05	1.0981
4.3111e-05	1.09783
6.79186e-05	1.10961
0.000112551	1.13362
0.000206319	1.14524
0.000252557	1.18183
0.000474876	1.21797
0.000676488	1.27894
0.000828152	1.32781
0.000916579	1.40132
0.00101447	1.47483
0.00104121	1.5975
0.00104201	1.7202
0.00109683	1.84285
0.00115454	1.96549
0.00118514	2.1127
0.0012475	2.23535
0.0013467	2.35796
0.00164964	2.50499
0.00187262	2.59074
0.00197102	2.70112
0.00202297	2.82379
0.00218469	3.00776
0.0021867	3.15499
0.00224559	3.36356
0.002306	3.57212
0.00242829	3.75611
