Adsorption isotherm of Carbon Dioxide on Desolvated C35.50H31CoN3O9.50
DOI: 10.1039/C2sc20443f
Adsorbate Carbon Dioxide: InChIKey CURLTUGMZLYLDI-UHFFFAOYSA-N
Temperature: 195 K
Tabular data in the source: 0
pressure (bar)	uptake (cm3(STP)/g)
0.00347222	118.474
0.0104167	133.534
0.0277778	141.566
0.0416667	148.594
0.100694	155.622
0.149306	187.751
0.201389	201.807
0.246528	206.827
0.298611	213.855
0.350694	215.863
0.395833	217.871
0.451389	220.884
0.503472	223.896
0.600694	226.908
0.701389	229.92
0.802083	233.936
0.902778	238.956
1.01042	239.96
