Adsorption isotherm of Carbon Dioxide on Desolvated C35.50H31CoN3O9.50
DOI: 10.1039/C2sc20443f
Adsorbate Carbon Dioxide: InChIKey CURLTUGMZLYLDI-UHFFFAOYSA-N
Temperature: 195 K
Tabular data in the source: 0
pressure (bar)	uptake (cm3(STP)/g)
0.00179968	2.95613
0.00230855	1.81268
0.00531215	2.0636
0.0140747	3.37411
0.0295147	3.68045
0.0668363	3.81885
0.0917215	3.90182
