Adsorption isotherm of Nitrogen on Desolvated C35.50H31CoN3O9.50
DOI: 10.1039/C2sc20443f
Adsorbate Nitrogen: InChIKey IJGRMHOSHXDMSA-UHFFFAOYSA-N
Temperature: 77 K
Tabular data in the source: 0
pressure (bar)	uptake (mmol/g)
0.00255663	4.60094
0.00511326	7.69953
0.00766989	8.07512
0.0306796	8.35681
0.0460194	8.4507
0.0613592	8.5446
0.0792556	8.59155
0.112492	8.68545
0.186634	9.15493
0.224984	9.20188
0.301683	9.34272
0.380938	9.38967
0.460194	9.38967
0.531779	9.48357
0.616148	9.48357
0.69796	9.43662
