Adsorption isotherm of Nitrogen on Desolvated C35.50H31CoN3O9.50
DOI: 10.1039/C2sc20443f
Adsorbate Nitrogen: InChIKey IJGRMHOSHXDMSA-UHFFFAOYSA-N
Temperature: 77 K
Tabular data in the source: 0
pressure (bar)	uptake (cm3(STP)/g)
0.00694444	173.695
0.0138889	181.727
0.0381944	185.743
0.0555556	187.751
0.0798611	188.755
0.125	191.767
0.177083	194.779
0.274306	203.815
0.326389	206.827
0.427083	207.831
0.524306	209.839
0.625	210.843
0.722222	212.851
0.829861	212.851
0.954861	212.851
