Adsorption isotherm of Carbon Dioxide on Desolvated C35.50H31CoN3O9.50
DOI: 10.1039/C2sc20443f
Adsorbate Carbon Dioxide: InChIKey CURLTUGMZLYLDI-UHFFFAOYSA-N
Temperature: 195 K
Tabular data in the source: 0
pressure (bar)	uptake (cm3(STP)/g)
0.00955414	162.639
0.022293	169.145
0.0414013	173.792
0.0605096	176.58
0.0859873	177.509
0.101911	178.439
0.127389	178.439
0.16242	178.439
0.178344	180.297
0.200637	181.227
0.299363	181.227
0.398089	182.156
0.503185	182.156
0.601911	183.086
0.700637	183.086
0.799363	184.015
0.898089	184.015
1.00318	184.944
