Adsorption isotherm of Acetylene on Desolvated C35.50H31CoN3O9.50
DOI: 10.1039/C2sc20443f
Adsorbate Acetylene: InChIKey HSFWRNGVRCDJHI-UHFFFAOYSA-N
Temperature: 195 K
Tabular data in the source: 0
pressure (bar)	uptake (cm3(STP)/g)
0.00347222	80.3213
0.0416667	106.426
0.0729167	113.454
0.100694	114.458
0.142361	121.486
0.211806	124.498
0.284722	127.51
0.357639	129.518
0.434028	130.522
0.506944	133.534
0.579861	133.534
0.652778	134.538
0.722222	135.542
0.791667	136.546
0.868056	136.546
0.934028	138.554
1.01042	139.558
