Adsorption isotherm of Hydrogen on Desolvated C35.50H31CoN3O9.50
DOI: 10.1039/C2sc20443f
Adsorbate Hydrogen: InChIKey UFHFLCQGNIYNRP-UHFFFAOYSA-N
Temperature: 87 K
Tabular data in the source: 0
pressure (bar)	uptake (wt%)
0.0664452	0.442308
0.13289	0.596154
0.199336	0.807692
0.265781	0.923077
0.598007	1.14423
0.996678	1.29808
1.46179	1.40385
1.92691	1.49038
2.45847	1.54808
2.99003	1.58654
3.98671	1.64423
4.98339	1.68269
6.04651	1.74038
7.04319	1.76923
7.97342	1.80769
8.9701	1.81731
10.0332	1.85577
11.495	1.90385
13.0233	1.91346
14.485	1.94231
16.0133	1.98077
17.5415	2
19.0033	2.00962
20	2.00962
