Adsorption isotherm of Methane on Desolvated C35.50H31CoN3O9.50
DOI: 10.1039/C2sc20443f
Adsorbate Methane: InChIKey VNWKTOKETHGBQD-UHFFFAOYSA-N
Temperature: 195 K
Tabular data in the source: 0
pressure (bar)	uptake (cm3(STP)/g)
0.0104167	41.1647
0.0416667	56.2249
0.0625	61.245
0.0902778	67.2691
0.197917	78.3133
0.298611	86.3454
0.392361	93.3735
0.5	99.3976
0.597222	104.418
0.697917	107.43
0.798611	109.438
0.902778	113.454
1.00347	114.458
