Adsorption isotherm of Carbon Dioxide on Desolvated C35.50H31CoN3O9.50
DOI: 10.1039/C2sc20443f
Adsorbate Carbon Dioxide: InChIKey CURLTUGMZLYLDI-UHFFFAOYSA-N
Temperature: 195 K
Tabular data in the source: 0
pressure (bar)	uptake (cm3(STP)/g)
0.0127389	197.955
0.0191083	201.673
0.0286624	209.108
0.0414013	213.755
0.0509554	215.613
0.0636943	217.472
0.0764331	218.401
0.105096	217.472
0.143312	218.401
0.159236	219.331
0.181529	219.331
0.200637	219.331
0.302548	220.26
0.404459	222.119
0.503185	223.048
0.605096	224.907
0.700637	223.978
0.802548	224.907
0.901274	225.836
1.00318	226.766
