Adsorption isotherm of Hydrogen on Desolvated C35.50H31CoN3O9.50
DOI: 10.1039/C2sc20443f
Adsorbate Hydrogen: InChIKey UFHFLCQGNIYNRP-UHFFFAOYSA-N
Temperature: 77 K
Tabular data in the source: 0
pressure (bar)	uptake (wt%)
0.0664452	0.75
0.13289	0.971154
0.332226	1.30769
0.531561	1.5
0.797342	1.55769
0.996678	1.59615
1.46179	1.71154
2.0598	1.77885
2.45847	1.82692
3.05648	1.875
3.98671	1.93269
4.98339	1.97115
5.98007	2.00962
6.9103	2.02885
7.97342	2.06731
8.9701	2.08654
9.96678	2.10577
11.4286	2.14423
12.9568	2.15385
14.485	2.19231
15.9468	2.21154
17.4751	2.24038
19.0698	2.25
20	2.27885
