Adsorption isotherm of Carbon Dioxide on Desolvated C35.50H31CoN3O9.50
DOI: 10.1039/C2sc20443f
Adsorbate Carbon Dioxide: InChIKey CURLTUGMZLYLDI-UHFFFAOYSA-N
Temperature: 273 K
Tabular data in the source: 0
pressure (bar)	uptake (mmol/g)
0.0644872	0.084
0.0667949	0.588
0.0689744	1.064
0.104615	1.848
0.105641	2.072
0.106795	2.324
0.238462	3.08
0.336795	3.556
0.56359	4.088
0.693462	4.452
0.951026	4.704
1.04782	4.844
1.56218	5.18
2.0441	5.432
2.52577	5.628
3.03923	5.768
3.55256	5.88
4.03372	5.964
4.51487	6.048
4.9959	6.104
5.54103	6.16
6.02205	6.216
6.56718	6.272
7.0159	6.272
7.49679	6.3
8.04192	6.356
8.52282	6.384
9.03564	6.384
9.51654	6.412
10.0295	6.44
