Adsorption isotherm of Carbon Dioxide on Desolvated C35.50H31CoN3O9.50
DOI: 10.1039/C2sc20443f
Adsorbate Carbon Dioxide: InChIKey CURLTUGMZLYLDI-UHFFFAOYSA-N
Temperature: 195 K
Tabular data in the source: 0
pressure (bar)	uptake (cm3(STP)/g)
0.00955414	163.569
0.022293	170.074
0.0573248	176.58
0.0955414	177.509
0.127389	182.156
0.16879	192.379
0.197452	198.885
0.232484	206.32
0.257962	211.896
0.283439	217.472
0.308917	222.119
0.340764	222.119
0.372611	222.119
0.401274	223.048
0.433121	223.048
0.691083	224.907
0.729299	225.836
0.761146	225.836
0.792994	225.836
0.821656	225.836
0.853503	226.766
0.88535	226.766
0.917197	226.766
0.94586	227.695
0.977707	227.695
1.00318	227.695
