Adsorption isotherm of Nitrogen on PD-COF-23
DOI: 10.1039/d0dt03205k
Article source: Figure S4a
Adsorbate Nitrogen: InChIKey IJGRMHOSHXDMSA-UHFFFAOYSA-N
Kind: experiment
Temperature: 77 K
Tabular data in the source: 0
pressure (bar)	uptake (cm3(STP)/g)
0.005837	0.414938
0.005837	4.56431
0.005837	11.2033
0.008171	17.8423
0.010506	24.4813
0.046694	39.4191
0.099224	52.6971
0.145917	68.8797
0.203117	74.6888
0.25448	78.4232
0.305843	81.7427
0.356038	85.8921
0.406234	89.6266
0.457597	92.5311
0.507792	95.8506
0.559155	98.7552
0.611685	102.49
0.661881	105.394
0.710909	109.129
0.762272	111.618
0.8113	115.768
0.863831	120.747
0.912859	126.556
0.961887	139.004
1.00975	234.855
0.049028	50.2075
0.101558	62.6556
0.151754	79.2531
0.203117	83.4025
0.253312	85.8921
0.304675	89.6266
0.356038	93.361
0.405067	96.2656
0.456429	99.1701
0.505458	102.905
0.556821	105.394
0.608183	108.714
0.659546	112.033
0.709742	114.523
0.759937	117.842
0.808966	121.992
0.861496	126.141
0.910524	132.365
0.963054	148.963
1.00508	236.1
