Adsorption isotherm of Nitrogen on PD-COF-23-Ni
DOI: 10.1039/d0dt03205k
Article source: Figure S4c
Adsorbate Nitrogen: InChIKey IJGRMHOSHXDMSA-UHFFFAOYSA-N
Kind: experiment
Temperature: 77 K
Tabular data in the source: 0
pressure (bar)	uptake (cm3(STP)/g)
0.002295	0
0.003443	13.9535
0.00918	28.6822
0.047048	42.6357
0.098686	55.0388
0.156061	71.3178
0.204257	75.1938
0.257042	79.845
0.306385	83.7209
0.356875	86.8217
0.407366	90.6977
0.457856	94.5736
0.508346	96.8992
0.559984	100
0.609327	103.876
0.659817	107.752
0.710308	111.628
0.763093	116.279
0.811289	121.705
0.860631	127.132
0.911122	137.209
0.959317	162.791
1.00751	458.14
0.05049	51.938
0.100981	64.3411
0.151471	79.845
0.201961	82.9457
0.251304	87.5969
0.301795	90.6977
0.353433	93.7984
0.403923	97.6744
0.455561	100.775
0.507199	104.651
0.556542	108.527
0.607032	111.628
0.657522	115.504
0.708013	119.38
0.759651	123.256
0.810141	129.457
0.861779	137.984
0.911122	151.938
0.96276	192.248
1.00636	458.14
