Adsorption isotherm of Ethane on CuBTC
DOI: 10.1016/j.colsurfa.2014.09.017
Adsorbate Ethane: InChIKey OTMSDBZUPAUEDD-UHFFFAOYSA-N
Temperature: 295 K
Tabular data in the source: 0
pressure (bar)	uptake (mmol/g)
393.182	1.72144
447.727	2.32597
481.818	2.88819
500	3.24917
520.455	3.84962
593.182	6.01114
665.909	7.8936
704.545	8.57596
736.364	8.93857
759.091	9.22036
831.818	9.86693
872.727	10.1908
888.636	10.2724
