Adsorption isotherm of Ethane on CuBTC
DOI: 10.1016/j.colsurfa.2014.09.017
Adsorbate Ethane: InChIKey OTMSDBZUPAUEDD-UHFFFAOYSA-N
Temperature: 295 K
Tabular data in the source: 0
pressure (bar)	uptake (mmol/g)
40.9091	0.32383
395.455	1.72172
447.727	2.32597
481.818	2.92806
497.727	3.20903
518.182	3.84935
593.182	6.05101
663.636	7.85346
706.818	8.57623
736.364	8.93857
759.091	9.26022
834.091	9.90707
877.273	10.1913
893.182	10.2729
