Adsorption isotherm of Methane on CuBTC
DOI: 10.1016/j.colsurfa.2014.09.017
Adsorbate Methane: InChIKey VNWKTOKETHGBQD-UHFFFAOYSA-N
Temperature: 303 K
Tabular data in the source: 0
pressure (bar)	uptake (mmol/g)
3164.27	1.28962
3625.36	1.40884
3876.75	1.58264
4170.07	1.75692
4777.31	2.4476
6700.51	7.71169
7034.56	9.02603
7243.13	10.0541
7452.05	10.7402
7744.54	11.7122
8036.96	12.7412
