Adsorption isotherm of N-Butane on CuBTC
DOI: 10.1016/j.colsurfa.2014.09.017
Adsorbate N-Butane: InChIKey IJDNQMDRQITEOD-UHFFFAOYSA-N
Temperature: 298 K
Tabular data in the source: 0
pressure (bar)	uptake (mmol/g)
0.504808	0.34534
0.697115	0.373904
1.00962	0.404034
1.10577	0.431346
1.29808	0.512027
1.39423	0.51328
1.53846	0.541218
1.68269	0.595214
1.97115	0.677149
3.07692	1.10849
3.38942	1.34709
4.51923	3.23804
5.43269	5.75157
5.81731	6.14746
7.25962	7.00013
7.69231	7.13606
7.98077	7.27011
8.17308	7.29867
8.41346	7.4321
