Adsorption isotherm of N-propane on CuBTC
DOI: 10.1016/j.colsurfa.2014.09.017
Adsorbate N-propane: InChIKey ATUOYWHBWRKTHZ-UHFFFAOYSA-N
Temperature: 323 K
Tabular data in the source: 0
pressure (bar)	uptake (mmol/g)
0.0724638	0.746399
0.396135	1.38762
0.538647	2.15984
0.676329	3.95337
0.758454	5.29979
0.859903	6.55496
0.929952	7.09129
0.956522	7.23985
1.00483	7.47719
