Adsorption isotherm of Ethane on CuBTC
DOI: 10.1016/j.colsurfa.2014.09.017
Adsorbate Ethane: InChIKey OTMSDBZUPAUEDD-UHFFFAOYSA-N
Temperature: 295 K
Tabular data in the source: 0
pressure (bar)	uptake (mmol/g)
38.6364	0.522893
390.909	2.19958
447.727	3.20305
479.545	4.2434
497.727	4.68411
518.182	5.4839
593.182	7.68556
663.636	8.96974
704.545	9.45304
734.091	9.77551
759.091	9.93796
829.545	10.5045
875	10.7093
890.909	10.8308
