Adsorption isotherm of N-propane, N-Butane, Ethane, Methane on CuBTC
DOI: 10.1016/j.colsurfa.2014.09.017
Article source: Figure 6
Adsorbate N-propane: InChIKey ATUOYWHBWRKTHZ-UHFFFAOYSA-N
Adsorbate N-Butane: InChIKey IJDNQMDRQITEOD-UHFFFAOYSA-N
Adsorbate Ethane: InChIKey OTMSDBZUPAUEDD-UHFFFAOYSA-N
Adsorbate Methane: InChIKey VNWKTOKETHGBQD-UHFFFAOYSA-N
Kind: experiment
Isotherm type: excess
Temperature: 298 K
Tabular data in the source: 0
pressure (bar)	N-propane fraction	N-propane uptake (mmol/g)	N-Butane fraction	N-Butane uptake (mmol/g)	Ethane fraction	Ethane uptake (mmol/g)	Methane fraction	Methane uptake (mmol/g)	total uptake (mmol/g)
0.010093	0.009	0.0133	0.007	0.0399	0.1	0.0931	0.884	0.0266	
0.029591	0.009	0.0716	0.007	0.0583	0.1	0.1713	0.884	0.0849	
0.049833	0.009	0.0774	0.007	0.1041	0.1	0.257	0.884	0.0775	
0.069387	0.009	0.1036	0.007	0.1501	0.1	0.3031	0.884	0.1169	
0.099038	0.009	0.143	0.007	0.2227	0.1	0.3823	0.884	0.1496	
0.292766	0.009	0.3076	0.007	0.9459	0.1	0.7065	0.884	0.3276	
0.505452	0.009	0.4997	0.007	1.8627	0.1	0.9319	0.884	0.4265	
0.697975	0.009	0.6255	0.007	2.5537	0.1	1.1042	0.884	0.5191	
0.988007	0.009	0.7314	0.007	3.0851	0.1	1.2434	0.884	0.5984	
2.99419	0.009	0.9027	0.007	3.7285	0.1	1.5609	0.884	0.8295	
4.95998	0.009	0.9551	0.007	3.7344	0.1	1.7663	0.884	1.0615	
6.96306	0.009	0.9546	0.007	3.7206	0.1	1.8921	0.884	1.2073	
10.0203	0.009	0.9475	0.007	3.6669	0.1	2.0445	0.884	1.4328	
19.7479	0.009	0.9797	0.007	3.3933	0.1	2.3294	0.884	2.017	
29.8648	0.009	0.9791	0.007	3.0935	0.1	2.535	0.884	2.5549	
35.5304	0.009	1.0055	0.007	3.0268	0.1	2.6079	0.884	2.7807	
