Adsorption isotherm of N-Butane on CuBTC
DOI: 10.1016/j.colsurfa.2014.09.017
Adsorbate N-Butane: InChIKey IJDNQMDRQITEOD-UHFFFAOYSA-N
Temperature: 298 K
Tabular data in the source: 0
pressure (bar)	uptake (mmol/g)
0.456731	0.136244
0.745192	0.140003
0.961538	0.16888
1.32212	0.199637
1.65865	0.308256
1.97115	0.390504
2.37981	0.474004
3.05288	0.665184
3.38942	0.721686
4.51923	1.38787
5.45673	2.52061
5.76923	3.2022
7.23558	5.87929
7.64423	6.24944
7.95673	6.40986
8.17308	6.54297
8.31731	6.59697
8.46154	6.62491
