Adsorption isotherm of N-propane, N-Butane, Ethane, Methane on CuBTC
DOI: 10.1016/j.colsurfa.2014.09.017
Article source: Figure 6
Adsorbate N-propane: InChIKey ATUOYWHBWRKTHZ-UHFFFAOYSA-N
Adsorbate N-Butane: InChIKey IJDNQMDRQITEOD-UHFFFAOYSA-N
Adsorbate Ethane: InChIKey OTMSDBZUPAUEDD-UHFFFAOYSA-N
Adsorbate Methane: InChIKey VNWKTOKETHGBQD-UHFFFAOYSA-N
Kind: experiment
Temperature: 298 K
Tabular data in the source: 0
pressure (bar)	N-propane fraction	N-propane uptake (mmol/g)	N-Butane fraction	N-Butane uptake (mmol/g)	Ethane fraction	Ethane uptake (mmol/g)	Methane fraction	Methane uptake (mmol/g)	total uptake (mmol/g)
0.010429	0.009	0.0333	0.001	0.0266	0.1	0.1	0.89	0.0199	
0.030931	0.009	0.0925	0.001	0.0259	0.1	0.2192	0.89	0.0716	
0.04987	0.009	0.1188	0.001	0.0255	0.1	0.2788	0.89	0.0909	
0.069894	0.009	0.1253	0.001	0.0453	0.1	0.3452	0.89	0.1236	
0.081741	0.009	0.1252	0.001	0.0452	0.1	0.3712	0.89	0.1234	
0.102925	0.009	0.145	0.001	0.045	0.1	0.4183	0.89	0.1697	
0.305127	0.009	0.3109	0.001	0.1175	0.1	0.6909	0.89	0.3212	
0.508159	0.009	0.4438	0.001	0.2105	0.1	0.9238	0.89	0.4735	
0.705992	0.009	0.5836	0.001	0.3303	0.1	1.1169	0.89	0.6461	
0.80523	0.009	0.6371	0.001	0.3968	0.1	1.2135	0.89	0.7058	
1.02197	0.009	0.79	0.001	0.5167	0.1	1.4033	0.89	0.8253	
2.99916	0.009	1.5359	0.001	1.0959	0.1	2.4025	0.89	1.4427	
4.9916	0.009	1.7155	0.001	1.1822	0.1	2.7355	0.89	1.7614	
6.93362	0.009	1.7886	0.001	1.1753	0.1	2.9219	0.89	1.9673	
8.03822	0.009	1.8018	0.001	1.1485	0.1	3.0152	0.89	2.0802	
10.0314	0.009	1.8083	0.001	1.1083	0.1	3.1283	0.89	2.2862	
19.8116	0.009	1.7678	0.001	0.9612	0.1	3.4678	0.89	3.0572	
30.0774	0.009	1.6675	0.001	0.8209	0.1	3.6342	0.89	3.7022	
34.5525	0.009	1.5941	0.001	0.7741	0.1	3.6741	0.89	4.0148	
39.7045	0.009	1.554	0.001	0.7207	0.1	3.714	0.89	4.2809	
49.0817	0.009	1.4272	0.001	0.6138	0.1	3.7538	0.89	4.793	
