Adsorption isotherm of N-Butane on CuBTC
DOI: 10.1016/j.colsurfa.2014.09.017
Adsorbate N-Butane: InChIKey IJDNQMDRQITEOD-UHFFFAOYSA-N
Temperature: 298 K
Tabular data in the source: 0
pressure (bar)	uptake (mmol/g)
1.08173	0.248622
1.32212	0.277813
1.58654	0.359434
1.68269	0.360687
1.99519	0.52111
2.37981	0.812766
3.02885	1.88963
3.38942	2.88455
4.51923	5.55725
5.40865	6.32454
5.74519	6.45922
7.21154	7.10373
7.69231	7.18817
7.93269	7.34766
8.02885	7.37497
8.26923	7.40416
8.41346	7.37998
