Adsorption isotherm of Methane on CuBTC
DOI: 10.1016/j.colsurfa.2014.09.017
Adsorbate Methane: InChIKey VNWKTOKETHGBQD-UHFFFAOYSA-N
Temperature: 303 K
Tabular data in the source: 0
pressure (bar)	uptake (mmol/g)
4714.66	2.21897
5614.14	4.10956
6157	6.22401
6490.81	7.76628
6699.68	8.5094
6783.23	8.79525
7054.75	9.76701
7284.34	10.7383
7472.36	11.3672
7597.73	11.7675
7744	12.225
7869.37	12.6253
7994.73	13.0256
8120.16	13.3689
8182.69	13.7115
8328.96	14.169
8391.62	14.3976
8537.71	15.0261
8600.3	15.3117
8872.18	15.9416
9123.63	16.0584
9228.09	16.4015
9290.74	16.6301
9374.3	16.9159
