Adsorption isotherm of Ethane on Cu-BTC
DOI: 10.1016/j.colsurfa.2014.09.017
Article source: Figure 3
Adsorbate Ethane: InChIKey OTMSDBZUPAUEDD-UHFFFAOYSA-N
Kind: experiment
Isotherm type: excess
Temperature: 295 K
Tabular data in the source: 0
pressure (bar)	uptake (mmol/g)
0.110673	0
0.263609	0
0.532697	0
0.866403	0
1.52349	0
2.74891	0
3.92392	0
5.22492	0
8.42015	0
10.6424	0
