Adsorption isotherm of Methane on Cu-BTC
DOI: 10.1016/j.colsurfa.2014.09.017
Article source: Figure 3
Adsorbate Methane: InChIKey VNWKTOKETHGBQD-UHFFFAOYSA-N
Kind: experiment
Isotherm type: absolute
Temperature: 303 K
Tabular data in the source: 0
pressure (bar)	uptake (mmol/g)
1.91051	0
5.63832	0
10.1076	0
15.6153	0
20.3587	0
23.3722	0
30.7964	0
40.5789	0
50.7107	0
60.0897	0
70.4612	0
83.493	0
88.044	0
102.153	0
121.046	0
146.521	0
154.508	0
181.155	0
199.32	0
257.128	0
353.509	0
397.283	0
432.464	0
475.773	0
