Adsorption isotherm of Ethane on CuBTC
DOI: 10.1016/j.colsurfa.2014.09.017
Adsorbate Ethane: InChIKey OTMSDBZUPAUEDD-UHFFFAOYSA-N
Temperature: 295 K
Tabular data in the source: 0
pressure (bar)	uptake (mmol/g)
288.636	1.46974
377.273	2.43715
452.273	3.9212
504.545	5.00387
563.636	6.12721
627.273	6.93217
661.364	7.25518
690.909	7.53778
738.636	7.86243
770.455	7.98584
