Adsorption isotherm of N-propane on CuBTC
DOI: 10.1016/j.colsurfa.2014.09.017
Article source: Figure 3
Adsorbate N-propane: InChIKey ATUOYWHBWRKTHZ-UHFFFAOYSA-N
Kind: experiment
Isotherm type: absolute
Temperature: 323 K
Tabular data in the source: 0
pressure (bar)	uptake (mmol/g)
0.015478	0.4733
0.03833	0.9707
0.064863	1.6744
0.094445	2.4682
0.135469	3.8518
0.18762	4.9662
0.255965	5.5038
0.345716	5.8491
0.416141	6.0281
0.503408	6.1558
0.605927	6.2578
0.70068	6.3856
0.826647	6.539
0.909201	6.5131
1	6.6282
