Adsorption isotherm of N-propane on CuBTC
DOI: 10.1016/j.colsurfa.2014.09.017
Adsorbate N-propane: InChIKey ATUOYWHBWRKTHZ-UHFFFAOYSA-N
Temperature: 303 K
Tabular data in the source: 0
pressure (bar)	uptake (mmol/g)
313.506	0.915254
3164.33	1.23264
3583.43	1.40836
3897.77	1.5259
4232.96	1.75764
4777.61	2.16271
5342.8	2.96687
5677.51	3.65444
5907.4	4.34083
6137.47	4.85627
6701.23	7.02793
7014.26	8.39902
7285.83	9.3138
7473.74	10.0567
7745.31	10.9715
8058.7	12.0007
