Adsorption isotherm of N-Butane on CuBTC
DOI: 10.1016/j.colsurfa.2014.09.017
Adsorbate N-Butane: InChIKey IJDNQMDRQITEOD-UHFFFAOYSA-N
Temperature: 298 K
Tabular data in the source: 0
pressure (bar)	uptake (mmol/g)
0.456731	0.918003
0.721154	1.10386
1.03365	1.47275
1.08173	1.8382
1.22596	2.17884
1.29808	2.38825
1.34615	2.59734
1.51442	3.04253
1.65865	3.69588
1.99519	4.1172
2.37981	4.43492
3.02885	4.75608
3.38942	4.86501
4.47115	5.13969
5.40865	5.38643
5.81731	5.62628
7.23558	5.98353
7.69231	6.09371
7.95673	6.14927
8.14904	6.22995
8.24519	6.25727
8.38942	6.25915
8.48558	6.18222
