Adsorption isotherm of N-propane on CuBTC
DOI: 10.1016/j.colsurfa.2014.09.017
Adsorbate N-propane: InChIKey ATUOYWHBWRKTHZ-UHFFFAOYSA-N
Temperature: 303 K
Tabular data in the source: 0
pressure (bar)	uptake (mmol/g)
313.625	0.801295
3164.03	1.51754
3583.07	1.75023
3876.27	2.03848
4169.47	2.32672
4755.45	3.30206
5319.99	4.73299
5675.12	5.93362
5925.74	6.84816
6092.73	7.53382
6677.28	9.87666
7032.41	11.0773
7157.66	11.5915
