Adsorption isotherm of N-Butane on Cu-BTC
DOI: 10.1016/j.colsurfa.2014.09.017
Article source: Figure 3
Adsorbate N-Butane: InChIKey IJDNQMDRQITEOD-UHFFFAOYSA-N
Kind: experiment
Isotherm type: excess
Temperature: 298 K
Tabular data in the source: 0
pressure (bar)	uptake (mmol/g)
0.001094	0
0.001391	0
0.001832	0
0.002006	0
0.002328	0
0.002464	0
0.002579	0
0.002955	0
0.003506	0
0.004722	0
0.00666	0
0.012963	0
0.017881	0
0.050292	0
0.120448	0
0.169942	0
0.690399	0
1.06832	0
1.39155	0
1.63418	0
1.87586	0
2.12912	0
2.33453	0
