Adsorption isotherm of N-propane on CuBTC
DOI: 10.1016/j.colsurfa.2014.09.017
Adsorbate N-propane: InChIKey ATUOYWHBWRKTHZ-UHFFFAOYSA-N
Temperature: 323 K
Tabular data in the source: 0
pressure (bar)	uptake (mmol/g)
0.152174	0.441311
0.338164	0.940651
0.444444	1.62496
0.521739	2.43113
0.596618	3.86807
0.661836	4.91521
0.717391	5.45241
0.785024	5.83874
0.826087	6.04648
0.862319	6.1344
0.898551	6.25234
0.927536	6.40075
0.961353	6.48881
0.978261	6.48779
1.00242	6.60646
