Adsorption isotherm of N-Butane on CuBTC
DOI: 10.1016/j.colsurfa.2014.09.017
Adsorbate N-Butane: InChIKey IJDNQMDRQITEOD-UHFFFAOYSA-N
Temperature: 298 K
Tabular data in the source: 0
pressure (bar)	uptake (mmol/g)
0.480769	0.110499
0.721154	0.165748
0.985577	0.195252
1.10577	0.222876
1.27404	0.19901
1.37019	0.200263
1.51442	0.25426
1.65865	0.282197
1.99519	0.3387
2.35577	0.473691
3.05288	0.691243
3.38942	0.773804
4.54327	1.38819
5.36058	2.51936
5.79327	3.17646
7.25962	5.8796
7.66827	6.27581
7.93269	6.35743
8.10096	6.46386
8.29327	6.59665
8.4375	6.65065
