Adsorption isotherm of N-propane on CuBTC
DOI: 10.1016/j.colsurfa.2014.09.017
Adsorbate N-propane: InChIKey ATUOYWHBWRKTHZ-UHFFFAOYSA-N
Temperature: 323 K
Tabular data in the source: 0
pressure (bar)	uptake (mmol/g)
0.0724638	0.506158
0.39372	0.967344
0.536232	1.43927
0.678744	2.18146
0.758454	2.92742
0.859903	4.18259
0.929952	5.07928
0.956522	5.46808
1	5.85586
