Adsorption isotherm of Methane on CuBTC
DOI: 10.1016/j.colsurfa.2014.09.017
Adsorbate Methane: InChIKey VNWKTOKETHGBQD-UHFFFAOYSA-N
Temperature: 323 K
Tabular data in the source: 0
pressure (bar)	uptake (mmol/g)
3185.35	1.1759
3604.39	1.4086
3897.83	1.46892
4170.07	1.75692
4798.27	2.44784
5321.54	3.25153
5698.12	3.99656
5906.98	4.73968
6136.93	5.36908
6700.69	7.54075
7034.68	8.91208
7139.15	9.25515
7264.39	9.76939
7494.28	10.4558
7723.99	11.3131
8016.71	12.0572
