Adsorption isotherm of N-propane, N-Butane, Ethane, Methane on CuBTC
DOI: 10.1016/j.colsurfa.2014.09.017
Article source: Figure 6
Adsorbate N-propane: InChIKey ATUOYWHBWRKTHZ-UHFFFAOYSA-N
Adsorbate N-Butane: InChIKey IJDNQMDRQITEOD-UHFFFAOYSA-N
Adsorbate Ethane: InChIKey OTMSDBZUPAUEDD-UHFFFAOYSA-N
Adsorbate Methane: InChIKey VNWKTOKETHGBQD-UHFFFAOYSA-N
Kind: experiment
Temperature: 298 K
Tabular data in the source: 0
pressure (bar)	N-propane fraction	N-propane uptake (mmol/g)	N-Butane fraction	N-Butane uptake (mmol/g)	Ethane fraction	Ethane uptake (mmol/g)	Methane fraction	Methane uptake (mmol/g)	total uptake (mmol/g)
0.010177	0.009	0.0269	0.007	0.0269	0.05	0.0539	0.934	0.0337	
0.030325	0.009	0.0412	0.007	0.0749	0.05	0.1086	0.934	0.0614	
0.051267	0.009	0.0685	0.007	0.1022	0.05	0.1493	0.934	0.082	
0.070366	0.009	0.1024	0.007	0.1765	0.05	0.1967	0.934	0.1226	
0.102386	0.009	0.1566	0.007	0.2104	0.05	0.2576	0.934	0.1498	
0.29755	0.009	0.3527	0.007	0.9116	0.05	0.4469	0.934	0.3526	
0.511493	0.009	0.5618	0.007	1.8412	0.05	0.5752	0.934	0.4945	
0.696242	0.009	0.7102	0.007	2.6428	0.05	0.6563	0.934	0.589	
1.01307	0.009	0.8384	0.007	3.229	0.05	0.7509	0.934	0.67	
3.0693	0.009	1.0614	0.007	3.9503	0.05	0.9739	0.934	0.9604	
4.97691	0.009	1.0685	0.007	4.0584	0.05	1.0753	0.934	1.1897	
7.12197	0.009	1.1159	0.007	4.0789	0.05	1.1294	0.934	1.3247	
10.1074	0.009	1.1498	0.007	3.9646	0.05	1.2037	0.934	1.6414	
20.0189	0.009	1.2177	0.007	3.7362	0.05	1.3322	0.934	2.3019	
30.1162	0.009	1.1978	0.007	3.5278	0.05	1.4941	0.934	2.8207	
34.9881	0.009	1.1642	0.007	3.3393	0.05	1.5077	0.934	3.144	
