Adsorption isotherm of N-propane on CuBTC
DOI: 10.1016/j.colsurfa.2014.09.017
Adsorbate N-propane: InChIKey ATUOYWHBWRKTHZ-UHFFFAOYSA-N
Temperature: 323 K
Tabular data in the source: 0
pressure (bar)	uptake (mmol/g)
0.0724638	0.746399
0.396135	1.47771
0.536232	2.34017
0.673913	4.19376
0.758454	5.57006
0.859903	7.00541
0.929952	7.69189
0.956522	7.87048
1	8.25826
