Adsorption isotherm of Ethane on CuBTC
DOI: 10.1016/j.colsurfa.2014.09.017
Adsorbate Ethane: InChIKey OTMSDBZUPAUEDD-UHFFFAOYSA-N
Temperature: 295 K
Tabular data in the source: 0
pressure (bar)	uptake (mmol/g)
38.6364	0.203957
393.182	2.08025
447.727	3.00371
484.091	4.00474
495.455	4.3649
518.182	5.04536
590.909	7.08728
663.636	8.292
706.818	8.89517
736.364	9.17777
765.909	9.46037
834.091	10.0267
