Adsorption isotherm of Nitrogen on PAN
DOI: 10.1007/s12221-014-0200-5
Adsorbate Nitrogen: InChIKey IJGRMHOSHXDMSA-UHFFFAOYSA-N
Temperature: 77 K
Tabular data in the source: 0
pressure (bar)	uptake (cm3(STP)/g)
0.0106526	0.48245
0.0119309	0.494025
0.0127832	0.507056
0.0140615	0.517182
0.0151268	0.52876
0.016192	0.540338
0.0172573	0.553366
0.0183225	0.564944
0.0196008	0.576519
0.0208791	0.586645
0.0221575	0.59822
0.0234358	0.609795
0.0247141	0.619921
0.0259924	0.631496
0.0274838	0.641619
0.0289752	0.651742
0.0304665	0.661864
0.0319579	0.670538
0.0334492	0.68066
0.0343015	0.684996
0.0357928	0.693669
0.0377103	0.702336
0.0392017	0.70956
0.0411192	0.716778
0.0428235	0.723999
0.044528	0.732669
0.0462324	0.738441
0.0481499	0.745659
0.0498543	0.752879
0.0517718	0.758648
0.0534762	0.765869
0.0547545	0.770198
0.056672	0.775966
0.0585895	0.781735
0.0602939	0.788956
0.0624244	0.794721
0.0641289	0.800493
0.0660464	0.806261
0.0681768	0.810577
0.0700943	0.814896
0.0720118	0.819216
0.0739293	0.822086
0.0760598	0.824952
0.0779773	0.827822
0.0801077	0.830689
0.0820252	0.835008
0.0839427	0.840777
0.0858602	0.845096
0.0877777	0.850864
0.0899082	0.855181
0.0916126	0.860952
0.0937431	0.865268
0.0954476	0.87104
0.0973648	0.875359
