Adsorption isotherm of Nitrogen on PAN/MOF-199
DOI: 10.1007/s12221-014-0200-5
Adsorbate Nitrogen: InChIKey IJGRMHOSHXDMSA-UHFFFAOYSA-N
Temperature: 77 K
Tabular data in the source: 0
pressure (bar)	uptake (cm3(STP)/g)
0.0191056	36.6786
0.0258439	39.7131
0.0298198	42.7459
0.0337958	45.7787
0.040534	48.8132
0.04451	51.8459
0.048486	54.8787
0.052462	57.9115
0.0619625	60.9477
0.0817169	63.3843
0.105802	64.9145
0.131856	65.8398
0.160274	66.4636
0.188294	66.7841
0.215916	66.8014
0.243937	67.1219
0.269195	67.4407
0.296817	67.4579
0.324837	67.7784
0.35246	67.7956
0.38048	68.1161
0.408103	68.1334
0.436123	68.4539
0.463745	68.4711
0.489004	68.7899
0.517024	69.1104
0.544647	69.1276
0.572666	69.4482
0.60029	69.4654
0.628309	69.7859
0.655931	69.8031
0.68119	70.1219
0.708812	70.1391
0.736833	70.4597
0.764455	70.4769
0.792476	70.7974
0.820495	71.1179
0.848516	71.4384
0.873773	71.7572
0.902191	72.381
0.927847	73.0031
0.956265	73.6268
0.980351	75.157
1.0001	77.5936
1.01513	80.6333
1.02699	83.3679
1.03925	86.4059
1.05113	89.1406
1.06339	92.1785
1.07525	94.9132
