Adsorption isotherm of Nitrogen on COF-LZUI
DOI: 10.1021/ja206846p
Article source: Figure 7
Adsorbate Nitrogen: InChIKey IJGRMHOSHXDMSA-UHFFFAOYSA-N
Kind: experiment
Temperature: 77 K
Tabular data in the source: 0
pressure (bar)	uptake (cm3(STP)/g)
0.001631	18.9691
0.001631	30.5155
0.003263	38.7629
0.001631	47.0103
0.001631	56.0825
0.002452	65.9794
0.004894	75.0516
0.009788	83.299
0.011419	90.7216
0.049761	103.093
0.07342	107.216
0.083218	108.041
0.104426	110.515
0.12156	112.165
0.138694	113.814
0.156638	115.052
0.173772	116.289
0.201505	117.938
0.225164	119.588
0.261064	121.649
0.296143	123.299
0.333673	124.948
0.371194	127.01
0.406283	128.66
0.441362	130.309
0.478072	132.371
0.51234	134.433
0.548229	135.258
0.583308	137.732
0.619207	139.381
0.655107	141.031
0.689365	143.918
0.725264	145.567
0.760343	148.454
0.796242	151.753
0.832142	155.052
0.86722	160
0.902299	167.01
0.936567	179.381
0.970015	208.66
0.051392	129.072
0.087291	132.784
0.12237	135.258
0.15827	137.732
0.192538	139.381
0.228427	141.031
0.264327	141.856
0.299405	143.505
0.334484	144.33
0.370383	145.567
0.404652	146.804
0.441362	148.041
0.47644	150.103
0.51234	151.753
0.547418	153.402
0.583308	154.227
0.618397	155.876
0.654286	156.701
0.690185	158.351
0.725264	160
0.761164	162.062
0.797053	164.536
0.836215	168.247
0.856612	171.546
0.905562	184.33
0.937378	204.124
0.97654	269.278
1.00509	353.814
