Adsorption isotherm of Nitrogen on pd/COF-LZUI
DOI: 10.1021/ja206846p
Article source: Figure 7
Adsorbate Nitrogen: InChIKey IJGRMHOSHXDMSA-UHFFFAOYSA-N
Kind: experiment
Temperature: 77 K
Tabular data in the source: 0
pressure (bar)	uptake (cm3(STP)/g)
0.009788	28.866
0.050581	36.2887
0.067715	36.701
0.093006	37.9381
0.105236	39.5876
0.12237	39.5876
0.138694	40.4124
0.156638	41.2371
0.174583	42.0619
0.201505	42.4742
0.228427	42.0619
0.261874	43.7113
0.298595	44.5361
0.336115	44.5361
0.370383	45.7732
0.406283	46.1856
0.442172	47.0103
0.477251	47.835
0.51315	48.2474
0.548229	48.6598
0.584128	49.0722
0.619207	49.8969
0.654286	51.134
0.691817	51.134
0.726895	53.6082
0.761164	54.0206
0.796242	54.433
0.832952	56.4949
0.868031	58.5567
0.90311	62.268
0.938199	68.4536
0.973277	80.8247
0.051392	47.0103
0.087291	48.6598
0.12237	49.4845
0.15827	50.3093
0.194169	51.134
0.228427	51.9588
0.264327	51.9588
0.300226	52.7835
0.334484	52.7835
0.370383	53.1959
0.406283	53.6082
0.441362	54.0206
0.477251	54.8454
0.51234	55.2577
0.548229	55.6701
0.583308	55.6701
0.619207	56.0825
0.655107	56.0825
0.690185	57.3196
0.726085	57.732
0.761974	58.5567
0.797053	59.3814
0.832952	61.4433
0.868852	63.9175
0.90393	68.866
0.940641	80
0.975719	101.031
1.00346	129.485
