Adsorption isotherm of GRGDS on homo-PAA brushes
DOI: 10.1021/acsomega.6b00450
Article source: Figure 5
Adsorbate GRGDS: InChIKey RGNVSYKVCGAEHK-GUBZILKMSA-N
Kind: experiment
Temperature: 298 K
Tabular data in the source: 0
pressure (bar)	uptake (mg/m2)
1.01325	9.9273
1.01325	12.1606
1.01325	14.0121
1.01325	14.585
