Adsorption isotherm of GRGDS on homo-PAA brushes
DOI: 10.1021/acsomega.6b00450
Article source: Figure 5
Adsorbate GRGDS: InChIKey RGNVSYKVCGAEHK-GUBZILKMSA-N
Kind: experiment
Temperature: 277 K
Tabular data in the source: 0
pressure (bar)	uptake (mg/m2)
1.01325	3.8404
1.01325	3.9395
1.01325	4.7363
1.01325	4.9933
