Adsorption isotherm of Carbon Dioxide on CNT double 2.5nm
DOI: 10.1021/jp403624c
Article source: Figure 4
Adsorbate Carbon Dioxide: InChIKey CURLTUGMZLYLDI-UHFFFAOYSA-N
Kind: experiment
Isotherm type: excess
Temperature: 303 K
Tabular data in the source: 0
pressure (bar)	uptake (mmol/g)
0.207792	0.127592
0.987013	0.350877
1.92208	0.669856
2.96104	1.02073
4.83117	1.4992
9.2987	2.67943
14.4416	3.70016
25.039	5.35885
32.9351	6.63477
38.4935	7.27273
