Adsorption isotherm of Nitrogen on Carbon Nanotube
DOI: 10.1021/jp403624c
Article source: Figure 3
Adsorbate Nitrogen: InChIKey IJGRMHOSHXDMSA-UHFFFAOYSA-N
Kind: experiment
Temperature: 77 K
Tabular data in the source: 0
pressure (bar)	uptake (cm3(STP)/g)
0.0256	148.643
0.0384	155.324
0.0608	162.004
0.096	170.355
0.1264	178.706
0.1552	185.386
0.2	198.747
0.2352	208.768
0.2432	217.119
0.28	223.8
0.2944	235.491
0.3184	238.831
0.3456	250.522
0.3728	262.213
0.3968	270.564
0.3984	277.244
0.4368	287.265
0.4464	300.626
0.4784	303.967
0.5024	320.668
0.5168	318.998
0.5328	330.689
0.5584	334.029
0.56	340.71
0.5808	347.39
0.5984	347.39
0.6	354.071
0.6224	362.422
0.6256	359.081
0.6432	370.772
0.6448	365.762
0.6672	372.443
0.6864	380.793
0.7024	394.154
0.7072	387.474
0.7248	395.825
0.752	420.877
0.76	415.866
0.7952	435.908
0.7968	447.599
0.8512	492.693
0.8976	527.766
0.8992	556.159
0.9312	626.305
0.9504	611.273
0.9744	728.184
0.9856	741.545
