Adsorption isotherm of Nitrogen on ZnPc-pz COF
DOI: 10.1021/jacs.9b07644
Article source: Figure 2(b)
Adsorbate Nitrogen: InChIKey IJGRMHOSHXDMSA-UHFFFAOYSA-N
Kind: experiment
Temperature: 77 K
Tabular data in the source: 0
pressure (bar)	uptake (cm3(STP)/g)
0.000993	7.74336
0.000993	15.4867
0.000993	30.9734
0.000993	49.5575
0.004945	60.3982
0.008896	72.7876
0.012848	80.531
0.018786	89.823
0.032627	100.664
0.054371	108.407
0.078091	114.602
0.105773	120.796
0.127518	125.442
0.153224	128.54
0.176944	134.735
0.198698	136.283
0.225387	140.155
0.248125	147.124
0.271845	148.673
0.297551	151.77
0.319295	154.867
0.346977	156.416
0.372673	157.965
0.396404	161.062
0.416172	165.708
0.439902	168.805
0.467574	173.451
0.494263	175.774
0.518987	177.323
0.542707	179.646
0.566427	184.292
0.588181	185.841
0.611902	187.389
0.63167	188.938
0.657376	190.487
0.681107	194.358
0.706803	196.681
0.728547	199.779
0.750301	199.779
0.774022	204.425
0.801704	213.717
0.833337	215.265
0.861019	216.814
0.88474	219.911
0.001976	94.469
0.024713	126.991
0.046458	134.735
0.07414	140.929
0.095884	145.575
0.115662	148.673
0.141359	151.77
0.165089	154.867
0.187826	160.288
0.210553	162.611
0.23626	164.159
0.25999	167.257
0.28371	168.805
0.303479	170.354
0.327209	171.903
0.348953	175
0.374659	175.774
0.399372	180.42
0.42211	181.195
0.443854	184.292
0.467574	187.389
0.491305	190.487
0.513049	190.487
0.536779	193.584
0.564451	195.133
0.586206	196.681
0.605974	196.681
0.633656	199.779
0.657376	201.327
0.685058	204.425
0.706803	205.973
0.731516	209.071
0.752277	209.071
0.775998	212.168
0.81752	215.265
0.853106	219.911
0.87485	221.46
0.911429	224.558
