Adsorption isotherm of Nitrogen on CuBTC
DOI: 10.1002/app.42764
Article source: Figure 2- N2
Adsorbate Nitrogen: InChIKey IJGRMHOSHXDMSA-UHFFFAOYSA-N
Kind: experiment
Temperature: 77 K
Tabular data in the source: 0
pressure (bar)	uptake (cm3(STP)/g)
0	401.329
9.1e-05	391.384
0.000263	197.245
0.000527	337.15
0.000608	184.874
0.000699	404.482
0.00079	396.818
0.000963	218.201
0.001054	232.706
0.001226	252.886
0.002361	406.568
0.004458	411.371
0.009271	414.33
0.023224	420.668
0.024318	420.345
0.049457	428.552
0.050338	429.224
0.075355	439.676
0.076784	440.837
0.10015	449.027
0.125836	453.125
0.126606	453.183
0.148867	455.872
0.14986	456.056
0.176316	458.345
0.17664	458.378
0.20188	460.701
0.202326	460.757
0.227667	463.049
0.228113	463.085
0.253242	464.735
0.253353	464.742
0.277266	465.946
0.278482	466.018
0.304046	467.913
0.304269	467.934
0.32808	469.624
0.32885	470.113
0.352986	470.866
0.353422	470.908
0.377456	472.678
0.377567	472.68
0.403679	473.536
0.404783	473.842
0.430135	474.942
0.455811	475.797
0.480939	477.631
0.505298	478.67
0.52994	479.48
0.556183	480.305
0.581545	481.129
0.606572	482.148
0.632552	483.167
0.657832	483.797
0.682414	484.283
0.708039	485.204
0.733411	486.126
0.758519	487.048
0.785026	487.63
0.80908	487.63
0.834796	488.988
0.860513	489.134
0.885449	490.152
0.910729	490.928
0.936537	491.214
0.936618	491.22
0.960936	492.626
0.986044	493.548
1.00511	497.138
