Adsorption isotherm of Ethane on (Cr)-MIL-101-SO3Ag
DOI: 10.1039/c4cc09679g
Article source: Figure 1
Adsorbate Ethane: InChIKey OTMSDBZUPAUEDD-UHFFFAOYSA-N
Kind: experiment
Temperature: 303 K
Tabular data in the source: 0
pressure (bar)	uptake (mmol/g)
0.004224	0.008993
0.025312	0.089928
0.049221	0.170863
0.078794	0.22482
0.09992	0.260791
0.122457	0.296763
0.153441	0.350719
0.174582	0.368705
0.199947	0.395683
0.223902	0.422662
0.244998	0.494604
0.273199	0.503597
0.298579	0.51259
0.323936	0.548561
0.356338	0.593525
0.407084	0.629496
0.442322	0.656475
0.469074	0.710432
0.507141	0.728417
0.531088	0.764388
0.559289	0.773381
0.584647	0.809353
0.610012	0.836331
0.633966	0.863309
0.65651	0.890288
0.683286	0.917266
0.704427	0.935252
0.721337	0.953237
0.749523	0.980216
0.770664	0.998201
0.794634	1.00719
0.811537	1.03417
0.834073	1.07014
0.858043	1.07914
0.884826	1.09712
0.908781	1.1241
0.935549	1.16007
0.967973	1.17806
0.993346	1.19604
1.01729	1.24101
