Adsorption isotherm of Ethene on (Cr)-MIL-101-SO3Ag
DOI: 10.1039/c4cc09679g
Article source: Figure 1
Adsorbate Ethene: InChIKey VGGSQFUCUMXWEO-UHFFFAOYSA-N
Kind: experiment
Temperature: 303 K
Tabular data in the source: 0
pressure (bar)	uptake (mmol/g)
0.001412	0.036023
0.008475	0.117041
0.014124	0.198071
0.025424	0.270041
0.049435	0.395951
0.076271	0.503817
0.09887	0.638749
0.122881	0.728623
0.146893	0.836514
0.175141	0.92635
0.193503	1.01627
0.223164	1.13312
0.248588	1.21398
0.271186	1.29485
0.298023	1.37569
0.322034	1.45656
0.346045	1.52841
0.378531	1.63623
0.398305	1.67209
0.419492	1.78
0.446328	1.85183
0.474576	1.89663
0.495763	1.97752
0.522599	2.04935
0.54096	2.08522
0.567797	2.14804
0.594633	2.20185
0.618644	2.29172
0.641243	2.31855
0.672316	2.39034
0.69209	2.45322
0.717514	2.50705
0.742938	2.55187
0.772599	2.58763
0.793785	2.63249
0.817797	2.69534
0.840395	2.72216
0.865819	2.76697
0.892655	2.81178
0.919492	2.86559
0.940678	2.90144
0.967514	2.94624
0.991525	2.97305
1.01695	3.01787
