Adsorption isotherm of Propene on (Cr)-MIL-101-SO3Ag
DOI: 10.1039/c4cc09679g
Article source: Figure 1
Adsorbate Propene: InChIKey QQONPFPTGQHPMA-UHFFFAOYSA-N
Kind: experiment
Temperature: 303 K
Tabular data in the source: 0
pressure (bar)	uptake (mmol/g)
0	0.28777
0.002821	0.476593
0.004231	0.755358
0.009873	1.05207
0.025388	1.23179
0.049365	1.49236
0.070522	1.69001
0.09591	1.84266
0.122708	2.06724
0.148096	2.18392
0.170663	2.30962
0.19464	2.42631
0.218618	2.55199
0.245416	2.65067
0.267983	2.75838
0.293371	2.8301
0.320169	2.91079
0.344147	2.99151
0.368124	3.06324
0.393512	3.14394
0.421721	3.21563
0.448519	3.27834
0.471086	3.34109
0.496474	3.39482
0.51622	3.45759
0.538787	3.49336
0.566996	3.56505
0.592384	3.60978
0.61354	3.65455
0.643159	3.70824
0.667137	3.75299
0.692525	3.80672
0.713681	3.83351
0.7433	3.89619
0.764457	3.93197
0.791255	3.9767
0.815233	4.00346
0.840621	4.06618
0.864598	4.09294
0.897038	4.12862
0.912553	4.17345
0.943583	4.20015
0.963329	4.23594
0.987306	4.2717
1.01551	4.30741
