Adsorption isotherm of Ethene on (Cr)-MIL-101-SO3Ag
DOI: 10.1039/c4cc09679g
Article source: Figure 1
Adsorbate Ethene: InChIKey VGGSQFUCUMXWEO-UHFFFAOYSA-N
Kind: experiment
Temperature: 303 K
Tabular data in the source: 0
pressure (bar)	uptake (mmol/g)
0.004062	0.621622
0.00412	0.414414
0.005505	0.513514
0.012503	0.738739
0.018127	0.828829
0.023749	0.927928
0.04772	1.07207
0.071706	1.16216
0.097104	1.25225
0.12533	1.33333
0.149323	1.3964
0.174734	1.44144
0.202965	1.5045
0.224139	1.54955
0.246725	1.59459
0.277783	1.64865
0.293304	1.7027
0.322955	1.73874
0.344126	1.79279
0.369535	1.84685
0.397778	1.86486
0.428842	1.9009
0.448605	1.93694
0.475429	1.98198
0.492368	2.01802
0.516377	2.02703
0.543205	2.05405
0.568616	2.0991
0.596852	2.14414
0.618031	2.17117
0.642034	2.1982
0.67027	2.24324
0.694279	2.25225
0.716863	2.30631
0.743694	2.32432
0.764875	2.34234
0.790284	2.3964
0.819942	2.40541
0.841118	2.44144
0.863709	2.46847
0.890541	2.48649
0.914539	2.53153
0.939958	2.54955
0.961137	2.57658
0.9922	2.61261
1.02044	2.63063
