Adsorption isotherm of Ethane on JNU-2
DOI: 10.1021/jacs.9b10923
Article source: Figure S22
Adsorbate Ethane: InChIKey OTMSDBZUPAUEDD-UHFFFAOYSA-N
Kind: experiment
Temperature: 298 K
Tabular data in the source: 0
pressure (bar)	uptake (mmol/g)
0.00982	0.167
0.0352	0.478
0.0538	0.669
0.0853	0.938
0.0998	1.04
0.122	1.2
0.144	1.35
0.166	1.49
0.19	1.62
0.212	1.74
0.235	1.86
0.257	1.97
0.281	2.09
0.302	2.18
0.327	2.3
0.349	2.39
0.371	2.48
0.393	2.58
0.416	2.66
0.438	2.74
0.461	2.83
0.483	2.9
0.505	2.98
0.529	3.05
0.551	3.11
0.574	3.19
0.595	3.24
0.607	3.28
0.625	3.33
0.641	3.37
0.663	3.43
0.686	3.48
0.708	3.53
0.731	3.59
0.752	3.64
0.777	3.69
0.797	3.73
0.821	3.78
0.843	3.81
0.864	3.86
0.888	3.9
0.91	3.93
0.932	3.98
0.956	4.01
0.977	4.05
1.01	4.1
