Adsorption isotherm of Ethane, Ethene on JNU-2
DOI: 10.1021/jacs.9b10923
Article source: Figure 5, Table S7
Adsorbate Ethane: InChIKey OTMSDBZUPAUEDD-UHFFFAOYSA-N
Adsorbate Ethene: InChIKey VGGSQFUCUMXWEO-UHFFFAOYSA-N
Kind: experiment
Temperature: 298 K
Tabular data in the source: 0
pressure (bar)	Ethane fraction	Ethane uptake (cm3(STP)/g)	Ethene fraction	Ethene uptake (cm3(STP)/g)	total uptake (cm3(STP)/g)
1	0.5	92	0.5	81	
