Adsorption isotherm of Ethene on JNU-2
DOI: 10.1021/jacs.9b10923
Article source: Figure S23
Adsorbate Ethene: InChIKey VGGSQFUCUMXWEO-UHFFFAOYSA-N
Kind: experiment
Temperature: 298 K
Tabular data in the source: 0
pressure (bar)	uptake (mmol/g)
0.00982	0.164
0.0352	0.472
0.0543	0.667
0.0853	0.933
0.0993	1.04
0.122	1.2
0.144	1.35
0.166	1.49
0.189	1.61
0.212	1.74
0.235	1.86
0.257	1.97
0.282	2.09
0.302	2.19
0.327	2.29
0.349	2.39
0.371	2.48
0.393	2.57
0.416	2.66
0.438	2.74
0.461	2.82
0.483	2.9
0.505	2.97
0.529	3.05
0.551	3.11
0.573	3.18
0.596	3.24
0.607	3.28
0.625	3.32
0.641	3.36
0.663	3.42
0.685	3.48
0.708	3.53
0.731	3.58
0.752	3.63
0.777	3.68
0.798	3.72
0.821	3.77
0.843	3.81
0.865	3.86
0.888	3.9
0.911	3.93
0.932	3.97
0.956	4
0.977	4.05
1.01	4.1
