Adsorption isotherm of Carbon Dioxide on C214H180O24N2
DOI: 10.1039/c7cp02993d
Article source: Figure 12
Adsorbate Carbon Dioxide: InChIKey CURLTUGMZLYLDI-UHFFFAOYSA-N
Kind: experiment
Temperature: 263 K
Tabular data in the source: 0
pressure (bar)	uptake (molecules/unitcell)
9.992	9.0027
19.555	9.7087
28.378	10.0189
38.891	10.3871
47.718	10.5717
57.679	10.573
66.886	10.6128
76.284	10.5947
85.864	10.7504
95.255	10.9158
104.849	10.637
114.237	10.9182
123.634	10.9194
133.029	10.9786
142.612	11.0377
152.572	11.039
161.213	11.1657
171.177	11.08
180.569	11.2164
189.966	11.208
199.742	11.1127
