Adsorption isotherm of Water on C214H180O24N2
DOI: 10.1039/c7cp02993d
Article source: Figure 12
Adsorbate Water: InChIKey XLYOFNOQVPJJNP-UHFFFAOYSA-N
Kind: experiment
Temperature: 353 K
Tabular data in the source: 0
pressure (bar)	uptake (molecules/unitcell)
10.046	10.1716
19.18	12.2029
28.543	12.8003
38.735	11.1967
48.601	10.9556
57.119	12.1609
66.985	11.9932
76.171	11.8884
85.522	11.3329
96.075	11.773
104.759	12.601
114.795	12.3809
124.991	11.1756
133.34	12.4647
141.676	12.4542
152.219	11.9931
161.987	13.2077
171.443	13.6236
181.166	13.6735
190.615	13.374
201.144	13.0579
