Adsorption isotherm of Carbon Dioxide on C214H180O24N2
DOI: 10.1039/c7cp02993d
Article source: Figure 12
Adsorbate Carbon Dioxide: InChIKey CURLTUGMZLYLDI-UHFFFAOYSA-N
Kind: experiment
Temperature: 323 K
Tabular data in the source: 0
pressure (bar)	uptake (molecules/unitcell)
9.398	6.2704
19.308	7.3908
29	7.9273
38.217	8.4759
47.451	8.4893
58.33	8.9286
66.613	9.0513
76.079	9.235
85.305	9.4917
95.015	9.4564
104.953	9.6767
113.719	9.5197
124.367	9.7522
133.122	9.9479
144.253	9.8764
151.828	9.9382
161.535	9.9759
171.479	10.0137
180.003	10.0148
190.187	9.9553
198.942	10.1511
