Adsorption isotherm of Methane on C214H180O24N2
DOI: 10.1039/c7cp02993d
Article source: Figure 12
Adsorbate Methane: InChIKey VNWKTOKETHGBQD-UHFFFAOYSA-N
Kind: experiment
Temperature: 303 K
Tabular data in the source: 0
pressure (bar)	uptake (molecules/unitcell)
10.032	0.9381
19.655	1.6188
29.281	2.226
38.316	2.7884
48.062	3.2976
57.632	3.7496
67.203	4.1567
76.775	4.5147
85.992	4.8728
95.683	5.2064
105.256	5.5481
114.83	5.8408
123.932	6.06
133.388	6.3119
142.58	6.556
151.869	6.7751
162.284	7.0135
171.666	7.265
180.675	7.3998
190.527	7.6188
200.474	7.7859
