Adsorption isotherm of Carbon Dioxide on C214H180O24N2
DOI: 10.1039/c7cp02993d
Article source: Figure 12
Adsorbate Carbon Dioxide: InChIKey CURLTUGMZLYLDI-UHFFFAOYSA-N
Kind: experiment
Temperature: 353 K
Tabular data in the source: 0
pressure (bar)	uptake (molecules/unitcell)
9.95	4.8063
19.381	6.1371
29.504	6.9542
38.61	7.2534
47.712	7.7107
57.172	8.0769
66.288	8.0781
76.223	8.4139
85.569	8.6219
95.276	8.6718
105.223	8.6184
114.331	8.8689
123.801	8.9066
133.388	8.9991
142.505	8.9881
151.971	9.1657
161.441	9.1974
170.551	9.4114
180.63	9.2661
190.019	9.5087
200.168	9.5196
