Adsorption isotherm of Methane on C214H180O24N2
DOI: 10.1039/c7cp02993d
Article source: Figure 12
Adsorbate Methane: InChIKey VNWKTOKETHGBQD-UHFFFAOYSA-N
Kind: experiment
Temperature: 323 K
Tabular data in the source: 0
pressure (bar)	uptake (molecules/unitcell)
9.74	0.7543
19.721	1.3574
29.526	1.8543
38.445	2.3186
48.015	2.7952
57.409	3.1696
66.744	3.5563
76.74	3.9071
85.652	4.1976
95.596	4.5009
105.165	4.7718
114.077	5.0234
124.022	5.3072
133.966	5.5911
142.787	5.7649
151.888	5.958
162.022	6.1965
171.687	6.3766
181.071	6.5503
190.548	6.7304
200.118	6.9754
