Adsorption isotherm of Methane on C214H180O24N2
DOI: 10.1039/c7cp02993d
Article source: Figure 12
Adsorbate Methane: InChIKey VNWKTOKETHGBQD-UHFFFAOYSA-N
Kind: experiment
Temperature: 283 K
Tabular data in the source: 0
pressure (bar)	uptake (molecules/unitcell)
9.968	1.1464
19.469	1.9906
28.974	2.7081
38.242	3.393
47.823	4.0087
57.858	4.4482
66.859	4.9072
76.8	5.3467
86.085	5.7344
95.559	6.0572
105.315	6.3735
114.284	6.7001
124.263	6.9457
133.496	7.2119
142.877	7.5091
152.708	7.7341
161.942	7.9591
171.474	8.1739
181.305	8.3783
190.39	8.5725
200.072	8.7667
