Adsorption isotherm of Methane on C214H180O24N2
DOI: 10.1039/c7cp02993d
Article source: Figure 12
Adsorbate Methane: InChIKey VNWKTOKETHGBQD-UHFFFAOYSA-N
Kind: experiment
Temperature: 313 K
Tabular data in the source: 0
pressure (bar)	uptake (molecules/unitcell)
9.798	0.8278
19.363	1.4718
29.344	2.0504
38.499	2.531
48.306	2.983
57.876	3.4228
67.329	3.8217
76.428	4.1962
86.237	4.5133
95.574	4.8387
104.911	5.1315
114.485	5.3997
123.35	5.668
133.753	5.9033
142.855	6.1471
152.292	6.3908
161.677	6.5335
171.358	6.7946
181.189	6.9733
190.647	7.1829
199.883	7.3359
