Adsorption isotherm of Methane on C214H180O24N2
DOI: 10.1039/c7cp02993d
Article source: Figure 12
Adsorbate Methane: InChIKey VNWKTOKETHGBQD-UHFFFAOYSA-N
Kind: experiment
Temperature: 293 K
Tabular data in the source: 0
pressure (bar)	uptake (molecules/unitcell)
10.621	1.0401
19.119	1.7782
29.039	2.4548
38.664	3.0743
47.819	3.5911
57.867	4.0734
66.425	4.5147
76.698	4.9043
85.929	5.2684
95.979	5.6529
104.691	5.9038
114.369	6.242
124.274	6.4928
134.253	6.6972
143.187	7.0046
152.139	7.2744
161.431	7.3638
171.093	7.6606
180.758	7.8732
190.328	8.0728
199.994	8.2205
