Adsorption isotherm of Water on C214H180O24N2
DOI: 10.1039/c7cp02993d
Article source: Figure 12
Adsorbate Water: InChIKey XLYOFNOQVPJJNP-UHFFFAOYSA-N
Kind: experiment
Temperature: 303 K
Tabular data in the source: 0
pressure (bar)	uptake (molecules/unitcell)
9.983	11.1758
19.695	12.6955
28.89	13.5235
38.414	13.1776
47.602	13.2614
57.817	13.9951
66.67	14.6868
77.395	15.3681
86.238	14.9803
95.598	15.3052
105.643	16.0598
114.654	15.389
124.013	15.5881
133.884	15.9759
143.581	15.9235
153.279	15.9968
162.615	13.7748
171.974	13.9949
182.352	14.0473
200.566	15.0639
