Adsorption isotherm of Carbon Dioxide on C214H180O24N2
DOI: 10.1039/c7cp02993d
Article source: Figure 12
Adsorbate Carbon Dioxide: InChIKey CURLTUGMZLYLDI-UHFFFAOYSA-N
Kind: experiment
Temperature: 273 K
Tabular data in the source: 0
pressure (bar)	uptake (molecules/unitcell)
9.817	8.5778
19.751	9.4481
29.138	9.7583
38.15	10.0298
47.916	10.2434
57.49	10.6116
66.705	10.3907
75.535	10.5174
86.432	10.596
95.077	10.6261
105.594	10.8495
114.247	10.6092
124.77	10.6396
133.786	10.7952
142.8	11.0281
153.328	10.9039
162.163	10.8375
171.371	10.887
181.136	11.1296
189.788	10.9087
200.124	10.9196
