Adsorption isotherm of Carbon Dioxide on C214H180O24N2
DOI: 10.1039/c7cp02993d
Article source: Figure 12
Adsorbate Carbon Dioxide: InChIKey CURLTUGMZLYLDI-UHFFFAOYSA-N
Kind: experiment
Temperature: 363 K
Tabular data in the source: 0
pressure (bar)	uptake (molecules/unitcell)
9.928	4.4822
19.596	5.7486
29.279	6.577
38.503	6.8945
47.963	7.2607
57.184	7.6876
67.6	7.7741
76.648	7.954
85.944	8.1725
95.521	8.4248
104.544	8.3776
114.121	8.6203
123.422	8.6649
133.469	8.9269
143.432	8.8509
153.203	8.9053
162.192	8.9699
171.067	8.9863
180.754	9.275
191.275	9.1039
201.416	9.1857
