Adsorption isotherm of Methane on C214H180O24N2
DOI: 10.1039/c7cp02993d
Article source: Figure 12
Adsorbate Methane: InChIKey VNWKTOKETHGBQD-UHFFFAOYSA-N
Kind: experiment
Temperature: 273 K
Tabular data in the source: 0
pressure (bar)	uptake (molecules/unitcell)
9.669	1.2486
19.463	2.252
29.143	3.0267
38.588	3.7688
47.918	4.3883
57.605	4.8607
66.66	5.3741
77.353	5.7875
85.792	6.2143
95.359	6.563
105.115	6.8858
114.12	7.1957
124.063	7.5184
133.445	7.7894
143.578	8.0084
153.336	8.2404
161.967	8.5114
171.724	8.7564
181.109	8.9106
190.68	9.0908
199.875	9.3228
