Adsorption isotherm of Water on C214H180O24N2
DOI: 10.1039/c7cp02993d
Article source: Figure 12
Adsorbate Water: InChIKey XLYOFNOQVPJJNP-UHFFFAOYSA-N
Kind: experiment
Temperature: 323 K
Tabular data in the source: 0
pressure (bar)	uptake (molecules/unitcell)
9.301	10.9557
29.887	11.0604
39.099	13.6283
48.46	14.0266
57.15	15.3996
68.205	15.0118
76.541	15.0117
87.253	14.3409
95.416	14.0265
105.117	14.4248
114.82	15.0326
124.348	15.0746
133.365	15.0326
143.055	14.2884
152.925	14.5714
163.133	14.6238
171.984	15.085
181.341	14.9801
189.848	15.0744
200.562	14.6761
