Adsorption isotherm of Methane on C214H180O24N2
DOI: 10.1039/c7cp02993d
Article source: Figure 12
Adsorbate Methane: InChIKey VNWKTOKETHGBQD-UHFFFAOYSA-N
Kind: experiment
Temperature: 353 K
Tabular data in the source: 0
pressure (bar)	uptake (molecules/unitcell)
9.666	0.555
19.789	1.0013
28.72	1.4374
38.697	1.7808
48.671	2.2219
57.01	2.4832
66.539	2.842
75.921	3.1031
86.144	3.4676
94.892	3.6624
105.058	3.9141
113.923	4.1824
123.383	4.2627
133.309	4.6779
143.713	4.8479
152.226	5.0101
161.684	5.1884
171.379	5.3504
180.601	5.496
190.295	5.7315
199.99	5.8935
