Adsorption isotherm of Carbon Dioxide on C214H180O24N2
DOI: 10.1039/c7cp02993d
Article source: Figure 12
Adsorbate Carbon Dioxide: InChIKey CURLTUGMZLYLDI-UHFFFAOYSA-N
Kind: experiment
Temperature: 303 K
Tabular data in the source: 0
pressure (bar)	uptake (molecules/unitcell)
9.844	7.1706
19.757	8.1694
28.501	8.7179
38.199	9.0355
47.658	9.4381
57.164	9.4927
67.152	9.6703
76.62	9.7941
86.169	9.7379
95.633	9.992
104.952	10.1158
114.573	10.0902
123.67	10.1757
133.426	10.2883
143.199	10.2895
152.783	10.3101
161.895	10.4126
171.481	10.3704
180.972	10.362
190.456	10.5563
199.951	10.432
