Adsorption isotherm of Methane on C214H180O24N2
DOI: 10.1039/c7cp02993d
Article source: Figure 12
Adsorbate Methane: InChIKey VNWKTOKETHGBQD-UHFFFAOYSA-N
Kind: experiment
Temperature: 333 K
Tabular data in the source: 0
pressure (bar)	uptake (molecules/unitcell)
10.066	0.7236
19.162	1.239
28.967	1.7318
38.626	2.1634
47.961	2.5787
57.503	2.9306
66.991	3.3055
76.747	3.6088
86.13	3.8409
95.696	4.235
105.079	4.4347
114.365	4.7834
123.935	5.0155
133.317	5.2345
142.982	5.4536
152.553	5.6207
161.934	5.9436
170.944	6.033
180.984	6.2261
190.461	6.4386
200.219	6.6706
