Adsorption isotherm of Carbon Dioxide on C214H180O24N2
DOI: 10.1039/c7cp02993d
Article source: Figure 12
Adsorbate Carbon Dioxide: InChIKey CURLTUGMZLYLDI-UHFFFAOYSA-N
Kind: experiment
Temperature: 343 K
Tabular data in the source: 0
pressure (bar)	uptake (molecules/unitcell)
9.784	5.2759
19.688	6.5971
28.727	7.167
38.244	7.6213
47.94	7.9906
57.165	8.3172
67.107	8.4097
75.984	8.6714
85.754	8.6918
95.221	8.8578
104.687	9.0353
114.532	9.048
124.074	9.1757
133.093	9.3416
142.866	9.2739
152.331	9.4935
162.7	9.4374
171.018	9.594
179.782	9.4978
190.434	9.6025
200.137	9.7802
