Adsorption isotherm of Water on C214H180O24N2
DOI: 10.1039/c7cp02993d
Article source: Figure 12
Adsorbate Water: InChIKey XLYOFNOQVPJJNP-UHFFFAOYSA-N
Kind: experiment
Temperature: 283 K
Tabular data in the source: 0
pressure (bar)	uptake (molecules/unitcell)
9.47	10.9137
18.66	11.2282
28.722	13.7226
38.757	13.4187
56.115	13.9113
66.32	13.6492
76.871	13.9951
84.694	13.6597
94.912	14.6658
104.783	15.0431
115.329	14.8545
124.508	14.0684
134.213	14.7915
143.742	15.0221
150.547	15.0011
161.096	15.0221
172.664	14.9906
181.509	14.781
190.357	14.9906
199.885	14.9906
