Adsorption isotherm of Water on C214H180O24N2
DOI: 10.1039/c7cp02993d
Article source: Figure 12
Adsorbate Water: InChIKey XLYOFNOQVPJJNP-UHFFFAOYSA-N
Kind: experiment
Temperature: 363 K
Tabular data in the source: 0
pressure (bar)	uptake (molecules/unitcell)
9.37	10.0302
19.635	10.3296
28.79	11.8884
38.231	11.7993
49.288	11.6369
57.291	12.3705
67.326	12.1452
77.788	12.0403
86.378	11.8884
95.642	10.9974
105.252	10.7616
115.217	12.056
124.32	12.2132
133.919	11.8299
143.678	12.5363
152.469	12.7806
162.963	11.8166
171.54	12.1665
180.757	12.1665
190.187	11.9618
200.156	12.1599
