Adsorption isotherm of Water on C214H180O24N2
DOI: 10.1039/c7cp02993d
Article source: Figure 12
Adsorbate Water: InChIKey XLYOFNOQVPJJNP-UHFFFAOYSA-N
Kind: experiment
Temperature: 273 K
Tabular data in the source: 0
pressure (bar)	uptake (molecules/unitcell)
9.642	11.1024
19.016	12.8422
29.226	13.0728
39.093	13.0204
48.273	12.2657
58.658	13.0204
66.659	13.513
77.552	14.0475
86.059	14.0265
95.926	13.9741
106.474	14.037
115.151	13.995
122.296	14.0055
134.205	13.974
144.072	13.974
153.6	13.974
161.936	13.9425
171.293	14.0054
182.352	14.0159
200.56	14.4351
