Adsorption isotherm of Water on C214H180O24N2
DOI: 10.1039/c7cp02993d
Article source: Figure 12
Adsorbate Water: InChIKey XLYOFNOQVPJJNP-UHFFFAOYSA-N
Kind: experiment
Temperature: 333 K
Tabular data in the source: 0
pressure (bar)	uptake (molecules/unitcell)
9.645	10.5293
19.642	11.0201
28.426	11.7355
38.151	12.0266
48.554	12.6422
58.28	12.9666
67.455	12.193
76.24	13.0165
85.557	13.0331
95.013	13.3908
105.142	13.6404
114.454	13.0331
124.041	13.0081
133.764	13.1329
143.491	13.5738
152.803	13.0081
162.119	12.9748
171.573	13.0829
180.891	13.1661
190.756	13.9813
200.083	14.9712
