Adsorption isotherm of Carbon Dioxide on C214H180O24N2
DOI: 10.1039/c7cp02993d
Article source: Figure 12
Adsorbate Carbon Dioxide: InChIKey CURLTUGMZLYLDI-UHFFFAOYSA-N
Kind: experiment
Temperature: 293 K
Tabular data in the source: 0
pressure (bar)	uptake (molecules/unitcell)
10.411	7.622
19.969	8.4826
28.786	8.9955
38.357	9.4312
47.936	9.6255
57.136	9.8874
66.903	10.0818
76.492	9.9478
85.321	10.0841
95.09	10.1819
105.42	10.3957
114.631	10.3293
123.648	10.4656
133.233	10.4669
142.814	10.5647
152.212	10.5466
161.791	10.7216
171.377	10.6649
181.34	10.5986
190.357	10.7156
200.323	10.5431
