Adsorption isotherm of Water on C214H180O24N2
DOI: 10.1039/c7cp02993d
Article source: Figure 12
Adsorbate Water: InChIKey XLYOFNOQVPJJNP-UHFFFAOYSA-N
Kind: experiment
Temperature: 343 K
Tabular data in the source: 0
pressure (bar)	uptake (molecules/unitcell)
9.908	9.7972
19.248	12.1764
28.286	11.2613
38.684	11.2696
47.735	11.6772
57.73	11.9185
67.859	12.1181
77.445	11.9683
85.952	12.0182
95	12.1181
105.535	12.301
114.714	12.0515
123.491	11.9932
132.538	12.0015
143.612	12.1346
152.258	12.5089
162.255	13.058
171.978	13.1328
181.566	13.1661
191.164	14.3141
201.24	13.454
