Adsorption isotherm of Carbon Dioxide on C214H180O24N2
DOI: 10.1039/c7cp02993d
Article source: Figure 12
Adsorbate Carbon Dioxide: InChIKey CURLTUGMZLYLDI-UHFFFAOYSA-N
Kind: experiment
Temperature: 313 K
Tabular data in the source: 0
pressure (bar)	uptake (molecules/unitcell)
9.97	6.6999
19.521	7.7729
28.898	8.4162
38.475	8.6684
47.773	8.8241
57.061	9.2936
66.927	9.3142
76.508	9.4313
86.084	9.7173
95.198	9.733
104.78	9.8501
114.929	9.808
123.659	10.0939
133.249	9.9551
143.016	10.1205
152.131	10.1266
162.001	10.2132
171.706	10.3057
180.821	10.3494
190.296	10.2594
200.356	10.3459
