Adsorption isotherm of Carbon Dioxide on C214H180O24N2
DOI: 10.1039/c7cp02993d
Article source: Figure 12
Adsorbate Carbon Dioxide: InChIKey CURLTUGMZLYLDI-UHFFFAOYSA-N
Kind: experiment
Temperature: 283 K
Tabular data in the source: 0
pressure (bar)	uptake (molecules/unitcell)
9.643	8.153
19.571	9.1874
29.335	9.4783
38.723	9.7498
47.928	9.8862
57.503	10.1771
66.525	10.1396
76.675	10.112
85.687	10.4028
96.016	10.6262
105.038	10.5984
114.249	10.5224
123.83	10.6491
133.415	10.6407
142.808	10.7771
152.768	10.7784
162.724	10.9341
171.936	10.8195
180.956	10.8592
190.166	10.8411
199.75	10.8617
