Adsorption isotherm of Methane on C214H180O24N2
DOI: 10.1039/c7cp02993d
Article source: Figure 12
Adsorbate Methane: InChIKey VNWKTOKETHGBQD-UHFFFAOYSA-N
Kind: experiment
Temperature: 263 K
Tabular data in the source: 0
pressure (bar)	uptake (molecules/unitcell)
8.718	1.4775
19.693	2.5134
29.253	3.4107
38.579	4.1691
48.263	4.7804
56.882	5.4327
66.926	5.8397
76.441	6.3352
86.267	6.7146
95.349	7.1044
104.431	7.4221
113.662	7.7913
124.087	8.0574
132.873	8.334
142.852	8.5796
152.085	8.8355
161.766	9.0812
171.15	9.2856
181.128	9.5415
190.513	9.6945
200.344	9.868
