Adsorption isotherm of Water on C214H180O24N2
DOI: 10.1039/c7cp02993d
Article source: Figure 12
Adsorbate Water: InChIKey XLYOFNOQVPJJNP-UHFFFAOYSA-N
Kind: experiment
Temperature: 263 K
Tabular data in the source: 0
pressure (bar)	uptake (molecules/unitcell)
8.969	11.8466
20.042	13.3873
30.937	14.0371
36.896	14.4563
49.141	14.0266
57.306	13.9846
66.834	13.9951
85.892	14.4248
92.874	15.0222
106.143	14.9907
114.48	15.0431
125.879	15.0221
132.004	15.085
144.082	15.0116
153.61	15.0011
162.287	15.043
172.664	15.0221
179.64	15.0745
191.889	15.0011
199.035	15.0535
