Adsorption isotherm of Carbon Dioxide on C214H180O24N2
DOI: 10.1039/c7cp02993d
Article source: Figure 12
Adsorbate Carbon Dioxide: InChIKey CURLTUGMZLYLDI-UHFFFAOYSA-N
Kind: experiment
Temperature: 333 K
Tabular data in the source: 0
pressure (bar)	uptake (molecules/unitcell)
9.651	5.7595
19.321	6.9772
29.245	7.6354
38.466	8.0745
47.456	8.319
57.398	8.4297
67.098	8.6986
76.327	8.8823
85.796	8.9321
95.495	9.2497
104.255	9.2873
113.963	9.2764
123.193	9.4357
133.846	9.4979
142.132	9.5477
152.548	9.622
161.066	9.8299
170.775	9.819
180.723	9.6986
190.188	9.9188
199.657	9.993
