Adsorption isotherm of Water on C214H180O24N2
DOI: 10.1039/c7cp02993d
Article source: Figure 12
Adsorbate Water: InChIKey XLYOFNOQVPJJNP-UHFFFAOYSA-N
Kind: experiment
Temperature: 293 K
Tabular data in the source: 0
pressure (bar)	uptake (molecules/unitcell)
9.306	11.4797
19.868	12.9575
29.406	14.1104
37.921	14.9175
47.788	14.886
57.486	14.9908
67.01	14.5925
77.732	15.0222
86.237	14.8755
95.936	15.0641
103.763	15.0955
114.646	14.561
123.999	14.2046
135.063	14.7287
143.572	15.0536
151.908	14.9592
163.127	13.9635
180.828	14.7286
191.547	14.8229
200.223	14.8124
