Adsorption isotherm of Water on C214H180O24N2
DOI: 10.1039/c7cp02993d
Article source: Figure 12
Adsorbate Water: InChIKey XLYOFNOQVPJJNP-UHFFFAOYSA-N
Kind: experiment
Temperature: 313 K
Tabular data in the source: 0
pressure (bar)	uptake (molecules/unitcell)
9.988	11.6789
18.837	11.9304
29.051	12.5907
39.768	12.3915
47.429	12.9889
57.978	13.0413
66.825	13.1147
76.694	13.2404
87.08	14.0265
95.926	13.9741
105.453	14.0055
114.983	14.2885
124.517	14.9907
133.535	15.0745
142.708	13.6596
152.063	13.4499
161.76	13.387
172.313	13.9006
182.351	13.8901
191.028	13.953
200.213	13.7433
