Adsorption isotherm of Methane on C214H180O24N2
DOI: 10.1039/c7cp02993d
Article source: Figure 12
Adsorbate Methane: InChIKey VNWKTOKETHGBQD-UHFFFAOYSA-N
Kind: experiment
Temperature: 363 K
Tabular data in the source: 0
pressure (bar)	uptake (molecules/unitcell)
9.687	0.5051
19.375	0.9775
29.421	1.3028
38.519	1.6855
48.329	2.019
57.902	2.3117
67.357	2.6289
76.576	2.938
86.15	3.198
95.963	3.3844
105.538	3.6118
114.757	3.929
124.214	4.1564
132.961	4.3757
142.774	4.554
152.587	4.7404
161.69	4.9188
171.386	5.0562
180.961	5.2836
191.141	5.4594
200.713	5.6266
