Adsorption isotherm of Methane on C214H180O24N2
DOI: 10.1039/c7cp02993d
Article source: Figure 12
Adsorbate Methane: InChIKey VNWKTOKETHGBQD-UHFFFAOYSA-N
Kind: experiment
Temperature: 343 K
Tabular data in the source: 0
pressure (bar)	uptake (molecules/unitcell)
9.882	0.6294
19.541	1.1014
29.387	1.5733
38.577	1.9869
47.955	2.3811
57.615	2.7882
66.998	3.0267
76.19	3.3366
86.133	3.6918
95.234	3.8979
104.697	4.1838
114.625	4.5009
123.728	4.6793
133.657	4.972
142.997	5.1258
152.691	5.3368
161.677	5.4825
171.372	5.6363
181.301	5.9044
190.523	6.0665
200.69	6.3019
