Adsorption isotherm of Carbon Dioxide on MIL-53(Al)
DOI: 10.1021/Jp108710h
Adsorbate Carbon Dioxide: InChIKey CURLTUGMZLYLDI-UHFFFAOYSA-N
Temperature: 254 K
Tabular data in the source: 0
pressure (bar)	uptake (molecules/unitcell)
0	1.39936
0.175781	2.15795
0.703125	2.50934
1.42578	2.83215
1.69922	3.44519
1.95312	6.68208
2.20703	7.90731
2.46094	8.40368
2.75391	8.78354
2.98828	8.81338
3.49609	9.13556
3.96484	9.31185
4.94141	9.51878
6.13281	9.8138
7.07031	9.93315
