Adsorption isotherm of Methane on MIL-53(Al)
DOI: 10.1021/Jp108710h
Adsorbate Methane: InChIKey VNWKTOKETHGBQD-UHFFFAOYSA-N
Temperature: 224 K
Tabular data in the source: 0
pressure (bar)	uptake (molecules/unitcell)
0.0416667	0.0383842
0.208333	0.708314
0.291667	1.09109
0.395833	1.58869
0.5	2.08629
0.604167	2.41176
0.8125	2.68019
1.22917	3.17878
1.67708	3.46709
2.26042	3.92797
2.67708	4.63695
3.05208	5.34579
3.23958	5.61415
3.98958	6.13294
4.51042	6.38323
5.60417	6.82661
