Adsorption isotherm of Carbon Dioxide on MIL-53(Al)
DOI: 10.1021/Jp108710h
Adsorbate Carbon Dioxide: InChIKey CURLTUGMZLYLDI-UHFFFAOYSA-N
Temperature: 204 K
Tabular data in the source: 0
pressure (bar)	uptake (molecules/unitcell)
0	0.932888
0.0390625	2.47825
0.15625	3.20745
0.214844	4.3738
0.234375	7.34762
0.253906	8.28062
0.3125	9.33036
0.332031	10.0884
0.390625	10.5259
0.605469	10.8764
0.996094	11.2857
