Adsorption isotherm of Carbon Dioxide on MIL-53(Al)
DOI: 10.1021/Jp108710h
Adsorbate Carbon Dioxide: InChIKey CURLTUGMZLYLDI-UHFFFAOYSA-N
Temperature: 298 K
Tabular data in the source: 0
pressure (bar)	uptake (molecules/unitcell)
0.253906	1.13777
0.507812	1.7216
0.976562	2.16028
3.10547	2.5455
4.08203	2.66496
4.98047	2.66758
5.48828	2.9023
5.97656	3.95328
6.46484	5.03343
6.97266	5.88039
7.5	6.31924
8.49609	6.87608
9.00391	7.05249
