Adsorption isotherm of Methane on MIL-53(Al)
DOI: 10.1021/Jp108710h
Adsorbate Methane: InChIKey VNWKTOKETHGBQD-UHFFFAOYSA-N
Temperature: 213 K
Tabular data in the source: 0
pressure (bar)	uptake (wt%)
0.133096	0.495868
0.193591	0.716253
0.243112	2.75482
0.304305	4.13223
0.377305	5.06887
0.655337	5.67493
1.29548	6.1708
1.63397	6.94215
1.7793	7.7135
2.00971	9.42149
2.47009	12.1212
3.50902	13.2782
4.5116	14.2149
5.61072	15.0964
