Adsorption isotherm of Methane on MIL-53(Al)
DOI: 10.1021/Jp108710h
Adsorbate Methane: InChIKey VNWKTOKETHGBQD-UHFFFAOYSA-N
Temperature: 183 K
Tabular data in the source: 0
pressure (bar)	uptake (wt%)
0.0244774	0.550964
0.0387781	4.24242
0.0997722	5.28926
0.511166	6.83196
0.597935	10.5785
0.672298	13.7741
0.805694	14.7658
1.22926	16.4738
2.00279	17.9614
3.00537	18.8981
4.00765	19.3388
5.0219	19.6143
5.49279	19.7245
