Adsorption isotherm of Carbon Dioxide on MIL-53(Al)
DOI: 10.1021/Jp108710h
Adsorbate Carbon Dioxide: InChIKey CURLTUGMZLYLDI-UHFFFAOYSA-N
Temperature: 343 K
Tabular data in the source: 0
pressure (bar)	uptake (molecules/unitcell)
0.585938	0.468181
1.07422	0.848613
1.60156	1.2
2.07031	1.55123
2.53906	1.81498
3.08594	2.13728
3.61328	2.43036
4.08203	2.66496
4.60938	2.89974
5.07812	3.10518
5.60547	3.33996
6.54297	3.75085
7.57812	4.01626
