Adsorption isotherm of Methane on MIL-53(Al)
DOI: 10.1021/Jp108710h
Adsorbate Methane: InChIKey VNWKTOKETHGBQD-UHFFFAOYSA-N
Temperature: 298 K
Tabular data in the source: 0
pressure (bar)	uptake (molecules/unitcell)
0.0604331	0.0142689
0.541467	0.328996
1.02354	0.557762
1.56588	0.815123
2.0483	1.01524
2.47046	1.18675
3.0741	1.38675
3.5567	1.57253
4.03981	1.71534
4.52293	1.85814
5.00605	2.00095
5.48951	2.1151
