Adsorption isotherm of Methane on MIL-53(Al)
DOI: 10.1021/Jp108710h
Adsorbate Methane: InChIKey VNWKTOKETHGBQD-UHFFFAOYSA-N
Temperature: 298 K
Tabular data in the source: 0
pressure (bar)	uptake (wt%)
0.459118	0.606061
0.978532	1.10193
1.48587	1.5978
1.98104	1.92837
2.47628	2.36915
2.98352	2.69972
3.49083	3.1405
3.97386	3.36088
4.49311	3.58127
5.00035	3.91185
5.48338	4.13223
