Adsorption isotherm of Methane on MIL-53(Al)
DOI: 10.1021/Jp108710h
Adsorbate Methane: InChIKey VNWKTOKETHGBQD-UHFFFAOYSA-N
Temperature: 250 K
Tabular data in the source: 0
pressure (bar)	uptake (wt%)
0.435539	1.5427
0.870878	2.75482
1.24566	3.63636
1.60826	4.35262
2.15209	5.28926
2.69584	6.1157
2.93749	6.44628
3.19118	6.72176
3.55355	7.05234
3.87977	7.49311
4.23004	7.7686
4.60449	8.09917
4.9789	8.37466
5.59486	8.81543
