Adsorption isotherm of Methane on MIL-53(Al)
DOI: 10.1021/Jp108710h
Adsorbate Methane: InChIKey VNWKTOKETHGBQD-UHFFFAOYSA-N
Temperature: 196 K
Tabular data in the source: 0
pressure (bar)	uptake (wt%)
0	0.165289
0.498495	5.84022
0.993931	6.61157
1.5045	12.4518
2.01237	13.8292
2.53202	14.7107
3.01528	15.3168
3.51062	15.9229
4.02993	16.2534
4.53714	16.5289
5.02024	16.8595
5.51537	17.135
