Adsorption isotherm of Carbon Dioxide on MIL-53(Al)
DOI: 10.1021/Jp108710h
Adsorbate Carbon Dioxide: InChIKey CURLTUGMZLYLDI-UHFFFAOYSA-N
Temperature: 273 K
Tabular data in the source: 0
pressure (bar)	uptake (molecules/unitcell)
0.0390625	0.874749
0.078125	1.77865
0.820312	2.36391
1.46484	2.54071
1.95312	2.6296
2.46094	2.7477
2.98828	2.98247
3.47656	5.40372
3.96484	7.21273
4.47266	7.76814
4.92188	8.00269
6.17188	8.32703
7.63672	8.53538
