Adsorption isotherm of Carbon Dioxide on MIL-53(Al)
DOI: 10.1021/Jp108710h
Adsorbate Carbon Dioxide: InChIKey CURLTUGMZLYLDI-UHFFFAOYSA-N
Temperature: 320 K
Tabular data in the source: 0
pressure (bar)	uptake (molecules/unitcell)
0.0390625	0.379123
0.585938	1.05127
0.9375	1.57708
2.03125	1.98843
2.98828	2.28276
3.94531	2.40217
5	2.49271
5.95703	2.64127
7.01172	2.76097
7.44141	2.73307
7.98828	3.20113
8.57422	3.75678
9.47266	4.83811
