Adsorption isotherm of Methane on MIL-53(Al)
DOI: 10.1021/Jp108710h
Adsorbate Methane: InChIKey VNWKTOKETHGBQD-UHFFFAOYSA-N
Temperature: 273 K
Tabular data in the source: 0
pressure (bar)	uptake (wt%)
0.459318	0.936639
0.966859	1.76309
1.49851	2.53444
2.01799	3.1405
2.50129	3.80165
3.17771	4.40771
3.49176	4.6832
3.99904	5.06887
4.50631	5.45455
5.03773	5.84022
5.49668	6.1708
