Adsorption isotherm of Ethane on COMOC-2
DOI: 10.1021/acs.langmuir.5b04185
Article source: Figure 2
Adsorbate Ethane: InChIKey OTMSDBZUPAUEDD-UHFFFAOYSA-N
Kind: experiment
Temperature: 303 K
Tabular data in the source: 0
pressure (bar)	uptake (mmol/g)
0	0
0.592341	0.395857
1.00103	0.973861
1.13606	1.42995
2.45507	2.82973
2.50231	2.49544
5.00253	5.44681
5.01114	3.56232
9.96296	10.1033
9.98978	4.23707
14.9415	10.8084
14.9583	7.13065
19.9213	11.2096
19.969	10.7842
24.7195	11.3674
24.7663	11.1243
29.7929	11.3128
