Adsorption isotherm of Ethane on COMOC-2
DOI: 10.1021/acs.langmuir.5b04185
Article source: Figure 2
Adsorbate Ethane: InChIKey OTMSDBZUPAUEDD-UHFFFAOYSA-N
Kind: experiment
Temperature: 293 K
Tabular data in the source: 0
pressure (bar)	uptake (mmol/g)
0	0
0.317286	0.577893
0.499128	0.79088
0.634294	1.21658
1.04313	1.76419
1.088	1.94661
1.99748	2.95076
2.04235	3.13318
3.00032	3.52948
3.04436	3.89428
4.03581	6.96539
5.00808	4.23101
5.0292	9.61098
6.99056	10.4644
7.06336	4.53746
10.0038	11.1672
10.027	6.09122
12.0191	10.2274
12.0592	11.4432
15.0297	11.5076
15.074	11.8116
17.0384	11.9964
17.0394	11.7836
20.0539	12.2128
20.0544	12.0913
25.0804	12.4013
