Adsorption isotherm of Carbon Dioxide on C15H9Cu1.66N18O
DOI: 10.1021/Cg1003726
Adsorbate Carbon Dioxide: InChIKey CURLTUGMZLYLDI-UHFFFAOYSA-N
Temperature: 298 K
Tabular data in the source: 0
pressure (bar)	uptake (mmol/g)
0.0188775	0.103597
0.037755	0.207194
0.0597788	0.267626
0.0849488	0.34964
0.106973	0.392806
0.12585	0.448921
0.144728	0.492086
0.163605	0.530935
0.188775	0.574101
0.207653	0.608633
0.229676	0.651799
0.248554	0.682014
0.267431	0.707914
0.283163	0.738129
0.311479	0.768345
0.32721	0.794245
0.349234	0.811511
0.374404	0.828777
0.396428	0.854676
0.418451	0.871942
0.437329	0.880576
0.456206	0.884892
0.47823	0.897842
0.500254	0.906475
0.522278	0.915108
0.538009	0.923741
0.569471	0.941007
0.600934	0.953957
0.635543	0.971223
0.65442	0.971223
0.67959	0.984173
0.701614	0.988489
0.723638	1.00144
0.739369	1.00576
0.786563	1.02302
0.821171	1.03165
0.858926	1.05324
0.899828	1.0705
0.921851	1.07482
0.940729	1.0964
0.959606	1.0964
0.987923	1.10935
