Adsorption isotherm of Hydrogen on C15H9Cu1.66N18O
DOI: 10.1021/Cg1003726
Adsorbate Hydrogen: InChIKey UFHFLCQGNIYNRP-UHFFFAOYSA-N
Temperature: 77 K
Tabular data in the source: 0
pressure (bar)	uptake (wt%)
0.0209226	0.00875912
0.0269004	0.0291971
0.0388562	0.049635
0.0538009	0.0788321
0.0627677	0.0934307
0.0836903	0.128467
0.0896681	0.148905
0.095646	0.157664
0.179336	0.280292
0.212215	0.327007
0.25406	0.379562
0.328783	0.464234
0.358673	0.49635
0.400518	0.543066
0.457308	0.592701
0.508119	0.636496
0.558931	0.654015
0.612732	0.680292
0.654577	0.70073
0.717345	0.718248
0.765168	0.738686
0.810002	0.756204
0.854836	0.770803
0.968416	0.791241
