Adsorption isotherm of Nitrogen on C15H9Cu1.66N18O
DOI: 10.1021/Cg1003726
Adsorbate Nitrogen: InChIKey IJGRMHOSHXDMSA-UHFFFAOYSA-N
Temperature: 77 K
Tabular data in the source: 0
pressure (bar)	uptake (cm3(STP)/g)
0.00298894	0.00298894
0.00597788	57.2485
0.0119558	60.8738
0.0239115	61.6028
0.0388562	63.0574
0.0567898	63.7884
0.0807013	64.8839
0.107602	65.6182
0.149447	66.3578
0.200259	67.1006
0.277971	68.2153
0.31085	68.5894
0.352695	69.329
0.424429	70.0793
0.463285	70.4555
0.502142	71.194
0.570887	71.5809
0.657566	73.0612
0.711367	74.1674
0.777124	76.0025
0.81598	76.7411
0.860814	78.5687
0.914615	81.4865
0.971405	87.3039
