Adsorption isotherm of Oxygen on PCN-224
DOI: 10.1021/Ja5103103
Adsorbate Oxygen: InChIKey MYMOFIZGZYHOMD-UHFFFAOYSA-N
Temperature: 298 K
Tabular data in the source: 0
pressure (bar)	uptake (mmol/g)
0.0107861	0.0365653
0.0540132	0.0605014
0.105357	0.0721057
0.153997	0.0837432
0.205341	0.0953475
0.302623	0.118622
0.399904	0.141897
0.502583	0.177338
0.602575	0.188348
0.699857	0.211623
0.802536	0.247064
0.899817	0.270339
1.0025	0.293547
