Adsorption isotherm of Oxygen on PCN-224
DOI: 10.1021/Ja5103103
Adsorbate Oxygen: InChIKey MYMOFIZGZYHOMD-UHFFFAOYSA-N
Temperature: 226 K
Tabular data in the source: 0
pressure (bar)	uptake (mmol/g)
-3.33542e-05	0.0123077
0.0159933	0.0984615
0.0536669	0.196923
0.0994705	0.295385
0.148051	0.369231
0.196665	0.430769
0.299379	0.529231
0.399383	0.627692
0.496744	0.701538
0.599525	0.775385
0.699629	0.836923
0.79699	0.910769
0.897094	0.972308
0.997232	1.02154
