Adsorption isotherm of Oxygen on PCN-224
DOI: 10.1021/Ja5103103
Adsorbate Oxygen: InChIKey MYMOFIZGZYHOMD-UHFFFAOYSA-N
Temperature: 195 K
Tabular data in the source: 0
pressure (bar)	uptake (mmol/g)
0.00275161	0.0613835
0.00280981	0.147274
0.00827978	0.22096
0.0137498	0.294647
0.0219132	0.343827
0.0490802	0.44232
0.0979691	0.602429
0.154963	0.725828
0.201101	0.824553
0.30153	1.05891
0.404637	1.24423
0.50234	1.45402
0.60543	1.61479
0.703108	1.78777
0.803505	1.97305
0.903885	2.13379
1.00426	2.28226
