Adsorption isotherm of Oxygen on PCN-224
DOI: 10.1021/Ja5103103
Adsorbate Oxygen: InChIKey MYMOFIZGZYHOMD-UHFFFAOYSA-N
Temperature: 273 K
Tabular data in the source: 0
pressure (bar)	uptake (mmol/g)
0.0134751	0.0369231
0.0486304	0.0738462
0.102781	0.0984615
0.151511	0.123077
0.200217	0.16
0.300388	0.209231
0.400559	0.258462
0.500705	0.32
0.598166	0.369231
0.701072	0.406154
0.798507	0.467692
0.898703	0.504615
0.998874	0.553846
