Adsorption isotherm of Propene, Benzene on Silicate
DOI: 10.1007/s10450-021-00324-w
Article source: Table 7
Adsorbate Propene: InChIKey QQONPFPTGQHPMA-UHFFFAOYSA-N
Adsorbate Benzene: InChIKey UHOVQNZJYSORNB-UHFFFAOYSA-N
Kind: experiment
Temperature: 373 K
Tabular data in the source: 0
pressure (bar)	Propene fraction	Propene uptake (mmol/g)	Benzene fraction	Benzene uptake (mmol/g)	total uptake (mmol/g)
1	0.9	0.95	0.1	0.551	1.5
1	0.8	0.848	0.2	0.619	1.467
1	0.7	0.788	0.3	0.655	1.443
1	0.6	0.725	0.4	0.681	1.406
1	0.5	0.659	0.5	0.697	1.356
1	0.4	0.6	0.6	0.713	1.313
1	0.3	0.498	0.7	0.746	1.244
1	0.2	0.408	0.8	0.757	1.165
1	0.1	0.251	0.9	0.805	1.056
