Adsorption isotherm of Benzene on Silicate
DOI: 10.1007/s10450-021-00324-w
Article source: Table 7
Adsorbate Benzene: InChIKey UHOVQNZJYSORNB-UHFFFAOYSA-N
Kind: experiment
Temperature: 373 K
Tabular data in the source: 0
pressure (bar)	uptake (mmol/g)
0.0001	0.018
0.0003	0.051
0.001	0.152
0.003	0.317
0.01	0.517
0.03	0.627
0.1	0.688
0.3	0.748
0.5	0.776
0.7	0.818
1	0.856
1.5	0.915
