Adsorption isotherm of Propene on Silicate
DOI: 10.1007/s10450-021-00324-w
Article source: Table 7
Adsorbate Propene: InChIKey QQONPFPTGQHPMA-UHFFFAOYSA-N
Kind: experiment
Temperature: 373 K
Tabular data in the source: 0
pressure (bar)	uptake (mmol/g)
0.0001	0.001
0.0003	0.002
0.001	0.005
0.003	0.019
0.01	0.06
0.03	0.178
0.1	0.503
0.3	1.038
0.5	1.251
1	1.492
2.5	1.697
