Adsorption isotherm of Hydrogen on CPO-8-DPP
DOI: 10.1021/Ic050662v
Adsorbate Hydrogen: InChIKey UFHFLCQGNIYNRP-UHFFFAOYSA-N
Temperature: 77 K
Tabular data in the source: 0
pressure (bar)	uptake (cm3(STP)/g)
0.0280436	0.319919
0.0324133	2.06782
0.0345982	3.37874
0.0630016	4.47118
0.124178	6.81992
0.194094	9.00479
0.270565	10.6981
0.292413	12.8829
0.371069	14.5762
0.462833	16.4334
0.567707	18.2905
0.657287	19.8199
0.707539	20.4754
0.810228	21.7863
0.904178	22.9334
0.998128	24.0258
