Adsorption isotherm of Hydrogen on CPO-8-DPP
DOI: 10.1021/Ic050662v
Adsorbate Hydrogen: InChIKey UFHFLCQGNIYNRP-UHFFFAOYSA-N
Temperature: 77 K
Tabular data in the source: 0
pressure (bar)	uptake (cm3(STP)/g)
0.0345982	0.64765
0.0935898	0.811516
0.180985	0.975381
0.270565	0.975381
0.355775	1.03
0.440985	1.03
0.532749	1.08462
0.655102	1.24849
0.746867	1.30311
0.829892	1.68547
0.888884	2.0132
0.943506	2.7779
0.978464	4.74429
0.993758	10.3157
