Adsorption isotherm of Methane on MOF-74-Ni
DOI: 10.1039/c6ra12280a
Article source: Figure 5d
Adsorbate Methane: InChIKey VNWKTOKETHGBQD-UHFFFAOYSA-N
Kind: experiment
Temperature: 298 K
Tabular data in the source: 0
pressure (bar)	uptake (mmol/g)
0.0212	0.0518
0.0305	0.0758
0.0408	0.0997
0.0517	0.128
0.103	0.267
0.157	0.407
0.207	0.542
0.259	0.674
0.312	0.811
0.363	0.943
0.415	1.07
0.467	1.2
0.519	1.32
0.571	1.45
0.622	1.57
0.674	1.69
0.726	1.82
0.778	1.94
0.83	2.06
0.882	2.18
0.934	2.3
0.957	2.36
0.965	2.38
0.988	2.43
0.997	2.46
1.02	2.5
1.03	2.54
