Adsorption isotherm of Methane on [Ni3(HCOO)6]
DOI: 10.1039/c6ra12280a
Article source: Figure 5a
Adsorbate Methane: InChIKey VNWKTOKETHGBQD-UHFFFAOYSA-N
Kind: experiment
Temperature: 298 K
Tabular data in the source: 0
pressure (bar)	uptake (mmol/g)
0.0265	0.0346
0.039	0.0454
0.0526	0.0553
0.105	0.111
0.157	0.164
0.206	0.209
0.258	0.257
0.31	0.301
0.362	0.347
0.414	0.387
0.467	0.428
0.519	0.467
0.571	0.505
0.624	0.539
0.676	0.574
0.729	0.607
0.778	0.637
0.83	0.666
0.883	0.699
0.934	0.723
0.955	0.735
0.966	0.742
0.987	0.754
0.996	0.759
1.02	0.77
1.03	0.775
