Adsorption isotherm of Methane on [Cu(INA)2]
DOI: 10.1039/c6ra12280a
Article source: Figure 5b
Adsorbate Methane: InChIKey VNWKTOKETHGBQD-UHFFFAOYSA-N
Kind: experiment
Temperature: 298 K
Tabular data in the source: 0
pressure (bar)	uptake (mmol/g)
0.0204	0.0265
0.0295	0.0333
0.0386	0.0422
0.052	0.052
0.103	0.0951
0.154	0.148
0.205	0.195
0.261	0.244
0.31	0.287
0.362	0.332
0.414	0.374
0.465	0.418
0.521	0.463
0.571	0.503
0.621	0.539
0.672	0.579
0.725	0.615
0.777	0.655
0.83	0.69
0.882	0.726
0.932	0.76
0.954	0.774
0.967	0.783
0.985	0.794
0.997	0.802
1.02	0.813
1.03	0.825
