Adsorption isotherm of Nitrogen on Al-BDC
DOI: 10.1039/c6ra12280a
Article source: Figure 5c
Adsorbate Nitrogen: InChIKey IJGRMHOSHXDMSA-UHFFFAOYSA-N
Kind: experiment
Temperature: 298 K
Tabular data in the source: 0
pressure (bar)	uptake (mmol/g)
0.0494	0.0146
0.103	0.0253
0.154	0.0389
0.206	0.0495
0.259	0.0612
0.31	0.0738
0.362	0.0826
0.413	0.0942
0.467	0.106
0.519	0.117
0.57	0.127
0.622	0.137
0.674	0.149
0.726	0.16
0.779	0.172
0.83	0.185
0.883	0.193
0.934	0.204
0.957	0.212
0.969	0.213
0.988	0.219
1	0.221
1.02	0.224
1.04	0.228
