Adsorption isotherm of Methane on Al-BDC
DOI: 10.1039/c6ra12280a
Article source: Figure 5c
Adsorbate Methane: InChIKey VNWKTOKETHGBQD-UHFFFAOYSA-N
Kind: experiment
Temperature: 298 K
Tabular data in the source: 0
pressure (bar)	uptake (mmol/g)
0.0276	0.0243
0.0399	0.0321
0.0521	0.0427
0.104	0.0826
0.156	0.123
0.207	0.16
0.259	0.201
0.311	0.24
0.363	0.279
0.416	0.318
0.468	0.354
0.519	0.392
0.571	0.427
0.623	0.461
0.675	0.495
0.727	0.532
0.779	0.566
0.831	0.599
0.882	0.632
0.934	0.665
0.959	0.682
0.966	0.686
0.986	0.699
0.997	0.706
1.02	0.719
1.03	0.729
