Adsorption isotherm of Nitrogen on MOF-74-Ni
DOI: 10.1039/c6ra12280a
Article source: Figure 5d
Adsorbate Nitrogen: InChIKey IJGRMHOSHXDMSA-UHFFFAOYSA-N
Kind: experiment
Temperature: 298 K
Tabular data in the source: 0
pressure (bar)	uptake (mmol/g)
0.0229	0.0239
0.0305	0.0439
0.0403	0.0658
0.0512	0.0937
0.104	0.197
0.155	0.309
0.206	0.413
0.258	0.516
0.311	0.62
0.362	0.722
0.414	0.822
0.466	0.921
0.519	1.02
0.571	1.12
0.622	1.21
0.674	1.3
0.728	1.4
0.778	1.49
0.829	1.57
0.882	1.66
0.933	1.75
0.957	1.79
0.965	1.8
0.989	1.84
0.997	1.86
1.02	1.89
1.03	1.92
