Adsorption isotherm of Nitrogen on [Ni3(HCOO)6]
DOI: 10.1039/c6ra12280a
Article source: Figure 5a
Adsorbate Nitrogen: InChIKey IJGRMHOSHXDMSA-UHFFFAOYSA-N
Kind: experiment
Temperature: 298 K
Tabular data in the source: 0
pressure (bar)	uptake (mmol/g)
0.0276	0.00484
0.0531	0.0107
0.0406	0.00777
0.105	0.0244
0.158	0.0341
0.209	0.0398
0.26	0.0475
0.312	0.0572
0.364	0.0679
0.417	0.0746
0.469	0.0834
0.52	0.0911
0.573	0.0998
0.626	0.107
0.679	0.116
0.728	0.123
0.781	0.133
0.832	0.14
0.884	0.149
0.938	0.158
0.958	0.161
0.968	0.162
0.987	0.166
0.999	0.166
1.02	0.17
1.03	0.171
