Adsorption isotherm of Nitrogen on [Cu(INA)2]
DOI: 10.1039/c6ra12280a
Article source: Figure 5b
Adsorbate Nitrogen: InChIKey IJGRMHOSHXDMSA-UHFFFAOYSA-N
Kind: experiment
Temperature: 298 K
Tabular data in the source: 0
pressure (bar)	uptake (mmol/g)
0.0531	0.00776
0.104	0.0145
0.0188	0.00488
0.155	0.0233
0.209	0.0281
0.26	0.029
0.312	0.0357
0.364	0.0445
0.417	0.0503
0.469	0.0561
0.521	0.0609
0.572	0.0676
0.625	0.0725
0.676	0.0773
0.728	0.084
0.78	0.0889
0.833	0.0956
0.884	0.1
0.936	0.106
0.959	0.109
0.968	0.111
0.99	0.112
1	0.115
1.02	0.116
1.04	0.118
