Adsorption isotherm of N-Heptane on MIL-53(Al)
DOI: 10.1021/Ja8039579
Adsorbate N-Heptane: InChIKey IMNFDUFMRHMDMM-UHFFFAOYSA-N
Temperature: 313 K
Tabular data in the source: 0
pressure (bar)	uptake (molecules/unitcell)
0.000512187	0.888412
0.000792148	1.09442
0.0034821	1.24893
0.0079847	1.3133
0.0148947	1.35193
0.0239051	1.42918
0.0299107	1.49356
0.0362156	1.57082
0.0410162	1.66094
0.04672	1.7382
0.0545305	1.7897
0.0572333	1.81545
0.0596356	1.8412
0.0611322	1.90558
0.0620314	1.93133
0.0635305	1.96996
0.0764371	2.16309
0.087255	2.20172
0.09537	2.21459
0.101983	2.21459
0.110403	2.18884
0.114311	2.18884
0.116714	2.20172
