Adsorption isotherm of N-Heptane on MIL-53(Cr)
DOI: 10.1021/Ja8039579
Adsorbate N-Heptane: InChIKey IMNFDUFMRHMDMM-UHFFFAOYSA-N
Temperature: 313 K
Tabular data in the source: 0
pressure (bar)	uptake (molecules/unitcell)
0.000104609	1.21396
0.00162892	1.40315
0.0046558	1.52928
0.00888908	1.65541
0.0119173	1.7973
0.0143423	1.93919
0.0188732	2.01802
0.0246063	2.04955
0.0306424	2.09685
0.0360739	2.12838
0.0418057	2.14414
0.0481407	2.15991
0.0535736	2.20721
0.0590051	2.23874
0.074994	2.28604
0.084345	2.3018
0.0936974	2.33333
0.100031	2.33333
0.104257	2.38063
0.110291	2.3964
