Adsorption isotherm of N-Octane on MIL-53(Al)
DOI: 10.1021/Ja8039579
Adsorbate N-Octane: InChIKey TVMXDCGIABBOFY-UHFFFAOYSA-N
Temperature: 313 K
Tabular data in the source: 0
pressure (bar)	uptake (molecules/unitcell)
0.000173171	0.849785
0.00127887	0.965665
0.00389894	1.04292
0.00742816	1.08155
0.0114622	1.1073
0.0150931	1.12017
0.0174119	1.1588
0.0226507	1.35193
0.0252708	1.42918
0.0275891	1.48069
0.0315223	1.50644
0.0356576	1.51931
0.0391881	1.51931
