Adsorption isotherm of N-Hexane on MIL-53(Al)
DOI: 10.1021/Ja8039579
Adsorbate N-Hexane: InChIKey VLKZOEOYAKHREP-UHFFFAOYSA-N
Temperature: 313 K
Tabular data in the source: 0
pressure (bar)	uptake (molecules/unitcell)
0.00146583	1.18455
0.00773674	1.58369
0.0232141	1.7382
0.0396126	1.86695
0.0560345	1.91845
0.0733658	1.98283
0.0907009	2.03433
0.0997781	2.21459
0.118026	2.26609
0.144498	2.30472
0.164576	2.34335
0.181006	2.3691
0.204749	2.3691
0.225745	2.39485
0.244922	2.39485
0.265009	2.40773
0.282364	2.39485
0.301541	2.39485
0.317975	2.40773
0.336254	2.35622
