Adsorption isotherm of N-Hexane on MIL-53(Cr)
DOI: 10.1021/Ja8039579
Adsorbate N-Hexane: InChIKey VLKZOEOYAKHREP-UHFFFAOYSA-N
Temperature: 313 K
Tabular data in the source: 0
pressure (bar)	uptake (molecules/unitcell)
0.00132455	1.57658
0.0105306	1.86036
0.022431	1.97072
0.028844	2.04955
0.0343479	2.14414
0.0508226	2.28604
0.0736691	2.3491
0.0928628	2.41216
0.112966	2.45946
0.133068	2.50676
0.15225	2.52252
0.170526	2.56982
0.209806	2.61712
0.228078	2.64865
0.244524	2.68018
0.262796	2.71171
0.280156	2.74324
0.298428	2.77477
0.314886	2.8536
0.32951	2.9009
0.345075	3.05856
