Adsorption isotherm of N-Nonane on MIL-53(Cr)
DOI: 10.1021/Ja8039579
Adsorbate N-Nonane: InChIKey BKIMMITUMNQMOS-UHFFFAOYSA-N
Temperature: 313 K
Tabular data in the source: 0
pressure (bar)	uptake (molecules/unitcell)
4.15e-05	0.709459
7.25e-05	0.346847
0.000112291	0.882883
0.000285237	0.914414
0.000458339	0.961712
0.000665969	1.00901
0.0007358	1.08784
0.000943896	1.18243
0.00108263	1.2455
0.00132478	1.29279
0.00160116	1.30856
0.00187753	1.32432
0.0021539	1.34009
0.00253385	1.35586
0.00287928	1.37162
0.0039843	1.38739
0.00415694	1.38739
0.00432973	1.40315
0.00488216	1.40315
0.0051237	1.38739
0.0054346	1.40315
0.00774807	1.41892
0.00854235	1.43468
0.0102343	1.45045
0.0108214	1.46622
0.0114429	1.46622
0.0121682	1.48198
0.012548	1.48198
0.0133076	1.48198
0.0137217	1.46622
