Adsorption isotherm of N-Butane on MIL-53(Cr)
DOI: 10.1021/Ja8039579
Adsorbate N-Butane: InChIKey IJDNQMDRQITEOD-UHFFFAOYSA-N
Temperature: 303 K
Tabular data in the source: 0
pressure (bar)	uptake (cm3(STP)/g)
0.13986	0.225784
0.27972	0.254007
0.41958	0.338676
0.559441	0.359059
0.699301	0.366899
0.839161	0.374739
1.11888	0.38101
1.3986	0.387282
1.95804	0.393554
