Adsorption isotherm of N-Octane on MIL-53(Cr)
DOI: 10.1021/Ja8039579
Adsorbate N-Octane: InChIKey TVMXDCGIABBOFY-UHFFFAOYSA-N
Temperature: 313 K
Tabular data in the source: 0
pressure (bar)	uptake (molecules/unitcell)
2.68e-05	0.93018
0.000130406	1.02477
0.000435294	1.1036
0.00114367	1.18243
0.0021533	1.21396
0.00488138	1.37162
0.0055893	1.43468
0.00589419	1.51351
0.00660166	1.56081
0.00730958	1.62387
0.00801659	1.65541
0.00953058	1.68694
0.010742	1.71847
0.0123564	1.73423
0.0142734	1.75
0.0148786	1.75
0.0158873	1.75
0.0161895	1.73423
0.0194183	1.76577
0.0226471	1.7973
0.0255728	1.81306
0.0278938	1.84459
0.0304156	1.84459
0.0334422	1.86036
0.0351575	1.87613
0.0359649	1.89189
0.0376798	1.89189
