Adsorption isotherm of N-propane on MIL-53(Cr)
DOI: 10.1021/Ja8039579
Adsorbate N-propane: InChIKey ATUOYWHBWRKTHZ-UHFFFAOYSA-N
Temperature: 303 K
Tabular data in the source: 0
pressure (bar)	uptake (cm3(STP)/g)
0.13986	0.13986
0.27972	0.219512
0.41958	0.233624
0.559441	0.247735
0.699301	0.275958
0.839161	0.286934
1.11888	0.296341
1.53846	0.305749
1.95804	0.313589
2.51748	0.322997
3.35664	0.330836
3.91608	0.33554
4.75524	0.338676
5.31469	0.341812
6.15385	0.346516
7.13287	0.348084
8.11189	0.35122
9.09091	0.355923
