Adsorption isotherm of Ethane on MIL-53(Cr)
DOI: 10.1021/Ja8039579
Adsorbate Ethane: InChIKey OTMSDBZUPAUEDD-UHFFFAOYSA-N
Temperature: 303 K
Tabular data in the source: 0
pressure (bar)	uptake (cm3(STP)/g)
0.27972	0.0752613
0.41958	0.11446
0.699301	0.139547
0.979021	0.156794
1.11888	0.170906
1.3986	0.186585
1.67832	0.197561
1.81818	0.203833
2.0979	0.210105
2.23776	0.219512
2.65734	0.225784
2.93706	0.230488
3.35664	0.23676
5.31469	0.260279
7.41259	0.275958
9.51049	0.288502
11.6084	0.296341
13.7063	0.302613
15.8042	0.308885
17.7622	0.313589
19.7203	0.318293
21.958	0.321429
23.7762	0.324564
25.4545	0.326132
27.4126	0.329268
29.3706	0.330836
31.3287	0.332404
