Adsorption isotherm of N-Nonane on MIL-53(Al)
DOI: 10.1021/Ja8039579
Adsorbate N-Nonane: InChIKey BKIMMITUMNQMOS-UHFFFAOYSA-N
Temperature: 313 K
Tabular data in the source: 0
pressure (bar)	uptake (molecules/unitcell)
6.4e-05	0.437768
6.76e-05	0.128755
9.59e-05	0.669528
0.000336973	0.72103
0.000751001	0.746781
0.00106145	0.772532
0.00133752	0.785408
0.0018898	0.798283
0.00258005	0.824034
0.00271801	0.83691
0.00306254	0.901288
0.0032002	0.939914
0.00357926	1.00429
0.00388926	1.06867
0.0043027	1.14592
0.0046127	1.2103
0.00485424	1.22318
0.00513001	1.2618
0.00526812	1.2618
0.00544046	1.28755
0.00575121	1.28755
0.00633772	1.32618
0.00740762	1.36481
0.00844328	1.37768
0.0101351	1.37768
0.0113781	1.37768
0.0125519	1.39056
0.0134496	1.39056
