Adsorption isotherm of Methane on MIL-53(Cr)
DOI: 10.1021/Ja8039579
Adsorbate Methane: InChIKey VNWKTOKETHGBQD-UHFFFAOYSA-N
Temperature: 303 K
Tabular data in the source: 0
pressure (bar)	uptake (cm3(STP)/g)
0.27972	0.00783972
1.11888	0.0235192
1.95804	0.0344948
2.65734	0.0470383
3.35664	0.056446
6.43357	0.0909408
9.65035	0.116028
12.7273	0.134843
15.6643	0.147387
18.6014	0.15993
21.5385	0.170906
24.3357	0.178746
27.2727	0.186585
30.0699	0.194425
33.007	0.199129
35.6643	0.205401
38.4615	0.208537
41.1189	0.214808
43.6364	0.217944
44.4755	0.219512
