Adsorption isotherm of Carbon Dioxide on Rho-ZMOF
DOI: 10.1039/B909861e
Adsorbate Carbon Dioxide: InChIKey CURLTUGMZLYLDI-UHFFFAOYSA-N
Temperature: 298 K
Tabular data in the source: 0
pressure (bar)	uptake (mmol/g)
0.120299	1.11116
0.185845	1.37335
0.775761	1.67923
3.00433	2.09435
4.90517	2.18175
10.0833	2.59688
20.1119	3.0557
30.0749	3.42713
