Adsorption isotherm of Methane on Rho-ZMOF
DOI: 10.1039/B909861e
Adsorbate Methane: InChIKey VNWKTOKETHGBQD-UHFFFAOYSA-N
Temperature: 298 K
Tabular data in the source: 0
pressure (bar)	uptake (mmol/g)
0.120299	0.936371
0.841307	0.980068
2.93879	1.06746
4.83963	1.11116
10.0178	1.17671
20.0463	1.24225
30.0094	1.28595
