Adsorption isotherm of Carbon Dioxide on Rho-ZMOF
DOI: 10.1039/B909861e
Adsorbate Carbon Dioxide: InChIKey CURLTUGMZLYLDI-UHFFFAOYSA-N
Temperature: 298 K
Tabular data in the source: 0
pressure (bar)	uptake (mmol/g)
0.0547527	2.88091
0.0547527	3.38343
0.120299	4.27923
0.185845	5.17503
0.775761	6.4641
2.93879	7.77503
4.90517	8.40864
9.95223	9.1078
20.1119	9.76326
30.0749	10.3532
