Adsorption isotherm of N-Butane on charcoal (Columbia G, 8/14 mesh)
DOI: 10.1021/i160027a004
Article source: Table III
Adsorbate N-Butane: InChIKey IJDNQMDRQITEOD-UHFFFAOYSA-N
Kind: experiment
Temperature: 313 K
Tabular data in the source: 0
pressure (bar)	uptake (mmol/g)
0.034474	2.183
0.068948	2.749
0.103421	3.287
0.344738	3.779
0.72395	4.136
1.31	4.354
1.96501	4.532
2.72343	4.696
3.48185	4.903
