Adsorption isotherm of Methane on charcoal (Columbia G, 8/14 mesh)
DOI: 10.1021/i160027a004
Article source: Table I
Adsorbate Methane: InChIKey VNWKTOKETHGBQD-UHFFFAOYSA-N
Kind: experiment
Temperature: 313 K
Tabular data in the source: 0
pressure (bar)	uptake (mmol/g)
1.62027	1.11
5.06765	2.417
13.755	3.983
27.5101	5.134
41.5754	5.694
55.4338	5.982
69.1544	6.155
86.2534	6.18
103.49	6.105
124.83	5.923
