Adsorption isotherm of Methane on charcoal (Columbia G, 8/14 mesh)
DOI: 10.1021/i160027a004
Article source: Table I
Adsorbate Methane: InChIKey VNWKTOKETHGBQD-UHFFFAOYSA-N
Kind: experiment
Temperature: 303 K
Tabular data in the source: 0
pressure (bar)	uptake (mmol/g)
1.62027	1.435
4.61949	2.678
7.44634	3.416
13.9619	4.478
23.9938	5.388
35.2667	5.929
48.5391	6.274
65.5347	6.485
82.8405	6.505
100.284	6.4
117.659	6.244
137.481	5.974
