Adsorption isotherm of N-propane on charcoal (Columbia G, 8/14 mesh)
DOI: 10.1021/i160027a004
Article source: Table II
Adsorbate N-propane: InChIKey ATUOYWHBWRKTHZ-UHFFFAOYSA-N
Kind: experiment
Temperature: 303 K
Tabular data in the source: 0
pressure (bar)	uptake (mmol/g)
0.003378	0.687
0.016616	1.614
0.061294	2.602
0.186917	3.6
0.459191	4.402
0.754838	4.828
1.3451	5.305
2.48211	5.837
4.24028	6.215
6.41212	6.53
9.03213	6.828
