Adsorption isotherm of N-Butane, Methane on charcoal (Columbia G, 8/14 mesh)
DOI: 10.1021/i160027a004
Article source: Table V
Adsorbate N-Butane: InChIKey IJDNQMDRQITEOD-UHFFFAOYSA-N
Adsorbate Methane: InChIKey VNWKTOKETHGBQD-UHFFFAOYSA-N
Kind: experiment
Temperature: 313 K
Tabular data in the source: 0
pressure (bar)	N-Butane fraction	N-Butane uptake (mmol/g)	Methane fraction	Methane uptake (mmol/g)	total uptake (mmol/g)
13.1	0.0192	3.445	0.9808	0.459	3.904
27.3722	0.0172	3.402	0.9828	0.576	3.978
47.7117	0.0164	3.338	0.9836	0.6	3.938
68.396	0.0171	3.255	0.9829	0.553	3.808
85.7363	0.0186	3.161	0.9814	0.483	3.644
103.215	0.0199	3.056	0.9801	0.398	3.454
120.486	0.0211	2.944	0.9789	0.266	3.21
136.895	0.0225	-0.004	0.9775	0.712	
