Adsorption isotherm of N-propane, Methane on charcoal (Columbia G, 8/14 mesh)
DOI: 10.1021/i160027a004
Article source: Table IV
Adsorbate N-propane: InChIKey ATUOYWHBWRKTHZ-UHFFFAOYSA-N
Adsorbate Methane: InChIKey VNWKTOKETHGBQD-UHFFFAOYSA-N
Kind: experiment
Temperature: 303 K
Tabular data in the source: 0
pressure (bar)	N-propane fraction	N-propane uptake (mmol/g)	Methane fraction	Methane uptake (mmol/g)	total uptake (mmol/g)
7.06713	0.0237	3.279	0.9763	1.163	4.442
14.1687	0.0189	3.26	0.9811	1.893	5.153
20.8566	0.0167	3.244	0.9833	2.362	5.606
27.7859	0.0173	3.218	0.9827	2.786	6.004
34.5772	0.0176	3.193	0.9824	3.073	6.266
51.6417	0.019	3.116	0.981	3.673	6.789
69.1199	0.0187	3.047	0.9813	4.156	7.203
89.8732	0.0221	2.893	0.9779	4.477	7.37
110.592	0.0247	2.719	0.9753	4.838	7.557
131.173	0.0249	2.588	0.9751	5.089	7.677
