Adsorption isotherm of N-propane, Methane on charcoal (Columbia G, 8/14 mesh)
DOI: 10.1021/i160027a004
Article source: Table IV
Adsorbate N-propane: InChIKey ATUOYWHBWRKTHZ-UHFFFAOYSA-N
Adsorbate Methane: InChIKey VNWKTOKETHGBQD-UHFFFAOYSA-N
Kind: experiment
Temperature: 303 K
Tabular data in the source: 0
pressure (bar)	N-propane fraction	N-propane uptake (mmol/g)	Methane fraction	Methane uptake (mmol/g)	total uptake (mmol/g)
3.44738	0.0132	2.219	0.9868	1.011	3.23
7.03265	0.0095	2.215	0.9905	1.741	3.956
13.8585	0.0073	2.208	0.9927	2.609	4.817
20.7877	0.00746	2.198	0.99254	3.227	5.425
34.4738	0.012	2.148	0.988	4.037	6.185
51.8141	0.00895	2.136	0.99105	4.674	6.81
