Adsorption isotherm of N-propane, Methane on charcoal (Columbia G, 8/14 mesh)
DOI: 10.1021/i160027a004
Article source: Table IV
Adsorbate N-propane: InChIKey ATUOYWHBWRKTHZ-UHFFFAOYSA-N
Adsorbate Methane: InChIKey VNWKTOKETHGBQD-UHFFFAOYSA-N
Kind: experiment
Temperature: 303 K
Tabular data in the source: 0
pressure (bar)	N-propane fraction	N-propane uptake (mmol/g)	Methane fraction	Methane uptake (mmol/g)	total uptake (mmol/g)
3.58527	0.0766	3.895	0.9234	0.482	4.377
6.99818	0.048	3.884	0.952	0.893	4.777
13.8929	0.0332	3.86	0.9668	1.466	5.326
27.6825	0.0285	3.796	0.9715	2.24	6.036
41.472	0.0296	3.707	0.9704	2.805	6.512
55.296	0.03	3.615	0.97	3.242	6.857
69.0165	0.0316	3.5	0.9684	3.631	7.131
86.2534	0.0324	3.358	0.9676	4.052	7.41
