Adsorption isotherm of N-Butane, Methane on charcoal (Columbia G, 8/14 mesh)
DOI: 10.1021/i160027a004
Article source: Table V
Adsorbate N-Butane: InChIKey IJDNQMDRQITEOD-UHFFFAOYSA-N
Adsorbate Methane: InChIKey VNWKTOKETHGBQD-UHFFFAOYSA-N
Kind: experiment
Temperature: 313 K
Tabular data in the source: 0
pressure (bar)	N-Butane fraction	N-Butane uptake (mmol/g)	Methane fraction	Methane uptake (mmol/g)	total uptake (mmol/g)
17.754	0.00092	1.743	0.99908	1.938	3.681
34.4738	0.001398	1.737	0.998602	2.417	4.154
51.8486	0.001593	1.73	0.998407	2.633	4.363
68.9131	0.002118	1.717	0.997882	2.659	4.376
86.15	0.002597	1.7	0.997403	2.66	4.36
103.283	0.003334	1.674	0.996666	2.557	4.231
120.589	0.003843	1.648	0.996157	2.363	4.011
137.24	0.00459	1.611	0.99541	2.215	3.826
