Adsorption isotherm of N-Butane, Methane on charcoal (Columbia G, 8/14 mesh)
DOI: 10.1021/i160027a004
Article source: Table V
Adsorbate N-Butane: InChIKey IJDNQMDRQITEOD-UHFFFAOYSA-N
Adsorbate Methane: InChIKey VNWKTOKETHGBQD-UHFFFAOYSA-N
Kind: experiment
Temperature: 333 K
Tabular data in the source: 0
pressure (bar)	N-Butane fraction	N-Butane uptake (mmol/g)	Methane fraction	Methane uptake (mmol/g)	total uptake (mmol/g)
17.1335	0.0352	3.386	0.9648	0.341	3.727
34.6117	0.0278	3.318	0.9722	0.433	3.751
51.8141	0.026	3.245	0.974	0.439	3.684
68.5684	0.0259	3.159	0.9741	0.413	3.572
85.9776	0.0263	3.06	0.9737	0.368	3.428
103.18	0.0264	2.964	0.9736	0.278	3.242
120.658	0.027	-0.005	0.973	0.535	
136.964	0.0271	2.759	0.9729	0.085	2.844
