Adsorption isotherm of N-Butane, Methane on charcoal (Columbia G, 8/14 mesh)
DOI: 10.1021/i160027a004
Article source: Table V
Adsorbate N-Butane: InChIKey IJDNQMDRQITEOD-UHFFFAOYSA-N
Adsorbate Methane: InChIKey VNWKTOKETHGBQD-UHFFFAOYSA-N
Kind: experiment
Temperature: 343 K
Tabular data in the source: 0
pressure (bar)	N-Butane fraction	N-Butane uptake (mmol/g)	Methane fraction	Methane uptake (mmol/g)	total uptake (mmol/g)
17.2024	0.0462	3.358	0.9538	0.277	3.635
33.8188	0.0348	3.288	0.9652	0.334	3.622
50.3317	0.0309	3.21	0.9691	0.302	3.512
69.051	0.0298	3.122	0.9702	0.277	3.399
85.8053	0.0296	3.029	0.9704	0.237	3.266
103.215	0.0294	2.932	0.9706	0.127	3.059
120.382	0.0294	2.83	0.9706	0.039	2.869
