Adsorption isotherm of N-Butane, Methane on charcoal (Columbia G, 8/14 mesh)
DOI: 10.1021/i160027a004
Article source: Table V
Adsorbate N-Butane: InChIKey IJDNQMDRQITEOD-UHFFFAOYSA-N
Adsorbate Methane: InChIKey VNWKTOKETHGBQD-UHFFFAOYSA-N
Kind: experiment
Temperature: 313 K
Tabular data in the source: 0
pressure (bar)	N-Butane fraction	N-Butane uptake (mmol/g)	Methane fraction	Methane uptake (mmol/g)	total uptake (mmol/g)
0.137895	1	3.467	0	0	3.467
