Adsorption isotherm of Toluene on 3wt% PdCl2/MIL-101
DOI: 10.1039/c3ra45983g
Article source: Figure 7a
Adsorbate Toluene: InChIKey YXFVVABEGXRONW-UHFFFAOYSA-N
Kind: experiment
Temperature: 298 K
Tabular data in the source: 0
pressure (bar)	uptake (mg/g)
0.000271	59.2415
0.000433	88.8605
0.001137	239.432
0.001733	459.146
0.002275	656.641
0.003412	915.826
0.00455	1061.43
0.006771	1179.8
0.009046	1214.22
0.011212	1226.43
0.015762	1236
0.019175	1253.07
0.022533	1260.25
0.026974	1264.9
0.029249	1269.69
0.03147	1274.48
0.033745	1276.8
