Adsorption isotherm of Toluene on MIL-101
DOI: 10.1039/c3ra45983g
Article source: Figure 7a
Adsorbate Toluene: InChIKey YXFVVABEGXRONW-UHFFFAOYSA-N
Kind: experiment
Temperature: 298 K
Tabular data in the source: 0
pressure (bar)	uptake (mg/g)
5.4e-05	7.42268
0.000271	29.6907
0.000487	51.9588
0.001246	81.6495
0.00195	106.392
0.002546	153.402
0.003792	408.247
0.004983	697.732
0.007475	964.948
0.010021	1056.49
0.012566	1071.34
0.017604	1088.66
0.021395	1101.03
0.025079	1110.93
0.03017	1110.93
0.032662	1113.4
0.033745	1115.88
