Adsorption isotherm of Nitrogen on MIL-101
DOI: 10.1039/c3ra45983g
Article source: Figure 2
Adsorbate Nitrogen: InChIKey IJGRMHOSHXDMSA-UHFFFAOYSA-N
Kind: experiment
Temperature: 77 K
Tabular data in the source: 0
pressure (bar)	uptake (cm3(STP)/g)
0	46.2963
0	298.148
1.3e-05	9.25926
0.000164	114.815
0.000285	200
0.00033	231.481
0.000364	255.556
0.001459	24.0741
0.001525	70.3704
0.001557	92.5926
0.003309	322.222
0.019176	455.556
0.024905	475.926
0.03064	500
0.037789	516.667
0.046374	540.741
0.050673	557.407
0.05925	575.926
0.070677	594.444
0.079254	612.963
0.087831	631.481
0.097836	651.852
0.104988	670.37
0.109277	679.63
0.122158	718.519
0.139328	766.667
0.159316	792.593
0.193556	818.519
0.213538	840.741
0.216397	846.296
0.222122	862.963
0.23216	907.407
0.242165	927.778
0.287784	938.889
0.329118	942.593
0.367603	948.148
0.403241	955.556
0.455979	961.111
0.50301	962.963
0.558597	968.519
0.602777	970.37
0.661212	974.074
0.703968	975.926
0.751002	979.63
0.803733	981.481
0.812284	981.481
0.855042	985.185
0.917752	988.889
0.94341	992.593
0.969069	998.148
0.974772	1000
0.986178	1003.7
0.997584	1007.41
1.00758	1020.37
