Adsorption isotherm of Nitrogen on 3wt% PdCl2/MIL-101
DOI: 10.1039/c3ra45983g
Article source: Figure 6
Adsorbate Nitrogen: InChIKey IJGRMHOSHXDMSA-UHFFFAOYSA-N
Kind: experiment
Temperature: 298 K
Tabular data in the source: 0
pressure (bar)	uptake (wt%)
0	0
0.051776	0.012032
0.096155	0.013123
0.202665	0.015372
0.304736	0.017621
0.402371	0.019938
0.508881	0.02246
0.605036	0.02464
0.707107	0.026686
0.810659	0.028867
0.908293	0.031116
1.00741	0.033433
