Adsorption isotherm of Nitrogen on 3wt% PdCl2/MIL-101
DOI: 10.1039/c3ra45983g
Article source: Figure 2
Adsorbate Nitrogen: InChIKey IJGRMHOSHXDMSA-UHFFFAOYSA-N
Kind: experiment
Temperature: 77 K
Tabular data in the source: 0
pressure (bar)	uptake (cm3(STP)/g)
0	12.963
0	124.074
0	170.37
4.8e-05	33.3333
8.2e-05	57.4074
0.000113	79.6296
0.000208	146.296
0.000272	190.741
0.000333	233.333
0.000364	255.556
0.00157	101.852
0.001729	212.963
0.001821	277.778
0.0047	298.148
0.004729	318.519
0.007611	340.741
0.01049	361.111
0.019139	429.63
0.024863	446.296
0.03344	464.815
0.040594	485.185
0.049182	511.111
0.059192	535.185
0.076333	562.963
0.086346	588.889
0.107782	631.481
0.120662	668.519
0.139251	712.963
0.16066	735.185
0.192048	761.111
0.216308	783.333
0.222034	801.852
0.232068	842.593
0.24207	861.111
0.287689	872.222
0.329028	879.63
0.367511	883.333
0.403144	887.037
0.45588	892.593
0.502911	894.444
0.558498	900
0.604108	903.704
0.661114	905.556
0.703872	909.259
0.750901	909.259
0.803636	912.963
0.812186	912.963
0.854945	916.667
0.916229	920.37
0.943309	922.222
0.967541	925.926
0.974672	929.63
0.984648	929.63
0.994628	933.333
1.00748	948.148
