Adsorption isotherm of Toluene on 5wt% PdCl2/MIL-101
DOI: 10.1039/c3ra45983g
Article source: Figure 7a
Adsorbate Toluene: InChIKey YXFVVABEGXRONW-UHFFFAOYSA-N
Kind: experiment
Temperature: 298 K
Tabular data in the source: 0
pressure (bar)	uptake (mg/g)
5.4e-05	27.1569
0.001083	130.793
0.001679	212.236
0.002275	350.468
0.003358	619.533
0.004442	841.684
0.006771	1100.79
0.009046	1150.02
0.011212	1159.76
0.015708	1181.69
0.01912	1193.81
0.022479	1203.47
0.026974	1215.52
0.029249	1217.84
0.03147	1222.63
0.033745	1229.89
