Adsorption isotherm of Nitrogen on 5wt% PdCl2/MIL-101
DOI: 10.1039/c3ra45983g
Article source: Figure 2
Adsorbate Nitrogen: InChIKey IJGRMHOSHXDMSA-UHFFFAOYSA-N
Kind: experiment
Temperature: 77 K
Tabular data in the source: 0
pressure (bar)	uptake (cm3(STP)/g)
0	64.8148
0	90.7407
0	118.519
0	179.63
1.3e-05	9.25926
5.5e-05	38.8889
0.000211	148.148
0.000301	211.111
0.001768	240.741
0.001805	266.667
0.003267	292.593
0.006165	325.926
0.009039	342.593
0.01049	361.111
0.013356	372.222
0.014811	392.593
0.017674	401.852
0.021965	412.963
0.026259	425.926
0.029128	438.889
0.033419	450
0.036285	461.111
0.043431	475.926
0.04772	485.185
0.053439	498.148
0.059158	511.111
0.064874	522.222
0.069163	531.481
0.073451	540.741
0.077739	550
0.08345	557.407
0.090594	570.37
0.096319	587.037
0.100607	596.296
0.102042	603.704
0.10919	618.519
0.11778	646.296
0.144897	674.074
0.169152	694.444
0.187694	705.556
0.20625	725.926
0.209121	740.741
0.217696	757.407
0.22626	766.667
0.241967	788.889
0.281888	801.852
0.304692	803.704
0.356007	811.111
0.401613	812.963
0.455772	816.667
0.501383	822.222
0.556965	824.074
0.601144	824.074
0.659576	825.926
0.702337	831.481
0.749368	833.333
0.804947	833.333
0.812075	835.185
0.851978	835.185
0.934642	840.741
0.943196	842.593
0.968852	846.296
0.974558	850
0.983112	851.852
0.991665	853.704
1.00879	870.37
