Adsorption isotherm of Hydrogen on MIL-101
DOI: 10.1039/c3ra45983g
Article source: Figure 8
Adsorbate Hydrogen: InChIKey UFHFLCQGNIYNRP-UHFFFAOYSA-N
Kind: experiment
Temperature: 298 K
Tabular data in the source: 0
pressure (bar)	uptake (wt%)
1.1093	0.017722
3.3249	0.034177
6.20501	0.05443
8.97326	0.067089
11.7415	0.079747
18.6064	0.108861
25.3605	0.136709
32.2248	0.162025
39.0889	0.186076
45.9522	0.205063
52.8157	0.225316
59.4573	0.241772
66.3208	0.262025
72.9624	0.278481
