Adsorption isotherm of Nitrogen on 1wt% PdCl2/MIL-101
DOI: 10.1039/c3ra45983g
Article source: Figure 2
Adsorbate Nitrogen: InChIKey IJGRMHOSHXDMSA-UHFFFAOYSA-N
Kind: experiment
Temperature: 77 K
Tabular data in the source: 0
pressure (bar)	uptake (cm3(STP)/g)
0.000414	290.741
0.004769	346.296
0.007653	370.37
0.010538	394.444
0.011984	409.259
0.016288	429.63
0.020593	450
0.023464	464.815
0.030613	481.481
0.036338	498.148
0.040637	514.815
0.047786	531.481
0.054933	546.296
0.060654	561.111
0.069226	575.926
0.077795	588.889
0.083516	603.704
0.092091	620.37
0.099235	633.333
0.106389	653.704
0.116399	677.778
0.140724	746.296
0.159277	764.815
0.190668	792.593
0.212069	809.259
0.216357	818.519
0.222079	833.333
0.226391	859.259
0.250676	900
0.273483	903.704
0.290592	909.259
0.306271	911.111
0.354735	918.519
0.403194	922.222
0.455931	927.778
0.501539	931.481
0.557124	935.185
0.602733	938.889
0.659742	942.593
0.702497	944.444
0.749529	946.296
0.803691	951.852
0.812241	951.852
0.855	955.556
0.91629	962.963
0.943369	964.815
0.96761	974.074
0.976163	975.926
0.984719	979.63
0.993288	992.593
