Adsorption isotherm of Nitrogen on 1wt% PdCl2/MIL-101
DOI: 10.1039/c3ra45983g
Article source: Figure 6
Adsorbate Nitrogen: InChIKey IJGRMHOSHXDMSA-UHFFFAOYSA-N
Kind: experiment
Temperature: 298 K
Tabular data in the source: 0
pressure (bar)	uptake (wt%)
0	0
0.050296	0.005019
0.075445	0.005426
0.153847	0.006308
0.210061	0.006986
0.309175	0.008275
0.399412	0.00936
0.502964	0.010581
0.606515	0.011802
0.707107	0.012955
0.80918	0.013973
0.911252	0.014923
1.00741	0.016008
