Adsorption isotherm of Nitrogen on 5wt% PdCl2/MIL-101
DOI: 10.1039/c3ra45983g
Article source: Figure 6
Adsorbate Nitrogen: InChIKey IJGRMHOSHXDMSA-UHFFFAOYSA-N
Kind: experiment
Temperature: 298 K
Tabular data in the source: 0
pressure (bar)	uptake (wt%)
0	0
0.051776	0.009926
0.102072	0.010608
0.210061	0.01211
0.326926	0.013749
0.400891	0.015181
0.500006	0.01675
0.607994	0.01832
0.708587	0.020026
0.80918	0.021459
0.912732	0.022961
1.00741	0.024462
