Adsorption isotherm of Hydrogen on 5wt% PdCl2/MIL-101
DOI: 10.1039/c3ra45983g
Article source: Figure 8
Adsorbate Hydrogen: InChIKey UFHFLCQGNIYNRP-UHFFFAOYSA-N
Kind: experiment
Temperature: 298 K
Tabular data in the source: 0
pressure (bar)	uptake (wt%)
0.335152	0.020253
1.22115	0.025316
3.21465	0.036709
8.86341	0.072152
11.6327	0.091139
18.4996	0.132911
25.2578	0.187342
32.1265	0.240506
38.8834	0.286076
45.7505	0.329114
52.6182	0.375949
59.7056	0.412658
66.4625	0.458228
73.3264	0.481013
