Adsorption isotherm of Hydrogen on 1wt% PdCl2/MIL-101
DOI: 10.1039/c3ra45983g
Article source: Figure 8
Adsorbate Hydrogen: InChIKey UFHFLCQGNIYNRP-UHFFFAOYSA-N
Kind: experiment
Temperature: 298 K
Tabular data in the source: 0
pressure (bar)	uptake (wt%)
0	0.007595
1.5525	0.021519
3.5464	0.035443
6.97996	0.056962
10.3027	0.077215
17.0585	0.116456
23.9258	0.160759
30.7925	0.201266
37.5484	0.240506
44.4143	0.275949
51.1692	0.308861
58.0347	0.341772
64.9006	0.377215
71.6564	0.416456
