Adsorption isotherm of Toluene on 1wt% PdCl2/MIL-101
DOI: 10.1039/c3ra45983g
Article source: Figure 7a
Adsorbate Toluene: InChIKey YXFVVABEGXRONW-UHFFFAOYSA-N
Kind: experiment
Temperature: 298 K
Tabular data in the source: 0
pressure (bar)	uptake (mg/g)
5.4e-05	9.873
0.000217	34.5537
0.000487	54.2891
0.001137	91.2835
0.001733	133.22
0.002275	185.036
0.003412	431.875
0.004496	720.693
0.006716	1004.5
0.008991	1117.93
0.011266	1135.06
0.015762	1159.46
0.01912	1169.12
0.022479	1178.77
0.026974	1190.83
0.029249	1193.15
0.031524	1200.4
0.033745	1202.73
