Adsorption isotherm of Hydrogen on 3wt% PdCl2/MIL-101
DOI: 10.1039/c3ra45983g
Article source: Figure 8
Adsorbate Hydrogen: InChIKey UFHFLCQGNIYNRP-UHFFFAOYSA-N
Kind: experiment
Temperature: 298 K
Tabular data in the source: 0
pressure (bar)	uptake (wt%)
0	0
0.667102	0.020253
1.22395	0.043038
2.00391	0.077215
3.32911	0.06076
4.99626	0.107595
6.76446	0.093671
8.09926	0.137975
10.0942	0.158228
10.3091	0.117722
11.8662	0.168354
14.9692	0.198734
17.0715	0.198734
20.0651	0.236709
23.944	0.275949
25.1622	0.282278
30.8141	0.337975
35.1345	0.36962
44.4387	0.43038
45.1054	0.448101
55.1858	0.518987
57.9544	0.534177
66.1511	0.588608
69.3628	0.606329
74.3468	0.636709
