Adsorption isotherm of Carbon Dioxide on mmen-Mg2(dobpdc)
DOI: 10.1021/acs.iecr.6b03887
Article source: Figure 4
Adsorbate Carbon Dioxide: InChIKey CURLTUGMZLYLDI-UHFFFAOYSA-N
Kind: experiment
Temperature: 348 K
Tabular data in the source: 0
pressure (bar)	uptake (mmol/g)
0.015115	2.99346
0.015126	3.05882
0.015138	3.13072
0.024458	3.23529
0.032444	3.31372
0.040425	3.35948
0.055052	3.41177
0.069675	3.44444
0.077651	3.45752
0.089611	3.45752
0.100245	3.47712
0.126826	3.4902
0.149418	3.49673
0.17467	3.51634
0.197264	3.52941
0.249091	3.52941
0.299594	3.55556
0.351423	3.56863
0.400595	3.5817
0.451098	3.60784
0.49894	3.62091
0.546785	3.64706
0.601274	3.66667
0.650446	3.68628
0.69696	3.69935
0.751448	3.71895
0.803277	3.72549
0.84979	3.73856
0.901624	3.77778
0.946808	3.78431
1.00395	3.79085
1.04781	3.80392
1.09964	3.81699
