Adsorption isotherm of Carbon Dioxide on MIL-101(Cr)-PEI-800
DOI: 10.1021/acs.iecr.6b03887
Article source: Figure 3
Adsorbate Carbon Dioxide: InChIKey CURLTUGMZLYLDI-UHFFFAOYSA-N
Kind: experiment
Temperature: 298 K
Tabular data in the source: 0
pressure (bar)	uptake (mmol/g)
0.002327	1.89615
0.003543	2.02439
0.005941	2.16484
0.015418	2.3297
0.018974	2.39686
0.029611	2.50065
0.037886	2.58612
0.052052	2.66546
0.07682	2.72646
0.106311	2.81797
0.152306	2.92775
0.212436	3.00696
0.301457	3.14409
0.425845	3.31776
0.600326	3.50654
0.660455	3.58574
0.692289	3.62839
0.763025	3.70757
0.798396	3.75631
0.879739	3.83545
0.921003	3.88418
1.01414	3.9755
