Adsorption isotherm of Carbon Dioxide on MIL-101(Cr)-PEI-800
DOI: 10.1021/acs.iecr.6b03887
Article source: Figure 3
Adsorbate Carbon Dioxide: InChIKey CURLTUGMZLYLDI-UHFFFAOYSA-N
Kind: experiment
Temperature: 373 K
Tabular data in the source: 0
pressure (bar)	uptake (mmol/g)
0.002967	0.070193
0.002994	0.161796
0.013644	0.308328
0.020753	0.436551
0.027868	0.583094
0.03852	0.735733
0.05507	0.906675
0.076336	1.08371
0.148326	1.41937
0.210842	1.59628
0.300462	1.76699
0.423079	1.93151
0.601085	2.08363
0.721912	2.16876
0.807373	2.22346
0.912282	2.28421
1.01247	2.32665
