Adsorption isotherm of Carbon Dioxide on mmen-Mg2(dobpdc)
DOI: 10.1021/acs.iecr.6b03887
Article source: Figure 4
Adsorbate Carbon Dioxide: InChIKey CURLTUGMZLYLDI-UHFFFAOYSA-N
Kind: experiment
Temperature: 298 K
Tabular data in the source: 0
pressure (bar)	uptake (mmol/g)
0.003193	3.22222
0.00321	3.3268
0.007219	3.45752
0.032472	3.48366
0.059055	3.5098
0.082977	3.52288
0.113546	3.54902
0.141455	3.56209
0.170695	3.5817
0.201263	3.60131
0.250438	3.63399
0.29828	3.64706
0.346127	3.68628
0.395303	3.72549
0.451123	3.75817
0.500297	3.79085
0.548146	3.8366
0.599977	3.86275
0.647822	3.88889
0.700987	3.94118
0.747502	3.96078
0.798007	4
0.852496	4.02614
0.90167	4.05229
0.949515	4.07843
1.00002	4.11111
1.05053	4.16994
1.10369	4.19608
