Adsorption isotherm of Carbon Dioxide on mmen-Mg2(dobpdc)
DOI: 10.1021/acs.iecr.6b03887
Article source: Figure 4
Adsorbate Carbon Dioxide: InChIKey CURLTUGMZLYLDI-UHFFFAOYSA-N
Kind: experiment
Temperature: 323 K
Tabular data in the source: 0
pressure (bar)	uptake (mmol/g)
0.011147	3.10457
0.012493	3.20915
0.017827	3.32026
0.037777	3.4183
0.071006	3.45752
0.094933	3.49673
0.116199	3.51634
0.145439	3.54248
0.173349	3.56209
0.20259	3.59477
0.250431	3.59477
0.298276	3.62091
0.347451	3.65359
0.403268	3.6732
0.449786	3.71242
0.498959	3.73203
0.549463	3.76471
0.601289	3.75817
0.653117	3.76471
0.700962	3.79085
0.75279	3.79739
0.801965	3.83007
0.848479	3.84314
0.900311	3.86928
0.949482	3.88235
1.00131	3.90196
1.05049	3.92811
1.09966	3.92811
