Adsorption isotherm of Carbon Dioxide on DUT-8(Co)
DOI: 10.1039/C2jm15601f
Adsorbate Carbon Dioxide: InChIKey CURLTUGMZLYLDI-UHFFFAOYSA-N
Temperature: 195 K
Tabular data in the source: 0
pressure (bar)	uptake (mmol/g)
0.0178905	0.39139
0.0298174	0.652317
0.044683	1.07632
0.0564947	1.59818
0.0771508	2.54404
0.110137	2.83758
0.140228	2.87019
0.158263	2.93543
0.191336	3.03327
0.239461	3.13112
0.269538	3.19635
0.314653	3.2942
0.341748	3.2942
0.368814	3.35943
0.416969	3.39205
0.434989	3.48989
0.468062	3.58774
0.489078	3.71821
0.51008	3.88128
0.540085	4.1096
0.564025	4.43575
0.588037	4.59883
0.612035	4.79453
0.660017	5.21853
0.714092	5.47946
0.768181	5.70777
0.816292	5.83823
0.867414	5.9687
0.924614	5.9687
0.960727	6.00131
