Adsorption isotherm of Methane on DUT-8(Co)
DOI: 10.1039/C2jm15601f
Adsorbate Methane: InChIKey VNWKTOKETHGBQD-UHFFFAOYSA-N
Temperature: 298 K
Tabular data in the source: 0
pressure (bar)	uptake (mmol/g)
2.5641	0.463884
7.69231	1.02054
11.6809	1.39165
14.8148	1.66998
17.3789	1.85554
21.3675	2.08748
24.2165	2.22664
26.7806	2.31942
31.339	2.45859
34.188	2.55136
36.7521	2.59775
41.3105	2.69053
44.1595	2.73692
47.0085	2.7833
51.2821	2.82969
54.1311	2.87608
56.9801	2.87608
61.5385	2.92247
64.1026	2.96886
66.6667	2.96886
71.51	2.96886
74.359	2.96886
77.208	2.96886
81.4815	2.96886
84.3305	2.96886
87.1795	2.96886
90.0285	3.01525
92.5926	2.96886
95.4416	2.92247
98.2906	2.92247
