Adsorption isotherm of Hydrogen on DUT-8(Ni)
DOI: 10.1039/C2jm15601f
Adsorbate Hydrogen: InChIKey UFHFLCQGNIYNRP-UHFFFAOYSA-N
Temperature: 77 K
Tabular data in the source: 0
pressure (bar)	uptake (mmol/g)
1.9943	1.04569
3.7037	1.74238
6.55271	2.20485
9.40171	2.31798
10.8262	2.19987
16.2393	2.42646
21.6524	2.65305
26.4957	2.64741
31.6239	2.75789
47.2934	2.97253
62.963	3.07073
73.2194	3.05879
78.6325	3.16893
88.3191	3.15765
99.4302	3.37761
