Adsorption isotherm of Nitrogen on DUT-8(Ni)
DOI: 10.1039/C2jm15601f
Adsorbate Nitrogen: InChIKey IJGRMHOSHXDMSA-UHFFFAOYSA-N
Temperature: 77 K
Tabular data in the source: 0
pressure (bar)	uptake (cm3(STP)/g)
0.0509748	0.181824
0.074963	-3.19796
0.0989511	0.352952
0.107947	52.3652
0.128936	239.569
0.134933	274.244
0.152924	402.526
0.158921	437.201
0.179911	506.582
0.203899	544.787
0.22189	565.643
0.227887	576.06
0.254874	590.018
0.278862	603.965
0.293855	607.484
0.347828	625.003
0.371816	635.485
0.398803	639.046
0.422791	642.597
0.470767	642.768
0.536735	649.934
0.58771	657.047
0.638684	653.763
0.683662	660.854
0.731639	664.491
0.782613	664.673
0.83059	671.775
0.881564	675.422
