Adsorption isotherm of Hydrogen on DUT-8(Co)
DOI: 10.1039/C2jm15601f
Adsorbate Hydrogen: InChIKey UFHFLCQGNIYNRP-UHFFFAOYSA-N
Temperature: 77 K
Tabular data in the source: 0
pressure (bar)	uptake (mmol/g)
1.1396	4.65653
1.7094	6.519
2.5641	8.14826
3.7037	9.54428
6.26781	11.1715
7.97721	12.4505
10.8262	13.2623
15.6695	13.9553
20.2279	14.4158
25.3561	14.6427
30.1994	14.7535
35.0427	14.7479
40.4558	14.7416
44.4444	14.504
49.8575	14.3813
54.9858	14.1424
60.114	14.02
65.2422	13.5482
70.3704	13.4258
75.7835	13.0702
85.755	12.5928
91.1681	12.2371
96.5812	12.1144
99.1453	12.1114
