Adsorption isotherm of Methane on DUT-8(Zn)
DOI: 10.1039/C2jm15601f
Adsorbate Methane: InChIKey VNWKTOKETHGBQD-UHFFFAOYSA-N
Temperature: 298 K
Tabular data in the source: 0
pressure (bar)	uptake (mmol/g)
2.849	0.371107
6.55271	0.927768
8.54701	1.06693
12.2507	1.29888
15.0997	1.48443
17.6638	1.62359
21.3675	1.80915
24.2165	1.90192
26.7806	1.9947
35.0427	2.22664
37.3219	2.18026
39.6011	2.27303
42.4501	2.31942
45.2991	2.36581
47.5783	2.27303
49.0028	2.4122
51.567	2.4122
54.416	2.45859
76.0684	2.45859
78.9174	2.45859
81.4815	2.45859
84.3305	2.45859
88.3191	2.45859
91.1681	2.4122
96.0114	2.4122
98.5755	2.36581
99.4302	2.36581
