Adsorption isotherm of Carbon Dioxide on DUT-8(Ni)
DOI: 10.1039/C2jm15601f
Adsorbate Carbon Dioxide: InChIKey CURLTUGMZLYLDI-UHFFFAOYSA-N
Temperature: 195 K
Tabular data in the source: 0
pressure (bar)	uptake (mmol/g)
0.0453502	0.60593
0.0997302	0.908895
0.157101	0.908895
0.205413	0.908895
0.256759	1.06038
0.311111	1.06038
0.353398	1.21186
0.402084	5.1504
0.45113	12.876
0.509061	18.7838
0.554613	21.5105
0.606088	23.0253
0.657521	24.0857
0.711929	24.6916
0.757265	25.1461
0.814665	25.4491
0.875098	25.9035
0.914366	26.055
0.971751	26.2065
1.00195	26.2065
