Adsorption isotherm of Nitrogen on DUT-8(Co)
DOI: 10.1039/C2jm15601f
Adsorbate Nitrogen: InChIKey IJGRMHOSHXDMSA-UHFFFAOYSA-N
Temperature: 77 K
Tabular data in the source: 0
pressure (bar)	uptake (cm3(STP)/g)
0.00299852	131.694
0.00599704	221.804
0.0179911	284.223
0.0359822	325.871
0.0599704	336.353
0.0959526	350.342
0.146927	357.455
0.203899	361.123
0.245879	364.738
0.299852	364.931
0.350827	372.043
0.398803	372.215
0.443781	375.84
0.494756	376.022
0.548729	379.68
0.596705	379.851
0.638684	380.001
0.689659	387.113
0.734637	387.274
0.791609	387.477
0.836587	398.034
0.881564	401.659
0.920545	412.194
0.938536	429.585
