Adsorption isotherm of Methane on DUT-8(Cu)
DOI: 10.1039/C2jm15601f
Adsorbate Methane: InChIKey VNWKTOKETHGBQD-UHFFFAOYSA-N
Temperature: 298 K
Tabular data in the source: 0
pressure (bar)	uptake (mmol/g)
1.9943	0.742215
2.849	1.15971
3.9886	1.62359
5.98291	2.4122
7.12251	2.82969
8.26211	3.24719
10.8262	4.03579
12.2507	4.4069
13.9601	4.82439
15.3846	5.1955
17.094	5.613
20.7977	6.35521
22.792	6.67993
24.7863	7.00465
27.0655	7.28298
30.1994	7.6077
34.7578	8.07158
39.886	8.3963
41.0256	8.48908
43.5897	8.62824
46.4387	8.76741
50.1425	8.86019
50.9972	8.90657
53.8462	8.99935
60.3989	9.13852
70.3704	9.23129
71.2251	9.23129
73.2194	9.27768
80.057	9.23129
81.7664	9.23129
83.4758	9.23129
86.3248	9.23129
88.8889	9.23129
90.0285	9.13852
92.8775	9.13852
95.4416	9.09213
99.7151	9.04574
