Adsorption isotherm of Hydrogen on DUT-8(Zn)
DOI: 10.1039/C2jm15601f
Adsorbate Hydrogen: InChIKey UFHFLCQGNIYNRP-UHFFFAOYSA-N
Temperature: 77 K
Tabular data in the source: 0
pressure (bar)	uptake (mmol/g)
1.7094	2.55983
2.2792	3.37429
3.1339	3.83908
5.98291	4.65089
8.54701	5.23013
11.396	5.45971
14.5299	5.68895
17.6638	5.80175
20.2279	5.91521
23.6467	6.02767
26.2108	5.90824
29.3447	6.02104
33.0484	6.01672
38.4615	6.01042
44.1595	5.77089
50.4274	5.76359
56.1254	5.64051
62.1083	5.63355
68.0912	5.39369
74.359	5.26994
80.3419	5.26298
86.6097	5.13923
90.3134	5.13492
