Adsorption isotherm of Xenon on DUT-8(Co)
DOI: 10.1039/C2jm15601f
Adsorbate Xenon: InChIKey FHNFHKCVQCLJFQ-UHFFFAOYSA-N
Temperature: 165 K
Tabular data in the source: 0
pressure (bar)	uptake (cm3(STP)/g)
0.00109729	3.96245
0.00139894	5.17207
0.00162832	5.77553
0.00186668	6.37967
0.00213998	6.9838
0.00237975	7.79267
0.00268658	9.00765
0.00312579	11.2383
0.00332002	13.2695
0.00347312	15.3014
0.00363346	17.1299
0.00380102	19.1618
0.00409695	23.2263
0.00441835	25.0535
0.00469311	26.8813
0.00529688	29.1133
0.00645164	30.5283
0.0070666	31.1344
0.00847911	31.7366
0.010174	32.3387
0.0125852	32.7361
0.0151008	33.3382
0.0195488	34.1403
0.0245522	34.5371
0.030834	35.1372
0.042419	35.9366
0.0557494	37.1449
0.0710821	37.9477
0.0892648	38.7512
0.113822	39.3507
0.163891	40.1481
0.215405	41.153
0.270521	41.7531
0.314877	42.3566
0.366525	42.7566
0.420187	43.3608
0.481706	43.9649
0.560661	44.7718
0.652387	46.5956
0.74771	48.2167
0.818764	49.8398
