Adsorption isotherm of Carbon Dioxide on DUT-8(Cu)
DOI: 10.1039/C2jm15601f
Adsorbate Carbon Dioxide: InChIKey CURLTUGMZLYLDI-UHFFFAOYSA-N
Temperature: 195 K
Tabular data in the source: 0
pressure (bar)	uptake (mmol/g)
0.0213523	2.27224
0.0365793	3.63558
0.0487867	4.99892
0.0643156	9.54339
0.0709729	16.0571
0.104835	22.8738
0.120033	23.9342
0.156353	24.8431
0.18061	25.9035
0.201775	26.2065
0.232042	26.9639
0.259232	27.1154
0.286466	27.7213
0.310607	27.5698
0.340831	27.8728
0.355929	27.8728
0.389187	28.3272
0.413343	28.3272
0.437499	28.3272
0.470728	28.4787
0.491893	28.7817
0.516049	28.7817
0.567395	28.9331
0.621761	29.0846
0.667082	29.3876
0.718443	29.6906
0.772794	29.6906
0.824169	30.145
0.923813	30.145
0.975159	30.2965
