Adsorption isotherm of Nitrogen on DUT-8(Zn)
DOI: 10.1039/C2jm15601f
Adsorbate Nitrogen: InChIKey IJGRMHOSHXDMSA-UHFFFAOYSA-N
Temperature: 77 K
Tabular data in the source: 0
pressure (bar)	uptake (cm3(STP)/g)
0.00299852	72.783
0.00599704	124.774
0.0149926	159.459
0.0599704	176.947
0.0959526	180.54
0.149926	177.267
0.194904	184.359
0.209896	184.412
0.251876	184.562
0.305849	184.754
0.350827	181.449
0.401801	185.097
0.443781	188.712
0.494756	192.359
0.551727	192.562
0.596705	189.257
0.638684	192.872
0.686661	189.578
0.740634	193.236
0.78861	193.407
0.833588	197.033
0.881564	193.739
0.920545	207.739
0.944533	228.617
