Adsorption isotherm of Nitrogen on DUT-8(Cu)
DOI: 10.1039/C2jm15601f
Adsorbate Nitrogen: InChIKey IJGRMHOSHXDMSA-UHFFFAOYSA-N
Temperature: 77 K
Tabular data in the source: 0
pressure (bar)	uptake (cm3(STP)/g)
0.00599704	0.00599704
0.00899556	460.923
0.0149926	568.37
0.0509748	596.221
0.116942	617.249
0.155923	624.319
0.251876	635.057
0.30285	638.704
0.34483	635.388
0.407799	642.544
0.455775	649.646
0.488759	653.229
0.560723	656.951
0.620693	660.63
0.677665	660.833
0.72864	671.411
0.782613	671.603
0.833588	675.251
0.878566	682.342
0.953529	689.54
