Adsorption isotherm of Carbon Dioxide on DUT-8(Zn)
DOI: 10.1039/C2jm15601f
Adsorbate Carbon Dioxide: InChIKey CURLTUGMZLYLDI-UHFFFAOYSA-N
Temperature: 195 K
Tabular data in the source: 0
pressure (bar)	uptake (mmol/g)
0.0266484	1.01109
0.0384602	1.53294
0.0501855	2.25049
0.0705535	3.84867
0.0854047	4.30529
0.106349	4.59883
0.133343	4.82714
0.16038	4.95761
0.184422	5.05545
0.220505	5.1533
0.265606	5.28377
0.286651	5.349
0.310721	5.38161
0.334791	5.41423
0.355807	5.54469
0.385913	5.54469
0.419014	5.57731
0.440088	5.57731
0.46714	5.67516
0.491224	5.67516
0.518291	5.74039
0.539364	5.74039
0.584508	5.773
0.620606	5.83823
0.662754	5.83823
0.722936	5.90347
0.777054	6.06655
0.825209	6.09916
0.915525	6.09916
0.936585	6.13178
