Adsorption isotherm of Hydrogen on DUT-8(Cu)
DOI: 10.1039/C2jm15601f
Adsorbate Hydrogen: InChIKey UFHFLCQGNIYNRP-UHFFFAOYSA-N
Temperature: 77 K
Tabular data in the source: 0
pressure (bar)	uptake (mmol/g)
0.854701	6.63644
1.7094	10.1288
1.9943	9.77917
3.1339	13.2712
4.2735	15.2495
6.55271	17.2264
8.54701	18.7379
12.2507	20.1309
14.5299	20.5941
17.094	21.1733
19.6581	21.4032
26.7806	21.9772
29.6296	21.8574
34.4729	22.0847
39.886	21.9619
45.0142	21.6066
49.8575	21.3681
55.5556	21.0121
59.5442	20.6581
61.5385	20.7722
66.6667	20.3005
72.0798	19.8284
77.4929	19.5892
81.7664	19.1184
87.7493	18.5292
93.4473	18.1733
95.7265	18.1706
98.2906	17.8183
