Adsorption isotherm of Carbon Dioxide on Cu(hfipbb)(H2hfipbb)0.5
DOI: 10.1016/j.jcis.2011.01.103
Adsorbate Carbon Dioxide: InChIKey CURLTUGMZLYLDI-UHFFFAOYSA-N
Temperature: 298 K
Tabular data in the source: 0
pressure (bar)	uptake (mmol/g)
0.0198468	0.0693683
0.0483153	0.136127
0.0967784	0.231096
0.148149	0.315764
0.245417	0.410523
0.382913	0.494821
0.529124	0.550786
0.683993	0.593852
0.876221	0.626469
0.953688	0.638998
1.06561	0.648808
