Adsorption isotherm of Methane on Cu(hfipbb)(H2hfipbb)0.5
DOI: 10.1016/j.jcis.2011.01.103
Adsorbate Methane: InChIKey VNWKTOKETHGBQD-UHFFFAOYSA-N
Temperature: 298 K
Tabular data in the source: 0
pressure (bar)	uptake (mmol/g)
0.0200314	0.0179206
0.0887566	0.0665005
0.16614	0.102182
0.252091	0.150688
0.34093	0.194037
0.452774	0.226998
0.576082	0.265054
0.705169	0.292797
0.811308	0.315493
0.969094	0.345684
1.06952	0.360688
