Adsorption isotherm of Methane on Cu(hfipbb)(H2hfipbb)0.5
DOI: 10.1016/j.jcis.2011.01.103
Adsorbate Methane: InChIKey VNWKTOKETHGBQD-UHFFFAOYSA-N
Temperature: 298 K
Tabular data in the source: 0
pressure (bar)	uptake (mmol/g)
0.0238109	0.014007
0.0893932	0.0319575
0.172906	0.0458647
0.268379	0.0557385
0.351912	0.0656323
0.435475	0.0695059
0.522023	0.0733745
0.629447	0.0812217
0.727955	0.0810569
0.844334	0.0888891
0.972683	0.0906811
1.09207	0.0944949
