Adsorption isotherm of Carbon Dioxide on Cu(hfipbb)(H2hfipbb)0.5
DOI: 10.1016/j.jcis.2011.01.103
Adsorbate Carbon Dioxide: InChIKey CURLTUGMZLYLDI-UHFFFAOYSA-N
Temperature: 298 K
Tabular data in the source: 0
pressure (bar)	uptake (mmol/g)
0.0118406	0.0200471
0.0562976	0.0841868
0.106725	0.148317
0.172107	0.206401
0.24351	0.254442
0.338784	0.30445
0.425152	0.34444
0.541361	0.386386
0.672546	0.418273
0.80376	0.444141
0.92009	0.462007
1.01256	0.475899
1.09312	0.483791
