Adsorption isotherm of Nitrogen on Cu(hfipbb)(H2hfipbb)0.5
DOI: 10.1016/j.jcis.2011.01.103
Adsorbate Nitrogen: InChIKey IJGRMHOSHXDMSA-UHFFFAOYSA-N
Temperature: 77 K
Tabular data in the source: 0
pressure (bar)	uptake (cm3(STP)/g)
0.00600266	1.13772
0.015889	1.24649
0.0428833	1.34814
0.140797	1.46479
0.245996	1.53077
0.343803	1.53872
0.453843	1.55401
0.578559	1.57666
0.669046	1.59905
0.752261	1.68661
0.786647	1.84628
0.816355	2.22331
