Adsorption isotherm of Carbon Dioxide on Cu(hfipbb)(H2hfipbb)0.5
DOI: 10.1016/j.jcis.2011.01.103
Adsorbate Carbon Dioxide: InChIKey CURLTUGMZLYLDI-UHFFFAOYSA-N
Temperature: 318 K
Tabular data in the source: 0
pressure (bar)	uptake (mmol/g)
0.02303	0.0484076
0.083303	0.124841
0.152102	0.188535
0.249536	0.270064
0.329709	0.318471
0.432766	0.374522
0.504286	0.4
0.587252	0.430573
0.653048	0.453503
0.773167	0.486624
0.890391	0.509554
0.973303	0.524841
1.06197	0.550318
