Adsorption isotherm of Carbon Dioxide on Cu(hfipbb)(H2hfipbb)0.5
DOI: 10.1016/j.jcis.2011.01.103
Adsorbate Carbon Dioxide: InChIKey CURLTUGMZLYLDI-UHFFFAOYSA-N
Temperature: 278 K
Tabular data in the source: 0
pressure (bar)	uptake (mmol/g)
0.0146406	0.0993631
0.0438035	0.264968
0.0871065	0.389809
0.141702	0.476433
0.207652	0.542675
0.30788	0.606369
0.419454	0.647134
0.533849	0.677707
0.648207	0.698089
0.765396	0.710828
0.882602	0.728662
1.0055	0.738854
1.07407	0.738854
