Adsorption isotherm of Methane on Cu(hfipbb)(H2hfipbb)0.5
DOI: 10.1016/j.jcis.2011.01.103
Adsorbate Methane: InChIKey VNWKTOKETHGBQD-UHFFFAOYSA-N
Temperature: 278 K
Tabular data in the source: 0
pressure (bar)	uptake (mmol/g)
0.0259236	0.0366242
0.0976706	0.0923567
0.163685	0.144904
0.235387	0.192675
0.295641	0.237261
0.370109	0.269108
0.438844	0.297771
0.547625	0.334395
0.659217	0.363057
0.776506	0.388535
0.888016	0.402866
0.970937	0.414013
1.0739	0.433121
