Adsorption isotherm of Methane on Cu(hfipbb)(H2hfipbb)0.5
DOI: 10.1016/j.jcis.2011.01.103
Adsorbate Methane: InChIKey VNWKTOKETHGBQD-UHFFFAOYSA-N
Temperature: 318 K
Tabular data in the source: 0
pressure (bar)	uptake (mmol/g)
0.0257598	0.00796178
0.128844	0.0477707
0.206151	0.0764331
0.283412	0.0971338
0.363567	0.124204
0.466588	0.152866
0.54667	0.167197
0.629663	0.191083
0.721201	0.210191
0.809864	0.226115
0.884222	0.238854
0.964349	0.261146
1.07301	0.27707
