Adsorption isotherm of Carbon Dioxide on Cu(hfipbb)(H2hfipbb)0.5
DOI: 10.1016/j.jcis.2011.01.103
Adsorbate Carbon Dioxide: InChIKey CURLTUGMZLYLDI-UHFFFAOYSA-N
Temperature: 298 K
Tabular data in the source: 0
pressure (bar)	uptake (mmol/g)
0.023121	0.0738854
0.0461965	0.135032
0.0894086	0.234395
0.152584	0.323567
0.215651	0.382166
0.281538	0.430573
0.418963	0.509554
0.539136	0.557962
0.642084	0.583439
0.765032	0.608917
0.876524	0.626752
0.993731	0.644586
1.08233	0.652229
