Adsorption isotherm of Methane on Cu(hfipbb)(H2hfipbb)0.5
DOI: 10.1016/j.jcis.2011.01.103
Adsorbate Methane: InChIKey VNWKTOKETHGBQD-UHFFFAOYSA-N
Temperature: 298 K
Tabular data in the source: 0
pressure (bar)	uptake (mmol/g)
0.0659054	0.0334395
0.126115	0.0700637
0.174904	0.10828
0.263694	0.146497
0.329581	0.176752
0.3897	0.197452
0.484186	0.232484
0.584349	0.261146
0.701656	0.289809
0.804641	0.312102
0.896197	0.334395
0.967689	0.345541
1.06494	0.36465
