Adsorption isotherm of Carbon Dioxide on Mg-MOF-74
DOI: 10.1016/j.seppur.2011.11.031
Adsorbate Carbon Dioxide: InChIKey CURLTUGMZLYLDI-UHFFFAOYSA-N
Temperature: 300 K
Tabular data in the source: 0
pressure (bar)	uptake (mmol/g)
0.611674	0.0552147
6.42107	0.110429
13.4546	0.110429
20.1786	0.331288
26.292	0.496933
32.4006	0.93865
40.3356	1.8773
46.112	3.86503
51.8913	5.68712
57.9736	7.67485
65.2612	10.7117
71.6596	12.092
77.4474	13.4172
85.9855	14.8528
93.6147	15.7914
99.4071	16.8405
