Adsorption isotherm of Methane on Mg-MOF-74
DOI: 10.1016/j.seppur.2011.11.031
Adsorbate Methane: InChIKey VNWKTOKETHGBQD-UHFFFAOYSA-N
Temperature: 300 K
Tabular data in the source: 0
pressure (bar)	uptake (mmol/g)
0.710396	0.0858904
10.4863	0.124752
20.5667	0.292712
27.8967	0.591089
33.6991	0.890125
43.4698	1.66129
53.5416	3.03541
61.1657	4.9275
66.3513	6.04526
76.4158	8.45322
82.2124	9.57072
89.8408	10.8597
96.5542	11.9338
99.9114	12.4062
