Adsorption isotherm of Nitrogen on NKCOF-110
DOI: 10.1021/acscatal.0c04820
Article source: Figure S9B
Adsorbate Nitrogen: InChIKey IJGRMHOSHXDMSA-UHFFFAOYSA-N
Kind: experiment
Temperature: 77 K
Tabular data in the source: 0
pressure (bar)	uptake (cm3(STP)/g)
0.001516	47.4753
0.002993	97.2302
0.006203	117.512
0.007489	125.932
0.008781	135.882
0.011332	148.51
0.045893	210.864
0.085929	244.507
0.120337	273.946
0.150367	299.944
0.196071	346.596
0.227887	354.603
0.268426	362.603
0.298989	369.081
0.330178	376.323
0.368197	378.201
0.419304	380.832
0.438627	382.345
0.474157	384.991
0.509686	387.637
0.543959	387.987
0.578243	390.634
0.613763	391.366
0.649911	392.863
0.684189	394.362
0.720963	396.624
0.757108	397.738
0.792009	399.236
0.82691	400.734
0.861813	402.615
0.897964	404.878
0.93349	406.758
0.967783	411.319
0.998998	424.303
1.00778	437.308
0.969066	419.355
0.925424	414.038
0.887403	411.777
0.849389	410.665
0.814491	409.932
0.797664	409.182
0.762141	408.067
0.725372	406.954
0.689958	406.668
0.655162	405.425
0.619848	404.501
0.583495	403.579
0.550257	402.334
0.514422	401.092
0.480138	398.254
0.441188	397.014
0.390813	395.467
0.37367	393.888
0.336794	392.009
0.302502	387.576
0.267161	380.912
0.229232	375.844
0.197526	369.176
0.162113	346.883
0.126609	305.133
0.080725	264.351
0.053086	238.861
0.016481	183.717
0.013291	167.772
