Adsorption isotherm of Nitrogen on PCN
DOI: 10.1021/acscatal.0c04820
Article source: Figure S28
Adsorbate Nitrogen: InChIKey IJGRMHOSHXDMSA-UHFFFAOYSA-N
Kind: experiment
Temperature: 77 K
Tabular data in the source: 0
pressure (bar)	uptake (cm3(STP)/g)
0.007189	3.88331
0.018896	6.61592
0.045644	7.62937
0.067376	8.4742
0.084929	8.80766
0.113763	8.27964
0.1426	9.37762
0.164749	9.28087
0.188361	9.78243
0.22033	9.76631
0.268392	11.1113
0.33066	11.7645
0.366182	11.9178
0.42051	12.0615
0.469827	14.4329
0.52123	15.2627
0.570963	16.2646
0.621112	17.0951
0.670845	18.0969
0.720578	19.7834
0.769477	21.8127
0.819215	25.553
0.869373	30.3201
0.914527	40.3957
0.949248	57.3227
0.967264	79.3929
0.980283	110.195
0.993716	139.285
1.00381	170.088
1.00302	189.771
1.00141	223.661
1.00921	253.268
1.00928	253.182
1.00578	247.051
0.997393	232.792
0.994926	218.53
0.985486	200.848
0.990654	174.174
0.968639	137.671
0.952546	102.307
0.92671	70.7985
0.887658	47.8546
0.827036	35.0483
0.784192	30.6484
0.744485	27.6731
0.696072	24.5597
0.648009	22.8723
0.596116	20.7591
0.547707	19.6424
0.496164	18.9553
0.447404	16.5551
0.394816	15.7259
0.345711	14.8948
0.292775	13.6379
0.245759	12.8058
0.195609	11.9753
0.17541	11.5576
0.148593	10.858
0.123519	11.0132
0.099837	10.1694
