Adsorption isotherm of Nitrogen on NKCOF-111
DOI: 10.1021/acscatal.0c04820
Article source: Figure S9C
Adsorbate Nitrogen: InChIKey IJGRMHOSHXDMSA-UHFFFAOYSA-N
Kind: experiment
Temperature: 77 K
Tabular data in the source: 0
pressure (bar)	uptake (cm3(STP)/g)
2.4e-05	48.9921
0.002276	95.5669
0.004529	134.764
0.009784	153.213
0.0248	166.597
0.048826	196.127
0.0721	216.896
0.107388	240.902
0.124656	254.057
0.145678	274.594
0.18472	311.514
0.200487	317.982
0.229017	323.538
0.256045	330.015
0.281572	335.568
0.305598	342.504
0.35515	347.154
0.402451	351.341
0.455006	356.455
0.50531	360.183
0.557115	362.53
0.606292	366.257
0.648712	371.363
0.703895	375.556
0.752697	379.745
0.785732	382.999
0.832657	386.263
0.878455	390.911
0.928008	397.866
0.973806	412.658
0.988071	426.042
0.997081	438.038
1.00309	447.265
0.994078	441.263
0.970052	419.572
0.928758	408.473
0.893471	402.911
0.852177	399.651
0.804126	395.924
0.750069	392.654
0.705772	390.314
0.65697	387.509
0.612673	383.785
0.548105	381.428
0.497802	375.394
0.445246	371.203
0.395693	367.014
0.344639	363.285
0.295087	356.79
0.150934	303.648
