Adsorption isotherm of Nitrogen on NKCOF-108
DOI: 10.1021/acscatal.0c04820
Article source: Figure S29
Adsorbate Nitrogen: InChIKey IJGRMHOSHXDMSA-UHFFFAOYSA-N
Kind: experiment
Temperature: 77 K
Tabular data in the source: 0
pressure (bar)	uptake (cm3(STP)/g)
-0.001437	15.0875
-0.00101	28.4715
0.000219	41.6831
0.001444	52.664
0.003863	59.8686
0.007883	65.5272
0.043589	79.9052
0.087703	88.7835
0.115771	92.5303
0.152259	97.1264
0.185538	100.525
0.221423	104.092
0.258115	110.404
0.289401	119.638
0.32869	121.315
0.383413	123.662
0.41849	124.141
0.436532	125.495
0.471009	126.662
0.510296	127.823
0.541165	128.993
0.576845	129.987
0.612924	130.637
0.647	131.632
0.683082	133.483
0.72237	135.159
0.754442	136.156
0.790123	138.008
0.825606	140.889
0.860286	143.428
0.893966	146.826
0.930461	155.025
0.962159	169.579
1.00041	254.137
1.00934	307.323
1.00974	307.151
0.975503	227.736
0.926497	177.337
0.889193	165.706
0.851098	159.739
0.814612	156.172
0.778931	154.32
0.759686	152.452
0.722804	151.803
0.689127	149.607
0.652648	149.472
0.616568	148.479
0.580889	148
0.547615	146.833
0.510331	145.154
0.481052	137.634
0.436552	135.62
0.385639	134.298
0.351964	133.303
0.333523	132.635
0.297844	131.985
0.265362	126.183
0.227665	118.328
0.188771	113.734
0.139455	108.98
0.120208	106.253
0.085323	101.656
0.050035	95.8571
0.012326	82.1675
0.00831	78.3965
