Adsorption isotherm of Nitrogen on NKCOF-109
DOI: 10.1021/acscatal.0c04820
Article source: Figure S9A
Adsorbate Nitrogen: InChIKey IJGRMHOSHXDMSA-UHFFFAOYSA-N
Kind: experiment
Temperature: 77 K
Tabular data in the source: 0
pressure (bar)	uptake (cm3(STP)/g)
0.000575	49.3187
0.001448	97.2632
0.00232	145.208
0.005161	164.953
0.04577	237.864
0.083565	275.989
0.120886	311.763
0.146724	335.771
0.181183	363.55
0.218027	397.914
0.252012	422.873
0.29269	457.241
0.324669	531.316
0.383445	629.869
0.412665	639.31
0.448601	645
0.470164	647.85
0.519525	651.209
0.538214	652.645
0.576071	656.457
0.610574	659.795
0.645558	661.724
0.683417	664.597
0.719357	668.407
0.753862	670.1
0.788846	672.733
0.824309	675.133
0.861209	678.004
0.897148	681.814
0.928294	686.557
0.964221	696.948
0.997719	726.136
1.00583	749.179
0.974255	714.823
0.92972	693.14
0.886118	685.559
0.849217	683.158
0.812797	680.287
0.796023	679.324
0.758646	675.512
0.723185	671.702
0.686764	668.832
0.651777	668.313
0.615838	664.503
0.580854	662.104
0.545869	660.646
0.511847	656.368
0.476386	653.029
0.438527	650.156
0.404507	644.939
0.373859	630.326
0.335062	616.171
0.297933	473.23
0.263968	437.46
0.228073	408.738
0.185004	371.076
0.159639	350.36
0.125182	321.64
0.085946	284.923
0.050072	243.981
0.017086	196.932
0.010877	184.702
