Adsorption isotherm of Nitrogen on NKCOF-108
DOI: 10.1021/acscatal.0c04820
Article source: Figure 4
Adsorbate Nitrogen: InChIKey IJGRMHOSHXDMSA-UHFFFAOYSA-N
Kind: experiment
Temperature: 77 K
Tabular data in the source: 0
pressure (bar)	uptake (cm3(STP)/g)
-0.00046	46.2148
0.002616	95.6291
0.004154	136.59
0.008768	155.448
0.045682	238.048
0.081826	275.135
0.114895	305.719
0.147963	338.253
0.184107	366.239
0.217176	395.522
0.257935	443.666
0.289465	571.772
0.338683	597.818
0.374827	603.048
0.409434	609.577
0.434043	613.498
0.46788	618.076
0.503256	621.355
0.538631	623.984
0.574007	627.913
0.61092	629.243
0.647065	632.522
0.681671	633.85
0.717047	638.429
0.753191	641.059
0.790105	642.389
0.823942	645.016
0.85778	646.344
0.893924	649.623
0.926223	654.85
0.96083	659.429
0.996974	678.963
1.00543	695.223
0.962368	668.532
0.930069	661.355
0.88931	656.771
0.852396	652.841
0.830094	651.523
0.794719	647.594
0.760882	644.966
0.724737	644.287
0.687054	641.006
0.653986	639.679
0.620149	638.352
0.584004	635.072
0.547091	633.743
0.514791	630.466
0.481723	624.588
0.439426	619.353
0.410972	614.129
0.374058	606.948
0.337145	601.717
0.302538	597.139
0.267932	502.188
0.22948	413.736
0.192567	381.199
0.153346	349.31
0.123354	323.93
0.087209	292.694
0.051065	253.006
0.016459	188.612
