Adsorption isotherm of Nitrogen on Zn2(BDC)2(TED)
DOI: 10.1021/Cm4025843
Adsorbate Nitrogen: InChIKey IJGRMHOSHXDMSA-UHFFFAOYSA-N
Temperature: 77 K
Tabular data in the source: 0
pressure (bar)	uptake (cm3(STP)/g)
0.01518	4.69977
0.04554	7.81659
0.08602	8.56921
0.13156	10.1031
0.19734	10.0499
0.3036	12.32
0.34914	13.0686
0.40986	13.8048
0.44528	13.7762
0.50094	15.3019
0.54648	16.0504
0.60214	16.0054
0.64262	17.5434
0.68816	19.0772
0.73876	20.607
0.7843	25.2822
0.82478	34.6736
0.86526	55.8451
0.89562	88.0195
0.91586	103.71
0.9361	119.4
0.9614	132.731
