Adsorption isotherm of Nitrogen on Zn2(BDC)2(TED)
DOI: 10.1021/Cm4025843
Adsorbate Nitrogen: InChIKey IJGRMHOSHXDMSA-UHFFFAOYSA-N
Temperature: 77 K
Tabular data in the source: 0
pressure (bar)	uptake (cm3(STP)/g)
0.04554	1.53387
0.09614	0.707624
0.1518	1.44797
0.19734	0.625818
0.24794	0.584915
0.29348	0.548102
0.75394	0.175884
0.94116	0.0245419
0.9614	10.2176
