Adsorption isotherm of Nitrogen on Polystrene
DOI: 10.1021/Cm4025843
Adsorbate Nitrogen: InChIKey IJGRMHOSHXDMSA-UHFFFAOYSA-N
Temperature: 77 K
Tabular data in the source: 0
pressure (bar)	uptake (cm3(STP)/g)
0.08602	2.28649
0.1265	1.46842
0.2024	2.19241
0.24288	1.37435
0.29854	1.32935
0.7084	2.56872
0.79442	2.49918
0.83996	2.46237
0.89056	3.99215
0.93104	7.88613
0.95634	11.007
0.9614	15.715
