Adsorption isotherm of Acetylene on SOF-1 Activated
DOI: 10.1021/Ja1042935
Adsorbate Acetylene: InChIKey HSFWRNGVRCDJHI-UHFFFAOYSA-N
Temperature: 230 K
Tabular data in the source: 0
pressure (bar)	uptake (mmol/g)
0.0042741	0.599483
0.00435629	0.764858
0.00647279	1.02326
0.00852251	1.14729
0.0105825	1.29199
0.0146768	1.52972
0.0207129	1.67442
0.0247764	1.85013
0.0308023	1.97416
0.0368333	2.10853
0.0448575	2.25323
0.0688736	2.57364
0.0768875	2.69767
0.0908194	2.72868
0.0928589	2.83204
0.112745	2.84238
0.120738	2.92506
0.136673	2.98708
0.152609	3.0491
0.168549	3.12145
0.184485	3.18346
0.196403	3.16279
0.204401	3.25581
0.22231	3.28682
0.242206	3.31783
0.260119	3.35917
0.280015	3.39018
0.297923	3.42119
0.305886	3.44186
0.325777	3.46253
0.34368	3.4832
0.363571	3.50388
0.381473	3.52455
0.397368	3.50388
0.415255	3.49354
0.419267	3.56589
0.439153	3.57623
0.457051	3.58656
0.476942	3.60724
0.496828	3.61757
0.51471	3.5969
0.526659	3.63824
0.546545	3.64858
0.566431	3.65891
0.586317	3.66925
0.604215	3.67959
0.620114	3.66925
0.638022	3.70026
0.657908	3.71059
0.6758	3.71059
0.695686	3.72093
0.711606	3.75194
0.729489	3.73127
0.749375	3.7416
0.767272	3.75194
0.787153	3.75194
0.803073	3.78295
0.818993	3.81395
0.830896	3.76227
0.850782	3.77261
0.868674	3.77261
0.88856	3.78295
0.906458	3.79328
0.926339	3.79328
0.946224	3.80362
0.966105	3.80362
