Adsorption isotherm of Methane on SOF-1 Activated
DOI: 10.1021/Ja1042935
Adsorbate Methane: InChIKey VNWKTOKETHGBQD-UHFFFAOYSA-N
Temperature: 273 K
Tabular data in the source: 0
pressure (bar)	uptake (mmol/g)
0.894737	0.318091
1.52632	0.487558
2.05263	0.635872
2.57895	0.741632
3.05263	0.847456
3.57895	0.910663
4	0.995272
5.05263	1.14296
6	1.24823
7.05263	1.35337
8	1.41608
9	1.54255
10	1.58392
11	1.64657
12	1.70922
13	1.77187
14.0526	1.83445
15.0526	1.83327
16	1.8747
