Adsorption isotherm of Methane on SOF-1 Activated
DOI: 10.1021/Ja1042935
Adsorbate Methane: InChIKey VNWKTOKETHGBQD-UHFFFAOYSA-N
Temperature: 195 K
Tabular data in the source: 0
pressure (bar)	uptake (mmol/g)
0.130518	1.37234
0.195777	1.59176
0.293666	1.81117
0.326296	1.94282
0.424184	2.16223
0.522073	2.4109
1.01152	3.12766
1.30518	3.28856
1.56622	3.49335
1.72937	3.56649
2.08829	3.71277
2.3167	3.81516
2.64299	3.93218
3.06718	4.0492
3.65451	4.16622
4.14395	4.26862
4.73129	4.3125
5.22073	4.38564
5.71017	4.42952
6.23225	4.48803
6.72169	4.53191
7.27639	4.56117
7.73321	4.59043
8.19002	4.60505
8.67946	4.63431
9.23417	4.66356
9.72361	4.67819
