Adsorption isotherm of Carbon Dioxide on SOF-1 Activated
DOI: 10.1021/Ja1042935
Adsorbate Carbon Dioxide: InChIKey CURLTUGMZLYLDI-UHFFFAOYSA-N
Temperature: 273 K
Tabular data in the source: 0
pressure (bar)	uptake (mmol/g)
0.289424	0.617876
0.727232	1.09585
0.836899	1.18912
0.983375	1.28238
1.20261	1.48057
1.3859	1.57383
1.49537	1.69041
1.75238	1.77202
1.89885	1.86528
2.00852	1.95855
2.26562	2.0285
2.48523	2.18005
2.77914	2.25
2.92562	2.34326
3.18281	2.40155
3.3661	2.49482
3.697	2.54145
3.88029	2.63472
4.13758	2.68135
4.43148	2.7513
4.72539	2.82124
5.01958	2.85622
5.12972	2.89119
5.42363	2.96114
5.71763	3.01943
6.04873	3.04275
6.26902	3.11269
6.59983	3.17098
6.89421	3.18264
7.15131	3.25259
7.48221	3.29922
7.99679	3.39249
8.32798	3.40415
8.65898	3.43912
8.91665	3.43912
9.17385	3.49741
9.50485	3.53238
9.83595	3.5557
10.1301	3.59067
10.4611	3.62565
10.829	3.66062
11.1234	3.66062
11.4543	3.70725
11.8222	3.73057
11.9326	3.74223
12.2637	3.76554
12.5948	3.78886
12.9257	3.83549
13.2938	3.83549
13.6249	3.85881
14.1398	3.90544
14.4711	3.90544
14.839	3.92876
15.0226	3.98705
15.3174	3.95207
15.6485	3.97539
15.906	3.98705
