Adsorption isotherm of Carbon Dioxide on SOF-1 Activated
DOI: 10.1021/Ja1042935
Adsorbate Carbon Dioxide: InChIKey CURLTUGMZLYLDI-UHFFFAOYSA-N
Temperature: 195 K
Tabular data in the source: 0
pressure (bar)	uptake (mmol/g)
0.0530973	1.46281
0.106195	1.66116
0.159292	3.66942
0.212389	2.70248
0.265487	4.01653
0.424779	4.28926
0.530973	4.58678
0.637168	4.76033
0.79646	5.03306
0.849558	5.2562
1.00885	5.55372
