Adsorption isotherm of Carbon Dioxide on SOF-1 Activated
DOI: 10.1021/Ja1042935
Adsorbate Carbon Dioxide: InChIKey CURLTUGMZLYLDI-UHFFFAOYSA-N
Temperature: 273 K
Tabular data in the source: 0
pressure (bar)	uptake (mmol/g)
0.318584	0.570248
0.477876	0.694215
0.637168	0.942149
0.79646	1.1405
1.06195	1.36364
1.22124	1.4876
1.53982	1.68595
2.0708	1.95868
2.54867	2.18182
3.07965	2.35537
3.61062	2.52893
4.0354	2.60331
4.99115	2.85124
6	3.02479
7.06195	3.17355
8.0177	3.29752
8.97345	3.42149
10.0354	3.49587
10.9912	3.61983
12.0531	3.71901
13.0619	3.79339
13.9646	3.91736
15.0265	4.01653
15.9823	4.04132
