Adsorption isotherm of Nitrogen on SOF-1 Activated
DOI: 10.1021/Ja1042935
Adsorbate Nitrogen: InChIKey IJGRMHOSHXDMSA-UHFFFAOYSA-N
Temperature: 125 K
Tabular data in the source: 0
pressure (bar)	uptake (mmol/g)
0.0538	1.51852
0.098992	1.47407
0.103296	1.75556
0.152792	1.99259
0.201608	2.18519
0.254049	2.61481
0.348964	2.82222
0.3971	2.97037
0.587156	3.4
0.681164	3.54815
0.869861	3.88889
1.24182	4.21481
1.42734	4.34815
1.70597	4.57037
2.16808	4.79259
2.67584	5
3.32053	5.16296
3.73474	5.25185
4.01155	5.35556
4.37898	5.38519
4.79296	5.45926
5.16083	5.51852
5.57436	5.56296
5.94269	5.65185
6.35576	5.66667
6.81515	5.71111
8.00985	5.84444
8.4688	5.85926
8.88209	5.88889
9.02016	5.91852
9.4791	5.93333
9.8924	5.96296
10.2598	5.99259
10.7188	6.00741
11.1321	6.03704
11.591	6.05185
12.2795	6.08148
12.7387	6.11111
13.1518	6.12593
13.6107	6.14074
13.9781	6.17037
14.3912	6.18519
14.8502	6.2
15.3091	6.21481
15.768	6.22963
16.2729	6.24444
16.7318	6.25926
17.1449	6.27407
17.6036	6.27407
18.0169	6.3037
18.4756	6.3037
18.9345	6.31852
19.3935	6.33333
19.8065	6.34815
