Adsorption isotherm of Acetylene on SOF-1 Activated
DOI: 10.1021/Ja1042935
Adsorbate Acetylene: InChIKey HSFWRNGVRCDJHI-UHFFFAOYSA-N
Temperature: 230 K
Tabular data in the source: 0
pressure (bar)	uptake (mmol/g)
0.00314465	0.847256
0.0125786	1.28215
0.0251572	1.62538
0.0283019	1.96882
0.0471698	2.3806
0.0534591	2.49496
0.081761	2.74622
0.103774	2.88312
0.204403	3.15562
0.210692	3.22418
0.308176	3.38226
0.40566	3.49453
0.509434	3.60665
0.610063	3.69595
0.713836	3.73938
0.811321	3.80585
0.91195	3.87225
0.965409	3.89392
