Adsorption isotherm of Acetylene on SOF-1 Activated
DOI: 10.1021/Ja1042935
Adsorbate Acetylene: InChIKey HSFWRNGVRCDJHI-UHFFFAOYSA-N
Temperature: 250 K
Tabular data in the source: 0
pressure (bar)	uptake (mmol/g)
0.0125786	0.572231
0.0471698	1.32716
0.0534591	1.48733
0.072327	1.7388
0.0786164	1.83026
0.103774	2.05869
0.194969	2.49172
0.210692	2.53716
0.308176	2.71813
0.408805	2.85323
0.506289	3.01131
0.610063	3.03183
0.710692	3.14403
0.814465	3.16455
0.918239	3.18508
0.968553	3.18393
