Adsorption isotherm of Acetylene on SOF-1 Activated
DOI: 10.1021/Ja1042935
Adsorbate Acetylene: InChIKey HSFWRNGVRCDJHI-UHFFFAOYSA-N
Temperature: 210 K
Tabular data in the source: 0
pressure (bar)	uptake (mmol/g)
0.00314465	1.64878
0.0125786	2.19819
0.0283019	2.90775
0.0566038	3.25061
0.0786164	3.38751
0.103774	3.52434
0.204403	3.79685
0.308176	4.02348
0.408805	4.18148
0.509434	4.27078
0.610063	4.36007
0.710692	4.49517
0.811321	4.56157
0.915094	4.605
0.965409	4.64965
