Adsorption isotherm of Carbon Dioxide on SOF-1 Activated
DOI: 10.1021/Ja1042935
Adsorbate Carbon Dioxide: InChIKey CURLTUGMZLYLDI-UHFFFAOYSA-N
Temperature: 298 K
Tabular data in the source: 0
pressure (bar)	uptake (mmol/g)
0.265487	0.173554
0.530973	0.347107
0.849558	0.545455
1.00885	0.719008
1.48673	0.892562
2.0177	1.1157
2.54867	1.33884
3.02655	1.4876
3.50442	1.63636
4.0354	1.76033
5.04425	1.98347
6.0531	2.13223
7.00885	2.2562
8.0177	2.40496
9.07965	2.47934
10.0885	2.60331
11.0442	2.67769
12	2.77686
13.0619	2.85124
14.0177	2.90083
15.0265	3
15.9823	3.07438
