Adsorption isotherm of Methane on SOF-1 Activated
DOI: 10.1021/Ja1042935
Adsorbate Methane: InChIKey VNWKTOKETHGBQD-UHFFFAOYSA-N
Temperature: 298 K
Tabular data in the source: 0
pressure (bar)	uptake (mmol/g)
0.130518	0.0265957
0.880998	0.172872
1.46833	0.246011
1.82726	0.319149
2.02303	0.348404
2.25144	0.392287
2.74088	0.465426
3.29559	0.509309
3.45873	0.538564
3.81766	0.582447
4.11132	0.640957
4.69866	0.699468
5.05758	0.728723
5.80806	0.787234
6.0691	0.801862
6.78695	0.875
7.1785	0.918883
7.79846	0.977394
8.09213	0.992021
8.80998	1.05053
9.07102	1.06516
9.88676	1.12367
10.1152	1.1383
10.833	1.16755
11.1919	1.21144
11.7793	1.22606
12.1708	1.24069
12.8234	1.26995
13.1497	1.31383
13.6392	1.32846
14.0633	1.35771
14.7486	1.37234
15.1727	1.41622
15.8253	1.41622
