Adsorption isotherm of Methane on SOF-1 Activated
DOI: 10.1021/Ja1042935
Adsorbate Methane: InChIKey VNWKTOKETHGBQD-UHFFFAOYSA-N
Temperature: 195 K
Tabular data in the source: 0
pressure (bar)	uptake (mmol/g)
0.157895	0.157895
0.263158	1.29756
0.368421	1.72297
0.473684	2.02072
0.526316	2.27597
0.631579	2.53117
0.789474	2.70119
1.05263	3.04131
1.52632	3.38117
2.05263	3.61459
2.57895	3.80546
3.10526	3.95378
3.57895	4.08088
4.05263	4.14415
4.52632	4.22869
5.05263	4.31318
5.52632	4.37645
6.05263	4.43965
6.63158	4.5028
7.05263	4.54486
7.52632	4.56557
8	4.60757
8.52632	4.6495
9.10526	4.67009
9.52632	4.69087
10.1053	4.71146
