Adsorption isotherm of Carbon Dioxide on SOF-1 Activated
DOI: 10.1021/Ja1042935
Adsorbate Carbon Dioxide: InChIKey CURLTUGMZLYLDI-UHFFFAOYSA-N
Temperature: 298 K
Tabular data in the source: 0
pressure (bar)	uptake (mmol/g)
0.109476	0.11658
0.365809	0.279793
0.621666	0.501295
1.06138	0.746114
1.53838	0.932642
1.90524	1.0842
2.60234	1.36399
2.93296	1.4456
3.37344	1.59715
3.88754	1.7487
4.80635	1.92358
5.50478	2.04016
6.16641	2.15674
7.01198	2.28497
7.7107	2.36658
8.15204	2.41321
8.51957	2.48316
9.18167	2.54145
9.84357	2.62306
10.1379	2.64637
10.6896	2.69301
11.5359	2.73964
12.014	2.78627
12.6762	2.8329
13.0807	2.87953
13.7798	2.91451
14.2215	2.92617
14.5894	2.94948
15.2149	2.98446
15.5828	3.00777
