Adsorption isotherm of Acetylene on SOF-1 Activated
DOI: 10.1021/Ja1042935
Adsorbate Acetylene: InChIKey HSFWRNGVRCDJHI-UHFFFAOYSA-N
Temperature: 195 K
Tabular data in the source: 0
pressure (bar)	uptake (mmol/g)
0.00314465	2.1755
0.00628931	2.81665
0.0251572	3.45744
0.0534591	3.7316
0.0786164	3.91423
0.110063	4.05091
0.204403	4.36936
0.305031	4.59607
0.408805	4.754
0.512579	4.91193
0.606918	5.02427
0.713836	5.20503
0.808176	5.27157
0.915094	5.40652
0.962264	5.49705
