Adsorption isotherm of Methane on SOF-1 Activated
DOI: 10.1021/Ja1042935
Adsorbate Methane: InChIKey VNWKTOKETHGBQD-UHFFFAOYSA-N
Temperature: 273 K
Tabular data in the source: 0
pressure (bar)	uptake (mmol/g)
1.27255	0.465426
1.762	0.582447
2.3167	0.68484
2.70825	0.787234
3.23033	0.860372
3.68714	0.948138
4.14395	1.05053
4.73129	1.09441
5.12284	1.16755
5.80806	1.22606
6.23225	1.26995
6.81958	1.34309
7.27639	1.38697
7.76583	1.43085
8.19002	1.46011
8.74472	1.50399
9.20154	1.5625
9.78887	1.59176
10.1804	1.60638
10.8004	1.63564
11.2898	1.67952
11.7466	1.69415
12.2035	1.73803
12.7908	1.76729
13.1497	1.78191
13.737	1.8258
14.1612	1.84043
14.6833	1.85505
15.1401	1.86968
15.858	1.92819
