Adsorption isotherm of Acetylene on SOF-1 Activated
DOI: 10.1021/Ja1042935
Adsorbate Acetylene: InChIKey HSFWRNGVRCDJHI-UHFFFAOYSA-N
Temperature: 270 K
Tabular data in the source: 0
pressure (bar)	uptake (mmol/g)
0.0125786	0.22872
0.0283019	0.480268
0.0566038	0.754429
0.081761	0.95996
0.110063	1.16542
0.194969	1.66729
0.308176	2.03111
0.40566	2.25789
0.509434	2.39291
0.606918	2.48228
0.707547	2.57158
0.808176	2.63798
0.915094	2.68133
0.965409	2.70308
