Adsorption isotherm of Methane on SOF-1 Activated
DOI: 10.1021/Ja1042935
Adsorbate Methane: InChIKey VNWKTOKETHGBQD-UHFFFAOYSA-N
Temperature: 298 K
Tabular data in the source: 0
pressure (bar)	uptake (mmol/g)
0.789474	0.10545
1.26316	0.232549
2.05263	0.337999
2.57895	0.401207
3.10526	0.485691
3.52632	0.527747
4.05263	0.590954
5.05263	0.717432
6.05263	0.801356
7	0.885343
8.15789	0.969081
9	1.03191
9.94737	1.09462
11.0526	1.17842
12	1.21986
13	1.28251
14.0526	1.30254
15	1.36525
16	1.40662
