Adsorption isotherm of Acetylene on SOF-1 Activated
DOI: 10.1021/Ja1042935
Adsorbate Acetylene: InChIKey HSFWRNGVRCDJHI-UHFFFAOYSA-N
Temperature: 250 K
Tabular data in the source: 0
pressure (bar)	uptake (mmol/g)
0.0122572	0.661499
0.020302	0.847545
0.0283313	1.00258
0.0323794	1.14729
0.040419	1.323
0.054428	1.50904
0.0684266	1.67442
0.0824099	1.80879
0.0944103	1.95349
0.112344	2.03618
0.134264	2.13953
0.154212	2.2739
0.184094	2.39793
0.223928	2.54264
0.257766	2.62532
0.283637	2.677
0.323439	2.75969
0.355269	2.80103
0.389092	2.85271
0.418933	2.89406
0.438824	2.91473
0.456727	2.9354
0.476613	2.94574
0.494516	2.96641
0.524353	2.99742
0.544238	3.00775
0.562141	3.02842
0.582027	3.03876
0.599925	3.0491
0.623792	3.06977
0.643673	3.06977
0.663564	3.09044
0.681456	3.09044
0.699349	3.09044
0.71923	3.09044
0.727198	3.12145
0.747083	3.13178
0.766964	3.13178
0.78685	3.14212
0.832586	3.16279
0.852472	3.17313
0.872352	3.17313
0.892238	3.18346
0.910141	3.20413
0.930022	3.20413
0.949903	3.20413
