Adsorption isotherm of Acetylene on SOF-1 Activated
DOI: 10.1021/Ja1042935
Adsorbate Acetylene: InChIKey HSFWRNGVRCDJHI-UHFFFAOYSA-N
Temperature: 270 K
Tabular data in the source: 0
pressure (bar)	uptake (mmol/g)
0.0120517	0.248062
0.0240418	0.372093
0.0320557	0.496124
0.0520289	0.682171
0.0660276	0.847545
0.0800006	0.96124
0.0919856	1.07494
0.097996	1.16796
0.113921	1.2093
0.127874	1.28165
0.141826	1.35401
0.157777	1.44703
0.171729	1.51938
0.185682	1.59173
0.219546	1.7261
0.235481	1.78811
0.253394	1.82946
0.26933	1.89147
0.287248	1.94315
0.325073	2.04651
0.342981	2.07752
0.360894	2.11886
0.380795	2.16021
0.398709	2.20155
0.420593	2.23256
0.438501	2.26357
0.458397	2.29457
0.4763	2.31525
0.496196	2.34625
0.512101	2.34625
0.51808	2.37726
0.537971	2.39793
0.555874	2.4186
0.575765	2.43928
0.593673	2.47028
0.62351	2.50129
0.643395	2.51163
0.661298	2.5323
0.681184	2.54264
0.701075	2.56331
0.722954	2.58398
0.74284	2.59432
0.760743	2.61499
0.780629	2.62532
0.800515	2.63566
0.824382	2.65633
0.844268	2.66667
0.864154	2.677
0.882051	2.68734
0.901937	2.69767
0.927787	2.70801
0.947673	2.71835
