Adsorption isotherm of Nitrogen on SOF-1 Activated
DOI: 10.1021/Ja1042935
Adsorbate Nitrogen: InChIKey IJGRMHOSHXDMSA-UHFFFAOYSA-N
Temperature: 77 K
Tabular data in the source: 0
pressure (bar)	uptake (cm3(STP)/g)
0.024605	13.2431
0.0530518	13.6716
0.0904096	13.2781
0.127758	13.2979
0.163328	13.3169
0.22377	14.5893
0.261119	14.6092
0.298467	14.6291
0.337604	14.2364
0.380269	15.086
0.463868	14.717
0.54391	14.3462
0.622164	14.3878
0.703985	14.0179
0.791132	14.0642
