Adsorption isotherm of Nitrogen on SOF-1 Activated
DOI: 10.1021/Ja1042935
Adsorbate Nitrogen: InChIKey IJGRMHOSHXDMSA-UHFFFAOYSA-N
Temperature: 125 K
Tabular data in the source: 0
pressure (bar)	uptake (mmol/g)
0.0660066	1.46947
0.19802	2.48473
0.39604	3.20611
0.726073	3.71374
0.990099	4.08779
1.51815	4.46183
2.0462	4.75573
2.57426	4.96947
3.10231	5.10305
4.0264	5.31679
5.08251	5.50382
6.07261	5.6374
7.06271	5.74427
8.05281	5.82443
9.0429	5.90458
10.033	5.98473
11.9472	6.0916
13.9934	6.14504
15.9736	6.22519
18.0198	6.27863
20	6.33206
