Adsorption isotherm of Nitrogen on SOF-1 Activated
DOI: 10.1021/Ja1042935
Adsorbate Nitrogen: InChIKey IJGRMHOSHXDMSA-UHFFFAOYSA-N
Temperature: 175 K
Tabular data in the source: 0
pressure (bar)	uptake (mmol/g)
0.188996	0.54047
0.328527	0.72846
0.421827	0.881201
0.560998	1.03394
0.70041	1.21018
0.885573	1.37467
1.07074	1.53916
1.34764	1.70366
1.67066	1.89164
2.03931	2.05614
2.50006	2.25587
3.00656	2.44386
3.46648	2.56136
3.88064	2.6906
4.20294	2.80809
4.84622	2.91384
5.44386	3.04308
5.85779	3.14883
6.54694	3.25457
7.18986	3.32507
7.74127	3.41906
8.33832	3.48956
8.98136	3.5718
9.62416	3.63055
10.1752	3.6893
10.5884	3.72454
11.0475	3.75979
11.4608	3.80679
12.2412	3.86554
12.7003	3.90078
13.1134	3.92428
13.5725	3.95953
13.9857	3.99478
14.261	4.00653
14.72	4.03003
15.1332	4.06527
15.5921	4.08877
15.9596	4.13577
16.2806	4.12402
16.7395	4.14752
17.1526	4.17102
17.6116	4.19452
17.9791	4.25326
18.3459	4.22977
18.8048	4.25326
19.2638	4.27676
19.6769	4.30026
