Adsorption isotherm of Nitrogen on SOF-1 Activated
DOI: 10.1021/Ja1042935
Adsorbate Nitrogen: InChIKey IJGRMHOSHXDMSA-UHFFFAOYSA-N
Temperature: 175 K
Tabular data in the source: 0
pressure (bar)	uptake (mmol/g)
0.19802	0.480916
0.330033	0.854962
0.660066	1.17557
0.990099	1.46947
1.51815	1.84351
2.0462	2.08397
2.50825	2.29771
2.9703	2.51145
4.0264	2.75191
5.0165	2.96565
6.0066	3.15267
6.9967	3.25954
8.05281	3.41985
8.9769	3.5
9.967	3.63359
12.0132	3.79389
13.9934	3.98092
15.9736	4.1145
17.9538	4.22137
20	4.32824
