Adsorption isotherm of Methanol on [Ni4(dpa)4(pyz)4(H2O)8]*11H2O
DOI: 10.1021/cg070602v
Adsorbate Methanol: InChIKey OKKJLVBELUTLKV-UHFFFAOYSA-N
Temperature: 298 K
Tabular data in the source: 0
pressure (bar)	uptake (ml/g)
0.00619484	8.11516
0.0280436	21.7706
0.0782957	28.8715
0.475943	79.1236
0.478128	97.695
0.486867	114.082
0.499976	47.9891
0.517455	126.645
0.906363	145.762
0.971909	163.241
