Adsorption isotherm of Water on [Ni4(dpa)4(pyz)4(H2O)8]*11H2O
DOI: 10.1021/cg070602v
Adsorbate Water: InChIKey XLYOFNOQVPJJNP-UHFFFAOYSA-N
Temperature: 298 K
Tabular data in the source: 0
pressure (bar)	uptake (ml/g)
0.0127495	0.468097
0.0258587	22.8631
0.172245	40.342
0.209388	115.174
0.222497	152.863
0.231237	172.527
0.253086	191.645
0.342665	204.754
0.635439	223.871
0.943506	243.535
