Adsorption isotherm of Water on [Ni4(dpa)4(pyz)4]
DOI: 10.1021/cg070602v
Adsorbate Water: InChIKey XLYOFNOQVPJJNP-UHFFFAOYSA-N
Temperature: 298 K
Tabular data in the source: 0
pressure (bar)	uptake (ml/g)
0.0935898	182.905
0.102329	193.283
0.135102	204.754
0.196279	216.224
0.320817	225.51
0.480312	234.25
0.663842	242.989
0.858296	249.544
