Adsorption isotherm of Methanol on [Ni4(dpa)4(pyz)4]
DOI: 10.1021/cg070602v
Adsorbate Methanol: InChIKey OKKJLVBELUTLKV-UHFFFAOYSA-N
Temperature: 298 K
Tabular data in the source: 0
pressure (bar)	uptake (ml/g)
0.0171192	87.3168
0.021489	96.6026
0.0367831	103.157
0.0826654	111.897
0.141657	119.544
0.233422	126.098
0.329556	133.745
0.473758	141.939
0.729388	149.04
0.941321	155.048
