Adsorption isotherm of Carbon Dioxide on [Ni4(dpa)4(pyz)4(H2O)8]*11H2O
DOI: 10.1021/cg070602v
Adsorbate Carbon Dioxide: InChIKey CURLTUGMZLYLDI-UHFFFAOYSA-N
Temperature: 195 K
Tabular data in the source: 0
pressure (bar)	uptake (ml/g)
0.0127495	2.43612
0.0127495	12.5302
0.0171192	18.5714
0.0367831	20.6361
0.0761108	22.4714
0.176615	24.842
0.34485	27.8244
0.545859	30.8067
0.746867	33.7126
0.95443	36.7714
