Adsorption isotherm of Carbon Dioxide on [Ni4(dpa)4(pyz)4]
DOI: 10.1021/cg070602v
Adsorbate Carbon Dioxide: InChIKey CURLTUGMZLYLDI-UHFFFAOYSA-N
Temperature: 195 K
Tabular data in the source: 0
pressure (bar)	uptake (ml/g)
0.0240459	20.7506
0.0298722	24.727
0.0608167	26.4479
0.117623	28.3597
0.194094	29.7361
0.272749	30.8832
0.401657	32.2597
0.583002	34.0949
0.692245	34.8596
0.818968	35.9302
