Adsorption isotherm of Acetone on [Ni4(dpa)4(pyz)4]
DOI: 10.1021/cg070602v
Adsorbate Acetone: InChIKey CSCPPACGZOOCGX-UHFFFAOYSA-N
Temperature: 298 K
Tabular data in the source: 0
pressure (bar)	uptake (ml/g)
0.0171192	13.2185
0.0411528	18.8773
0.0717411	22.6244
0.121993	24.5361
0.25964	27.2126
0.366699	28.5891
0.475943	29.8126
0.585186	30.5008
0.749052	30.7302
0.908548	30.5773
