Adsorption isotherm of Acetone on [Ni4(dpa)4(pyz)4(H2O)8]*11H2O
DOI: 10.1021/cg070602v
Adsorbate Acetone: InChIKey CSCPPACGZOOCGX-UHFFFAOYSA-N
Temperature: 298 K
Tabular data in the source: 0
pressure (bar)	uptake (ml/g)
0.0171192	0.218475
0.0193041	1.74789
0.0455226	3.20083
0.117623	4.5773
0.270565	7.55965
0.480312	12.5302
0.661657	17.3479
0.790565	21.3244
0.893254	25.4538
0.939136	28.9714
0.956615	33.4832
