Adsorption isotherm of Oxygen on Zeolite 5A
DOI: 10.1016/0009-2509(83)80087-6
Adsorbate Oxygen: InChIKey MYMOFIZGZYHOMD-UHFFFAOYSA-N
Temperature: 278 K
Tabular data in the source: 0
pressure (bar)	uptake (mmol/g)
0.660147	0.095945
0.932067	0.145495
1.35505	0.202296
1.70754	0.243386
2.08017	0.296562
2.43266	0.348529
2.77508	0.394453
3.188	0.448837
3.56063	0.493553
4.00376	0.547937
4.4066	0.610781
4.76916	0.673625
5.32308	0.732843
5.9777	0.798104
6.58197	0.870616
7.44808	0.943128
8.29406	1.02168
