Adsorption isotherm of Oxygen on Zeolite 5A
DOI: 10.1016/0009-2509(83)80087-6
Adsorbate Oxygen: InChIKey MYMOFIZGZYHOMD-UHFFFAOYSA-N
Temperature: 293 K
Tabular data in the source: 0
pressure (bar)	uptake (mmol/g)
1.20399	0.138244
1.45577	0.163623
1.83847	0.199879
2.17081	0.239761
2.58373	0.274808
2.99665	0.315898
3.46999	0.36424
3.99369	0.408956
4.63824	0.466965
5.21229	0.511681
5.91727	0.573316
6.82367	0.639786
7.83079	0.711089
8.53576	0.755805
