Adsorption isotherm of Nitrogen on Zeolite 5A
DOI: 10.1016/0009-2509(83)80087-6
Adsorbate Nitrogen: InChIKey IJGRMHOSHXDMSA-UHFFFAOYSA-N
Temperature: 303 K
Tabular data in the source: 0
pressure (bar)	uptake (mmol/g)
0.184596	0.0660687
0.430535	0.125094
0.701068	0.185759
1.07818	0.261181
1.40609	0.320206
1.82419	0.392348
2.29148	0.46449
2.84894	0.557947
3.39001	0.620252
3.95567	0.703871
4.46394	0.759618
5.16897	0.826841
5.92318	0.900623
6.62821	0.964567
7.30044	1.01048
7.82511	1.0613
8.39897	1.09573
