Adsorption isotherm of Chromium, Water on Norit GAC1240
DOI: 10.1007/s10450-017-9929-7
Article source: Figure 3
Adsorbate Chromium: InChIKey VYZAMTAEIAYCRO-UHFFFAOYSA-N
Adsorbate Water: InChIKey XLYOFNOQVPJJNP-UHFFFAOYSA-N
Kind: experiment
Temperature: 298 K
Tabular data in the source: 0
pressure (bar)	Chromium fraction	Chromium uptake (mg/g)	Water fraction	Water uptake (mg/g)	total uptake (mg/g)
1.01325	2.90519	9.69823			
1.01325	3	6.36837			
1.01325	3.00677	4.66181			
1.01325	3.17607	18.7721			
1.01325	3.2912	2.95526			
1.01325	3.72461	1.7898			
1.01325	4.14447	32.7159			
