Adsorption isotherm of Chromium, Water on Activated Carbon Filtrasorb F400
DOI: 10.1007/s10450-017-9929-7
Article source: Figure 3
Adsorbate Chromium: InChIKey VYZAMTAEIAYCRO-UHFFFAOYSA-N
Adsorbate Water: InChIKey XLYOFNOQVPJJNP-UHFFFAOYSA-N
Kind: experiment
Temperature: 298 K
Tabular data in the source: 0
pressure (bar)	Chromium fraction	Chromium uptake (mg/g)	Water fraction	Water uptake (mg/g)	total uptake (mg/g)
1.01325	3.00677	6.70135			
1.01325	3.02032	9.86472			
1.01325	3.08126	4.86993			
1.01325	3.13544	3.16337			
1.01325	3.32506	1.74818			
1.01325	3.40632	18.897			
1.01325	4.6456	31.8002			
