Adsorption isotherm of Cr(VI), Water on Norit GAC1240
DOI: 10.1007/s10450-017-9929-7
Article source: Figure 2
Adsorbate Cr(VI): InChIKey JOPOVCBBYLSVDA-UHFFFAOYSA-N
Adsorbate Water: InChIKey XLYOFNOQVPJJNP-UHFFFAOYSA-N
Kind: experiment
Temperature: 298 K
Tabular data in the source: 0
pressure (bar)	Cr(VI) fraction	Cr(VI) uptake (mg/g)	Water fraction	Water uptake (mg/g)	total uptake (mg/g)
1.01325	0.518469	25.1819			
1.01325	2.4206	41.2439			
