Adsorption isotherm of Cr(VI), Water on Activated Carbon Filtrasorb F400
DOI: 10.1007/s10450-017-9929-7
Article source: Figure 2
Adsorbate Cr(VI): InChIKey JOPOVCBBYLSVDA-UHFFFAOYSA-N
Adsorbate Water: InChIKey XLYOFNOQVPJJNP-UHFFFAOYSA-N
Kind: experiment
Temperature: 298 K
Tabular data in the source: 0
pressure (bar)	Cr(VI) fraction	Cr(VI) uptake (mg/g)	Water fraction	Water uptake (mg/g)	total uptake (mg/g)
1.01325	0.021781	9.17895			
1.01325	0.11376	13.3125			
1.01325	0.926858	24.8866			
1.01325	2.09684	44.3145			
