Adsorption isotherm of Chromium, Water on ACBSG06
DOI: 10.1007/s10450-017-9929-7
Article source: Figure 3
Adsorbate Chromium: InChIKey VYZAMTAEIAYCRO-UHFFFAOYSA-N
Adsorbate Water: InChIKey XLYOFNOQVPJJNP-UHFFFAOYSA-N
Kind: experiment
Temperature: 298 K
Tabular data in the source: 0
pressure (bar)	Chromium fraction	Chromium uptake (mg/g)	Water fraction	Water uptake (mg/g)	total uptake (mg/g)
1.01325	1.8149	20.6868			
1.01325	2.22799	9.65661			
1.01325	2.38375	38.6264			
1.01325	2.75621	5.99376			
1.01325	3.18284	1.41519			
1.01325	3.18284	4.20395			
1.01325	3.31828	2.58065			
