Adsorption isotherm of Chromium, Water on ACBSG04
DOI: 10.1007/s10450-017-9929-7
Article source: Figure 3
Adsorbate Chromium: InChIKey VYZAMTAEIAYCRO-UHFFFAOYSA-N
Adsorbate Water: InChIKey XLYOFNOQVPJJNP-UHFFFAOYSA-N
Kind: experiment
Temperature: 298 K
Tabular data in the source: 0
pressure (bar)	Chromium fraction	Chromium uptake (mg/g)	Water fraction	Water uptake (mg/g)	total uptake (mg/g)
1.01325	1.90294	22.1436			
1.01325	2.26185	10.4475			
1.01325	2.74944	6.57648			
1.01325	3	4.78668			
1.01325	3.14898	37.0031			
1.01325	3.22348	3.08013			
1.01325	3.34537	1.70656			
