Adsorption isotherm of Chromium, Water on ACBSG05
DOI: 10.1007/s10450-017-9929-7
Article source: Figure 3
Adsorbate Chromium: InChIKey VYZAMTAEIAYCRO-UHFFFAOYSA-N
Adsorbate Water: InChIKey XLYOFNOQVPJJNP-UHFFFAOYSA-N
Kind: experiment
Temperature: 298 K
Tabular data in the source: 0
pressure (bar)	Chromium fraction	Chromium uptake (mg/g)	Water fraction	Water uptake (mg/g)	total uptake (mg/g)
1.01325	1.307	11.0718			
1.01325	1.66591	7.11759			
1.01325	2.25508	1.87305			
1.01325	3.08126	34.922			
