Adsorption isotherm of Cr(VI), Water on ACBSG06
DOI: 10.1007/s10450-017-9929-7
Article source: Figure 2
Adsorbate Cr(VI): InChIKey JOPOVCBBYLSVDA-UHFFFAOYSA-N
Adsorbate Water: InChIKey XLYOFNOQVPJJNP-UHFFFAOYSA-N
Kind: experiment
Temperature: 298 K
Tabular data in the source: 0
pressure (bar)	Cr(VI) fraction	Cr(VI) uptake (mg/g)	Water fraction	Water uptake (mg/g)	total uptake (mg/g)
1.01325	0.010743	3.68717			
1.01325	0.014422	8.05697			
1.01325	0.014422	5.87207			
1.01325	0.014422	2.09278			
1.01325	0.032818	12.2496			
1.01325	0.220456	24.2961			
1.01325	1.43826	43.0745			
