Adsorption isotherm of Cr(VI), Water on ACBSG02
DOI: 10.1007/s10450-017-9929-7
Article source: Figure 2
Adsorbate Cr(VI): InChIKey JOPOVCBBYLSVDA-UHFFFAOYSA-N
Adsorbate Water: InChIKey XLYOFNOQVPJJNP-UHFFFAOYSA-N
Kind: experiment
Temperature: 298 K
Tabular data in the source: 0
pressure (bar)	Cr(VI) fraction	Cr(VI) uptake (mg/g)	Water fraction	Water uptake (mg/g)	total uptake (mg/g)
1.01325	0.014422	7.52551			
1.01325	0.014422	8.58844			
1.01325	0.018102	5.63587			
1.01325	0.018102	2.03373			
1.01325	0.018102	3.45096			
1.01325	0.06961	12.7811			
1.01325	0.849595	23.3513			
1.01325	3.21163	34.7482			
