Adsorption isotherm of Chromium, Water on ACBSG03
DOI: 10.1007/s10450-017-9929-7
Article source: Figure 3
Adsorbate Chromium: InChIKey VYZAMTAEIAYCRO-UHFFFAOYSA-N
Adsorbate Water: InChIKey XLYOFNOQVPJJNP-UHFFFAOYSA-N
Kind: experiment
Temperature: 298 K
Tabular data in the source: 0
pressure (bar)	Chromium fraction	Chromium uptake (mg/g)	Water fraction	Water uptake (mg/g)	total uptake (mg/g)
1.01325	1.43567	11.8626			
1.01325	1.71332	23.2258			
1.01325	1.91648	7.53382			
1.01325	2.32957	2.03954			
1.01325	2.53273	3.45474			
1.01325	2.53273	5.20291			
1.01325	3.50113	37.0864			
