Adsorption isotherm of Chromium, Water on ACBSG02
DOI: 10.1007/s10450-017-9929-7
Article source: Figure 3
Adsorbate Chromium: InChIKey VYZAMTAEIAYCRO-UHFFFAOYSA-N
Adsorbate Water: InChIKey XLYOFNOQVPJJNP-UHFFFAOYSA-N
Kind: experiment
Temperature: 298 K
Tabular data in the source: 0
pressure (bar)	Chromium fraction	Chromium uptake (mg/g)	Water fraction	Water uptake (mg/g)	total uptake (mg/g)
1.01325	1.22573	11.3215			
1.01325	1.40858	22.0187			
1.01325	1.5237	7.28408			
1.01325	1.84199	5.16129			
1.01325	2.12641	3.32986			
1.01325	2.32957	1.83143			
1.01325	3.73138	32.2581			
