Adsorption isotherm of Nitrogen on DUT-7 (rac)
DOI: 10.1021/Ic9022085
Adsorbate Nitrogen: InChIKey IJGRMHOSHXDMSA-UHFFFAOYSA-N
Temperature: 77 K
Tabular data in the source: 0
pressure (bar)	uptake (cm3(STP)/g)
0.0455226	191.957
0.102329	200.478
0.156951	206.377
0.26838	211.621
0.368884	214.242
0.462833	220.797
0.563338	223.419
0.663842	228.663
0.814598	238.494
0.912918	247.671
0.96317	257.503
1.0025	283.066
