Adsorption isotherm of Nitrogen on DUT-7
DOI: 10.1021/Ic9022085
Adsorbate Nitrogen: InChIKey IJGRMHOSHXDMSA-UHFFFAOYSA-N
Temperature: 77 K
Tabular data in the source: 0
pressure (bar)	uptake (cm3(STP)/g)
0.0586318	4.49449
0.165691	11.7046
0.266195	15.6373
0.362329	20.2256
0.462833	22.8474
0.563338	27.4357
0.663842	32.6794
0.814598	35.3012
0.919472	38.5785
0.95006	45.7886
0.993758	85.7718
