Adsorption isotherm of Hydrogen on DUT-7
DOI: 10.1021/Ic9022085
Adsorbate Hydrogen: InChIKey UFHFLCQGNIYNRP-UHFFFAOYSA-N
Temperature: 77 K
Tabular data in the source: 0
pressure (bar)	uptake (cm3(STP)/g)
0.00182509	0.749056
0.0520772	25.6566
0.0914049	32.4734
0.207203	41.3877
0.309892	46.8936
0.513086	52.6617
0.633254	55.8079
0.711909	57.9054
0.917287	60.7894
1.0025	62.3625
