Adsorption isotherm of Hydrogen on DUT-7 (rac)
DOI: 10.1021/Ic9022085
Adsorbate Hydrogen: InChIKey UFHFLCQGNIYNRP-UHFFFAOYSA-N
Temperature: 77 K
Tabular data in the source: 0
pressure (bar)	uptake (cm3(STP)/g)
0.00182509	0.224687
0.0105646	13.0717
0.0477074	35.8818
0.102329	51.6129
0.202833	69.9659
0.305523	82.0264
0.414766	90.4163
0.61796	102.477
0.823338	110.342
1.00687	115.848
