Adsorption isotherm of Methane on Zeolite 5A
DOI: 10.1021/Ie200652e
Adsorbate Methane: InChIKey VNWKTOKETHGBQD-UHFFFAOYSA-N
Temperature: 298 K
Tabular data in the source: 0
pressure (bar)	uptake (mmol/g)
0.0114402	0.138834
0.0426912	0.335045
0.0597622	0.464273
0.10375	0.698737
0.151921	0.890077
0.218476	1.12443
0.345831	1.4926
0.491446	1.79362
0.627068	1.98933
