Adsorption isotherm of Methane on Zeolite 5A
DOI: 10.1021/Ie200652e
Adsorbate Methane: InChIKey VNWKTOKETHGBQD-UHFFFAOYSA-N
Temperature: 303 K
Tabular data in the source: 0
pressure (bar)	uptake (mmol/g)
0.00640391	0.0115081
0.109076	0.0977491
0.231018	0.191643
0.370102	0.285515
0.498502	0.365965
0.626905	0.444495
0.763892	0.517257
0.920144	0.59959
1.06785	0.670419
1.20057	0.731669
1.34831	0.790981
1.49819	0.846451
