Adsorption isotherm of Nitrogen on Zeolite 5A
DOI: 10.1021/Ie200652e
Adsorbate Nitrogen: InChIKey IJGRMHOSHXDMSA-UHFFFAOYSA-N
Temperature: 298 K
Tabular data in the source: 0
pressure (bar)	uptake (mmol/g)
0.892015	0.507377
1.40515	0.690923
1.91776	0.835784
2.90828	1.07716
3.94934	1.27984
4.92192	1.45353
5.9451	1.59335
7.95683	1.82948
8.94537	1.9258
9.95107	2.03177
