Adsorption isotherm of Methane on Zeolite 5A
DOI: 10.1021/Ie200652e
Adsorbate Methane: InChIKey VNWKTOKETHGBQD-UHFFFAOYSA-N
Temperature: 303 K
Tabular data in the source: 0
pressure (bar)	uptake (mmol/g)
0.0596379	0.354121
0.0823237	0.459376
0.11351	0.598115
0.209797	0.932903
0.314504	1.22934
0.40782	1.43004
0.505339	1.60678
0.605636	1.74518
0.698838	1.84531
