Adsorption isotherm of Nitrogen on Zeolite 5A
DOI: 10.1021/Ie200652e
Adsorbate Nitrogen: InChIKey IJGRMHOSHXDMSA-UHFFFAOYSA-N
Temperature: 283 K
Tabular data in the source: 0
pressure (bar)	uptake (mmol/g)
0.138935	0.203039
0.37947	0.367352
0.705968	0.594493
1.44236	0.923016
2.99754	1.38177
4.97733	1.77266
6.98985	2.06682
7.92779	2.197
8.95038	2.2933
9.90481	2.38479
