Adsorption isotherm of Nitrogen on Zeolite 5A
DOI: 10.1021/Ie200652e
Adsorbate Nitrogen: InChIKey IJGRMHOSHXDMSA-UHFFFAOYSA-N
Temperature: 293 K
Tabular data in the source: 0
pressure (bar)	uptake (mmol/g)
0.567362	0.415632
1.43999	0.748936
1.95286	0.91314
2.92649	1.1642
3.96755	1.36687
4.94039	1.5599
6.93529	1.81055
7.87304	1.92623
8.92987	2.03702
9.93537	2.12849
