Adsorption isotherm of Nitrogen on Zeolite 5A
DOI: 10.1021/Ie200652e
Adsorbate Nitrogen: InChIKey IJGRMHOSHXDMSA-UHFFFAOYSA-N
Temperature: 303 K
Tabular data in the source: 0
pressure (bar)	uptake (mmol/g)
0.00640391	0.0115081
0.113399	0.0804691
0.248251	0.149394
0.40241	0.208698
0.528761	0.245005
0.646544	0.279403
0.768622	0.309957
0.916409	0.342397
1.0278	0.361449
1.17561	0.382373
1.36196	0.418603
1.49479	0.431868
