Adsorption isotherm of Methane on Zeolite 5A
DOI: 10.1021/Ie200652e
Adsorbate Methane: InChIKey VNWKTOKETHGBQD-UHFFFAOYSA-N
Temperature: 303 K
Tabular data in the source: 0
pressure (bar)	uptake (mmol/g)
0.0114293	0.129256
0.027063	0.234545
0.0569089	0.435551
0.099519	0.698757
0.18315	1.06713
0.283707	1.43542
0.384172	1.7223
0.484577	1.95649
0.584928	2.14279
0.685247	2.30036
0.784123	2.42919
