Adsorption isotherm of Methane on Zeolite 5A
DOI: 10.1021/Ie200652e
Adsorbate Methane: InChIKey VNWKTOKETHGBQD-UHFFFAOYSA-N
Temperature: 283 K
Tabular data in the source: 0
pressure (bar)	uptake (mmol/g)
0.201117	0.286126
0.536313	0.685162
1.03911	1.08409
1.86034	1.60335
2.8324	2.05472
3.85475	2.37046
4.86034	2.60335
5.84916	2.79859
6.83799	2.94109
7.82682	3.07607
8.81564	3.18091
9.78771	3.28576
