Adsorption isotherm of Methane on Zeolite 5A
DOI: 10.1021/Ie200652e
Adsorbate Methane: InChIKey VNWKTOKETHGBQD-UHFFFAOYSA-N
Temperature: 313 K
Tabular data in the source: 0
pressure (bar)	uptake (mmol/g)
0.368715	0.240823
0.988827	0.556818
1.34078	0.662059
1.89385	0.857568
2.84916	1.19595
3.83799	1.47405
4.84358	1.69187
5.8324	1.87204
6.85475	2.03713
7.7933	2.15707
8.8324	2.26188
9.83799	2.37424
