Adsorption isotherm of Methane on Zeolite 5A
DOI: 10.1021/Ie200652e
Adsorbate Methane: InChIKey VNWKTOKETHGBQD-UHFFFAOYSA-N
Temperature: 293 K
Tabular data in the source: 0
pressure (bar)	uptake (mmol/g)
0.418994	0.421583
0.804469	0.722659
1.3743	1.06128
1.81006	1.287
2.81564	1.69315
3.80447	2.00891
4.81006	2.2418
5.81564	2.42196
6.87151	2.58702
7.82682	2.75215
8.81564	2.84946
9.78771	2.96184
