Adsorption isotherm of Methane on Zeolite 5A
DOI: 10.1021/Ie200652e
Adsorbate Methane: InChIKey VNWKTOKETHGBQD-UHFFFAOYSA-N
Temperature: 303 K
Tabular data in the source: 0
pressure (bar)	uptake (mmol/g)
0.351955	0.316163
0.77095	0.534356
1.3743	0.842828
1.84358	1.06852
2.89944	1.45957
3.88827	1.72261
4.91061	1.97055
5.78212	2.13573
6.82123	2.3008
7.84358	2.45082
8.8324	2.54059
9.77095	2.66053
