Adsorption isotherm of Nitrogen on Zeolite 5A
DOI: 10.1021/Ie200652e
Adsorbate Nitrogen: InChIKey IJGRMHOSHXDMSA-UHFFFAOYSA-N
Temperature: 313 K
Tabular data in the source: 0
pressure (bar)	uptake (mmol/g)
0.599297	0.26088
0.975475	0.386454
1.94917	0.642348
2.90545	0.869235
3.94618	1.04773
4.95287	1.22624
5.9081	1.37576
6.93101	1.49624
7.91982	1.6119
8.89148	1.71789
9.89685	1.79969
