Adsorption isotherm of Nitrogen on BABN-DP COF
DOI: 10.1039/d1nr05758h
Article source: Figure 1c
Adsorbate Nitrogen: InChIKey IJGRMHOSHXDMSA-UHFFFAOYSA-N
Kind: experiment
Temperature: 77 K
Tabular data in the source: 0
pressure (bar)	uptake (cm3(STP)/g)
0.02066	255.268
0.030312	265.904
0.04453	279.1
0.057821	296.412
0.051265	264.003
0.070874	309.376
0.067655	284.474
0.087721	323.433
0.085202	300.582
0.101013	314.809
0.14459	325.47
0.16789	337.732
0.183732	330.444
0.256973	349.717
0.283257	346.855
0.433432	363.627
0.552851	373.091
0.580198	381.171
0.641291	385.859
0.66928	385.67
0.731813	395.093
0.760967	390.66
0.808657	406.537
0.848297	405.902
0.877644	407.411
0.967733	423.668
0.002945	200.963
0.002945	185.554
0	179.133
0.002945	168.86
0.002945	161.156
0.005891	149.599
0.005891	140.61
0.005891	130.337
0.005891	122.632
0.005891	112.36
0.005891	105.939
0.002945	98.2344
0.002945	89.2456
0.002945	84.1091
0	75.1204
0	67.4157
0	60.9952
0	53.2905
0.002945	37.8812
0.002945	32.7448
0.002945	23.756
0.002945	19.9037
0.002945	13.4831
0.002945	5.77849
0.002945	45.5859
0.002945	154.735
0.002945	194.543
0.005891	216.372
0.005891	207.384
0.014727	235.634
0.014727	244.623
0.055964	269.021
0.050073	285.714
0.064801	303.692
0.088365	306.26
0.079528	316.533
0.106038	328.09
0.120765	320.385
0.129602	333.226
0.147275	337.079
0.153166	328.09
0.185566	342.215
0.203239	346.067
0.220912	337.079
0.232694	348.636
0.32695	352.488
0.382914	357.624
0.321059	360.193
0.35935	365.329
0.377023	366.613
0.421206	370.465
0.480116	373.034
0.521352	378.17
0.6863	392.295
0.898376	414.125
