Adsorption isotherm of Nitrogen on BABF-SP COF
DOI: 10.1039/d1nr05758h
Article source: Figure 2c
Adsorbate Nitrogen: InChIKey IJGRMHOSHXDMSA-UHFFFAOYSA-N
Kind: experiment
Temperature: 77 K
Tabular data in the source: 0
pressure (bar)	uptake (cm3(STP)/g)
0.006737	145.509
0.017338	159.816
0.035975	172.327
0.067537	179.757
0.101991	187.183
0.136444	195.53
0.205351	204.855
0.272699	211.523
0.308711	217.774
0.377618	224.262
0.482193	236.615
0.548319	244.174
0.640126	253.953
0.74351	266.031
0.845199	279.76
0.91297	296.387
0.948679	304.508
0.430946	230.847
0.079451	184.068
0.04928	176.441
0.114148	191.186
0.157896	198.305
0.182033	201.356
0.019108	183.559
0.040228	194.237
0.053805	198.305
0.073417	202.881
0.091519	206.949
0.111131	208.983
0.135268	214.068
0.150353	215.593
0.171473	218.136
0.18505	220.169
0.207679	222.203
0.228798	224.746
0.25897	228.305
0.317803	234.407
0.364569	238.983
0.41586	243.051
0.464134	248.136
0.476202	249.661
0.530511	253.729
0.581802	257.288
0.64667	264.915
0.630076	263.39
0.687401	267.966
0.737183	273.559
0.802051	280.169
0.8458	285.763
0.005531	134.237
0.004023	125.593
0.004023	117.966
0.004023	108.305
0.002514	102.203
0.002514	97.1186
0.002514	90
0.002514	84.4068
0.002514	81.3559
0.002514	73.7288
0.002514	70.1695
0.002514	64.5763
0.002514	57.4576
0.002514	52.8814
0.002514	46.7797
0.002514	42.2034
0.002514	38.1356
0.002514	34.0678
0.002514	30.5085
0.002514	25.9322
0.002514	21.8644
0.002514	17.2881
0.002514	13.2203
0.002514	7.62712
0.001006	3.55932
0.001006	77.7966
0.004023	113.39
0.00704	140.339
0.005531	130.169
0.004023	121.017
0.002514	93.0508
0.002514	61.5254
