Adsorption isotherm of Nitrogen on BABN-DP COF, Captopril loaded
DOI: 10.1039/d1nr05758h
Article source: Figure S31
Adsorbate Nitrogen: InChIKey IJGRMHOSHXDMSA-UHFFFAOYSA-N
Kind: experiment
Temperature: 77 K
Tabular data in the source: 0
pressure (bar)	uptake (cm3(STP)/g)
0.016201	4.1327
0.038464	8.20374
0.044118	5.21537
0.069366	9.30687
0.074007	6.12218
0.097522	9.66553
0.10587	6.78397
0.136481	7.28159
0.167092	7.76701
0.197703	8.24268
0.227062	8.63102
0.252247	11.8132
0.26109	9.15336
0.287151	9.57169
0.321759	9.93762
0.345835	12.5948
0.350759	10.5112
0.375526	12.9289
0.383967	10.7955
0.406972	13.2463
0.412398	11.2799
0.498248	14.4529
0.528859	14.8083
0.561397	15.1889
0.566182	13.3214
0.593386	13.7238
0.695829	17.9946
0.757051	19.7179
0.765399	17.8522
0.809646	21.5786
0.818869	19.9894
0.871147	22.9964
0.913507	29.4759
0.932965	32.7941
0.147931	7.54601
0.119299	7.05521
0.087486	6.50307
0.054082	5.64417
0.181335	8.09816
0.209967	8.52761
0.334038	10.184
0.43425	11.4724
0.464473	11.8405
0.489923	12.2699
0.512192	12.5153
0.539234	12.8834
0.613995	14.2331
0.645808	14.6626
0.664896	15.2147
0.695118	15.8896
0.715797	16.3804
0.858956	24.908
0.683984	17.362
0.655352	16.7485
0.631492	16.2577
0.60286	15.7055
0.577409	15.3374
0.478788	14.1718
0.451747	13.8037
0.426297	13.4356
0.321313	12.454
0.302225	12.2699
0.273593	12.0245
0.222692	11.5337
0.200423	11.3497
0.184516	11.1656
0.159066	10.7975
0.138387	10.4908
0.117709	10.2454
0.084305	9.57055
0.052492	8.83436
0.031813	7.85276
0.027041	7.54601
0.017497	6.99387
0.913038	28.6503
