Adsorption isotherm of Nitrogen on BABN-DP COF, Ibuprofen loaded
DOI: 10.1039/d1nr05758h
Article source: Figure S32
Adsorbate Nitrogen: InChIKey IJGRMHOSHXDMSA-UHFFFAOYSA-N
Kind: experiment
Temperature: 77 K
Tabular data in the source: 0
pressure (bar)	uptake (cm3(STP)/g)
0.006578	5.24018
0.01288	3.43093
0.030249	6.01241
0.033207	4.05186
0.055848	6.71618
0.082962	7.34848
0.112751	7.7599
0.1383	8.3222
0.151297	6.26264
0.181096	6.67707
0.196	9.03237
0.211856	6.92508
0.223603	9.23685
0.240697	7.42226
0.250593	9.61736
0.282302	7.97934
0.330894	8.53043
0.358981	8.96171
0.385272	9.50884
0.413175	9.8364
0.441525	10.0804
0.468747	10.2648
0.497597	10.7713
0.540099	11.3639
0.568689	11.9392
0.597187	12.3173
0.624355	12.7633
0.751535	17.9092
0.76096	16.3177
0.811311	20.1385
0.812798	18.1066
0.858226	23.6166
0.867396	21.4451
0.905635	28.4455
0.906981	27.0272
0.932025	31.6235
0.024564	3.79879
0.053733	4.68343
0.066015	5.0477
0.092114	5.56808
0.105931	5.77624
0.125889	5.98439
0.257918	7.70165
0.311651	8.37814
0.512766	11.0321
0.646331	13.1657
0.663218	13.686
0.690852	14.2585
0.718486	14.935
0.704669	16.2879
0.686247	15.7155
0.657077	14.935
0.629443	14.4146
0.603344	13.8422
0.57571	13.3738
0.548076	12.9055
0.526583	12.5932
0.503555	12.281
0.478991	12.0729
0.449822	11.6045
0.419117	11.3443
0.400694	11.0841
0.376131	10.7719
0.348497	10.5637
0.322398	10.1995
0.296299	10.0434
0.27327	9.78317
0.178086	8.79445
0.159664	8.53426
0.098255	7.59757
0.066015	7.07719
0.038381	6.40069
0.024564	5.7242
