Adsorption isotherm of Nitrogen on BABN-SP COF
DOI: 10.1039/d1nr05758h
Article source: Figure 1e
Adsorbate Nitrogen: InChIKey IJGRMHOSHXDMSA-UHFFFAOYSA-N
Kind: experiment
Temperature: 77 K
Tabular data in the source: 0
pressure (bar)	uptake (cm3(STP)/g)
0.003407	78.0009
0.003407	69.3599
0.003407	60.7188
0.003407	52.0778
0.003407	43.4368
0.003407	17.5137
0.00256	7.03309
0.002632	2.18537
0.002262	129.972
0.019338	143.532
0.046345	152.665
0.055854	199.554
0.105948	204.234
0.136733	206.94
0.13601	167.892
0.166801	208.354
0.167223	172.428
0.193387	175.459
0.224341	211.608
0.223862	177.841
0.254165	213.464
0.255295	182.398
0.281597	183.525
0.31569	188.041
0.341314	189.37
0.373462	193.298
0.403286	195.583
0.43311	197.797
0.552406	206.009
0.640419	236.372
0.672537	215.414
0.733046	238.148
0.764248	223.358
0.793108	240.052
0.849292	239.825
0.860014	232.266
0.910296	243.789
0.975845	244.796
0.42453	226.286
0.465947	228.857
0.528073	231.429
0.587241	233.143
0.696702	238.286
0.362403	222.857
0.318027	219.429
0.211525	211.714
0.190816	210.857
0.152357	207.857
0.181941	209.143
0.072481	200.571
0.093189	201.429
0.060647	157.714
0.075439	160.286
0.090231	162.857
0.116857	166.286
0.002958	12.8571
0.001479	122.571
0.001479	117.429
0.001479	110.571
0.001479	103.714
0.001479	96
0.001479	90
0.004438	84
0.002958	38.1429
0.002958	31.7143
0.002958	25.7143
0.002958	21.4286
