Adsorption isotherm of Nitrogen on BABF-DP COF
DOI: 10.1039/d1nr05758h
Article source: Figure 3c
Adsorbate Nitrogen: InChIKey IJGRMHOSHXDMSA-UHFFFAOYSA-N
Kind: experiment
Temperature: 77 K
Tabular data in the source: 0
pressure (bar)	uptake (cm3(STP)/g)
0.001062	141.712
0.003171	116.192
0.004546	96.8627
0.004546	82.2826
0.004546	67.7026
0.004546	53.1225
0.004546	38.5425
0.004546	23.9624
0.006239	9.56932
0.018527	157.895
0.108874	216.673
0.140211	226.164
0.169966	232.106
0.201121	237.868
0.229236	241.792
0.273548	253.036
0.432764	277.785
0.465906	279.366
0.526277	289.927
0.557055	288.46
0.585048	298.939
0.649861	302.69
0.695273	318.985
0.751808	330.324
0.755705	319.219
0.905618	369.737
0.944335	390.151
0.019416	165.263
0.0216	175.789
0.039074	187.368
0.058732	198.947
0.065285	207.368
0.087127	215.789
0.000243	130.526
0.000243	122.105
0.004611	107.368
0.041258	176.842
0.054364	189.474
0.071838	200
0.087127	208.421
0.106786	221.053
0.154839	229.474
0.187603	235.789
0.21163	240
0.132997	217.895
0.176682	225.263
0.215998	232.632
0.274973	243.158
0.307737	257.895
0.327395	252.632
0.379817	261.053
0.366712	267.368
0.438792	268.421
0.628822	308.421
0.644111	311.579
0.794825	338.947
0.851615	354.737
0.862537	349.474
