Adsorption isotherm of Hydrogen on C98H82F20O12Zn5
DOI: 10.1021/Om100703c
Adsorbate Hydrogen: InChIKey UFHFLCQGNIYNRP-UHFFFAOYSA-N
Temperature: 90 K
Tabular data in the source: 0
pressure (bar)	uptake (wt%)
1.29464	-5.55e-17
1.49567	0.00243902
1.76367	0.00487805
1.96469	0.00731707
2.03166	0.00731707
2.23276	0.0109756
2.45611	0.0134146
2.61236	0.0134146
2.74642	0.0158537
2.96977	0.0182927
3.1708	0.0207317
3.39415	0.0231707
3.59518	0.0256098
3.97485	0.0292683
4.19813	0.0304878
4.39916	0.0329268
4.62251	0.0353659
4.84579	0.0365854
5.04682	0.0390244
5.20314	0.0402439
5.35946	0.0414634
5.58281	0.0439024
5.78384	0.0463415
6.00712	0.047561
6.20815	0.05
6.47614	0.052439
6.61014	0.0536585
6.83342	0.054878
7.03445	0.0573171
7.25773	0.0585366
7.48108	0.0609756
7.70436	0.0621951
7.83836	0.0634146
8.06164	0.0646341
8.26267	0.0670732
8.48595	0.0682927
8.70924	0.0695122
8.97716	0.0707317
