Adsorption isotherm of Hydrogen on IRMOF-1
DOI: 10.1021/Om100703c
Adsorbate Hydrogen: InChIKey UFHFLCQGNIYNRP-UHFFFAOYSA-N
Temperature: 90 K
Tabular data in the source: 0
pressure (bar)	uptake (wt%)
0.15636	0.0790531
0.290298	0.158128
0.424236	0.237204
0.558174	0.316279
0.692112	0.395354
0.826051	0.47443
1.00446	0.602966
1.13855	0.662239
1.29506	0.72149
1.47384	0.800521
1.63027	0.869673
1.78671	0.938825
2.01011	1.04751
2.16669	1.09686
2.34562	1.15609
2.52455	1.21532
2.68106	1.27457
2.85999	1.3338
3.01649	1.39305
3.17308	1.4424
3.35201	1.50163
3.53094	1.56086
3.70994	1.61019
3.88887	1.66942
4.00068	1.70891
4.17976	1.74834
4.35869	1.80757
4.56011	1.85687
4.73912	1.9062
4.98516	1.98516
5.18659	2.03447
5.38801	2.08377
5.58951	2.12318
5.76852	2.17251
5.99229	2.23169
6.17137	2.27112
6.37287	2.31052
6.57429	2.35983
6.77579	2.39923
6.97722	2.44854
7.17871	2.48794
7.38029	2.51745
7.60421	2.55683
7.80578	2.58633
7.98486	2.62576
8.16401	2.65528
8.36551	2.69469
8.56701	2.73409
8.79093	2.77347
9.01485	2.81286
