Adsorption isotherm of Hydrogen on C56H63N7O13Zn4
DOI: 10.1021/Om100703c
Adsorbate Hydrogen: InChIKey UFHFLCQGNIYNRP-UHFFFAOYSA-N
Temperature: 90 K
Tabular data in the source: 0
pressure (bar)	uptake (wt%)
1.29463	-0.000157402
2.56695	-0.000312091
3.10286	0.00327017
3.32614	0.00445883
3.54942	0.00564749
3.88438	0.00803837
4.04063	0.00801938
4.26384	0.00799224
4.48712	0.0091809
4.7104	0.0103696
4.91136	0.0115609
5.22393	0.0127387
5.44714	0.0127116
5.67042	0.0139003
5.89363	0.0138731
6.11684	0.013846
6.45173	0.0150211
6.58566	0.0150048
6.80894	0.0161934
7.00997	0.0186006
7.23325	0.0197893
7.45653	0.0209779
7.76909	0.0221557
7.92534	0.0221367
8.14856	0.0221096
8.37177	0.0220825
8.59491	0.0208395
8.81813	0.0208124
8.99663	0.0195749
