Adsorption isotherm of Hydrogen on C76.5H36Cl6F20O12Zn5
DOI: 10.1021/Om100703c
Adsorbate Hydrogen: InChIKey UFHFLCQGNIYNRP-UHFFFAOYSA-N
Temperature: 90 K
Tabular data in the source: 0
pressure (bar)	uptake (wt%)
1.0404	0.243902
1.17432	0.243902
1.39754	0.243902
1.62069	0.242683
1.84383	0.241463
2.06705	0.241463
2.17872	0.242683
2.402	0.243902
2.62529	0.245122
2.82631	0.247561
3.0496	0.24878
3.18353	0.24878
3.40681	0.25
3.63002	0.25
3.85324	0.25
4.0542	0.25122
4.1658	0.25122
4.38916	0.253659
4.59012	0.254878
4.81347	0.257317
5.03682	0.259756
5.17075	0.259756
5.39403	0.260976
5.61724	0.260976
5.84052	0.262195
6.04142	0.262195
6.17541	0.263415
6.3987	0.264634
6.62198	0.265854
6.82301	0.268293
7.04622	0.268293
7.15783	0.268293
7.38111	0.269512
7.60426	0.268293
7.82747	0.268293
8.02836	0.268293
8.16229	0.268293
8.38558	0.269512
8.60879	0.269512
8.83207	0.270732
9.03296	0.270732
