Adsorption isotherm of Carbon Dioxide on SNU-110'
DOI: 10.1039/C2cc34482c
Adsorbate Carbon Dioxide: InChIKey CURLTUGMZLYLDI-UHFFFAOYSA-N
Temperature: 273 K
Tabular data in the source: 0
pressure (bar)	uptake (cm3(STP)/g)
0.0245052	0.326797
0.043545	1.30719
0.0598878	1.30719
0.0734978	1.63399
0.087099	2.28758
0.111595	2.94118
0.160597	3.92157
0.206857	5.55556
0.258538	8.16993
0.307512	10.1307
0.356496	11.7647
0.410927	13.3987
0.459911	15.0327
0.514351	16.3399
0.566077	17.3203
0.615087	17.9739
0.666812	18.9542
0.718538	19.9346
0.767548	20.5882
0.819282	21.2418
0.871017	21.8954
0.920036	22.2222
0.974494	22.8758
1.00989	23.2026
