Adsorption isotherm of Carbon Dioxide on SNU-110'
DOI: 10.1039/C2cc34482c
Adsorbate Carbon Dioxide: InChIKey CURLTUGMZLYLDI-UHFFFAOYSA-N
Temperature: 195 K
Tabular data in the source: 0
pressure (bar)	uptake (cm3(STP)/g)
0.00251427	7.20461
0.00502854	10.3746
0.0201141	15.2738
0.0251427	16.7147
0.0452568	17.8674
0.0527996	18.732
0.075428	19.8847
0.0955422	20.7493
0.120685	21.902
0.143313	22.7666
0.165942	23.3429
0.191084	23.9193
0.201141	24.7839
0.22377	24.7839
0.274055	25.9366
0.296684	26.8012
0.321826	27.3775
0.346969	27.9539
0.374626	28.8184
0.399769	29.683
0.422397	30.5476
0.445025	31.7003
0.450054	32.2767
0.470168	33.4294
0.490282	35.1585
0.515425	39.1931
0.522968	41.7867
0.533025	44.6686
0.540568	47.2622
0.54811	50.1441
0.555653	52.7378
0.563196	56.196
0.573253	58.7896
0.580796	61.6715
0.588339	64.2651
0.595882	67.147
0.613481	72.0461
0.626053	74.6398
0.638624	77.2334
0.648681	79.5389
0.666281	82.7089
0.683881	84.7262
0.701481	86.7435
0.724109	89.049
0.746738	90.4899
0.764337	92.219
0.781937	92.5072
0.82468	94.5245
0.849823	95.1009
0.915194	96.5418
0.940336	96.83
0.962965	97.1182
