Adsorption isotherm of Oxygen on SNU-110'
DOI: 10.1039/C2cc34482c
Adsorbate Oxygen: InChIKey MYMOFIZGZYHOMD-UHFFFAOYSA-N
Temperature: 77 K
Tabular data in the source: 0
pressure (bar)	uptake (cm3(STP)/g)
0.0201141	2.59366
0.0351998	2.88184
0.0527996	3.17003
0.065371	3.17003
0.0930279	4.03458
0.128228	4.61095
0.160913	5.4755
0.183542	6.62824
0.203656	10.0865
