Adsorption isotherm of Methane on SNU-110'
DOI: 10.1039/C2cc34482c
Adsorbate Methane: InChIKey VNWKTOKETHGBQD-UHFFFAOYSA-N
Temperature: 195 K
Tabular data in the source: 0
pressure (bar)	uptake (cm3(STP)/g)
0.0201141	0.864553
0.0477711	1.15274
0.0678852	0.864553
0.0879994	1.44092
0.115656	1.44092
0.160913	1.44092
0.213713	1.72911
0.266512	2.01729
0.314283	1.72911
0.367083	2.01729
0.419883	2.30548
0.470168	2.30548
0.520453	2.88184
0.570739	3.45821
0.621024	3.17003
0.67131	3.7464
0.721595	3.7464
0.764337	4.89914
0.814623	6.34006
0.872451	6.62824
0.925251	7.20461
0.970507	6.91643
1.01325	7.4928
