Adsorption isotherm of Methane on SNU-110'
DOI: 10.1039/C2cc34482c
Adsorbate Methane: InChIKey VNWKTOKETHGBQD-UHFFFAOYSA-N
Temperature: 298 K
Tabular data in the source: 0
pressure (bar)	uptake (cm3(STP)/g)
0.161137	3.55e-15
0.199365	0.0416667
0.213028	3.55e-15
0.316787	0.125
0.365947	0.125
0.417823	0.208333
0.469706	0.25
0.518858	0.291667
0.570742	0.333333
0.622625	0.375
0.671769	0.458333
0.720921	0.5
0.772797	0.583333
0.824672	0.666667
0.871093	0.708333
0.92296	0.833333
0.974843	0.875
0.999416	0.916667
