Adsorption isotherm of Carbon Dioxide on SNU-110'
DOI: 10.1039/C2cc34482c
Adsorbate Carbon Dioxide: InChIKey CURLTUGMZLYLDI-UHFFFAOYSA-N
Temperature: 298 K
Tabular data in the source: 0
pressure (bar)	uptake (cm3(STP)/g)
0.108934	0.653595
0.160668	1.30719
0.209678	1.96078
0.261413	2.61438
0.310405	3.92157
0.362122	5.22876
0.413856	5.88235
0.46559	6.53595
0.514609	6.86275
0.566344	7.51634
0.618078	8.16993
0.667097	8.49673
0.718831	9.15033
0.770566	9.80392
0.819585	10.1307
0.871319	10.7843
0.920321	11.7647
0.969349	11.7647
1.01564	12.0915
