Adsorption isotherm of Nitrogen on SNU-110'
DOI: 10.1039/C2cc34482c
Adsorbate Nitrogen: InChIKey IJGRMHOSHXDMSA-UHFFFAOYSA-N
Temperature: 77 K
Tabular data in the source: 0
pressure (bar)	uptake (cm3(STP)/g)
0.0402283	2.01729
0.0905136	2.59366
0.13577	2.88184
0.178513	3.17003
0.24137	3.45821
0.304226	4.89914
0.35954	4.89914
0.417368	5.4755
0.457597	5.76369
0.517939	6.34006
0.563196	6.91643
0.613481	7.20461
0.668795	7.78098
0.764337	8.93372
0.819651	8.93372
0.864908	9.51009
0.907651	10.0865
