Adsorption isotherm of Hydrogen on SNU-110'
DOI: 10.1039/C2cc34482c
Adsorbate Hydrogen: InChIKey UFHFLCQGNIYNRP-UHFFFAOYSA-N
Temperature: 77 K
Tabular data in the source: 0
pressure (bar)	uptake (cm3(STP)/g)
0.0100571	1.72911
0.0351998	2.01729
0.0678852	2.59366
0.115656	3.17003
0.163427	2.88184
0.211199	3.17003
0.266512	3.7464
0.314283	3.7464
0.369597	4.61095
0.417368	4.61095
0.467654	4.61095
0.520453	5.4755
0.563196	5.4755
0.623538	5.4755
0.663767	6.05187
0.709024	6.34006
0.769366	6.62824
0.822166	6.62824
0.869937	6.62824
0.920222	6.91643
0.973022	7.20461
1.00571	7.4928
