Adsorption isotherm of Carbon Dioxide on SNU-110'
DOI: 10.1039/C2cc34482c
Adsorbate Carbon Dioxide: InChIKey CURLTUGMZLYLDI-UHFFFAOYSA-N
Temperature: 231 K
Tabular data in the source: 0
pressure (bar)	uptake (cm3(STP)/g)
0.00538527	2.28758
0.00806456	3.92157
0.0107082	6.86275
0.0215055	10.4575
0.0296145	12.7451
0.0377325	14.7059
0.051307	16.3399
0.0648814	17.9739
0.0784825	18.6275
0.108391	20.5882
0.154651	22.2222
0.206358	23.8562
0.255342	25.4902
0.30705	27.1242
0.36149	28.4314
0.413215	29.4118
0.467673	30.0654
0.516683	30.719
0.568418	31.3725
0.617428	32.0261
0.669162	32.6797
0.720897	33.3333
0.767183	33.9869
0.821641	34.6405
0.873384	34.9673
0.919671	35.6209
0.971405	36.2745
0.993187	36.6013
