Adsorption isotherm of Nitrogen on SNU-110'
DOI: 10.1039/C2cc34482c
Adsorbate Nitrogen: InChIKey IJGRMHOSHXDMSA-UHFFFAOYSA-N
Temperature: 298 K
Tabular data in the source: 0
pressure (bar)	uptake (cm3(STP)/g)
0.0109083	0.0833333
0.0354641	0.208333
0.0655147	0.166667
0.08738	0.0833333
0.114691	0.0833333
0.163852	0.0833333
0.215751	0.0416667
0.264912	0.0416667
0.316795	0.0833333
0.363241	3.55e-15
0.417855	0.0416667
0.467015	0.0416667
0.518907	0.0416667
0.57079	0.0833333
0.614488	0.0833333
0.663657	0.0416667
0.721003	0.0833333
0.770163	0.0833333
0.822054	0.0833333
0.871199	0.166667
0.92309	0.166667
0.974974	0.208333
0.99136	0.208333
