Adsorption isotherm of Carbon Dioxide on Zeolite 13X
DOI: 10.1007/s10450-018-9952-3
Article source: Figure 2c
Adsorbate Carbon Dioxide: InChIKey CURLTUGMZLYLDI-UHFFFAOYSA-N
Kind: experiment
Temperature: 333 K
Tabular data in the source: 0
pressure (bar)	uptake (mmol/g)
0.213992	2.26566
0.510288	3.00569
0.798354	3.39279
1.04527	3.48387
2	3.95066
3.0535	4.14421
4.93827	4.44023
6.90535	4.56546
8.88889	4.64516
