Adsorption isotherm of Carbon Dioxide on Zeolite 13X
DOI: 10.1007/s10450-018-9952-3
Article source: Figure 2a
Adsorbate Carbon Dioxide: InChIKey CURLTUGMZLYLDI-UHFFFAOYSA-N
Kind: experiment
Temperature: 273 K
Tabular data in the source: 0
pressure (bar)	uptake (mmol/g)
0.257	0.146
0.522	0.281
0.787	0.411
1.06	0.557
2.04	0.864
3.04	1.14
5.04	1.52
7.04	1.81
9.03	2.03
