Adsorption isotherm of Methane on Zeolite 13X
DOI: 10.1007/s10450-018-9952-3
Article source: Figure 2b
Adsorbate Methane: InChIKey VNWKTOKETHGBQD-UHFFFAOYSA-N
Kind: experiment
Temperature: 333 K
Tabular data in the source: 0
pressure (bar)	uptake (mmol/g)
0.279	0.0499
0.548	0.143
0.827	0.249
1.06	0.321
2.05	0.592
3.05	0.841
5.05	1.25
7.03	1.57
9.03	1.82
