Adsorption isotherm of Carbon Dioxide, Methane on Zeolite 13X
DOI: 10.1007/s10450-018-9952-3
Article source: Table 3
Adsorbate Carbon Dioxide: InChIKey CURLTUGMZLYLDI-UHFFFAOYSA-N
Adsorbate Methane: InChIKey VNWKTOKETHGBQD-UHFFFAOYSA-N
Kind: experiment
Temperature: 273 K
Tabular data in the source: 0
pressure (bar)	Carbon Dioxide fraction	Carbon Dioxide uptake (mmol/g)	Methane fraction	Methane uptake (mmol/g)	total uptake (mmol/g)
1.06	0.24	4.22	0.76	0.32	
1.06	0.49	4.77	0.51	0.21	
1.06	0.74	4.99	0.26	0.05	
9.03	0.21	5.08	0.79	0.46	
9.03	0.45	5.65	0.55	0.17	
9.03	0.69	6.03	0.31	0.16	
