Adsorption isotherm of Methane on Zeolite 13X
DOI: 10.1007/s10450-018-9952-3
Article source: Figure 2b
Adsorbate Methane: InChIKey VNWKTOKETHGBQD-UHFFFAOYSA-N
Kind: experiment
Temperature: 273 K
Tabular data in the source: 0
pressure (bar)	uptake (mmol/g)
0.27	0.249
0.531	0.506
0.792	0.727
1.04	0.905
2.03	1.48
3.04	1.87
5.04	2.37
7.02	2.65
9.02	2.87
