Adsorption isotherm of Methane on Zeolite 13X
DOI: 10.1007/s10450-018-9952-3
Article source: Figure 2b
Adsorbate Methane: InChIKey VNWKTOKETHGBQD-UHFFFAOYSA-N
Kind: experiment
Temperature: 333 K
Tabular data in the source: 0
pressure (bar)	uptake (mmol/g)
0.28665	0.074038
0.556921	0.175
0.810811	0.255769
1.07289	0.356731
2.05569	0.6125
3.05487	0.834615
5.05324	1.25865
7.03522	1.575
9.0172	1.8375
