Adsorption isotherm of Carbon Dioxide on Zeolite 13X
DOI: 10.1007/s10450-018-9952-3
Article source: Figure 2c
Adsorbate Carbon Dioxide: InChIKey CURLTUGMZLYLDI-UHFFFAOYSA-N
Kind: experiment
Temperature: 273 K
Tabular data in the source: 0
pressure (bar)	uptake (mmol/g)
0.057613	3.95066
0.197531	4.40607
0.477366	4.58823
0.765432	4.91841
1.03704	5.11195
1.98354	5.40797
2.97119	5.33966
4.93004	5.65844
6.91358	5.88615
8.88889	5.85199
