Adsorption isotherm of Carbon Dioxide on Zeolite 13X
DOI: 10.1007/s10450-018-9952-3
Article source: Figure 2c
Adsorbate Carbon Dioxide: InChIKey CURLTUGMZLYLDI-UHFFFAOYSA-N
Kind: experiment
Temperature: 303 K
Tabular data in the source: 0
pressure (bar)	uptake (mmol/g)
0.057613	2.88046
0.205761	3.14231
0.502058	3.72296
0.773663	4.05313
1.02881	4.26945
1.99177	4.61101
2.97942	4.75901
4.95473	4.97533
6.92181	5.25996
8.8642	5.19165
