Adsorption isotherm of Carbon Dioxide, Nitrogen on Zeolite 13X
DOI: 10.1007/s10450-018-9952-3
Article source: Table 4
Adsorbate Carbon Dioxide: InChIKey CURLTUGMZLYLDI-UHFFFAOYSA-N
Adsorbate Nitrogen: InChIKey IJGRMHOSHXDMSA-UHFFFAOYSA-N
Kind: experiment
Temperature: 273 K
Tabular data in the source: 0
pressure (bar)	Carbon Dioxide fraction	Carbon Dioxide uptake (mmol/g)	Nitrogen fraction	Nitrogen uptake (mmol/g)	total uptake (mmol/g)
1.07	0.25	4.47	0.75	0	4.47
1.08	0.52	5.07	0.48	0	5.07
1.08	0.76	5.24	0.24	0	5.24
