Adsorption isotherm of Carbon Dioxide, Nitrogen, Methane on Zeolite 13X
DOI: 10.1007/s10450-018-9952-3
Article source: Table 6
Adsorbate Carbon Dioxide: InChIKey CURLTUGMZLYLDI-UHFFFAOYSA-N
Adsorbate Nitrogen: InChIKey IJGRMHOSHXDMSA-UHFFFAOYSA-N
Adsorbate Methane: InChIKey VNWKTOKETHGBQD-UHFFFAOYSA-N
Kind: experiment
Temperature: 333 K
Tabular data in the source: 0
pressure (bar)	Carbon Dioxide fraction	Carbon Dioxide uptake (mmol/g)	Nitrogen fraction	Nitrogen uptake (mmol/g)	Methane fraction	Methane uptake (mmol/g)	total uptake (mmol/g)
1.07	0.38	2.69	0.3	0.01	0.32	0.02	
1.07	0.59	3.12	0.2	0.01	0.21	0.02	
1.07	0.79	3.57	0.1	0	0.11	0.01	
5.04	0.37	4.01	0.29	0	0.34	0.06	
5.04	0.57	4.45	0.19	0.01	0.24	0.04	
5.04	0.77	4.52	0.09	0.01	0.14	0.03	
9.02	0.35	4.33	0.28	0	0.37	0.11	
9.02	0.55	4.56	0.18	0	0.27	0.08	
9.02	0.76	4.56	0.09	0.01	0.15	0.05	
