Adsorption isotherm of Nitrogen, Methane on Zeolite 13X
DOI: 10.1007/s10450-018-9952-3
Article source: Table 5
Adsorbate Nitrogen: InChIKey IJGRMHOSHXDMSA-UHFFFAOYSA-N
Adsorbate Methane: InChIKey VNWKTOKETHGBQD-UHFFFAOYSA-N
Kind: experiment
Temperature: 273 K
Tabular data in the source: 0
pressure (bar)	Nitrogen fraction	Nitrogen uptake (mmol/g)	Methane fraction	Methane uptake (mmol/g)	total uptake (mmol/g)
1.06	0.26	0.13	0.74	0.68	
1.07	0.5	0.24	0.5	0.48	
1.07	0.74	0.37	0.26	0.25	
9.02	0.24	0.34	0.76	2.31	
9.02	0.47	0.73	0.53	1.83	
9.02	0.7	1.19	0.3	1.12	
