Adsorption isotherm of Nitrogen on Zeolite 13X
DOI: 10.1007/s10450-018-9952-3
Article source: Figure 2c
Adsorbate Nitrogen: InChIKey IJGRMHOSHXDMSA-UHFFFAOYSA-N
Kind: experiment
Temperature: 273 K
Tabular data in the source: 0
pressure (bar)	uptake (mmol/g)
0.0777	3.93
0.224	4.41
0.5	4.56
0.777	4.93
1.06	5.11
2	5.42
3	5.32
4.94	5.66
6.93	5.87
8.9	5.83
