Adsorption isotherm of Nitrogen, Methane on Zeolite 13X
DOI: 10.1007/s10450-018-9952-3
Article source: Table 5
Adsorbate Nitrogen: InChIKey IJGRMHOSHXDMSA-UHFFFAOYSA-N
Adsorbate Methane: InChIKey VNWKTOKETHGBQD-UHFFFAOYSA-N
Kind: experiment
Temperature: 333 K
Tabular data in the source: 0
pressure (bar)	Nitrogen fraction	Nitrogen uptake (mmol/g)	Methane fraction	Methane uptake (mmol/g)	total uptake (mmol/g)
9.02	0.24	0.24	0.76	1.46	1.7
9.02	0.47	0.47	0.53	1.08	1.55
9.02	0.7	0.7	0.3	0.63	1.33
