Adsorption isotherm of Nitrogen on Zeolite 13X
DOI: 10.1007/s10450-018-9952-3
Article source: Figure 2a
Adsorbate Nitrogen: InChIKey IJGRMHOSHXDMSA-UHFFFAOYSA-N
Kind: experiment
Temperature: 333 K
Tabular data in the source: 0
pressure (bar)	uptake (mmol/g)
0.24	0.052
0.496	0.104
0.778	0.156
1.07	0.208
2.04	0.358
3.05	0.509
5.04	0.763
7.03	0.991
9.02	1.16
