Adsorption isotherm of Nitrogen, Methane on Zeolite 13X
DOI: 10.1007/s10450-018-9952-3
Article source: Table 5
Adsorbate Nitrogen: InChIKey IJGRMHOSHXDMSA-UHFFFAOYSA-N
Adsorbate Methane: InChIKey VNWKTOKETHGBQD-UHFFFAOYSA-N
Kind: experiment
Temperature: 333 K
Tabular data in the source: 0
pressure (bar)	Nitrogen fraction	Nitrogen uptake (mmol/g)	Methane fraction	Methane uptake (mmol/g)	total uptake (mmol/g)
1.05	0.26	0.26	0.74	0.27	0.53
1.06	0.49	0.49	0.51	0.18	0.67
1.06	0.73	0.73	0.27	0.1	0.83
