Adsorption isotherm of Nitrogen on Zeolite 13X
DOI: 10.1007/s10450-018-9952-3
Article source: Figure 2a
Adsorbate Nitrogen: InChIKey IJGRMHOSHXDMSA-UHFFFAOYSA-N
Kind: experiment
Temperature: 333 K
Tabular data in the source: 0
pressure (bar)	uptake (mmol/g)
0.253644	0.056077
0.516542	0.101101
0.779439	0.15613
1.08342	0.211159
2.04464	0.36624
3.0305	0.511316
5.0351	0.771453
7.02326	0.991568
9.01964	1.16166
