Adsorption isotherm of Carbon Dioxide on Zeolite 13X
DOI: 10.1007/s10450-018-9952-3
Article source: Figure 2c
Adsorbate Carbon Dioxide: InChIKey CURLTUGMZLYLDI-UHFFFAOYSA-N
Kind: experiment
Temperature: 333 K
Tabular data in the source: 0
pressure (bar)	uptake (mmol/g)
0.233	2.29
0.526	3.02
0.811	3.41
1.04	3.47
2.02	3.94
3.07	4.16
4.96	4.46
6.93	4.57
8.9	4.65
