Adsorption isotherm of Methane on Zeolite 13X
DOI: 10.1007/s10450-018-9952-3
Article source: Figure 2b
Adsorbate Methane: InChIKey VNWKTOKETHGBQD-UHFFFAOYSA-N
Kind: experiment
Temperature: 273 K
Tabular data in the source: 0
pressure (bar)	uptake (mmol/g)
0.20475	0.107692
0.548731	0.498077
0.810811	0.7
1.04832	0.901923
2.03931	1.4875
3.0303	1.90481
5.02867	2.39615
7.01884	2.69904
9.0172	2.8875
