Adsorption isotherm of Nitrogen on Zeolite 13X
DOI: 10.1007/s10450-018-9952-3
Article source: Figure 2c
Adsorbate Nitrogen: InChIKey IJGRMHOSHXDMSA-UHFFFAOYSA-N
Kind: experiment
Temperature: 303 K
Tabular data in the source: 0
pressure (bar)	uptake (mmol/g)
0.0777	2.85
0.216	3.14
0.518	3.75
0.794	4.06
1.06	4.28
2.01	4.63
2.99	4.75
4.98	4.99
6.94	5.25
8.89	5.17
