Adsorption isotherm of Carbon Dioxide, Methane on Zeolite 13X
DOI: 10.1007/s10450-018-9952-3
Article source: Table 3
Adsorbate Carbon Dioxide: InChIKey CURLTUGMZLYLDI-UHFFFAOYSA-N
Adsorbate Methane: InChIKey VNWKTOKETHGBQD-UHFFFAOYSA-N
Kind: experiment
Temperature: 303 K
Tabular data in the source: 0
pressure (bar)	Carbon Dioxide fraction	Carbon Dioxide uptake (mmol/g)	Methane fraction	Methane uptake (mmol/g)	total uptake (mmol/g)
9.02	0.21	4.33	0.79	0.32	4.65
9.02	0.44	4.9	0.56	0.3	5.2
9.02	0.69	5.07	0.31	0.14	5.21
