Adsorption isotherm of Nitrogen on Zeolite 13X
DOI: 10.1007/s10450-018-9952-3
Article source: Figure 2a
Adsorbate Nitrogen: InChIKey IJGRMHOSHXDMSA-UHFFFAOYSA-N
Kind: experiment
Temperature: 303 K
Tabular data in the source: 0
pressure (bar)	uptake (mmol/g)
0.253644	0.051075
0.532973	0.15613
0.828733	0.261185
1.08342	0.331222
2.01999	0.531327
3.00586	0.716424
5.01045	1.04159
7.00683	1.28672
8.99499	1.48683
