Adsorption isotherm of Carbon Dioxide, Nitrogen on Zeolite 13X
DOI: 10.1007/s10450-018-9952-3
Article source: Table 4
Adsorbate Carbon Dioxide: InChIKey CURLTUGMZLYLDI-UHFFFAOYSA-N
Adsorbate Nitrogen: InChIKey IJGRMHOSHXDMSA-UHFFFAOYSA-N
Kind: experiment
Temperature: 333 K
Tabular data in the source: 0
pressure (bar)	Carbon Dioxide fraction	Carbon Dioxide uptake (mmol/g)	Nitrogen fraction	Nitrogen uptake (mmol/g)	total uptake (mmol/g)
9.02	0.21	3.97	0.79	0	3.97
9.02	0.46	4.4	0.54	0	4.4
9.02	0.72	4.73	0.28	0	4.73
