Adsorption isotherm of Methane on Zeolite 13X
DOI: 10.1007/s10450-018-9952-3
Article source: Figure 2b
Adsorbate Methane: InChIKey VNWKTOKETHGBQD-UHFFFAOYSA-N
Kind: experiment
Temperature: 303 K
Tabular data in the source: 0
pressure (bar)	uptake (mmol/g)
0.566	0.264
0.818	0.385
1.04	0.499
2.05	0.905
3.04	1.24
5.04	1.72
7.03	2.06
9.03	2.32
