Adsorption isotherm of Carbon Dioxide, Methane on Zeolite 13X
DOI: 10.1007/s10450-018-9952-3
Article source: Table 3
Adsorbate Carbon Dioxide: InChIKey CURLTUGMZLYLDI-UHFFFAOYSA-N
Adsorbate Methane: InChIKey VNWKTOKETHGBQD-UHFFFAOYSA-N
Kind: experiment
Temperature: 333 K
Tabular data in the source: 0
pressure (bar)	Carbon Dioxide fraction	Carbon Dioxide uptake (mmol/g)	Methane fraction	Methane uptake (mmol/g)	total uptake (mmol/g)
1.06	0.24	2.43	0.76	0.25	2.68
1.06	0.48	3.01	0.52	0.2	3.21
1.06	0.74	3.44	0.26	0.04	3.48
