Adsorption isotherm of Methane on Zeolite 13X
DOI: 10.1007/s10450-018-9952-3
Article source: Figure 2b
Adsorbate Methane: InChIKey VNWKTOKETHGBQD-UHFFFAOYSA-N
Kind: experiment
Temperature: 303 K
Tabular data in the source: 0
pressure (bar)	uptake (mmol/g)
0.27846	0.127885
0.573301	0.282692
0.810811	0.397115
1.04013	0.484615
2.02293	0.908654
3.03849	1.21827
5.03686	1.71635
7.02703	2.06635
9.0172	2.32885
