Adsorption isotherm of Carbon Dioxide, Nitrogen on Zeolite 13X
DOI: 10.1007/s10450-018-9952-3
Article source: Table 4
Adsorbate Carbon Dioxide: InChIKey CURLTUGMZLYLDI-UHFFFAOYSA-N
Adsorbate Nitrogen: InChIKey IJGRMHOSHXDMSA-UHFFFAOYSA-N
Kind: experiment
Temperature: 303 K
Tabular data in the source: 0
pressure (bar)	Carbon Dioxide fraction	Carbon Dioxide uptake (mmol/g)	Nitrogen fraction	Nitrogen uptake (mmol/g)	total uptake (mmol/g)
1.07	0.25	3.49	0.75	0	
1.07	0.52	4.13	0.48	0	
1.06	0.76	4.35	0.24	0	
9.02	0.22	4.74	0.78	0.01	
9.01	0.48	5.23	0.52	0.01	
9.02	0.72	5.29	0.28	0	
