Adsorption isotherm of Carbon Dioxide, Nitrogen, Methane on Zeolite 13X
DOI: 10.1007/s10450-018-9952-3
Article source: Table 6
Adsorbate Carbon Dioxide: InChIKey CURLTUGMZLYLDI-UHFFFAOYSA-N
Adsorbate Nitrogen: InChIKey IJGRMHOSHXDMSA-UHFFFAOYSA-N
Adsorbate Methane: InChIKey VNWKTOKETHGBQD-UHFFFAOYSA-N
Kind: experiment
Temperature: 303 K
Tabular data in the source: 0
pressure (bar)	Carbon Dioxide fraction	Carbon Dioxide uptake (mmol/g)	Nitrogen fraction	Nitrogen uptake (mmol/g)	Methane fraction	Methane uptake (mmol/g)	total uptake (mmol/g)
1.12	0.4	3.33	0.3	0.01	0.3	0.04	
1.07	0.57	3.9	0.19	0.01	0.24	0.03	
1.07	0.77	4.44	0.1	0.01	0.13	0.03	
5.04	0.36	4.13	0.29	0.05	0.35	0.09	
5.05	0.57	4.41	0.19	0.04	0.24	0.1	
5.04	0.78	4.68	0.09	0.03	0.14	0.07	
9.02	0.35	4.3	0.27	0.06	0.37	0.13	
9	0.55	4.72	0.18	0.04	0.27	0.13	
9.01	0.76	5.34	0.08	0.03	0.15	0.11	
