Adsorption isotherm of Nitrogen on Zeolite 13X
DOI: 10.1007/s10450-018-9952-3
Article source: Figure 2a
Adsorbate Nitrogen: InChIKey IJGRMHOSHXDMSA-UHFFFAOYSA-N
Kind: experiment
Temperature: 273 K
Tabular data in the source: 0
pressure (bar)	uptake (mmol/g)
0.270075	0.141122
0.524757	0.286198
0.79587	0.411264
1.0752	0.546335
2.03642	0.8615
3.02229	1.14165
5.02688	1.54186
7.02326	1.817
9.01964	2.04712
