Adsorption isotherm of Carbon Dioxide, Nitrogen, Methane on Zeolite 13X
DOI: 10.1007/s10450-018-9952-3
Article source: Table 6
Adsorbate Carbon Dioxide: InChIKey CURLTUGMZLYLDI-UHFFFAOYSA-N
Adsorbate Nitrogen: InChIKey IJGRMHOSHXDMSA-UHFFFAOYSA-N
Adsorbate Methane: InChIKey VNWKTOKETHGBQD-UHFFFAOYSA-N
Kind: experiment
Temperature: 273 K
Tabular data in the source: 0
pressure (bar)	Carbon Dioxide fraction	Carbon Dioxide uptake (mmol/g)	Nitrogen fraction	Nitrogen uptake (mmol/g)	Methane fraction	Methane uptake (mmol/g)	total uptake (mmol/g)
1.07	0.39	4.69	0.29	0.01	0.32	0.06	
1.06	0.58	4.89	0.2	0.01	0.22	0.05	
1.07	0.8	4.97	0.09	0	0.11	0.03	
5.04	0.36	5.12	0.29	0.01	0.35	0.15	
5.03	0.56	5.39	0.19	0.01	0.25	0.11	
5.03	0.76	5.52	0.09	0.01	0.15	0.07	
9.02	0.35	5.25	0.28	0.02	0.37	0.16	
9.03	0.55	5.66	0.18	0.02	0.27	0.13	
9.02	0.75	5.88	0.08	0.01	0.17	0.09	
