Adsorption isotherm of Nitrogen on CAMA gel
DOI: 10.1039/c5ce01001b
Article source: Figure 7
Adsorbate Nitrogen: InChIKey IJGRMHOSHXDMSA-UHFFFAOYSA-N
Kind: experiment
Temperature: 77 K
Tabular data in the source: 0
pressure (bar)	uptake (cm3(STP)/g)
0.004338	4.62206
0.006508	6.16386
0.010846	9.24746
0.023861	7.72902
0.049891	9.30753
0.05423	9.3142
0.073753	10.8827
0.097614	12.4579
0.104121	12.4679
0.123644	12.4979
0.125813	10.9628
0.147505	14.0731
0.151844	14.0798
0.169197	15.6449
0.175705	15.6549
0.199566	15.6916
0.201735	15.695
0.223427	17.2668
0.227766	17.2735
0.247289	18.842
0.251627	18.8487
0.273319	18.882
0.277657	18.8887
0.295011	20.4539
0.301518	20.4639
0.32538	22.039
0.347072	22.0724
0.353579	22.0824
0.373102	23.6509
0.37961	22.1225
0.396963	25.2261
0.401302	25.2328
0.422993	25.2661
0.427332	25.2728
0.449024	26.8447
0.451193	26.848
0.472885	26.8814
0.477223	25.3496
0.498915	28.4599
0.520607	31.5702
0.527115	28.5033
0.548807	33.152
0.550976	30.0784
0.572668	33.1887
0.579176	28.5833
0.596529	34.7639
0.62256	34.8039
0.624729	33.2688
0.646421	36.3791
0.650759	34.8473
0.670282	37.9543
0.678959	34.8907
0.696312	39.5328
0.700651	34.9241
0.722343	41.1113
0.748373	42.6898
0.750542	39.6162
0.772234	44.265
0.776573	42.7332
0.798265	45.8435
0.800434	42.7699
0.824295	47.422
0.828633	41.2748
0.848156	50.5356
0.852495	52.0808
0.874187	52.1141
0.878525	55.1977
0.895879	61.3783
0.898048	56.7662
0.926247	73.7327
0.947939	98.3814
0.950108	64.5386
0.976139	116.886
0.991323	524.602
