Adsorption isotherm of Methane on WV-1050
DOI: 10.1007/s10450-021-00330-y
Article source: Figure S1
Adsorbate Methane: InChIKey VNWKTOKETHGBQD-UHFFFAOYSA-N
Kind: experiment
Isotherm type: excess
Temperature: 298 K
Tabular data in the source: 0
pressure (bar)	uptake (mmol/g)
0.24735	0
3.52473	1.48084
5.19435	2.02091
7.48233	2.56098
10.265	3.17073
15.4594	3.98955
20.9011	4.65157
25.477	5.08711
30.2385	5.52265
35.3092	5.8885
40.318	6.1324
46.4399	6.39373
50.8922	6.5331
59.8587	6.6899
