Adsorption isotherm of Ethane on WV-1050
DOI: 10.1007/s10450-021-00330-y
Article source: Figure S1
Adsorbate Ethane: InChIKey OTMSDBZUPAUEDD-UHFFFAOYSA-N
Kind: experiment
Isotherm type: excess
Temperature: 298 K
Tabular data in the source: 0
pressure (bar)	uptake (mmol/g)
0.24735	0.2439
0.37102	1.23693
0.74205	2.35192
1.73145	3.83275
3.77208	5.55749
5.19435	6.34146
7.42049	7.38676
10.5124	8.29268
13.1714	8.98955
15.1502	9.40767
17.1908	9.7561
20.159	10.1916
25.2297	10.6969
30.2385	10.9408
