Adsorption isotherm of N-propane on WV-1050
DOI: 10.1007/s10450-021-00330-y
Article source: Figure S1
Adsorbate N-propane: InChIKey ATUOYWHBWRKTHZ-UHFFFAOYSA-N
Kind: experiment
Isotherm type: excess
Temperature: 298 K
Tabular data in the source: 0
pressure (bar)	uptake (mmol/g)
0.06742	0
0.07303	0.74492
0.13483	1.42212
0.19101	2.23476
0.26404	2.74266
0.40449	3.41986
0.46629	3.80926
0.69663	4.53725
0.78652	4.80813
0.98876	5.38375
1.1573	5.68849
1.30337	5.92551
1.51685	6.23025
1.69663	6.51806
1.91011	6.80587
2.11236	7.04289
2.32022	7.21219
2.5618	7.51693
2.80899	7.75395
3.07865	7.99097
3.33146	8.1772
3.67978	8.49887
3.8764	8.66817
4.05618	8.70203
4.26966	8.90519
4.35955	8.97291
4.58427	9.07449
4.8764	9.27765
5.16854	9.44695
