Adsorption isotherm of Methane on MAXSORB
DOI: 10.1007/s10450-021-00330-y
Article source: Figure S1
Adsorbate Methane: InChIKey VNWKTOKETHGBQD-UHFFFAOYSA-N
Kind: experiment
Isotherm type: excess
Temperature: 298 K
Tabular data in the source: 0
pressure (bar)	uptake (mmol/g)
0	0.0464
2.29001	2.29698
5.13705	3.89791
7.73652	5.24362
11.6357	6.68213
17.0203	8.21346
22.0336	9.25754
27.4182	10.116
32.3696	10.9049
38.0018	11.3225
43.1388	11.9025
48.3997	12.297
