Adsorption isotherm of Methane on NORIT R1
DOI: 10.1007/s10450-021-00330-y
Article source: Figure S1
Adsorbate Methane: InChIKey VNWKTOKETHGBQD-UHFFFAOYSA-N
Kind: experiment
Isotherm type: excess
Temperature: 298 K
Tabular data in the source: 0
pressure (bar)	uptake (mmol/g)
0.12704	0.1907
0.25408	0.52443
0.50817	0.76281
0.76225	1.09654
4.82759	2.86055
9.52813	3.95709
19.8185	5.12515
26.9328	5.62574
39.3194	6.1025
49.1651	6.24553
57.6769	6.36472
