Adsorption isotherm of N-Butane on WV-1050
DOI: 10.1007/s10450-021-00330-y
Article source: Figure S1
Adsorbate N-Butane: InChIKey IJDNQMDRQITEOD-UHFFFAOYSA-N
Kind: experiment
Isotherm type: excess
Temperature: 298 K
Tabular data in the source: 0
pressure (bar)	uptake (mmol/g)
0.01124	0.94808
0.05618	2.50564
0.09551	3.41986
0.15169	4.23251
0.21348	4.70655
0.28652	5.19752
0.35955	5.72235
0.4382	6.02709
0.49438	6.33183
0.61798	6.77201
0.74157	7.17833
0.8427	7.38149
0.93258	7.68623
1.01124	7.88939
1.14607	8.16027
1.2191	8.32957
