Adsorption isotherm of Nitrogen on UiO-66
DOI: 10.1038/srep16613
Article source: Figure 2b- nitrogen
Adsorbate Nitrogen: InChIKey IJGRMHOSHXDMSA-UHFFFAOYSA-N
Kind: experiment
Temperature: 77 K
Tabular data in the source: 0
pressure (bar)	uptake (cm3(STP)/g)
0.000284	19.043
0.000294	29.182
0.000294	38.687
0.000294	48.319
0.000304	58.078
0.000314	96.48
0.000324	99.141
0.000324	119.737
0.000537	9.474
0.000557	9.795
0.000567	12.931
0.000567	87.038
0.000578	89.834
0.000831	123.729
0.004367	126.58
0.007154	128.671
0.010183	131.776
0.022312	134.944
0.035697	134.437
0.045799	136.654
0.060957	136.084
0.072072	136.653
0.079652	138.047
0.09405	137.666
0.104659	139.124
0.139018	140.453
0.15215	139.375
0.184482	141.719
0.204433	140.957
0.235256	142.73
0.253951	142.033
0.285777	143.806
0.304968	143.235
0.335791	145.008
0.354992	144.373
0.387578	145.83
0.406009	145.258
0.438595	146.841
0.457796	146.334
0.489369	148.107
0.507557	147.156
0.540143	148.929
0.556821	148.231
0.589408	150.067
0.606582	149.37
0.640678	151.269
0.657863	150.191
0.691705	152.345
0.708637	151.583
0.742733	153.547
0.759157	152.849
0.793506	154.812
0.810428	154.241
0.845294	156.521
0.860442	156.203
0.90086	158.863
0.911722	158.483
0.936729	160.129
0.96124	162.41
0.963256	164.247
0.985487	167.542
1.00293	176.856
1.00773	183.446
