Adsorption isotherm of Nitrogen on Fe-BTC
DOI: 10.3390/Ma7128037
Adsorbate Nitrogen: InChIKey IJGRMHOSHXDMSA-UHFFFAOYSA-N
Temperature: 77 K
Tabular data in the source: 0
pressure (bar)	uptake (cm3(STP)/g)
0.00667621	152.475
0.0290913	178.878
0.0448009	199.505
0.0648807	212.706
0.0738116	219.307
0.0871567	223.432
0.0960729	228.383
0.107193	231.683
0.118319	235.809
0.127228	239.934
0.133912	243.234
0.156151	249.835
0.193946	259.736
0.207284	263.036
0.222863	268.812
0.238403	270.462
0.253967	274.587
0.282853	280.363
0.305063	283.663
0.327288	288.614
0.338393	290.264
0.371715	296.04
0.387279	300.165
0.402827	302.64
0.429488	307.591
0.447255	310.066
0.460578	311.716
0.478352	315.017
0.4939	317.492
0.507224	319.142
0.522779	322.442
0.536102	324.092
0.553876	327.393
0.569425	329.868
0.57832	332.343
0.596094	335.644
0.607198	337.294
0.622739	338.944
0.64052	343.069
0.656062	344.719
0.667174	347.195
0.682715	348.845
0.698249	349.67
0.71379	351.32
0.729339	353.795
0.747106	356.271
0.760421	357.096
0.780392	357.921
0.802579	358.746
0.829219	361.221
0.849189	362.046
0.866941	362.871
0.884692	363.696
0.902437	363.696
0.926844	364.521
0.955686	365.347
