Adsorption isotherm of Nitrogen on Fe-BTC
DOI: 10.3390/Ma7128037
Adsorbate Nitrogen: InChIKey IJGRMHOSHXDMSA-UHFFFAOYSA-N
Temperature: 77 K
Tabular data in the source: 0
pressure (bar)	uptake (cm3(STP)/g)
0.0201091	166.502
0.0290913	178.878
0.0380661	190.429
0.0448009	199.505
0.0581973	209.406
0.0648807	212.706
0.0738116	219.307
0.0871567	223.432
0.0960729	228.383
0.107193	231.683
0.118319	235.809
0.127228	239.934
0.133912	243.234
0.151679	245.71
0.156151	249.835
0.162813	250.66
0.178376	254.785
0.193946	259.736
0.207284	263.036
0.222863	268.812
0.238403	270.462
0.253967	274.587
0.282853	280.363
0.305063	283.663
0.327288	288.614
0.338393	290.264
0.371715	296.04
0.387279	300.165
0.402827	302.64
0.427292	310.066
0.442906	319.967
0.458609	339.769
0.46535	349.67
0.483103	350.495
0.496448	354.62
0.509757	354.62
0.520846	354.62
0.529719	354.62
0.56078	355.446
0.580749	356.271
0.600712	356.271
0.625126	357.921
0.645096	358.746
0.673939	359.571
0.700555	359.571
0.72718	360.396
0.749361	360.396
0.767105	360.396
0.784849	360.396
0.807038	361.221
0.833662	362.046
0.862512	363.696
0.878046	364.521
0.915746	363.696
0.940159	365.347
0.966791	366.997
