Adsorption isotherm of Nitrogen on 2,3-DhaTta
DOI: 10.1002/anie.201600087
Article source: Figure S13
Adsorbate Nitrogen: InChIKey IJGRMHOSHXDMSA-UHFFFAOYSA-N
Kind: experiment
Temperature: 77 K
Tabular data in the source: 0
pressure (bar)	uptake (cm3(STP)/g)
0.002573	15.9574
0.002573	35.1064
0.002573	51.0638
0.002573	67.0213
0	114.894
0.002573	137.234
0.002573	159.574
0.005147	175.532
0.00772	191.489
0.028307	242.553
0.205867	443.617
0.236747	552.128
0.249613	577.66
0.280493	596.809
0.306227	606.383
0.334533	628.723
0.360267	638.298
0.388573	638.298
0.406587	644.681
0.434893	654.255
0.460627	657.447
0.483787	654.255
0.512093	660.638
0.537827	663.83
0.560987	670.213
0.589293	670.213
0.612453	679.787
0.643333	682.979
0.66392	686.17
0.68708	692.553
0.712813	698.936
0.74112	698.936
0.761707	702.128
0.78744	711.702
0.813173	718.085
0.838907	724.468
0.862067	730.851
0.8878	740.426
0.916107	751.596
0.936693	772.34
0.965	796.277
0.966287	850.532
0.939267	804.255
0.91096	781.915
0.890373	765.957
0.862067	756.383
0.84148	743.617
0.813173	737.234
0.784867	730.851
0.766853	727.66
0.735973	714.894
0.712813	711.702
0.68708	708.511
0.658773	705.319
0.63304	698.936
0.60988	698.936
0.58672	689.362
0.56356	689.362
0.535253	682.979
0.506947	673.404
0.481213	670.213
0.458053	663.83
0.427173	654.255
0.406587	654.255
0.383427	647.872
0.357693	638.298
0.326813	635.106
0.303653	619.149
0.27792	600
0.249613	580.851
0.234173	558.511
0.17756	402.128
0.156973	376.596
0.126093	351.064
0.102933	315.957
0.072053	284.043
0.048893	264.894
0.028307	220.213
