Adsorption isotherm of Nitrogen on 2,3-DhaTtab
DOI: 10.1002/anie.201600087
Article source: Figure S13
Adsorbate Nitrogen: InChIKey IJGRMHOSHXDMSA-UHFFFAOYSA-N
Kind: experiment
Temperature: 77 K
Tabular data in the source: 0
pressure (bar)	uptake (cm3(STP)/g)
0	12.766
0.00772	25.5319
0.051467	31.9149
0.0772	38.2979
0.101647	44.6809
0.126093	46.2766
0.151827	49.4681
0.17756	55.8511
0.20458	57.4468
0.226453	65.4255
0.253473	73.4043
0.27792	78.1915
0.302367	79.7872
0.357693	82.9787
0.404013	86.1702
0.45934	89.3617
0.506947	89.3617
0.558413	92.5532
0.60988	95.7447
0.658773	102.128
0.71024	103.723
0.761707	108.511
0.811887	111.702
0.862067	118.085
0.912247	124.468
0.963713	146.809
0.963713	165.957
0.91482	137.234
0.86464	124.468
0.8106	121.277
0.76428	114.894
0.71024	108.511
0.661347	108.511
0.60988	105.319
0.558413	103.723
0.506947	98.9362
0.458053	95.7447
0.4053	90.9574
0.35512	87.766
0.306227	81.383
0.25476	78.1915
0.2316	70.2128
0.20072	63.8298
0.1544	54.2553
0.10036	51.0638
0.051467	36.7021
