Adsorption isotherm of Carbon Dioxide on NUS-2
DOI: 10.1021/acs.chemmater.5b02902
Article source: Figure 4C
Adsorbate Carbon Dioxide: InChIKey CURLTUGMZLYLDI-UHFFFAOYSA-N
Kind: experiment
Temperature: 273 K
Tabular data in the source: 0
pressure (bar)	uptake (mmol/g)
0.013249	0.206941
0.013249	0.323907
0.024291	0.512853
0.039748	0.66581
0.055206	0.800771
0.066247	0.917738
0.08833	1.0617
0.097162	1.15167
0.105995	1.25064
0.11262	1.29563
0.141327	1.42159
0.145744	1.48458
0.161201	1.58355
0.167826	1.62854
0.185492	1.69152
0.1877	1.7455
0.196533	1.77249
0.216407	1.81748
0.227449	1.86247
0.240698	1.90745
0.256156	1.97044
0.258364	2.01542
0.271613	2.04242
0.287071	2.06941
0.298112	2.1144
0.311362	2.16838
0.322403	2.18637
0.331236	2.22236
0.340069	2.24936
0.344485	2.28535
0.357735	2.30334
0.379817	2.36632
0.368776	2.34833
0.38865	2.38432
0.399691	2.41131
0.406316	2.4383
0.415149	2.4563
0.423982	2.48329
0.435023	2.51028
0.441648	2.51928
0.452689	2.57327
0.46373	2.58226
0.470355	2.58226
0.490229	2.67224
0.483604	2.62725
0.50127	2.68123
0.516728	2.70823
0.523352	2.74422
0.534394	2.76221
0.552059	2.76221
0.558684	2.78021
0.569725	2.8072
0.580767	2.82519
0.587391	2.83419
0.598432	2.86118
0.611682	2.88818
0.620515	2.89717
0.644805	2.92417
0.635973	2.92417
0.658055	2.96015
0.669096	2.99614
0.675721	2.99614
0.680137	2.99614
0.68897	3.00514
0.695595	3.01414
0.733135	3.05013
0.744176	3.07712
0.779508	3.12211
0.783924	3.1491
0.80159	3.1491
0.810423	3.1581
0.821465	3.18509
0.834714	3.18509
0.843547	3.20308
0.856796	3.21208
0.863421	3.22108
0.874462	3.22108
0.894336	3.24807
0.907586	3.27506
0.92746	3.27506
0.942918	3.28406
0.951751	3.31105
0.960584	3.32905
0.973833	3.32005
0.984874	3.34704
1.00254	3.34704
1.01358	3.34704
1.03346	3.38303
1.05995	3.40103
1.05112	3.36504
0.713261	3.04113
0.757426	3.12211
0.761842	3.1401
0.013249	0.413882
0.028707	0.62982
0.03754	0.791774
0.052998	0.953728
0.070664	1.09769
0.081705	1.21465
0.097162	1.29563
0.110412	1.4036
0.119245	1.46658
0.134703	1.56555
0.147952	1.62854
0.15016	1.7455
0.170034	1.79049
0.185492	1.86247
0.203158	1.88946
0.214199	1.97044
0.22524	2.06041
0.23849	2.0874
0.253947	2.15938
0.271613	2.19537
0.280446	2.23136
0.298112	2.29434
0.306945	2.32134
0.322403	2.38432
0.329027	2.4383
0.348902	2.47429
0.359943	2.49229
0.364359	2.50129
0.379817	2.55527
0.397483	2.59126
0.406316	2.62725
0.423982	2.66324
0.437231	2.69923
0.454897	2.71722
0.472563	2.75321
0.485812	2.7892
0.492437	2.82519
0.503478	2.83419
0.521144	2.86118
0.53881	2.88818
0.547643	2.90617
0.563101	2.93316
0.578558	2.97815
0.5896	2.97815
0.602849	2.99614
0.611682	3.02314
0.633764	3.05013
0.644805	3.05913
0.653638	3.07712
0.666888	3.10411
0.682346	3.12211
0.695595	3.12211
0.715469	3.1581
0.722094	3.1581
0.737551	3.17609
0.744176	3.19409
0.761842	3.20308
0.779508	3.23907
0.794966	3.25707
0.803799	3.27506
0.817048	3.28406
0.823673	3.29306
0.83913	3.31105
0.850172	3.31105
0.863421	3.34704
0.87667	3.34704
0.894336	3.34704
0.903169	3.35604
0.918627	3.36504
0.940709	3.38303
0.953959	3.37404
0.925252	3.36504
0.962792	3.40103
0.980458	3.40103
0.993707	3.41003
1.00917	3.41003
1.02021	3.41003
1.03566	3.42802
1.05112	3.43702
1.05995	3.44601
1.07541	3.44601
