Adsorption isotherm of Hydrogen on NUS-2
DOI: 10.1021/acs.chemmater.5b02902
Article source: Figure 4C
Adsorbate Hydrogen: InChIKey UFHFLCQGNIYNRP-UHFFFAOYSA-N
Kind: experiment
Temperature: 273 K
Tabular data in the source: 0
pressure (bar)	uptake (mmol/g)
0.011041	0.044987
0.028707	0.062982
0.03754	0.080977
0.057414	0.107969
0.070664	0.107969
0.086121	0.098972
0.114828	0.098972
0.099371	0.098972
0.123661	0.107969
0.136911	0.116967
0.152368	0.116967
0.16341	0.116967
0.181076	0.116967
0.20095	0.116967
0.211991	0.134961
0.227449	0.134961
0.247323	0.134961
0.260572	0.134961
0.27603	0.143959
0.278238	0.143959
0.291487	0.143959
0.311362	0.143959
0.324611	0.152956
0.33786	0.143959
0.342277	0.152956
0.359943	0.152956
0.370984	0.170951
0.382025	0.152956
0.397483	0.161954
0.404108	0.170951
0.410732	0.170951
0.428398	0.161954
0.446064	0.170951
0.448272	0.170951
0.465938	0.179949
0.452689	0.170951
0.479188	0.170951
0.496854	0.179949
0.483604	0.161954
0.505686	0.170951
0.512311	0.170951
0.518936	0.170951
0.532185	0.179949
0.547643	0.179949
0.552059	0.179949
0.560892	0.188946
0.571934	0.197943
0.587391	0.188946
0.602849	0.188946
0.622723	0.188946
0.629348	0.188946
0.655847	0.188946
0.642597	0.179949
0.673513	0.215938
0.693387	0.215938
0.717677	0.215938
0.735343	0.206941
0.704428	0.215938
0.753009	0.224936
0.76405	0.224936
0.779508	0.206941
0.799382	0.206941
0.812632	0.206941
0.830297	0.224936
0.843547	0.233933
0.863421	0.251928
0.878879	0.224936
0.909794	0.224936
0.925252	0.224936
0.894336	0.233933
0.942918	0.233933
0.962792	0.233933
0.980458	0.242931
0.987082	0.233933
1.00475	0.242931
1.01579	0.233933
1.02683	0.233933
1.03787	0.233933
1.05333	0.224936
1.06658	0.233933
1.06437	0.242931
1.04671	0.251928
1.03346	0.251928
1.02021	0.251928
1.01358	0.251928
0.995915	0.251928
0.980458	0.260925
0.953959	0.251928
0.969416	0.251928
0.914211	0.251928
0.936293	0.224936
0.905378	0.224936
0.88992	0.242931
0.87667	0.224936
0.867838	0.224936
0.85238	0.224936
0.834714	0.233933
0.817048	0.233933
0.803799	0.233933
0.783924	0.224936
0.794966	0.233933
0.772883	0.233933
0.761842	0.224936
0.753009	0.224936
0.73976	0.224936
0.72651	0.233933
0.713261	0.233933
0.706636	0.233933
0.693387	0.242931
0.677929	0.233933
0.66468	0.215938
0.65143	0.206941
0.644805	0.206941
0.638181	0.206941
0.624931	0.206941
0.618307	0.206941
0.611682	0.206941
0.596224	0.233933
0.578558	0.197943
0.5896	0.197943
0.569725	0.197943
0.554268	0.188946
0.541018	0.197943
0.534394	0.197943
0.523352	0.197943
0.512311	0.206941
0.50127	0.206941
0.485812	0.206941
0.492437	0.197943
0.472563	0.188946
0.461522	0.188946
0.92746	0.242931
0.013249	0.062982
0.024291	0.107969
0.039748	0.107969
0.050789	0.107969
0.061831	0.116967
0.077288	0.116967
0.092746	0.125964
0.105995	0.125964
0.128078	0.134961
0.121453	0.134961
0.139119	0.134961
0.154577	0.152956
0.167826	0.125964
0.181076	0.116967
0.196533	0.134961
0.205366	0.134961
0.216407	0.152956
0.236281	0.161954
0.247323	0.143959
0.258364	0.143959
0.269405	0.143959
0.27603	0.152956
0.291487	0.161954
0.309153	0.170951
0.317986	0.179949
0.320195	0.179949
0.333444	0.170951
0.346693	0.179949
0.353318	0.179949
0.366568	0.179949
0.377609	0.179949
0.390858	0.197943
0.397483	0.206941
0.406316	0.206941
0.415149	0.197943
0.423982	0.197943
0.439439	0.197943
0.448272	0.197943
