Adsorption isotherm of Methane on NUS-3
DOI: 10.1021/acs.chemmater.5b02902
Article source: Figure 4C
Adsorbate Methane: InChIKey VNWKTOKETHGBQD-UHFFFAOYSA-N
Kind: experiment
Temperature: 273 K
Tabular data in the source: 0
pressure (bar)	uptake (mmol/g)
0.019874	0.044987
0.035332	0.044987
0.046373	0.080977
0.068455	0.089974
0.086121	0.116967
0.101579	0.107969
0.117037	0.107969
0.132494	0.107969
0.154577	0.107969
0.172243	0.116967
0.192117	0.116967
0.196533	0.116967
0.205366	0.116967
0.22524	0.134961
0.242906	0.152956
0.251739	0.152956
0.264989	0.161954
0.282654	0.179949
0.287071	0.179949
0.309153	0.179949
0.326819	0.179949
0.353318	0.179949
0.370984	0.179949
0.386442	0.188946
0.395275	0.188946
0.419565	0.215938
0.428398	0.197943
0.437231	0.188946
0.452689	0.224936
0.468146	0.215938
0.479188	0.215938
0.499062	0.197943
0.510103	0.215938
0.518936	0.215938
0.534394	0.224936
0.547643	0.224936
0.567517	0.224936
0.574142	0.233933
0.591808	0.224936
0.607265	0.233933
0.62714	0.260925
0.638181	0.260925
0.649222	0.287918
0.660263	0.287918
0.680137	0.296915
0.693387	0.296915
0.706636	0.296915
0.713261	0.31491
0.722094	0.31491
0.73976	0.31491
0.766259	0.305913
0.779508	0.305913
0.799382	0.31491
0.817048	0.323907
0.830297	0.332905
0.85238	0.332905
0.881087	0.323907
0.872254	0.323907
0.88992	0.332905
0.905378	0.341902
0.925252	0.341902
0.940709	0.359897
0.965	0.368895
0.978249	0.368895
0.991499	0.368895
1.01358	0.377892
1.02021	0.377892
1.03787	0.368895
1.05995	0.377892
1.07099	0.368895
0.015458	0.053985
0.03754	0.053985
0.064039	0.089974
0.083913	0.089974
0.099371	0.098972
0.119245	0.107969
0.141327	0.107969
0.165618	0.116967
0.181076	0.116967
0.205366	0.125964
0.231865	0.143959
0.245114	0.143959
0.264989	0.143959
0.291487	0.143959
0.280446	0.152956
0.302529	0.152956
0.326819	0.152956
0.333444	0.161954
0.348902	0.134961
0.359943	0.143959
0.373192	0.161954
0.397483	0.161954
0.386442	0.161954
0.408524	0.170951
0.428398	0.161954
0.443856	0.170951
0.454897	0.170951
0.465938	0.152956
0.483604	0.197943
0.496854	0.197943
0.512311	0.188946
0.516728	0.188946
0.527769	0.188946
0.547643	0.197943
0.560892	0.197943
0.571934	0.224936
0.585183	0.197943
0.600641	0.233933
0.607265	0.233933
0.62714	0.233933
0.640389	0.233933
0.655847	0.224936
0.671304	0.233933
0.677929	0.233933
0.697803	0.251928
0.717677	0.251928
0.735343	0.242931
0.748593	0.251928
0.757426	0.251928
0.770675	0.260925
0.783924	0.260925
0.799382	0.260925
0.81484	0.260925
0.830297	0.269923
0.841339	0.269923
0.859005	0.27892
0.863421	0.27892
0.885503	0.287918
0.898753	0.296915
0.907586	0.287918
0.923043	0.296915
0.936293	0.296915
0.951751	0.296915
0.965	0.296915
0.980458	0.305913
0.984874	0.305913
0.995915	0.296915
1.02021	0.296915
1.03125	0.296915
1.04229	0.296915
1.05775	0.323907
1.06879	0.332905
