Adsorption isotherm of Methane on NUS-2
DOI: 10.1021/acs.chemmater.5b02902
Article source: Figure 4C
Adsorbate Methane: InChIKey VNWKTOKETHGBQD-UHFFFAOYSA-N
Kind: experiment
Temperature: 273 K
Tabular data in the source: 0
pressure (bar)	uptake (mmol/g)
1.0732	0.872751
1.06437	0.881748
1.05554	0.881748
1.03125	0.881748
1.0445	0.881748
1.02462	0.845758
1.018	0.845758
1.00033	0.827763
0.995915	0.827763
0.991499	0.836761
0.971625	0.827763
0.958375	0.818766
0.947334	0.818766
0.929668	0.782776
0.909794	0.782776
0.896545	0.773779
0.881087	0.773779
0.865629	0.764781
0.859005	0.773779
0.841339	0.773779
0.828089	0.755784
0.812632	0.746787
0.806007	0.737789
0.794966	0.710797
0.7773	0.701799
0.748593	0.692802
0.76405	0.692802
0.728719	0.66581
0.715469	0.66581
0.70222	0.638817
0.695595	0.647815
0.680137	0.638817
0.649222	0.62982
0.666888	0.647815
0.633764	0.611825
0.62714	0.611825
0.61389	0.59383
0.605057	0.584833
0.594016	0.584833
0.587391	0.566838
0.574142	0.566838
0.554268	0.548843
0.536602	0.548843
0.516728	0.539846
0.50127	0.530848
0.481396	0.512853
0.494645	0.521851
0.470355	0.485861
0.454897	0.476864
0.430606	0.458869
0.441648	0.476864
0.415149	0.449871
0.401899	0.440874
0.390858	0.422879
0.373192	0.386889
0.359943	0.377892
0.344485	0.368895
0.335652	0.359897
0.317986	0.332905
0.306945	0.323907
0.298112	0.31491
0.278238	0.305913
0.253947	0.27892
0.240698	0.27892
0.22524	0.260925
0.211991	0.251928
0.196533	0.233933
0.181076	0.206941
0.165618	0.206941
0.152368	0.170951
0.139119	0.161954
0.121453	0.134961
0.130286	0.143959
0.105995	0.107969
0.086121	0.071979
0.099371	0.089974
0.077288	0.026992
0.090538	0.062982
0.013249	0.026992
0.028707	0.071979
0.044165	0.089974
0.061831	0.125964
0.077288	0.134961
0.090538	0.179949
0.110412	0.188946
0.121453	0.206941
0.141327	0.233933
0.134703	0.206941
0.165618	0.251928
0.170034	0.260925
0.1877	0.269923
0.203158	0.296915
0.214199	0.305913
0.231865	0.323907
0.236281	0.323907
0.256156	0.332905
0.267197	0.377892
0.282654	0.368895
0.293696	0.395887
0.309153	0.395887
0.324611	0.422879
0.333444	0.431877
0.346693	0.431877
0.359943	0.440874
0.38865	0.467866
0.370984	0.467866
0.399691	0.494859
0.417357	0.503856
0.428398	0.512853
0.441648	0.530848
0.454897	0.548843
0.474771	0.548843
0.479188	0.557841
0.494645	0.575835
0.514519	0.566838
0.525561	0.59383
0.532185	0.602828
0.541018	0.59383
0.565309	0.611825
0.57635	0.602828
0.5896	0.62982
0.602849	0.638817
0.61389	0.638817
0.629348	0.66581
0.638181	0.683805
0.658055	0.692802
0.669096	0.692802
0.680137	0.692802
0.697803	0.692802
0.715469	0.719794
0.72651	0.719794
0.73976	0.755784
0.748593	0.737789
0.759634	0.737789
0.7773	0.755784
0.794966	0.755784
0.806007	0.764781
0.823673	0.773779
0.819256	0.773779
0.841339	0.791774
0.861213	0.800771
0.867838	0.800771
0.883295	0.827763
0.88992	0.818766
0.916419	0.827763
0.925252	0.836761
0.934085	0.836761
0.945126	0.854756
0.958375	0.872751
0.971625	0.845758
0.995915	0.863753
1.018	0.872751
1.03125	0.863753
1.04891	0.872751
1.06216	0.890746
1.07099	0.890746
