Adsorption isotherm of Nitrogen on NUS-2
DOI: 10.1021/acs.chemmater.5b02902
Article source: Figure 4A
Adsorbate Nitrogen: InChIKey IJGRMHOSHXDMSA-UHFFFAOYSA-N
Kind: experiment
Temperature: 77 K
Tabular data in the source: 0
pressure (bar)	uptake (cm3(STP)/g)
0.002124	8.15217
0	22.0109
0.002124	30.9783
-0.004248	39.9457
0	48.913
0.002124	58.6957
0.002124	64.4022
0.002124	69.2935
0.992008	204.62
0.983511	197.283
0.97289	188.315
0.962269	184.239
0.949524	177.717
0.934654	172.826
0.921909	172.011
0.907039	167.12
0.894294	164.674
0.879425	159.783
0.864555	158.967
0.85181	158.152
0.83694	154.891
0.819947	151.63
0.800829	151.63
0.785959	150.815
0.775338	146.739
0.760469	146.739
0.741351	144.293
0.724357	141.033
0.667003	141.033
0.705239	143.478
0.688245	140.217
0.658506	140.217
0.647885	140.217
0.633016	137.772
0.616022	137.772
0.603277	136.141
0.592656	132.88
0.575662	133.696
0.562917	133.696
0.548047	132.065
0.535302	132.065
0.520432	131.25
0.509811	128.804
0.501314	128.804
0.482197	129.62
0.467327	127.989
0.448209	127.174
0.424843	125.543
0.43334	127.174
0.405725	123.913
0.395104	124.728
0.386607	123.913
0.365365	123.913
0.352619	122.283
0.335626	123.098
0.325005	121.467
0.310135	120.652
0.293142	120.652
0.284645	119.837
0.276148	119.837
0.263403	119.022
0.240036	118.207
0.248533	118.207
0.223042	114.946
0.203925	115.761
0.214546	113.315
0.189055	113.315
0.17631	111.685
0.157192	110.87
0.138074	108.424
0.123204	108.424
0.112583	108.424
0.09559	105.163
0.084969	105.163
0.070099	103.533
0.05523	102.717
0.042484	99.4565
0.029739	96.1956
0.019118	92.9348
0.004248	88.0435
0.004248	83.1522
0	76.6304
0.008497	102.717
0.021242	106.793
0.029739	109.239
0.04036	113.315
0.048857	115.761
0.061602	115.761
0.074347	115.761
0.084969	117.391
0.09559	117.391
0.104086	118.207
0.112583	118.207
0.118956	119.837
0.133825	121.467
0.142322	122.283
0.144447	122.283
0.16144	122.283
0.155068	120.652
0.172061	120.652
0.178434	121.467
0.191179	122.283
0.206049	123.098
0.208173	123.098
0.218794	123.098
0.229415	123.913
0.244285	123.913
0.254906	123.913
0.261278	124.728
0.274024	126.359
0.284645	127.174
0.299514	128.804
0.314384	127.989
0.318632	130.435
0.331377	130.435
0.339874	131.25
0.352619	131.25
0.367489	129.62
0.380234	130.435
0.388731	132.88
0.397228	133.696
0.405725	132.065
0.414222	132.065
0.426967	132.88
0.437588	133.696
0.443961	133.696
0.45883	135.326
0.467327	136.957
0.471575	142.663
0.486445	143.478
0.501314	145.109
0.51406	145.109
0.520432	145.109
0.531053	146.739
0.53955	146.739
0.548047	146.739
0.558668	147.554
0.571414	147.554
0.584159	147.554
0.584159	147.554
0.599028	150
0.611774	150
0.62027	150
0.633016	151.63
0.645761	152.446
0.654258	153.261
0.667003	154.076
0.677624	154.076
0.688245	154.076
0.700991	154.076
0.700991	154.891
0.717984	157.337
0.722233	158.967
0.724357	158.967
0.734978	158.152
0.749847	160.598
0.762593	160.598
0.775338	162.228
0.785959	163.859
0.794456	165.489
0.805077	166.304
0.81145	167.12
0.822071	167.935
0.826319	169.565
0.834816	170.38
0.841189	173.641
0.849686	174.457
0.875176	177.717
0.868803	176.902
0.868803	180.163
0.879425	184.239
0.896418	186.685
0.907039	190.761
0.913412	194.022
0.919785	200.543
0.934654	205.435
0.941027	206.25
0.955896	211.957
0.960145	216.848
0.977138	220.924
0.989884	220.924
0.994132	217.663
0.998381	213.587
