Adsorption isotherm of Methane on NUS-3
DOI: 10.1021/acs.chemmater.5b02902
Article source: Figure 4C
Adsorbate Methane: InChIKey VNWKTOKETHGBQD-UHFFFAOYSA-N
Kind: experiment
Temperature: 273 K
Tabular data in the source: 0
pressure (bar)	uptake (mmol/g)
0.017666	-0.008997
0.026499	-0.008997
0.044165	-0.008997
0.052998	-0.008997
0.066247	-0.008997
0.083913	0
0.097162	0
0.11262	0
0.123661	-0.008997
0.139119	0
0.152368	0.008997
0.158993	0.008997
0.174451	0.008997
0.189908	0.026992
0.196533	0.026992
0.209783	0.03599
0.22524	0.03599
0.240698	0.044987
0.251739	0.03599
0.269405	0.03599
0.273822	0.053985
0.280446	0.053985
0.295904	0.044987
0.317986	0.044987
0.31357	0.044987
0.329027	0.062982
0.342277	0.053985
0.366568	0.044987
0.362151	0.053985
0.384233	0.062982
0.393066	0.080977
0.408524	0.080977
0.421773	0.089974
0.437231	0.071979
0.446064	0.080977
0.461522	0.098972
0.479188	0.080977
0.488021	0.089974
0.499062	0.089974
0.512311	0.089974
0.527769	0.089974
0.536602	0.089974
0.547643	0.062982
0.565309	0.089974
0.582975	0.107969
0.591808	0.107969
0.607265	0.107969
0.616098	0.107969
0.635973	0.107969
0.638181	0.107969
0.653638	0.116967
0.675721	0.107969
0.691178	0.107969
0.706636	0.125964
0.713261	0.125964
0.728719	0.125964
0.741968	0.134961
0.755217	0.143959
0.775092	0.125964
0.783924	0.134961
0.803799	0.134961
0.817048	0.125964
0.828089	0.143959
0.83913	0.161954
0.856796	0.143959
0.867838	0.143959
0.881087	0.143959
0.898753	0.152956
0.903169	0.152956
0.923043	0.161954
0.945126	0.170951
0.962792	0.170951
0.973833	0.161954
0.989291	0.161954
1.00917	0.161954
1.02241	0.170951
1.03346	0.179949
1.04891	0.170951
1.06216	0.161954
0.008833	0.017995
0.028707	0.03599
0.03754	0.03599
0.046373	0.053985
0.064039	0.044987
0.072872	0.044987
0.092746	0.053985
0.108204	0.03599
0.121453	0.053985
0.134703	0.053985
0.15016	0.080977
0.152368	0.062982
0.167826	0.062982
0.185492	0.089974
0.198741	0.080977
0.211991	0.080977
0.229657	0.080977
0.251739	0.080977
0.269405	0.098972
0.27603	0.080977
0.287071	0.080977
0.304737	0.080977
0.322403	0.080977
0.329027	0.080977
0.346693	0.089974
0.357735	0.098972
0.364359	0.098972
0.382025	0.080977
0.397483	0.080977
0.417357	0.107969
0.423982	0.107969
0.437231	0.098972
0.454897	0.107969
0.468146	0.107969
0.485812	0.107969
0.499062	0.116967
0.507895	0.116967
0.523352	0.116967
0.532185	0.116967
0.53881	0.116967
0.556476	0.134961
0.565309	0.134961
0.582975	0.134961
0.594016	0.116967
0.607265	0.134961
0.611682	0.134961
0.629348	0.143959
0.638181	0.116967
0.662471	0.125964
0.653638	0.125964
0.684554	0.116967
0.671304	0.116967
0.70222	0.125964
0.719886	0.125964
0.715469	0.125964
0.733135	0.125964
0.755217	0.134961
0.76405	0.152956
0.7773	0.143959
0.788341	0.152956
0.797174	0.143959
0.812632	0.125964
0.830297	0.134961
0.843547	0.134961
0.856796	0.161954
0.874462	0.143959
0.894336	0.161954
0.909794	0.161954
0.916419	0.161954
0.929668	0.161954
0.949542	0.161954
0.967208	0.161954
0.980458	0.161954
0.993707	0.161954
1.00696	0.161954
1.02462	0.143959
1.03566	0.152956
1.05112	0.152956
1.06658	0.170951
1.07983	0.152956
