Adsorption isotherm of Nitrogen on NUS-3
DOI: 10.1021/acs.chemmater.5b02902
Article source: Figure 4A
Adsorbate Nitrogen: InChIKey IJGRMHOSHXDMSA-UHFFFAOYSA-N
Kind: experiment
Temperature: 77 K
Tabular data in the source: 0
pressure (bar)	uptake (cm3(STP)/g)
0.002124	9.78261
-0.004248	22.0109
-0.002124	28.5326
0	39.1304
0	48.913
-0.004248	55.4348
-0.004248	64.4022
-0.004248	72.5544
-0.002124	78.2609
-0.004248	85.5978
-0.002124	96.1956
0.002124	105.163
0.008497	111.685
0.019118	125.543
0.031863	139.402
0.04036	146.739
0.053105	154.076
0.061602	163.859
0.067975	167.935
0.074347	176.087
0.091341	180.978
0.099838	187.5
0.110459	193.207
0.123204	194.022
0.13595	198.098
0.142322	199.728
0.146571	202.174
0.165689	203.804
0.178434	205.435
0.186931	207.065
0.203925	210.326
0.214546	211.141
0.227291	211.957
0.237912	213.587
0.25703	213.587
0.274024	214.402
0.280396	216.848
0.291017	218.478
0.301638	218.478
0.320756	218.478
0.339874	219.293
0.356868	224.185
0.365365	224.185
0.380234	224.185
0.395104	225.815
0.416346	227.446
0.441836	229.891
0.431215	226.63
0.454582	230.707
0.467327	231.522
0.480072	230.707
0.497066	231.522
0.516184	232.337
0.531053	233.967
0.548047	234.783
0.562917	234.783
0.577786	237.228
0.582035	237.228
0.599028	238.859
0.607525	238.859
0.628767	240.489
0.641513	241.304
0.656382	240.489
0.669127	241.304
0.686121	242.12
0.700991	243.75
0.722233	246.196
0.737102	247.011
0.764717	250.272
0.751972	247.011
0.777462	248.641
0.792332	250.272
0.809325	252.717
0.824195	254.348
0.828443	255.163
0.845437	257.609
0.853934	257.609
0.868803	258.424
0.879425	260.87
0.887921	261.685
0.907039	264.946
0.91766	264.946
0.924033	265.761
0.945275	270.652
0.938903	268.207
0.962269	272.283
0.97289	274.728
0.981387	277.174
0.987759	280.435
0.994132	286.141
0.985635	286.957
0.012745	119.837
0.012745	123.913
0.014869	134.511
0.027615	146.739
0.036112	155.707
0.046733	163.859
0.063726	172.826
0.072223	180.163
0.074347	186.685
0.089217	194.837
0.09559	197.283
0.110459	201.359
0.118956	205.435
0.131701	207.88
0.144447	208.696
0.148695	212.772
0.159316	212.772
0.167813	216.033
0.167813	216.033
0.17631	217.663
0.184807	220.109
0.195428	218.478
0.199676	217.663
0.210297	220.109
0.210297	220.109
0.21667	220.924
0.229415	221.739
0.237912	223.37
0.244285	223.37
0.259154	226.63
0.271899	227.446
0.261278	224.185
0.286769	227.446
0.288893	227.446
0.29739	227.446
0.303763	227.446
0.314384	228.261
0.325005	229.076
0.335626	228.261
0.348371	229.076
0.358992	229.891
0.367489	232.337
0.380234	232.337
0.39298	233.152
0.401476	233.967
0.422719	236.413
0.414222	234.783
0.431215	237.228
0.43334	238.043
0.437588	238.043
0.450333	238.043
0.450333	238.043
0.460954	238.043
0.467327	238.043
0.475824	238.043
0.486445	238.859
0.497066	238.859
0.505563	238.859
0.520432	241.304
0.51406	240.489
0.537426	243.75
0.545923	243.75
0.522557	239.674
0.552296	243.75
0.565041	243.75
0.575662	244.565
0.584159	244.565
0.596904	246.196
0.601153	246.196
0.607525	246.196
0.618146	247.011
0.62027	247.826
0.628767	247.011
0.639388	247.011
0.652134	247.826
0.658506	250.272
0.669127	250.272
0.677624	250.272
0.686121	251.902
0.700991	251.902
0.709487	251.902
0.709487	251.902
0.722233	253.533
0.732854	255.978
0.739226	255.978
0.751972	256.793
0.766841	257.609
0.779586	259.239
0.788083	259.239
0.807201	260.87
0.798704	260.054
0.815698	262.5
0.828443	264.13
0.834816	269.022
0.843313	269.837
0.85181	271.467
0.83694	265.761
0.860307	273.098
0.870928	277.174
0.883673	277.174
0.900667	277.989
0.896418	277.989
0.904915	279.62
0.915536	284.511
0.919785	285.326
0.930406	288.587
0.934654	289.402
0.949524	291.848
0.970766	295.109
0.989884	296.739
