Adsorption isotherm of Methane on NUS-2
DOI: 10.1021/acs.chemmater.5b02902
Article source: Figure S10
Adsorbate Methane: InChIKey VNWKTOKETHGBQD-UHFFFAOYSA-N
Kind: experiment
Temperature: 298 K
Tabular data in the source: 0
pressure (bar)	uptake (mmol/g)
0.009252	0.048431
0.025772	0.048431
0.052206	0.052932
0.064321	0.070936
0.075335	0.084439
0.086348	0.084439
0.098464	0.08894
0.114984	0.08894
0.125998	0.102443
0.134809	0.102443
0.145823	0.102443
0.161242	0.097942
0.174459	0.102443
0.189878	0.115947
0.204196	0.124949
0.216312	0.138452
0.229528	0.142953
0.241643	0.142953
0.259265	0.151955
0.268077	0.156456
0.283496	0.165458
0.295611	0.201466
0.309929	0.201466
0.324247	0.196965
0.334159	0.214969
0.346275	0.21947
0.363897	0.21947
0.373809	0.228472
0.391431	0.232973
0.401344	0.250977
0.41456	0.259979
0.428878	0.259979
0.444298	0.26448
0.459717	0.268981
0.466325	0.286986
0.479542	0.286986
0.497164	0.300489
0.511482	0.322994
0.520293	0.322994
0.535713	0.322994
0.547828	0.318493
0.563247	0.336497
0.579768	0.336497
0.590782	0.35
0.600694	0.345499
0.616113	0.359002
0.62933	0.354501
0.640344	0.354501
0.655763	0.359002
0.666777	0.368004
0.681095	0.381507
0.696514	0.381507
0.713035	0.39501
0.719643	0.39501
0.738367	0.39501
0.748279	0.417515
0.765901	0.413014
0.779118	0.422016
0.791233	0.422016
0.803348	0.417515
0.818768	0.426517
0.834187	0.431019
0.842998	0.440021
0.858418	0.440021
0.869431	0.440021
0.883749	0.444522
0.898067	0.449023
0.91569	0.449023
0.923399	0.458025
0.935514	0.462526
0.952035	0.458025
0.959745	0.462526
0.976266	0.458025
0.993888	0.467027
1.006	0.462526
1.01481	0.462526
1.03354	0.467027
1.04455	0.471528
1.06217	0.485031
1.07209	0.494033
1.06217	0.48053
1.04675	0.489532
1.03354	0.489532
1.01702	0.489532
1.0038	0.489532
0.993888	0.489532
0.976266	0.494033
0.967455	0.48053
0.952035	0.485031
0.937717	0.476029
0.924501	0.476029
0.913487	0.471528
0.896966	0.467027
0.887054	0.462526
0.871634	0.458025
0.859519	0.449023
0.842998	0.458025
0.833086	0.458025
0.817666	0.458025
0.805551	0.440021
0.791233	0.444522
0.776915	0.440021
0.767003	0.440021
0.752685	0.413014
0.736164	0.417515
0.721846	0.408513
0.714137	0.408513
0.696514	0.408513
0.687703	0.399511
0.672284	0.386008
0.655763	0.390509
0.643648	0.390509
0.633736	0.386008
0.618316	0.368004
0.6051	0.363503
0.591883	0.368004
0.576464	0.363503
0.56545	0.35
0.548929	0.35
0.535713	0.340998
0.524699	0.345499
0.509279	0.331996
0.497164	0.313992
0.485049	0.309491
0.471832	0.300489
0.456413	0.295988
0.446501	0.300489
0.432183	0.282485
0.416763	0.277984
0.405749	0.277984
0.39033	0.259979
0.376012	0.268981
0.367201	0.250977
0.346825	0.230723
0.335261	0.237474
0.322044	0.228472
0.309929	0.223971
0.296712	0.21947
0.285699	0.214969
0.269178	0.205967
0.260367	0.201466
0.241643	0.187963
0.229528	0.183462
0.219616	0.165458
0.199791	0.160957
0.188777	0.151955
0.178865	0.142953
0.163445	0.133951
0.150229	0.111445
0.137012	0.106944
0.122694	0.106944
0.105072	0.102443
0.091855	0.08894
0.077537	0.084439
0.05551	0.070936
0.042293	0.070936
0.031279	0.057433
0.013657	0.04393
