Adsorption isotherm of Methane on NUS-3
DOI: 10.1021/acs.chemmater.5b02902
Article source: Figure S10
Adsorbate Methane: InChIKey VNWKTOKETHGBQD-UHFFFAOYSA-N
Kind: experiment
Temperature: 298 K
Tabular data in the source: 0
pressure (bar)	uptake (mmol/g)
0.009252	-0.00108
0.029077	-0.00108
0.042293	-0.00108
0.05551	-0.00108
0.065422	0.012423
0.080841	0.012423
0.095159	0.025926
0.103971	0.016924
0.117187	0.030427
0.134809	0.025926
0.141418	0.025926
0.161242	0.025926
0.173358	0.025926
0.187676	0.048431
0.203095	0.034928
0.214109	0.030427
0.23063	0.030427
0.236136	0.034928
0.24715	0.034928
0.265874	0.034928
0.281293	0.034928
0.295611	0.030427
0.306625	0.021425
0.31874	0.025926
0.331957	0.030427
0.348477	0.030427
0.361694	0.04393
0.376012	0.04393
0.384823	0.04393
0.401344	0.030427
0.416763	0.034928
0.433284	0.030427
0.445399	0.034928
0.455312	0.039429
0.468528	0.061934
0.480643	0.052932
0.496063	0.057433
0.508178	0.048431
0.522496	0.039429
0.535713	0.04393
0.548929	0.057433
0.555537	0.057433
0.580869	0.048431
0.592984	0.04393
0.609505	0.039429
0.618316	0.039429
0.635938	0.057433
0.645851	0.048431
0.657966	0.04393
0.673385	0.057433
0.685501	0.057433
0.698717	0.057433
0.713035	0.061934
0.722948	0.057433
0.74057	0.04393
0.753786	0.066435
0.762597	0.066435
0.781321	0.061934
0.795639	0.066435
0.807754	0.066435
0.819869	0.057433
0.833086	0.061934
0.848505	0.066435
0.854012	0.066435
0.872736	0.075437
0.885952	0.061934
0.899169	0.070936
0.911284	0.066435
0.924501	0.066435
0.936616	0.075437
0.955339	0.079938
0.965252	0.079938
0.981772	0.079938
0.994989	0.079938
1.006	0.079938
1.01922	0.093441
1.03023	0.079938
1.04455	0.079938
1.05556	0.08894
1.06548	0.097942
1.05667	0.079938
1.03794	0.084439
1.02803	0.097942
1.01702	0.075437
1.0049	0.079938
0.994989	0.084439
0.976266	0.075437
0.968556	0.079938
0.953137	0.075437
0.941021	0.079938
0.926703	0.102443
0.91569	0.102443
0.898067	0.08894
0.883749	0.084439
0.866127	0.08894
0.859519	0.079938
0.840796	0.079938
0.827579	0.084439
0.820971	0.070936
0.801146	0.084439
0.787929	0.084439
0.779118	0.066435
0.762597	0.084439
0.751584	0.070936
0.742772	0.079938
0.722948	0.084439
0.704224	0.08894
0.695413	0.08894
0.686602	0.075437
0.675588	0.075437
0.652459	0.079938
0.642547	0.075437
0.624925	0.075437
0.618316	0.075437
0.601795	0.070936
0.587477	0.066435
0.577565	0.057433
0.55774	0.066435
0.539017	0.070936
0.545625	0.057433
0.519192	0.066435
0.508178	0.057433
0.497164	0.057433
0.480643	0.070936
0.467427	0.061934
0.453109	0.061934
0.438791	0.061934
0.431081	0.048431
0.420067	0.057433
0.399141	0.04393
0.38262	0.04393
0.376012	0.039429
0.363897	0.04393
0.341869	0.048431
0.35068	0.048431
0.320943	0.034928
0.306625	0.021425
0.29451	0.021425
0.280192	0.021425
0.271381	0.030427
0.25486	0.034928
0.241643	0.034928
0.228427	0.034928
0.214109	0.034928
0.198689	0.034928
0.187676	0.039429
0.173358	0.034928
0.162344	0.04393
0.149127	0.021425
0.132606	0.039429
0.120491	0.025926
0.110579	0.021425
0.094058	0.039429
0.07974	0.025926
0.068726	0.012423
0.054408	0.025926
0.038989	0.025926
0.029077	0.021425
0.010353	0.016924
