Adsorption isotherm of Carbon Dioxide on NUS-3
DOI: 10.1021/acs.chemmater.5b02902
Article source: Figure S10
Adsorbate Carbon Dioxide: InChIKey CURLTUGMZLYLDI-UHFFFAOYSA-N
Kind: experiment
Temperature: 298 K
Tabular data in the source: 0
pressure (bar)	uptake (mmol/g)
0.003745	0.012423
0.014759	0.025926
0.027975	0.030427
0.036786	0.030427
0.051104	0.034928
0.061017	0.04393
0.075335	0.066435
0.085247	0.093441
0.096261	0.102443
0.110579	0.115947
0.125998	0.138452
0.142519	0.160957
0.152431	0.187963
0.168952	0.210468
0.182169	0.210468
0.195385	0.223971
0.209703	0.255478
0.219616	0.250977
0.235035	0.259979
0.249353	0.291487
0.26257	0.309491
0.274685	0.309491
0.285699	0.318493
0.296712	0.331996
0.313233	0.345499
0.330855	0.35
0.338565	0.368004
0.351782	0.377006
0.363897	0.408513
0.379316	0.404012
0.39033	0.413014
0.403547	0.426517
0.416763	0.440021
0.432183	0.440021
0.444298	0.471528
0.458616	0.467027
0.471832	0.471528
0.482846	0.48053
0.498266	0.485031
0.508178	0.494033
0.520293	0.503035
0.536814	0.52554
0.552233	0.52554
0.564348	0.539043
0.57316	0.552546
0.58968	0.552546
0.602897	0.57055
0.616113	0.57055
0.633736	0.602058
0.650256	0.61106
0.664574	0.629064
0.675588	0.629064
0.689906	0.638066
0.703123	0.638066
0.711934	0.638066
0.724049	0.65607
0.741671	0.696579
0.754888	0.687577
0.768104	0.719084
0.779118	0.705581
0.79674	0.710082
0.802247	0.723585
0.816565	0.737088
0.82868	0.737088
0.8441	0.746091
0.859519	0.755093
0.871634	0.777598
0.885952	0.782099
0.898067	0.782099
0.911284	0.791101
0.924501	0.804604
0.934413	0.804604
0.952035	0.818107
0.959745	0.818107
0.975164	0.836111
0.987279	0.836111
1.006	0.840612
1.01702	0.840612
1.03354	0.863117
1.04675	0.863117
1.05777	0.87662
1.07209	0.872119
1.05997	0.872119
1.04786	0.863117
1.02803	0.854115
1.01481	0.858616
1.0038	0.845113
0.985077	0.854115
0.974063	0.854115
0.961948	0.840612
0.946528	0.840612
0.935514	0.840612
0.922298	0.83161
0.910183	0.813606
0.898067	0.818107
0.882648	0.822608
0.870533	0.800103
0.855113	0.800103
0.845201	0.800103
0.829782	0.782099
0.816565	0.782099
0.806653	0.773097
0.786828	0.777598
0.780219	0.759594
0.765901	0.755093
0.748279	0.755093
0.736164	0.746091
0.72515	0.728086
0.707528	0.728086
0.696514	0.710082
0.683298	0.705581
0.66898	0.696579
0.652459	0.696579
0.643648	0.674074
0.62933	0.669573
0.616113	0.660571
0.600694	0.660571
0.587477	0.642567
0.576464	0.647068
0.563247	0.624563
0.548929	0.597557
0.536814	0.593056
0.519192	0.588555
0.511482	0.584053
0.499367	0.575051
0.480643	0.566049
0.468528	0.539043
0.456413	0.539043
0.443196	0.539043
0.427777	0.534542
0.41456	0.512037
0.402445	0.498534
0.389229	0.476029
0.377113	0.476029
0.360593	0.471528
0.351782	0.462526
0.336362	0.449023
0.322044	0.440021
0.307726	0.431019
0.293408	0.408513
0.280192	0.399511
0.271381	0.386008
0.255961	0.363503
0.246049	0.363503
0.23063	0.340998
0.216312	0.336497
0.200892	0.309491
0.186574	0.291487
0.17556	0.286986
0.15904	0.26448
0.145823	0.255478
0.132606	0.255478
0.122694	0.223971
0.105072	0.214969
0.096261	0.205967
0.081943	0.201466
0.067625	0.169959
0.052206	0.142953
0.042293	0.115947
0.02357	0.106944
