Adsorption isotherm of Carbon Dioxide on NUS-2
DOI: 10.1021/acs.chemmater.5b02902
Article source: Figure S10
Adsorbate Carbon Dioxide: InChIKey CURLTUGMZLYLDI-UHFFFAOYSA-N
Kind: experiment
Temperature: 298 K
Tabular data in the source: 0
pressure (bar)	uptake (mmol/g)
0.003172	0.051852
0.009516	0.110185
0.017446	0.149074
0.026962	0.246296
0.034892	0.317593
0.05551	0.401852
0.065026	0.486111
0.076128	0.563889
0.095159	0.635185
0.099917	0.687037
0.118949	0.719444
0.130051	0.777778
0.145911	0.849074
0.160185	0.907407
0.177631	0.946296
0.187147	0.985185
0.199835	1.05
0.210937	1.08889
0.228383	1.1213
0.241071	1.17963
0.249001	1.21204
0.261689	1.23148
0.269618	1.28981
0.294994	1.30926
0.30451	1.35463
0.315612	1.38704
0.33623	1.43889
0.348918	1.46482
0.36002	1.49074
0.366364	1.54259
0.377466	1.56852
0.394912	1.575
0.409979	1.60741
0.425046	1.62685
0.432976	1.65926
0.442491	1.67222
0.459937	1.71759
0.479762	1.75648
0.494829	1.76296
0.501173	1.78889
0.513861	1.81482
0.529721	1.84074
0.542409	1.86019
0.558269	1.87963
0.564613	1.89259
0.588403	1.93148
0.596333	1.95093
0.615365	1.97037
0.623294	1.9963
0.637568	1.9963
0.643912	2.02222
0.662944	2.04815
0.68039	2.04815
0.691492	2.08056
0.697836	2.08704
0.710524	2.11296
0.723212	2.12593
0.740658	2.13889
0.756518	2.15833
0.770792	2.1713
0.78348	2.17778
0.799339	2.19722
0.815199	2.23611
0.826301	2.23611
0.835817	2.25556
0.850091	2.25556
0.864365	2.28796
0.878639	2.28796
0.892913	2.29444
0.902429	2.30741
0.921461	2.33333
0.932563	2.33981
0.943665	2.3463
0.954767	2.37222
0.973798	2.37222
0.988072	2.39167
0.999174	2.39815
1.01662	2.39815
1.02614	2.41111
1.03882	2.41111
1.0531	2.43056
1.07213	2.47593
1.06103	2.47593
1.04517	2.46944
1.03089	2.46944
1.01979	2.45648
1.00393	2.45
0.99283	2.45648
0.97697	2.45
0.962697	2.45648
0.953181	2.43704
0.937321	2.41759
0.923047	2.41759
0.913531	2.40463
0.900843	2.39167
0.883749	2.38897
0.872736	2.36646
0.855113	2.34846
0.845201	2.33945
0.830883	2.33495
0.816565	2.32145
0.805551	2.30795
0.790132	2.30345
0.779118	2.28544
0.761496	2.27194
0.751584	2.24493
0.74057	2.24493
0.722948	2.22243
0.70863	2.20893
0.696514	2.19092
0.684399	2.19092
0.670081	2.16391
0.659067	2.15041
0.644749	2.12791
0.632634	2.1189
0.616113	2.1009
0.6051	2.0874
0.58968	2.03789
0.578666	2.03789
0.563247	2.00638
0.547828	1.98387
0.536814	1.97037
0.524699	1.95237
0.510381	1.92086
0.497164	1.89835
0.481745	1.88485
0.467427	1.86235
0.457514	1.82634
0.440994	1.80833
0.428878	1.77683
0.418966	1.74532
0.404648	1.71831
0.387026	1.69581
0.374911	1.6733
0.363897	1.63729
0.349579	1.60129
0.338565	1.57428
0.322044	1.55177
0.307726	1.52477
0.300017	1.48426
0.27909	1.42124
0.269178	1.38974
0.252657	1.35823
0.236136	1.31322
0.227325	1.28171
0.209703	1.2142
0.197588	1.17369
0.187676	1.13318
0.174459	1.07467
0.15904	1.03866
0.149127	0.980144
0.131505	0.91713
0.120491	0.858616
0.109477	0.791101
0.094058	0.746091
0.083044	0.678575
0.067625	0.606559
0.056611	0.507536
0.042293	0.440021
0.024671	0.313992
0.010353	0.214969
