Adsorption isotherm of Methane on NUS-3
DOI: 10.1021/acs.chemmater.5b02902
Article source: Figure S10
Adsorbate Methane: InChIKey VNWKTOKETHGBQD-UHFFFAOYSA-N
Kind: experiment
Temperature: 298 K
Tabular data in the source: 0
pressure (bar)	uptake (mmol/g)
0.005947	0.003421
0.02357	0.021425
0.041192	0.025926
0.05551	0.021425
0.067625	0.012423
0.083044	0.016924
0.094058	0.021425
0.108376	0.021425
0.121593	0.025926
0.135911	0.034928
0.146924	0.039429
0.163445	0.04393
0.184371	0.039429
0.203095	0.048431
0.21521	0.061934
0.224021	0.057433
0.239441	0.061934
0.24715	0.066435
0.263671	0.061934
0.292307	0.066435
0.277989	0.070936
0.306625	0.075437
0.320943	0.075437
0.331957	0.075437
0.345173	0.079938
0.361694	0.075437
0.370505	0.08894
0.38262	0.093441
0.39804	0.079938
0.413459	0.097942
0.42998	0.106944
0.437689	0.106944
0.452007	0.120448
0.467427	0.111445
0.48615	0.106944
0.498266	0.111445
0.508178	0.111445
0.516989	0.124949
0.534611	0.124949
0.545625	0.133951
0.559943	0.124949
0.574261	0.106944
0.587477	0.115947
0.602897	0.133951
0.616113	0.12945
0.627127	0.12945
0.638141	0.142953
0.656865	0.138452
0.672284	0.142953
0.685501	0.133951
0.694312	0.138452
0.713035	0.151955
0.720745	0.138452
0.735063	0.133951
0.750482	0.12945
0.761496	0.12945
0.770307	0.133951
0.786828	0.142953
0.79674	0.142953
0.814362	0.147454
0.82868	0.147454
0.838593	0.147454
0.854012	0.147454
0.86833	0.147454
0.878243	0.147454
0.890358	0.156456
0.903574	0.160957
0.917892	0.156456
0.933312	0.156456
0.948731	0.151955
0.957542	0.151955
0.969657	0.147454
0.988381	0.147454
0.997192	0.169959
1.01041	0.151955
1.02803	0.151955
1.03574	0.151955
1.04675	0.165458
1.05667	0.169959
1.06658	0.156456
1.05446	0.156456
1.04455	0.151955
1.02583	0.165458
1.01481	0.160957
0.99609	0.169959
0.989482	0.169959
0.970759	0.169959
0.961948	0.165458
0.94763	0.169959
0.933312	0.156456
0.921196	0.156456
0.905777	0.156456
0.894763	0.138452
0.878243	0.151955
0.867229	0.142953
0.852911	0.151955
0.841897	0.160957
0.827579	0.160957
0.81216	0.151955
0.79674	0.151955
0.789031	0.151955
0.773611	0.156456
0.761496	0.160957
0.749381	0.151955
0.733961	0.151955
0.722948	0.151955
0.707528	0.151955
0.69321	0.142953
0.677791	0.156456
0.667878	0.151955
0.650256	0.142953
0.640344	0.147454
0.631533	0.151955
0.613911	0.147454
0.603998	0.142953
0.581971	0.138452
0.56545	0.142953
0.57316	0.142953
0.55003	0.138452
0.534611	0.133951
0.522496	0.133951
0.504874	0.124949
0.491657	0.133951
0.477339	0.124949
0.468528	0.12945
0.45421	0.124949
0.436588	0.120448
0.425574	0.120448
0.415662	0.120448
0.401344	0.120448
0.388127	0.124949
0.370505	0.115947
0.356187	0.120448
0.342971	0.106944
0.333058	0.111445
0.315436	0.111445
0.304422	0.106944
0.289003	0.093441
0.277989	0.097942
0.264772	0.093441
0.250454	0.093441
0.242745	0.084439
0.224021	0.08894
0.210805	0.08894
0.196487	0.079938
0.185473	0.08894
0.172256	0.08894
0.157938	0.079938
0.148026	0.079938
0.130404	0.061934
0.112782	0.066435
0.092957	0.075437
0.076436	0.066435
0.063219	0.061934
0.053307	0.070936
0.038989	0.070936
0.021367	0.061934
0.007049	0.061934
