Adsorption isotherm of Carbon Dioxide on NUS-3
DOI: 10.1021/acs.chemmater.5b02902
Article source: Figure 4C
Adsorbate Carbon Dioxide: InChIKey CURLTUGMZLYLDI-UHFFFAOYSA-N
Kind: experiment
Temperature: 273 K
Tabular data in the source: 0
pressure (bar)	uptake (mmol/g)
0.008833	0.044987
0.026499	0.089974
0.046373	0.125964
0.061831	0.161954
0.068455	0.170951
0.081705	0.242931
0.097162	0.27892
0.110412	0.31491
0.121453	0.323907
0.143535	0.3509
0.152368	0.377892
0.16341	0.386889
0.181076	0.422879
0.192117	0.458869
0.205366	0.494859
0.218616	0.521851
0.231865	0.521851
0.242906	0.539846
0.256156	0.557841
0.27603	0.566838
0.289279	0.611825
0.302529	0.62982
0.317986	0.62982
0.333444	0.66581
0.340069	0.674807
0.353318	0.683805
0.366568	0.701799
0.386442	0.728792
0.38865	0.746787
0.408524	0.764781
0.421773	0.773779
0.435023	0.782776
0.448272	0.800771
0.459314	0.836761
0.470355	0.836761
0.485812	0.845758
0.505686	0.872751
0.514519	0.890746
0.525561	0.890746
0.534394	0.90874
0.552059	0.926735
0.563101	0.94473
0.580767	0.94473
0.594016	0.98072
0.61389	1.00771
0.629348	1.00771
0.649222	1.0437
0.660263	1.0437
0.677929	1.0437
0.68897	1.09769
0.706636	1.09769
0.722094	1.09769
0.73976	1.12468
0.757426	1.15167
0.768467	1.16067
0.788341	1.16067
0.808215	1.16967
0.812632	1.18766
0.832506	1.19666
0.850172	1.22365
0.865629	1.23265
0.894336	1.24164
0.878879	1.25064
0.914211	1.26864
0.925252	1.27763
0.945126	1.27763
0.960584	1.29563
0.982666	1.32262
0.993707	1.33162
1.01137	1.35861
1.02683	1.36761
1.04229	1.3856
1.05333	1.3856
1.07099	1.4126
0.008833	0.116967
0.026499	0.143959
0.039748	0.179949
0.055206	0.215938
0.066247	0.260925
0.079497	0.27892
0.097162	0.332905
0.108204	0.368895
0.117037	0.386889
0.134703	0.404884
0.152368	0.431877
0.161201	0.440874
0.174451	0.494859
0.185492	0.521851
0.203158	0.548843
0.214199	0.575835
0.229657	0.584833
0.240698	0.59383
0.251739	0.647815
0.264989	0.647815
0.280446	0.683805
0.30032	0.692802
0.306945	0.737789
0.315778	0.746787
0.329027	0.737789
0.335652	0.764781
0.348902	0.782776
0.368776	0.782776
0.370984	0.809769
0.377609	0.809769
0.395275	0.818766
0.415149	0.836761
0.423982	0.854756
0.435023	0.881748
0.457105	0.926735
0.470355	0.935733
0.481396	0.935733
0.488021	0.94473
0.503478	0.953728
0.516728	0.98072
0.545435	0.989717
0.525561	0.98072
0.554268	1.0347
0.571934	1.0437
0.585183	1.0527
0.605057	1.07069
0.631556	1.11568
0.640389	1.13368
0.653638	1.14267
0.66468	1.15167
0.682346	1.15167
0.68897	1.15167
0.708844	1.16067
0.717677	1.18766
0.735343	1.21465
0.755217	1.22365
0.759634	1.22365
0.781716	1.25964
0.790549	1.23265
0.799382	1.25964
0.810423	1.27763
0.832506	1.27763
0.828089	1.25964
0.841339	1.27763
0.856796	1.30463
0.861213	1.31362
0.881087	1.33162
0.900961	1.31362
0.905378	1.34961
0.916419	1.34961
0.92746	1.35861
0.936293	1.35861
0.940709	1.35861
0.953959	1.37661
0.960584	1.3856
0.973833	1.4036
0.987082	1.4036
0.991499	1.4036
1.01579	1.4036
1.02462	1.42159
1.04229	1.42159
1.05112	1.42159
1.06437	1.43959
