Adsorption isotherm of Hydrogen on NUS-2
DOI: 10.1021/acs.chemmater.5b02902
Article source: Figure S10
Adsorbate Hydrogen: InChIKey UFHFLCQGNIYNRP-UHFFFAOYSA-N
Kind: experiment
Temperature: 298 K
Tabular data in the source: 0
pressure (bar)	uptake (mmol/g)
0.010353	0.075437
0.021367	0.075437
0.037888	0.102443
0.048901	0.079938
0.064321	0.084439
0.083044	0.075437
0.094058	0.084439
0.100666	0.084439
0.113883	0.075437
0.1271	0.08894
0.139215	0.08894
0.152431	0.084439
0.161242	0.084439
0.174459	0.084439
0.186574	0.08894
0.203095	0.08894
0.211906	0.093441
0.219616	0.093441
0.23063	0.093441
0.239441	0.093441
0.253759	0.093441
0.260367	0.08894
0.275786	0.08894
0.292307	0.08894
0.304422	0.093441
0.31874	0.097942
0.340768	0.106944
0.347376	0.102443
0.357289	0.102443
0.373809	0.097942
0.381519	0.115947
0.401344	0.111445
0.41456	0.124949
0.427777	0.115947
0.444298	0.115947
0.457514	0.115947
0.466325	0.120448
0.480643	0.12945
0.494961	0.138452
0.511482	0.138452
0.524699	0.138452
0.534611	0.142953
0.548929	0.138452
0.561044	0.151955
0.576464	0.160957
0.585275	0.151955
0.599593	0.160957
0.608404	0.165458
0.628229	0.160957
0.639242	0.160957
0.65356	0.160957
0.66127	0.160957
0.675588	0.160957
0.692109	0.165458
0.703123	0.169959
0.720745	0.165458
0.736164	0.169959
0.746077	0.165458
0.760395	0.178961
0.77251	0.183462
0.786828	0.17446
0.801146	0.178961
0.813261	0.196965
0.830883	0.196965
0.847404	0.196965
0.855113	0.196965
0.871634	0.192464
0.883749	0.192464
0.898067	0.201466
0.910183	0.196965
0.922298	0.201466
0.937717	0.201466
0.948731	0.205967
0.963049	0.205967
0.975164	0.205967
0.991685	0.210468
1.0016	0.214969
1.01481	0.214969
1.03574	0.210468
1.04345	0.201466
1.05777	0.214969
1.06327	0.210468
1.04455	0.196965
1.02913	0.196965
1.01812	0.196965
1.0016	0.196965
0.987279	0.201466
0.978468	0.201466
0.960846	0.192464
0.94763	0.210468
0.931109	0.196965
0.910183	0.192464
0.894763	0.196965
0.881547	0.187963
0.869431	0.183462
0.855113	0.183462
0.840796	0.196965
0.830883	0.192464
0.818768	0.183462
0.80445	0.183462
0.790132	0.183462
0.775814	0.183462
0.753786	0.187963
0.736164	0.183462
0.721846	0.169959
0.70863	0.17446
0.698717	0.17446
0.683298	0.169959
0.666777	0.169959
0.656865	0.169959
0.641445	0.169959
0.62933	0.165458
0.610607	0.183462
0.595187	0.17446
0.585275	0.165458
0.57316	0.160957
0.562146	0.169959
0.543422	0.169959
0.531307	0.165458
0.512583	0.169959
0.500468	0.156456
0.492759	0.156456
0.483948	0.156456
0.472934	0.160957
0.459717	0.156456
0.449805	0.156456
0.436588	0.138452
0.423371	0.142953
0.413459	0.133951
0.402445	0.133951
0.396938	0.138452
0.385924	0.12945
0.374911	0.120448
0.364998	0.120448
0.323146	0.115947
0.352883	0.12945
0.337464	0.124949
0.315436	0.120448
0.301118	0.106944
0.2868	0.115947
0.272482	0.093441
0.255961	0.102443
0.241643	0.08894
0.226224	0.093441
0.216312	0.102443
0.205298	0.106944
0.197588	0.120448
0.184371	0.111445
0.172256	0.093441
0.161242	0.093441
0.152431	0.084439
0.138113	0.093441
0.1271	0.08894
0.113883	0.08894
0.098464	0.08894
0.086348	0.075437
0.073132	0.075437
0.05551	0.079938
0.046699	0.070936
0.035685	0.052932
0.021367	0.034928
0.004846	0.025926
