Adsorption isotherm of Methanol on Bulk CID-1
DOI: 10.1038/Nchem.627
Adsorbate Methanol: InChIKey OKKJLVBELUTLKV-UHFFFAOYSA-N
Temperature: 293 K
Tabular data in the source: 0
pressure (bar)	uptake (cm3(STP)/g)
0.000112876	2.7027
0.000225368	6.75676
0.000309353	11.1486
0.000364832	15.8784
0.000534242	19.5946
0.000618803	21.9595
0.000670154	41.2162
0.000700292	35.1351
0.000701444	31.0811
0.00072496	48.3108
0.000730527	28.7162
0.000731775	24.3243
0.00078111	50.6757
0.00103643	52.027
0.00163238	54.3919
0.00220041	55.0676
0.00268321	55.7432
0.00282536	55.4054
0.00379095	56.7568
0.00467159	57.0946
0.00560915	57.0946
0.00660325	58.1081
0.00850679	58.1081
0.0105523	58.4459
