Adsorption isotherm of Methanol on CID-1
DOI: 10.1038/Nchem.627
Adsorbate Methanol: InChIKey OKKJLVBELUTLKV-UHFFFAOYSA-N
Temperature: 293 K
Tabular data in the source: 0
pressure (bar)	uptake (cm3(STP)/g)
0.0001386	12.1622
0.000222681	16.2162
0.000334885	21.2838
0.000475596	26.0135
0.000559197	31.7568
0.000698661	40.8784
0.000699525	37.8378
0.000725152	47.6351
0.00072592	44.9324
0.000979123	53.7162
0.00120584	55.7432
0.00148937	57.7703
0.00180141	59.4595
0.00211355	60.8108
0.00242578	61.8243
0.00262437	62.8378
0.00296501	63.8514
0.00324883	64.8649
0.00361799	65.5405
0.00421433	66.5541
0.00455497	67.5676
0.00489571	68.2432
0.00552047	69.2568
0.00617363	70.2703
0.0065996	70.9459
0.00716754	71.9595
0.00801948	73.3108
0.00861582	74.3243
0.00907002	75.6757
0.00986495	77.7027
0.0106596	80.7432
0.0112834	85.1351
0.0119629	93.2432
