Adsorption isotherm of Methane on Ni6P6O18N6C18H36
DOI: 10.1021/Ja804936z
Adsorbate Methane: InChIKey VNWKTOKETHGBQD-UHFFFAOYSA-N
Temperature: 304 K
Tabular data in the source: 0
pressure (bar)	uptake (mmol/g)
0.198413	0.0705537
0.436508	0.0938008
0.595238	0.164417
0.793651	0.234971
1.07143	0.258155
1.78571	0.422385
1.94444	0.445757
3.61111	0.797463
5.11905	1.1258
7.30159	1.47669
8.61111	1.68723
9.3254	1.75697
12.5794	2.15342
14.5635	2.41014
