Adsorption isotherm of Carbon Dioxide on Ni6P6O18N6C18H36
DOI: 10.1021/Ja804936z
Adsorbate Carbon Dioxide: InChIKey CURLTUGMZLYLDI-UHFFFAOYSA-N
Temperature: 304 K
Tabular data in the source: 0
pressure (bar)	uptake (mmol/g)
0.0793651	0.0793651
0.198413	0.619363
0.277778	0.905203
0.357143	1.11961
0.396825	1.35777
0.555556	1.59612
0.595238	2.26285
0.634921	1.76291
0.674603	2.09631
0.793651	2.3584
0.873016	2.50139
0.952381	2.64437
1.30952	3.57351
1.46825	3.24043
1.62698	3.93115
1.86508	4.14582
2.22222	4.31305
2.5	4.50397
2.81746	4.59971
3.05556	4.45723
3.33333	4.79101
4.0873	5.00649
4.60317	5.00731
5	5.15079
5.95238	5.29516
6.66667	5.41534
7.18254	5.48759
7.46032	5.53565
8.13492	5.60815
8.37302	5.63234
8.65079	5.65659
9.04762	5.72865
9.44444	5.80071
10.1984	5.8019
11.5873	5.92315
12.8968	6.02047
14.0079	6.14128
