Adsorption isotherm of Carbon Dioxide on Ni18P18O72N18C54H108
DOI: 10.1021/Ja804936z
Adsorbate Carbon Dioxide: InChIKey CURLTUGMZLYLDI-UHFFFAOYSA-N
Temperature: 304 K
Tabular data in the source: 0
pressure (bar)	uptake (mmol/g)
0.198413	0.452696
0.47619	1.02457
0.714286	1.38209
0.952381	1.64437
1.34921	1.95452
1.5873	2.14538
1.90476	2.31255
2.18254	2.45585
2.42063	2.59908
2.7381	2.76625
3.05556	2.8858
3.33333	3.00529
3.76984	3.14884
4.12698	3.24465
4.96032	3.46025
5.6746	3.60425
6.34921	3.74817
6.86508	3.91566
7.46032	4.03565
7.89683	4.15539
