Adsorption isotherm of Hydrogen on MIL-102
DOI: 10.1021/Ja064343u
Adsorbate Hydrogen: InChIKey UFHFLCQGNIYNRP-UHFFFAOYSA-N
Temperature: 298 K
Tabular data in the source: 0
pressure (bar)	uptake (mmol/g)
0.0246417	0.310038
0.0501187	0.575785
0.0749894	0.775096
0.1	0.996552
0.1235	1.19586
0.149624	1.37303
0.174448	1.5059
0.199526	1.66092
0.246415	1.88238
0.298538	2.10383
0.34807	2.281
0.398107	2.48031
0.446684	2.56889
0.491662	2.67962
0.794328	3.12253
0.891251	3.21111
1	3.38828
1.49624	3.74261
1.92014	3.94192
2.51189	4.14123
2.87298	4.22981
3.34965	4.36268
4.29866	4.5177
5.01187	4.56199
6.30957	4.71701
6.94492	4.73916
9.08517	4.87203
10	4.89418
12.3501	4.98276
14.9624	4.96061
15.8489	5.02705
19.9526	5.09349
24.6417	5.09349
29.8538	5.0492
34.8073	5.02705
