Adsorption isotherm of Hydrogen on MIL-102
DOI: 10.1021/Ja064343u
Adsorbate Hydrogen: InChIKey UFHFLCQGNIYNRP-UHFFFAOYSA-N
Temperature: 77 K
Tabular data in the source: 0
pressure (bar)	uptake (mmol/g)
0.1	0.0442912
0.251189	0.0442912
0.491662	0.0221456
0.749894	0.0221456
0.980995	0.0221456
1.4678	0.0442912
2.03392	0.0442912
2.51189	0.0442912
3.61687	0.0442912
4.91662	0.0664368
9.80995	0.132874
14.6781	0.110728
19.9526	0.177165
24.173	0.177165
30.432	0.19931
36.1685	0.243602
