Adsorption isotherm of Nitrogen on MIL-102
DOI: 10.1021/Ja064343u
Adsorbate Nitrogen: InChIKey IJGRMHOSHXDMSA-UHFFFAOYSA-N
Temperature: 77 K
Tabular data in the source: 0
pressure (bar)	uptake (mmol/g)
0.000655	0.0403635
0.326107	2.22
0.824609	3.14835
1.99335	3.67308
3.45018	4.07672
5.19477	4.33908
7.0354	4.56108
9.64852	4.72253
12.7451	4.88399
16.131	5.00506
20.1924	5.04545
24.5459	5.20689
29.2825	5.14636
34.5035	5.14636
