Adsorption isotherm of Nitrogen on MIL-102
DOI: 10.1021/Ja064343u
Adsorbate Nitrogen: InChIKey IJGRMHOSHXDMSA-UHFFFAOYSA-N
Temperature: 298 K
Tabular data in the source: 0
pressure (bar)	uptake (mmol/g)
0.000655492	0.0403575
3.67534	0.0807151
7.73645	0.100894
12.0876	0.121073
17.1162	0.181609
21.5641	0.201788
26.0109	0.16143
30.4588	0.181609
35.1016	0.302681
