Adsorption isotherm of Hydrogen on MIL-102
DOI: 10.1021/Ja064343u
Adsorbate Hydrogen: InChIKey UFHFLCQGNIYNRP-UHFFFAOYSA-N
Temperature: 298 K
Tabular data in the source: 0
pressure (bar)	uptake (mmol/g)
0.0246417	0.376475
0.0501187	0.75295
0.0749894	1.06299
0.1	1.32874
0.1235	1.57234
0.152522	1.79379
0.174448	1.9931
0.199526	2.17027
0.246415	2.5246
0.292865	2.7682
0.354813	3.03395
0.398107	3.23326
0.446684	3.38828
0.491662	3.54329
0.749894	4.16337
0.874313	4.2741
1	4.49556
1.49624	4.98276
1.92014	5.18207
2.46415	5.46996
2.87298	5.62498
3.41455	5.75785
4.38195	5.95716
5.01187	6.0236
6.30957	6.22291
6.94492	6.2672
8.91251	6.44437
10.1937	6.48866
12.3501	6.59939
15.2521	6.57724
16.4691	6.68797
19.9526	6.73226
24.6417	6.75441
29.8538	6.68797
34.8073	6.66582
