Adsorption isotherm of Nitrogen on MIL-102
DOI: 10.1021/Ja064343u
Adsorbate Nitrogen: InChIKey IJGRMHOSHXDMSA-UHFFFAOYSA-N
Temperature: 304 K
Tabular data in the source: 0
pressure (bar)	uptake (mmol/g)
0.149052	0.00809717
0.644349	0.097166
0.941245	0.161943
1.23814	0.226721
1.53504	0.291498
1.83193	0.356275
2.12903	0.412955
2.47588	0.469636
2.77298	0.526316
3.16958	0.582996
3.51703	0.615385
3.66548	0.647773
4.11264	0.672065
4.55959	0.704453
5.0565	0.728745
5.50406	0.736842
6.00117	0.753036
6.49848	0.761134
6.89629	0.769231
7.24414	0.785425
7.74125	0.801619
8.18881	0.809717
8.68592	0.825911
9.18323	0.834008
9.63059	0.850202
10.0288	0.842105
10.3767	0.8583
10.874	0.866397
11.3713	0.874494
11.8188	0.882591
12.3164	0.882591
12.8137	0.890688
13.311	0.898785
13.8085	0.898785
14.3058	0.906883
14.7038	0.906883
15.0023	0.906883
15.4996	0.91498
15.9969	0.923077
16.4447	0.923077
16.942	0.931174
17.4395	0.931174
17.937	0.931174
18.4343	0.939271
18.7832	0.91498
19.181	0.923077
19.6282	0.947368
20.1257	0.947368
20.6232	0.947368
21.1205	0.955466
21.618	0.955466
22.1155	0.955466
22.8121	0.955466
23.3094	0.963563
23.8067	0.97166
24.3042	0.97166
24.7517	0.979757
25.2493	0.979757
26.0453	0.979757
26.5428	0.979757
27.0403	0.979757
27.5378	0.979757
28.0353	0.979757
28.5328	0.979757
29.0306	0.97166
29.5281	0.97166
30.0256	0.97166
