Adsorption isotherm of Methane on MIL-102
DOI: 10.1021/Ja064343u
Adsorbate Methane: InChIKey VNWKTOKETHGBQD-UHFFFAOYSA-N
Temperature: 304 K
Tabular data in the source: 0
pressure (bar)	uptake (mmol/g)
0.149052	0.00809717
1.08526	0.37247
1.72578	0.623482
2.96111	0.963563
3.95271	1.10121
4.74691	1.17409
6.18869	1.21457
8.07723	1.29555
9.96677	1.33603
11.6573	1.37652
12.7516	1.38462
14.1445	1.39271
15.3878	1.40891
17.477	1.4251
19.5665	1.4251
21.3576	1.4251
22.8004	1.4251
24.6909	1.4251
25.5363	1.4413
27.626	1.4332
29.4173	1.4251
