Adsorption isotherm of Carbon Dioxide on MIL-102
DOI: 10.1021/Ja064343u
Adsorbate Carbon Dioxide: InChIKey CURLTUGMZLYLDI-UHFFFAOYSA-N
Temperature: 304 K
Tabular data in the source: 0
pressure (bar)	uptake (mmol/g)
0.149052	0.00809717
0.843958	2.07287
0.942051	2.12955
2.125	2.5749
2.37315	2.59919
3.86045	2.80972
5.39952	2.93927
6.19413	2.99595
7.4367	3.04453
7.83371	3.08502
9.07749	3.08502
9.37458	3.1417
10.8168	3.16599
11.9614	3.1498
12.7561	3.20648
14.6968	3.19028
17.0844	3.20648
18.9244	3.23887
20.6647	3.27935
22.3558	3.29555
23.7479	3.33603
24.8422	3.34413
26.7323	3.36032
28.5236	3.35223
28.5238	3.34413
29.8173	3.34413
