Adsorption isotherm of Nitrogen on IRMOF-3-PI-Cu
DOI: 10.1002/cctc.201400056
Adsorbate Nitrogen: InChIKey IJGRMHOSHXDMSA-UHFFFAOYSA-N
Temperature: 77 K
Tabular data in the source: 0
pressure (bar)	uptake (cm3(STP)/g)
0.0305189	214.173
0.0534081	217.265
0.0788406	218.511
0.104273	221.605
0.129706	224.082
0.152595	224.097
0.178027	226.574
0.20346	229.052
0.226349	229.682
0.251781	230.929
0.274671	231.559
0.292473	232.801
0.325536	235.283
0.348425	236.528
0.373857	237.16
0.396746	238.405
0.424722	239.654
0.447611	240.284
0.475587	243.378
0.495933	243.391
0.521365	245.869
0.541712	245.882
0.559514	246.508
0.590033	248.989
0.620552	249.008
0.638355	249.635
0.663787	250.882
0.691763	253.977
0.714652	254.607
0.745171	255.857
0.76806	256.487
0.793493	258.349
0.816382	260.209
0.831641	260.219
0.864703	261.471
0.88505	263.33
0.918112	266.428
0.935915	269.516
0.953717	273.835
0.97152	280.615
