Adsorption isotherm of Nitrogen on IRMOF-3
DOI: 10.1002/cctc.201400056
Adsorbate Nitrogen: InChIKey IJGRMHOSHXDMSA-UHFFFAOYSA-N
Temperature: 77 K
Tabular data in the source: 0
pressure (bar)	uptake (cm3(STP)/g)
0.0228892	286.784
0.0991864	292.986
0.127162	294.85
0.147508	296.093
0.213632	298.597
0.241608	299.23
0.340795	302.37
0.368771	302.387
0.39166	303.017
0.417092	303.649
0.460328	306.138
0.490847	306.157
0.516279	307.404
0.605293	308.691
0.630725	311.784
0.701936	313.675
0.734999	314.927
0.752801	315.554
0.785864	317.421
0.811296	318.052
0.821469	319.905
0.851987	321.155
0.872334	323.629
0.90031	330.416
0.925742	335.971
0.951174	356.295
0.968977	414.768
