Adsorption isotherm of Nitrogen on IRMOF-3-PI
DOI: 10.1002/cctc.201400056
Adsorbate Nitrogen: InChIKey IJGRMHOSHXDMSA-UHFFFAOYSA-N
Temperature: 77 K
Tabular data in the source: 0
pressure (bar)	uptake (cm3(STP)/g)
0.0254325	221.555
0.0457784	224.644
0.0686676	228.351
0.0890136	231.441
0.111903	233.302
0.142422	235.783
0.178027	237.651
0.20346	238.898
0.228892	240.145
0.246695	240.772
0.274671	242.636
0.295017	245.11
0.325536	246.36
0.338252	246.368
0.417092	251.341
0.437439	250.739
0.465414	251.372
0.490847	253.234
0.521365	255.099
0.562057	256.356
0.582403	256.984
0.610379	257.617
0.635811	258.864
0.666331	259.499
0.686676	260.127
0.714652	261.376
0.737541	262.621
0.778233	264.493
0.818925	266.365
0.836728	268.222
0.854531	269.464
0.874877	271.939
0.905395	275.035
0.923199	279.969
0.951174	287.372
0.976611	311.388
