Adsorption isotherm of Nitrogen on HKUST-1 (1T)
DOI: 10.1039/c5cc05107j
Article source: Figure 3a
Adsorbate Nitrogen: InChIKey IJGRMHOSHXDMSA-UHFFFAOYSA-N
Kind: experiment
Temperature: 77 K
Tabular data in the source: 0
pressure (bar)	uptake (cm3(STP)/g)
0.002115	0.002088
0.004231	161.176
0.006346	118.824
0.008461	252.941
0.0275	258.824
0.050768	263.529
0.061345	267.059
0.084614	271.765
0.105767	271.765
0.135382	272.941
0.164997	274.118
0.18192	274.118
0.215766	276.471
0.287687	271.765
0.296149	280
0.361724	275.294
0.378646	281.176
0.43153	276.471
0.461145	282.353
0.509798	278.824
0.539413	282.353
0.588066	281.176
0.61345	284.706
0.657872	282.353
0.687487	284.706
0.727679	284.706
0.765755	284.706
0.797484	284.706
0.844022	284.706
0.879983	284.706
0.915945	287.059
0.98152	290.588
1.0069	302.353
