Adsorption isotherm of Nitrogen on HKUST-1@AC50 (1.5T)
DOI: 10.1039/c5cc05107j
Article source: Figure 3b
Adsorbate Nitrogen: InChIKey IJGRMHOSHXDMSA-UHFFFAOYSA-N
Kind: experiment
Temperature: 77 K
Tabular data in the source: 0
pressure (bar)	uptake (cm3(STP)/g)
0.002102	0.002075
0.004204	22.4626
0.006307	74.1433
0.008409	242.678
0.014715	253.9
0.023124	267.364
0.02943	274.092
0.037839	280.815
0.044146	287.543
0.050452	292.023
0.058861	296.499
0.063065	300.984
0.06727	305.469
0.073576	307.702
0.079883	314.43
0.088291	321.153
0.094598	327.88
0.100905	334.608
0.107211	339.088
0.11562	343.564
0.124029	348.04
0.134539	354.758
0.142948	365.975
0.149255	370.455
0.157664	377.178
0.170277	381.645
0.176583	390.62
0.184992	397.343
0.1934	406.313
0.197605	410.798
0.201809	415.283
0.206014	417.521
0.233341	439.932
0.264875	462.334
0.292203	486.992
0.332144	513.87
0.359473	538.529
0.391005	558.683
0.420436	574.348
0.470888	598.956
0.523443	616.817
0.586508	625.666
0.662186	632.239
0.725252	638.841
0.78201	645.457
0.836667	654.324
0.880813	665.462
0.916549	676.619
0.952287	692.27
0.979615	714.681
0.985922	721.409
0.994331	734.873
0.996432	750.599
1.00694	775.295
