Adsorption isotherm of Nitrogen on HKUST-1@AC50 (0.5T)
DOI: 10.1039/c5cc05107j
Article source: Figure 3b
Adsorbate Nitrogen: InChIKey IJGRMHOSHXDMSA-UHFFFAOYSA-N
Kind: experiment
Temperature: 77 K
Tabular data in the source: 0
pressure (bar)	uptake (cm3(STP)/g)
0	0
0.002102	121.695
0.004204	162.263
0.006307	216.352
0.008409	234.385
0.010511	250.164
0.014715	261.441
0.023124	272.727
0.027328	284.004
0.035737	293.037
0.039941	299.807
0.052554	304.342
0.063065	315.633
0.069372	322.408
0.079883	331.445
0.086189	338.22
0.094598	342.746
0.109313	354.046
0.121926	360.835
0.136642	372.135
0.149255	383.431
0.161868	392.473
0.174481	403.768
0.187094	421.825
0.203911	426.369
0.224933	444.444
0.252262	464.786
0.273284	480.608
0.29851	505.453
0.321633	528.039
0.351064	550.64
0.378392	573.236
0.401517	586.808
0.42464	600.381
0.456172	616.226
0.487706	629.817
0.525544	638.915
0.571792	648.032
0.622245	654.905
0.674799	661.782
0.725252	666.402
0.773601	673.27
0.811441	680.115
0.847178	686.955
0.876608	700.541
0.899733	711.86
0.924958	725.437
0.952287	741.273
0.969105	757.085
0.981718	757.113
0.983819	777.399
1.00274	795.47
