Adsorption isotherm of Nitrogen on HKUST-1 (1.5T)
DOI: 10.1039/c5cc05107j
Article source: Figure 3a
Adsorbate Nitrogen: InChIKey IJGRMHOSHXDMSA-UHFFFAOYSA-N
Kind: experiment
Temperature: 77 K
Tabular data in the source: 0
pressure (bar)	uptake (cm3(STP)/g)
0.004231	0.004175
0.006346	104.706
0.008461	198.824
0.021153	205.882
0.042307	212.941
0.05923	216.471
0.080383	218.824
0.099421	221.176
0.118459	223.529
0.137497	225.882
0.167112	225.882
0.18615	228.235
0.21365	228.235
0.262303	230.588
0.287687	230.588
0.33634	232.941
0.361724	232.941
0.414608	235.294
0.444222	235.294
0.501337	235.294
0.52249	235.294
0.579604	237.647
0.592296	238.824
0.651526	237.647
0.666333	237.647
0.725563	240
0.731909	237.647
0.80383	240
0.818638	240
0.873637	241.176
0.922291	243.529
0.932867	243.529
0.992096	244.706
1.01113	254.118
