Adsorption isotherm of Nitrogen on HKUST-1@AC50 (0T)
DOI: 10.1039/c5cc05107j
Article source: Figure 3b
Adsorbate Nitrogen: InChIKey IJGRMHOSHXDMSA-UHFFFAOYSA-N
Kind: experiment
Temperature: 77 K
Tabular data in the source: 0
pressure (bar)	uptake (cm3(STP)/g)
0	0
0	168.539
0.004204	224.719
0.006307	213.483
0.008409	244.944
0.010511	265.169
0.016817	276.404
0.025226	285.393
0.037839	296.629
0.04835	305.618
0.058861	314.607
0.073576	323.596
0.084087	332.584
0.0967	343.82
0.113517	355.056
0.132437	373.034
0.140846	379.775
0.155561	391.011
0.159765	395.506
0.174481	408.989
0.189196	420.225
0.206014	435.955
0.220728	449.438
0.248057	469.663
0.275385	489.888
0.304816	510.112
0.325838	534.831
0.34686	550.562
0.403618	588.764
0.439355	613.483
0.481399	626.966
0.531851	640.449
0.592814	649.438
0.66639	656.18
0.71474	662.921
0.765193	669.663
0.826156	676.404
0.861893	687.64
0.893426	698.876
0.914448	714.607
0.937571	728.09
0.962797	741.573
0.973309	757.303
0.994331	786.517
1.00064	806.742
