Adsorption isotherm of Nitrogen on HKUST-1 (0T)
DOI: 10.1039/c5cc05107j
Article source: Figure 3a
Adsorbate Nitrogen: InChIKey IJGRMHOSHXDMSA-UHFFFAOYSA-N
Kind: experiment
Temperature: 77 K
Tabular data in the source: 0
pressure (bar)	uptake (cm3(STP)/g)
0.00212	0.002092
0.00424	281.176
0.006359	235.294
0.008479	162.353
0.012719	356.471
0.027557	364.706
0.048755	368.235
0.059354	376.471
0.072072	378.824
0.082671	387.059
0.097509	388.235
0.120827	392.941
0.150504	396.471
0.173821	397.647
0.201378	398.824
0.267091	398.824
0.27345	403.529
0.337043	401.176
0.354001	407.059
0.406996	403.529
0.436672	409.412
0.476948	407.059
0.527823	411.765
0.559619	410.588
0.625332	411.765
0.638051	411.765
0.688925	414.118
0.724961	414.118
0.760997	414.118
0.794914	414.118
0.83519	414.118
0.890303	416.471
0.909382	415.294
0.983573	416.471
1.01325	427.059
