Adsorption isotherm of Nitrogen on HKUST-1 (0.5T)
DOI: 10.1039/c5cc05107j
Article source: Figure 3a
Adsorbate Nitrogen: InChIKey IJGRMHOSHXDMSA-UHFFFAOYSA-N
Kind: experiment
Temperature: 77 K
Tabular data in the source: 0
pressure (bar)	uptake (cm3(STP)/g)
0	0
0.004231	275.294
0.006346	187.059
0.008461	284.706
0.029615	291.765
0.048653	297.647
0.06346	301.176
0.076152	307.059
0.093075	310.588
0.114229	314.118
0.137497	316.471
0.162882	318.824
0.18192	321.176
0.196727	321.176
0.215766	322.353
0.285571	325.882
0.300379	325.882
0.3723	329.412
0.439992	329.412
0.454799	330.588
0.516144	335.294
0.530951	332.941
0.592296	334.118
0.602874	334.118
0.666333	336.471
0.681141	336.471
0.734025	336.471
0.753063	336.471
0.805946	338.824
0.837676	338.824
0.888445	337.647
0.905367	340
0.968828	341.176
0.975174	340
1.01113	348.235
