Adsorption isotherm of Nitrogen on HKUST-1@AC50 (1T)
DOI: 10.1039/c5cc05107j
Article source: Figure 3b
Adsorbate Nitrogen: InChIKey IJGRMHOSHXDMSA-UHFFFAOYSA-N
Kind: experiment
Temperature: 77 K
Tabular data in the source: 0
pressure (bar)	uptake (cm3(STP)/g)
0	56.338
0.002102	20.2864
0.004204	139.728
0.006307	187.056
0.008409	227.624
0.010511	245.657
0.01892	272.718
0.027328	284.004
0.039941	293.047
0.046248	302.075
0.058861	311.117
0.06727	317.896
0.075678	324.675
0.088291	331.464
0.094598	342.746
0.107211	356.295
0.121926	367.595
0.128233	372.116
0.138743	383.407
0.147152	390.186
0.16397	399.238
0.172378	408.271
0.18289	417.308
0.197605	428.608
0.203911	433.13
0.229137	453.467
0.250159	471.542
0.273284	489.622
0.29851	507.706
0.325838	530.302
0.34686	548.377
0.369983	568.71
0.391005	582.278
0.418333	600.367
0.449866	616.212
0.475093	629.789
0.510829	641.136
0.554975	650.248
0.605427	659.375
0.657982	663.999
0.710536	668.623
0.760988	675.495
0.809339	680.11
0.845076	686.95
0.880813	698.297
0.910243	709.63
0.933367	723.203
0.954389	741.278
0.973309	752.587
0.979615	770.629
0.988024	775.155
0.996432	784.188
1.01745	800.009
