Adsorption isotherm of Acetylene on FJU-12a
DOI: 10.1021/acs.cgd.5b00473
Article source: Figure 2b
Adsorbate Acetylene: InChIKey HSFWRNGVRCDJHI-UHFFFAOYSA-N
Kind: experiment
Temperature: 296 K
Tabular data in the source: 0
pressure (bar)	uptake (cm3(STP)/g)
0	0
0.014917	3.13333
0.024862	4.4
0.049724	6.4
0.109393	9.2
0.159116	10.8667
0.213813	12.2667
0.266023	13.4
0.318234	14.3333
0.377902	15.1333
0.430113	15.7333
0.482323	16.3333
0.534532	16.9333
0.589229	17.4
0.641439	17.8
0.69365	18.2
0.748345	18.5333
0.800555	18.8
0.855252	19
0.907463	19.2667
0.957187	19.4667
1.01437	19.6667
1.0442	19.8
1.06906	19.9333
