Adsorption isotherm of Ethane on FJU-12a
DOI: 10.1021/acs.cgd.5b00473
Article source: Figure 2b
Adsorbate Ethane: InChIKey OTMSDBZUPAUEDD-UHFFFAOYSA-N
Kind: experiment
Temperature: 296 K
Tabular data in the source: 0
pressure (bar)	uptake (cm3(STP)/g)
0	0
0.004961	0.466667
0.014883	2.46667
0.029765	3.46667
0.05953	4.73333
0.109138	6.26667
0.158747	7.4
0.213316	8.2
0.267885	8.93333
0.322453	9.53333
0.372063	10.1333
0.429111	10.6
0.478721	10.9333
0.535769	11.3333
0.585379	11.7333
0.639947	12.0667
0.692036	12.3333
0.744125	12.6667
0.798694	12.8667
0.853263	13.1333
0.900391	13.3333
0.959921	13.6
1.00953	13.8667
1.03681	14
1.06906	14.0667
