Adsorption isotherm of Methane on FJU-12a
DOI: 10.1021/acs.cgd.5b00473
Article source: Figure 2b
Adsorbate Methane: InChIKey VNWKTOKETHGBQD-UHFFFAOYSA-N
Kind: experiment
Temperature: 296 K
Tabular data in the source: 0
pressure (bar)	uptake (cm3(STP)/g)
0	0
0.017403	0.13289
0.027348	0.199336
0.049724	0.531561
0.109393	0.930233
0.161603	1.26246
0.213813	1.52824
0.26851	1.79402
0.320719	2.0598
0.372929	2.32558
0.447515	2.59136
0.489781	2.7907
0.549449	2.92359
0.604146	3.12292
0.65387	3.25581
0.708567	3.3887
0.758291	3.58804
0.8105	3.72093
0.867683	3.85382
0.914921	3.98671
0.967131	4.1196
1.02431	4.25249
1.0442	4.31894
1.07404	4.38538
