Adsorption isotherm of Ethene on FJU-12a
DOI: 10.1021/acs.cgd.5b00473
Article source: Figure 2b
Adsorbate Ethene: InChIKey VGGSQFUCUMXWEO-UHFFFAOYSA-N
Kind: experiment
Temperature: 296 K
Tabular data in the source: 0
pressure (bar)	uptake (cm3(STP)/g)
0	0
0.014883	2.13333
0.029765	3.13333
0.06201	4.46667
0.106658	5.93333
0.163708	7.13333
0.215796	8.06667
0.267885	9
0.319974	9.66667
0.374543	10.3333
0.429111	10.8667
0.4812	11.3333
0.533289	11.7333
0.585379	12.1333
0.639947	12.5333
0.694516	12.8667
0.746605	13.2
0.798694	13.5333
0.850783	13.8
0.905352	14.0667
0.957441	14.2667
1.01201	14.5333
1.03929	14.6667
1.06658	14.8
