Adsorption isotherm of Hydrogen on PCOP-1
DOI: 10.1016/j.ijhydene.2013.01.054
Adsorbate Hydrogen: InChIKey UFHFLCQGNIYNRP-UHFFFAOYSA-N
Temperature: 300 K
Tabular data in the source: 0
pressure (bar)	uptake (mg/g)
0.96463	0.375
4.82315	0.9375
9.96785	2.0625
21.5434	4.3125
46.3023	9.5625
99.6785	18.9375
