Adsorption isotherm of Hydrogen on GEGZEY
DOI: 10.1016/j.ijhydene.2013.01.054
Adsorbate Hydrogen: InChIKey UFHFLCQGNIYNRP-UHFFFAOYSA-N
Temperature: 300 K
Tabular data in the source: 0
pressure (bar)	uptake (g/l)
0.943732	0.0669456
2.83384	0.133891
5.34958	0.334728
7.86664	0.502092
9.43732	0.669456
11.3248	0.803347
12.8994	0.870293
15.4152	1.07113
16.9885	1.17155
19.5056	1.33891
22.0239	1.4728
23.596	1.60669
26.4285	1.77406
28.9455	1.94142
31.778	2.10879
34.2951	2.27615
37.1276	2.44351
39.6447	2.61088
42.4772	2.77824
44.9943	2.94561
47.8268	3.11297
50.6593	3.28033
53.4918	3.4477
56.0089	3.61506
58.8427	3.74895
61.6765	3.88285
64.5091	4.05021
67.3429	4.1841
70.4922	4.31799
73.326	4.45188
76.1599	4.58577
78.9937	4.71967
81.8275	4.85356
84.6614	4.98745
87.4952	5.12134
90.6445	5.25523
93.4783	5.38912
96.3122	5.52301
99.146	5.6569
