Adsorption isotherm of Hydrogen on PCOP-4
DOI: 10.1016/j.ijhydene.2013.01.054
Adsorbate Hydrogen: InChIKey UFHFLCQGNIYNRP-UHFFFAOYSA-N
Temperature: 77 K
Tabular data in the source: 0
pressure (bar)	uptake (g/l)
2.2508	9.2887
5.14469	15.8159
21.5434	31.3808
46.6238	40.9205
100	48.7029
