Adsorption isotherm of Hydrogen on PCOP-5
DOI: 10.1016/j.ijhydene.2013.01.054
Adsorbate Hydrogen: InChIKey UFHFLCQGNIYNRP-UHFFFAOYSA-N
Temperature: 77 K
Tabular data in the source: 0
pressure (bar)	uptake (g/l)
0	4.76987
0.321543	2.76151
1.28617	7.28033
2.2508	10.5439
4.50161	15.3138
9.6463	23.0962
21.2219	30.6276
46.3023	37.4059
100	45.6904
