Adsorption isotherm of Hydrogen on GEGZEY
DOI: 10.1016/j.ijhydene.2013.01.054
Adsorbate Hydrogen: InChIKey UFHFLCQGNIYNRP-UHFFFAOYSA-N
Temperature: 77 K
Tabular data in the source: 0
pressure (bar)	uptake (mg/g)
0.327869	5.02504
1.63934	15.0833
2.29508	20.1125
2.95082	25.1416
4.59016	30.1831
6.88525	33.9776
9.83607	37.7804
13.1148	40.332
16.3934	42.8836
19.3443	44.1759
22.623	45.4723
25.9016	48.0239
29.1803	48.065
32.459	48.1062
35.4098	49.3984
38.6885	49.4396
41.9672	50.736
45.2459	50.7771
48.5246	52.0735
51.8033	52.1147
54.7541	52.1517
58.0328	53.4481
61.3115	54.7445
64.2623	54.7815
67.541	54.8227
70.8197	54.8638
74.0984	54.905
77.377	56.2014
80.6557	56.2425
83.9344	56.2837
87.2131	56.3249
90.4918	56.366
93.7705	56.4072
97.0492	56.4483
100	57.7406
