Adsorption isotherm of Hydrogen on PCOP-2
DOI: 10.1016/j.ijhydene.2013.01.054
Adsorbate Hydrogen: InChIKey UFHFLCQGNIYNRP-UHFFFAOYSA-N
Temperature: 77 K
Tabular data in the source: 0
pressure (bar)	uptake (mg/g)
2.62295	20.1166
5.2459	37.7228
10.8197	65.4078
21.6393	109.477
46.5574	176.317
100	263.598
