Adsorption isotherm of Hydrogen on PCOP-3
DOI: 10.1016/j.ijhydene.2013.01.054
Adsorbate Hydrogen: InChIKey UFHFLCQGNIYNRP-UHFFFAOYSA-N
Temperature: 300 K
Tabular data in the source: 0
pressure (bar)	uptake (g/l)
1.8862	0.166038
4.08786	0.331971
9.43624	0.696855
21.3857	1.65954
46.2361	3.45125
100.365	6.73321
