Adsorption isotherm of Hydrogen on PCOP-1
DOI: 10.1016/j.ijhydene.2013.01.054
Adsorbate Hydrogen: InChIKey UFHFLCQGNIYNRP-UHFFFAOYSA-N
Temperature: 77 K
Tabular data in the source: 0
pressure (bar)	uptake (mg/g)
0.655738	7.53961
2.62295	21.3718
5.2459	36.4675
11.1475	51.6044
22.2951	76.8489
46.2295	106.02
99.6721	131.795
