Adsorption isotherm of Hydrogen on GEGZEY
DOI: 10.1016/j.ijhydene.2013.01.054
Adsorbate Hydrogen: InChIKey UFHFLCQGNIYNRP-UHFFFAOYSA-N
Temperature: 300 K
Tabular data in the source: 0
pressure (bar)	uptake (mg/g)
2.89389	0.382018
5.78778	0.575751
9.32476	0.582411
11.5756	1.1515
14.791	1.34584
18.0064	1.54018
20.9003	1.9222
24.1158	2.11654
27.3312	2.31087
30.2251	2.50461
33.4405	2.88723
36.6559	3.08157
39.5498	3.2753
42.7653	3.65793
45.9807	3.85226
48.8746	4.23428
52.09	4.42862
55.3055	4.62296
58.5209	4.8173
61.4148	5.01103
64.6302	5.20537
67.8457	5.39971
70.7395	5.78173
73.955	5.97607
77.1704	5.98212
80.3859	6.17646
83.6013	6.3708
86.4952	6.75282
89.7106	6.94715
92.926	6.95321
96.1415	7.14755
99.0354	7.34128
