Adsorption isotherm of Hydrogen on GEGZEY
DOI: 10.1016/j.ijhydene.2013.01.054
Adsorbate Hydrogen: InChIKey UFHFLCQGNIYNRP-UHFFFAOYSA-N
Temperature: 77 K
Tabular data in the source: 0
pressure (bar)	uptake (g/l)
0.321543	0.321543
0.96463	10.0418
1.28617	14.0586
1.92926	16.569
2.57235	19.0795
3.21543	21.3389
4.50161	23.5983
6.10932	25.8577
8.03859	27.6151
10.2894	29.3724
12.8617	31.1297
15.4341	32.3849
18.328	33.6402
21.2219	34.8954
24.1158	35.8996
27.0096	36.6527
30.2251	36.9038
33.119	36.9038
35.6913	37.1548
38.5852	37.6569
41.8006	38.41
45.0161	38.6611
48.2315	39.4142
51.4469	39.6653
54.3408	40.1674
57.5563	40.6695
60.1286	40.6695
63.3441	41.1715
66.2379	41.4226
69.4534	41.6736
71.0611	41.6736
74.2765	41.9247
77.492	42.1757
80.3859	42.4268
83.6013	42.6778
88.4244	42.9289
92.283	43.1799
95.4984	43.1799
98.7138	43.431
101.286	43.431
