Adsorption isotherm of Hydrogen on PCOP-2
DOI: 10.1016/j.ijhydene.2013.01.054
Adsorbate Hydrogen: InChIKey UFHFLCQGNIYNRP-UHFFFAOYSA-N
Temperature: 77 K
Tabular data in the source: 0
pressure (bar)	uptake (g/l)
0.321543	0.502092
1.60772	2.51046
1.92926	3.76569
4.82315	6.5272
9.96785	11.5481
21.5434	19.0795
46.3023	30.6276
99.3569	45.4393
