Adsorption isotherm of Hydrogen on PCOP-4
DOI: 10.1016/j.ijhydene.2013.01.054
Adsorbate Hydrogen: InChIKey UFHFLCQGNIYNRP-UHFFFAOYSA-N
Temperature: 300 K
Tabular data in the source: 0
pressure (bar)	uptake (mg/g)
5.14469	0.9375
10.2894	2.0625
21.865	4.125
46.6238	8.625
100	16.3125
