Adsorption isotherm of Hydrogen on PCOP-2
DOI: 10.1016/j.ijhydene.2013.01.054
Adsorbate Hydrogen: InChIKey UFHFLCQGNIYNRP-UHFFFAOYSA-N
Temperature: 300 K
Tabular data in the source: 0
pressure (bar)	uptake (mg/g)
1.92926	0.945055
4.82315	2.08021
9.96785	4.5376
21.865	9.83196
46.3023	20.4219
100.643	41.0472
