Adsorption isotherm of Hydrogen on PCOP-2
DOI: 10.1016/j.ijhydene.2013.01.054
Adsorbate Hydrogen: InChIKey UFHFLCQGNIYNRP-UHFFFAOYSA-N
Temperature: 300 K
Tabular data in the source: 0
pressure (bar)	uptake (g/l)
2.51712	0.165828
4.40069	0.398533
10.3774	0.829874
21.6998	1.69277
46.549	3.51782
100.035	7.09999
