Adsorption isotherm of Hydrogen on PCOP-5
DOI: 10.1016/j.ijhydene.2013.01.054
Adsorbate Hydrogen: InChIKey UFHFLCQGNIYNRP-UHFFFAOYSA-N
Temperature: 300 K
Tabular data in the source: 0
pressure (bar)	uptake (g/l)
0.629595	0.0334728
4.71602	0.401674
10.0643	0.769874
21.7032	1.60669
46.5531	3.41423
100.057	6.56067
