Adsorption isotherm of Hydrogen on PCOP-5
DOI: 10.1016/j.ijhydene.2013.01.054
Adsorbate Hydrogen: InChIKey UFHFLCQGNIYNRP-UHFFFAOYSA-N
Temperature: 77 K
Tabular data in the source: 0
pressure (bar)	uptake (mg/g)
1.31148	6.29261
2.29508	20.1125
4.91803	35.2082
10.4918	51.5961
22.2951	66.8071
46.2295	80.915
99.6721	96.6486
