Adsorption isotherm of Hydrogen on PCOP-5
DOI: 10.1016/j.ijhydene.2013.01.054
Adsorbate Hydrogen: InChIKey UFHFLCQGNIYNRP-UHFFFAOYSA-N
Temperature: 300 K
Tabular data in the source: 0
pressure (bar)	uptake (mg/g)
1.28617	0.00242167
4.82315	0.762219
9.96785	1.52504
21.5434	3.42968
46.3023	7.24199
99.6785	14.1207
