Adsorption isotherm of Hydrogen on PCOP-3
DOI: 10.1016/j.ijhydene.2013.01.054
Adsorbate Hydrogen: InChIKey UFHFLCQGNIYNRP-UHFFFAOYSA-N
Temperature: 77 K
Tabular data in the source: 0
pressure (bar)	uptake (mg/g)
0.655738	5.02915
2.62295	17.6061
5.2459	32.7018
21.6393	81.8616
46.8852	111.049
100	135.565
