Adsorption isotherm of Hydrogen on PCOP-1
DOI: 10.1016/j.ijhydene.2013.01.054
Adsorbate Hydrogen: InChIKey UFHFLCQGNIYNRP-UHFFFAOYSA-N
Temperature: 77 K
Tabular data in the source: 0
pressure (bar)	uptake (g/l)
0.643087	2.51046
0.96463	5.02092
2.57235	8.53556
5.14469	13.3054
10.2894	19.3305
21.5434	28.1172
45.9807	37.9079
100	48.2008
