Adsorption isotherm of Hydrogen on PCOP-4
DOI: 10.1016/j.ijhydene.2013.01.054
Adsorbate Hydrogen: InChIKey UFHFLCQGNIYNRP-UHFFFAOYSA-N
Temperature: 77 K
Tabular data in the source: 0
pressure (bar)	uptake (mg/g)
0.327869	3.76981
4.59016	33.9488
10.1639	51.592
21.6393	78.0959
46.5574	98.4924
100	121.757
