Adsorption isotherm of Hydrogen on PCOP-1
DOI: 10.1016/j.ijhydene.2013.01.054
Adsorbate Hydrogen: InChIKey UFHFLCQGNIYNRP-UHFFFAOYSA-N
Temperature: 300 K
Tabular data in the source: 0
pressure (bar)	uptake (g/l)
1.2579	0.0995807
5.03424	0.331655
10.3787	0.79654
21.3844	1.69287
46.2335	3.51792
100.36	6.86655
