Adsorption isotherm of Hydrogen on PCOP-3
DOI: 10.1016/j.ijhydene.2013.01.054
Adsorbate Hydrogen: InChIKey UFHFLCQGNIYNRP-UHFFFAOYSA-N
Temperature: 77 K
Tabular data in the source: 0
pressure (bar)	uptake (g/l)
2.57235	6.77824
4.50161	12.0502
45.9807	40.9205
100.322	49.9582
