Adsorption isotherm of Nitrogen on PI-COF4
DOI: 10.1021/jacs.5b04147
Article source: Figure 3
Adsorbate Nitrogen: InChIKey IJGRMHOSHXDMSA-UHFFFAOYSA-N
Kind: experiment
Temperature: 77 K
Tabular data in the source: 0
pressure (bar)	uptake (cm3(STP)/g)
0	42.6426
0	129.73
0	171.171
0	219.82
0.000521	305.105
0	393.393
-0.001563	434.835
-0.001042	473.273
0.001042	506.907
0.002605	537.538
0.003647	562.763
0.006251	582.583
0.008856	596.396
0.011461	604.805
0.014587	614.414
0.018754	621.622
0.023964	630.03
0.030215	639.64
0.035946	645.045
0.044281	650.45
0.053658	655.856
0.061993	661.862
0.088041	670.871
0.110442	676.877
0.132322	680.48
0.154722	685.886
0.176602	688.288
0.198482	691.892
0.243284	694.895
0.282356	696.096
0.323511	702.102
0.364145	705.706
0.405821	708.709
0.424054	709.309
0.445413	711.712
0.46573	712.312
0.485006	713.513
0.506365	715.315
0.526682	716.517
0.545436	718.318
0.566795	718.919
0.587633	720.12
0.606908	719.52
0.619411	720.12
0.634519	720.721
0.648063	720.721
0.661087	721.321
0.674111	722.523
0.688176	724.925
0.702763	725.526
0.71735	726.727
0.731936	728.529
0.746002	730.33
0.760068	731.532
0.774133	733.333
0.788199	734.535
0.802786	736.336
0.817372	738.138
0.831438	739.339
0.844983	740.541
0.859569	742.943
0.872593	744.745
0.883533	746.547
0.896036	748.949
0.907497	751.351
0.919479	754.955
0.933544	760.36
0.943963	764.565
0.955424	769.97
0.985119	796.396
1.00231	840.841
0.047407	664.264
0.100023	682.883
0.140657	691.892
0.184938	697.297
0.233386	700.901
0.283918	702.703
0.334972	705.105
0.386025	706.907
0.437078	709.91
0.48761	716.517
0.537101	729.73
0.610034	732.132
0.620974	732.733
0.633998	733.333
0.641812	734.535
0.649105	733.934
0.65744	733.333
0.665255	733.934
0.676195	734.535
0.685572	735.135
0.694949	735.135
0.703284	736.336
0.712661	737.538
0.719954	736.937
0.726727	738.138
0.734541	738.739
0.742876	739.94
0.750691	739.94
0.760068	741.141
0.770487	741.141
0.779343	741.742
0.789241	742.342
0.79966	744.144
0.808516	745.345
0.817372	746.547
0.866863	751.351
0.921042	762.763
0.992933	812.012
