Adsorption isotherm of Nitrogen on PI-COF-5
DOI: 10.1021/jacs.5b04147
Article source: Figure 3
Adsorbate Nitrogen: InChIKey IJGRMHOSHXDMSA-UHFFFAOYSA-N
Kind: experiment
Temperature: 77 K
Tabular data in the source: 0
pressure (bar)	uptake (cm3(STP)/g)
0	27.6276
0.000521	58.8589
0.000521	87.6877
0	115.916
0	147.147
0	176.577
0	204.204
0	234.234
0.000521	263.063
0	291.892
0.000521	320.12
0.000521	347.748
0.001042	376.577
0.002605	403.003
0.003126	425.826
0.00521	448.649
0.007293	465.465
0.01094	476.276
0.016149	488.288
0.022401	496.096
0.02761	500.3
0.033862	506.907
0.041676	511.111
0.050011	515.916
0.062514	521.321
0.08752	527.327
0.110442	532.733
0.132322	536.336
0.153681	538.739
0.176081	541.742
0.197961	542.943
0.242763	544.144
0.281835	545.345
0.323511	547.748
0.364145	548.949
0.385504	550.15
0.406342	550.751
0.425096	551.351
0.444892	551.952
0.46573	552.553
0.486047	552.553
0.525119	553.153
0.566274	551.952
0.606387	550.751
0.617848	550.751
0.631393	550.15
0.639207	550.15
0.649626	549.55
0.660045	549.55
0.670985	549.55
0.680883	550.15
0.689218	549.55
0.700679	549.55
0.711619	549.55
0.722559	549.55
0.731936	548.949
0.743918	547.748
0.754337	547.748
0.766319	548.348
0.780385	548.949
0.792888	548.949
0.802786	547.748
0.813726	548.949
0.826229	549.55
0.836648	549.55
0.844983	550.15
0.857486	550.751
0.869988	551.351
0.880407	551.952
0.891868	552.553
0.903329	553.153
0.915832	554.354
0.928335	554.354
0.939796	555.556
0.955424	556.757
0.982514	563.964
0.998663	577.177
0.047407	529.129
0.101065	542.342
0.135968	545.345
0.184938	548.949
0.233907	549.55
0.284439	550.15
0.335493	549.55
0.386025	550.751
0.437078	550.751
0.48761	553.754
0.537101	556.156
0.606387	562.763
0.617848	562.763
0.627225	562.162
0.636602	562.763
0.647542	562.162
0.659524	561.562
0.671506	560.36
0.681404	559.76
0.69026	560.36
0.701721	560.36
0.711619	559.76
0.720996	560.36
0.730374	559.76
0.742355	559.76
0.753816	559.159
0.764756	559.159
0.773092	559.76
0.785594	559.159
0.796534	558.559
0.806953	558.559
0.816851	557.958
0.867384	558.559
0.92	560.36
0.992933	574.775
