Adsorption isotherm of Carbon Dioxide on mmen-Mg2(dobpdc)
DOI: 10.1039/c4ta06496h
Article source: Figure 3a- third
Adsorbate Carbon Dioxide: InChIKey CURLTUGMZLYLDI-UHFFFAOYSA-N
Kind: experiment
Temperature: 298 K
Tabular data in the source: 0
pressure (bar)	uptake (mmol/kg)
0.00032	0.08591
0.000325	0.13133
0.000334	0.23715
0.000359	0.29766
0.000359	0.29904
0.000381	0.36991
0.000394	0.50641
0.000398	0.52165
0.000446	0.58753
0.000506	0.65091
0.000804	0.72424
0.001248	0.79106
0.002067	0.83284
0.002831	0.85452
0.003847	0.86349
0.004904	0.87641
0.006099	0.88337
0.007786	0.89264
0.009021	0.89682
0.010332	0.90297
0.011636	0.9012
0.012946	0.9026
0.014216	0.90955
0.015523	0.91134
0.01683	0.91076
0.018179	0.90978
0.019465	0.91276
0.021173	0.9141
0.022511	0.91352
0.023818	0.91491
0.025067	0.9187
0.026388	0.9193
0.027685	0.92268
0.028982	0.9221
0.030286	0.9235
0.031556	0.92926
0.033294	0.93179
0.034608	0.9312
0.035902	0.93102
0.037664	0.93116
0.039509	0.93011
0.040792	0.92953
0.042099	0.9337
0.043365	0.93312
0.044652	0.93413
0.046425	0.93427
0.047698	0.93528
0.048942	0.94448
