Adsorption isotherm of Carbon Dioxide on mmen-Mg2(dobpdc)
DOI: 10.1039/c4ta06496h
Article source: Figure 4a- 323
Adsorbate Carbon Dioxide: InChIKey CURLTUGMZLYLDI-UHFFFAOYSA-N
Kind: experiment
Temperature: 323 K
Tabular data in the source: 0
pressure (bar)	uptake (mmol/kg)
0.001322	1.47973
0.001362	1.6382
0.001362	1.63782
0.001375	1.71774
0.001376	1.39893
0.001397	1.32467
0.001408	0.89027
0.001415	0.95117
0.001416	0.62304
0.001417	1.26593
0.001418	1.09014
0.001418	1.07857
0.001422	1.01642
0.001425	1.12698
0.001426	1.13475
0.001426	1.14047
0.001428	1.14009
0.00145	0.57487
0.001467	1.79447
0.001538	1.87432
0.001569	1.95323
0.001592	2.02376
0.001627	0.49342
0.00163	0.66697
0.001643	2.16855
0.001653	2.24033
0.001654	0.45054
0.001683	2.31086
0.00177	0.40857
0.00177	0.39904
0.001788	2.38821
0.001794	0.19509
0.001828	0.26686
0.001846	2.46339
0.001862	0.16369
0.001894	2.53703
0.001975	2.60786
0.00207	2.6762
0.002195	2.74609
0.002328	2.8079
0.002576	2.86533
0.002817	2.91624
0.003011	2.95784
0.003174	2.97707
0.003422	3.00468
0.003673	3.02514
0.004305	3.07815
0.004805	3.09203
0.005372	3.12175
0.006195	3.15328
0.007646	3.18095
0.008829	3.2003
0.009998	3.21063
0.011201	3.22748
0.012397	3.23998
0.014002	3.2496
0.015235	3.26086
0.0165	3.26123
0.017774	3.27278
0.019035	3.27781
0.020289	3.2844
0.021533	3.28974
0.022784	3.29726
0.024042	3.30292
0.025313	3.30546
0.026567	3.31391
0.027808	3.31895
0.029041	3.32088
0.030387	3.32745
0.03158	3.3328
0.03281	3.3366
0.034099	3.33914
0.035339	3.34169
0.03661	3.34951
0.038034	3.34892
0.039051	3.34996
0.0404	3.35
0.041651	3.3597
0.042919	3.36255
0.044217	3.36447
0.045396	3.36921
0.046586	3.3727
0.04782	3.3681
0.049125	3.37281
