Adsorption isotherm of Carbon Dioxide on mmen-Mg2(dobpdc)
DOI: 10.1039/c4ta06496h
Article source: Figure 3a- first
Adsorbate Carbon Dioxide: InChIKey CURLTUGMZLYLDI-UHFFFAOYSA-N
Kind: experiment
Temperature: 298 K
Tabular data in the source: 0
pressure (bar)	uptake (mmol/kg)
0.000281	2.79044
0.000332	2.8698
0.0004	3.08923
0.000411	3.08929
0.000421	3.08339
0.001796	3.28588
0.00213	3.30128
0.002811	3.32319
0.003763	3.35157
0.00472	3.36395
0.005767	3.37132
0.007797	3.38756
0.009034	3.3999
0.010267	3.40374
0.011706	3.43056
0.013102	3.43438
0.014171	3.43974
0.015593	3.45006
0.016895	3.4524
0.018395	3.46071
0.019713	3.46734
0.020986	3.47273
0.022145	3.47219
0.023445	3.47718
0.024732	3.4798
0.025997	3.48956
0.027239	3.49416
0.028498	3.50154
0.029787	3.50257
0.031176	3.51112
0.032339	3.51534
0.033618	3.52152
0.035445	3.52963
0.036605	3.53662
0.042047	3.5522
0.043343	3.56592
0.044489	3.56499
0.045625	3.57198
0.04675	3.57621
0.047961	3.57645
0.049309	3.5858
