Adsorption isotherm of Carbon Dioxide on mmen-Mg2(dobpdc)
DOI: 10.1039/c4ta06496h
Article source: Figure 4a- 348
Adsorbate Carbon Dioxide: InChIKey CURLTUGMZLYLDI-UHFFFAOYSA-N
Kind: experiment
Temperature: 348 K
Tabular data in the source: 0
pressure (bar)	uptake (mmol/kg)
0.000571	0.03703
0.001483	0.05023
0.002083	0.05801
0.003317	0.07279
0.004251	0.08171
0.005142	0.09024
0.006007	0.09838
0.007923	0.13028
0.00912	0.14759
0.009973	0.89828
0.010071	1.04271
0.010119	0.69248
0.010164	0.17957
0.010203	1.21254
0.010421	1.34658
0.010618	1.47408
0.010655	1.54267
0.010735	0.44359
0.010784	1.66301
0.011089	0.23652
0.011097	0.23616
0.011338	1.92079
0.011685	2.04671
0.011994	2.17514
0.01232	2.2995
0.012721	2.41762
0.013173	2.52638
0.013727	2.62702
0.014299	2.7077
0.015047	2.78774
0.015815	2.85375
0.016692	2.91787
0.017631	2.96795
0.019045	3.02483
0.020069	3.05432
0.021177	3.08131
0.022232	3.10893
0.023412	3.12842
0.024626	3.15041
0.025751	3.16866
0.026945	3.18379
0.028118	3.19861
0.029383	3.2128
0.030546	3.22824
0.031781	3.23557
0.032998	3.23979
0.034668	3.25673
0.035899	3.26187
0.037079	3.27451
0.038333	3.27934
0.03952	3.28792
0.040782	3.29993
0.042411	3.3097
0.043662	3.31484
0.045335	3.31962
0.046577	3.32602
0.047859	3.32929
0.049107	3.33537
