Adsorption isotherm of Carbon Dioxide on mmen-Mg2(dobpdc)
DOI: 10.1039/c4ta06496h
Article source: Figure 4a- 298
Adsorbate Carbon Dioxide: InChIKey CURLTUGMZLYLDI-UHFFFAOYSA-N
Kind: experiment
Temperature: 298 K
Tabular data in the source: 0
pressure (bar)	uptake (mmol/kg)
0.000105	0.04105
0.000112	0.02051
0.000122	0.36178
0.000126	0.06593
0.000129	0.1857
0.000143	0.10077
0.000149	0.29831
0.000153	0.15023
0.000159	0.23889
0.000163	0.41621
0.000166	0.5982
0.000172	0.70584
0.000172	0.6999
0.000173	0.62725
0.000175	0.7805
0.000192	0.93324
0.000196	0.8704
0.000199	0.99981
0.000209	1.15162
0.000226	1.08131
0.000241	2.23048
0.000244	2.43549
0.00026	1.21848
0.00026	1.22161
0.000283	1.5075
0.000286	2.05906
0.000291	2.67502
0.000292	1.93549
0.000293	1.92
0.000296	1.56256
0.000302	2.62058
0.000305	2.75092
0.000307	1.40888
0.00031	1.82729
0.000317	1.73521
0.00033	1.66179
0.000352	2.82527
0.000413	2.89432
0.000488	2.97208
0.00058	3.04081
0.000739	3.10643
0.000984	3.16021
0.001392	3.21085
0.001895	3.2509
0.002582	3.27816
0.003425	3.30478
0.004224	3.31647
0.00487	3.3285
0.005907	3.33767
0.007783	3.35292
0.009068	3.35924
0.010326	3.37055
0.011584	3.37595
0.012866	3.38352
0.014158	3.3858
0.015436	3.39025
0.016741	3.39129
0.01805	3.39512
0.019393	3.39926
0.020654	3.40061
0.021906	3.40072
0.023255	3.40423
0.024533	3.41305
0.025825	3.41408
0.027066	3.42353
0.028314	3.42239
0.029619	3.42778
0.030833	3.43723
0.032084	3.44418
0.033332	3.44802
0.034624	3.45559
0.036341	3.4634
0.038139	3.46871
0.039438	3.4741
0.040631	3.48013
0.042392	3.48669
0.043657	3.49457
0.044864	3.50215
0.046628	3.50996
0.047883	3.51224
0.04909	3.51516
