Adsorption isotherm of Carbon Dioxide on mmen-Mg2(dobpdc)
DOI: 10.1039/c4ta06496h
Article source: Figure 3a- second
Adsorbate Carbon Dioxide: InChIKey CURLTUGMZLYLDI-UHFFFAOYSA-N
Kind: experiment
Temperature: 298 K
Tabular data in the source: 0
pressure (bar)	uptake (mmol/kg)
0.000106	0.48149
0.000127	0.54426
0.00013	0.62649
0.000134	0.77229
0.00014	0.71508
0.000151	0.42825
0.000154	0.91213
0.000161	0.82949
0.000164	0.99833
0.000185	1.22041
0.000192	1.15168
0.000209	1.51478
0.000219	1.77499
0.000226	1.61926
0.000236	1.92833
0.000243	1.54656
0.000246	2.39632
0.000253	2.34825
0.00026	2.45352
0.000274	2.53218
0.000311	2.58661
0.000356	2.70857
0.00037	2.63746
0.000394	2.88179
0.000404	2.87661
0.000513	3.10425
0.000537	3.03155
0.00065	3.16225
0.000777	3.1984
0.000914	3.22859
0.001225	3.26078
0.001783	3.30408
0.002235	3.32276
0.00293	3.35296
0.003758	3.37283
0.004744	3.38435
0.005743	3.3935
0.007749	3.41378
0.009012	3.41696
0.010265	3.42651
0.011614	3.43685
0.012897	3.44401
0.01417	3.44918
0.015427	3.45595
0.016785	3.45477
0.018065	3.46232
0.019305	3.4679
0.020629	3.4687
0.021998	3.47109
0.023268	3.4723
0.024521	3.48303
0.025907	3.489
0.026985	3.4914
0.028385	3.49498
0.029682	3.50333
0.03086	3.51288
0.032164	3.51726
0.033502	3.52363
0.034618	3.53079
0.036463	3.53358
0.038102	3.54472
0.039345	3.55069
0.040574	3.55626
0.04249	3.56223
0.043664	3.56899
0.044962	3.57774
0.046748	3.57975
0.048011	3.5881
0.049281	3.5897
