Adsorption isotherm of Hydrogen on Zn(bdc)(ted)0.5
DOI: 10.1039/C2ta00907b
Adsorbate Hydrogen: InChIKey UFHFLCQGNIYNRP-UHFFFAOYSA-N
Temperature: 298 K
Tabular data in the source: 0
pressure (bar)	uptake (mmol/g)
0.0398065	0.00165869
0.0955512	0.00422083
0.134315	0.00622891
0.178098	0.008504
0.328742	0.0161621
0.539944	0.0265454
0.781469	0.0380476
1.08786	0.0550669
1.57448	0.0789276
2.34626	0.109873
2.93467	0.130902
3.8913	0.173573
5.46994	0.239287
9.43196	0.381712
