Adsorption isotherm of Hydrogen on (LiCl)[Zn(bdc)(ted)0.5]
DOI: 10.1039/C2ta00907b
Adsorbate Hydrogen: InChIKey UFHFLCQGNIYNRP-UHFFFAOYSA-N
Temperature: 298 K
Tabular data in the source: 0
pressure (bar)	uptake (mmol/g)
0.0517653	0.171893
0.119514	0.170228
0.21847	0.176984
0.423365	0.187623
0.612743	0.195068
0.812481	0.202809
1.25879	0.206794
1.66913	0.223533
2.10813	0.234676
2.96337	0.246374
3.92935	0.258656
4.96282	0.276885
7.04436	0.246374
