Adsorption isotherm of Hydrogen on (LiCl)[Zn(bdc)(ted)0.5]
DOI: 10.1039/C2ta00907b
Adsorbate Hydrogen: InChIKey UFHFLCQGNIYNRP-UHFFFAOYSA-N
Temperature: 298 K
Tabular data in the source: 0
pressure (bar)	uptake (mmol/g)
0.0433639	0.00121718
0.593952	0.000562
1.02219	0.000562
1.52689	0.00187264
1.92454	0.00580541
2.30689	0.0261247
2.70454	0.0549651
3.30101	0.0864273
3.66807	0.116579
4.43278	0.138864
4.6316	0.159184
4.81513	0.160494
5.05983	0.171637
5.22807	0.189335
5.38101	0.193268
5.59513	0.184091
5.94689	0.199167
6.16101	0.220142
6.40572	0.216209
6.58925	0.228007
6.72689	0.245705
