Adsorption isotherm of Nitrogen on Zn(bdc)(ted)0.5
DOI: 10.1039/C2ta00907b
Adsorbate Nitrogen: InChIKey IJGRMHOSHXDMSA-UHFFFAOYSA-N
Temperature: 77 K
Tabular data in the source: 0
pressure (bar)	uptake (mmol/g)
0.000865	2.56357
0.00229475	0.732983
0.00229475	10.4007
0.00229475	13.7759
0.00229475	14.8342
0.00372489	16.7506
0.025177	18.7242
0.0923938	18.8386
0.238268	18.8672
0.374132	18.8958
0.489974	18.8672
0.574352	18.8672
0.667311	18.8672
0.75312	18.8386
0.843219	18.8958
0.921877	18.8958
0.989093	18.953
