Adsorption isotherm of Carbon Dioxide on Zn(bdc)(ted)0.5
DOI: 10.1039/C2ta00907b
Adsorbate Carbon Dioxide: InChIKey CURLTUGMZLYLDI-UHFFFAOYSA-N
Temperature: 298 K
Tabular data in the source: 0
pressure (bar)	uptake (mmol/g)
0.00766349	0.0193132
0.00946141	0.0237659
0.0156076	0.0381852
0.0234788	0.058396
0.0339509	0.085844
0.0545496	0.139297
0.0799261	0.202758
0.130122	0.29806
0.525691	1.0349
0.790802	1.55169
1.01568	1.9864
1.28745	2.59363
2.39109	4.83287
3.41233	6.50007
4.44082	7.46421
7.42276	9.00538
