Adsorption isotherm of Nitrogen on (LiCl)[Zn(bdc)(ted)0.5]
DOI: 10.1039/C2ta00907b
Adsorbate Nitrogen: InChIKey IJGRMHOSHXDMSA-UHFFFAOYSA-N
Temperature: 77 K
Tabular data in the source: 0
pressure (bar)	uptake (mmol/g)
0.00372489	1.04761
0.00372489	2.99261
0.00515504	0.246734
0.00515504	4.10812
0.00944547	4.96621
0.0523498	5.13782
0.128147	5.30944
0.195364	5.30944
0.249709	5.33804
0.35268	5.45246
0.45279	5.42385
0.547179	5.50966
0.65158	5.53826
0.740249	5.65267
0.800315	5.79569
0.900425	6.48216
0.940469	6.82539
0.976222	7.11142
0.987663	7.48326
