Adsorption isotherm of Carbon Dioxide on (LiCl)[Zn(bdc)(ted)0.5]
DOI: 10.1039/C2ta00907b
Adsorbate Carbon Dioxide: InChIKey CURLTUGMZLYLDI-UHFFFAOYSA-N
Temperature: 298 K
Tabular data in the source: 0
pressure (bar)	uptake (mmol/g)
0.0689074	0.0169319
0.601302	0.143692
1.15341	0.253552
1.94215	0.428199
2.5337	0.571862
3.31257	0.769045
3.91398	0.957777
4.46609	1.14651
4.99848	1.36059
5.59003	1.57186
6.15201	1.78595
6.7337	2.04228
