Adsorption isotherm of Carbon Dioxide on (LiCl)[Zn(bdc)(ted)0.5]
DOI: 10.1039/C2ta00907b
Adsorbate Carbon Dioxide: InChIKey CURLTUGMZLYLDI-UHFFFAOYSA-N
Temperature: 298 K
Tabular data in the source: 0
pressure (bar)	uptake (mmol/g)
0.0664661	0.46953
0.34037	1.0349
0.623875	1.23631
0.833586	1.32483
1.17405	1.41968
1.67548	1.49157
2.23869	1.59837
3.54988	1.81741
4.80603	1.92839
6.09195	2.04615
6.94964	1.94754
