Adsorption isotherm of Nitrogen on CDC-1300-1000
DOI: 10.1021/Jp808470s
Adsorbate Nitrogen: InChIKey IJGRMHOSHXDMSA-UHFFFAOYSA-N
Temperature: 77 K
Tabular data in the source: 0
pressure (bar)	uptake (cm3(STP)/g)
0.0149343	333.348
0.0498923	405.449
0.104514	451.331
0.167876	484.105
0.257455	497.214
0.340481	510.323
0.419136	523.432
0.51527	529.987
0.578632	529.987
0.663842	529.987
0.749052	529.987
0.840817	529.987
0.941321	536.542
0.995943	529.987
