Adsorption isotherm of Nitrogen on CDC-3-1300-1000
DOI: 10.1021/Jp808470s
Adsorbate Nitrogen: InChIKey IJGRMHOSHXDMSA-UHFFFAOYSA-N
Temperature: 77 K
Tabular data in the source: 0
pressure (bar)	uptake (cm3(STP)/g)
0.0171192	503.768
0.0193041	2017.89
0.0695562	2103.1
0.137287	2201.42
0.253086	2339.06
0.333926	2437.38
0.454094	2575.03
0.548044	2686.46
0.626699	2765.11
0.676951	2824.1
0.744682	2883.1
0.851741	2915.87
0.939136	2935.53
0.976279	2994.52
0.995943	3073.18
