Adsorption isotherm of Nitrogen on CDC-3-1000-1000
DOI: 10.1021/Jp808470s
Adsorbate Nitrogen: InChIKey IJGRMHOSHXDMSA-UHFFFAOYSA-N
Temperature: 77 K
Tabular data in the source: 0
pressure (bar)	uptake (cm3(STP)/g)
0.00837971	120.792
0.00837971	458.355
0.0280436	514.069
0.0979595	602.556
0.185355	704.153
0.274934	805.75
0.388548	894.237
0.475943	982.725
0.561153	1048.27
0.69443	1084.32
0.827707	1126.93
0.934766	1162.98
0.982834	1189.2
0.993758	1297.35
