Adsorption isotherm of Nitrogen on OM-SiC-3-1000
DOI: 10.1021/Jp808470s
Adsorbate Nitrogen: InChIKey IJGRMHOSHXDMSA-UHFFFAOYSA-N
Temperature: 77 K
Tabular data in the source: 0
pressure (bar)	uptake (cm3(STP)/g)
0.00619484	32.3044
0.0149343	101.128
0.0651864	133.901
0.148212	173.229
0.226867	196.17
0.292413	222.388
0.366699	248.607
0.432245	287.935
0.493422	327.262
0.530565	376.422
0.611405	392.809
0.711909	396.086
0.812413	402.641
0.908548	409.195
0.991573	419.027
