Adsorption isotherm of Nitrogen on CDC-5-1000-850 DVB
DOI: 10.1021/Jp808470s
Adsorbate Nitrogen: InChIKey IJGRMHOSHXDMSA-UHFFFAOYSA-N
Temperature: 77 K
Tabular data in the source: 0
pressure (bar)	uptake (cm3(STP)/g)
0.0149343	510.323
0.0193041	988.81
0.0542621	1074.02
0.115439	1159.23
0.194094	1257.55
0.283674	1355.87
0.379808	1480.41
0.43443	1526.29
0.499976	1604.94
0.574262	1696.71
0.659472	1755.7
0.768716	1775.37
0.871405	1808.14
0.974094	1847.47
0.998128	1893.35
