Adsorption isotherm of Nitrogen on CDC-3-1000-1000
DOI: 10.1021/Jp808470s
Adsorbate Nitrogen: InChIKey IJGRMHOSHXDMSA-UHFFFAOYSA-N
Temperature: 77 K
Tabular data in the source: 0
pressure (bar)	uptake (cm3(STP)/g)
0.0193041	516.878
0.0236738	1500.07
0.0848503	1598.39
0.185355	1690.16
0.303338	1814.69
0.44317	1952.34
0.552413	2044.1
0.676951	2089.99
0.749052	2109.65
0.849556	2148.98
0.930396	2162.09
0.974094	2188.31
0.998128	2312.84
