Adsorption isotherm of Hydrogen on GaMOF-1
DOI: 10.1021/Ic101789u
Adsorbate Hydrogen: InChIKey UFHFLCQGNIYNRP-UHFFFAOYSA-N
Temperature: 77 K
Tabular data in the source: 0
pressure (bar)	uptake (cm3(STP)/g)
0.00182509	2.38774
0.0127495	7.63143
0.0280436	13.3121
0.0498923	18.5558
0.0804806	23.581
0.121993	29.2617
0.154766	32.4298
0.196279	35.5978
0.246531	38.7659
0.314262	41.2785
0.399472	44.1188
0.495607	46.7407
0.628884	49.144
0.709724	50.3457
0.797119	50.7827
0.891069	51.2197
