Adsorption isotherm of Hydrogen on GaMOF-1
DOI: 10.1021/Ic101789u
Adsorbate Hydrogen: InChIKey UFHFLCQGNIYNRP-UHFFFAOYSA-N
Temperature: 87 K
Tabular data in the source: 0
pressure (bar)	uptake (cm3(STP)/g)
0.00837971	-0.0156243
0.021489	4.46337
0.0433377	8.72387
0.0848503	13.2029
0.119808	17.7911
0.154766	20.9592
0.250901	27.4045
0.309892	30.3541
0.392918	34.0684
0.502161	37.455
0.631069	40.7323
0.709724	42.4802
0.797119	43.5726
0.893254	44.3373
0.995943	45.539
