Adsorption isotherm of Tetrachloroethene on Zeolite LiX
DOI: 10.1021/Ie0616390
Adsorbate Tetrachloroethene: InChIKey CYTYCFOTNPOANT-UHFFFAOYSA-N
Temperature: 298 K
Tabular data in the source: 0
pressure (bar)	uptake (molecules/supercage)
0.000226	0.00358227
0.00263407	1.94858
0.0827221	2.6236
0.271501	2.7895
0.381336	2.84099
