Adsorption isotherm of Tetrachloroethene on Zeolite CsX
DOI: 10.1021/Ie0616390
Adsorbate Tetrachloroethene: InChIKey CYTYCFOTNPOANT-UHFFFAOYSA-N
Temperature: 298 K
Tabular data in the source: 0
pressure (bar)	uptake (molecules/supercage)
0.00377819	1.07905
0.115329	1.3708
0.270357	1.46805
0.365318	1.50809
