Adsorption isotherm of Tetrachloroethene on Zeolite 13X
DOI: 10.1021/Ie0616390
Adsorbate Tetrachloroethene: InChIKey CYTYCFOTNPOANT-UHFFFAOYSA-N
Temperature: 298 K
Tabular data in the source: 0
pressure (bar)	uptake (molecules/supercage)
0.000346	1.13054
0.00148996	1.97146
0.00206202	0.27817
0.0358134	3.0126
0.252623	3.28147
0.356737	3.39016
0.412227	3.47025
