Adsorption isotherm of Tetrachloroethene on Zeolite KX
DOI: 10.1021/Ie0616390
Adsorbate Tetrachloroethene: InChIKey CYTYCFOTNPOANT-UHFFFAOYSA-N
Temperature: 298 K
Tabular data in the source: 0
pressure (bar)	uptake (molecules/supercage)
0.00263407	0.266729
0.0049223	0.701492
0.00606641	1.61106
0.0180796	2.49203
0.175395	2.84671
0.321842	3.0126
