Adsorption isotherm of Carbon Dioxide on Cu-MOF
DOI: 10.1039/C3ra42213e
Adsorbate Carbon Dioxide: InChIKey CURLTUGMZLYLDI-UHFFFAOYSA-N
Temperature: 298 K
Tabular data in the source: 0
pressure (bar)	uptake (mmol/g)
0.0837971	0.0374528
0.433377	0.234091
1.11069	0.60115
3.05523	1.72855
6.07035	3.31476
8.05859	4.35039
9.98128	5.26804
