Adsorption isotherm of Hydrogen on Cu-MOF
DOI: 10.1039/C3ra42213e
Adsorbate Hydrogen: InChIKey UFHFLCQGNIYNRP-UHFFFAOYSA-N
Temperature: 298 K
Tabular data in the source: 0
pressure (bar)	uptake (mmol/g)
0.324133	0.0505621
1.08884	0.116108
3.07707	0.207873
6.02665	0.312747
8.05859	0.391402
9.93758	0.417621
