Adsorption isotherm of Carbon Dioxide on Cu-MOF
DOI: 10.1039/C3ra42213e
Adsorbate Carbon Dioxide: InChIKey CURLTUGMZLYLDI-UHFFFAOYSA-N
Temperature: 298 K
Tabular data in the source: 0
pressure (bar)	uptake (mmol/g)
0.00441096	0.0149791
0.0837219	0.259685
0.16784	0.504391
0.273587	0.784055
0.398562	1.16859
0.51152	1.55313
0.624478	1.92019
0.744646	2.32221
0.896058	2.86405
1.04026	3.37095
1.08112	3.52826
