Adsorption isotherm of Hydrogen on Cu-MOF
DOI: 10.1039/C3ra42213e
Adsorbate Hydrogen: InChIKey UFHFLCQGNIYNRP-UHFFFAOYSA-N
Temperature: 77 K
Tabular data in the source: 0
pressure (bar)	uptake (mmol/g)
0.00619484	0.561818
0.0477074	2.17862
0.102329	3.83913
0.202833	6.0677
0.397287	8.90804
0.598296	10.787
0.801489	12.1853
0.995943	13.1467
