Adsorption isotherm of Carbon Dioxide on Cu-MOF
DOI: 10.1039/C3ra42213e
Adsorbate Carbon Dioxide: InChIKey CURLTUGMZLYLDI-UHFFFAOYSA-N
Temperature: 298 K
Tabular data in the source: 0
pressure (bar)	uptake (mmol/g)
0.00921768	0.119853
0.100545	0.731618
0.199083	1.36086
0.396159	2.63683
0.600445	3.77296
0.79752	4.83918
1.00421	5.83548
1.09313	6.20254
