Adsorption isotherm of Hydrogen on Cu-MOF
DOI: 10.1039/C3ra42213e
Adsorbate Hydrogen: InChIKey UFHFLCQGNIYNRP-UHFFFAOYSA-N
Temperature: 77 K
Tabular data in the source: 0
pressure (bar)	uptake (mmol/g)
0.00837971	0.998792
0.0498923	3.88283
0.0979595	6.19879
0.198464	9.08283
0.399472	12.4912
0.598296	14.4139
0.792749	15.8996
0.995943	17.0795
