Adsorption isotherm of Carbon Dioxide on Cu-MOF
DOI: 10.1039/C3ra42213e
Adsorbate Carbon Dioxide: InChIKey CURLTUGMZLYLDI-UHFFFAOYSA-N
Temperature: 298 K
Tabular data in the source: 0
pressure (bar)	uptake (mmol/g)
0.00921768	0.137332
0.107755	0.434475
0.206293	0.766576
0.408176	1.51817
0.602848	2.28725
0.80473	3.0738
0.994596	3.79044
1.09794	4.14002
