Adsorption isotherm of Hydrogen on Cu-MOF
DOI: 10.1039/C3ra42213e
Adsorbate Hydrogen: InChIKey UFHFLCQGNIYNRP-UHFFFAOYSA-N
Temperature: 77 K
Tabular data in the source: 0
pressure (bar)	uptake (mmol/g)
0.00400996	0.16854
0.0433377	1.56686
0.0826654	2.6593
0.117623	3.66434
0.194094	5.23745
0.277119	6.54837
0.395102	8.12148
0.539304	9.6072
0.661657	10.5685
0.810228	11.661
0.967539	12.5349
