Adsorption isotherm of N-Hexane on CuBTC
DOI: 10.1016/j.ces.2013.03.006
Adsorbate N-Hexane: InChIKey VLKZOEOYAKHREP-UHFFFAOYSA-N
Temperature: 313 K
Tabular data in the source: 0
pressure (bar)	uptake (mmol/g)
0.00313999	4.05693
0.0041144	4.1821
0.00501143	4.24836
0.00628502	4.34408
0.00860438	4.39562
0.0115243	4.46188
0.0153229	4.49133
0.0208248	4.53551
0.0270886	4.54287
0.0344728	4.60177
0.0448418	4.60177
0.0550187	4.58705
0.0742299	4.58705
0.0846607	4.6165
0.103119	4.62386
0.127449	4.6165
0.165784	4.63122
0.21565	4.63122
