Adsorption isotherm of N-Hexane on CuBTC
DOI: 10.1016/j.ces.2013.03.006
Adsorbate N-Hexane: InChIKey VLKZOEOYAKHREP-UHFFFAOYSA-N
Temperature: 313 K
Tabular data in the source: 0
pressure (bar)	uptake (mmol/g)
0.00320956	1.73033
0.00539121	1.84077
0.00794005	1.87022
0.0106346	1.9144
0.0157772	1.94385
0.0209775	1.9733
0.0265015	1.99539
0.0315797	1.98803
0.0365473	1.99539
0.0471943	2.01011
0.0522761	2.01011
0.0550187	2.01011
0.06321	2.01011
0.0670139	2.01011
0.0852814	2.02484
0.104636	2.02484
0.113391	2.01748
0.123779	2.0322
0.130273	2.03956
0.14325	2.03956
0.159838	2.0322
0.18908	2.02484
0.214081	2.0322
0.231992	2.01011
0.260755	2.01011
