Adsorption isotherm of N-Hexane on CuBTC
DOI: 10.1016/j.ces.2013.03.006
Adsorbate N-Hexane: InChIKey VLKZOEOYAKHREP-UHFFFAOYSA-N
Temperature: 313 K
Tabular data in the source: 0
pressure (bar)	uptake (mmol/g)
0.00304957	4.15265
0.00508518	4.27781
0.00776794	4.36617
0.0101785	4.38825
0.0152113	4.45452
0.0203734	4.49133
0.025551	4.51342
0.0300055	4.52815
0.0349801	4.55023
0.0448418	4.5576
0.051143	4.54287
0.0583297	4.56496
0.0720923	4.57232
0.0924168	4.59441
0.115903	4.6165
0.1443	4.63859
0.1707	4.63859
0.183636	4.63859
0.212522	4.64595
0.242386	4.62386
0.258857	4.62386
0.295232	4.63859
0.308459	4.63859
