Adsorption isotherm of Methanol on CuBTC
DOI: 10.1016/j.ces.2013.03.006
Adsorbate Methanol: InChIKey OKKJLVBELUTLKV-UHFFFAOYSA-N
Temperature: 313 K
Tabular data in the source: 0
pressure (bar)	uptake (mmol/g)
0.00143901	8.49258
0.00183062	8.77904
0.00248416	9.08142
0.00327351	9.39971
0.0045211	9.79757
0.00602805	10.1954
0.00757902	10.641
0.00930788	11.1344
0.0116342	11.6914
0.0136326	12.2802
0.01645	12.7895
0.0191627	13.3783
0.0228532	13.9353
0.0266218	14.4446
0.0315629	14.8743
0.0361259	15.304
0.0443666	15.6859
0.0532225	16.0042
0.0649806	16.2907
0.0774949	16.5135
0.103933	16.7044
0.12991	16.8318
0.165264	16.9113
0.197091	16.9272
