Adsorption isotherm of Methanol on CuBTC
DOI: 10.1016/j.ces.2013.03.006
Adsorbate Methanol: InChIKey OKKJLVBELUTLKV-UHFFFAOYSA-N
Temperature: 313 K
Tabular data in the source: 0
pressure (bar)	uptake (mmol/g)
0.00116002	8.05397
0.00190884	9.07679
0.00286909	9.4041
0.00376467	9.69049
0.00540802	10.1814
0.00727387	10.4501
0.00903863	10.7843
0.0109066	11.1821
0.0127052	11.6596
0.0161628	12.9327
0.0174447	13.0441
0.0179643	13.3147
0.0212986	14.0786
0.0294158	14.8584
0.0399175	15.3358
0.0526013	15.7018
0.0689096	16.1315
0.0892205	16.4498
0.116198	16.7363
0.149566	17.0068
0.188048	17.1978
