Adsorption isotherm of Methanol on CuBTC
DOI: 10.1016/j.ces.2013.03.006
Adsorbate Methanol: InChIKey OKKJLVBELUTLKV-UHFFFAOYSA-N
Temperature: 313 K
Tabular data in the source: 0
pressure (bar)	uptake (mmol/g)
0.00191865	5.51658
0.00286004	5.73938
0.00381333	5.9781
0.00565107	6.3123
0.00753465	6.58285
0.00964159	6.90114
0.0112315	7.21943
0.0130837	7.60137
0.01694	8.47667
0.0186084	8.81087
0.0209268	9.1769
0.0289023	9.95671
0.0387628	10.3387
0.0522934	10.7047
0.0701341	11.0389
0.0940614	11.4368
0.121786	11.8824
0.156758	12.2484
0.199419	12.5349
0.24926	13.1555
