Adsorption isotherm of Carbon Dioxide on CuBTC
DOI: 10.1021/La900283t
Adsorbate Carbon Dioxide: InChIKey CURLTUGMZLYLDI-UHFFFAOYSA-N
Temperature: 313 K
Tabular data in the source: 0
pressure (bar)	uptake (mmol/g)
0.0223168	0.0549737
0.0437689	0.100023
0.0666512	0.140782
0.0881033	0.200848
0.108125	0.250188
0.128147	0.297383
0.175342	0.383192
0.212526	0.473291
0.316926	0.644908
0.389864	0.728571
0.602955	1.04392
0.747399	1.21553
0.971932	1.53517
