Adsorption isotherm of Carbon Dioxide on IRMOF-3
DOI: 10.1021/La900283t
Adsorbate Carbon Dioxide: InChIKey CURLTUGMZLYLDI-UHFFFAOYSA-N
Temperature: 333 K
Tabular data in the source: 0
pressure (bar)	uptake (mmol/g)
0.0308976	0.0206503
0.0580703	0.0656998
0.0809526	0.0957328
0.109555	0.123621
0.133868	0.147218
0.15818	0.16867
0.211096	0.2223
0.261151	0.273786
0.391294	0.385337
0.465661	0.456129
0.673032	0.627746
0.796024	0.726426
1.04201	0.870155
