Adsorption isotherm of Carbon Dioxide on IRMOF-3
DOI: 10.1021/La900283t
Adsorbate Carbon Dioxide: InChIKey CURLTUGMZLYLDI-UHFFFAOYSA-N
Temperature: 313 K
Tabular data in the source: 0
pressure (bar)	uptake (mmol/g)
0.015166	0.0227955
0.0595005	0.0957328
0.106695	0.177251
0.149599	0.248043
0.208235	0.340287
0.271162	0.426096
0.35125	0.533357
0.432768	0.625601
0.547179	0.737152
0.667311	0.850848
0.787443	0.951673
0.923307	1.04392
1.03915	1.12115
