Adsorption isotherm of Carbon Dioxide on IRMOF-3
DOI: 10.1021/La900283t
Adsorbate Carbon Dioxide: InChIKey CURLTUGMZLYLDI-UHFFFAOYSA-N
Temperature: 313 K
Tabular data in the source: 0
pressure (bar)	uptake (mmol/g)
0.0267453	0.0401637
0.0549143	0.124671
0.078858	0.17115
0.108435	0.217629
0.135196	0.257769
0.157731	0.302136
0.212661	0.378192
0.261957	0.462699
0.390126	0.62115
0.464773	0.714107
0.673224	0.910586
0.798576	1.04791
1.04365	1.2127
