Adsorption isotherm of Carbon Dioxide on IRMOF-3
DOI: 10.1021/La900283t
Adsorbate Carbon Dioxide: InChIKey CURLTUGMZLYLDI-UHFFFAOYSA-N
Temperature: 353 K
Tabular data in the source: 0
pressure (bar)	uptake (mmol/g)
0.0127495	0.0126405
0.0739259	0.0749094
0.128548	0.120792
0.194094	0.169951
0.270565	0.23222
0.351405	0.294489
0.447539	0.363313
0.548044	0.432136
0.648548	0.504237
0.751237	0.559951
0.87359	0.628775
0.965355	0.674657
1.04183	0.72054
