Adsorption isotherm of Carbon Dioxide on CuBTC
DOI: 10.1021/La900283t
Adsorbate Carbon Dioxide: InChIKey CURLTUGMZLYLDI-UHFFFAOYSA-N
Temperature: 333 K
Tabular data in the source: 0
pressure (bar)	uptake (mmol/g)
0.0280373	0.00348857
0.0466292	0.037812
0.0680813	0.0614094
0.0866732	0.0785711
0.108125	0.104314
0.132438	0.134347
0.171052	0.175106
0.212526	0.2223
0.316926	0.323126
0.388433	0.396063
0.604385	0.582696
0.741679	0.700683
0.967641	0.923786
