Adsorption isotherm of Nitrogen on CuBTC
DOI: 10.1021/La900283t
Adsorbate Nitrogen: InChIKey IJGRMHOSHXDMSA-UHFFFAOYSA-N
Temperature: 295 K
Tabular data in the source: 0
pressure (bar)	uptake (mmol/g)
0.630016	0.184933
1.43842	0.408883
2.35607	0.654681
3.27371	0.878631
4.01657	1.07527
4.89052	1.26098
6.0485	1.51771
7.07539	1.70888
8.29892	1.92191
