Adsorption isotherm of Carbon Dioxide on CuBTC
DOI: 10.1021/La900283t
Adsorbate Carbon Dioxide: InChIKey CURLTUGMZLYLDI-UHFFFAOYSA-N
Temperature: 333 K
Tabular data in the source: 0
pressure (bar)	uptake (mmol/g)
0.0409086	0.0635546
0.0666512	0.0935876
0.0838129	0.121475
0.108125	0.151508
0.128147	0.185832
0.172482	0.250188
0.215386	0.299528
0.316926	0.441112
0.394154	0.516195
0.602955	0.737152
0.744539	0.893753
0.969071	1.14474
