Adsorption isotherm of Carbon Dioxide on IRMOF-3
DOI: 10.1021/La900283t
Adsorbate Carbon Dioxide: InChIKey CURLTUGMZLYLDI-UHFFFAOYSA-N
Temperature: 333 K
Tabular data in the source: 0
pressure (bar)	uptake (mmol/g)
0.0280373	0.0335216
0.075232	0.0914424
0.135298	0.162234
0.189643	0.226591
0.271162	0.310254
0.35983	0.400353
0.448499	0.479726
0.545749	0.56339
0.647289	0.636327
0.75026	0.713555
0.846079	0.773621
0.946189	0.835832
1.03629	0.887317
