Adsorption isotherm of Carbon Dioxide on IRMOF-3
DOI: 10.1021/La900283t
Adsorbate Carbon Dioxide: InChIKey CURLTUGMZLYLDI-UHFFFAOYSA-N
Temperature: 353 K
Tabular data in the source: 0
pressure (bar)	uptake (mmol/g)
0.0105646	0.0159178
0.0564469	0.0552456
0.0870352	0.0716321
0.108884	0.0847414
0.135102	0.107683
0.161321	0.137178
0.209388	0.166674
0.386363	0.24533
0.467203	0.291212
0.676951	0.425582
0.797119	0.497683
1.04401	0.602556
