Adsorption isotherm of Carbon Dioxide on CuBTC
DOI: 10.1021/La900283t
Adsorbate Carbon Dioxide: InChIKey CURLTUGMZLYLDI-UHFFFAOYSA-N
Temperature: 333 K
Tabular data in the source: 0
pressure (bar)	uptake (mmol/g)
0.0112524	0.031713
0.0422383	0.105657
0.0985763	0.226079
0.138013	0.32115
0.188717	0.420445
0.25914	0.549319
0.30421	0.633826
0.412661	0.798614
0.514069	0.948614
0.599985	1.06059
0.695759	1.17678
0.77745	1.26763
0.857731	1.34368
0.964773	1.45143
