Adsorption isotherm of Carbon Dioxide on CuBTC
DOI: 10.1021/La900283t
Adsorbate Carbon Dioxide: InChIKey CURLTUGMZLYLDI-UHFFFAOYSA-N
Temperature: 353 K
Tabular data in the source: 0
pressure (bar)	uptake (mmol/g)
0.00843546	0.0232623
0.0591397	0.0824172
0.123928	0.164812
0.219703	0.26622
0.288717	0.346502
0.356323	0.411995
0.445055	0.513403
0.536604	0.59791
0.609844	0.654952
0.688717	0.728896
0.776041	0.796502
0.874633	0.876783
0.973224	0.946502
