Adsorption isotherm of Nitrogen on CuBTC
DOI: 10.1021/La900283t
Adsorbate Nitrogen: InChIKey IJGRMHOSHXDMSA-UHFFFAOYSA-N
Temperature: 295 K
Tabular data in the source: 0
pressure (bar)	uptake (mmol/g)
0.957747	0.130311
2.02833	0.283252
3.01153	0.425269
4.01657	0.556362
6.00481	0.813084
7.0317	0.944177
7.99304	1.0425
8.97623	1.1572
9.98128	1.26098
