Adsorption isotherm of Nitrogen on CuBTC
DOI: 10.1021/La900283t
Adsorbate Nitrogen: InChIKey IJGRMHOSHXDMSA-UHFFFAOYSA-N
Temperature: 295 K
Tabular data in the source: 0
pressure (bar)	uptake (mmol/g)
0.0400996	0.0101432
1.02329	0.321488
2.00649	0.594597
2.98968	0.829471
4.06027	1.07527
4.95607	1.26098
5.98296	1.4467
6.96615	1.61056
8.03674	1.76897
8.99808	1.90552
9.93758	2.05846
