Adsorption isotherm of Nitrogen on CuBTC
DOI: 10.1021/La900283t
Adsorbate Nitrogen: InChIKey IJGRMHOSHXDMSA-UHFFFAOYSA-N
Temperature: 295 K
Tabular data in the source: 0
pressure (bar)	uptake (mmol/g)
1.21993	0.179471
2.00649	0.27779
2.6838	0.354261
3.38296	0.425269
3.97287	0.485353
4.47539	0.545437
5.08716	0.610983
5.87371	0.692916
7.0317	0.80216
7.8838	0.862244
8.62665	0.911404
9.6317	1.00972
