Adsorption isotherm of Carbon Dioxide on CuBTC
DOI: 10.1021/La900283t
Adsorbate Carbon Dioxide: InChIKey CURLTUGMZLYLDI-UHFFFAOYSA-N
Temperature: 353 K
Tabular data in the source: 0
pressure (bar)	uptake (mmol/g)
0.00984391	0.0232623
0.0492805	0.097206
0.0901256	0.162699
0.152097	0.249319
0.212661	0.348614
0.281675	0.439459
0.350689	0.53453
0.464773	0.667629
0.584492	0.813403
0.690126	0.925375
0.823928	1.0458
0.970407	1.1789
