Adsorption isotherm of Hydrogen on {[Zn3(L)3(DPB)1.5]-6DMF-H20}n
DOI: 10.1016/j.ica.2015.03.011
Article source: Figure 4
Adsorbate Hydrogen: InChIKey UFHFLCQGNIYNRP-UHFFFAOYSA-N
Kind: experiment
Temperature: 77 K
Tabular data in the source: 0
pressure (bar)	uptake (cm3(STP)/g)
0.008852	12.5812
0.011962	16.6106
0.018182	22.3805
0.036842	34.5404
0.052392	40.3821
0.080383	50.8971
0.099043	55.6183
0.117703	60.3395
0.142584	64.5363
0.158134	66.9448
0.183014	68.8528
0.198565	71.8334
0.211005	74.218
0.251435	78.5344
0.260766	79.7506
0.310526	82.9944
0.357177	86.7865
0.385167	89.2906
0.410048	90.0542
0.444258	92.6062
0.503349	96.494
0.55622	99.1895
0.590431	101.169
0.655742	103.388
0.752153	106.991
0.848565	110.021
0.926316	111.764
0.954306	113.124
1.03206	115.438
