Adsorption isotherm of Methane on {[Zn3(L)3(DPB)1.5]-6DMF-H20}n
DOI: 10.1016/j.ica.2015.03.011
Article source: Figure 5
Adsorbate Methane: InChIKey VNWKTOKETHGBQD-UHFFFAOYSA-N
Kind: experiment
Temperature: 273 K
Tabular data in the source: 0
pressure (bar)	uptake (cm3(STP)/g)
2.9e-05	0.632721
0.081742	2.45089
0.093835	2.45275
0.172515	4.06983
0.17858	4.472
0.269334	5.68971
0.281465	6.49405
0.366163	7.51021
0.378284	8.11393
0.466006	9.13056
0.481169	10.136
0.562816	10.5498
0.584026	11.5562
0.662668	12.3708
0.677813	12.975
0.765516	13.5904
0.786716	14.3961
0.886522	15.214
0.88654	15.6152
0.983332	16.6332
