Adsorption isotherm of Carbon Dioxide on {[Zn3(L)3(DPB)1.5]-6DMF-H20}n
DOI: 10.1016/j.ica.2015.03.011
Article source: Figure 5
Adsorbate Carbon Dioxide: InChIKey CURLTUGMZLYLDI-UHFFFAOYSA-N
Kind: experiment
Temperature: 273 K
Tabular data in the source: 0
pressure (bar)	uptake (cm3(STP)/g)
0.009174	2.23907
0.030533	6.45533
0.073176	13.2829
0.082348	15.4911
0.109707	18.7052
0.12488	19.9112
0.143141	22.5221
0.182592	25.7381
0.200835	27.9477
0.243282	30.5622
0.261515	32.5712
0.300902	34.3829
0.352456	37.8013
0.391833	39.4123
0.443369	42.4295
0.464541	42.6334
0.540282	46.0556
0.555407	46.2586
0.634153	49.28
0.658357	49.6849
0.731028	52.1036
0.761289	52.7101
0.824862	54.5254
0.867225	55.3344
0.91263	56.5452
0.970119	57.5571
1.05183	59.3753
