Adsorption isotherm of Nitrogen on {[Zn3(L)3(DPB)1.5]-6DMF-H20}n
DOI: 10.1016/j.ica.2015.03.011
Article source: Figure 4
Adsorbate Nitrogen: InChIKey IJGRMHOSHXDMSA-UHFFFAOYSA-N
Kind: experiment
Temperature: 77 K
Tabular data in the source: 0
pressure (bar)	uptake (cm3(STP)/g)
0.002632	11.9611
0.008852	124.734
0.033732	133.508
0.071053	138.373
0.099043	139.733
0.130144	142.261
0.142584	142.929
0.183014	144.956
0.204785	146.268
0.248325	147.748
0.279426	147.987
0.338517	150.158
0.354067	150.278
0.410048	151.28
0.450478	153.308
0.490909	155.336
0.509569	170.357
0.55622	155.838
0.599761	173.911
0.655742	157.176
0.696172	174.653
0.761483	159.706
0.795694	176.563
0.854785	161.568
0.870335	178.854
0.932536	167.316
0.957416	183.529
0.960526	173.253
0.985407	190.611
