Adsorption isotherm of Nitrogen on {[Zn3(L)3(DPB)1.5]-6DMF-H20}n
DOI: 10.1016/j.ica.2015.03.011
Article source: Figure 5
Adsorbate Nitrogen: InChIKey IJGRMHOSHXDMSA-UHFFFAOYSA-N
Kind: experiment
Temperature: 273 K
Tabular data in the source: 0
pressure (bar)	uptake (cm3(STP)/g)
0.009062	-0.168355
0.018132	-0.166955
0.030225	-0.165089
0.048364	-0.162289
0.08163	0.043461
0.102802	0.247346
0.133026	0.051393
0.160235	0.055592
0.190477	0.260876
0.214673	0.465227
0.23885	0.268341
0.284199	0.275339
0.296292	0.277206
0.344664	0.28467
0.350711	0.285604
0.393037	0.292135
0.399083	0.293068
0.444423	0.099448
0.453502	0.301466
0.495838	0.508617
0.547224	0.31593
0.595606	0.524013
0.640955	0.531012
0.647001	0.531945
0.692351	0.538943
0.7377	0.545941
0.749793	0.547808
0.792119	0.554339
0.843515	0.562271
0.858622	0.363985
0.903971	0.370983
0.952343	0.378448
1.0249	0.389645
