Adsorption isotherm of Methane on Cu3(cdm)4
DOI: 10.1107/S2052520615022295
Article source: Figure 6a
Adsorbate Methane: InChIKey VNWKTOKETHGBQD-UHFFFAOYSA-N
Kind: experiment
Temperature: 273 K
Tabular data in the source: 0
pressure (bar)	uptake (mmol/g)
0.001412	1.3e-05
0.035311	0.012245
0.09887	0.039948
0.141243	0.048982
0.179379	0.070635
0.228814	0.09847
0.29661	0.132422
0.374294	0.175714
0.461864	0.218913
0.55226	0.262086
0.65113	0.308323
0.751412	0.351402
0.850282	0.39135
1.14124	0.451498
