Adsorption isotherm of Nitrogen on Cu3(cdm)4
DOI: 10.1107/S2052520615022295
Article source: Figure 6a
Adsorbate Nitrogen: InChIKey IJGRMHOSHXDMSA-UHFFFAOYSA-N
Kind: experiment
Temperature: 273 K
Tabular data in the source: 0
pressure (bar)	uptake (mmol/g)
0	0
0.004249	0.003105
0.026868	0.012325
0.060752	0.018295
0.104491	0.021027
0.127075	0.023958
0.15812	0.02681
0.18913	0.023373
0.232905	0.032394
0.237136	0.032354
0.296424	0.041229
0.296442	0.044373
0.343002	0.047079
0.39099	0.052915
0.441798	0.058725
0.513798	0.070625
0.59849	0.082404
0.690253	0.097262
0.782015	0.112119
0.876598	0.12695
1.02763	0.147538
1.19557	0.164822
