Adsorption isotherm of Deuterium on Cu3(cdm)4
DOI: 10.1107/S2052520615022295
Article source: Figure 6a
Adsorbate Deuterium: InChIKey UFHFLCQGNIYNRP-VVKOMZTBSA-N
Kind: experiment
Temperature: 77 K
Tabular data in the source: 0
pressure (bar)	uptake (mmol/g)
0	0
0.004249	0.003105
0.026868	0.012325
0.060734	0.01515
0.104491	0.021027
0.118595	0.020894
0.129878	0.020787
0.14823	0.023759
0.173616	0.023519
0.20884	0.016898
0.225764	0.016738
0.293462	0.016099
0.311814	0.019071
0.389384	0.018339
0.45992	0.020818
0.486699	0.017421
0.574159	0.019741
0.678526	0.018756
0.719444	0.021515
0.774448	0.020996
0.860481	0.020184
0.875977	0.016893
0.932409	0.019506
0.96483	0.016055
