Adsorption isotherm of Carbon Dioxide on Cu3(cdm)4
DOI: 10.1107/S2052520615022295
Article source: Figure 6a
Adsorbate Carbon Dioxide: InChIKey CURLTUGMZLYLDI-UHFFFAOYSA-N
Kind: experiment
Temperature: 273 K
Tabular data in the source: 0
pressure (bar)	uptake (mmol/g)
0.004235	0.044047
0.009882	0.088102
0.014118	0.154162
0.024	0.242264
0.039529	0.33983
0.060706	0.456293
0.090353	0.582235
0.141176	0.736589
0.218824	0.897373
0.312	1.04252
0.417882	1.17515
0.536471	1.28583
0.659294	1.3871
0.777882	1.46949
1.07718	1.57797
