Adsorption isotherm of Argon on MOF-IP
DOI: 10.1016/j.renene.2010.01.012
Adsorbate Argon: InChIKey XKRFYHLGVUSROY-UHFFFAOYSA-N
Temperature: 87 K
Tabular data in the source: 0
pressure (bar)	uptake (cm3(STP)/g)
0.000105473	12.9032
0.000210947	25.8065
0.000448261	54.8387
0.000685576	83.871
0.00102836	125.806
0.00972991	140.323
0.0184183	153.226
0.0327758	159.677
0.0500075	167.742
0.098723	177.419
0.150286	185.484
0.201823	190.323
0.296314	200
0.393639	206.452
0.493852	216.129
0.594039	222.581
0.69139	232.258
0.788755	243.548
0.886213	266.129
0.940676	279.032
0.975285	312.903
