Adsorption isotherm of Hydrogen on MOF-IP
DOI: 10.1016/j.renene.2010.01.012
Adsorbate Hydrogen: InChIKey UFHFLCQGNIYNRP-UHFFFAOYSA-N
Temperature: 77 K
Tabular data in the source: 0
pressure (bar)	uptake (wt%)
0.268097	0.0413344
0.80429	0.147632
1.07239	0.218502
1.87668	0.307062
2.41287	0.336566
4.02145	0.425079
5.09383	0.466366
6.97051	0.537141
9.91957	0.601946
13.1367	0.666735
16.622	0.719693
20.1072	0.766745
23.8606	0.807873
27.3458	0.831296
30.0268	0.854766
32.9759	0.878221
36.7292	0.907535
39.6783	0.925082
44.2359	0.948442
50.4021	0.977613
56.0322	1.00091
60.0536	1.01839
65.4155	1.04171
70.5094	1.05322
75.6032	1.07064
79.6247	1.08812
84.9866	1.10553
90.3485	1.11703
95.7105	1.12852
97.5871	1.14023
100.268	1.14007
