Adsorption isotherm of Xenon on UMCM-1
DOI: 10.1002/Aic.12397
Adsorbate Xenon: InChIKey FHNFHKCVQCLJFQ-UHFFFAOYSA-N
Temperature: 273 K
Tabular data in the source: 0
pressure (bar)	uptake (mmol/g)
1.97087	1.07565
4.00971	1.90184
6.04854	2.97733
8.01942	3.80367
10.0583	4.71296
15.0874	6.61238
19.9126	7.93056
29.9709	9.40252
