Adsorption isotherm of Krypton on CuBTC
DOI: 10.1002/Aic.12397
Adsorbate Krypton: InChIKey DNNSSWSSYDEUBZ-UHFFFAOYSA-N
Temperature: 273 K
Tabular data in the source: 0
pressure (bar)	uptake (mmol/g)
0.275049	0.94382
0.962672	1.38202
1.92534	2.25843
3.98821	3.8427
5.98232	5.1573
8.04519	6.30337
9.97053	7.21348
14.9902	8.83146
17.6719	9.50562
20.0786	9.8764
29.9804	11.0225
