Adsorption isotherm of Krypton on CuBTC
DOI: 10.1002/Aic.12397
Adsorbate Krypton: InChIKey DNNSSWSSYDEUBZ-UHFFFAOYSA-N
Temperature: 273 K
Tabular data in the source: 0
pressure (bar)	uptake (mmol/g)
0.618861	0.47191
1.03143	0.741573
2.06287	1.38202
3.02554	1.88764
4.05697	2.32584
5.01965	2.69663
5.98232	2.96629
8.04519	3.40449
9.97053	3.74157
14.9902	4.34831
20.0098	4.78652
30.0491	5.25843
