Adsorption isotherm of Xenon on Pd-MOF
DOI: 10.1002/Aic.12397
Adsorbate Xenon: InChIKey FHNFHKCVQCLJFQ-UHFFFAOYSA-N
Temperature: 273 K
Tabular data in the source: 0
pressure (bar)	uptake (mmol/g)
0.0541514	0.806613
0.115798	1.17123
0.379997	1.59104
0.511534	1.83409
0.779856	2.0108
0.913454	2.13231
1.38526	2.30895
1.99274	2.48556
2.73661	2.61792
3.95549	2.73908
4.90417	2.79403
5.98889	2.82684
7.95501	2.88147
9.9217	2.90295
14.9407	2.92346
19.8923	2.9219
29.9315	2.89663
