Adsorption isotherm of Xenon on Pd-MOF
DOI: 10.1002/Aic.12397
Adsorbate Xenon: InChIKey FHNFHKCVQCLJFQ-UHFFFAOYSA-N
Temperature: 273 K
Tabular data in the source: 0
pressure (bar)	uptake (mmol/g)
0.0352265	1.92264
0.0942497	2.44196
0.357887	2.89491
0.489799	3.11587
0.759057	3.23733
0.961047	3.32566
1.97512	3.52424
2.92343	3.60129
3.94013	3.64516
5.97446	3.67767
7.87332	3.69917
9.90821	3.69853
12.3505	3.67566
14.8604	3.66382
17.0311	3.65208
19.8805	3.61803
25.0369	3.53906
29.9898	3.46015
