Adsorption isotherm of Xenon on CuBTC
DOI: 10.1002/Aic.12397
Adsorbate Xenon: InChIKey FHNFHKCVQCLJFQ-UHFFFAOYSA-N
Temperature: 273 K
Tabular data in the source: 0
pressure (bar)	uptake (mmol/g)
0.135922	0.716602
0.339806	0.949838
0.543689	1.14974
0.747573	1.31631
0.951456	1.48288
1.49515	1.93262
1.97087	2.34906
2.65049	2.83207
3.19417	3.19848
4.00971	3.74809
4.8932	4.14767
5.98058	4.51382
6.72816	4.6968
8.01942	4.96285
8.83495	5.09579
9.92233	5.24528
15.0194	5.57618
17.3981	5.64172
19.9806	5.65715
30.0388	5.6357
