Adsorption isotherm of Krypton on UMCM-1
DOI: 10.1002/Aic.12397
Adsorbate Krypton: InChIKey DNNSSWSSYDEUBZ-UHFFFAOYSA-N
Temperature: 273 K
Tabular data in the source: 0
pressure (bar)	uptake (mmol/g)
1.01942	0.662399
2.03883	1.2417
3.94175	2.15131
6.04854	3.14353
8.01942	4.13608
9.99029	5.12863
14.9515	7.11131
20.0485	8.59506
30.0388	10.3996
