Adsorption isotherm of Krypton on UMCM-1
DOI: 10.1002/Aic.12397
Adsorbate Krypton: InChIKey DNNSSWSSYDEUBZ-UHFFFAOYSA-N
Temperature: 273 K
Tabular data in the source: 0
pressure (bar)	uptake (mmol/g)
1.97087	1.32496
4.00971	2.56666
5.98058	3.89162
8.01942	5.05021
9.92233	6.29223
15.0194	9.10561
19.9126	11.504
30.0388	15.3857
