Adsorption isotherm of Xenon on CuBTC
DOI: 10.1002/Aic.12397
Adsorbate Xenon: InChIKey FHNFHKCVQCLJFQ-UHFFFAOYSA-N
Temperature: 273 K
Tabular data in the source: 0
pressure (bar)	uptake (mmol/g)
0.0679612	0.216634
0.407767	0.716472
0.61165	0.916375
0.815534	1.09961
1.01942	1.26618
1.56311	1.79926
1.97087	2.14906
2.71845	2.66537
3.26214	3.03178
3.94175	3.44812
4.82524	3.86437
5.91262	4.28052
6.79612	4.46343
8.01942	4.67951
8.97087	4.81239
9.99029	4.92858
12.301	5.07748
15.0194	5.22618
17.534	5.30832
20.0485	5.34045
