Adsorption isotherm of Krypton on NOTT-101
DOI: 10.1002/Aic.12397
Adsorbate Krypton: InChIKey DNNSSWSSYDEUBZ-UHFFFAOYSA-N
Temperature: 273 K
Tabular data in the source: 0
pressure (bar)	uptake (mmol/g)
0.964567	1.35335
2.06693	2.48153
3.0315	3.42926
4.06496	4.37707
5.09843	5.2798
5.99409	6.09223
7.02756	6.85975
8.06102	7.58221
8.8878	8.12412
9.99016	8.8016
12.2638	9.88621
15.0197	11.1067
17.0177	11.8754
19.9803	12.5553
22.3228	12.8738
24.9409	13.2378
30.1083	14.0106
