Adsorption isotherm of Xenon on MOF-505
DOI: 10.1002/Aic.12397
Adsorbate Xenon: InChIKey FHNFHKCVQCLJFQ-UHFFFAOYSA-N
Temperature: 273 K
Tabular data in the source: 0
pressure (bar)	uptake (mmol/g)
0.0687623	2.29213
0.137525	4.38202
0.412574	6.40449
0.618861	7.34831
0.962672	8.25843
1.30648	8.66292
1.99411	9.06742
2.81925	9.37079
3.98821	9.57303
5.98232	9.77528
6.80747	9.80899
8.04519	9.8764
9.97053	9.91011
12.1022	9.8764
15.0589	9.8764
17.053	9.8427
20.0098	9.74157
30.0491	9.23596
