Adsorption isotherm of Krypton on CuBTC
DOI: 10.1002/Aic.12397
Adsorbate Krypton: InChIKey DNNSSWSSYDEUBZ-UHFFFAOYSA-N
Temperature: 273 K
Tabular data in the source: 0
pressure (bar)	uptake (mmol/g)
0.407767	0.549806
0.747573	0.799644
0.951456	0.93288
1.56311	1.23259
1.97087	1.56573
2.85437	2.01531
3.94175	2.53146
4.75728	2.83107
5.98058	3.19715
6.79612	3.3801
7.95146	3.61288
9.99029	3.94524
15.0194	4.52618
20.0485	4.94045
