Adsorption isotherm of Krypton on MOF-505
DOI: 10.1002/Aic.12397
Adsorbate Krypton: InChIKey DNNSSWSSYDEUBZ-UHFFFAOYSA-N
Temperature: 273 K
Tabular data in the source: 0
pressure (bar)	uptake (mmol/g)
0.756385	1.65169
0.962672	2.05618
1.99411	3.8427
3.30059	5.46067
4.12574	6.40449
4.81336	6.8427
6.05108	7.61798
6.7387	8.02247
7.90766	8.49438
9.97053	9.13483
12.0334	9.53933
15.0589	10.0787
16.6405	10.2809
20.0786	10.5843
24.9607	10.8202
29.9804	11.0225
