Adsorption isotherm of Xenon on CuBTC
DOI: 10.1002/Aic.12397
Adsorbate Xenon: InChIKey FHNFHKCVQCLJFQ-UHFFFAOYSA-N
Temperature: 273 K
Tabular data in the source: 0
pressure (bar)	uptake (mmol/g)
0.137525	1.14607
0.206287	1.61798
0.343811	2.46067
0.550098	3.33708
0.756385	4.21348
0.962672	5.02247
1.37525	6.20225
1.99411	7.2809
2.68173	7.98876
3.98821	8.73034
5.08841	9.06742
5.98232	9.30337
7.97642	9.60674
9.90177	9.77528
14.9902	9.97753
17.3281	10.0787
20.0098	10.0787
29.9116	9.8764
