Adsorption isotherm of Xenon on NOTT-101
DOI: 10.1002/Aic.12397
Adsorbate Xenon: InChIKey FHNFHKCVQCLJFQ-UHFFFAOYSA-N
Temperature: 273 K
Tabular data in the source: 0
pressure (bar)	uptake (mmol/g)
0.620079	0.992348
1.03346	1.62387
1.99803	2.75187
2.9626	3.74466
3.99606	4.78261
4.75394	5.32443
5.99409	6.04716
7.99213	6.77086
9.99016	7.2692
12.4705	7.54282
15.0197	7.86159
17.2244	7.95457
20.0492	8.04835
24.5276	8.09919
30.1083	8.15145
