Adsorption isotherm of Krypton on CuBTC
DOI: 10.1002/Aic.12397
Adsorbate Krypton: InChIKey DNNSSWSSYDEUBZ-UHFFFAOYSA-N
Temperature: 273 K
Tabular data in the source: 0
pressure (bar)	uptake (mmol/g)
0.475728	0.46644
0.815534	0.616278
1.01942	0.732848
1.42718	0.99932
1.97087	1.33239
3.05825	1.91521
4.00971	2.31476
4.8932	2.631
5.98058	2.94715
6.93204	3.1467
8.01942	3.37951
8.97087	3.56239
10.0583	3.71188
12.4369	4.01074
14.8835	4.32625
17.1262	4.52518
19.9126	4.75718
30.0388	5.26903
