Adsorption isotherm of Xenon on NOTT-101
DOI: 10.1002/Aic.12397
Adsorbate Xenon: InChIKey FHNFHKCVQCLJFQ-UHFFFAOYSA-N
Temperature: 273 K
Tabular data in the source: 0
pressure (bar)	uptake (mmol/g)
0.0688976	1.08178
0.137795	1.66778
0.413386	2.88504
0.620079	4.05714
0.826772	5.2743
1.03346	6.35626
1.44685	8.15961
1.99803	9.873
2.8248	11.1811
3.99606	12.3094
4.75394	12.8061
6.06299	13.3036
8.06102	13.847
8.8189	14.0283
10.0591	14.2101
11.9882	14.3929
15.0886	14.6222
17.3622	14.7604
20.0492	14.7188
30.0394	14.4161
