Adsorption isotherm of Xenon on CuBTC
DOI: 10.1002/Aic.12397
Adsorbate Xenon: InChIKey FHNFHKCVQCLJFQ-UHFFFAOYSA-N
Temperature: 273 K
Tabular data in the source: 0
pressure (bar)	uptake (mmol/g)
0.0687623	0.707865
0.343811	0.876404
0.687623	1.17978
1.03143	1.48315
1.99411	2.35955
3.98821	3.77528
5.98232	4.55056
7.97642	4.98876
9.97053	5.25843
14.9902	5.59551
20.0098	5.69663
29.9804	5.66292
