Adsorption isotherm of Krypton on Pd-MOF
DOI: 10.1002/Aic.12397
Adsorbate Krypton: InChIKey DNNSSWSSYDEUBZ-UHFFFAOYSA-N
Temperature: 273 K
Tabular data in the source: 0
pressure (bar)	uptake (mmol/g)
0.125916	0.574546
0.129851	0.3425
0.324346	0.872826
0.523714	1.11586
0.724205	1.29259
0.993089	1.43615
1.32868	1.64599
1.93409	1.94414
2.81156	2.19801
3.95999	2.47389
4.70368	2.6173
5.92199	2.77161
7.95351	2.96986
9.91852	3.09079
12.0878	3.16745
14.9349	3.266
16.6976	3.3207
19.8848	3.36389
29.9909	3.39385
