Adsorption isotherm of Xenon on MOF-505
DOI: 10.1002/Aic.12397
Adsorbate Xenon: InChIKey FHNFHKCVQCLJFQ-UHFFFAOYSA-N
Temperature: 273 K
Tabular data in the source: 0
pressure (bar)	uptake (mmol/g)
0.137525	0.438202
0.412574	0.707865
0.481336	0.910112
0.89391	1.2809
0.962672	1.41573
1.51277	1.7191
2.06287	1.92135
2.88802	2.19101
3.98821	2.42697
5.98232	2.69663
7.90766	2.93258
10.0393	3.03371
12.6523	3.16854
14.9902	3.26966
17.1906	3.37079
20.0786	3.4382
24.7544	3.53933
29.9804	3.64045
