Adsorption isotherm of Krypton on MOF-505
DOI: 10.1002/Aic.12397
Adsorbate Krypton: InChIKey DNNSSWSSYDEUBZ-UHFFFAOYSA-N
Temperature: 273 K
Tabular data in the source: 0
pressure (bar)	uptake (mmol/g)
0.412574	1.78652
0.618861	2.66292
0.756385	3.33708
0.962672	3.91011
1.37525	4.65169
1.99411	5.35955
2.75049	5.83146
3.91945	6.16854
4.95088	6.40449
6.05108	6.50562
7.97642	6.64045
9.90177	6.74157
11.8959	6.74157
14.9902	6.77528
17.3281	6.74157
20.0098	6.74157
29.9804	6.53933
