Adsorption isotherm of Xenon on CuBTC
DOI: 10.1002/aic.12397
Article source: Figure 3
Adsorbate Xenon: InChIKey FHNFHKCVQCLJFQ-UHFFFAOYSA-N
Kind: experiment
Temperature: 273 K
Tabular data in the source: 0
pressure (bar)	uptake (mmol/g)
0.05	0
0.158	0
0.318	0
0.589	0
0.86	0
1.021	0
2	0
3.971	0
5.947	0
7.978	0
10.01	0
15.064	0
19.954	0
29.955	0
