Adsorption isotherm of Krypton on UMCM-1
DOI: 10.1002/aic.12397
Article source: Figure 1
Adsorbate Krypton: InChIKey DNNSSWSSYDEUBZ-UHFFFAOYSA-N
Kind: experiment
Temperature: 273 K
Tabular data in the source: 0
pressure (bar)	uptake (mmol/g)
1.902	0
4.022	0
5.924	0
8.043	0
9.946	0
15	0
20.109	0
30	0
