Adsorption isotherm of Krypton on NOTT-101
DOI: 10.1002/Aic.12397
Adsorbate Krypton: InChIKey DNNSSWSSYDEUBZ-UHFFFAOYSA-N
Temperature: 273 K
Tabular data in the source: 0
pressure (bar)	uptake (mmol/g)
0.964567	0.947721
1.99803	1.67018
2.8937	2.25725
3.92717	2.93463
4.96063	3.43174
6.06299	3.88386
7.02756	4.2006
7.99213	4.47226
9.99016	4.88047
12.4016	5.19907
15.0197	5.60807
17.2244	5.83626
20.0492	6.02018
22.4606	6.1585
25.0098	6.20685
30.1083	6.48384
