Adsorption isotherm of Xenon on UMCM-1
DOI: 10.1002/Aic.12397
Adsorbate Xenon: InChIKey FHNFHKCVQCLJFQ-UHFFFAOYSA-N
Temperature: 273 K
Tabular data in the source: 0
pressure (bar)	uptake (mmol/g)
0.339806	0.996423
0.543689	1.41145
0.815534	1.99252
1.01942	2.32445
1.97087	4.98147
3.94175	10.046
5.98058	14.2794
8.01942	17.1001
9.92233	19.0069
14.9515	21.9036
19.9126	23.5538
30.0388	24.9425
