Adsorption isotherm of Krypton on Pd-MOF
DOI: 10.1002/Aic.12397
Adsorbate Krypton: InChIKey DNNSSWSSYDEUBZ-UHFFFAOYSA-N
Temperature: 273 K
Tabular data in the source: 0
pressure (bar)	uptake (mmol/g)
0.13135	0.254102
0.40192	0.298216
0.535893	0.397621
1.00995	0.44167
2.02571	0.540797
2.8393	0.56264
3.99184	0.595425
6.02617	0.627932
7.92522	0.638382
10.0276	0.659818
12.4696	0.647997
14.9791	0.658254
17.4889	0.657462
19.9986	0.65667
24.7472	0.622021
29.9703	0.609323
