Adsorption isotherm of Carbon Dioxide on ZnPO-MOF
DOI: 10.1021/Ja900203f
Adsorbate Carbon Dioxide: InChIKey CURLTUGMZLYLDI-UHFFFAOYSA-N
Temperature: 273 K
Tabular data in the source: 0
pressure (bar)	uptake (cm3(STP)/g)
0.295011	1.05263
1.08171	2.98246
2.16342	5.78947
2.6551	6.84211
3.14679	8.42105
3.93348	10.1754
5.50688	13.6842
7.37528	16.8421
9.04701	19.6491
10.9154	22.2807
12.4888	24.9123
14.3572	27.193
16.0289	29.1228
17.799	31.4035
19.4707	33.1579
21.3392	34.9123
22.9125	36.6667
24.781	38.4211
26.6494	40
28.2228	41.5789
30.0912	43.1579
31.7629	44.5614
33.6313	45.9649
34.8113	47.3684
