Adsorption isotherm of Carbon Dioxide on {[Zn2(btdc)2(bpy)]*xS}n
DOI: 10.1002/anie.201002259
Adsorbate Carbon Dioxide: InChIKey CURLTUGMZLYLDI-UHFFFAOYSA-N
Temperature: 195 K
Tabular data in the source: 0
pressure (bar)	uptake (cm3(STP)/g)
0.00400996	0.374528
0.00400996	27.9039
0.00619484	9.551
0.00619484	40.8821
0.0258587	46.2569
0.0826654	49.0098
0.253086	50.714
0.447539	51.7628
0.742497	53.7291
0.96317	55.1712
