Adsorption isotherm of Carbon Dioxide on {[Zn2(btdc)2-(bpy)]*yS}n
DOI: 10.1002/anie.201002259
Adsorbate Carbon Dioxide: InChIKey CURLTUGMZLYLDI-UHFFFAOYSA-N
Temperature: 195 K
Tabular data in the source: 0
pressure (bar)	uptake (cm3(STP)/g)
0.00182509	59.3661
0.0105646	0.811453
0.0236738	83.8367
0.0564469	101.753
0.130733	118.795
0.224682	128.408
0.26838	157.248
0.327371	171.669
0.633254	188.711
0.974094	201.383
