Adsorption isotherm of Nitrogen on UiO-66-NH2
DOI: 10.1021/Ie403366d
Adsorbate Nitrogen: InChIKey IJGRMHOSHXDMSA-UHFFFAOYSA-N
Temperature: 77 K
Tabular data in the source: 0
pressure (bar)	uptake (cm3(STP)/g)
0.964904	304.658
0.979005	311.233
0.993106	320
