Adsorption isotherm of Nitrogen on UiO-66-NH2
DOI: 10.1021/Ie403366d
Adsorbate Nitrogen: InChIKey IJGRMHOSHXDMSA-UHFFFAOYSA-N
Temperature: 77 K
Tabular data in the source: 0
pressure (bar)	uptake (cm3(STP)/g)
0.00201441	161.096
0.00402882	179.726
0.0141009	187.397
0.0201441	193.973
0.0302162	203.836
0.0503603	209.315
0.0705045	211.507
0.106764	214.795
0.126909	214.795
0.147052	215.89
0.171225	216.986
0.191369	216.986
0.211514	218.082
0.24173	219.178
0.261873	219.178
0.282018	219.178
0.302162	219.178
0.306191	220.274
0.326335	220.274
0.346479	220.274
0.366623	220.274
0.386768	220.274
0.410941	219.178
0.437128	221.37
0.457272	221.37
0.477416	221.37
0.49756	221.37
0.517704	221.37
0.537848	221.37
0.557993	221.37
0.578137	221.37
0.598281	221.37
0.618425	221.37
0.638569	221.37
0.658713	222.466
0.678857	222.466
0.699002	222.466
0.719146	222.466
0.739289	222.466
0.759434	222.466
0.793679	223.562
0.813823	223.562
0.833968	223.562
0.854111	223.562
0.87627	224.658
0.896414	224.658
0.922602	226.849
0.942745	227.945
0.966918	231.233
0.983034	235.616
0.991091	249.863
0.997134	266.301
1.00318	283.836
