Adsorption isotherm of Nitrogen on UiO-66-NH2
DOI: 10.1021/Ie403366d
Adsorbate Nitrogen: InChIKey IJGRMHOSHXDMSA-UHFFFAOYSA-N
Temperature: 77 K
Tabular data in the source: 0
pressure (bar)	uptake (cm3(STP)/g)
0.0154726	38.3562
0.433232	49.3151
1.08308	50.411
1.82576	51.5068
2.63033	51.5068
3.4968	51.5068
4.53346	52.6027
5.12142	52.6027
5.78674	52.6027
6.483	53.6986
7.13285	55.8904
7.55061	65.7534
7.68987	83.2877
