Adsorption isotherm of Nitrogen on UiO-66-NH2
DOI: 10.1021/Ie403366d
Adsorbate Nitrogen: InChIKey IJGRMHOSHXDMSA-UHFFFAOYSA-N
Temperature: 77 K
Tabular data in the source: 0
pressure (bar)	uptake (cm3(STP)/g)
0.00402882	0.00397614
0.0141009	219.178
0.0322306	237.808
0.06849	245.479
0.11885	249.863
0.177268	252.055
0.251802	254.247
0.334393	255.342
0.42907	256.438
0.529791	256.438
0.630511	258.63
0.719146	259.726
0.799722	260.822
0.890371	263.014
0.966918	268.493
0.997134	294.795
1.00318	329.863
