Adsorption isotherm of Nitrogen on UiO-66-NH2
DOI: 10.1021/Ie403366d
Adsorbate Nitrogen: InChIKey IJGRMHOSHXDMSA-UHFFFAOYSA-N
Temperature: 77 K
Tabular data in the source: 0
pressure (bar)	uptake (cm3(STP)/g)
0.00402882	206.027
0.00604324	216.986
0.0100721	227.945
0.0120865	238.904
0.0201441	258.63
0.0261873	268.493
0.0402882	276.164
0.058418	280.548
0.0785621	282.74
0.0966918	286.027
0.116836	287.123
0.13698	288.219
0.157125	289.315
0.177268	289.315
0.195398	290.411
0.215543	291.507
0.235686	291.507
0.25583	292.603
0.275975	292.603
0.296119	292.603
0.316263	293.699
0.336407	293.699
0.356552	293.699
0.376695	293.699
0.396839	293.699
0.414969	294.795
0.435113	294.795
0.455257	294.795
0.475402	294.795
0.495546	294.795
0.51569	294.795
0.535834	295.89
0.555978	295.89
0.576122	295.89
0.596266	295.89
0.616411	295.89
0.636555	295.89
0.656698	295.89
0.676843	295.89
0.696987	295.89
0.717131	295.89
0.737275	296.986
0.75742	296.986
0.777564	296.986
0.797707	296.986
0.817852	296.986
0.837996	296.986
0.85814	298.082
0.878284	298.082
0.898428	298.082
0.916559	299.178
0.936702	300.274
0.956846	301.37
0.966918	303.562
0.98102	305.753
0.993106	312.329
1.00116	321.096
