Adsorption isotherm of Nitrogen on UiO-66-NH2
DOI: 10.1021/Ie403366d
Adsorbate Nitrogen: InChIKey IJGRMHOSHXDMSA-UHFFFAOYSA-N
Temperature: 77 K
Tabular data in the source: 0
pressure (bar)	uptake (cm3(STP)/g)
0.00402882	206.027
0.00604324	216.986
0.0100721	227.945
0.0120865	238.904
0.0221586	255.342
0.0322306	264.11
0.0483459	270.685
0.058418	272.877
0.0765477	275.068
0.0987063	277.26
0.122879	280.548
0.141009	281.644
0.145038	280.548
0.165182	280.548
0.171225	281.644
0.191369	281.644
0.211514	282.74
0.231657	282.74
0.251802	283.836
0.271946	283.836
0.290075	284.932
0.31022	284.932
0.330364	284.932
0.354537	286.027
0.374681	286.027
0.394825	286.027
0.414969	286.027
0.435113	286.027
0.46533	287.123
0.485473	287.123
0.505618	287.123
0.525762	287.123
0.545906	287.123
0.56605	287.123
0.586195	287.123
0.606339	287.123
0.626482	288.219
0.646627	288.219
0.666771	288.219
0.686915	288.219
0.707059	288.219
0.727203	288.219
0.747348	288.219
0.77152	289.315
0.793679	289.315
0.813823	289.315
0.833968	289.315
0.854111	289.315
0.874255	290.411
0.882313	290.411
0.902457	290.411
0.914543	290.411
0.934688	293.699
0.948789	294.795
0.968932	296.986
0.976991	298.082
0.991091	304.658
