Adsorption isotherm of Nitrogen on UiO-66-NH2
DOI: 10.1021/Ie403366d
Adsorbate Nitrogen: InChIKey IJGRMHOSHXDMSA-UHFFFAOYSA-N
Temperature: 77 K
Tabular data in the source: 0
pressure (bar)	uptake (cm3(STP)/g)
0.954832	266.301
0.974976	280.548
0.991091	306.849
1.00318	329.863
