Adsorption isotherm of Carbon Dioxide on [Zn4O(Me4BPDC)3]*9DMF
DOI: 10.1016/j.crci.2012.09.001
Adsorbate Carbon Dioxide: InChIKey CURLTUGMZLYLDI-UHFFFAOYSA-N
Temperature: 273 K
Tabular data in the source: 0
pressure (bar)	uptake (cm3(STP)/g)
0.0229294	1.01808
0.106233	3.37294
0.246861	8.273
0.383621	12.9223
0.535033	17.1155
0.671658	21.5216
0.819475	25.9504
0.956236	30.5997
1.10032	35.0209
1.23681	39.1838
