Adsorption isotherm of Carbon Dioxide on [Zn4O(Me4BPDC)3]*9DMF
DOI: 10.1016/j.crci.2012.09.001
Adsorbate Carbon Dioxide: InChIKey CURLTUGMZLYLDI-UHFFFAOYSA-N
Temperature: 293 K
Tabular data in the source: 0
pressure (bar)	uptake (cm3(STP)/g)
0.0566437	1.32924
0.116882	2.42284
0.233765	4.84568
0.403288	8.10382
0.576406	11.1263
0.693016	13.0628
0.809627	14.9992
0.866135	16.0853
0.982609	17.7786
1.12161	19.7603
