Adsorption isotherm of Methane on [Cu2(Me4BPDC)2]*9DMF
DOI: 10.1016/j.crci.2012.09.001
Adsorbate Methane: InChIKey VNWKTOKETHGBQD-UHFFFAOYSA-N
Temperature: 293 K
Tabular data in the source: 0
pressure (bar)	uptake (cm3(STP)/g)
0.0112549	0.189763
0.191552	1.65988
0.334855	2.73884
0.471048	3.87233
0.675905	5.00073
0.81079	5.53075
0.879846	5.7067
0.949033	5.943
1.02507	6.00407
1.1302	6.14876
