Adsorption isotherm of Methane on [Zn4O(Me4BPDC)3]*9DMF
DOI: 10.1016/j.crci.2012.09.001
Adsorbate Methane: InChIKey VNWKTOKETHGBQD-UHFFFAOYSA-N
Temperature: 273 K
Tabular data in the source: 0
pressure (bar)	uptake (cm3(STP)/g)
0.0112549	0.189763
0.168169	2.54471
0.305671	4.28166
0.480689	6.65116
0.748713	10.2399
0.819209	11.0797
0.889967	12.0401
0.960462	12.8799
1.03859	13.9065
1.14621	15.1978
