Adsorption isotherm of Carbon Dioxide on [Cu2(Me4BPDC)2]*9DMF
DOI: 10.1016/j.crci.2012.09.001
Adsorbate Carbon Dioxide: InChIKey CURLTUGMZLYLDI-UHFFFAOYSA-N
Temperature: 293 K
Tabular data in the source: 0
pressure (bar)	uptake (cm3(STP)/g)
0.00854942	1.96063
0.0865666	8.19143
0.190564	14.2319
0.304939	18.8359
0.403711	22.1937
0.551392	26.3793
0.679603	29.068
0.882569	32.1509
0.954	33.2672
1.1299	34.5949
