Adsorption isotherm of Nitrogen on [Cu2(Me4BPDC)2]*9DMF
DOI: 10.1016/j.crci.2012.09.001
Adsorbate Nitrogen: InChIKey IJGRMHOSHXDMSA-UHFFFAOYSA-N
Temperature: 343 K
Tabular data in the source: 0
pressure (bar)	uptake (cm3(STP)/g)
0.00654951	8.69392
0.0609031	156.349
0.092223	206.014
0.121983	240.798
0.255181	265.922
0.388673	271.212
0.546671	275.322
0.689141	275.676
0.793286	278.413
0.900138	278.678
1.00029	280.166
1.07723	286.555
