Adsorption isotherm of Hydrogen on [Zn4O(Me4BPDC)3]*9DMF
DOI: 10.1016/j.crci.2012.09.001
Adsorbate Hydrogen: InChIKey UFHFLCQGNIYNRP-UHFFFAOYSA-N
Temperature: 77 K
Tabular data in the source: 0
pressure (bar)	uptake (wt%)
0.00725848	0.00647462
0.0855026	0.188148
0.137409	0.294925
0.244797	0.508642
0.36192	0.667545
0.482618	0.826612
0.620749	0.96192
0.751511	1.08461
0.885628	1.19517
1.03762	1.30656
1.1388	1.37262
