Adsorption isotherm of Nitrogen on [Zn4O(Me4BPDC)3]*9DMF
DOI: 10.1016/j.crci.2012.09.001
Adsorbate Nitrogen: InChIKey IJGRMHOSHXDMSA-UHFFFAOYSA-N
Temperature: 443 K
Tabular data in the source: 0
pressure (bar)	uptake (cm3(STP)/g)
0.100638	189.592
0.117338	289.485
0.136871	334.335
0.185182	368.991
0.233383	387.339
0.275118	397.532
0.320073	409.764
0.36826	426.073
0.458113	442.382
0.547926	452.575
0.711415	456.652
0.801158	456.652
0.890902	456.652
0.938965	454.614
