Adsorption isotherm of Hydrogen on [Cu2(Me4BPDC)2]*9DMF
DOI: 10.1016/j.crci.2012.09.001
Adsorbate Hydrogen: InChIKey UFHFLCQGNIYNRP-UHFFFAOYSA-N
Temperature: 77 K
Tabular data in the source: 0
pressure (bar)	uptake (wt%)
-0.00324515	0.0182716
0.0182481	0.221893
0.133553	0.478957
0.301046	0.658601
0.478385	0.789575
0.60827	0.8631
0.687454	0.897449
0.795454	0.945405
0.947004	1.03221
1.12682	1.10189
