Adsorption isotherm of Carbon Dioxide on [Cu2(Me4BPDC)2]*9DMF
DOI: 10.1016/j.crci.2012.09.001
Adsorbate Carbon Dioxide: InChIKey CURLTUGMZLYLDI-UHFFFAOYSA-N
Temperature: 273 K
Tabular data in the source: 0
pressure (bar)	uptake (cm3(STP)/g)
0.00135945	2.4319
0.0892855	13.0552
0.197558	20.076
0.282085	24.6196
0.408605	30.9486
0.617884	38.6597
0.819158	45.3829
0.959514	49.7966
1.03895	51.9007
1.14118	54.7797
