Adsorption isotherm of Nitrogen on [Zn4O(Me4BPDC)3]*9DMF
DOI: 10.1016/j.crci.2012.09.001
Adsorbate Nitrogen: InChIKey IJGRMHOSHXDMSA-UHFFFAOYSA-N
Temperature: 393 K
Tabular data in the source: 0
pressure (bar)	uptake (cm3(STP)/g)
0.139512	250.751
0.200658	287.446
0.23601	301.717
0.284183	315.987
0.335548	328.219
0.370887	340.451
0.460741	356.76
0.553744	364.914
0.643515	368.991
0.688415	373.069
0.7333	375.107
0.826263	377.146
0.912801	377.146
0.960878	377.146
