Adsorption isotherm of Nitrogen on [Zn4O(Me4BPDC)3]*9DMF
DOI: 10.1016/j.crci.2012.09.001
Adsorbate Nitrogen: InChIKey IJGRMHOSHXDMSA-UHFFFAOYSA-N
Temperature: 343 K
Tabular data in the source: 0
pressure (bar)	uptake (cm3(STP)/g)
0.0999505	87.6609
0.100198	124.356
0.107159	205.901
0.126788	265.021
0.168703	301.717
0.242627	332.296
0.284404	348.605
0.377531	375.107
0.464166	389.378
0.553992	401.609
0.640558	405.687
0.688635	405.687
0.733507	405.687
0.826455	405.687
0.913008	407.725
0.957879	407.725
