Adsorption isotherm of Nitrogen on [Zn4O(Me4BPDC)3]*9DMF
DOI: 10.1016/j.crci.2012.09.001
Adsorbate Nitrogen: InChIKey IJGRMHOSHXDMSA-UHFFFAOYSA-N
Temperature: 443 K
Tabular data in the source: 0
pressure (bar)	uptake (cm3(STP)/g)
0.100322	142.704
0.10394	203.863
0.126788	265.021
0.162279	299.678
0.204097	322.103
0.258694	338.412
0.297238	350.644
0.332577	362.876
0.416048	383.262
0.509079	395.494
0.605302	405.687
0.691895	413.841
0.733575	415.88
0.823347	419.957
0.916337	426.073
0.961195	424.034
