Adsorption isotherm of Nitrogen on [Cu2(Me4BPDC)2]*9DMF
DOI: 10.1016/j.crci.2012.09.001
Adsorbate Nitrogen: InChIKey IJGRMHOSHXDMSA-UHFFFAOYSA-N
Temperature: 393 K
Tabular data in the source: 0
pressure (bar)	uptake (cm3(STP)/g)
-0.00100082	7.43554
0.046244	124.082
0.0801248	181.19
0.104336	199.845
0.137525	213.564
0.241096	224.978
0.328285	230.153
0.428441	231.641
0.582023	233.261
0.678618	234.74
0.742729	234.899
0.841605	232.665
0.977378	234.241
1.05388	239.39
