Adsorption isotherm of Nitrogen on [Zn4O(Me4BPDC)3]*9DMF
DOI: 10.1016/j.crci.2012.09.001
Adsorbate Nitrogen: InChIKey IJGRMHOSHXDMSA-UHFFFAOYSA-N
Temperature: 443 K
Tabular data in the source: 0
pressure (bar)	uptake (cm3(STP)/g)
0.0997854	63.1974
0.100955	236.481
0.114133	289.485
0.136871	334.335
0.16591	362.876
0.207687	379.185
0.252669	395.494
0.320073	409.764
0.416433	440.343
0.547926	452.575
0.63771	458.691
0.746685	458.691
0.836415	456.652
0.922953	456.652
0.974235	456.652
