Adsorption isotherm of Methane on [Zn4O(Me4BPDC)3]*9DMF
DOI: 10.1016/j.crci.2012.09.001
Adsorbate Methane: InChIKey VNWKTOKETHGBQD-UHFFFAOYSA-N
Temperature: 293 K
Tabular data in the source: 0
pressure (bar)	uptake (cm3(STP)/g)
0.011252	0.188439
0.169925	1.68744
0.404885	3.36366
0.540923	4.42569
0.742128	5.5366
0.811957	6.06897
0.877905	6.47843
0.943723	6.82779
1.02764	7.19073
1.13381	7.81035
