Adsorption isotherm of Methane on [Cu2(Me4BPDC)2]*9DMF
DOI: 10.1016/j.crci.2012.09.001
Adsorbate Methane: InChIKey VNWKTOKETHGBQD-UHFFFAOYSA-N
Temperature: 273 K
Tabular data in the source: 0
pressure (bar)	uptake (cm3(STP)/g)
0.0082885	0.488585
0.273608	4.49687
0.344365	5.45732
0.478377	7.25171
0.622597	8.75309
0.759052	10.0073
0.891755	11.1982
0.954355	11.7304
1.03868	12.2801
1.14486	12.9075
