Adsorption isotherm of Carbon Dioxide on Activated Carbon
DOI: 10.1016/j.carbon.2004.01.037
Article source: Figure 3
Adsorbate Carbon Dioxide: InChIKey CURLTUGMZLYLDI-UHFFFAOYSA-N
Kind: experiment
Temperature: 273 K
Tabular data in the source: 0
pressure (bar)	uptake (mmol/g)
0	0.342828
0.005805	0.704766
0.007217	0.876195
0.057896	1.02861
0.109517	1.29531
0.160352	1.46677
0.211031	1.61918
0.261396	1.7335
0.311761	1.84782
0.361969	1.94309
0.412021	2.01931
0.462229	2.11458
0.562174	2.24798
0.66212	2.38137
0.761909	2.49572
0.961015	2.66728
2.00283	3.14413
4.28103	3.717
6.01258	3.92763
7.99063	4.06222
10.0189	4.29208
11.9971	4.44571
16.0007	4.48635
20.0045	4.54603
25.0457	4.54924
30.0373	4.53336
