Adsorption isotherm of N-propane on BAX-Activated Carbon
DOI: 10.1021/ie9705867
Article source: Figure 4
Adsorbate N-propane: InChIKey ATUOYWHBWRKTHZ-UHFFFAOYSA-N
Kind: experiment
Temperature: 307 K
Tabular data in the source: 0
pressure (bar)	uptake (mmol/g)
0.054156	1.09228
0.067521	1.22735
0.130164	1.74605
0.199099	2.14108
0.261951	2.43474
0.328367	2.70594
0.396397	2.9206
0.465822	3.11269
0.530029	3.2936
0.596623	3.45186
0.671583	3.61013
0.793469	3.84758
0.922465	4.06242
1.07243	4.27727
1.2072	4.43553
1.47306	4.71821
1.7404	5.00105
2.0017	5.22729
2.26537	5.41957
2.53636	5.6119
2.80931	5.7816
3.07836	5.94
3.35506	6.07573
