Adsorption isotherm of N-propane on BAX-Activated Carbon
DOI: 10.1021/ie9705867
Article source: Figure 4
Adsorbate N-propane: InChIKey ATUOYWHBWRKTHZ-UHFFFAOYSA-N
Kind: experiment
Temperature: 333 K
Tabular data in the source: 0
pressure (bar)	uptake (mmol/g)
0.054156	0.661116
0.067159	0.750827
0.132282	1.13327
0.195912	1.41499
0.263366	1.66316
0.330134	1.86628
0.396397	2.04692
0.46084	2.20503
0.530029	2.35184
0.593417	2.48744
0.66083	2.61172
0.793469	2.83775
0.93246	3.04119
1.06669	3.21073
1.20071	3.36899
1.46518	3.60629
1.7404	3.86641
2.0017	4.05861
2.26537	4.22819
2.53636	4.39783
2.80931	4.54483
3.07836	4.66919
3.33703	4.80495
