Adsorption isotherm of N-propane on BAX-Activated Carbon
DOI: 10.1021/ie9705867
Article source: Figure 4
Adsorbate N-propane: InChIKey ATUOYWHBWRKTHZ-UHFFFAOYSA-N
Kind: experiment
Temperature: 298 K
Tabular data in the source: 0
pressure (bar)	uptake (mmol/g)
0.054156	1.26248
0.067521	1.43159
0.127391	2.02982
0.195912	2.48156
0.263366	2.83184
0.326603	3.10309
0.392157	3.32912
0.46084	3.55525
0.530029	3.72476
0.593417	3.8944
0.66083	4.05272
0.789223	4.31282
0.922465	4.52763
1.05526	4.71986
1.19426	4.91214
1.4573	5.21751
1.73109	5.50032
2.0017	5.73788
2.26537	5.9642
2.53636	6.17923
2.80931	6.34892
3.07836	6.54136
3.35506	6.71113
