Adsorption isotherm of N-Butane on BAX-Activated Carbon
DOI: 10.1021/ie9705867
Article source: Figure 5
Adsorbate N-Butane: InChIKey IJDNQMDRQITEOD-UHFFFAOYSA-N
Kind: experiment
Temperature: 343 K
Tabular data in the source: 0
pressure (bar)	uptake (mmol/g)
0.066924	1.42176
0.131874	1.93145
0.196173	2.29359
0.261018	2.56185
0.330659	2.81669
0.390023	3.01788
0.462094	3.21908
0.528287	3.3532
0.59328	3.48733
0.660344	3.59463
0.72522	3.71535
0.789387	3.79583
0.859231	3.90313
0.922826	3.98361
1.05502	4.14456
1.19542	4.30551
1.31874	4.41282
1.46127	4.56036
1.59056	4.66766
1.72357	4.80179
1.85943	4.90909
1.98815	4.98957
