Adsorption isotherm of N-Butane on BAX-Activated Carbon
DOI: 10.1021/ie9705867
Article source: Figure 5
Adsorbate N-Butane: InChIKey IJDNQMDRQITEOD-UHFFFAOYSA-N
Kind: experiment
Temperature: 323 K
Tabular data in the source: 0
pressure (bar)	uptake (mmol/g)
0.066924	1.94486
0.126681	2.5082
0.193562	2.92399
0.261018	3.2459
0.332139	3.51416
0.393514	3.74218
0.462094	3.92996
0.523588	4.09091
0.590636	4.23845
0.660344	4.37258
0.72522	4.50671
0.792903	4.62742
0.859231	4.72131
0.926937	4.84203
1.05972	5.01639
1.19009	5.20417
1.32462	5.36513
1.46127	5.51267
1.59768	5.6468
1.72357	5.78092
1.85943	5.88823
1.98815	6.00894
