Adsorption isotherm of N-Butane on BAX-Activated Carbon
DOI: 10.1021/ie9705867
Article source: Figure 5
Adsorbate N-Butane: InChIKey IJDNQMDRQITEOD-UHFFFAOYSA-N
Kind: experiment
Temperature: 308 K
Tabular data in the source: 0
pressure (bar)	uptake (mmol/g)
0.067524	2.42772
0.134249	3.11177
0.198815	3.54098
0.26218	3.86289
0.329185	4.13115
0.393514	4.37258
0.457984	4.58718
0.528287	4.77496
0.59328	4.94933
0.660344	5.1237
0.72522	5.24441
0.792903	5.37854
0.859231	5.51267
0.926937	5.61997
1.05972	5.83458
1.19009	6.02235
1.32462	6.21013
1.46127	6.37109
1.59768	6.54545
1.73129	6.71982
1.85943	6.86736
