Adsorption isotherm of N-Butane on BAX-Activated Carbon
DOI: 10.1021/ie9705867
Article source: Figure 5
Adsorbate N-Butane: InChIKey IJDNQMDRQITEOD-UHFFFAOYSA-N
Kind: experiment
Temperature: 297 K
Tabular data in the source: 0
pressure (bar)	uptake (mmol/g)
0.066034	2.65574
0.127817	3.39344
0.192699	3.88972
0.259854	4.26528
0.326265	4.57377
0.39176	4.82861
0.457984	5.05663
0.523588	5.27124
0.598591	5.47243
0.6574	5.61997
0.72522	5.78092
0.789387	5.91505
0.863078	6.07601
0.922826	6.18331
1.05502	6.42474
1.19542	6.65276
1.32462	6.85395
1.46127	7.08197
1.59768	7.30999
1.72357	7.538
1.85943	7.80626
1.99706	8.08793
