Adsorption isotherm of N-propane on BAX-Activated Carbon
DOI: 10.1021/ie9705867
Article source: Figure 4
Adsorbate N-propane: InChIKey ATUOYWHBWRKTHZ-UHFFFAOYSA-N
Kind: experiment
Temperature: 312 K
Tabular data in the source: 0
pressure (bar)	uptake (mmol/g)
0.053865	0.967497
0.067521	1.10254
0.128769	1.58726
0.19803	1.97091
0.264789	2.27584
0.330134	2.52437
0.394267	2.72773
0.465822	2.9198
0.530029	3.08936
0.593417	3.23631
0.671583	3.39455
0.793469	3.62066
0.927449	3.83547
1.06096	4.0277
1.19426	4.18596
1.46518	4.47996
1.7404	4.71739
2.0017	4.94363
2.27761	5.13588
2.53636	5.3169
2.80931	5.48659
3.06182	5.62232
3.35506	5.79207
