Adsorption isotherm of N-Butane on BAX-Activated Carbon
DOI: 10.1021/ie9705867
Article source: Figure 5
Adsorbate N-Butane: InChIKey IJDNQMDRQITEOD-UHFFFAOYSA-N
Kind: experiment
Temperature: 353 K
Tabular data in the source: 0
pressure (bar)	uptake (mmol/g)
0.066924	1.22057
0.134249	1.69001
0.197929	2.02534
0.26218	2.28018
0.333626	2.52161
0.393514	2.7228
0.46623	2.88376
0.530652	3.0313
0.595923	3.1386
0.6574	3.25931
0.72845	3.36662
0.792903	3.46051
0.859231	3.54098
0.926937	3.63487
1.05972	3.78241
1.19009	3.92996
1.32462	4.05067
1.45475	4.1848
1.59768	4.26528
1.73129	4.37258
1.85943	4.50671
1.98815	4.58718
