Adsorption isotherm of N-Butane on BAX-Activated Carbon
DOI: 10.1021/ie9705867
Article source: Figure 5
Adsorbate N-Butane: InChIKey IJDNQMDRQITEOD-UHFFFAOYSA-N
Kind: experiment
Temperature: 302 K
Tabular data in the source: 0
pressure (bar)	uptake (mmol/g)
0.067524	2.5082
0.12839	3.19225
0.194429	3.63487
0.261018	4.01043
0.326265	4.30551
0.393514	4.56036
0.457984	4.77496
0.525932	4.97615
0.590636	5.16393
0.6574	5.31148
0.72845	5.45902
0.796453	5.60656
0.855401	5.74069
0.922826	5.8614
1.05502	6.08942
1.19009	6.29061
1.32462	6.47839
1.46127	6.66617
1.59056	6.85395
1.73129	7.04173
1.85943	7.25633
1.99706	7.44411
