Adsorption isotherm of N-propane on BAX-Activated Carbon
DOI: 10.1021/ie9705867
Article source: Figure 4
Adsorbate N-propane: InChIKey ATUOYWHBWRKTHZ-UHFFFAOYSA-N
Kind: experiment
Temperature: 303 K
Tabular data in the source: 0
pressure (bar)	uptake (mmol/g)
0.054156	1.16036
0.067885	1.2954
0.129464	1.87089
0.19803	2.29996
0.266213	2.6162
0.331917	2.88743
0.396397	3.11349
0.46333	3.29426
0.530029	3.47514
0.596623	3.63341
0.664401	3.78038
0.793469	4.04047
0.927449	4.25529
1.06096	4.44751
1.19426	4.62847
1.4573	4.9225
1.73109	5.19397
1.99099	5.4429
2.26537	5.65785
2.53636	5.85018
2.80931	6.03122
3.07836	6.17827
3.35506	6.35939
