Adsorption isotherm of N-Butane on BAX-Activated Carbon
DOI: 10.1021/ie9705867
Article source: Figure 7b
Adsorbate N-Butane: InChIKey IJDNQMDRQITEOD-UHFFFAOYSA-N
Kind: experiment
Temperature: 313 K
Tabular data in the source: 0
pressure (bar)	uptake (mmol/g)
0.064145	2.09269
0.126113	2.70904
0.188421	3.1517
0.250975	3.45003
0.323013	3.72664
0.379411	3.96052
0.445533	4.14894
0.505499	4.30429
0.586881	4.49305
0.636151	4.63839
0.689477	4.76101
0.773304	4.89398
0.838127	5.01659
0.898028	5.12818
1.0076	5.32932
1.1698	5.51808
1.29742	5.68547
1.42266	5.8532
1.52465	5.99888
