Adsorption isotherm of N-Butane on BAX-Activated Carbon
DOI: 10.1021/ie9705867
Article source: Figure 5
Adsorbate N-Butane: InChIKey IJDNQMDRQITEOD-UHFFFAOYSA-N
Kind: experiment
Temperature: 333 K
Tabular data in the source: 0
pressure (bar)	uptake (mmol/g)
0.067223	1.64978
0.127248	2.18629
0.198815	2.6155
0.263354	2.89717
0.326265	3.1386
0.395276	3.3532
0.464162	3.5544
0.530652	3.70194
0.595923	3.83607
0.660344	3.97019
0.72522	4.0775
0.792903	4.1848
0.859231	4.27869
0.926937	4.35917
1.05972	4.54694
1.19542	4.7079
1.32462	4.85544
1.46127	4.98957
1.59768	5.1237
1.72357	5.24441
1.85943	5.35171
2.006	5.48584
