Adsorption isotherm of N-propane on BAX-Activated Carbon
DOI: 10.1021/ie9705867
Article source: Figure 4
Adsorbate N-propane: InChIKey ATUOYWHBWRKTHZ-UHFFFAOYSA-N
Kind: experiment
Temperature: 323 K
Tabular data in the source: 0
pressure (bar)	uptake (mmol/g)
0.053865	0.7973
0.067885	0.920971
0.131571	1.34887
0.193812	1.65332
0.263366	1.92412
0.331917	2.16126
0.398538	2.36459
0.46333	2.54539
0.527181	2.70361
0.593417	2.85053
0.66083	2.97481
0.802066	3.24617
0.937476	3.44964
1.05526	3.61925
1.20071	3.78881
1.44947	4.04885
1.7404	4.28623
2.0017	4.48977
2.26537	4.65936
2.53636	4.829
2.80931	4.98735
3.06182	5.11173
3.35506	5.25879
