Adsorption isotherm of N-Butane on BAX-Activated Carbon
DOI: 10.1021/ie9705867
Article source: Figure 5
Adsorbate N-Butane: InChIKey IJDNQMDRQITEOD-UHFFFAOYSA-N
Kind: experiment
Temperature: 313 K
Tabular data in the source: 0
pressure (bar)	uptake (mmol/g)
0.066924	2.22653
0.130119	2.88376
0.196173	3.31297
0.261018	3.64829
0.332139	3.92996
0.39176	4.13115
0.464162	4.34575
0.523588	4.52012
0.595923	4.69449
0.660344	4.84203
0.72522	4.98957
0.792903	5.11028
0.859231	5.231
0.926937	5.32489
1.05502	5.55291
1.19009	5.74069
1.32462	5.90164
1.45475	6.04918
1.59768	6.21013
1.73129	6.33085
1.85943	6.50522
1.98815	6.63934
