Adsorption isotherm of N-Butane on BAX-Activated Carbon
DOI: 10.1021/ie9705867
Article source: Figure 5
Adsorbate N-Butane: InChIKey IJDNQMDRQITEOD-UHFFFAOYSA-N
Kind: experiment
Temperature: 363 K
Tabular data in the source: 0
pressure (bar)	uptake (mmol/g)
0.067223	1.01937
0.134249	1.462
0.193562	1.71684
0.264533	1.99851
0.329185	2.21311
0.393514	2.40089
0.462094	2.56185
0.528287	2.69598
0.590636	2.80328
0.660344	2.93741
0.72522	3.0313
0.789387	3.09836
0.859231	3.19225
0.922826	3.27273
1.05502	3.42027
1.18479	3.5544
1.32462	3.6617
1.45475	3.79583
1.59056	3.88972
1.73129	3.98361
1.85943	4.10432
1.98815	4.17139
