Adsorption isotherm of Hydrogen on Li-C60@IRMOF-10
DOI: 10.1039/C1cc11832c
Adsorbate Hydrogen: InChIKey UFHFLCQGNIYNRP-UHFFFAOYSA-N
Temperature: 243 K
Tabular data in the source: 0
pressure (bar)	uptake (wt%)
2.11416	0.914842
5.91966	1.6545
8.24524	1.84915
9.93658	2.00487
15.0106	2.19951
19.8732	2.41363
29.1755	2.60827
35.0951	2.74453
40.1691	2.86131
45.666	2.91971
54.1226	3.0365
60.0423	3.13382
65.3277	3.17275
73.1501	3.28954
80.1268	3.38686
84.778	3.40633
93.4461	3.44526
100.211	3.52311
