Adsorption isotherm of Hydrogen on IRMOF-10
DOI: 10.1039/C1cc11832c
Adsorbate Hydrogen: InChIKey UFHFLCQGNIYNRP-UHFFFAOYSA-N
Temperature: 243 K
Tabular data in the source: 0
pressure (bar)	uptake (wt%)
1.90275	0.0389294
6.34249	0.0778589
9.72516	0.116788
15.0106	0.175182
20.0846	0.214112
29.3869	0.311436
40.1691	0.428224
49.8943	0.467153
60.0423	0.564477
70.6131	0.622871
80.3383	0.681265
88.7949	0.720195
100.211	0.778589
