Adsorption isotherm of Hydrogen on Li-C60@Li-IRMOF-10
DOI: 10.1039/C1cc11832c
Adsorbate Hydrogen: InChIKey UFHFLCQGNIYNRP-UHFFFAOYSA-N
Temperature: 243 K
Tabular data in the source: 0
pressure (bar)	uptake (wt%)
1.90275	2.80292
5.91966	3.99027
9.93658	4.51582
19.8732	5.19708
39.9577	5.78102
60.0423	6.09246
79.9154	6.22871
99.7886	6.32603
