Adsorption isotherm of Hydrogen on C60@Li-IRMOF-10
DOI: 10.1039/C1cc11832c
Adsorbate Hydrogen: InChIKey UFHFLCQGNIYNRP-UHFFFAOYSA-N
Temperature: 243 K
Tabular data in the source: 0
pressure (bar)	uptake (wt%)
1.90275	1.92701
5.70825	2.56934
9.93658	2.91971
14.5877	3.15328
20.0846	3.3674
30.6554	3.67883
40.1691	3.89294
43.5518	3.9708
50.5285	4.08759
55.814	4.14599
60.0423	4.18491
70.6131	4.3017
80.3383	4.37956
85.2008	4.39903
91.1205	4.45742
96.4059	4.45742
100.211	4.49635
