Adsorption isotherm of Hydrogen on Li-IRMOF-10
DOI: 10.1039/C1cc11832c
Adsorbate Hydrogen: InChIKey UFHFLCQGNIYNRP-UHFFFAOYSA-N
Temperature: 243 K
Tabular data in the source: 0
pressure (bar)	uptake (wt%)
2.11416	2.93917
5.91966	3.87348
10.148	4.37956
20.0846	5.00243
39.9577	5.64477
60.0423	5.99513
79.9154	6.17032
100	6.36496
