Adsorption isotherm of Hydrogen on C60@IRMOF-10
DOI: 10.1039/C1cc11832c
Adsorbate Hydrogen: InChIKey UFHFLCQGNIYNRP-UHFFFAOYSA-N
Temperature: 243 K
Tabular data in the source: 0
pressure (bar)	uptake (wt%)
2.11416	0.136253
6.13108	0.214112
10.148	0.272506
20.0846	0.408759
28.3298	0.525547
35.0951	0.583942
39.9577	0.642336
46.5116	0.720195
54.5455	0.798054
60.0423	0.817518
66.3848	0.875912
74.2072	0.953771
80.1268	0.973236
87.9493	1.03163
94.0803	1.07056
100.423	1.09002
