Adsorption isotherm of Hydrogen on Li-MOF-5
DOI: 10.1039/C1cc11832c
Adsorbate Hydrogen: InChIKey UFHFLCQGNIYNRP-UHFFFAOYSA-N
Temperature: 300 K
Tabular data in the source: 0
pressure (bar)	uptake (wt%)
0.691934	0.0149701
3.91912	0.0449102
6.91727	0.10479
12.9115	0.179641
19.1375	0.284431
25.1318	0.359281
33.8924	0.464072
43.1152	0.598802
52.1062	0.703593
58.1004	0.778443
64.0932	0.823353
72.8545	0.943114
78.8481	1.00299
85.3031	1.07784
91.0663	1.13772
97.0598	1.1976
100.287	1.22754
