Adsorption isotherm of Hydrogen on IRMOF-1
DOI: 10.1039/C1cc11832c
Adsorbate Hydrogen: InChIKey UFHFLCQGNIYNRP-UHFFFAOYSA-N
Temperature: 77 K
Tabular data in the source: 0
pressure (bar)	uptake (wt%)
1.21623	1.39222
1.94059	2.11078
3.11405	2.57485
4.28268	2.93413
5.21814	3.23353
6.14945	3.44311
7.07939	3.62275
8.01002	3.81737
9.16968	3.98204
10.3273	4.1018
20.2655	4.76048
30.1843	5
35.023	5
40.3226	5
45.1613	5
50.2297	4.98503
55.2961	4.92515
60.1334	4.89521
69.5749	4.77545
79.9381	4.65569
89.1491	4.53593
100.204	4.43114
