Adsorption isotherm of Hydrogen on IRMOF-1
DOI: 10.1039/C1cc11832c
Adsorbate Hydrogen: InChIKey UFHFLCQGNIYNRP-UHFFFAOYSA-N
Temperature: 298 K
Tabular data in the source: 0
pressure (bar)	uptake (wt%)
5.08775	0.404192
10.399	0.658683
14.7845	0.823353
20.093	1.01796
24.7054	1.10778
30.2416	1.24251
35.0837	1.31737
40.1563	1.39222
49.84	1.52695
63.671	1.66168
74.9662	1.76647
86.4918	1.87126
94.0989	1.94611
100.092	1.99102
