Adsorption isotherm of Hydrogen on Li-IRMOF-10
DOI: 10.1039/C1cc11832c
Adsorbate Hydrogen: InChIKey UFHFLCQGNIYNRP-UHFFFAOYSA-N
Temperature: 298 K
Tabular data in the source: 0
pressure (bar)	uptake (wt%)
1.05708	0.934307
2.11416	1.42092
2.74841	1.7129
4.01691	1.9854
4.86258	2.16058
6.13108	2.3747
6.97674	2.51095
8.03383	2.62774
8.87949	2.74453
9.93658	2.82238
20.0846	3.54258
29.1755	3.85401
39.9577	4.24331
52.4313	4.47689
60.0423	4.61314
67.8647	4.72993
80.3383	4.88564
91.9662	4.98297
100.211	5.06083
