Adsorption isotherm of Hydrogen on Li-C60@Li-IRMOF-10
DOI: 10.1039/C1cc11832c
Adsorbate Hydrogen: InChIKey UFHFLCQGNIYNRP-UHFFFAOYSA-N
Temperature: 298 K
Tabular data in the source: 0
pressure (bar)	uptake (wt%)
1.05708	0.817518
1.90275	1.20681
2.95983	1.49878
4.01691	1.75182
4.86258	1.94647
5.91966	2.10219
6.97674	2.25791
7.82241	2.39416
9.30233	2.51095
10.148	2.66667
14.5877	3.07543
20.0846	3.56204
29.3869	3.91241
40.1691	4.32117
49.0486	4.49635
60.2537	4.72993
69.556	4.84672
79.9154	4.9635
89.4292	5.04136
100	5.15815
