Adsorption isotherm of Carbon Dioxide on Cd3[Co(CN)6]2(nH2O) Nanocubes
DOI: 10.1021/Cg2014896
Adsorbate Carbon Dioxide: InChIKey CURLTUGMZLYLDI-UHFFFAOYSA-N
Temperature: 77 K
Tabular data in the source: 0
pressure (bar)	uptake (cm3(STP)/g)
0.020159	1.07852
0.0504155	3.01888
0.0672607	4.74203
0.124448	9.05233
0.158066	11.2083
0.184973	13.1481
0.21188	15.0879
0.238762	16.5977
0.265669	18.5375
0.292552	20.0472
0.32617	22.2032
0.356427	24.1435
0.390021	25.8694
0.426989	28.0259
0.460596	29.9668
0.490828	31.477
0.524422	33.2029
0.561367	34.9293
0.588261	36.654
0.658764	39.4611
0.729266	42.2682
0.789719	45.0736
0.863548	47.4511
0.967608	51.3389
1.02801	53.2841
1.09179	55.66
1.11861	56.0944
1.15888	57.3912
