Adsorption isotherm of Nitrogen on Cd3[Co(CN)6]2(nH2O) Octahedrons
DOI: 10.1021/Cg2014896
Adsorbate Nitrogen: InChIKey IJGRMHOSHXDMSA-UHFFFAOYSA-N
Temperature: 77 K
Tabular data in the source: 0
pressure (bar)	uptake (cm3(STP)/g)
0.010855	115.958
0.0271374	118.177
0.0624161	116.683
0.0976947	113.314
0.119405	111.168
0.15197	108.418
0.187248	104.736
0.241523	98.9036
0.385352	83.2437
0.434199	77.713
0.586168	61.1313
0.629588	56.8401
0.678436	51.3094
0.727283	47.0286
0.781558	42.1334
0.822264	41.2744
0.846688	40.6966
0.873825	42.3115
0.898249	45.7961
0.922673	51.7807
0.952524	70.5883
0.960665	79.3541
0.968806	88.4323
