Adsorption isotherm of Hydrogen on Cd3[Co(CN)6]2(nH2O) Octahedrons
DOI: 10.1021/Cg2014896
Adsorbate Hydrogen: InChIKey UFHFLCQGNIYNRP-UHFFFAOYSA-N
Temperature: 77 K
Tabular data in the source: 0
pressure (bar)	uptake (cm3(STP)/g)
0.00292583	5.1808
0.00575268	14.2465
0.00585167	10.3616
0.017368	38.4229
0.0444705	54.8345
0.0626415	61.7469
0.0808454	67.3643
0.0990934	71.2551
0.10819	74.2796
0.120366	76.4418
0.1356	78.6051
0.159953	82.9295
0.181281	85.958
0.211804	88.1261
0.239258	90.7249
0.269771	93.3248
0.297236	95.4919
0.327748	98.0917
0.367456	99.8312
0.401048	101.569
0.434651	102.875
0.468244	104.612
0.501858	105.486
0.566017	107.665
0.59962	108.971
0.700473	111.162
0.731008	112.899
0.801316	113.785
0.831872	114.658
0.865486	115.532
0.923563	116.414
0.963304	116.859
0.999976	117.734
1.03055	117.744
1.06721	119.051
1.08861	119.489
1.13142	119.503
