Adsorption isotherm of Carbon Dioxide on Cd3[Co(CN)6]2(nH2O) Octahedrons
DOI: 10.1021/Cg2014896
Adsorbate Carbon Dioxide: InChIKey CURLTUGMZLYLDI-UHFFFAOYSA-N
Temperature: 77 K
Tabular data in the source: 0
pressure (bar)	uptake (cm3(STP)/g)
0.0168212	1.29304
0.0470777	3.2334
0.0706106	4.74257
0.0941434	6.25174
0.12775	8.19265
0.184865	11.2126
0.238606	13.8019
0.288998	16.3907
0.359488	18.9827
0.426629	21.5742
0.49377	24.1657
0.560886	26.327
0.624641	28.2728
0.661549	29.354
0.695096	30.2196
0.728654	31.3003
0.799108	33.2472
0.825955	34.1117
0.893048	35.843
0.966828	37.3603
1.03055	38.6609
1.06073	39.3109
1.09763	40.1771
1.12446	40.8265
1.1647	41.4782
