Adsorption isotherm of Hydrogen on Cd3[Co(CN)6]2(nH2O) Nanocubes
DOI: 10.1021/Cg2014896
Adsorbate Hydrogen: InChIKey UFHFLCQGNIYNRP-UHFFFAOYSA-N
Temperature: 77 K
Tabular data in the source: 0
pressure (bar)	uptake (cm3(STP)/g)
0.00306488	3.68542
0.0153244	16.3218
0.0367786	33.1724
0.0582328	43.7072
0.0766221	51.6092
0.0980762	58.4598
0.107271	61.6213
0.11953	65.3103
0.13179	68.9994
0.159374	74.7998
0.183893	80.0726
0.214542	84.8215
0.239061	89.0417
0.26358	93.2619
0.334072	101.185
0.4015	107.527
0.435213	110.698
0.468927	113.343
0.533289	118.105
0.600717	122.342
0.665079	127.105
0.698793	128.697
0.729442	131.341
0.766221	132.934
0.802999	135.054
0.833648	136.119
0.928659	140.893
1.00222	144.606
1.03287	145.671
1.06351	147.262
1.09416	148.327
1.13094	149.394
