Adsorption isotherm of Nitrogen on Cd3[Co(CN)6]2(nH2O) Nanocubes
DOI: 10.1021/Cg2014896
Adsorbate Nitrogen: InChIKey IJGRMHOSHXDMSA-UHFFFAOYSA-N
Temperature: 77 K
Tabular data in the source: 0
pressure (bar)	uptake (cm3(STP)/g)
0.00708701	172.212
0.0279884	174.676
0.065728	172.47
0.0794092	171.176
0.0999109	169.004
0.120359	166.213
0.154462	161.82
0.174897	158.875
0.242983	148.698
0.389266	125.634
0.457312	114.993
0.508293	106.394
0.555904	98.698
0.600091	91.2869
0.647662	83.1273
0.69863	74.3738
0.746174	65.9052
0.790348	58.3395
0.820921	52.9947
0.844686	48.6831
0.868479	44.6806
0.895694	40.3933
0.916116	37.2937
0.950232	33.0549
0.953723	33.5428
0.964113	34.0792
0.971227	36.6003
