Adsorption isotherm of Hydrogen on Zn3[(Zn0.7Mn3.3Cl)3(BTT)8]2*2ZnCl2
DOI: 10.1021/Ja072871f
Adsorbate Hydrogen: InChIKey UFHFLCQGNIYNRP-UHFFFAOYSA-N
Temperature: 77 K
Tabular data in the source: 0
pressure (bar)	uptake (wt%)
0.000446	0.0490659
0.000927	0.0844609
0.00146207	0.115923
0.00188812	0.134931
0.00228139	0.153284
0.00298055	0.176881
0.00374526	0.199167
0.00445534	0.218831
