Adsorption isotherm of Hydrogen on Li3.2Mn1.4[(Mn4Cl)3(BTT)8]2*0.4LiCl
DOI: 10.1021/Ja072871f
Adsorbate Hydrogen: InChIKey UFHFLCQGNIYNRP-UHFFFAOYSA-N
Temperature: 77 K
Tabular data in the source: 0
pressure (bar)	uptake (wt%)
0.000315	0.0333348
0.00085	0.0693852
0.0013856	0.098881
0.00188812	0.121822
0.00221585	0.134276
0.00263097	0.148041
0.00301333	0.159839
0.00364694	0.179503
0.00495786	0.21031
