Adsorption isotherm of Hydrogen on Cu3[(Cu2.9Mn1.1Cl)3(BTT)8]2*2CuCl2
DOI: 10.1021/Ja072871f
Adsorbate Hydrogen: InChIKey UFHFLCQGNIYNRP-UHFFFAOYSA-N
Temperature: 77 K
Tabular data in the source: 0
pressure (bar)	uptake (wt%)
0.000774	0.0746289
0.00168055	0.127721
0.00200828	0.142142
0.00227047	0.151318
0.0030024	0.178192
0.00363602	0.197856
0.00488139	0.229973
