Adsorption isotherm of Hydrogen on Mn3[(Mn4Cl)3(BTT)8]2^8
DOI: 10.1021/Ja072871f
Adsorbate Hydrogen: InChIKey UFHFLCQGNIYNRP-UHFFFAOYSA-N
Temperature: 77 K
Tabular data in the source: 0
pressure (bar)	uptake (wt%)
9.65e-05	0.0353012
0.000228	0.064797
0.000413	0.091671
0.000785	0.132965
0.00152761	0.189335
0.0021066	0.218831
0.00271837	0.247671
0.00465198	0.30994
