Adsorption isotherm of Hydrogen on Mn3[(Mn4Cl)3(BTT)8]2*0.75CuPF6
DOI: 10.1021/Ja072871f
Adsorbate Hydrogen: InChIKey UFHFLCQGNIYNRP-UHFFFAOYSA-N
Temperature: 77 K
Tabular data in the source: 0
pressure (bar)	uptake (wt%)
0.000435	0.0549651
0.000938	0.0910155
0.00158223	0.125755
0.00183349	0.136898
0.00260913	0.167049
0.00298055	0.178847
0.00388728	0.20441
0.00473938	0.224074
