Adsorption isotherm of Hydrogen on Fe3[(Mn4Cl)3(BTT)8]2*FeCl2
DOI: 10.1021/Ja072871f
Adsorbate Hydrogen: InChIKey UFHFLCQGNIYNRP-UHFFFAOYSA-N
Temperature: 77 K
Tabular data in the source: 0
pressure (bar)	uptake (wt%)
6.37e-05	0.0254693
0.000239	0.0569315
0.000424	0.0838054
0.000839	0.124444
0.0013856	0.160494
0.00187719	0.186058
0.00266375	0.218831
0.0030024	0.229973
0.00373434	0.254226
0.00444442	0.2752
