Adsorption isotherm of Hydrogen on Ni2.75Mn0.25[(Mn4Cl)3(BTT)8]2
DOI: 10.1021/Ja072871f
Adsorbate Hydrogen: InChIKey UFHFLCQGNIYNRP-UHFFFAOYSA-N
Temperature: 77 K
Tabular data in the source: 0
pressure (bar)	uptake (wt%)
0.000315	0.0444777
0.000435	0.0628306
0.000719	0.0864273
0.00135282	0.130999
0.00206291	0.169671
0.00245618	0.186058
0.00284946	0.203755
0.00372341	0.234562
0.00457551	0.258814
