Adsorption isotherm of Hydrogen on Co3[(Mn4Cl)3(BTT)8]2*1.7CoCl2
DOI: 10.1021/Ja072871f
Adsorbate Hydrogen: InChIKey UFHFLCQGNIYNRP-UHFFFAOYSA-N
Temperature: 77 K
Tabular data in the source: 0
pressure (bar)	uptake (wt%)
7.47e-05	0.0235029
0.000315	0.0641415
0.000424	0.0739735
0.000774	0.108058
0.00161501	0.163116
0.00192089	0.177537
0.00266375	0.206377
0.00298055	0.220142
0.00362509	0.23915
0.004794	0.271923
