Adsorption isotherm of Carbon Dioxide on MIL-100(Al)
DOI: 10.1021/Co300128w
Adsorbate Carbon Dioxide: InChIKey CURLTUGMZLYLDI-UHFFFAOYSA-N
Temperature: 303 K
Tabular data in the source: 0
pressure (bar)	uptake (mmol/g)
0.0730036	0.033703
2.43267	2.35404
5.14191	4.04513
6.80242	4.94967
11.8713	7.38799
19.3873	9.86564
23.2327	10.7702
26.9907	11.4781
30.4864	11.95
