Adsorption isotherm of Nitrogen on MIL-100(Fe)_F2
DOI: 10.1021/Co300128w
Adsorbate Nitrogen: InChIKey IJGRMHOSHXDMSA-UHFFFAOYSA-N
Temperature: 313 K
Tabular data in the source: 0
pressure (bar)	uptake (mmol/g)
0.0456273	0.00561717
1.90277	0.149819
3.92378	0.320239
5.61706	0.451331
7.31033	0.595533
9.82294	0.792172
13.5918	1.08058
17.6339	1.37553
21.1297	1.62461
23.3692	1.77537
