Adsorption isotherm of Nitrogen on Activated Carbon Takeda 5A
DOI: 10.1021/Co300128w
Adsorbate Nitrogen: InChIKey IJGRMHOSHXDMSA-UHFFFAOYSA-N
Temperature: 303 K
Tabular data in the source: 0
pressure (bar)	uptake (mmol/g)
1.02703	0.151437
1.97425	0.255473
3.8687	0.463546
5.68333	0.624219
7.65716	0.860723
11.5205	1.08714
15.2268	1.33258
19.0142	1.68234
22.6465	2.13647
26.2034	2.74239
