Adsorption isotherm of Carbon Dioxide on Activated Carbon Takeda 5A
DOI: 10.1021/Co300128w
Adsorbate Carbon Dioxide: InChIKey CURLTUGMZLYLDI-UHFFFAOYSA-N
Temperature: 303 K
Tabular data in the source: 0
pressure (bar)	uptake (mmol/g)
0.0456273	0.0262134
0.482602	1.24974
1.19269	2.25915
2.12126	3.4521
3.86916	4.64504
5.18008	5.50151
6.9826	6.11327
9.2221	6.75563
11.407	7.36739
13.7557	7.88739
16.3229	8.43798
18.5624	8.8968
21.8397	9.50857
