Adsorption isotherm of Nitrogen on Activated Carbon Takeda 5A
DOI: 10.1021/Co300128w
Adsorbate Nitrogen: InChIKey IJGRMHOSHXDMSA-UHFFFAOYSA-N
Temperature: 303 K
Tabular data in the source: 0
pressure (bar)	uptake (mmol/g)
1.97639	0.350324
3.71484	0.624842
6.00384	0.87073
7.81997	1.0978
11.6846	1.38113
15.4705	1.66449
19.0994	1.96686
22.8065	2.25024
26.5154	2.6095
