Adsorption isotherm of Carbon Dioxide on Activated Carbon Takeda 5A
DOI: 10.1021/Co300128w
Adsorbate Carbon Dioxide: InChIKey CURLTUGMZLYLDI-UHFFFAOYSA-N
Temperature: 303 K
Tabular data in the source: 0
pressure (bar)	uptake (mmol/g)
0.850785	1.90217
2.29058	3.42391
3.73037	4.56522
7.78796	6.35326
8.5733	6.65761
11.5183	7.49457
14.3325	8.1413
16.8848	8.59783
19.699	9.13043
21.7277	9.43478
