Adsorption isotherm of Carbon Dioxide on MIL-100(V)_2
DOI: 10.1021/Co300128w
Adsorbate Carbon Dioxide: InChIKey CURLTUGMZLYLDI-UHFFFAOYSA-N
Temperature: 303 K
Tabular data in the source: 0
pressure (bar)	uptake (mmol/g)
0.0730036	0.033703
1.99569	1.76412
5.4041	4.24177
8.37552	6.05085
12.0461	7.78127
16.0663	9.27572
19.9991	10.6915
23.4949	11.7534
27.2528	12.7759
30.836	13.4445
