Adsorption isotherm of Carbon Dioxide on CAU-10-H
DOI: 10.1021/Co300128w
Adsorbate Carbon Dioxide: InChIKey CURLTUGMZLYLDI-UHFFFAOYSA-N
Temperature: 303 K
Tabular data in the source: 0
pressure (bar)	uptake (mmol/g)
0.0456273	0.00936194
1.08344	2.36903
2.44899	3.40684
3.81453	3.83289
5.2347	4.106
6.70949	4.26987
8.29353	4.41188
8.94899	4.48835
12.0078	4.57575
15.012	4.67407
18.0162	4.73961
20.8019	4.79424
23.5876	4.82701
