Adsorption isotherm of Methane on MIL-100(Fe)_NF
DOI: 10.1021/Co300128w
Adsorbate Methane: InChIKey VNWKTOKETHGBQD-UHFFFAOYSA-N
Temperature: 433 K
Tabular data in the source: 0
pressure (bar)	uptake (mmol/g)
0.0547527	0.0112343
1.95559	0.378293
4.11862	0.78468
7.72366	1.3877
11.5909	1.88586
15.5237	2.38401
19.1942	2.8035
22.7993	3.18367
26.601	3.60317
29.0262	3.9309
