Adsorption isotherm of Methane on MIL-100(Fe)_NF
DOI: 10.1021/Co300128w
Adsorbate Methane: InChIKey VNWKTOKETHGBQD-UHFFFAOYSA-N
Temperature: 523 K
Tabular data in the source: 0
pressure (bar)	uptake (mmol/g)
0.0547527	0.0112343
1.95559	0.483167
3.79089	0.876444
5.75727	1.32216
8.05139	1.78098
9.95223	2.17426
12.2463	2.55443
15.9169	3.13123
19.7842	3.66871
23.0615	4.12754
27.0598	4.58636
29.2884	4.91409
