Adsorption isotherm of Carbon Dioxide on MIL-100(Fe)_F2
DOI: 10.1021/Co300128w
Adsorbate Carbon Dioxide: InChIKey CURLTUGMZLYLDI-UHFFFAOYSA-N
Temperature: 303 K
Tabular data in the source: 0
pressure (bar)	uptake (mmol/g)
1.50068	3.48687
3.44653	5.25407
5.28644	6.56635
7.12725	7.72695
8.42642	8.58485
12.0027	10.35
15.5802	11.9129
19.3761	13.3238
23.0647	14.4821
26.7543	15.4887
