Adsorption isotherm of Carbon Dioxide on MIL-100(Fe)_NF
DOI: 10.1021/Co300128w
Adsorbate Carbon Dioxide: InChIKey CURLTUGMZLYLDI-UHFFFAOYSA-N
Temperature: 433 K
Tabular data in the source: 0
pressure (bar)	uptake (mmol/g)
0.0365018	0.0224687
2.48356	1.9102
3.79449	2.69675
5.14911	3.43087
6.37264	4.08633
7.90205	4.84667
9.73734	5.68566
13.3642	6.94415
16.4231	7.88801
19.3945	8.80566
