Adsorption isotherm of Nitrogen on Activated Carbon Takeda 5A
DOI: 10.1021/Co300128w
Adsorbate Nitrogen: InChIKey IJGRMHOSHXDMSA-UHFFFAOYSA-N
Temperature: 303 K
Tabular data in the source: 0
pressure (bar)	uptake (mmol/g)
1.82061	0.426254
3.71591	0.672267
5.53226	0.90882
7.58503	1.15478
8.84935	1.35357
11.2156	1.53304
12.6353	1.63693
14.6076	1.80703
16.2637	1.92033
17.2896	2.02434
18.3939	2.10936
19.9717	2.24165
23.6789	2.52503
25.5729	2.71414
