Adsorption isotherm of Nitrogen on MIL-100(Fe)_F2
DOI: 10.1021/Co300128w
Adsorbate Nitrogen: InChIKey IJGRMHOSHXDMSA-UHFFFAOYSA-N
Temperature: 303 K
Tabular data in the source: 0
pressure (bar)	uptake (mmol/g)
1.87125	0.206044
3.67491	0.370879
5.54597	0.568681
7.55055	0.774725
8.687	0.914835
12.3603	1.21154
16.1007	1.53297
19.774	1.82967
23.4476	2.14286
