Adsorption isotherm of Carbon Dioxide on MIL-100(Fe)_F2
DOI: 10.1021/Co300128w
Adsorbate Carbon Dioxide: InChIKey CURLTUGMZLYLDI-UHFFFAOYSA-N
Temperature: 303 K
Tabular data in the source: 0
pressure (bar)	uptake (mmol/g)
1.50068	3.48687
3.23006	5.10266
5.06996	6.41494
6.80177	7.62623
8.31803	8.53443
11.8937	10.4007
15.5799	11.9635
19.1587	13.3241
22.847	14.5329
26.6456	15.4888
30.3367	16.2426
