Adsorption isotherm of Methane on MIL-100(Fe)_NF
DOI: 10.1021/Co300128w
Adsorbate Methane: InChIKey VNWKTOKETHGBQD-UHFFFAOYSA-N
Temperature: 523 K
Tabular data in the source: 0
pressure (bar)	uptake (mmol/g)
0.0547527	0.0112343
1.03795	0.273419
3.13543	0.850226
5.56064	1.45325
8.57576	2.14804
13.2295	2.97392
17.2279	3.61628
21.685	4.19308
25.29	4.59947
30.0749	5.04518
