Adsorption isotherm of Carbon Dioxide on CAU-10-NH2
DOI: 10.1021/Co300128w
Adsorbate Carbon Dioxide: InChIKey CURLTUGMZLYLDI-UHFFFAOYSA-N
Temperature: 303 K
Tabular data in the source: 0
pressure (bar)	uptake (mmol/g)
0.0456273	0.00936194
1.13806	1.9539
2.39437	2.58751
3.75991	2.92617
5.28932	3.07911
6.70949	3.2102
8.34815	3.34129
10.97	3.43961
14.1927	3.51608
16.9238	3.54886
19.7641	3.57071
22.6045	3.60348
