Adsorption isotherm of Carbon Dioxide on MIL-100(Fe)_F1
DOI: 10.1021/Co300128w
Adsorbate Carbon Dioxide: InChIKey CURLTUGMZLYLDI-UHFFFAOYSA-N
Temperature: 303 K
Tabular data in the source: 0
pressure (bar)	uptake (mmol/g)
0.0730036	0.033703
1.64611	2.82597
3.30662	4.35975
6.54023	6.64076
11.9587	9.31505
15.7167	10.8488
19.2999	12.1466
22.9705	13.2871
27.078	14.3097
30.3991	14.9389
32.4091	15.4502
