Adsorption isotherm of Methane on MIL-100(Fe)_NF
DOI: 10.1021/Co300128w
Adsorbate Methane: InChIKey VNWKTOKETHGBQD-UHFFFAOYSA-N
Temperature: 323 K
Tabular data in the source: 0
pressure (bar)	uptake (mmol/g)
0.0547527	0.0112343
1.89005	0.365184
3.85643	0.719133
6.085	1.08619
7.72366	1.34838
9.23122	1.58434
11.5909	1.84653
15.4581	2.29224
18.9976	2.64619
22.406	2.98703
26.4699	3.3672
29.0262	3.64249
