Adsorption isotherm of Propene on MIL-100(Al)
DOI: 10.1021/Co300128w
Adsorbate Propene: InChIKey QQONPFPTGQHPMA-UHFFFAOYSA-N
Temperature: 303 K
Tabular data in the source: 0
pressure (bar)	uptake (mmol/g)
0.171011	1.54869
0.342206	3.01288
0.601148	4.22324
0.904424	5.09541
1.2516	5.82658
1.57772	6.2198
2.33883	7.06219
3.20954	7.6225
4.08081	7.92929
5.01772	8.12318
5.93282	8.31714
6.84818	8.39842
7.3929	8.50918
