Adsorption isotherm of Methane on CAU-10-OCH3
DOI: 10.1021/Co300128w
Adsorbate Methane: InChIKey VNWKTOKETHGBQD-UHFFFAOYSA-N
Temperature: 303 K
Tabular data in the source: 0
pressure (bar)	uptake (mmol/g)
0.0547527	0.00748956
1.62786	0.584296
3.59425	0.829002
5.29845	0.960095
7.46148	1.11741
10.6732	1.26598
16.048	1.46699
19.9153	1.61556
23.6514	1.72917
27.2564	1.85152
