Adsorption isotherm of Propene on MIL-100(Fe)_F1
DOI: 10.1021/Co300128w
Adsorbate Propene: InChIKey QQONPFPTGQHPMA-UHFFFAOYSA-N
Temperature: 303 K
Tabular data in the source: 0
pressure (bar)	uptake (mmol/g)
0.0146007	0.0224687
0.136954	2.22482
0.469054	4.50583
0.748718	5.79054
1.343	6.99659
1.53527	7.46852
2.25191	8.49104
3.0909	9.33003
3.94737	9.80196
5.03107	10.1952
5.85258	10.3788
6.74401	10.5623
7.30334	10.6147
