Adsorption isotherm of Carbon Dioxide on MIL-100(Fe)_NF
DOI: 10.1021/Co300128w
Adsorbate Carbon Dioxide: InChIKey CURLTUGMZLYLDI-UHFFFAOYSA-N
Temperature: 303 K
Tabular data in the source: 0
pressure (bar)	uptake (mmol/g)
0.0801993	0.0749056
1.26003	0.86146
2.57096	1.64801
3.88188	2.27726
5.36759	2.98516
6.63482	3.56196
8.03314	4.11255
9.12558	4.53205
11.7474	5.37104
14.2382	6.10516
17.0348	7.04902
19.7441	7.7307
