Adsorption isotherm of Propene on MIL-100(Al)
DOI: 10.1021/Co300128w
Adsorbate Propene: InChIKey QQONPFPTGQHPMA-UHFFFAOYSA-N
Temperature: 303 K
Tabular data in the source: 0
pressure (bar)	uptake (mmol/g)
0.0857204	0.675755
0.127967	1.29532
0.213748	1.94291
0.255995	2.56248
0.449848	3.63222
0.535998	4.11079
0.644131	4.50477
0.752326	4.87059
1.42513	6.22033
2.27325	7.14693
