Adsorption isotherm of Methane on CAU-10-OH
DOI: 10.1021/Co300128w
Adsorbate Methane: InChIKey VNWKTOKETHGBQD-UHFFFAOYSA-N
Temperature: 303 K
Tabular data in the source: 0
pressure (bar)	uptake (mmol/g)
0.0547527	0.00748956
1.69341	0.846481
3.72534	1.07371
5.29845	1.28346
7.0682	1.48446
8.51021	1.64178
11.9842	1.869
16.1791	2.07875
20.1774	2.25354
23.7169	2.40211
27.2564	2.49825
