Adsorption isotherm of Carbon Dioxide on Activated Carbon Takeda 5A
DOI: 10.1021/Co300128w
Adsorbate Carbon Dioxide: InChIKey CURLTUGMZLYLDI-UHFFFAOYSA-N
Temperature: 303 K
Tabular data in the source: 0
pressure (bar)	uptake (mmol/g)
0.78534	1.82609
1.89791	3.00543
3.01047	3.95652
4.25393	4.71739
5.43194	5.32609
6.74084	5.8587
8.04974	6.31522
9.09686	6.58152
11.7801	7.22826
14.4634	7.76087
17.1466	8.21739
19.8953	8.63587
21.7277	8.86413
