Adsorption isotherm of Nitrogen on MIL-100(Fe)_F2
DOI: 10.1021/Co300128w
Adsorbate Nitrogen: InChIKey IJGRMHOSHXDMSA-UHFFFAOYSA-N
Temperature: 293 K
Tabular data in the source: 0
pressure (bar)	uptake (mmol/g)
0.0456273	0.00561717
1.79353	0.241584
5.28932	0.64797
8.29353	1.02158
12.991	1.51318
16.596	1.88024
20.0918	2.21452
22.9868	2.47016
