Adsorption isotherm of Carbon Dioxide on CAU-10-NO2
DOI: 10.1021/Co300128w
Adsorbate Carbon Dioxide: InChIKey CURLTUGMZLYLDI-UHFFFAOYSA-N
Temperature: 303 K
Tabular data in the source: 0
pressure (bar)	uptake (mmol/g)
0.0456273	0.00936194
1.08344	2.03037
2.39437	2.67491
3.70529	3.02449
5.67168	3.27575
7.91117	3.53793
10.4784	3.73457
13.1002	3.84382
17.6885	4.01861
20.4742	4.09508
23.3692	4.1934
