Adsorption isotherm of Propene on MIL-100(V)_2
DOI: 10.1021/Co300128w
Adsorbate Propene: InChIKey QQONPFPTGQHPMA-UHFFFAOYSA-N
Temperature: 303 K
Tabular data in the source: 0
pressure (bar)	uptake (mmol/g)
0.0146007	0.0187239
0.20687	1.81032
0.469054	3.44898
0.818634	4.7599
1.18569	5.612
1.53527	6.26746
2.37426	7.33805
3.16082	8.05906
4.1746	8.58343
5.24082	8.93301
6.32452	9.19519
6.93628	9.30444
