Adsorption isotherm of Carbon Dioxide on CAU-10-CH3
DOI: 10.1021/Co300128w
Adsorbate Carbon Dioxide: InChIKey CURLTUGMZLYLDI-UHFFFAOYSA-N
Temperature: 303 K
Tabular data in the source: 0
pressure (bar)	uptake (mmol/g)
0.0456273	0.00936194
1.24731	1.4623
2.61285	2.11777
3.75991	2.55474
5.28932	2.86062
6.54563	3.06819
8.12966	3.26482
9.05823	3.37407
12.0624	3.57071
14.7935	3.67995
17.7977	3.77827
20.5288	3.81104
23.4784	3.86566
