Adsorption isotherm of Carbon Dioxide on Activated Carbon Takeda 5A
DOI: 10.1021/Co300128w
Adsorbate Carbon Dioxide: InChIKey CURLTUGMZLYLDI-UHFFFAOYSA-N
Temperature: 303 K
Tabular data in the source: 0
pressure (bar)	uptake (mmol/g)
1.17801	2.39674
2.42147	3.69022
3.79581	4.56522
5.10471	5.40217
6.47906	5.93478
7.8534	6.46739
8.96597	6.84783
11.7801	7.68478
14.4634	8.25543
17.212	8.82609
19.9607	9.28261
21.7932	9.73913
