Adsorption isotherm of Carbon Dioxide on MIL-100(Fe)_F2
DOI: 10.1021/Co300128w
Adsorbate Carbon Dioxide: InChIKey CURLTUGMZLYLDI-UHFFFAOYSA-N
Temperature: 303 K
Tabular data in the source: 0
pressure (bar)	uptake (mmol/g)
0.160399	0.112358
0.509978	2.47202
1.99569	4.2811
4.00578	6.20816
6.97721	7.9779
10.2108	9.86564
13.794	11.5961
17.2898	13.0512
20.1738	14.0737
23.8444	15.1356
27.078	15.8435
29.8747	16.3154
