Adsorption isotherm of Nitrogen on Activated Carbon Takeda 5A
DOI: 10.1021/Co300128w
Adsorbate Nitrogen: InChIKey IJGRMHOSHXDMSA-UHFFFAOYSA-N
Temperature: 303 K
Tabular data in the source: 0
pressure (bar)	uptake (mmol/g)
0.158333	0.0378903
1.7423	0.445249
3.56078	0.776652
5.37819	1.06063
7.19496	1.31615
8.45821	1.46752
12.1669	1.81729
15.8742	2.11016
19.502	2.36511
23.2866	2.59155
26.9921	2.79905
