Adsorption isotherm of Methane on CAU-10-H
DOI: 10.1021/Co300128w
Adsorbate Methane: InChIKey VNWKTOKETHGBQD-UHFFFAOYSA-N
Temperature: 303 K
Tabular data in the source: 0
pressure (bar)	uptake (mmol/g)
0.0547527	0.00748956
1.75895	1.12615
3.5287	1.8253
5.62618	2.32346
7.52702	2.6643
8.64131	2.83909
12.9018	3.15371
16.5724	3.3285
20.243	3.43337
24.0447	3.52951
27.7808	3.63438
