Adsorption isotherm of Carbon Dioxide on MIL-100(Fe)_NF
DOI: 10.1021/Co300128w
Adsorbate Carbon Dioxide: InChIKey CURLTUGMZLYLDI-UHFFFAOYSA-N
Temperature: 353 K
Tabular data in the source: 0
pressure (bar)	uptake (mmol/g)
0.0801993	0.0749056
1.17264	0.835242
2.48356	1.6218
4.01297	2.51323
5.10541	3.03759
6.37264	3.66684
7.55247	4.26986
8.86339	4.82045
11.3541	5.63322
14.0197	6.49844
16.8163	7.38986
19.4382	8.12398
