Adsorption isotherm of Methane on MIL-100(Fe)_NF
DOI: 10.1021/Co300128w
Adsorbate Methane: InChIKey VNWKTOKETHGBQD-UHFFFAOYSA-N
Temperature: 303 K
Tabular data in the source: 0
pressure (bar)	uptake (mmol/g)
0.0547527	0.0112343
1.95559	0.365184
3.85643	0.706024
5.95391	1.07308
8.11694	1.3877
12.6396	1.97762
16.2447	2.3709
19.9153	2.73796
23.5203	3.09191
27.4531	3.45897
29.6161	3.70804
