Adsorption isotherm of Propene on MIL-100(Fe)_F2
DOI: 10.1021/Co300128w
Adsorbate Propene: InChIKey QQONPFPTGQHPMA-UHFFFAOYSA-N
Temperature: 303 K
Tabular data in the source: 0
pressure (bar)	uptake (mmol/g)
0.0146007	0.0224687
0.119475	2.74919
0.416618	4.55827
0.678802	5.94785
1.20317	7.62583
2.19947	9.22516
3.10838	10.1952
4.27947	10.7983
5.78267	11.244
7.32082	11.4275
