Adsorption isotherm of Propene on MIL-100(V)_1
DOI: 10.1021/Co300128w
Adsorbate Propene: InChIKey QQONPFPTGQHPMA-UHFFFAOYSA-N
Temperature: 303 K
Tabular data in the source: 0
pressure (bar)	uptake (mmol/g)
0.0146007	0.0149791
0.311744	1.11616
0.783676	1.64053
1.18569	1.81532
1.72754	2.02506
2.61897	2.32221
3.47544	2.58439
4.38435	2.89901
5.22334	3.28355
6.2546	3.8254
7.04116	4.43716
