Adsorption isotherm of Carbon Dioxide on CAU-10-OH
DOI: 10.1021/Co300128w
Adsorbate Carbon Dioxide: InChIKey CURLTUGMZLYLDI-UHFFFAOYSA-N
Temperature: 303 K
Tabular data in the source: 0
pressure (bar)	uptake (mmol/g)
0.0456273	0.00936194
1.13806	1.21104
2.39437	1.64802
3.86916	2.00852
5.7263	2.27071
7.09185	2.45642
8.7305	2.65306
11.407	2.8497
14.0834	3.09003
17.47	3.26482
20.0918	3.36314
22.7683	3.46146
