Adsorption isotherm of Nitrogen on Activated Carbon Takeda 5A
DOI: 10.1021/Co300128w
Adsorbate Nitrogen: InChIKey IJGRMHOSHXDMSA-UHFFFAOYSA-N
Temperature: 303 K
Tabular data in the source: 0
pressure (bar)	uptake (mmol/g)
3.63888	0.748172
5.61398	1.04159
7.90405	1.3349
11.4548	1.66576
15.0839	1.97762
18.7908	2.25151
22.4969	2.48747
28.9646	2.97865
