Adsorption isotherm of Nitrogen on Activated Carbon Takeda 5A
DOI: 10.1021/Co300128w
Adsorbate Nitrogen: InChIKey IJGRMHOSHXDMSA-UHFFFAOYSA-N
Temperature: 303 K
Tabular data in the source: 0
pressure (bar)	uptake (mmol/g)
3.79678	0.767092
5.61356	1.02262
7.4299	1.25917
8.77296	1.45793
12.6387	1.78869
16.2677	2.10055
19.9745	2.36496
23.6808	2.6104
27.4665	2.88427
