Adsorption isotherm of Methane on MIL-100(Fe)_NF
DOI: 10.1021/Co300128w
Adsorbate Methane: InChIKey VNWKTOKETHGBQD-UHFFFAOYSA-N
Temperature: 353 K
Tabular data in the source: 0
pressure (bar)	uptake (mmol/g)
0.0547527	0.0112343
1.89005	0.391402
3.92198	0.719133
8.11694	1.40081
11.9842	1.91207
15.5892	2.35779
19.3909	2.75107
22.8648	3.13123
26.2732	3.45897
28.9606	3.70804
