Adsorption isotherm of Methane on CAU-10-NH2
DOI: 10.1021/Co300128w
Adsorbate Methane: InChIKey VNWKTOKETHGBQD-UHFFFAOYSA-N
Temperature: 303 K
Tabular data in the source: 0
pressure (bar)	uptake (mmol/g)
0.0547527	0.00748956
1.8245	0.951355
3.39761	1.38833
5.49509	1.67673
7.65811	1.869
8.51021	1.94766
12.3774	2.08749
16.2447	2.2448
20.1119	2.34093
23.7825	2.41959
27.4531	2.51572
