Adsorption isotherm of Nitrogen on Activated Carbon Takeda 5A
DOI: 10.1021/Co300128w
Adsorbate Nitrogen: InChIKey IJGRMHOSHXDMSA-UHFFFAOYSA-N
Temperature: 303 K
Tabular data in the source: 0
pressure (bar)	uptake (mmol/g)
0.238353	0.0947756
0.713564	0.217932
1.34647	0.350523
1.98044	0.530539
2.53418	0.644185
3.00854	0.729401
3.48311	0.824102
4.03684	0.937748
4.98492	1.07972
6.01216	1.24065
7.11793	1.39206
7.98684	1.51509
9.01302	1.62859
10.0392	1.74208
11.9334	1.94067
14.0639	2.13918
16.036	2.29981
17.9292	2.45097
20.0588	2.61154
25.1053	2.93244
30.0713	3.168
