Adsorption isotherm of Carbon Dioxide on MIL-100(Cr)
DOI: 10.1021/Co300128w
Adsorbate Carbon Dioxide: InChIKey CURLTUGMZLYLDI-UHFFFAOYSA-N
Temperature: 303 K
Tabular data in the source: 0
pressure (bar)	uptake (mmol/g)
0.160399	0.0730307
1.64611	3.02261
5.05452	5.26429
8.46292	6.95538
11.7839	8.41051
15.6293	9.59034
19.4747	10.8488
23.1453	11.7927
26.9907	12.6972
32.0596	13.6804
