Adsorption isotherm of Nitrogen on MIL-100(Fe)_F2
DOI: 10.1021/Co300128w
Adsorbate Nitrogen: InChIKey IJGRMHOSHXDMSA-UHFFFAOYSA-N
Temperature: 313 K
Tabular data in the source: 0
pressure (bar)	uptake (mmol/g)
1.93626	0.131868
3.80641	0.288462
5.67637	0.436813
7.4804	0.618132
8.68278	0.725275
12.4223	1.00549
16.028	1.26099
19.8339	1.52473
23.5053	1.73901
