Adsorption isotherm of Propene on MIL-100(Al)
DOI: 10.1021/Co300128w
Adsorbate Propene: InChIKey QQONPFPTGQHPMA-UHFFFAOYSA-N
Temperature: 303 K
Tabular data in the source: 0
pressure (bar)	uptake (mmol/g)
0.0146007	0.0224687
0.329223	3.03759
0.643844	4.40096
1.16821	5.63322
1.55275	6.21003
2.33931	7.12768
3.14334	7.65205
4.13964	7.94045
5.29326	8.22886
6.5867	8.33373
7.47813	8.46482
