Adsorption isotherm of Carbon Dioxide on Activated Carbon Takeda 5A
DOI: 10.1021/Co300128w
Adsorbate Carbon Dioxide: InChIKey CURLTUGMZLYLDI-UHFFFAOYSA-N
Temperature: 303 K
Tabular data in the source: 0
pressure (bar)	uptake (mmol/g)
1.24346	2.39674
1.43979	2.81522
2.42147	3.65217
5.9555	5.74457
8.50785	6.65761
11.6492	7.64674
14.4634	8.21739
17.212	8.78804
20.0262	9.28261
21.6623	9.58696
