Adsorption isotherm of Propene on MIL-100(V)_1
DOI: 10.1021/Co300128w
Adsorbate Propene: InChIKey QQONPFPTGQHPMA-UHFFFAOYSA-N
Temperature: 303 K
Tabular data in the source: 0
pressure (bar)	uptake (mmol/g)
0.0146007	0.0224687
0.259307	1.9102
0.626365	3.06381
0.993424	4.19121
1.4304	4.92533
2.14704	5.76432
3.28317	6.34112
4.31443	6.76062
5.57292	7.18012
6.84889	7.75692
