Adsorption isotherm of Methane on MIL-100(Fe)_NF
DOI: 10.1021/Co300128w
Adsorbate Methane: InChIKey VNWKTOKETHGBQD-UHFFFAOYSA-N
Temperature: 383 K
Tabular data in the source: 0
pressure (bar)	uptake (mmol/g)
0.0547527	0.0112343
2.61106	0.496276
5.69173	1.04686
7.65811	1.36149
10.8699	1.79409
12.9018	2.08249
16.4413	2.50199
20.5707	2.92149
24.3069	3.31476
27.5186	3.61628
29.6161	3.87846
