Adsorption isotherm of Carbon Dioxide on CAU-10-OCH3
DOI: 10.1021/Co300128w
Adsorbate Carbon Dioxide: InChIKey CURLTUGMZLYLDI-UHFFFAOYSA-N
Temperature: 303 K
Tabular data in the source: 0
pressure (bar)	uptake (mmol/g)
0.0456273	0.00936194
1.30193	1.09087
2.66748	1.52785
4.03302	1.82281
5.45319	2.01945
6.70949	2.21608
7.9658	2.41272
9.00361	2.51104
11.7893	2.77323
15.2851	2.94802
18.7809	3.03541
23.2599	3.06819
