Adsorption isotherm of Carbon Dioxide on MIL-100(V)_1
DOI: 10.1021/Co300128w
Adsorbate Carbon Dioxide: InChIKey CURLTUGMZLYLDI-UHFFFAOYSA-N
Temperature: 303 K
Tabular data in the source: 0
pressure (bar)	uptake (mmol/g)
0.0730036	0.033703
2.25788	1.80345
5.14191	3.14059
8.63771	4.35975
13.7066	5.65757
17.7268	6.60143
23.1453	7.58463
27.952	8.37118
30.6612	8.72513
