Adsorption isotherm of Carbon Dioxide on MIL-100(Fe)_NF
DOI: 10.1021/Co300128w
Adsorbate Carbon Dioxide: InChIKey CURLTUGMZLYLDI-UHFFFAOYSA-N
Temperature: 523 K
Tabular data in the source: 0
pressure (bar)	uptake (mmol/g)
0.0365018	0.0224687
0.473477	1.25474
1.39112	2.48701
2.96423	3.92902
4.93062	5.29238
6.80961	6.446
8.90709	7.57339
11.9222	8.93675
13.9323	9.77575
15.8113	10.4836
18.1273	11.2702
20.0063	11.7684
