Adsorption isotherm of Nitrogen on MIL-100(Fe)_F2
DOI: 10.1021/Co300128w
Adsorbate Nitrogen: InChIKey IJGRMHOSHXDMSA-UHFFFAOYSA-N
Temperature: 303 K
Tabular data in the source: 0
pressure (bar)	uptake (mmol/g)
0.0456273	0.00561717
1.84815	0.189147
3.59605	0.372676
5.61706	0.569315
7.91117	0.798726
11.6801	1.15268
15.449	1.49352
18.9448	1.79503
22.4406	2.06377
