Adsorption isotherm of Methane on CAU-10-NO2
DOI: 10.1021/Co300128w
Adsorbate Methane: InChIKey VNWKTOKETHGBQD-UHFFFAOYSA-N
Temperature: 303 K
Tabular data in the source: 0
pressure (bar)	uptake (mmol/g)
0.0547527	0.00748956
1.89005	0.759086
3.59425	1.02127
5.49509	1.23102
7.13374	1.37085
8.24803	1.44951
12.1808	1.61556
16.3102	1.78161
19.9153	1.9127
23.9136	2.07001
27.1253	2.18362
