Adsorption isotherm of Nitrogen on MIL-100(Fe)_F2
DOI: 10.1021/Co300128w
Adsorbate Nitrogen: InChIKey IJGRMHOSHXDMSA-UHFFFAOYSA-N
Temperature: 293 K
Tabular data in the source: 0
pressure (bar)	uptake (mmol/g)
1.80513	0.230769
3.67692	0.461538
5.54872	0.692308
7.21996	0.898352
8.55696	1.06319
12.1656	1.45055
15.9734	1.80495
19.6478	2.1511
23.1905	2.57143
