Adsorption isotherm of Propene on MIL-100(V)_1
DOI: 10.1021/Co300128w
Adsorbate Propene: InChIKey QQONPFPTGQHPMA-UHFFFAOYSA-N
Temperature: 303 K
Tabular data in the source: 0
pressure (bar)	uptake (mmol/g)
0.0146007	0.0149791
0.241828	1.58809
0.53897	2.79414
0.836113	3.738
1.15074	4.43716
1.58771	5.11884
2.39174	5.97532
3.30065	6.34237
4.19208	6.63952
5.18838	7.00658
6.09729	7.33868
6.98872	7.79313
