Adsorption isotherm of Propene on MIL-100(V)_2
DOI: 10.1021/Co300128w
Adsorbate Propene: InChIKey QQONPFPTGQHPMA-UHFFFAOYSA-N
Temperature: 303 K
Tabular data in the source: 0
pressure (bar)	uptake (mmol/g)
0.0146007	0.0224687
0.224349	1.96264
0.469054	3.29978
0.783676	4.7418
1.50031	6.28869
2.35679	7.41608
3.1783	8.1502
4.19208	8.70079
5.1709	8.96297
6.04485	9.1465
6.95376	9.27759
