Adsorption isotherm of Carbon Dioxide on MIL-100(Fe)_NF
DOI: 10.1021/Co300128w
Adsorbate Carbon Dioxide: InChIKey CURLTUGMZLYLDI-UHFFFAOYSA-N
Temperature: 383 K
Tabular data in the source: 0
pressure (bar)	uptake (mmol/g)
0.0801993	0.0749056
1.34743	0.887679
2.57096	1.77911
3.92558	2.48701
5.36759	3.24734
6.67852	3.87659
8.42642	4.6107
11.5726	5.7381
14.5004	6.62953
17.0785	7.36365
19.5693	8.04533
