Adsorption isotherm of Propene on MIL-100(Al)
DOI: 10.1021/Co300128w
Adsorbate Propene: InChIKey QQONPFPTGQHPMA-UHFFFAOYSA-N
Temperature: 303 K
Tabular data in the source: 0
pressure (bar)	uptake (mmol/g)
0.0146007	0.302758
0.224349	1.61368
0.416618	3.23049
0.678802	4.41032
1.02838	5.43721
1.39544	6.15822
1.95477	6.85738
2.77628	7.57839
3.66771	7.99351
4.76889	8.2557
6.30704	8.45234
7.39074	8.56158
