Adsorption isotherm of Carbon Dioxide on MIL-100(Fe)_F2
DOI: 10.1021/Co300128w
Adsorbate Carbon Dioxide: InChIKey CURLTUGMZLYLDI-UHFFFAOYSA-N
Temperature: 303 K
Tabular data in the source: 0
pressure (bar)	uptake (mmol/g)
0.0730036	0.033703
1.73351	3.5732
3.5688	5.18564
5.75368	6.8374
8.28813	8.64648
11.8713	10.3376
15.7167	11.9893
19.2125	13.4051
23.4949	14.7423
27.8646	15.7255
32.4965	16.748
