Adsorption isotherm of Propene on MIL-100(Cr)
DOI: 10.1021/Co300128w
Adsorbate Propene: InChIKey QQONPFPTGQHPMA-UHFFFAOYSA-N
Temperature: 303 K
Tabular data in the source: 0
pressure (bar)	uptake (mmol/g)
0.0146007	0.0224687
0.171912	2.35591
0.38166	3.74549
0.678802	5.18751
1.08082	5.89541
1.58771	6.78684
2.35679	7.70449
3.24821	8.38617
4.27947	8.98919
5.06603	9.33003
6.20216	9.74953
6.90132	9.98549
