Adsorption isotherm of Carbon Dioxide on Activated Carbon Takeda 5A
DOI: 10.1021/Co300128w
Adsorbate Carbon Dioxide: InChIKey CURLTUGMZLYLDI-UHFFFAOYSA-N
Temperature: 303 K
Tabular data in the source: 0
pressure (bar)	uptake (mmol/g)
0.196335	0.494565
0.850785	1.94022
2.09424	3.27174
4.12304	4.9837
5.56283	5.78261
7.00262	6.54348
8.37696	7.19022
11.2565	8.25543
14.0052	9.24457
16.8194	10.0435
19.6335	11.2228
21.6623	12.288
