Adsorption isotherm of Methane on CAU-10-CH3
DOI: 10.1021/Co300128w
Adsorbate Methane: InChIKey VNWKTOKETHGBQD-UHFFFAOYSA-N
Temperature: 303 K
Tabular data in the source: 0
pressure (bar)	uptake (mmol/g)
0.0547527	0.00748956
1.69341	0.829002
3.65979	1.28346
5.42954	1.55438
7.78921	1.87774
12.1808	2.27976
16.4413	2.55068
20.5052	2.73421
23.9791	2.84783
27.2564	2.9527
