Adsorption isotherm of Carbon Dioxide on MIL-100(Fe)_NF
DOI: 10.1021/Co300128w
Adsorbate Carbon Dioxide: InChIKey CURLTUGMZLYLDI-UHFFFAOYSA-N
Temperature: 523 K
Tabular data in the source: 0
pressure (bar)	uptake (mmol/g)
0.0365018	0.0224687
1.04154	1.98886
2.26507	3.11625
3.576	4.13877
5.14911	5.08264
6.28524	5.89541
8.8197	7.18012
11.3541	8.4386
13.9323	9.48734
16.4668	10.5099
19.5256	11.5848
