Adsorption isotherm of Water on Silicalite MFI
DOI: 10.1007/s10450-008-9135-8
Adsorbate Water: InChIKey XLYOFNOQVPJJNP-UHFFFAOYSA-N
Temperature: 300 K
Tabular data in the source: 0
pressure (bar)	uptake (mmol/g)
0.00252229	0.0576923
0.00350318	0.144231
0.0046242	0.317308
0.00546497	0.605769
0.00616561	0.865385
0.00700637	1.15385
0.00742675	1.41346
0.00840764	1.99038
0.0086879	2.27885
0.00910828	2.625
0.00966879	2.88462
0.0100892	3
0.0105096	3.08654
0.0114904	3.25962
0.0126115	3.46154
0.0135924	3.63462
0.0145732	3.83654
0.0156943	3.95192
0.0170955	4.03846
0.0183567	4.125
0.019758	4.21154
0.0210191	4.26923
0.0224204	4.32692
0.0236815	4.38462
0.0250828	4.41346
0.0264841	4.47115
0.0277452	4.5
0.0291465	4.55769
0.0305478	4.58654
0.0318089	4.61538
0.0332102	4.64423
0.0346115	4.67308
0.0358726	4.70192
0.0372739	4.73077
0.038535	4.78846
0.0397962	4.81731
0.0410573	4.78846
0.0424586	4.81731
0.044	4.84615
