Adsorption isotherm of Water on Carbon
DOI: 10.1007/s10450-008-9135-8
Adsorbate Water: InChIKey XLYOFNOQVPJJNP-UHFFFAOYSA-N
Temperature: 300 K
Tabular data in the source: 0
pressure (bar)	uptake (mmol/g)
0.000993548	0.290781
0.00298065	0.587983
0.00354839	15.094
0.00369032	20.7821
0.00383226	26.4703
0.00397419	44.6702
0.00468387	44.9592
0.00610323	45.2527
0.00738065	45.5453
0.0088	46.1232
0.0102194	46.4168
0.0116387	46.4259
0.0130581	46.4351
0.0144774	46.7286
0.0158968	46.7378
0.0173161	46.747
0.0187355	46.7562
0.0200129	46.7644
0.0214323	47.0579
0.0228516	47.0671
0.0249806	47.3652
0.0266839	47.3762
0.0288129	47.39
0.0308	47.1185
0.033071	47.7019
0.0354839	47.7175
0.037471	47.7303
0.0398839	47.7459
