Adsorption isotherm of Nitrogen on PyBp-COF
DOI: 10.1021/acs.chemmater.1c00084
Article source: Figure S11
Adsorbate Nitrogen: InChIKey IJGRMHOSHXDMSA-UHFFFAOYSA-N
Kind: experiment
Temperature: 77 K
Tabular data in the source: 0
pressure (bar)	uptake (cm3(STP)/g)
0.004471	43.4869
0.004471	69.4704
0.005801	83.9056
0.007132	92.5668
0.007132	102.19
0.011124	111.814
0.009794	123.362
0.009794	131.061
0.011124	142.609
0.013786	154.157
0.02177	174.367
0.029754	188.802
0.041731	198.425
0.051046	207.087
0.085645	231.145
0.120244	277.338
0.152181	311.02
0.20541	319.682
0.233356	319.682
0.263962	321.606
0.297231	323.531
0.33316	323.531
0.367759	326.418
0.402358	327.38
0.438288	327.38
0.475548	331.23
0.511478	330.267
0.546077	331.23
0.579345	332.192
0.615274	335.079
0.649873	336.041
0.689795	337.004
0.721732	338.929
0.758993	340.853
0.793592	342.778
0.829521	346.627
0.86279	347.59
0.896058	354.326
0.930657	365.874
0.971909	399.557
1.00518	493.867
0.965256	424.578
0.934649	389.933
0.897388	368.761
0.853474	359.138
0.816214	355.288
0.776292	349.514
0.743024	347.59
0.723063	347.59
0.691126	347.59
0.655196	344.703
0.615274	346.627
0.583337	344.703
0.550069	342.778
0.514139	341.816
0.478209	338.929
0.440949	339.891
0.40635	337.966
0.36909	338.929
0.33316	337.004
0.301223	336.041
0.265293	335.079
0.226702	333.154
0.190772	331.23
0.158835	325.456
0.118913	289.849
0.082984	243.656
0.052377	223.446
