Adsorption isotherm of Nitrogen on Poly(Py-BBT)
DOI: 10.1021/acs.chemmater.1c00084
Article source: Figure S3
Adsorbate Nitrogen: InChIKey IJGRMHOSHXDMSA-UHFFFAOYSA-N
Kind: experiment
Temperature: 77 K
Tabular data in the source: 0
pressure (bar)	uptake (cm3(STP)/g)
0.003101	0.820944
0.003101	9.77366
0.003101	24.6949
0.006084	36.6318
0.009067	45.5845
0.020254	58.5162
0.035916	65.4795
0.052323	69.4585
0.08663	76.4217
0.122428	83.3849
0.159717	88.3586
0.192532	92.3376
0.229822	94.3271
0.26562	100.296
0.298435	103.28
0.334233	107.259
0.370031	112.233
0.405829	115.217
0.441627	118.201
0.475933	122.18
0.51024	126.159
0.546038	129.143
0.581836	134.117
0.617634	140.085
0.65194	144.064
0.684755	152.022
0.719061	156.996
0.756351	167.938
0.790657	175.896
0.824964	187.833
0.862253	203.749
0.89656	227.623
0.930866	259.455
0.965173	315.161
1.00246	444.478
0.974122	382.804
0.941307	314.166
0.901035	260.45
0.851812	222.649
0.817506	204.744
0.796624	196.786
0.760826	183.854
0.725028	175.896
0.687738	167.938
0.653432	158.986
0.617634	153.017
0.581836	148.043
0.547529	145.059
0.513223	140.085
0.475933	135.112
0.441627	131.133
0.40732	126.159
0.370031	123.175
0.335724	120.191
0.299926	117.206
0.26562	113.227
0.229822	111.238
0.192532	107.259
0.158226	101.29
0.120936	98.3061
0.08663	92.3376
0.050832	80.4007
