Adsorption isotherm of Hydrogen on CaCOF-d
DOI: 10.1038/Srep01882
Adsorbate Hydrogen: InChIKey UFHFLCQGNIYNRP-UHFFFAOYSA-N
Temperature: 77 K
Tabular data in the source: 0
pressure (bar)	uptake (wt%)
0.744979	1.96377
1.88909	2.43572
3.31924	2.87191
3.31924	3.37246
4.17732	3.84441
6.75158	4.53803
10.756	4.81691
16.7626	4.89557
36.4986	4.90987
200.107	4.93132
