Adsorption isotherm of Hydrogen on CaCOF-d
DOI: 10.1038/Srep01882
Adsorbate Hydrogen: InChIKey UFHFLCQGNIYNRP-UHFFFAOYSA-N
Temperature: 77 K
Tabular data in the source: 0
pressure (bar)	uptake (wt%)
0.421011	0.147964
1.12524	1.19726
2.252	2.28177
3.23791	3.15501
4.92805	4.06346
8.59002	4.66205
12.5337	4.85923
19.4351	4.8874
34.6464	4.92261
49.7168	4.92261
66.1957	4.92261
79.1534	4.92965
91.8295	4.9367
100.28	4.92965
