Adsorption isotherm of Hydrogen on CaCOF-d
DOI: 10.1038/Srep01882
Adsorbate Hydrogen: InChIKey UFHFLCQGNIYNRP-UHFFFAOYSA-N
Temperature: 298 K
Tabular data in the source: 0
pressure (bar)	uptake (wt%)
1.03101	1.7278
1.03101	1.99238
3.60526	2.42857
5.60747	2.90767
7.60967	3.66564
9.89789	4.20195
16.4766	4.65959
23.6273	4.85981
35.3544	4.89557
51.6581	4.91702
70.2499	4.92417
87.1256	4.92417
108.292	4.92417
129.172	4.92417
151.482	4.92417
177.225	4.93132
199.821	4.90987
