Adsorption isotherm of Hydrogen on CaCOF-d
DOI: 10.1038/Srep01882
Adsorbate Hydrogen: InChIKey UFHFLCQGNIYNRP-UHFFFAOYSA-N
Temperature: 77 K
Tabular data in the source: 0
pressure (bar)	uptake (wt%)
0.561856	0.0352875
1.97031	1.00712
5.20974	1.27472
9.57594	1.39444
19.8576	1.59163
30.1393	1.74656
39.7168	1.85923
49.8576	1.97191
60.421	2.0705
69.8576	2.16205
80.421	2.21839
84.5055	2.29585
90.1393	2.31698
99.9985	2.30994
