Adsorption isotherm of Hydrogen on CaCOF-d
DOI: 10.1038/Srep01882
Adsorbate Hydrogen: InChIKey UFHFLCQGNIYNRP-UHFFFAOYSA-N
Temperature: 400 K
Tabular data in the source: 0
pressure (bar)	uptake (wt%)
0.45895	0.0616836
0.744979	1.66344
1.03101	1.01273
5.03541	1.85651
13.6163	1.98523
23.0552	2.19975
31.9221	2.58589
42.7912	3.18655
57.0926	3.85156
68.2477	4.2091
81.6911	4.46652
98.8528	4.65244
115.156	4.7597
143.187	4.83836
170.36	4.86696
200.393	4.88842
