Adsorption isotherm of Nitrogen on ACPX-41
DOI: 10.1007/s10450-018-9943-4
Article source: Figure 2a
Adsorbate Nitrogen: InChIKey IJGRMHOSHXDMSA-UHFFFAOYSA-N
Kind: experiment
Temperature: 298 K
Tabular data in the source: 0
pressure (bar)	uptake (mmol/g)
0.02521	0.003141
0.378151	0.204188
0.764706	0.380105
1.15126	0.546597
1.58824	0.706806
1.97479	0.819895
2.94958	1.07749
3.93277	1.31623
7.95798	2.07958
9.97479	2.36859
0.571429	0.289005
5.96639	1.73089
