Adsorption isotherm of Carbon Dioxide on ACPX-22
DOI: 10.1007/s10450-018-9943-4
Article source: Figure 1b
Adsorbate Carbon Dioxide: InChIKey CURLTUGMZLYLDI-UHFFFAOYSA-N
Kind: experiment
Temperature: 323 K
Tabular data in the source: 0
pressure (bar)	uptake (mmol/g)
0.234807	0.601556
0.552486	1.08902
0.745856	1.34832
0.959945	1.59723
1.45718	2.03284
1.96823	2.41659
2.96961	3.04926
3.97099	3.49525
7.96961	4.70873
10.0138	5.13397
0.366022	0.81936
5.96685	4.19015
