Adsorption isotherm of Carbon Dioxide, Nitrogen on ACPX-41
DOI: 10.1007/s10450-018-9943-4
Article source: Figure 8c
Adsorbate Carbon Dioxide: InChIKey CURLTUGMZLYLDI-UHFFFAOYSA-N
Adsorbate Nitrogen: InChIKey IJGRMHOSHXDMSA-UHFFFAOYSA-N
Kind: experiment
Temperature: 348 K
Tabular data in the source: 0
pressure (bar)	Carbon Dioxide fraction	Carbon Dioxide uptake (g/g)	Nitrogen fraction	Nitrogen uptake (g/g)	total uptake (g/g)
1.67742	0.12	0.023466			
1.93548	0.12	0.023759			
2.94624	0.12	0.030477			
3.93548	0.12	0.036417			
