Adsorption isotherm of Nitrogen on ACPX-41
DOI: 10.1007/s10450-018-9943-4
Article source: Figure 5a
Adsorbate Nitrogen: InChIKey IJGRMHOSHXDMSA-UHFFFAOYSA-N
Kind: experiment
Temperature: 77 K
Tabular data in the source: 0
pressure (bar)	uptake (mmol/g)
0	4.29887
0	82.3951
0.000762	15.0461
0.000762	26.5097
0.000762	37.9734
0.000762	49.4371
0.000762	61.6172
0.000762	71.6479
0.000762	93.1423
0.000762	103.889
0.000762	113.92
0.000762	124.667
0.000762	136.131
0.000762	146.162
0.000762	157.625
0.000762	167.656
0.000762	177.687
0.000762	189.867
0.000762	212.794
0.000762	224.258
0.000762	235.722
0.001524	201.331
0.001524	247.185
0.003047	257.216
0.005333	267.247
0.00838	277.277
0.012189	285.159
0.019808	293.756
0.027426	301.638
0.035807	309.519
0.044187	315.251
0.052567	320.983
0.061709	325.998
0.072375	330.297
0.085326	335.312
0.096754	339.611
0.116562	343.91
0.133322	347.492
0.150083	350.358
0.159987	351.791
0.179033	354.657
0.193508	356.09
0.207221	357.523
0.222458	359.672
0.238457	361.105
0.25217	362.538
0.267407	363.971
0.281882	365.404
0.300928	365.404
0.313117	366.121
0.329878	366.837
0.343591	368.27
0.356542	368.987
0.37635	368.987
0.386254	369.703
0.403014	370.42
0.418251	370.42
0.435774	371.136
0.447963	371.853
0.466247	371.136
0.479199	371.853
0.494436	372.569
0.508149	373.286
0.524147	373.286
0.54167	373.286
0.554621	374.002
0.571382	374.719
0.58738	374.002
0.601855	375.435
0.614807	375.435
0.630043	375.435
0.64528	375.435
0.661279	375.435
0.67423	376.151
0.694038	376.151
0.704704	376.868
0.722988	376.868
0.735178	376.868
0.751938	377.584
0.768699	377.584
0.780888	378.301
0.797649	377.584
0.813647	377.584
0.829646	379.017
0.841836	378.301
0.859358	378.301
0.874595	379.017
0.889832	378.301
0.901259	378.301
0.919543	379.734
0.936304	379.734
0.951541	379.734
0.961445	379.017
0.971349	379.734
0.981253	379.734
0.993442	379.734
1.00487	379.734
