Adsorption isotherm of Nitrogen on ACPX-41
DOI: 10.1007/s10450-018-9943-4
Article source: Figure 2c
Adsorbate Nitrogen: InChIKey IJGRMHOSHXDMSA-UHFFFAOYSA-N
Kind: experiment
Temperature: 348 K
Tabular data in the source: 0
pressure (bar)	uptake (mmol/g)
0.008569	0
0.377035	0.072785
0.556984	0.110759
0.762639	0.142405
1.58526	0.275316
1.97087	0.341772
2.96487	0.484177
3.96744	0.60443
5.96401	0.832278
9.95716	1.24683
1.16538	0.221519
7.96058	1.05696
