Adsorption isotherm of Carbon Dioxide, Nitrogen on ACPX-41
DOI: 10.1007/s10450-018-9943-4
Article source: Figure 8b
Adsorbate Carbon Dioxide: InChIKey CURLTUGMZLYLDI-UHFFFAOYSA-N
Adsorbate Nitrogen: InChIKey IJGRMHOSHXDMSA-UHFFFAOYSA-N
Kind: experiment
Temperature: 323 K
Tabular data in the source: 0
pressure (bar)	Carbon Dioxide fraction	Carbon Dioxide uptake (g/g)	Nitrogen fraction	Nitrogen uptake (g/g)	total uptake (g/g)
1.74194	0.12	0.037488			
1.96774	0.12	0.037975			
2.95699	0.12	0.047517			
3.94624	0.12	0.055599			
