Adsorption isotherm of Nitrogen on ACPX-76
DOI: 10.1007/s10450-018-9943-4
Article source: Figure 5a
Adsorbate Nitrogen: InChIKey IJGRMHOSHXDMSA-UHFFFAOYSA-N
Kind: experiment
Temperature: 77 K
Tabular data in the source: 0
pressure (bar)	uptake (mmol/g)
0	6.44831
0	71.6479
0	95.2917
0	106.039
0	116.07
0	127.533
0	136.847
0	156.909
0	179.836
0	191.3
0	237.871
0	247.902
0	260.082
0.000762	17.1955
0.000762	27.9427
0.000762	40.8393
0.000762	50.87
0.000762	62.3337
0.000762	84.5445
0.000762	146.162
0.000762	169.089
0.000762	202.047
0.000762	214.227
0.000762	227.124
0.000762	272.262
0.000762	283.726
0.000762	293.756
0.000762	304.504
0.000762	315.251
0.001524	325.281
0.003047	337.462
0.003809	348.209
0.004571	359.672
0.007618	369.703
0.009904	378.301
0.013713	389.765
0.016761	398.362
0.02057	406.96
0.022855	413.408
0.028188	422.006
0.032759	430.604
0.03733	438.485
0.042663	447.799
0.047996	456.397
0.053329	464.995
0.0579	471.443
0.064757	480.757
0.072375	490.072
0.079232	497.953
0.089136	507.267
0.097516	515.865
0.10742	527.329
0.119609	537.359
0.131037	545.241
0.143988	555.988
0.152368	561.003
0.163034	568.168
0.175986	577.482
0.191222	584.647
0.205697	591.095
0.224743	601.842
0.23998	607.574
0.248361	611.157
0.253693	613.306
0.26893	619.038
0.282643	621.904
0.294833	626.203
0.31007	629.069
0.32683	631.935
0.343591	634.8
0.351971	636.233
0.367208	639.099
0.383207	641.249
0.398443	642.682
0.414442	644.831
0.428917	645.548
0.44263	647.697
0.458629	649.13
0.473104	650.563
0.488341	651.996
0.504339	652.712
0.514243	653.429
0.532528	654.145
0.546241	654.862
0.561478	656.295
0.576714	656.295
0.591189	657.011
0.607188	657.728
0.622425	657.728
0.636138	659.161
0.652899	660.594
0.665088	660.594
0.683372	660.594
0.698609	661.31
0.712322	662.027
0.726036	662.027
0.742034	662.743
0.758033	663.46
0.772508	664.176
0.788507	664.893
0.80222	665.609
0.814409	665.609
0.833455	666.326
0.84793	666.326
0.863167	667.042
0.876118	667.042
0.892879	667.042
0.907354	667.758
0.922591	668.475
0.936304	669.908
0.948493	669.908
0.957636	669.908
0.968301	669.908
0.977443	670.624
0.990395	669.908
0.994966	670.624
