Adsorption isotherm of Nitrogen on ACPX-22
DOI: 10.1007/s10450-018-9943-4
Article source: Figure 2c
Adsorbate Nitrogen: InChIKey IJGRMHOSHXDMSA-UHFFFAOYSA-N
Kind: experiment
Temperature: 348 K
Tabular data in the source: 0
pressure (bar)	uptake (mmol/g)
0.368466	0.10443
0.771208	0.167722
0.968295	0.193038
1.48243	0.272152
2.96487	0.462025
3.96744	0.588608
7.96058	0.990506
9.99143	1.14557
0.565553	0.132911
5.96401	0.803797
