Adsorption isotherm of Nitrogen on ACPX-22
DOI: 10.1007/s10450-018-9943-4
Article source: Figure 2b
Adsorbate Nitrogen: InChIKey IJGRMHOSHXDMSA-UHFFFAOYSA-N
Kind: experiment
Temperature: 323 K
Tabular data in the source: 0
pressure (bar)	uptake (mmol/g)
0.735672	0.21928
0.94953	0.263771
1.44568	0.371822
2.95124	0.657839
3.96065	0.819915
5.96236	1.09004
9.99145	1.50318
0.556031	0.17161
7.95552	1.30932
