Adsorption isotherm of Carbon Dioxide on ACPX-41
DOI: 10.1007/s10450-018-9943-4
Article source: Figure 1c
Adsorbate Carbon Dioxide: InChIKey CURLTUGMZLYLDI-UHFFFAOYSA-N
Kind: experiment
Temperature: 348 K
Tabular data in the source: 0
pressure (bar)	uptake (mmol/g)
0.251748	0.797927
0.34965	0.860104
0.566434	1.057
0.755245	1.2228
0.972028	1.3886
1.96503	2.0829
2.95105	2.64249
3.94406	3.11917
7.88112	4.51814
9.88112	5.07772
1.46853	1.75129
5.92308	3.84456
