Adsorption isotherm of Carbon Dioxide, Nitrogen on ACPX-76
DOI: 10.1007/s10450-018-9943-4
Article source: Figure 8a
Adsorbate Carbon Dioxide: InChIKey CURLTUGMZLYLDI-UHFFFAOYSA-N
Adsorbate Nitrogen: InChIKey IJGRMHOSHXDMSA-UHFFFAOYSA-N
Kind: experiment
Temperature: 298 K
Tabular data in the source: 0
pressure (bar)	Carbon Dioxide fraction	Carbon Dioxide uptake (g/g)	Nitrogen fraction	Nitrogen uptake (g/g)	total uptake (g/g)
1.7035	0.12	0.055545			
1.96226	0.12	0.05856			
2.96496	0.12	0.074222			
3.96765	0.12	0.088911			
