Adsorption isotherm of Carbon Dioxide on ACPX-41
DOI: 10.1007/s10450-018-9943-4
Article source: Figure 1a
Adsorbate Carbon Dioxide: InChIKey CURLTUGMZLYLDI-UHFFFAOYSA-N
Kind: experiment
Temperature: 298 K
Tabular data in the source: 0
pressure (bar)	uptake (mmol/g)
0.041351	0.072476
0.261888	1.66695
0.365265	1.94651
0.565127	2.44349
0.76499	2.77481
0.971744	3.14754
1.97105	4.64884
2.95658	5.61173
3.95589	6.3572
5.92695	7.46506
9.89662	8.98706
1.47485	3.96549
7.898	8.33477
