Adsorption isotherm of Carbon Dioxide on ACPX-22
DOI: 10.1007/s10450-018-9943-4
Article source: Figure 5b
Adsorbate Carbon Dioxide: InChIKey CURLTUGMZLYLDI-UHFFFAOYSA-N
Kind: experiment
Temperature: 273 K
Tabular data in the source: 0
pressure (bar)	uptake (mmol/g)
0.000139	0.365482
0.000208	3.53299
0.000208	6.2132
0.000416	8.16244
0.000694	10.7208
0.000902	12.7919
0.00118	15.4721
0.001527	17.4213
0.001978	20.8325
0.002498	24.2437
0.002637	25.4619
0.00288	26.6802
0.003123	28.1421
0.003748	31.5533
0.004893	36.7919
0.005864	40.934
0.006697	43.9797
0.007565	47.1472
0.008536	50.1929
0.00923	52.3858
0.010063	55.066
0.011139	57.7462
0.012284	60.0609
0.013325	62.6193
0.014019	64.203
0.014609	65.5431
0.015546	67.6142
0.016656	70.0508
0.017801	72.6091
0.018808	74.4365
0.019987	76.3858
0.021098	77.9695
0.022208	80.0406
0.023319	81.6244
0.024429	83.3299
0.02547	84.7919
0.026615	86.2538
0.02776	88.0812
0.028767	89.2995
0.029634	90.5178
0.031439	92.7107
0.03248	94.0508
0.033486	95.1472
0.034353	96.1218
0.035325	97.2183
