Adsorption isotherm of Nitrogen on ACPX-22
DOI: 10.1007/s10450-018-9943-4
Article source: Figure 2a
Adsorbate Nitrogen: InChIKey IJGRMHOSHXDMSA-UHFFFAOYSA-N
Kind: experiment
Temperature: 298 K
Tabular data in the source: 0
pressure (bar)	uptake (mmol/g)
0.97479	0.420942
1.47899	0.581152
1.96639	0.725654
3.96639	1.18115
5.96639	1.51414
7.95798	1.78429
9.9916	2.01047
0.378151	0.182199
2.97479	0.973822
