Adsorption isotherm of Nitrogen on ACPX-22
DOI: 10.1007/s10450-018-9943-4
Article source: Figure 5a
Adsorbate Nitrogen: InChIKey IJGRMHOSHXDMSA-UHFFFAOYSA-N
Kind: experiment
Temperature: 77 K
Tabular data in the source: 0
pressure (bar)	uptake (mmol/g)
0	44.4217
0.000762	173.388
0.000762	8.59775
0.000762	20.7779
0.000762	32.2416
0.000762	55.8854
0.000762	68.782
0.000762	80.2457
0.000762	113.204
0.000762	124.667
0.000762	137.564
0.000762	150.461
0.000762	161.208
0.000762	101.74
0.000762	90.9928
0.001524	184.135
0.003047	194.882
0.005333	206.346
0.009904	216.377
0.02057	223.541
0.033521	229.273
0.046472	235.722
0.058662	238.588
0.072375	241.453
0.085326	242.886
0.096754	244.319
0.115038	247.902
0.130275	248.618
0.146274	250.051
0.162272	250.768
0.176747	252.201
0.190461	252.917
0.206459	252.917
0.221696	254.35
0.237695	254.35
0.250646	255.067
0.267407	255.067
0.282643	255.783
0.296357	255.783
0.311593	256.499
0.329878	256.499
0.343591	257.216
0.358828	257.216
0.372541	257.932
0.389301	257.932
0.4053	258.649
0.420537	259.365
0.432726	259.365
0.451011	259.365
0.468533	259.365
0.479199	259.365
0.495959	259.365
0.511196	260.082
0.525671	260.082
0.543955	259.365
0.556907	259.365
0.572143	260.082
0.588142	260.798
0.601855	260.798
0.618616	260.798
0.631567	261.515
0.649851	261.515
0.664326	261.515
0.675754	261.515
0.697086	262.231
0.709275	262.231
0.725274	262.231
0.741272	262.231
0.753462	262.231
0.770984	262.231
0.784697	262.231
0.800696	262.231
0.813647	262.231
0.83117	262.231
0.844883	262.231
0.861643	262.948
0.876118	262.948
0.890593	262.948
0.904307	262.948
0.922591	262.948
0.937828	263.664
0.954588	263.664
0.965254	263.664
0.976682	263.664
0.988109	263.664
0.998775	263.664
1.00944	263.664
