Adsorption isotherm of Nitrogen on ACPX-76
DOI: 10.1007/s10450-018-9943-4
Article source: Figure 2a
Adsorbate Nitrogen: InChIKey IJGRMHOSHXDMSA-UHFFFAOYSA-N
Kind: experiment
Temperature: 298 K
Tabular data in the source: 0
pressure (bar)	uptake (mmol/g)
0.02521	0.009424
0.571429	0.251309
1.14286	0.468063
1.56302	0.625131
1.95798	0.744503
2.98319	1.04293
3.97479	1.30995
5.96639	1.78429
9.9916	2.53508
0.773109	0.329843
7.95798	2.18639
