Adsorption isotherm of Carbon Dioxide on ACPX-22
DOI: 10.1007/s10450-018-9943-4
Article source: Figure 1c
Adsorbate Carbon Dioxide: InChIKey CURLTUGMZLYLDI-UHFFFAOYSA-N
Kind: experiment
Temperature: 348 K
Tabular data in the source: 0
pressure (bar)	uptake (mmol/g)
0.342657	0.455959
0.559441	0.65285
0.776224	0.829016
1.46154	1.35751
1.95804	1.63731
2.97203	2.06218
3.96503	2.46632
7.97203	3.5544
9.99301	3.93782
0.965035	0.984456
5.97203	3.07772
