Adsorption isotherm of Carbon Dioxide on ACPX-76
DOI: 10.1007/s10450-018-9943-4
Article source: Figure 5b
Adsorbate Carbon Dioxide: InChIKey CURLTUGMZLYLDI-UHFFFAOYSA-N
Kind: experiment
Temperature: 273 K
Tabular data in the source: 0
pressure (bar)	uptake (mmol/g)
0	0
0.000174	1.58376
0.000347	3.04569
0.000486	4.8731
0.000694	6.45685
0.000937	8.40609
0.001249	10.1117
0.001423	11.4518
0.001943	14.2538
0.002498	16.934
0.002707	17.9086
0.00288	18.8832
0.003192	20.467
0.003921	23.5127
0.004997	28.3858
0.005899	31.9188
0.006801	35.3299
0.007703	38.6193
0.008571	41.4213
0.009438	44.467
0.010098	46.9036
0.011174	49.9492
0.012284	53.6041
0.01336	56.6497
0.014019	58.599
0.014574	60.3046
0.015685	63.3503
0.016691	66.2741
0.017975	69.4416
0.019016	72.2437
0.020057	74.802
0.021133	78.0914
0.022069	79.797
0.023388	83.2081
0.024429	85.5228
0.025609	88.0812
0.026719	90.6396
0.027934	93.4416
0.028732	95.1472
0.029773	97.3401
0.031508	101.239
0.03248	103.431
0.033521	105.381
0.034492	107.574
0.03529	109.157
