Adsorption isotherm of Carbon Dioxide on ACPX-41
DOI: 10.1007/s10450-018-9943-4
Article source: Figure 5b
Adsorbate Carbon Dioxide: InChIKey CURLTUGMZLYLDI-UHFFFAOYSA-N
Kind: experiment
Temperature: 273 K
Tabular data in the source: 0
pressure (bar)	uptake (mmol/g)
0.000208	2.07107
0.000312	4.14213
0.000416	5.96954
0.000659	8.64975
0.000937	10.7208
0.00118	13.0355
0.001527	15.4721
0.001909	18.3959
0.002498	22.0508
0.002811	24
0.003054	25.4619
0.003852	29.1168
0.004962	34.4772
0.00583	38.3756
0.006836	42.1523
0.007703	45.6853
0.008536	48.8528
0.009265	51.4112
0.010133	53.8477
0.011174	57.5025
0.012284	60.5482
0.013429	63.3503
0.014019	65.0558
0.014574	66.7614
0.015546	69.4416
0.016656	72.2437
0.017905	75.533
0.018877	77.6041
0.020022	80.2843
0.021202	82.9645
0.022139	84.9137
0.023319	87.2284
0.024533	89.665
0.02547	91.6142
0.026719	93.9289
0.02783	96.1218
0.028801	97.9492
0.029773	99.7766
0.0313	102.335
0.03248	104.162
0.033729	105.99
0.035325	108.426
