Adsorption isotherm of Carbon Dioxide on ACPX-76
DOI: 10.1007/s10450-018-9943-4
Article source: Figure 1b
Adsorbate Carbon Dioxide: InChIKey CURLTUGMZLYLDI-UHFFFAOYSA-N
Kind: experiment
Temperature: 323 K
Tabular data in the source: 0
pressure (bar)	uptake (mmol/g)
0	0.093345
0.331492	0.632671
0.538674	0.974935
0.946133	1.49352
1.46409	2.0121
1.96823	2.55143
2.9558	3.42265
3.9779	4.19015
4.96547	4.90579
8.47376	6.92826
10.0069	7.63353
0.759669	1.23423
6.96133	6.11927
