Adsorption isotherm of Carbon Dioxide on ACPX-22
DOI: 10.1007/s10450-018-9943-4
Article source: Figure 1a
Adsorbate Carbon Dioxide: InChIKey CURLTUGMZLYLDI-UHFFFAOYSA-N
Kind: experiment
Temperature: 298 K
Tabular data in the source: 0
pressure (bar)	uptake (mmol/g)
0.254997	1.07679
0.385941	1.39776
0.572019	1.83261
0.971744	2.50561
1.47485	3.14754
1.97105	3.63417
2.97037	4.35893
5.9683	5.59103
7.97381	6.07765
9.99311	6.45039
0.778773	2.22606
3.96968	4.86626
