Adsorption isotherm of Carbon Dioxide on ACPX-76
DOI: 10.1007/s10450-018-9943-4
Article source: Figure 1c
Adsorbate Carbon Dioxide: InChIKey CURLTUGMZLYLDI-UHFFFAOYSA-N
Kind: experiment
Temperature: 348 K
Tabular data in the source: 0
pressure (bar)	uptake (mmol/g)
0.020979	0.093264
0.342657	0.373057
0.762238	0.725389
0.951049	0.870466
1.46853	1.28497
1.96503	1.59585
2.96503	2.23834
3.96503	2.76684
4.96503	3.3057
8.46853	4.81865
10.007	5.40933
0.573427	0.569948
6.97203	4.19689
