Adsorption isotherm of Nitrogen on ACPX-41
DOI: 10.1007/s10450-018-9943-4
Article source: Figure 2b
Adsorbate Nitrogen: InChIKey IJGRMHOSHXDMSA-UHFFFAOYSA-N
Kind: experiment
Temperature: 323 K
Tabular data in the source: 0
pressure (bar)	uptake (mmol/g)
0.017109	0
0.367836	0.123941
0.556031	0.20339
1.14628	0.327331
1.56544	0.403602
1.97605	0.467161
2.9769	0.670551
4.00342	0.842161
5.98802	1.15678
7.98974	1.42373
0.75278	0.244703
9.99145	1.66525
