Adsorption isotherm of Carbon Dioxide on ACPX-76
DOI: 10.1007/s10450-018-9943-4
Article source: Figure 1a
Adsorbate Carbon Dioxide: InChIKey CURLTUGMZLYLDI-UHFFFAOYSA-N
Kind: experiment
Temperature: 298 K
Tabular data in the source: 0
pressure (bar)	uptake (mmol/g)
0.020675	0.041415
0.572019	1.71872
0.992419	2.59879
1.48174	3.4478
1.98484	4.20362
2.97037	5.49784
3.97657	6.6264
4.97588	7.49612
8.47002	10.157
10.0069	11.0371
0.785665	2.17429
6.96072	9.15272
