Adsorption isotherm of Carbon Dioxide on ACPX-41
DOI: 10.1007/s10450-018-9943-4
Article source: Figure 1b
Adsorbate Carbon Dioxide: InChIKey CURLTUGMZLYLDI-UHFFFAOYSA-N
Kind: experiment
Temperature: 323 K
Tabular data in the source: 0
pressure (bar)	uptake (mmol/g)
0.006906	0.072602
0.241713	1.03717
0.359116	1.172
0.745856	1.71132
0.953039	1.92913
1.45028	2.47883
1.96133	2.94555
3.94337	4.34572
5.92541	5.2688
7.88674	6.06742
9.8895	6.71046
0.559392	1.47277
2.9558	3.70268
