Adsorption isotherm of Nitrogen on ACPX-76
DOI: 10.1007/s10450-018-9943-4
Article source: Figure 2b
Adsorbate Nitrogen: InChIKey IJGRMHOSHXDMSA-UHFFFAOYSA-N
Kind: experiment
Temperature: 323 K
Tabular data in the source: 0
pressure (bar)	uptake (mmol/g)
0.008554	0
0.581694	0.165254
0.863986	0.238347
1.42002	0.365466
1.83918	0.463983
1.96749	0.492585
2.96835	0.708686
3.96065	0.90572
5.95381	1.26483
9.98289	1.86864
1.67665	0.435381
7.96407	1.58581
