Adsorption isotherm of Nitrogen on ACPX-76
DOI: 10.1007/s10450-018-9943-4
Article source: Figure 2c
Adsorbate Nitrogen: InChIKey IJGRMHOSHXDMSA-UHFFFAOYSA-N
Kind: experiment
Temperature: 348 K
Tabular data in the source: 0
pressure (bar)	uptake (mmol/g)
0.034276	0
0.368466	0.098101
0.762639	0.170886
1.27678	0.253165
1.55098	0.300633
1.9623	0.360759
3.96744	0.667722
5.96401	0.939873
7.96058	1.18354
9.99143	1.41456
0.574122	0.129747
2.9563	0.522152
