Adsorption isotherm of Nitrogen on JUC-561 after cycle application
DOI: 10.1039/d1sc01742j
Article source: Figure S42
Adsorbate Nitrogen: InChIKey IJGRMHOSHXDMSA-UHFFFAOYSA-N
Kind: experiment
Temperature: 77 K
Tabular data in the source: 0
pressure (bar)	uptake (cm3(STP)/g)
0	232.638
0.002552	270.92
0.006806	309.202
0.018717	353.374
0.027224	371.043
0.039135	391.656
0.047642	403.436
0.083374	449.08
0.119106	480
0.154838	513.865
0.19142	546.258
0.22545	578.65
0.25948	621.35
0.296063	644.908
0.334347	650.798
0.385392	668.466
0.402407	668.466
0.440691	674.356
0.476423	680.245
0.509603	690.552
0.545334	696.442
0.581066	702.331
0.617649	708.221
0.651679	712.638
0.687411	717.055
0.723993	724.417
0.758874	733.252
0.794606	740.614
0.829487	749.448
0.866069	762.699
0.90095	773.006
0.935831	786.258
0.969011	836.319
0.994533	937.914
1.00219	1027.73
0.994533	1001.23
0.961354	881.963
0.917115	828.957
0.87798	800.982
0.842248	798.037
0.806516	780.368
0.770785	786.258
0.735904	783.313
0.719739	777.423
0.683157	777.423
0.649977	773.006
0.612544	771.534
0.576812	768.589
0.542782	765.644
0.5062	758.282
0.47302	718.528
0.432184	712.638
0.401557	706.748
0.364974	703.804
0.32669	694.969
0.294361	692.025
0.25863	662.577
0.222898	618.405
0.185465	588.957
0.150584	555.092
0.115703	521.227
0.079971	484.417
0.049344	443.19
