Adsorption isotherm of Nitrogen on JUC-560 after cycle application
DOI: 10.1039/d1sc01742j
Article source: Figure S41
Adsorbate Nitrogen: InChIKey IJGRMHOSHXDMSA-UHFFFAOYSA-N
Kind: experiment
Temperature: 77 K
Tabular data in the source: 0
pressure (bar)	uptake (cm3(STP)/g)
0.001723	299.281
0.002585	316.886
0.004308	328.623
0.006893	342.874
0.009478	357.964
0.018094	379.76
0.030156	399.88
0.037911	416.647
0.049973	429.222
0.084437	482.036
0.121487	505.509
0.159397	512.216
0.193	520.599
0.226603	523.952
0.263652	527.305
0.299839	533.174
0.334304	534.012
0.368768	537.365
0.404955	540.719
0.441143	543.234
0.475607	542.395
0.512656	546.587
0.547121	546.587
0.582446	547.425
0.637589	549.102
0.67033	550.778
0.687563	551.617
0.72375	552.455
0.778893	554.132
0.812496	554.97
0.829728	555.808
0.865054	557.485
0.902103	559.162
0.937429	564.192
0.971893	569.222
1.00205	591.018
1.00808	607.784
1.00808	624.551
0.989987	599.401
0.949491	590.18
0.913304	589.341
0.877116	587.665
0.84179	587.665
0.806464	587.665
0.771138	585.988
0.735813	587.665
0.700487	585.988
0.664299	586.826
0.629835	585.15
0.592786	585.988
0.558321	584.311
0.522134	584.311
0.488531	563.353
0.470438	561.677
0.415295	559.162
0.379969	559.162
0.365321	557.485
0.329134	556.647
0.29467	554.132
0.256759	550.778
0.223156	549.102
0.18783	545.748
0.151643	539.042
0.117179	528.982
0.082714	503.832
0.052558	453.533
