Adsorption isotherm of Nitrogen on JUC-561
DOI: 10.1039/d1sc01742j
Article source: Figure 2c
Adsorbate Nitrogen: InChIKey IJGRMHOSHXDMSA-UHFFFAOYSA-N
Kind: experiment
Temperature: 77 K
Tabular data in the source: 0
pressure (bar)	uptake (cm3(STP)/g)
0.002142	238.976
0.002142	269.701
0.002142	300.427
0.004284	327.738
0.00964	355.05
0.017137	396.017
0.02999	426.743
0.042844	447.226
0.050341	462.589
0.084616	510.384
0.119962	544.523
0.155308	582.077
0.192796	617.923
0.227071	655.477
0.262417	706.686
0.299905	730.583
0.33418	740.825
0.387734	754.481
0.402729	761.309
0.44236	766.43
0.475563	771.55
0.509838	781.792
0.546255	790.327
0.58053	795.448
0.618018	802.276
0.653364	807.397
0.687639	815.932
0.722985	822.76
0.758331	833.001
0.793677	839.829
0.830094	850.071
0.86544	863.727
0.900786	880.797
0.935061	904.694
0.968264	962.731
0.99397	1089.05
1.0004	1211.95
0.99397	1119.77
0.960767	990.043
0.913639	921.764
0.877222	897.866
0.839734	884.211
0.805459	879.09
0.769042	873.969
0.733696	865.434
0.720843	865.434
0.682284	865.434
0.648009	855.192
0.612663	860.313
0.576246	853.485
0.541971	850.071
0.507696	843.243
0.473421	798.862
0.43272	792.034
0.399516	785.206
0.365241	780.085
0.328824	776.671
0.293478	768.137
0.257061	737.411
0.223858	686.202
0.185298	648.649
0.152095	614.509
0.116749	576.956
0.082474	537.696
0.052483	493.314
