Adsorption isotherm of Nitrogen on JUC-560
DOI: 10.1039/d1sc01742j
Article source: Figure 2c
Adsorbate Nitrogen: InChIKey IJGRMHOSHXDMSA-UHFFFAOYSA-N
Kind: experiment
Temperature: 77 K
Tabular data in the source: 0
pressure (bar)	uptake (cm3(STP)/g)
0.002142	291.678
0.002142	311.757
0.003213	328.666
0.006427	348.745
0.006427	365.654
0.007498	382.563
0.010711	394.188
0.020351	423.778
0.031062	441.744
0.041772	457.596
0.052483	477.675
0.083545	533.686
0.123175	557.992
0.159592	567.503
0.193867	573.844
0.228142	578.071
0.263488	583.355
0.299905	589.696
0.33418	592.867
0.369526	594.98
0.405943	598.151
0.440217	599.207
0.475563	601.321
0.51198	603.435
0.547326	605.548
0.582672	605.548
0.637298	607.662
0.672644	608.719
0.689781	609.775
0.726198	611.889
0.779753	614.003
0.814027	614.003
0.830094	615.059
0.866511	617.173
0.901857	619.287
0.938274	623.514
0.972549	629.855
1.0004	655.218
1.00468	667.9
1.00682	692.206
0.990757	662.616
0.950056	653.104
0.912568	650.991
0.878293	650.991
0.841876	648.877
0.805459	649.934
0.771184	650.991
0.736909	648.877
0.700492	648.877
0.666217	648.877
0.628729	647.82
0.593383	646.764
0.558037	646.764
0.522691	646.764
0.488416	624.571
0.470208	622.457
0.417725	620.343
0.381308	619.287
0.367383	617.173
0.329895	617.173
0.294549	614.003
0.258132	609.775
0.223858	606.605
0.187441	602.378
0.152095	596.037
0.11782	586.526
0.083545	557.992
0.051412	503.038
