Adsorption isotherm of Hydrogen on Zeolite PdX
DOI: 10.1016/j.jallcom.2007.11.058
Adsorbate Hydrogen: InChIKey UFHFLCQGNIYNRP-UHFFFAOYSA-N
Temperature: 333 K
Tabular data in the source: 0
pressure (bar)	uptake (cm3(STP)/g)
0.59703	0.285375
1.00334	0.475624
1.50916	0.665874
2.00669	1.04637
2.5125	1.23662
3.00588	1.522
3.50343	2.09275
4.00094	2.18787
4.50261	2.283
5.00014	2.6635
