Adsorption isotherm of Hydrogen on Zeolite PdNaX-31
DOI: 10.1016/j.jallcom.2007.11.058
Adsorbate Hydrogen: InChIKey UFHFLCQGNIYNRP-UHFFFAOYSA-N
Temperature: 333 K
Tabular data in the source: 0
pressure (bar)	uptake (cm3(STP)/g)
0.164234	5.68966
0.246606	7.24138
0.328876	9.31034
0.399403	11.0345
0.682019	15.3448
1.08281	19.3103
1.18901	19.8276
1.31876	20.6897
1.37778	20.8621
1.48398	21.3793
1.64913	22.4138
1.76717	22.7586
1.92058	23.4483
2.03862	23.7931
2.16844	24.3103
2.28652	24.4828
2.42818	24.8276
2.54626	25
2.69974	25.3448
2.81781	25.5172
2.93589	25.6897
3.04212	26.0345
3.24284	26.3793
3.36088	26.7241
3.46715	26.8966
3.58522	27.069
3.75054	27.2414
3.86862	27.4138
3.97488	27.5862
4.09293	27.931
4.27006	28.1034
4.38813	28.2759
4.50621	28.4483
4.61248	28.6207
4.81323	28.7931
4.93131	28.9655
5.04938	29.1379
5.15565	29.3103
