Adsorption isotherm of Hydrogen on Zeolite PdNaX-67
DOI: 10.1016/j.jallcom.2007.11.058
Adsorbate Hydrogen: InChIKey UFHFLCQGNIYNRP-UHFFFAOYSA-N
Temperature: 77 K
Tabular data in the source: 0
pressure (bar)	uptake (cm3(STP)/g)
0.0322148	16.1435
0.0644295	25.1121
0.112752	37.6682
0.132886	41.2556
0.157047	46.6368
0.201342	54.7085
0.22953	58.296
0.277852	63.6771
0.289933	64.574
0.322148	69.0583
0.402685	78.0269
0.507383	86.9955
0.567785	91.4798
0.624161	95.0673
0.67651	97.7578
0.732886	100.448
0.789262	103.139
0.845638	106.726
0.902013	108.52
0.962416	111.211
1.01477	113.004
1.11544	114.798
1.13154	117.489
