Adsorption isotherm of Hydrogen on Zeolite RuNaX-46
DOI: 10.1016/j.jallcom.2007.11.058
Adsorbate Hydrogen: InChIKey UFHFLCQGNIYNRP-UHFFFAOYSA-N
Temperature: 333 K
Tabular data in the source: 0
pressure (bar)	uptake (cm3(STP)/g)
0.396542	17.1182
0.601764	21.268
0.783058	23.8617
1.15791	28.3573
1.36372	29.5677
1.47267	30.2594
1.6299	31.9885
1.73885	32.6801
1.89618	33.8905
2.00517	34.4092
2.15038	35.6196
2.25937	36.1383
2.41677	37.0029
2.52579	37.3487
2.68315	38.3862
2.80433	38.5591
2.91328	39.2507
3.03442	39.5965
3.216	40.8069
3.32502	41.1527
3.44613	41.6715
3.55511	42.1902
3.73679	42.8818
3.84578	43.4006
3.96688	43.9193
4.07591	44.2651
4.26964	45.3026
4.37869	45.4755
4.49983	45.8213
4.60886	46.1671
4.70582	46.1671
4.80258	47.2046
4.91164	47.3775
5.03278	47.7233
5.14177	48.2421
