Adsorption isotherm of Hydrogen on Zeolite RuNaX-52
DOI: 10.1016/j.jallcom.2007.11.058
Adsorbate Hydrogen: InChIKey UFHFLCQGNIYNRP-UHFFFAOYSA-N
Temperature: 303 K
Tabular data in the source: 0
pressure (bar)	uptake (cm3(STP)/g)
0.11811	11.5452
0.224409	18.2799
0.271654	19.5627
0.318898	21.0058
0.366142	22.449
0.401575	23.5714
0.531496	26.9388
0.649606	29.1837
0.755906	30.9475
0.92126	32.7114
1.00394	33.8338
1.16929	36.0787
1.26378	36.7201
1.33465	37.5219
1.41732	38.484
1.52362	39.4461
1.61811	39.9271
1.72441	40.7289
1.8189	41.691
1.9252	42.0117
2.0315	42.6531
2.12598	43.4548
2.23228	43.9359
2.32677	44.7376
2.43307	45.0583
2.53937	45.379
2.64567	45.8601
2.76378	46.0204
2.87008	46.6618
2.97638	46.9825
3.09449	47.3032
3.20079	47.7843
3.30709	47.9446
3.41339	48.2653
3.5315	48.4257
3.64961	48.7464
3.75591	48.9067
3.87402	49.0671
3.99213	49.2274
4.11024	49.3878
4.21654	49.7085
4.33465	49.7085
4.44094	49.8688
4.55906	50.0292
4.67717	50.1895
4.78346	50.5102
4.88976	50.5102
5.00787	50.6706
5.11417	50.9913
5.23228	51.1516
5.27953	51.312
