Adsorption isotherm of Hydrogen on Zeolite PdNaX-67
DOI: 10.1016/j.jallcom.2007.11.058
Adsorbate Hydrogen: InChIKey UFHFLCQGNIYNRP-UHFFFAOYSA-N
Temperature: 303 K
Tabular data in the source: 0
pressure (bar)	uptake (cm3(STP)/g)
0.0304054	14.1165
0.0608108	18.086
0.0709459	20.2915
0.0912162	24.9231
0.121622	27.1279
0.152027	29.3326
0.182432	31.3168
0.212838	34.8451
0.243243	36.8293
0.283784	38.8131
0.35473	43.0017
0.39527	44.9855
0.628378	54.9034
0.689189	56.6658
0.75	58.4283
0.902027	61.7315
1.03378	65.2561
1.18581	67.8976
1.33784	70.3185
1.39865	70.978
1.47973	72.078
1.54054	73.1787
1.64189	73.1749
1.72297	74.4955
1.79392	75.5958
1.89527	75.5921
1.97635	76.692
2.05743	77.5714
2.14865	77.7887
2.22973	78.668
2.34122	79.5463
2.44257	79.5426
2.53378	80.201
2.61486	80.8597
2.71622	81.0766
2.81757	81.2935
2.91892	81.7309
3.01014	81.9482
3.11149	82.3856
3.21284	82.6025
3.30405	82.8197
3.40541	83.0366
3.66892	83.6886
3.75	83.9062
3.84122	84.1235
3.94257	84.1198
4.3277	84.5468
4.42905	84.543
4.59122	85.4194
4.69257	85.1951
4.77365	85.4127
4.875	85.409
4.97635	85.4053
5.11824	85.4001
5.20946	85.6173
5.29054	85.8349
