Adsorption isotherm of Hydrogen on Zeolite RuNaX-52
DOI: 10.1016/j.jallcom.2007.11.058
Adsorbate Hydrogen: InChIKey UFHFLCQGNIYNRP-UHFFFAOYSA-N
Temperature: 303 K
Tabular data in the source: 0
pressure (bar)	uptake (cm3(STP)/g)
0.0608108	7.49776
0.121622	12.1279
0.212838	17.6392
0.405405	23.588
0.516892	26.6722
0.628378	28.6534
0.760135	31.2956
0.912162	32.8341
1.05405	34.373
1.19595	35.9119
1.30743	37.8931
1.54054	39.4287
1.69257	40.526
1.79392	42.5076
1.86486	41.6226
1.94595	42.502
2.03716	43.1604
2.05743	44.2626
2.13851	43.3773
2.20946	44.0364
2.39189	44.6915
2.48311	45.3499
2.57432	46.0083
2.60473	46.4484
2.68581	46.4454
2.76689	46.4424
2.85811	46.8802
2.95946	47.0971
3.06081	47.5345
3.11149	48.6356
3.19257	47.7503
3.26351	47.9683
3.36486	48.1851
3.50676	48.6211
3.60811	48.6173
3.70946	48.8342
3.87162	49.0488
4.22635	49.477
4.71284	50.7826
4.79392	50.7796
4.89527	50.7759
4.98649	50.9931
5.29054	50.982
