Adsorption isotherm of Hydrogen on Zeolite PdNaX-58
DOI: 10.1016/j.jallcom.2007.11.058
Adsorbate Hydrogen: InChIKey UFHFLCQGNIYNRP-UHFFFAOYSA-N
Temperature: 77 K
Tabular data in the source: 0
pressure (bar)	uptake (cm3(STP)/g)
0.0442953	19.7309
0.0926174	34.9776
0.132886	43.9462
0.177181	52.9148
0.201342	57.3991
0.225503	60.9865
0.302013	70.852
0.422819	83.4081
0.507383	90.583
0.567785	95.0673
0.624161	98.6547
0.67651	102.242
0.732886	104.933
0.793289	107.623
0.849664	111.211
0.897987	112.108
0.962416	114.798
1.01879	117.489
1.11141	120.179
