Adsorption isotherm of Hydrogen on Zeolite PdX
DOI: 10.1016/j.jallcom.2007.11.058
Adsorbate Hydrogen: InChIKey UFHFLCQGNIYNRP-UHFFFAOYSA-N
Temperature: 77 K
Tabular data in the source: 0
pressure (bar)	uptake (cm3(STP)/g)
0.00564972	41.9512
0.0094162	89.7561
0.0169492	99.5122
0.0225989	108.293
0.0301318	118.049
0.0357815	126.829
0.0414313	136.585
0.0583804	154.146
0.0715631	160.976
0.0847458	167.805
0.111111	179.512
0.126177	185.366
0.143126	190.244
0.158192	195.122
0.175141	200.976
0.188324	205.854
0.20339	208.78
0.210923	210.732
0.227872	213.659
0.246704	216.585
0.263653	219.512
0.282486	222.439
0.299435	225.366
0.318267	228.293
0.335217	231.22
0.354049	234.146
0.370998	237.073
0.387947	240
0.403013	240
0.408663	242.927
0.427495	244.878
0.442561	248.78
0.45951	248.78
0.478343	250.732
0.495292	251.707
0.514124	252.683
0.532957	253.659
0.549906	255.61
0.568738	256.585
0.585687	257.561
0.60452	259.512
0.621469	260.488
0.640301	262.439
0.659134	263.415
0.677966	264.39
0.693032	267.317
0.706215	266.341
0.725047	267.317
0.741996	268.293
0.758945	270.244
0.777778	271.22
0.794727	273.171
0.804143	273.171
0.822976	274.146
0.839925	275.122
0.858757	277.073
0.877589	278.049
0.894539	280
0.909605	280.976
0.926554	281.951
0.945386	282.927
0.964218	283.902
0.983051	284.878
0.998117	286.829
