Adsorption isotherm of Hydrogen on Zeolite PdNaX-52
DOI: 10.1016/j.jallcom.2007.11.058
Adsorbate Hydrogen: InChIKey UFHFLCQGNIYNRP-UHFFFAOYSA-N
Temperature: 333 K
Tabular data in the source: 0
pressure (bar)	uptake (cm3(STP)/g)
0.152288	6.37931
0.269651	10.1724
0.41084	12.931
0.51663	15.5172
0.622658	16.8966
0.799484	18.6207
0.9291	20.1724
1.03516	21.3793
1.17666	22.5862
1.36546	23.4483
1.47163	24.1379
1.62503	24.8276
1.73127	25.1724
1.93188	26.0345
2.04989	26.5517
2.15612	26.8966
2.27417	27.2414
2.43938	27.931
2.53384	28.1034
2.67543	28.7931
2.79358	28.6207
2.89981	28.9655
3.01789	29.1379
3.23035	29.8276
3.34839	30.1724
3.45462	30.5172
3.5727	30.6897
3.73795	31.2069
3.84418	31.5517
3.96226	31.7241
4.06849	32.069
4.26921	32.4138
4.38729	32.5862
4.49352	32.931
4.61159	33.1034
4.80047	33.6207
4.91854	33.7931
5.02478	34.1379
5.14282	34.4828
5.27267	34.8276
