Adsorption isotherm of Hydrogen on Zeolite RuNaX-32
DOI: 10.1016/j.jallcom.2007.11.058
Adsorbate Hydrogen: InChIKey UFHFLCQGNIYNRP-UHFFFAOYSA-N
Temperature: 303 K
Tabular data in the source: 0
pressure (bar)	uptake (cm3(STP)/g)
0.177165	12.9883
0.401575	19.242
0.566929	22.2886
0.732283	24.6939
0.897638	27.2595
0.992126	28.3819
1.09843	29.6647
1.19291	30.4665
1.25197	30.9475
1.3937	32.3907
1.5	33.0321
1.64173	34.1545
1.75984	34.6356
1.90157	35.277
2.00787	35.758
2.16142	36.5598
2.26772	36.7201
2.44488	37.2012
2.56299	37.6822
2.72835	38.3236
2.84646	38.484
2.95276	38.8047
3.07087	38.965
3.23622	39.6064
3.34252	39.7668
3.46063	39.9271
3.57874	40.0875
3.68504	40.2478
3.76772	40.4082
3.88583	40.4082
4.00394	40.5685
4.12205	40.7289
4.26378	40.5685
4.37008	40.8892
4.47638	41.0496
4.59449	41.2099
4.70079	41.3703
4.8189	41.5306
4.93701	41.5306
5.05512	41.5306
5.17323	41.691
