Adsorption isotherm of Hydrogen on Zeolite RuNaX-40
DOI: 10.1016/j.jallcom.2007.11.058
Adsorbate Hydrogen: InChIKey UFHFLCQGNIYNRP-UHFFFAOYSA-N
Temperature: 77 K
Tabular data in the source: 0
pressure (bar)	uptake (cm3(STP)/g)
0.0596026	37.6147
0.115232	55.0459
0.186755	70.6422
0.202649	74.3119
0.22649	78.8991
0.278146	88.0734
0.345695	97.2477
0.393377	104.587
0.45298	110.092
0.508609	114.679
0.568212	121.101
0.623841	124.771
0.67947	129.358
0.739073	133.945
0.794702	135.78
0.846358	140.367
0.90596	143.119
0.961589	145.872
1.02119	148.624
1.07285	151.376
1.12848	153.211
