Adsorption isotherm of Hydrogen on Zeolite PdX
DOI: 10.1016/j.jallcom.2007.11.058
Adsorbate Hydrogen: InChIKey UFHFLCQGNIYNRP-UHFFFAOYSA-N
Temperature: 303 K
Tabular data in the source: 0
pressure (bar)	uptake (cm3(STP)/g)
0.211467	0.475624
0.402185	0.570749
0.601205	0.856124
0.80022	1.04637
0.99923	1.1415
1.50091	1.522
3.49102	2.6635
4.00097	2.75862
4.50264	2.85375
5.0126	3.13912
