Adsorption isotherm of Hydrogen on Zeolite PdNaX-58
DOI: 10.1016/j.jallcom.2007.11.058
Adsorbate Hydrogen: InChIKey UFHFLCQGNIYNRP-UHFFFAOYSA-N
Temperature: 303 K
Tabular data in the source: 0
pressure (bar)	uptake (cm3(STP)/g)
0.0722892	16.5517
0.216867	27.931
0.313253	34.9138
0.39759	39.0517
0.542169	44.4828
0.662651	48.3621
0.795181	51.4655
0.927711	54.3103
1.06024	56.6379
1.20482	59.2241
1.31325	60.7759
1.37349	61.8103
1.48193	62.5862
1.62651	64.3966
1.73494	64.9138
1.89157	66.7241
2	67.2414
2.15663	68.5345
2.27711	69.0517
2.43373	70.3448
2.55422	70.8621
2.6988	71.6379
2.80723	71.8966
2.92771	72.1552
3.03614	72.6724
3.21687	73.7069
3.3253	73.9655
3.44578	74.2241
3.55422	74.7414
3.75904	75.5172
3.87952	75.7759
4	76.0345
4.12048	76.0345
4.26506	76.5517
4.36145	76.5517
4.48193	76.5517
4.60241	76.8103
4.71084	76.8103
4.80723	77.3276
4.92771	77.3276
5.04819	77.3276
5.16867	77.3276
5.28916	77.5862
