Adsorption isotherm of Hydrogen on Zeolite RuNaX-40
DOI: 10.1016/j.jallcom.2007.11.058
Adsorbate Hydrogen: InChIKey UFHFLCQGNIYNRP-UHFFFAOYSA-N
Temperature: 303 K
Tabular data in the source: 0
pressure (bar)	uptake (cm3(STP)/g)
0.295276	16.8367
0.425197	20.6851
0.555118	23.4111
0.673228	25.3353
0.897638	28.3819
1.05118	30.4665
1.20472	31.9096
1.38189	33.5131
1.48819	34.1545
1.65354	35.277
1.75984	35.9184
1.9252	36.7201
2.04331	37.0408
2.17323	37.3615
2.27953	37.8426
2.43307	38.3236
2.55118	38.6443
2.76378	39.2857
2.88189	39.6064
2.98819	39.9271
3.1063	40.2478
3.22441	40.4082
3.34252	40.7289
3.44882	40.8892
3.56693	41.0496
3.75591	41.5306
3.87402	41.5306
3.98031	41.691
4.09843	42.0117
4.19291	41.8513
4.2874	42.3324
4.40551	42.4927
4.52362	42.6531
4.64173	42.6531
4.8189	42.8134
4.93701	43.1341
5.04331	43.2945
5.16142	43.4548
