Adsorption isotherm of Hydrogen on Zeolite PdNaX-67
DOI: 10.1016/j.jallcom.2007.11.058
Adsorbate Hydrogen: InChIKey UFHFLCQGNIYNRP-UHFFFAOYSA-N
Temperature: 303 K
Tabular data in the source: 0
pressure (bar)	uptake (cm3(STP)/g)
0.0481928	17.5862
0.0963855	25.0862
0.144578	30
0.228916	34.9138
0.325301	41.1207
0.433735	47.3276
0.578313	53.0172
0.638554	54.569
0.698795	56.6379
0.819277	60
0.927711	62.069
1.01205	63.8793
1.36145	70.8621
1.46988	71.8966
1.62651	73.7069
1.73494	74.2241
1.89157	76.0345
2	76.8103
2.15663	78.1034
2.27711	78.6207
2.44578	79.9138
2.55422	80.1724
2.68675	81.2069
2.80723	81.2069
2.91566	81.7241
3.03614	81.9828
3.24096	82.5
3.36145	83.0172
3.46988	83.2759
3.59036	83.5345
3.75904	83.7931
3.87952	83.7931
4	84.0517
4.12048	84.0517
4.27711	84.8276
4.38554	84.569
4.49398	84.8276
4.61446	85.0862
4.80723	85.0862
4.91566	85.0862
5.03614	85.3448
5.15663	85.3448
