Adsorption isotherm of Hydrogen on Zeolite RuNaX-20
DOI: 10.1016/j.jallcom.2007.11.058
Adsorbate Hydrogen: InChIKey UFHFLCQGNIYNRP-UHFFFAOYSA-N
Temperature: 303 K
Tabular data in the source: 0
pressure (bar)	uptake (cm3(STP)/g)
0.0472441	6.41399
0.165354	12.1866
0.259843	15.7143
0.389764	18.2799
0.519685	20.6851
0.673228	22.449
0.708661	22.93
0.779528	23.8921
0.862205	24.6939
0.956693	25.1749
1.02756	26.7784
1.12205	27.2595
1.19291	27.9009
1.26378	28.7026
1.35827	29.1837
1.45276	29.9854
1.54724	30.7872
1.65354	31.1079
1.75984	31.5889
1.85433	32.2303
1.96063	32.7114
2.06693	33.3528
2.17323	33.5131
2.27953	34.3149
2.38583	34.7959
2.49213	34.9563
2.61024	35.277
2.71654	35.5977
2.82283	35.9184
2.94094	36.3994
3.04724	36.5598
3.16535	37.0408
3.27165	37.2012
3.38976	37.3615
3.49606	37.6822
3.61417	37.6822
3.72047	38.0029
3.83858	38.0029
3.94488	38.1633
4.06299	38.3236
4.1811	38.484
4.29921	38.6443
4.41732	38.6443
4.52362	38.8047
4.64173	38.965
4.75984	39.1254
4.87795	39.1254
4.99606	39.2857
5.10236	39.4461
5.22047	39.4461
5.33858	39.6064
