Adsorption isotherm of Hydrogen on Zeolite RuNaX-52
DOI: 10.1016/j.jallcom.2007.11.058
Adsorbate Hydrogen: InChIKey UFHFLCQGNIYNRP-UHFFFAOYSA-N
Temperature: 303 K
Tabular data in the source: 0
pressure (bar)	uptake (cm3(STP)/g)
0.101351	6.39333
0.263514	10.358
0.324324	12.341
0.405405	13.8822
0.537162	16.3038
0.638514	18.0648
0.790541	19.8239
0.912162	20.9223
1.04392	22.241
1.18581	23.5593
1.31757	24.878
1.36824	25.3173
1.46959	25.7548
1.6723	27.0709
1.77365	27.7289
1.92568	28.8263
2.01689	29.2641
2.16892	30.3614
2.27027	30.5783
2.67568	31.8869
2.76689	32.3247
2.85811	32.7626
2.95946	32.9794
3.05068	33.4173
3.31419	33.8487
3.39527	34.9487
3.49662	35.1656
3.58784	35.6034
3.81081	36.257
3.91216	36.4738
4.30743	37.5622
4.40878	37.9997
4.5	38.2169
4.60135	38.4338
4.83446	38.8664
4.93581	38.8627
5.03716	39.3001
5.12838	39.2968
5.29054	39.5114
