Adsorption isotherm of Hydrogen on Zeolite RuNaX-40
DOI: 10.1016/j.jallcom.2007.11.058
Adsorbate Hydrogen: InChIKey UFHFLCQGNIYNRP-UHFFFAOYSA-N
Temperature: 333 K
Tabular data in the source: 0
pressure (bar)	uptake (cm3(STP)/g)
0.155934	8.1268
0.408733	16.7723
0.638198	20.9222
0.795284	23.3429
0.928338	24.7262
1.04934	25.7637
1.31559	27.8386
1.38818	28.5303
1.49723	28.7032
1.65456	29.9135
1.77571	30.2594
2.16316	32.3343
2.28438	32.3343
2.44181	33.0259
2.5508	33.5447
2.68396	34.4092
2.80517	34.4092
2.91419	34.755
3.03526	35.4467
3.2291	35.9654
3.35024	36.3112
3.45926	36.6571
3.5804	37.0029
3.7378	37.8674
3.85902	37.8674
3.96804	38.2133
4.08918	38.5591
4.28298	39.2507
4.40412	39.5965
4.51314	39.9424
4.63429	40.2882
4.80391	40.634
4.92505	40.9798
5.03408	41.3256
5.2036	42.1902
