Adsorption isotherm of Hydrogen on Zeolite 13X
DOI: 10.1016/j.jallcom.2007.11.058
Adsorbate Hydrogen: InChIKey UFHFLCQGNIYNRP-UHFFFAOYSA-N
Temperature: 77 K
Tabular data in the source: 0
pressure (bar)	uptake (cm3(STP)/g)
0.0188324	42.9268
0.0433145	71.2195
0.0583804	75.122
0.0677966	82.9268
0.0809793	89.7561
0.101695	100.488
0.167608	123.902
0.212806	137.561
0.229755	140.488
0.248588	143.415
0.265537	147.317
0.282486	150.244
0.301318	153.171
0.318267	157.073
0.3371	160
0.354049	162.927
0.370998	166.829
0.389831	169.756
0.403013	171.707
0.412429	173.659
0.431262	175.61
0.448211	177.561
0.467043	179.512
0.483992	181.463
0.500942	184.39
0.519774	186.341
0.538606	188.293
0.555556	190.244
0.574388	192.195
0.591337	196.098
0.610169	195.122
0.627119	198.049
0.644068	200
0.6629	200.976
0.679849	203.902
0.698682	205.854
0.715631	207.805
0.734463	209.756
0.753296	210.732
0.770245	212.683
0.789077	214.634
0.813559	216.585
0.832392	218.537
0.849341	219.512
0.868173	220.488
0.887006	221.463
0.905838	222.439
0.922787	224.39
0.94162	225.366
0.960452	226.341
0.977401	227.317
0.996234	229.268
