Adsorption isotherm of Hydrogen on Zeolite PdNaX-67
DOI: 10.1016/j.jallcom.2007.11.058
Adsorbate Hydrogen: InChIKey UFHFLCQGNIYNRP-UHFFFAOYSA-N
Temperature: 333 K
Tabular data in the source: 0
pressure (bar)	uptake (cm3(STP)/g)
0.0462598	5
0.0693728	7.58621
0.115191	14.8276
0.13827	17.5862
0.173093	20.6897
0.208051	23.1034
0.278306	26.2069
0.395805	29.3103
0.525251	31.7241
0.654799	33.6207
0.796158	35.5172
0.925808	36.8966
1.05549	38.1034
1.17336	39.3103
1.3267	40.3448
1.55067	42.5862
1.64506	43.1034
1.76307	43.6207
1.86926	44.1379
1.97539	45
2.06975	45.6897
2.18779	46.0345
2.29399	46.5517
2.40022	46.8966
2.50638	47.5862
2.61258	48.1034
2.70703	48.2759
2.82504	48.7931
2.93124	49.3103
3.04931	49.4828
3.15551	50
3.27355	50.3448
3.3916	50.6897
3.49779	51.2069
3.61584	51.5517
3.7221	51.7241
3.8283	52.2414
3.94634	52.5862
4.05254	53.1034
4.17055	53.6207
4.27681	53.7931
4.38301	54.3103
4.50105	54.6552
4.60728	55
4.72529	55.5172
4.83152	55.8621
4.94957	56.2069
5.06757	56.7241
5.17381	57.069
5.29185	57.4138
