Adsorption isotherm of Hydrogen on Zeolite RuNaX-46
DOI: 10.1016/j.jallcom.2007.11.058
Adsorbate Hydrogen: InChIKey UFHFLCQGNIYNRP-UHFFFAOYSA-N
Temperature: 303 K
Tabular data in the source: 0
pressure (bar)	uptake (cm3(STP)/g)
0.0944882	10.102
0.318898	18.9213
0.437008	22.93
0.625984	26.7784
0.791339	29.5044
0.944882	31.1079
1.03937	32.551
1.21654	33.8338
1.32283	34.9563
1.35827	35.1166
1.46457	35.758
1.62992	36.8805
1.73622	37.5219
1.9252	38.6443
2.04331	38.965
2.14961	39.6064
2.25591	39.7668
2.43307	40.4082
2.55118	40.7289
2.71654	41.5306
2.83465	41.691
2.95276	41.8513
3.05906	42.172
3.23622	42.4927
3.35433	42.8134
3.46063	42.9738
3.56693	43.2945
3.76772	43.7755
3.88583	43.9359
3.99213	44.2566
4.11024	44.5773
4.2874	45.0583
4.40551	45.2187
4.52362	45.379
4.62992	45.379
4.8189	45.6997
4.93701	45.8601
5.05512	46.0204
5.16142	46.1808
