Adsorption isotherm of Hydrogen on Zeolite RuNaX-20
DOI: 10.1016/j.jallcom.2007.11.058
Adsorbate Hydrogen: InChIKey UFHFLCQGNIYNRP-UHFFFAOYSA-N
Temperature: 333 K
Tabular data in the source: 0
pressure (bar)	uptake (cm3(STP)/g)
0.132006	6.57061
0.179967	9.16427
0.373068	13.3141
0.542136	16.4265
0.650878	18.1556
0.808034	20.2305
0.929002	21.4409
0.977417	21.7867
1.0864	22.3055
1.14676	23.5159
1.25579	23.8617
1.34046	24.7262
1.4616	25.072
1.6553	26.2824
1.76425	26.9741
1.90956	27.6657
2.01855	28.1844
2.07905	28.7032
2.18811	28.8761
2.29713	29.2219
2.39399	29.7406
2.51513	30.0865
2.62416	30.4323
2.73318	30.7781
2.85432	31.1239
2.96334	31.4697
3.08448	31.8156
3.18138	32.1614
3.30252	32.5072
3.41154	32.853
3.53269	33.1988
3.62955	33.7176
3.73861	33.8905
3.85975	34.2363
3.96877	34.5821
4.08991	34.928
4.17466	35.4467
4.29583	35.6196
4.40486	35.9654
4.526	36.3112
4.63502	36.6571
4.744	37.1758
4.85306	37.3487
4.96208	37.6945
5.08326	37.8674
5.2044	38.2133
