Adsorption isotherm of Hydrogen on Zeolite RuNaX-20
DOI: 10.1016/j.jallcom.2007.11.058
Adsorbate Hydrogen: InChIKey UFHFLCQGNIYNRP-UHFFFAOYSA-N
Temperature: 77 K
Tabular data in the source: 0
pressure (bar)	uptake (cm3(STP)/g)
0.0317881	40.367
0.0715232	56.8807
0.0953642	66.055
0.111258	70.6422
0.135099	78.8991
0.15894	84.4037
0.182781	88.9908
0.202649	94.4954
0.22649	99.0826
0.278146	108.257
0.29404	110.092
0.329801	113.761
0.361589	117.431
0.38543	122.936
0.405298	122.936
0.437086	127.523
0.460927	129.358
0.496689	133.028
0.516556	133.945
0.552318	136.697
0.572185	138.532
0.607947	141.284
0.643709	142.202
0.67947	145.872
0.695364	145.872
0.727152	149.541
0.766887	150.459
0.802649	152.294
0.838411	155.046
0.878146	155.046
0.913907	156.881
0.949669	158.716
0.989404	159.633
1.02517	161.468
1.0649	162.385
1.10066	163.303
1.11258	165.138
1.13245	165.138
1.1404	166.055
