Adsorption isotherm of Hydrogen on Zeolite RuNaX-52
DOI: 10.1016/j.jallcom.2007.11.058
Adsorbate Hydrogen: InChIKey UFHFLCQGNIYNRP-UHFFFAOYSA-N
Temperature: 77 K
Tabular data in the source: 0
pressure (bar)	uptake (cm3(STP)/g)
0.0357616	22.9358
0.0635762	31.1927
0.0794702	33.945
0.115232	40.367
0.135099	44.9541
0.162914	49.5413
0.202649	55.9633
0.22649	59.633
0.278146	65.1376
0.341722	70.6422
0.393377	75.2294
0.45298	79.8165
0.512583	85.3211
0.564238	88.9908
0.627815	90.8257
0.647682	92.6606
0.695364	95.4128
0.75894	98.1651
0.794702	100.917
0.846358	102.752
0.866225	102.752
0.90596	104.587
0.929801	105.505
0.98543	108.257
1.01722	110.092
1.03709	110.092
1.07285	111.009
1.10464	111.009
1.12053	112.844
