Adsorption isotherm of Hydrogen on Zeolite PdNaX-43
DOI: 10.1016/j.jallcom.2007.11.058
Adsorbate Hydrogen: InChIKey UFHFLCQGNIYNRP-UHFFFAOYSA-N
Temperature: 333 K
Tabular data in the source: 0
pressure (bar)	uptake (cm3(STP)/g)
0.410908	12.5862
0.528781	13.7931
0.67014	15.6897
0.787979	17.069
0.94125	18.4483
1.05912	19.6552
1.18884	20.6897
1.31863	21.3793
1.36577	21.8966
1.47193	22.5862
1.66074	23.4483
1.76694	23.9655
1.92041	24.3103
2.03845	24.6552
2.16831	25
2.28635	25.3448
2.42801	25.6897
2.54609	25.8621
2.68775	26.2069
2.8058	26.5517
2.91203	26.8966
3.03007	27.2414
3.21895	27.7586
3.33702	27.931
3.44325	28.2759
3.56133	28.4483
3.75027	28.6207
3.86831	28.9655
3.97458	29.1379
4.09262	29.4828
4.26969	30
4.38776	30.1724
4.49403	30.3448
4.61207	30.6897
4.70656	30.6897
4.78917	31.0345
4.90724	31.2069
5.02532	31.3793
5.13155	31.7241
5.23788	31.5517
