Adsorption isotherm of Hydrogen on Zeolite RuNaX-52
DOI: 10.1016/j.jallcom.2007.11.058
Adsorbate Hydrogen: InChIKey UFHFLCQGNIYNRP-UHFFFAOYSA-N
Temperature: 333 K
Tabular data in the source: 0
pressure (bar)	uptake (cm3(STP)/g)
0.0233342	4.49568
0.0461794	11.4121
0.178465	16.5994
0.262545	20.4035
0.395075	24.3804
0.539831	27.8386
0.648502	29.9135
0.793538	31.9885
0.902279	33.7176
1.01109	35.1009
1.10796	35.6196
1.19259	36.6571
1.26511	37.6945
1.37413	38.0403
1.47093	38.9049
1.57984	39.7695
1.68883	40.2882
1.78563	41.1527
1.89465	41.4986
2.0036	42.1902
2.07619	42.8818
2.18521	43.2277
2.29416	43.9193
2.39099	44.611
2.49997	45.1297
2.59677	45.9942
2.71795	46.1671
2.82693	46.6859
2.94807	47.0317
3.06922	47.3775
3.16605	48.0692
3.26295	48.415
3.38405	48.9337
3.49304	49.4524
3.61415	49.9712
3.71101	50.4899
3.82	51.0086
3.94111	51.5274
4.05009	52.0461
4.15904	52.7378
4.26813	52.7378
4.38921	53.4294
4.49823	53.7752
4.61937	54.121
4.7162	54.8127
4.83738	54.9856
4.95852	55.3314
5.06754	55.6772
5.18872	55.8501
5.28558	56.3689
