Adsorption isotherm of Hydrogen on Zeolite PdNaX-67
DOI: 10.1016/j.jallcom.2007.11.058
Adsorbate Hydrogen: InChIKey UFHFLCQGNIYNRP-UHFFFAOYSA-N
Temperature: 303 K
Tabular data in the source: 0
pressure (bar)	uptake (cm3(STP)/g)
0.152027	9.92088
0.253378	15.2113
0.293919	17.1951
0.35473	20.2811
0.456081	24.2479
0.658784	29.9758
0.810811	33.279
0.932432	36.1422
1.05405	39.4465
1.19595	40.9854
1.3277	43.6277
1.39865	44.728
1.47973	46.0485
1.59122	48.0297
1.68243	48.9087
1.85473	51.3289
1.91554	51.9884
2.00676	52.6468
2.10811	53.3048
2.38176	55.7213
2.65541	57.6965
2.70608	57.6946
2.80743	58.1321
2.89865	58.5699
3	59.0074
3.09122	59.4452
3.29392	60.3201
3.35473	60.0973
3.44595	60.7557
3.53716	61.1935
3.63851	61.6309
3.69932	61.8493
3.91216	62.7238
4.01351	62.9407
4.17568	63.3759
4.28716	64.4747
4.36824	63.81
4.46959	64.0269
4.57095	64.2437
4.6723	64.24
4.77365	64.4569
4.82432	64.455
4.92568	64.6719
5.02703	64.8887
5.12838	64.885
5.21959	65.1022
5.29054	65.3202
