Adsorption isotherm of Hydrogen on Zeolite 13X
DOI: 10.1016/j.jallcom.2007.11.058
Adsorbate Hydrogen: InChIKey UFHFLCQGNIYNRP-UHFFFAOYSA-N
Temperature: 333 K
Tabular data in the source: 0
pressure (bar)	uptake (cm3(STP)/g)
0.164506	4.31034
0.24681	6.2069
0.364377	8.96552
0.505532	11.8966
0.63508	13.7931
0.800061	15.6897
0.94159	16.7241
1.04769	17.7586
1.18921	18.7931
1.37802	19.6552
1.48418	20.3448
1.63759	21.0345
1.75563	21.3793
1.90901	22.2414
2.02705	22.5862
2.16868	23.1034
2.28672	23.4483
2.42835	23.9655
2.54643	24.1379
2.6999	24.4828
2.81798	24.6552
2.93606	24.8276
3.04232	25
3.24304	25.3448
3.36112	25.5172
3.47919	25.6897
3.58546	25.8621
3.75075	26.2069
3.85701	26.3793
3.97509	26.5517
4.09316	26.7241
4.2703	26.8966
4.38834	27.2414
4.4946	27.4138
4.61268	27.5862
4.8134	27.931
4.93148	28.1034
5.03774	28.2759
5.15585	28.2759
5.26215	28.2759
