Adsorption isotherm of Hydrogen on Zeolite PdNaX-43
DOI: 10.1016/j.jallcom.2007.11.058
Adsorbate Hydrogen: InChIKey UFHFLCQGNIYNRP-UHFFFAOYSA-N
Temperature: 77 K
Tabular data in the source: 0
pressure (bar)	uptake (cm3(STP)/g)
0.0684564	32.287
0.112752	46.6368
0.132886	53.8117
0.157047	59.1928
0.201342	69.9552
0.22953	72.6457
0.277852	83.4081
0.346309	90.583
0.394631	96.861
0.455034	104.036
0.503356	107.623
0.519463	109.417
0.555705	111.211
0.692617	121.076
0.732886	122.87
0.765101	124.664
0.861745	129.148
0.897987	130.045
0.930201	132.735
0.962416	134.529
0.998658	135.426
1.0349	136.323
1.06711	137.22
1.08725	138.117
1.11946	139.013
