Adsorption isotherm of Hydrogen on Zeolite RuNaX-52
DOI: 10.1016/j.jallcom.2007.11.058
Adsorbate Hydrogen: InChIKey UFHFLCQGNIYNRP-UHFFFAOYSA-N
Temperature: 303 K
Tabular data in the source: 0
pressure (bar)	uptake (cm3(STP)/g)
0.0810811	2.86467
0.202703	6.16902
0.364865	9.91306
0.425676	11.4549
0.516892	13.4369
0.648649	15.6379
0.780405	17.3978
0.912162	18.7165
1.05405	20.476
1.19595	22.0149
1.36824	23.332
1.45946	23.9905
1.65203	25.7481
1.74324	26.1859
1.92568	27.5027
2.02703	27.9402
2.16892	28.8173
2.26014	29.2551
2.64527	31.2263
2.91892	32.5397
3.1723	33.854
3.31419	33.8487
3.39527	34.9487
3.49662	35.1656
3.58784	35.6034
3.81081	36.9187
3.91216	37.1356
4.125	37.1278
4.31757	38.4442
4.41892	38.8817
4.51014	39.0989
4.61149	39.3158
4.75338	39.5311
4.83446	39.9693
4.93581	40.1862
5.03716	40.403
5.12838	40.3997
5.28041	40.6147
