Adsorption isotherm of Hydrogen on Zeolite 13X
DOI: 10.1016/j.jallcom.2007.11.058
Adsorbate Hydrogen: InChIKey UFHFLCQGNIYNRP-UHFFFAOYSA-N
Temperature: 303 K
Tabular data in the source: 0
pressure (bar)	uptake (cm3(STP)/g)
0.0843373	2.58621
0.192771	4.65517
0.301205	5.68966
0.409639	6.46552
0.578313	7.5
0.73494	8.27586
0.915663	8.53448
1.07229	8.7931
1.25301	9.31034
1.39759	9.05172
1.51807	9.31034
1.60241	9.31034
1.66265	9.56897
1.78313	9.56897
1.91566	9.82759
2.03614	10.0862
2.18072	10.0862
2.3012	10.0862
2.44578	10.0862
2.56627	10.3448
2.6988	10.3448
2.81928	10.3448
2.93976	10.6034
3.06024	10.6034
3.24096	10.8621
3.36145	10.8621
3.48193	11.1207
3.60241	11.1207
3.75904	11.3793
3.87952	11.3793
4	11.6379
4.12048	11.6379
4.22892	11.8966
4.28916	11.8966
4.40964	11.8966
4.53012	11.8966
4.6506	11.8966
4.75904	11.8966
4.80723	12.1552
4.92771	12.1552
5.04819	12.4138
5.15663	12.4138
5.28916	12.4138
