Adsorption isotherm of Hydrogen on Zeolite PdNaX-67
DOI: 10.1016/j.jallcom.2007.11.058
Adsorbate Hydrogen: InChIKey UFHFLCQGNIYNRP-UHFFFAOYSA-N
Temperature: 303 K
Tabular data in the source: 0
pressure (bar)	uptake (cm3(STP)/g)
0.0810811	10.8058
0.182432	16.5374
0.385135	25.1329
0.527027	29.3189
0.658784	32.6228
0.780405	37.0301
0.891892	38.7907
0.932432	39.8922
1.05405	42.0936
1.37838	46.714
1.44932	48.2555
1.6723	51.115
1.76351	51.994
1.91554	53.7531
2.00676	54.6321
2.16892	55.7291
2.25	56.6085
2.4527	57.7039
2.55405	58.1414
2.70608	58.7976
2.80743	59.4556
2.89865	59.8934
3	60.3309
3.09122	60.5481
3.34459	61.6417
3.44595	62.0792
3.53716	62.2964
3.69932	62.5111
3.90203	63.386
4.00338	63.6028
4.31757	64.6942
4.41892	64.9111
4.52027	65.1279
4.61149	65.3452
4.82432	65.9991
4.92568	66.216
5.01689	66.6538
5.11824	66.8707
5.21959	67.0875
5.28041	67.0853
