Adsorption isotherm of Hydrogen on Zeolite PdNaX-31
DOI: 10.1016/j.jallcom.2007.11.058
Adsorbate Hydrogen: InChIKey UFHFLCQGNIYNRP-UHFFFAOYSA-N
Temperature: 303 K
Tabular data in the source: 0
pressure (bar)	uptake (cm3(STP)/g)
0.0722892	5.43103
0.168675	12.1552
0.26506	16.5517
0.373494	19.9138
0.481928	22.5
0.590361	25.0862
0.686747	27.1552
0.795181	29.2241
0.843373	30.2586
0.939759	31.2931
1.03614	32.5862
1.14458	33.3621
1.24096	33.8793
1.3494	34.6552
1.44578	35.6897
1.56627	36.2069
1.6747	36.9828
1.78313	37.7586
1.87952	38.2759
1.98795	39.0517
2.10843	39.8276
2.21687	40.3448
2.3253	40.8621
2.44578	41.1207
2.55422	42.1552
2.6747	42.4138
2.78313	42.931
2.90361	43.4483
3.01205	43.7069
3.12048	44.4828
3.24096	44.7414
3.36145	45
3.46988	45.5172
3.59036	45.7759
3.71084	46.0345
3.81928	46.2931
3.93976	46.5517
4.06024	46.5517
4.16867	46.8103
4.28916	46.8103
4.40964	47.069
4.51807	47.3276
4.63855	47.5862
4.75904	47.5862
4.87952	47.8448
5	48.1034
5.12048	48.1034
5.22892	48.3621
5.27711	48.6207
