Adsorption isotherm of Hydrogen on Zeolite RuX
DOI: 10.1016/j.jallcom.2007.11.058
Adsorbate Hydrogen: InChIKey UFHFLCQGNIYNRP-UHFFFAOYSA-N
Temperature: 333 K
Tabular data in the source: 0
pressure (bar)	uptake (cm3(STP)/g)
0.103663	0.285375
0.194889	0.570749
0.40219	0.665874
0.60121	0.951249
0.791923	0.951249
1.00753	1.23662
1.5092	1.42687
1.99843	1.71225
2.50012	2.283
3.00595	2.85375
3.53664	3.044
4.001	3.32937
4.50682	3.51962
5.00848	3.70987
