Adsorption isotherm of Hydrogen on Zeolite PdNaX-43
DOI: 10.1016/j.jallcom.2007.11.058
Adsorbate Hydrogen: InChIKey UFHFLCQGNIYNRP-UHFFFAOYSA-N
Temperature: 303 K
Tabular data in the source: 0
pressure (bar)	uptake (cm3(STP)/g)
0.0963855	10.6034
0.216867	18.1034
0.253012	20.1724
0.39759	25.8621
0.493976	29.4828
0.662651	32.5862
0.759036	35.6897
0.843373	36.4655
0.927711	37.7586
0.987952	39.3103
1.08434	40.0862
1.13253	42.4138
1.24096	42.931
1.3012	44.7414
1.40964	45.2586
1.51807	46.5517
1.62651	47.069
1.72289	48.1034
1.80723	49.6552
1.91566	49.9138
2.0241	50.6897
2.10843	51.7241
2.22892	52.5
2.3253	53.7931
2.44578	53.7931
2.55422	54.569
2.6747	55.0862
2.78313	55.6034
2.90361	56.1207
3.01205	56.6379
3.12048	57.4138
3.24096	57.4138
3.36145	57.6724
3.46988	58.1897
3.59036	58.7069
3.71084	58.9655
3.81928	59.2241
3.93976	59.7414
4.06024	60
4.18072	60.2586
4.3012	60.2586
4.40964	60.5172
4.53012	60.7759
4.6506	60.7759
4.77108	61.0345
4.89157	61.0345
5.01205	61.2931
5.12048	61.5517
5.24096	61.8103
