Adsorption isotherm of Hydrogen on Zeolite PdNaX-58
DOI: 10.1016/j.jallcom.2007.11.058
Adsorbate Hydrogen: InChIKey UFHFLCQGNIYNRP-UHFFFAOYSA-N
Temperature: 333 K
Tabular data in the source: 0
pressure (bar)	uptake (cm3(STP)/g)
0.105043	6.37931
0.198649	10.8621
0.257263	13.1034
0.351344	15.1724
0.421939	16.5517
0.445391	17.4138
0.622149	19.4828
0.704623	20.5172
0.787096	21.5517
0.928557	22.931
1.36492	26.2069
1.47119	26.3793
1.63637	27.2414
1.75438	27.7586
1.83695	28.2759
1.88413	28.6207
1.9904	28.7931
2.10837	29.4828
2.14373	29.8276
2.25	30
2.3916	30.6897
2.45062	30.8621
2.55682	31.3793
2.63942	31.7241
2.67479	32.069
2.78105	32.2414
2.89906	32.7586
3.01711	33.1034
3.11149	33.6207
3.20588	34.1379
3.30037	34.1379
3.41841	34.4828
3.53649	34.6552
3.74895	35.3448
3.86699	35.6897
3.97322	36.0345
4.09126	36.3793
4.26833	36.8966
4.3864	37.069
4.4926	37.5862
4.61068	37.7586
4.79955	38.2759
4.91763	38.4483
5.02386	38.7931
5.14194	38.9655
