Adsorption isotherm of Hydrogen on Zeolite RuNaX-46
DOI: 10.1016/j.jallcom.2007.11.058
Adsorbate Hydrogen: InChIKey UFHFLCQGNIYNRP-UHFFFAOYSA-N
Temperature: 77 K
Tabular data in the source: 0
pressure (bar)	uptake (cm3(STP)/g)
0.0913907	38.5321
0.210596	57.7982
0.250331	63.3028
0.29404	68.8073
0.337748	72.4771
0.393377	77.9817
0.45298	82.5688
0.512583	87.156
0.564238	89.9083
0.623841	93.578
0.683444	97.2477
0.735099	99.0826
0.794702	102.752
0.846358	104.587
0.90596	107.339
0.965563	110.092
1.01722	111.009
1.07682	112.844
1.1245	114.679
