Adsorption isotherm of Hydrogen on Zeolite RuNaX-32
DOI: 10.1016/j.jallcom.2007.11.058
Adsorbate Hydrogen: InChIKey UFHFLCQGNIYNRP-UHFFFAOYSA-N
Temperature: 77 K
Tabular data in the source: 0
pressure (bar)	uptake (cm3(STP)/g)
0.0119205	24.7706
0.0317881	35.7798
0.0675497	51.3761
0.0874172	60.5505
0.115232	66.9725
0.135099	74.3119
0.154967	78.8991
0.186755	84.4037
0.202649	88.9908
0.218543	94.4954
0.278146	102.752
0.349669	111.009
0.393377	116.514
0.45298	121.101
0.508609	125.688
0.568212	130.275
0.623841	133.028
0.67947	137.615
0.739073	140.367
0.798675	143.119
0.850331	146.789
0.90596	147.706
0.961589	150.459
1.02119	153.211
1.07682	155.046
1.12053	155.046
1.13245	155.963
