Adsorption isotherm of Hydrogen on Zeolite PdNaX-52
DOI: 10.1016/j.jallcom.2007.11.058
Adsorbate Hydrogen: InChIKey UFHFLCQGNIYNRP-UHFFFAOYSA-N
Temperature: 303 K
Tabular data in the source: 0
pressure (bar)	uptake (cm3(STP)/g)
0.060241	10.3448
0.0963855	16.2931
0.192771	21.7241
0.277108	26.8966
0.39759	33.3621
0.481928	36.4655
0.554217	38.0172
0.590361	39.3103
0.662651	41.3793
0.855422	45.2586
0.939759	47.069
1.01205	48.1034
1.10843	49.6552
1.21687	50.431
1.37349	53.0172
1.48193	53.7931
1.59036	54.569
1.83133	56.1207
2.10843	58.1897
2.18072	58.7069
2.3012	59.2241
2.40964	59.7414
2.6988	61.2931
2.81928	61.8103
2.92771	62.3276
3.04819	62.5862
3.22892	63.3621
3.3494	63.6207
3.45783	64.3966
3.56627	64.6552
3.6747	64.6552
3.75904	65.1724
3.87952	65.6897
3.98795	65.9483
4.10843	66.2069
4.27711	66.9828
4.38554	67.2414
4.50602	67.5
4.61446	67.7586
4.79518	68.2759
4.91566	68.2759
5.03614	68.5345
5.15663	68.7931
5.25301	68.5345
