Adsorption isotherm of Hydrogen on Zeolite 13X
DOI: 10.1016/j.jallcom.2007.11.058
Adsorbate Hydrogen: InChIKey UFHFLCQGNIYNRP-UHFFFAOYSA-N
Temperature: 77 K
Tabular data in the source: 0
pressure (bar)	uptake (cm3(STP)/g)
0.00402685	0.00402685
0.0161074	48.4305
0.0241611	57.3991
0.0322148	67.2646
0.0644295	88.7892
0.14094	112.108
0.169128	118.386
0.181208	122.87
0.209396	128.251
0.241611	132.735
0.269799	138.117
0.297987	142.601
0.334228	147.085
0.37047	150.673
0.406711	153.363
0.442953	156.951
0.475168	159.641
0.511409	162.332
0.53557	165.022
0.571812	166.816
0.612081	170.404
0.648322	172.197
0.684564	173.991
0.724832	175.785
0.757047	177.578
0.797315	178.475
0.82953	181.166
0.869799	182.063
0.90604	183.857
0.966443	186.547
1.00671	187.444
1.0349	189.238
1.07517	189.238
1.11141	191.031
