Adsorption isotherm of Hydrogen on Zeolite RuNaX-32
DOI: 10.1016/j.jallcom.2007.11.058
Adsorbate Hydrogen: InChIKey UFHFLCQGNIYNRP-UHFFFAOYSA-N
Temperature: 333 K
Tabular data in the source: 0
pressure (bar)	uptake (cm3(STP)/g)
0.38491	14.6974
0.650563	19.7118
0.795564	21.9597
0.916496	23.3429
1.04966	24.2075
1.1948	25.7637
1.36421	27.147
1.64276	28.3573
1.75178	28.7032
2.17553	31.1239
2.29667	31.4697
2.44202	31.9885
2.56313	32.5072
2.69636	33.0259
2.80541	33.1988
2.92652	33.7176
3.03551	34.2363
3.22934	34.755
3.35048	35.1009
3.45951	35.4467
3.58065	35.7925
3.75021	36.4841
3.85926	36.6571
3.98044	36.83
4.10158	37.1758
4.28322	38.0403
4.39228	38.2133
4.51339	38.732
4.62241	39.0778
4.80409	39.7695
4.92526	39.9424
5.03429	40.2882
