Adsorption isotherm of Hydrogen on Zeolite PdNaX-31
DOI: 10.1016/j.jallcom.2007.11.058
Adsorbate Hydrogen: InChIKey UFHFLCQGNIYNRP-UHFFFAOYSA-N
Temperature: 77 K
Tabular data in the source: 0
pressure (bar)	uptake (cm3(STP)/g)
0.0281879	23.3184
0.0604027	42.1525
0.0966443	56.5022
0.112752	61.8834
0.132886	69.0583
0.157047	77.13
0.173154	81.6143
0.197315	86.9955
0.21745	92.3767
0.249664	96.861
0.273826	103.139
0.310067	106.726
0.334228	113.004
0.366443	116.592
0.398658	121.076
0.430872	124.664
0.463087	128.251
0.495302	132.735
0.531544	135.426
0.563758	139.013
0.6	141.704
0.636242	144.395
0.672483	147.982
0.712752	149.776
0.732886	151.57
0.769128	153.363
0.805369	155.157
0.841611	158.744
0.877852	160.538
0.918121	162.332
0.954362	165.022
0.994631	165.919
1.01477	167.713
1.05503	169.507
1.09128	171.3
1.13154	172.197
