Adsorption isotherm of Hydrogen on Zeolite PdNaX-52
DOI: 10.1016/j.jallcom.2007.11.058
Adsorbate Hydrogen: InChIKey UFHFLCQGNIYNRP-UHFFFAOYSA-N
Temperature: 77 K
Tabular data in the source: 0
pressure (bar)	uptake (cm3(STP)/g)
0.0362416	29.5964
0.0724832	45.7399
0.100671	59.1928
0.157047	68.1614
0.225503	78.9238
0.277852	86.0987
0.346309	91.4798
0.402685	96.861
0.507383	104.036
0.567785	107.623
0.624161	111.211
0.672483	113.004
0.736913	115.695
0.849664	121.973
0.958389	124.664
1.07517	128.251
1.12349	130.045
