Adsorption isotherm of Hydrogen on Zeolite RuX
DOI: 10.1016/j.jallcom.2007.11.058
Adsorbate Hydrogen: InChIKey UFHFLCQGNIYNRP-UHFFFAOYSA-N
Temperature: 303 K
Tabular data in the source: 0
pressure (bar)	uptake (cm3(STP)/g)
0.103683	0.665874
0.203195	0.856124
0.402205	0.951249
0.601225	1.23662
0.812663	1.1415
1.0117	1.71225
1.50508	2.09275
1.99432	2.37812
2.49601	2.94887
3.00185	3.61474
3.54497	3.70987
4.50687	4.47087
4.78466	4.75624
5.0044	4.85137
