Adsorption isotherm of Hydrogen on Zeolite RuX
DOI: 10.1016/j.jallcom.2007.11.058
Adsorbate Hydrogen: InChIKey UFHFLCQGNIYNRP-UHFFFAOYSA-N
Temperature: 77 K
Tabular data in the source: 0
pressure (bar)	uptake (cm3(STP)/g)
0.00376648	103.415
0.0112994	206.829
0.0169492	234.146
0.0263653	242.927
0.0338983	251.707
0.0433145	260.488
0.0602637	274.146
0.0753296	280.976
0.0885122	286.829
0.094162	291.707
0.111111	293.659
0.126177	298.537
0.143126	303.415
0.160075	307.317
0.177024	312.195
0.190207	318.049
0.20904	318.049
0.224105	320.976
0.241055	323.902
0.259887	326.829
0.278719	328.78
0.293785	332.683
0.312618	333.659
0.33145	335.61
0.348399	337.561
0.367232	339.512
0.387947	342.439
0.403013	342.439
0.421846	344.39
0.438795	346.341
0.457627	347.317
0.47646	348.293
0.493409	350.244
0.508475	351.22
0.527307	352.195
0.546139	353.171
0.563089	354.146
0.581921	356.098
0.606403	357.073
0.625235	358.049
0.644068	359.024
0.661017	360
0.679849	360.976
0.698682	360.976
0.717514	361.951
0.736347	362.927
0.753296	363.902
0.772128	363.902
0.789077	364.878
0.806026	365.854
0.824859	365.854
0.843691	366.829
0.86064	367.805
0.879473	368.78
0.898305	368.78
0.917137	368.78
0.93597	369.756
0.954802	370.732
0.973635	370.732
0.990584	370.732
1.00942	371.707
