Adsorption isotherm of Water on Zeolite 3A
DOI: 10.1007/s10450-019-00145-y
Article source: Figure 4
Adsorbate Water: InChIKey XLYOFNOQVPJJNP-UHFFFAOYSA-N
Kind: experiment
Temperature: 298 K
Tabular data in the source: 0
pressure (bar)	uptake (mol/m3)
1.01325	0
1.01325	4124.17
1.01325	9179.6
1.01325	12682.9
1.01325	12816
1.01325	12860.3
1.01325	13702.9
1.01325	13880.3
1.01325	15077.6
1.01325	15476.7
