Adsorption isotherm of Water on Zeolite 4A
DOI: 10.1007/s10450-019-00145-y
Article source: Figure 4
Adsorbate Water: InChIKey XLYOFNOQVPJJNP-UHFFFAOYSA-N
Kind: experiment
Temperature: 298 K
Tabular data in the source: 0
pressure (bar)	uptake (mol/m3)
1.01325	0
1.01325	6629.71
1.01325	8203.99
1.01325	8292.68
1.01325	9401.33
1.01325	9201.77
1.01325	9534.37
