Adsorption isotherm of Water on Zeolite 3A
DOI: 10.1007/s10450-019-00145-y
Article source: Figure 4
Adsorbate Water: InChIKey XLYOFNOQVPJJNP-UHFFFAOYSA-N
Kind: experiment
Temperature: 318 K
Tabular data in the source: 0
pressure (bar)	uptake (mol/m3)
1.01325	0
1.01325	2261.64
1.01325	6164.08
1.01325	10376.9
1.01325	12106.4
1.01325	12638.6
1.01325	12904.7
1.01325	13880.3
1.01325	14057.7
1.01325	14212.9
