Adsorption isotherm of Hydrogen on UiO-66 (48h)
DOI: 10.1016/j.matpr.2015.08.026
Article source: Figure 4d
Adsorbate Hydrogen: InChIKey UFHFLCQGNIYNRP-UHFFFAOYSA-N
Kind: experiment
Temperature: 77 K
Tabular data in the source: 0
pressure (bar)	uptake (wt%)
0	0.035
0.010941	0.104945
0.026258	0.169869
0.059081	0.269705
0.122538	0.374387
0.242888	0.508786
0.36105	0.583195
0.485777	0.657571
0.601751	0.701991
0.722101	0.746389
0.844639	0.780777
0.923414	0.800383
