Adsorption isotherm of Hydrogen on UiO-66 (8h)
DOI: 10.1016/j.matpr.2015.08.026
Article source: Figure 4d
Adsorbate Hydrogen: InChIKey UFHFLCQGNIYNRP-UHFFFAOYSA-N
Kind: experiment
Temperature: 77 K
Tabular data in the source: 0
pressure (bar)	uptake (wt%)
0.010941	0.164945
0.02407	0.29488
0.04814	0.404759
0.063457	0.469683
0.102845	0.594486
0.122538	0.634387
0.245077	0.798775
0.356674	0.923217
0.479212	1.0126
0.601751	1.08699
0.717724	1.15641
0.840263	1.2108
0.916849	1.26542
