Adsorption isotherm of Nitrogen on UiO-66 (4h)
DOI: 10.1016/j.matpr.2015.08.026
Article source: Figure 4b
Adsorbate Nitrogen: InChIKey IJGRMHOSHXDMSA-UHFFFAOYSA-N
Kind: experiment
Temperature: 77 K
Tabular data in the source: 0
pressure (bar)	uptake (cm3(STP)/g)
0.003848	111.712
0.02131	126.126
0.026263	127.327
0.036199	132.132
0.048574	134.535
0.063434	138.138
0.090639	141.742
0.120313	145.345
0.157409	150.15
0.214259	154.955
0.271108	159.76
0.330412	163.363
0.369933	164.565
0.424313	169.369
0.478664	171.772
0.535469	172.973
0.589849	177.778
0.641731	180.18
0.698565	183.784
0.755355	183.784
0.799829	186.186
0.831943	187.387
0.859118	188.589
0.878871	188.589
0.901138	192.192
0.91103	193.393
0.925889	196.997
0.938235	196.997
0.948141	199.399
0.960516	201.802
0.965499	205.405
0.970482	209.009
0.980566	225.826
0.988225	246.246
0.990872	260.661
0.99108	277.477
0.996211	293.093
