Adsorption isotherm of Nitrogen on UiO-66 (24h)
DOI: 10.1016/j.matpr.2015.08.026
Article source: Figure 4b
Adsorbate Nitrogen: InChIKey IJGRMHOSHXDMSA-UHFFFAOYSA-N
Kind: experiment
Temperature: 77 K
Tabular data in the source: 0
pressure (bar)	uptake (cm3(STP)/g)
0.003922	117.718
0.004086	130.931
0.014096	141.742
0.024076	150.15
0.03895	154.955
0.061246	160.961
0.085997	165.766
0.142876	172.973
0.2146	182.583
0.273889	184.985
0.3258	189.79
0.365336	192.192
0.419686	194.595
0.479005	199.399
0.530886	201.802
0.587721	205.405
0.642072	207.808
0.696422	210.21
0.750788	213.814
0.8002	216.216
0.829889	221.021
0.852141	223.423
0.879331	225.826
0.906507	227.027
0.92382	229.429
0.943573	229.429
0.96581	230.631
0.980655	233.033
0.99547	233.033
