Adsorption isotherm of Hydrogen on UiO-66 (4h)
DOI: 10.1016/j.matpr.2015.08.026
Article source: Figure 4d
Adsorbate Hydrogen: InChIKey UFHFLCQGNIYNRP-UHFFFAOYSA-N
Kind: experiment
Temperature: 77 K
Tabular data in the source: 0
pressure (bar)	uptake (wt%)
0.006565	0.104967
0.013129	0.134934
0.021882	0.204891
0.032823	0.269836
0.043764	0.334781
0.056893	0.394716
0.078775	0.454606
0.09628	0.524519
0.12035	0.584398
0.14442	0.639278
0.170678	0.689147
0.203501	0.748982
0.236324	0.803818
0.271335	0.858643
0.301969	0.88849
0.350109	0.948249
0.393873	0.988031
0.439825	1.0428
0.492341	1.08254
0.54267	1.12729
0.601751	1.16199
0.654267	1.19673
0.713348	1.23143
0.781182	1.27109
0.846827	1.30077
0.916849	1.33542
