Adsorption isotherm of Hydrogen on UiO-66 (2h)
DOI: 10.1016/j.matpr.2015.08.026
Article source: Figure 4d
Adsorbate Hydrogen: InChIKey UFHFLCQGNIYNRP-UHFFFAOYSA-N
Kind: experiment
Temperature: 77 K
Tabular data in the source: 0
pressure (bar)	uptake (wt%)
0.006565	0.004919
0.008753	0.074679
0.010941	0.114533
0.02407	0.21409
0.054705	0.358333
0.061269	0.378205
0.067834	0.403062
0.07221	0.422956
0.080963	0.452775
0.085339	0.487623
0.094092	0.512458
0.107221	0.542233
0.122538	0.567003
0.21663	0.765442
0.2407	0.810062
0.319475	0.933887
0.358862	0.988323
0.483589	1.13163
0.601751	1.25008
0.717724	1.34362
0.844639	1.44205
0.923414	1.50108
