Adsorption isotherm of Nitrogen on UiO-66 (8h)
DOI: 10.1016/j.matpr.2015.08.026
Article source: Figure 4b
Adsorbate Nitrogen: InChIKey IJGRMHOSHXDMSA-UHFFFAOYSA-N
Kind: experiment
Temperature: 77 K
Tabular data in the source: 0
pressure (bar)	uptake (cm3(STP)/g)
0.004501	164.565
0.007118	176.577
0.009721	187.387
0.019835	206.607
0.029815	215.015
0.039706	216.216
0.066956	223.423
0.091677	225.826
0.155949	231.832
0.20783	234.234
0.26465	236.637
0.301702	237.838
0.318986	237.838
0.363445	239.039
0.373321	239.039
0.425188	240.24
0.44988	240.24
0.477055	241.441
0.509168	242.643
0.53386	242.643
0.568428	242.643
0.590665	243.844
0.620294	243.844
0.640047	243.844
0.667208	243.844
0.694368	243.844
0.716591	243.844
0.756126	246.246
0.770941	246.246
0.803055	247.447
0.81787	247.447
0.832685	247.447
0.864798	248.649
0.879613	248.649
0.891959	248.649
0.914181	248.649
0.928996	248.649
0.938902	251.051
0.946324	252.252
0.953732	252.252
0.973544	257.057
0.99346	270.27
