Adsorption isotherm of Nitrogen on UiO-66 (72h)
DOI: 10.1016/j.matpr.2015.08.026
Article source: Figure 4b
Adsorbate Nitrogen: InChIKey IJGRMHOSHXDMSA-UHFFFAOYSA-N
Kind: experiment
Temperature: 77 K
Tabular data in the source: 0
pressure (bar)	uptake (cm3(STP)/g)
0.003878	114.114
0.018752	118.919
0.028658	121.321
0.038579	124.925
0.058421	132.132
0.085641	136.937
0.149943	145.345
0.214199	150.15
0.273533	156.156
0.31057	156.156
0.327869	157.357
0.364935	159.76
0.40694	162.162
0.42177	163.363
0.43413	164.565
0.453943	169.369
0.483528	165.766
0.510911	183.784
0.53294	168.168
0.572654	184.985
0.584822	170.571
0.622052	186.186
0.636689	171.772
0.673904	186.186
0.698491	177.778
0.718378	188.589
0.750358	178.979
0.775153	187.387
0.7998	183.784
0.799844	187.387
0.826975	184.985
0.82702	188.589
0.85418	188.589
0.856605	184.985
0.878871	188.589
0.898625	188.589
0.920862	189.79
0.943099	190.991
0.962867	192.192
0.970274	192.192
0.985089	192.192
0.997464	194.595
