Adsorption isotherm of Hydrogen on UiO-66 (72h)
DOI: 10.1016/j.matpr.2015.08.026
Article source: Figure 4d
Adsorbate Hydrogen: InChIKey UFHFLCQGNIYNRP-UHFFFAOYSA-N
Kind: experiment
Temperature: 77 K
Tabular data in the source: 0
pressure (bar)	uptake (wt%)
0	0
0.008753	0.109956
0.026258	0.179869
0.063457	0.279683
0.12035	0.379398
0.2407	0.493796
0.363239	0.563184
0.485777	0.612571
0.603939	0.64698
0.726477	0.681368
0.851204	0.705744
0.925602	0.715372
