Adsorption isotherm of Nitrogen on UiO-66 (2h)
DOI: 10.1016/j.matpr.2015.08.026
Article source: Figure 4b
Adsorbate Nitrogen: InChIKey IJGRMHOSHXDMSA-UHFFFAOYSA-N
Kind: experiment
Temperature: 77 K
Tabular data in the source: 0
pressure (bar)	uptake (cm3(STP)/g)
0.002832	229.429
0.002951	239.039
0.004486	163.363
0.004634	175.375
0.004797	188.589
0.004946	200.601
0.005049	209.009
0.005168	218.619
0.005539	248.649
0.008097	255.856
0.008156	260.661
0.013243	272.673
0.013332	279.88
0.020873	290.691
0.025944	301.502
0.028517	309.91
0.040937	315.916
0.065762	326.727
0.092982	331.532
0.159782	342.342
0.184488	343.544
0.216617	345.946
0.26356	348.348
0.317911	350.751
0.369777	351.952
0.424113	353.153
0.478464	355.556
0.532785	355.556
0.58712	356.757
0.643925	357.958
0.698261	359.159
0.752582	359.159
0.804449	360.36
0.834079	360.36
0.858785	361.562
0.880992	360.36
0.908153	360.36
0.927906	360.36
0.942735	361.562
0.952612	361.562
0.962488	361.562
0.977318	362.763
0.987195	362.763
0.99957	365.165
