Adsorption isotherm of Nitrogen on UiO-66 (48h)
DOI: 10.1016/j.matpr.2015.08.026
Article source: Figure 4b
Adsorbate Nitrogen: InChIKey IJGRMHOSHXDMSA-UHFFFAOYSA-N
Kind: experiment
Temperature: 77 K
Tabular data in the source: 0
pressure (bar)	uptake (cm3(STP)/g)
0.01982	205.405
0.051963	209.009
0.103845	211.411
0.175464	212.613
0.200171	213.814
0.237208	213.814
0.294013	215.015
0.303889	215.015
0.348348	216.216
0.358225	216.216
0.405124	215.015
0.439706	216.216
0.464413	217.417
0.526126	216.216
0.580447	216.216
0.629845	217.417
0.644659	217.417
0.664427	218.619
0.70145	217.417
0.736047	219.82
0.760724	218.619
0.795321	221.021
0.829845	217.417
0.834783	217.417
0.866882	217.417
0.876758	217.417
0.906403	218.619
0.938516	219.82
0.960753	221.021
0.968161	221.021
0.980536	223.423
0.997835	224.625
