Adsorption isotherm of Hydrogen on UiO-66 (24h)
DOI: 10.1016/j.matpr.2015.08.026
Article source: Figure 4d
Adsorbate Hydrogen: InChIKey UFHFLCQGNIYNRP-UHFFFAOYSA-N
Kind: experiment
Temperature: 77 K
Tabular data in the source: 0
pressure (bar)	uptake (wt%)
0.056893	0.319716
0.063457	0.339683
0.067834	0.359661
0.080963	0.394595
0.087527	0.409562
0.098468	0.439508
0.109409	0.449453
0.118162	0.474409
0.223195	0.638884
0.242888	0.663786
0.356674	0.778217
0.483589	0.872582
0.597374	0.942013
0.722101	1.01139
0.849015	1.06575
0.923414	1.09538
