Adsorption isotherm of Hydrogen on H2BpybcCl2
DOI: 10.1002/chem.200901707
Adsorbate Hydrogen: InChIKey UFHFLCQGNIYNRP-UHFFFAOYSA-N
Temperature: 77 K
Tabular data in the source: 0
pressure (bar)	uptake (mmol/g)
0.00746603	0.275725
0.0261043	0.992596
0.0488963	1.41558
0.0718136	1.70996
0.0986877	1.91254
0.121748	2.05994
0.152579	2.17074
0.175676	2.28139
0.19879	2.37368
0.252753	2.55838
0.326053	2.74344
0.376238	2.83621
0.434158	2.92912
0.480494	3.00345
0.530697	3.07785
0.553901	3.07827
0.580918	3.13388
0.631139	3.18991
0.681379	3.22757
0.731582	3.30197
0.754768	3.32076
0.781803	3.358
0.83206	3.37728
0.851361	3.41438
0.882263	3.45168
0.959538	3.52657
0.978874	3.52692
1.00981	3.52748
