Adsorption isotherm of Nitrogen on An/FD
DOI: 10.1016/j.jece.2017.06.043
Article source: Figure 6
Adsorbate Nitrogen: InChIKey IJGRMHOSHXDMSA-UHFFFAOYSA-N
Kind: experiment
Temperature: 77 K
Tabular data in the source: 0
pressure (bar)	uptake (cm3(STP)/g)
0.010477	3.807
0.027063	4.788
0.055484	5.536
0.080744	6.098
0.112722	6.636
0.1593	7.198
0.209039	7.737
0.246144	8.415
0.258769	8.486
0.293117	8.977
0.312065	9.001
0.349169	9.61
0.361004	9.587
0.391796	9.985
0.41666	10.126
0.442721	10.664
0.465214	10.501
0.46719	10.782
0.500353	11.203
0.510212	11.273
0.551268	11.905
0.563508	11.766
0.602983	12.654
0.612852	12.445
0.656664	13.357
0.663767	13.24
0.711926	14.293
0.759689	15.159
0.760085	15.556
0.806673	16.445
0.807858	16.748
0.83707	17.403
0.83786	17.683
0.86233	18.338
0.865886	18.899
0.885624	19.6
0.887995	20.184
0.908523	21.142
0.918797	23.571
0.920773	22.473
0.941311	25.347
0.942507	28.522
0.961474	33.988
0.961494	37.56
0.967817	39.429
