Adsorption isotherm of Nitrogen on HIX/FD
DOI: 10.1016/j.jece.2017.06.043
Article source: Figure 6
Adsorbate Nitrogen: InChIKey IJGRMHOSHXDMSA-UHFFFAOYSA-N
Kind: experiment
Temperature: 77 K
Tabular data in the source: 0
pressure (bar)	uptake (cm3(STP)/g)
0.011115	5.447
0.024216	6.319
0.046446	7.128
0.073834	7.792
0.100827	8.706
0.102812	8.519
0.15243	9.183
0.156402	9.722
0.204429	10.532
0.20523	9.847
0.255243	11.237
0.257624	10.719
0.303675	11.652
0.304465	11.051
0.351307	11.486
0.35766	12.171
0.403701	11.881
0.405292	12.607
0.452924	13.375
0.455305	12.42
0.506119	12.794
0.507709	15.014
0.555341	13.292
0.555736	15.409
0.607735	13.665
0.610116	15.907
0.656563	14.226
0.663706	16.591
0.704995	14.599
0.712139	17.006
0.751837	15.305
0.757389	17.754
0.808598	16.55
0.812965	18.936
0.831619	19.518
0.832024	16.944
0.852663	17.442
0.859807	20.721
0.884813	18.916
0.889575	22.61
0.906648	20.202
0.917763	25.349
0.934431	28.296
0.935232	23.834
0.956661	33.712
0.965	36.534
