Adsorption isotherm of Nitrogen on HIX/TD
DOI: 10.1016/j.jece.2017.06.043
Article source: Figure 6
Adsorbate Nitrogen: InChIKey IJGRMHOSHXDMSA-UHFFFAOYSA-N
Kind: experiment
Temperature: 77 K
Tabular data in the source: 0
pressure (bar)	uptake (cm3(STP)/g)
0.007903	4.9845
0.029009	5.7043
0.053164	6.3135
0.082892	6.7565
0.096449	7.3287
0.107564	7.3102
0.144345	7.9379
0.149907	7.8733
0.19374	8.584
0.203862	8.4641
0.242162	9.0179
0.25885	8.9072
0.292104	9.4794
0.308782	9.4241
0.342553	9.8856
0.36226	9.7658
0.393508	10.2549
0.416265	10.0428
0.441951	10.5781
0.462712	10.2091
0.479744	11.1134
0.490231	11.9255
0.51622	10.4307
0.537164	12.2118
0.568209	10.6062
0.585647	12.2581
0.620218	10.7541
0.640189	12.3229
0.668175	10.9111
0.688155	12.4061
0.72219	11.1143
0.741684	12.4432
0.771149	11.2898
0.793704	12.5264
0.815407	12.6003
0.822652	11.4561
0.840657	12.6373
0.847881	11.6131
0.86692	12.6466
0.87463	11.7516
0.893172	12.7113
0.899839	12.047
0.908817	12.8037
0.917986	12.287
0.93513	12.4531
0.940115	12.8868
0.951261	12.6654
0.961819	12.9792
0.975426	13.2192
