Adsorption isotherm of Nitrogen on An/TD
DOI: 10.1016/j.jece.2017.06.043
Article source: Figure 6
Adsorbate Nitrogen: InChIKey IJGRMHOSHXDMSA-UHFFFAOYSA-N
Kind: experiment
Temperature: 77 K
Tabular data in the source: 0
pressure (bar)	uptake (cm3(STP)/g)
0.008116	3.146
0.030873	3.962
0.057663	4.567
0.07738	4.883
0.109236	5.41
0.1608	5.963
0.210853	6.384
0.245739	6.779
0.261403	6.594
0.292753	7.121
0.308924	7.121
0.342796	7.568
0.363527	7.7
0.394359	8.121
0.411544	7.99
0.439357	8.384
0.46261	8.569
0.46716	8.7
0.49396	9.042
0.515187	8.885
0.547539	9.569
0.564217	9.437
0.5981	9.99
0.611748	10.095
0.652196	10.701
0.660788	10.648
0.706292	11.412
0.714378	11.491
0.760885	12.228
0.764938	12.333
0.809936	13.202
0.811445	12.965
0.841285	14.07
0.844314	13.86
0.867072	14.571
0.870618	15.308
0.884773	15.597
0.894398	16.913
0.907033	16.887
0.922242	19.862
0.923731	18.203
0.931331	19.599
0.939994	24.521
0.941463	21.073
0.956773	32.234
0.968435	35.156
