Adsorption isotherm of Carbon Dioxide on C99H72Cd6O42
DOI: 10.1021/Cg101222w
Adsorbate Carbon Dioxide: InChIKey CURLTUGMZLYLDI-UHFFFAOYSA-N
Temperature: 297 K
Tabular data in the source: 0
pressure (bar)	uptake (wt%)
3.99459	9.38776
6.11883	10.0408
9.96604	10.6939
15.0305	11.1837
20.397	12
25.4583	12.9796
30.2089	15.0204
