Adsorption isotherm of Nitrogen on C99H72Cd6O42
DOI: 10.1021/Cg101222w
Adsorbate Nitrogen: InChIKey IJGRMHOSHXDMSA-UHFFFAOYSA-N
Temperature: 77 K
Tabular data in the source: 0
pressure (bar)	uptake (cm3(STP)/g)
0.00740191	0.0669643
0.0520125	0.0669643
0.10158	0.0669643
0.148658	0.0892857
0.198225	0.0892857
0.245336	0.0446429
0.292425	0.0446429
0.341993	0.0446429
0.389082	0.0446429
0.436148	0.0892857
0.490684	0.0669643
0.537761	0.0892857
0.58485	0.0892857
0.634418	0.0892857
0.681518	0.0669643
0.728585	0.111607
0.778163	0.0892857
0.822752	0.133929
0.872319	0.133929
0.919353	0.245536
0.924431	5
