Adsorption isotherm of Methane on C99H72Cd6O42
DOI: 10.1021/Cg101222w
Adsorbate Methane: InChIKey VNWKTOKETHGBQD-UHFFFAOYSA-N
Temperature: 297 K
Tabular data in the source: 0
pressure (bar)	uptake (wt%)
1.00679	1.06122
5.05619	1.79592
11.4382	2.28571
17.0105	2.61224
21.2662	2.77551
26.2319	2.85714
30.5885	3.10204
