Adsorption isotherm of Carbon Dioxide on C99H72Cd6O42
DOI: 10.1021/Cg101222w
Adsorbate Carbon Dioxide: InChIKey CURLTUGMZLYLDI-UHFFFAOYSA-N
Temperature: 273 K
Tabular data in the source: 0
pressure (bar)	uptake (cm3(STP)/g)
0.026771	1.52838
0.0508648	3.20961
0.0749587	5.04367
0.104407	7.64192
0.123146	8.71179
0.14724	10.0873
0.174011	11.6157
0.198105	12.8384
0.23023	14.214
0.257001	15.2838
0.283772	16.3537
0.307866	17.2707
0.33196	18.0349
0.361408	18.7991
0.380148	19.4105
0.404241	20.1747
0.428335	20.786
0.455106	21.2445
0.487231	22.0087
0.508648	22.6201
0.532742	23.0786
0.559513	23.69
0.586284	24.1485
0.613055	24.7598
0.634472	25.2183
0.661242	25.6769
0.688013	25.9825
0.70943	26.441
0.736201	26.8996
0.760295	27.2052
0.787066	27.6638
0.81116	28.1223
0.832577	28.4279
0.859348	28.7336
0.883441	29.1921
0.910212	29.8035
0.931629	29.9563
0.963754	30.262
0.982494	30.8734
1.00659	31.3319
