Adsorption isotherm of Ethene on Zeolite 5A
DOI: 10.1016/S1383-5866(02)00012-6
Adsorbate Ethene: InChIKey VGGSQFUCUMXWEO-UHFFFAOYSA-N
Temperature: 303 K
Tabular data in the source: 0
pressure (bar)	uptake (mmol/g)
0.040201	0.114007
0.361809	1.12866
0.80402	1.85831
1.94975	2.61075
2.39196	2.66775
3.9196	2.86156
5.16583	2.88436
5.54774	2.94137
6.71357	3.03257
7.8191	3.08958
9.16583	3.13518
9.98995	3.14658
