Adsorption isotherm of Methane on Zeolite 5A
DOI: 10.1016/S1383-5866(02)00012-6
Adsorbate Methane: InChIKey VNWKTOKETHGBQD-UHFFFAOYSA-N
Temperature: 373 K
Tabular data in the source: 0
pressure (bar)	uptake (mmol/g)
0.0658135	0.0371517
0.767824	0.390093
1.25046	0.495356
1.84278	0.656347
2.74223	0.804954
3.15905	0.860681
3.57587	0.904025
3.97075	0.941176
4.54113	0.990712
5.19927	1.02786
5.94516	1.08359
6.36197	1.08978
7.17367	1.11455
7.78793	1.13932
8.46801	1.15789
9.45521	1.18885
9.93784	1.20124
