Adsorption isotherm of Carbon monoxide on Zeolite 5A
DOI: 10.1016/S1383-5866(02)00012-6
Adsorbate Carbon monoxide: InChIKey UGFAIRIUMAVXCW-UHFFFAOYSA-N
Temperature: 373 K
Tabular data in the source: 0
pressure (bar)	uptake (mmol/g)
0.0652435	0.0460702
0.784006	0.491303
1.17696	0.683106
1.59288	0.821035
2.03122	0.935857
2.38163	1.0431
2.77607	1.15029
3.17173	1.18824
3.54578	1.20315
3.98575	1.22566
4.33805	1.22521
4.756	1.24775
5.19557	1.29334
5.56962	1.30824
5.96568	1.32312
6.38323	1.36874
6.84427	1.44507
7.63492	1.55944
7.96493	1.5744
8.40476	1.60461
8.73437	1.64265
9.19649	1.65744
9.5927	1.66462
10.0111	1.66409
