Adsorption isotherm of Methane on Zeolite 5A
DOI: 10.1016/S1383-5866(02)00012-6
Adsorbate Methane: InChIKey VNWKTOKETHGBQD-UHFFFAOYSA-N
Temperature: 573 K
Tabular data in the source: 0
pressure (bar)	uptake (mmol/g)
0.153565	0.00619195
1.6234	0.142415
2.01828	0.160991
2.82998	0.210526
3.20293	0.241486
3.64168	0.272446
4.36563	0.315789
5.19927	0.359133
6.38391	0.433437
7.19561	0.482972
7.59049	0.50774
7.98537	0.532508
8.38026	0.557276
8.77514	0.563467
9.21389	0.575851
9.58684	0.575851
10.0037	0.582043
