Adsorption isotherm of Carbon Dioxide on Zeolite 5A
DOI: 10.1016/S1383-5866(02)00012-6
Adsorbate Carbon Dioxide: InChIKey CURLTUGMZLYLDI-UHFFFAOYSA-N
Temperature: 303 K
Tabular data in the source: 0
pressure (bar)	uptake (mmol/g)
0.0219378	0.121884
0.219378	0.792014
0.285192	1.21864
0.416819	1.65727
0.592322	2.14454
0.745887	2.52212
0.943327	2.82639
1.40402	3.17865
2.23766	3.37123
3.61974	3.48896
5.08958	3.49668
5.98903	3.50613
7.50274	3.52591
8.62157	3.5225
10.0256	3.50602
