Adsorption isotherm of Carbon Dioxide on Zeolite 5A
DOI: 10.1016/S1383-5866(02)00012-6
Adsorbate Carbon Dioxide: InChIKey CURLTUGMZLYLDI-UHFFFAOYSA-N
Temperature: 373 K
Tabular data in the source: 0
pressure (bar)	uptake (mmol/g)
0.0437956	0.0610201
0.153285	0.43918
0.328467	1.02472
0.832117	1.83011
1.20438	2.12318
1.88321	2.62387
2.40876	2.72196
2.84672	2.80777
3.61314	2.90611
4.37956	2.99226
6.41606	3.10408
7.55474	3.12963
8.36496	3.14265
9.19708	3.14349
9.9854	3.18088
