Adsorption isotherm of Carbon monoxide on Zeolite 5A
DOI: 10.1016/S1383-5866(02)00012-6
Adsorbate Carbon monoxide: InChIKey UGFAIRIUMAVXCW-UHFFFAOYSA-N
Temperature: 303 K
Tabular data in the source: 0
pressure (bar)	uptake (mmol/g)
0.0220588	0.0538462
0.308824	0.353846
0.794118	0.823077
1.16912	1.03846
1.58824	1.29231
1.98529	1.44615
2.40441	1.57692
2.77941	1.63077
3.17647	1.67692
3.57353	1.72308
4.01471	1.74615
4.43382	1.77692
4.78676	1.8
5.18382	1.81538
5.60294	1.83077
5.97794	1.86923
6.375	1.90769
6.79412	1.94615
7.19118	1.99231
7.58824	2.03077
8.00735	2.06923
8.40441	2.09231
8.80147	2.1
9.26471	2.12308
9.59559	2.13077
10.0147	2.13077
