Adsorption isotherm of Carbon monoxide on Zeolite 5A
DOI: 10.1016/S1383-5866(02)00012-6
Adsorbate Carbon monoxide: InChIKey UGFAIRIUMAVXCW-UHFFFAOYSA-N
Temperature: 573 K
Tabular data in the source: 0
pressure (bar)	uptake (mmol/g)
0.109418	0.0154548
1.79618	0.154998
2.51904	0.216999
3.52696	0.286876
4.88547	0.380055
5.98127	0.442296
6.76994	0.50434
7.406	0.51244
8.21701	0.551421
9.2034	0.598207
9.99274	0.62179
