Adsorption isotherm of Methane on Zeolite 5A
DOI: 10.1016/S1383-5866(02)00012-6
Adsorbate Methane: InChIKey VNWKTOKETHGBQD-UHFFFAOYSA-N
Temperature: 303 K
Tabular data in the source: 0
pressure (bar)	uptake (mmol/g)
0.0658135	0.0371517
0.416819	0.340557
0.767824	0.582043
1.22852	0.773994
1.6234	0.928793
2.32541	1.10217
2.87386	1.20743
3.4223	1.29412
3.86106	1.34985
4.34369	1.39938
5.0457	1.47368
6.3181	1.55418
6.80073	1.57895
7.26143	1.60372
7.98537	1.63467
8.84095	1.66563
9.98172	1.70279
