Adsorption isotherm of Carbon monoxide on Zeolite 5A
DOI: 10.1016/S1383-5866(02)00012-6
Adsorbate Carbon monoxide: InChIKey UGFAIRIUMAVXCW-UHFFFAOYSA-N
Temperature: 303 K
Tabular data in the source: 0
pressure (bar)	uptake (mmol/g)
0.0433545	0.0387277
0.389645	0.379508
0.649363	0.635094
1.08536	0.883053
1.50003	1.0923
2.13432	1.33265
2.96692	1.56538
3.8229	1.72073
4.37172	1.81397
5.14058	1.91508
5.95375	2.00074
6.83325	2.07097
7.55902	2.11788
8.41678	2.17261
9.20861	2.21956
9.9787	2.25102
