Adsorption isotherm of Ethene on Zeolite 5A
DOI: 10.1016/S1383-5866(02)00012-6
Adsorbate Ethene: InChIKey VGGSQFUCUMXWEO-UHFFFAOYSA-N
Temperature: 573 K
Tabular data in the source: 0
pressure (bar)	uptake (mmol/g)
0.100334	9.56e-05
1.10275	0.161182
1.7243	0.253278
2.34598	0.322498
2.90758	0.368784
3.5292	0.449442
4.05067	0.495691
4.83268	0.599378
5.29396	0.645569
6.09617	0.726399
6.69778	0.7956
7.49999	0.87643
8.16193	0.922812
8.92408	0.992166
9.54589	1.03851
9.94702	1.07321
9.96709	1.07323
