Adsorption isotherm of Carbon monoxide on Zeolite 5A
DOI: 10.1016/S1383-5866(02)00012-6
Adsorbate Carbon monoxide: InChIKey UGFAIRIUMAVXCW-UHFFFAOYSA-N
Temperature: 373 K
Tabular data in the source: 0
pressure (bar)	uptake (mmol/g)
0.109139	0.0540825
0.676445	0.347657
1.06937	0.540811
1.74799	0.765013
2.44904	0.966081
3.17278	1.12858
3.69972	1.2138
4.4463	1.33002
5.03943	1.40756
5.63283	1.46967
6.24838	1.52408
6.88596	1.5785
8.05142	1.66413
9.01927	1.71876
9.96536	1.75795
