Adsorption isotherm of Ethene on Zeolite 5A
DOI: 10.1016/S1383-5866(02)00012-6
Adsorbate Ethene: InChIKey VGGSQFUCUMXWEO-UHFFFAOYSA-N
Temperature: 373 K
Tabular data in the source: 0
pressure (bar)	uptake (mmol/g)
0.080402	0.114007
0.38191	0.684039
0.723618	1.11726
1.54774	1.58469
2.05025	1.7443
2.89447	1.91531
4.1206	2.05212
5.24623	2.12052
6.03015	2.15472
7.31658	2.20033
8.60302	2.22313
9.36683	2.24593
9.90955	2.23453
