Adsorption isotherm of Carbon monoxide on Zeolite 5A
DOI: 10.1016/S1383-5866(02)00012-6
Adsorbate Carbon monoxide: InChIKey UGFAIRIUMAVXCW-UHFFFAOYSA-N
Temperature: 573 K
Tabular data in the source: 0
pressure (bar)	uptake (mmol/g)
121	345
175	331
236	316
297	304
339	295
399	285
445	277
491	270
533	264
569	260
