Adsorption isotherm of Methane on Zeolite 5A
DOI: 10.1016/S1383-5866(02)00012-6
Adsorbate Methane: InChIKey VNWKTOKETHGBQD-UHFFFAOYSA-N
Temperature: 373 K
Tabular data in the source: 0
pressure (bar)	uptake (mmol/g)
0.0658135	0.0371517
0.570384	0.291022
1.18464	0.47678
1.68921	0.606811
2.19378	0.705882
2.96161	0.823529
3.53199	0.891641
3.99269	0.934985
4.47532	0.978328
4.89214	1.01548
5.5064	1.05263
6.27422	1.09598
6.9543	1.12693
7.70018	1.16409
8.38026	1.18885
9.14808	1.21362
9.9159	1.2322
