Adsorption isotherm of Carbon Dioxide on Zeolite 5A
DOI: 10.1016/S1383-5866(02)00012-6
Adsorbate Carbon Dioxide: InChIKey CURLTUGMZLYLDI-UHFFFAOYSA-N
Temperature: 303 K
Tabular data in the source: 0
pressure (bar)	uptake (mmol/g)
0.0857909	0.243074
0.170854	0.619888
0.276834	1.15473
0.469533	1.76244
0.684937	2.19991
1.09602	2.69798
1.70417	3.00131
2.50859	3.25582
4.03197	3.46096
5.38166	3.56902
7.77678	3.66385
9.97617	3.71026
