Adsorption isotherm of Ethene on Zeolite 5A
DOI: 10.1016/S1383-5866(02)00012-6
Adsorbate Ethene: InChIKey VGGSQFUCUMXWEO-UHFFFAOYSA-N
Temperature: 303 K
Tabular data in the source: 0
pressure (bar)	uptake (mmol/g)
0.040201	0.114007
0.361809	1.02606
0.582915	1.57329
1.02513	2.05212
1.70854	2.45114
3.33668	2.81596
4.22111	2.90717
5.50754	2.97557
6.71357	3.03257
7.77889	3.06678
9.12563	3.08958
9.98995	3.11238
