Adsorption isotherm of Ethene on Zeolite 5A
DOI: 10.1016/S1383-5866(02)00012-6
Adsorbate Ethene: InChIKey VGGSQFUCUMXWEO-UHFFFAOYSA-N
Temperature: 373 K
Tabular data in the source: 0
pressure (bar)	uptake (mmol/g)
0.080402	0.0684039
0.422111	0.763844
0.723618	1.08306
1.58794	1.61889
1.98995	1.8013
2.35176	1.8355
3.59799	1.96091
4.0201	1.96091
4.42211	1.99511
5.18593	2.02932
5.96985	2.12052
6.75377	2.21173
7.19598	2.23453
8.62312	2.25733
9.50754	2.30293
9.92965	2.31433
9.94975	2.31433
