Adsorption isotherm of Ethene on Zeolite 5A
DOI: 10.1016/S1383-5866(02)00012-6
Adsorbate Ethene: InChIKey VGGSQFUCUMXWEO-UHFFFAOYSA-N
Temperature: 573 K
Tabular data in the source: 0
pressure (bar)	uptake (mmol/g)
0.100334	9.56e-05
1.10275	0.161182
1.7243	0.253278
2.34598	0.322498
2.90758	0.368784
3.5292	0.449442
4.05067	0.495691
4.83268	0.599378
5.29396	0.645569
6.0963	0.703523
6.71804	0.761305
7.54052	0.807841
8.12219	0.854147
8.9246	0.900663
9.56641	0.958465
9.90755	0.95879
9.92761	0.958809
