Adsorption isotherm of Carbon Dioxide on Zeolite 5A
DOI: 10.1016/S1383-5866(02)00012-6
Adsorbate Carbon Dioxide: InChIKey CURLTUGMZLYLDI-UHFFFAOYSA-N
Temperature: 573 K
Tabular data in the source: 0
pressure (bar)	uptake (mmol/g)
0.108629	0.0485222
0.717638	0.193802
1.54457	0.314545
2.15391	0.399034
2.78509	0.471342
3.54682	0.567835
4.30868	0.640011
5.46235	0.748265
6.83408	0.807666
7.98789	0.891603
8.90233	0.939309
9.92566	0.986904
