Adsorption isotherm of Methane on Zeolite 5A
DOI: 10.1016/S1383-5866(02)00012-6
Adsorbate Methane: InChIKey VNWKTOKETHGBQD-UHFFFAOYSA-N
Temperature: 573 K
Tabular data in the source: 0
pressure (bar)	uptake (mmol/g)
0.153565	0.00619195
1.6234	0.142415
2.01828	0.173375
2.50091	0.210526
3.15905	0.25387
3.64168	0.28483
4.0585	0.303406
4.65082	0.340557
5.26508	0.371517
5.79159	0.402477
6.42779	0.433437
6.93236	0.452012
7.45887	0.482972
7.9415	0.495356
8.40219	0.50774
9.49909	0.557276
10.0037	0.582043
