Adsorption isotherm of Methane on Zeolite 5A
DOI: 10.1016/S1383-5866(02)00012-6
Adsorbate Methane: InChIKey VNWKTOKETHGBQD-UHFFFAOYSA-N
Temperature: 303 K
Tabular data in the source: 0
pressure (bar)	uptake (mmol/g)
0.0658135	0.0371517
0.416819	0.340557
0.767824	0.582043
1.22852	0.767802
1.64534	0.904025
2.41316	1.05263
3.15905	1.19505
3.68556	1.25697
3.97075	1.31269
4.40951	1.35604
4.84826	1.42415
6.34004	1.59133
6.77879	1.64087
7.19561	1.6904
7.54662	1.73375
8.73126	1.76471
9.95978	1.77709
