Adsorption isotherm of Carbon Dioxide on Zeolite 5A
DOI: 10.1016/S1383-5866(02)00012-6
Adsorbate Carbon Dioxide: InChIKey CURLTUGMZLYLDI-UHFFFAOYSA-N
Temperature: 303 K
Tabular data in the source: 0
pressure (bar)	uptake (mmol/g)
0.0651577	0.0978593
0.256747	1.10092
0.406884	1.67584
0.752494	2.54434
1.18757	3.07034
1.60216	3.33945
2.06141	3.44954
2.4336	3.46177
3.19983	3.49847
4.49186	3.48624
5.98091	3.48624
6.76917	3.49847
7.62312	3.5107
8.73984	3.52294
9.57202	3.5107
9.98815	3.49847
