Adsorption isotherm of Methane on Zeolite 5A
DOI: 10.1016/S1383-5866(02)00012-6
Adsorbate Methane: InChIKey VNWKTOKETHGBQD-UHFFFAOYSA-N
Temperature: 373 K
Tabular data in the source: 0
pressure (bar)	uptake (mmol/g)
0.0658135	0.0371517
0.767824	0.390093
1.25046	0.495356
1.84278	0.656347
2.80804	0.773994
3.18099	0.804954
3.61974	0.823529
4.03656	0.848297
4.38757	0.866873
5.19927	0.95356
5.98903	1.03406
6.38391	1.09598
7.15174	1.18885
7.61243	1.24458
8.42413	1.28793
9.52102	1.3065
9.98172	1.3065
