Adsorption isotherm of Methane on Zeolite 5A
DOI: 10.1016/S1383-5866(02)00012-6
Adsorbate Methane: InChIKey VNWKTOKETHGBQD-UHFFFAOYSA-N
Temperature: 303 K
Tabular data in the source: 0
pressure (bar)	uptake (mmol/g)
0.0658135	0.0371517
0.175503	0.148607
0.438757	0.371517
0.789762	0.563467
1.33821	0.780186
1.99634	0.996904
2.91773	1.17647
4.21207	1.37461
5.79159	1.5356
7.1298	1.63467
8.68739	1.71517
9.95978	1.77709
