Adsorption isotherm of Carbon Dioxide on Zeolite 5A
DOI: 10.1016/S1383-5866(02)00012-6
Adsorbate Carbon Dioxide: InChIKey CURLTUGMZLYLDI-UHFFFAOYSA-N
Temperature: 373 K
Tabular data in the source: 0
pressure (bar)	uptake (mmol/g)
0.0857909	0.243074
0.170854	0.619888
0.407639	1.13029
0.666203	1.64066
0.969252	1.98078
1.40297	2.32077
2.01145	2.56331
2.57671	2.74511
4.10016	2.9381
5.55873	3.04604
8.12809	3.1407
9.95724	3.18748
