Adsorption isotherm of Carbon monoxide on Zeolite 5A
DOI: 10.1016/S1383-5866(02)00012-6
Adsorbate Carbon monoxide: InChIKey UGFAIRIUMAVXCW-UHFFFAOYSA-N
Temperature: 303 K
Tabular data in the source: 0
pressure (bar)	uptake (mmol/g)
0.0871006	0.0461538
0.432663	0.392308
0.930042	0.853846
1.43013	1.16154
2.28186	1.46923
2.91638	1.63077
4.0564	1.79231
5.13183	1.87692
6.44916	1.95385
7.85495	2
8.79946	2.03077
9.96389	2.05385
