Adsorption isotherm of Carbon monoxide on Zeolite 5A
DOI: 10.1016/S1383-5866(02)00012-6
Adsorbate Carbon monoxide: InChIKey UGFAIRIUMAVXCW-UHFFFAOYSA-N
Temperature: 373 K
Tabular data in the source: 0
pressure (bar)	uptake (mmol/g)
0.0440367	0.0309882
0.352294	0.185986
0.814679	0.472662
1.49725	0.798179
2.11376	0.992075
2.97248	1.15517
3.9633	1.28739
4.8	1.35759
5.59266	1.40454
6.42936	1.44378
7.50826	1.48317
8.63119	1.51486
9.95229	1.54667
