Adsorption isotherm of Nitrogen on MIL-100(Sc80Fe20)XS
DOI: 10.1002/chem.201404377
Adsorbate Nitrogen: InChIKey IJGRMHOSHXDMSA-UHFFFAOYSA-N
Temperature: 77 K
Tabular data in the source: 0
pressure (bar)	uptake (mmol/g)
0.0241873	10.1747
0.0463588	11.2144
0.0665148	12.3923
0.0725617	12.6695
0.0907021	12.9476
0.106827	13.364
0.126983	13.9191
0.153185	14.267
0.181404	14.3382
0.207607	14.4093
0.223731	14.4796
0.247919	14.5505
0.27009	14.6213
0.292262	14.6229
0.314433	14.7629
0.330559	14.764
0.370871	14.9053
0.407151	14.9771
0.447464	15.0492
0.48576	15.1211
0.528087	15.1241
0.564369	15.1959
0.600649	15.3369
0.63693	15.4087
0.679258	15.4117
0.717554	15.622
0.75585	15.694
0.794147	15.7659
0.832443	15.907
0.862678	16.0476
0.876787	16.187
0.886865	16.2569
0.900974	16.4656
0.911052	16.6739
0.937254	17.437
0.945317	17.7144
0.951364	18.1301
0.959427	18.8227
0.961442	18.9612
0.963457	19.6534
0.965473	20.6916
