Adsorption isotherm of Nitrogen on MIL-100(Sc50Fe50)XS
DOI: 10.1002/chem.201404377
Adsorbate Nitrogen: InChIKey IJGRMHOSHXDMSA-UHFFFAOYSA-N
Temperature: 77 K
Tabular data in the source: 0
pressure (bar)	uptake (mmol/g)
0.020156	7.40628
0.0483744	8.51556
0.0705461	9.27838
0.0846552	9.487
0.106827	9.69619
0.133029	9.97487
0.155201	10.1841
0.185435	10.2554
0.203576	10.2567
0.225747	10.3967
0.247919	10.3983
0.27009	10.4691
0.294278	10.54
0.314433	10.4722
0.33459	10.4737
0.366839	10.6144
0.407151	10.6864
0.447464	10.6893
0.483744	10.7611
0.524056	10.8332
0.566384	10.767
0.602665	10.8388
0.642977	10.7724
0.681274	10.8444
0.717554	10.847
0.757866	10.9882
0.794147	10.9908
0.834459	11.0629
0.860662	10.9956
0.876787	11.1351
0.886865	11.1358
0.898958	11.2059
0.913068	11.2761
0.931208	11.485
0.945317	11.6244
0.957411	11.9021
0.963457	12.3178
0.965473	12.8715
