Adsorption isotherm of Nitrogen on MIL-100(Sc)
DOI: 10.1002/chem.201404377
Adsorbate Nitrogen: InChIKey IJGRMHOSHXDMSA-UHFFFAOYSA-N
Temperature: 77 K
Tabular data in the source: 0
pressure (bar)	uptake (mmol/g)
0.0262029	11.3513
0.0403121	12.0444
0.05039	13.0832
0.0584525	13.3606
0.0685304	13.7073
0.0765929	13.8463
0.0866709	14.3314
0.106827	15.6477
0.126983	15.9952
0.153185	15.9279
0.187451	16.0687
0.21567	16.1399
0.225747	16.1406
0.231794	16.2103
0.266059	16.3511
0.290246	16.4221
0.312418	16.562
0.332575	16.6327
0.364824	16.5658
0.409167	16.7073
0.44948	16.7794
0.48576	16.782
0.526072	16.8541
0.566384	16.9262
0.602665	16.9979
0.640961	17.0007
0.679258	17.0726
0.717554	17.1445
0.757866	17.2166
0.794147	17.2884
0.834459	17.2913
0.858646	17.2238
0.874771	17.3634
0.886865	17.4334
0.898958	17.5035
0.913068	17.6429
0.929193	17.8517
0.943301	18.0603
0.955395	18.4764
0.961442	19.0304
0.963457	19.515
0.967489	22.0066
