Adsorption isotherm of Nitrogen on MIL-100(Sc60Fe40)XS
DOI: 10.1002/chem.201404377
Adsorbate Nitrogen: InChIKey IJGRMHOSHXDMSA-UHFFFAOYSA-N
Temperature: 77 K
Tabular data in the source: 0
pressure (bar)	uptake (mmol/g)
0.0241873	7.47577
0.0362808	8.5839
0.0463588	9.27666
0.0665148	10.1777
0.0947333	10.8718
0.104811	11.2185
0.126983	12.189
0.149155	12.4674
0.187451	12.5393
0.205591	12.679
0.229779	12.7499
0.245903	12.8203
0.27009	12.822
0.292262	12.8928
0.314433	12.8944
0.33459	12.965
0.370871	13.0368
0.407151	12.9702
0.447464	13.0423
0.48576	13.1834
0.526072	13.0479
0.562353	13.1888
0.600649	13.1224
0.640961	13.1944
0.679258	13.1972
0.71957	13.3385
0.757866	13.2028
0.798178	13.2748
0.838491	13.2777
0.856631	13.3482
0.87074	13.3492
0.884849	13.2118
0.898958	13.3512
0.915083	13.2832
0.93524	13.2846
0.951364	13.355
