Adsorption isotherm of Nitrogen on MIL-100(Sc90Fe10)XS
DOI: 10.1002/chem.201404377
Adsorbate Nitrogen: InChIKey IJGRMHOSHXDMSA-UHFFFAOYSA-N
Temperature: 77 K
Tabular data in the source: 0
pressure (bar)	uptake (mmol/g)
0.0221716	11.005
0.0382964	12.0443
0.0685304	13.7073
0.106827	14.6097
0.147139	15.8582
0.20156	16.1389
0.243887	16.2111
0.330559	16.4941
0.368855	16.4277
0.407151	16.4996
0.447464	16.6409
0.481729	16.5741
0.524056	16.6463
0.564369	16.7184
0.600649	16.7902
0.638945	16.7237
0.681274	16.7267
0.71957	16.7295
0.75585	16.732
0.796163	16.6657
0.830428	16.7374
0.864693	16.8782
0.880818	16.8101
0.892911	16.8802
0.905005	16.8811
0.927177	16.9519
0.945317	17.0224
0.965473	17.0238
