Adsorption isotherm of Copper(II) Ion, Zn(II), Lead(II) Ion, Cadmium(II) Ion, Water on Eucalyptus Leaf-Based Magnetic Biosorbent
DOI: 10.1080/10934529.2017.1316168
Article source: Figure 2
Adsorbate Copper(II) Ion: InChIKey JPVYNHNXODAKFH-UHFFFAOYSA-N
Adsorbate Zn(II): InChIKey PTFCDOFLOPIGGS-UHFFFAOYSA-N
Adsorbate Lead(II) Ion: InChIKey RVPVRDXYQKGNMQ-UHFFFAOYSA-N
Adsorbate Cadmium(II) Ion: InChIKey WLZRMCYVCSSEQC-UHFFFAOYSA-N
Adsorbate Water: InChIKey XLYOFNOQVPJJNP-UHFFFAOYSA-N
Kind: experiment
Temperature: 298 K
Tabular data in the source: 0
pressure (bar)	Copper(II) Ion fraction	Copper(II) Ion uptake (mmol/g)	Zn(II) fraction	Zn(II) uptake (mmol/g)	Lead(II) Ion fraction	Lead(II) Ion uptake (mmol/g)	Cadmium(II) Ion fraction	Cadmium(II) Ion uptake (mmol/g)	Water fraction	Water uptake (mmol/g)	total uptake (mmol/g)
1.01325	0	0	0	0	0	0	0	0			
1.01325	0.00602	0.04354	0.02527	0.042123	0.000276	0.04041	0.02026	0.044989			
1.01325	0.00978	0.05188	0.04584	0.048171	0.000346	0.04952	0.03368	0.052464			
1.01325	0.01524	0.06382	0.06974	0.05713	0.000461	0.06227	0.06069	0.062181			
1.01325	0.03421	0.12253	0.33861	0.047349	0.002187	0.12341	0.31537	0.060927			
1.01325	0.19976	0.16347	0.50014	0.012853	0.049115	0.22275	0.44391	0.057648			
