Adsorption isotherm of Zn(II), Lead(II) Ion, Water on Eucalyptus Leaf-Based Magnetic Biosorbent
DOI: 10.1080/10934529.2017.1316168
Article source: Figure 2
Adsorbate Zn(II): InChIKey PTFCDOFLOPIGGS-UHFFFAOYSA-N
Adsorbate Lead(II) Ion: InChIKey RVPVRDXYQKGNMQ-UHFFFAOYSA-N
Adsorbate Water: InChIKey XLYOFNOQVPJJNP-UHFFFAOYSA-N
Kind: experiment
Temperature: 298 K
Tabular data in the source: 0
pressure (bar)	Zn(II) fraction	Zn(II) uptake (mmol/g)	Lead(II) Ion fraction	Lead(II) Ion uptake (mmol/g)	Water fraction	Water uptake (mmol/g)	total uptake (mmol/g)
1.01325	0.017611	0.01507	0.000494	0.05112			
1.01325	0.020154	0.04132	0.000569	0.07987			
1.01325	0.04211	0.08713	0.001286	0.10482			
1.01325	0.053119	0.12566	0.001819	0.13571			
1.01325	0.068544	0.1742	0.003644	0.1925			
1.01325	0	0	0.008739	0.22816			
