Adsorption isotherm of Copper(II) Ion, Zn(II), Water on Eucalyptus Leaf-Based Magnetic Biosorbent
DOI: 10.1080/10934529.2017.1316168
Article source: Figure 2
Adsorbate Copper(II) Ion: InChIKey JPVYNHNXODAKFH-UHFFFAOYSA-N
Adsorbate Zn(II): InChIKey PTFCDOFLOPIGGS-UHFFFAOYSA-N
Adsorbate Water: InChIKey XLYOFNOQVPJJNP-UHFFFAOYSA-N
Kind: experiment
Temperature: 298 K
Tabular data in the source: 0
pressure (bar)	Copper(II) Ion fraction	Copper(II) Ion uptake (mmol/g)	Zn(II) fraction	Zn(II) uptake (mmol/g)	Water fraction	Water uptake (mmol/g)	total uptake (mmol/g)
1.01325	0.030677	0.09778	0.018461	0.04531			
1.01325	0.05543	0.15055	0.038965	0.08737			
1.01325	0.080344	0.19521	0.054087	0.12416			
1.01325	0.086409	0.20698	0.069694	0.18045			
1.01325	0.159826	0.3166	0	0			
