Adsorption isotherm of Zn(II), Cadmium(II) Ion, Water on Eucalyptus Leaf-Based Magnetic Biosorbent
DOI: 10.1080/10934529.2017.1316168
Article source: Figure 2
Adsorbate Zn(II): InChIKey PTFCDOFLOPIGGS-UHFFFAOYSA-N
Adsorbate Cadmium(II) Ion: InChIKey WLZRMCYVCSSEQC-UHFFFAOYSA-N
Adsorbate Water: InChIKey XLYOFNOQVPJJNP-UHFFFAOYSA-N
Kind: experiment
Temperature: 298 K
Tabular data in the source: 0
pressure (bar)	Zn(II) fraction	Zn(II) uptake (mmol/g)	Cadmium(II) Ion fraction	Cadmium(II) Ion uptake (mmol/g)	Water fraction	Water uptake (mmol/g)	total uptake (mmol/g)
1.01325	0.010778	0.01979	0.009473	0.042386			
1.01325	0.015921	0.0468	0.026919	0.081866			
1.01325	0.034127	0.0871	0.052606	0.109894			
1.01325	0.050217	0.13164	0.081877	0.136727			
1.01325	0.066127	0.18843	0.128091	0.158776			
