Adsorption isotherm of Cadmium(II) Ion, Water on Eucalyptus Leaf-Based Magnetic Biosorbent
DOI: 10.1080/10934529.2017.1316168
Article source: Figure 2
Adsorbate Cadmium(II) Ion: InChIKey WLZRMCYVCSSEQC-UHFFFAOYSA-N
Adsorbate Water: InChIKey XLYOFNOQVPJJNP-UHFFFAOYSA-N
Kind: experiment
Temperature: 298 K
Tabular data in the source: 0
pressure (bar)	Cadmium(II) Ion fraction	Cadmium(II) Ion uptake (mmol/g)	Water fraction	Water uptake (mmol/g)	total uptake (mmol/g)
1.01325	0.00173	0.0731			
1.01325	0.004927	0.14356			
1.01325	0.035023	0.27204			
1.01325	0.077846	0.50155			
