Adsorption isotherm of Zn(II), Water on Eucalyptus Leaf-Based Magnetic Biosorbent
DOI: 10.1080/10934529.2017.1316168
Article source: Figure 2
Adsorbate Zn(II): InChIKey PTFCDOFLOPIGGS-UHFFFAOYSA-N
Adsorbate Water: InChIKey XLYOFNOQVPJJNP-UHFFFAOYSA-N
Kind: experiment
Temperature: 298 K
Tabular data in the source: 0
pressure (bar)	Zn(II) fraction	Zn(II) uptake (mmol/g)	Water fraction	Water uptake (mmol/g)	total uptake (mmol/g)
1.01325	0.006717	0.06238			
1.01325	0.019327	0.12774			
1.01325	0.08209	0.21907			
1.01325	0.138363	0.38397			
