Adsorption isotherm of Lead(II) Ion, Water on Eucalyptus Leaf-Based Magnetic Biosorbent
DOI: 10.1080/10934529.2017.1316168
Article source: Figure 2
Adsorbate Lead(II) Ion: InChIKey RVPVRDXYQKGNMQ-UHFFFAOYSA-N
Adsorbate Water: InChIKey XLYOFNOQVPJJNP-UHFFFAOYSA-N
Kind: experiment
Temperature: 298 K
Tabular data in the source: 0
pressure (bar)	Lead(II) Ion fraction	Lead(II) Ion uptake (mmol/g)	Water fraction	Water uptake (mmol/g)	total uptake (mmol/g)
1.01325	0.00451	0.25324			
1.01325	0.05307	0.38807			
1.01325	0.14267	0.4433			
1.01325	0.32124	0.4739			
1.01325	0.52909	0.5032			
1.01325	0.78028	0.50787			
