Adsorption isotherm of Acetone on CuBTC
DOI: 10.1021/Jp410152p
Adsorbate Acetone: InChIKey CSCPPACGZOOCGX-UHFFFAOYSA-N
Temperature: 323 K
Tabular data in the source: 0
pressure (bar)	uptake (molecules/unitcell)
0.00108022	60.2587
0.00245315	69.0683
0.00428374	74.4457
0.0058855	78.4501
0.00741098	81.3104
0.0141231	88.8615
0.0197674	90.9209
0.0260982	92.2939
0.0329629	93.3236
0.039675	94.1245
0.0460058	94.9253
0.0522603	95.6118
0.0581334	96.1839
0.0636251	96.7559
0.0685067	97.328
0.0732357	97.6712
0.0778884	97.9
