Adsorption isotherm of Acetone on CuBTC
DOI: 10.1021/Jp410152p
Adsorbate Acetone: InChIKey CSCPPACGZOOCGX-UHFFFAOYSA-N
Temperature: 303 K
Tabular data in the source: 0
pressure (bar)	uptake (molecules/unitcell)
0.000412	0.279085
0.000984	66.0085
0.00373034	79.9094
0.00727709	88.4903
0.0113959	92.4375
0.0148282	94.6685
0.0186038	96.3847
0.0221506	97.586
0.0291297	99.1306
0.0371385	99.817
0.042287	100.332
0.048122	101.533
0.0538425	102.048
0.0589911	102.735
0.0632243	103.078
0.0675719	103.421
0.072034	103.764
0.0756951	103.936
0.0780978	103.936
