Adsorption isotherm of Acetone on CuBTC
DOI: 10.1021/Jp410152p
Adsorbate Acetone: InChIKey CSCPPACGZOOCGX-UHFFFAOYSA-N
Temperature: 313 K
Tabular data in the source: 0
pressure (bar)	uptake (molecules/unitcell)
0.000241	0.42148
0.000394	50.1905
0.00184296	69.0683
0.00382609	78.1068
0.00611432	83.3698
0.00847882	86.6877
0.0109196	89.2048
0.0133604	91.0353
0.0161825	92.7515
0.0211404	94.4677
0.0250303	95.7262
0.0300644	96.6415
0.036624	97.7856
0.0403615	98.1289
0.0458532	98.7009
0.056074	99.3874
0.0661422	99.7306
0.0759816	100.303
