Adsorption isotherm of Nitrogen on MIL-101
DOI: 10.1016/j.jhazmat.2013.01.024
Adsorbate Nitrogen: InChIKey IJGRMHOSHXDMSA-UHFFFAOYSA-N
Temperature: 77 K
Tabular data in the source: 0
pressure (bar)	uptake (cm3(STP)/g)
0.00837971	222.545
0.0149343	347.082
0.0324133	427.923
0.0717411	519.688
0.113254	593.973
0.17006	633.301
0.205018	685.738
0.235607	698.847
0.274934	705.402
0.336111	711.956
0.410397	722.881
0.493422	729.435
0.591741	742.545
0.670397	749.099
0.751237	753.469
0.832077	762.208
0.867035	770.948
0.926027	788.427
0.947875	805.906
0.969724	849.603
0.989388	1074.65
