Adsorption isotherm of Nitrogen on MIL-101
DOI: 10.1016/j.jhazmat.2013.01.024
Adsorbate Nitrogen: InChIKey IJGRMHOSHXDMSA-UHFFFAOYSA-N
Temperature: 77 K
Tabular data in the source: 0
pressure (bar)	uptake (cm3(STP)/g)
0.0324133	489.099
0.0739259	596.158
0.111069	679.183
0.148212	784.057
0.1788	819.015
0.222497	860.528
0.233422	893.301
0.253086	950.108
0.277119	965.402
0.318632	974.141
0.373254	980.696
0.454094	991.62
0.52401	1000.36
0.596111	1006.91
0.674766	1015.65
0.753422	1020.02
0.838632	1030.95
0.893254	1044.06
0.926027	1057.17
0.952245	1070.28
0.974094	1118.34
