Adsorption isotherm of N-Butane on Silicalite MFI
DOI: 10.1021/La034766z
Adsorbate N-Butane: InChIKey IJDNQMDRQITEOD-UHFFFAOYSA-N
Temperature: 300 K
Tabular data in the source: 0
pressure (bar)	uptake (mmol/g)
1.36e-06	0.0136364
3.69e-06	0.0136364
3e-05	0.0272727
9.92e-05	0.0954545
0.000163305	0.156818
0.000268906	0.211364
0.000362719	0.286364
0.000442802	0.354545
0.000729155	0.545455
0.00120066	0.688636
0.00218449	0.831818
0.00439137	1.00909
0.00536093	1.07727
0.0107768	1.2
0.0216641	1.24773
0.0435502	1.29545
0.0717134	1.34318
0.262285	1.35
0.785791	1.34318
1.42967	1.33636
3.17545	1.30227
7.05302	1.26136
11.614	1.24091
25.7959	1.2
51.8561	1.15909
104.244	1.13864
115.178	1.09773
209.556	1.04318
381.268	0.988636
1033.81	0.886364
1702.35	0.825
2803.17	0.770455
4615.94	0.709091
11327.9	0.606818
20610.1	0.552273
37498.2	0.484091
68224.4	0.429545
124125	0.388636
304614	0.361364
747567	0.327273
1230980	0.313636
3020930	0.279545
6709810	0.245455
