Adsorption isotherm of N-Butane on Zeolite MFI
DOI: 10.1021/la034766z
Article source: Figure 1d
Adsorbate N-Butane: InChIKey IJDNQMDRQITEOD-UHFFFAOYSA-N
Kind: experiment
Temperature: 300 K
Tabular data in the source: 0
pressure (bar)	uptake (mmol/g)
0.000486	0.44517
0.00102	0.82507
0.00232	1.10313
0.004259	1.27546
0.011205	1.43211
0.055821	1.56919
0.18151	1.62402
0.411718	1.68277
0.706806	1.71018
1.01345	1.72585
1.19371	1.73368
