Adsorption isotherm of Ethane on Silicalite MFI
DOI: 10.1021/La034766z
Adsorbate Ethane: InChIKey OTMSDBZUPAUEDD-UHFFFAOYSA-N
Temperature: 300 K
Tabular data in the source: 0
pressure (bar)	uptake (mmol/g)
0.00862124	0.121827
0.02784	0.395939
0.0436325	0.548223
0.0814948	0.837563
0.134464	1.18782
0.393854	1.70558
0.73496	1.88832
1.40517	1.99492
2.04226	2.05584
2.89449	2.08629
