Adsorption isotherm of Methane on Silicalite MFI
DOI: 10.1021/La034766z
Adsorbate Methane: InChIKey VNWKTOKETHGBQD-UHFFFAOYSA-N
Temperature: 300 K
Tabular data in the source: 0
pressure (bar)	uptake (mmol/g)
0.000622014	0.0601287
0.00382851	0.139276
0.0153052	0.278622
0.0537774	0.463441
0.112411	0.616945
0.225376	0.876978
0.363285	0.999595
0.793283	1.18363
1.73414	1.4438
3.18737	1.67324
3.95841	1.70405
6.11729	1.90274
9.0396	1.99476
12.787	2.05624
15.2083	2.08699
22.4636	2.14855
29.1689	2.27081
