Adsorption isotherm of Methane on Silicalite MFI
DOI: 10.1021/La034766z
Adsorbate Methane: InChIKey VNWKTOKETHGBQD-UHFFFAOYSA-N
Temperature: 300 K
Tabular data in the source: 0
pressure (bar)	uptake (mmol/g)
0.000328284	0
0.000805638	0
0.00723119	0
0.0792355	0.00681818
0.959289	0.00681818
1.42967	0.0136364
3.87657	0.0204545
12.8322	0.0272727
34.7953	0.0340909
127.259	0.0545455
312.306	0.0818182
693.681	0.115909
1262.06	0.156818
2296.2	0.211364
4177.73	0.265909
6879.39	0.320455
11327.9	0.368182
18653.5	0.429545
45777.3	0.538636
75380.7	0.606818
137145	0.634091
336574	0.661364
1114120	0.729545
2027030	0.784091
3337870	0.845455
5496290	0.9
9050660	0.954545
