Adsorption isotherm of N-Butane on Silicalite MFI
DOI: 10.1021/La034766z
Adsorbate N-Butane: InChIKey IJDNQMDRQITEOD-UHFFFAOYSA-N
Temperature: 300 K
Tabular data in the source: 0
pressure (bar)	uptake (mmol/g)
0.000504731	0.672775
0.00101137	1.01832
0.0023034	1.23037
0.00430091	1.34031
0.0115099	1.44241
0.0555354	1.55236
0.186803	1.63089
0.409981	1.6466
0.715761	1.67801
1.02604	1.67801
1.20915	1.70157
