Adsorption isotherm of Methane on Silicalite MFI
DOI: 10.1021/La034766z
Adsorbate Methane: InChIKey VNWKTOKETHGBQD-UHFFFAOYSA-N
Temperature: 300 K
Tabular data in the source: 0
pressure (bar)	uptake (mmol/g)
0.000289194	0
0.000396433	0
0.00113446	0
0.00324653	0
0.00929052	0
0.0265864	0
0.0760817	0
0.0939464	0.00718563
0.176542	0.00718563
1.0553	0.0143713
1.60704	0.0143713
4.59883	0.0143713
46.5618	0.0359281
120.099	0.0502994
310.163	0.0790419
801.014	0.107784
1510.98	0.150898
2570.57	0.215569
4370.49	0.273054
7435.33	0.337725
11372.6	0.388024
17406	0.445509
29612.2	0.51018
40849.8	0.582036
146545	0.761677
202032	0.826347
278702	0.898204
427356	0.977246
589536	1.0491
812756	1.11377
1248650	1.21437
