Adsorption isotherm of Methane on Zeolite MFI
DOI: 10.1021/la034766z
Article source: Figure 1
Adsorbate Methane: InChIKey VNWKTOKETHGBQD-UHFFFAOYSA-N
Kind: experiment
Temperature: 300 K
Tabular data in the source: 0
pressure (bar)	uptake (mmol/g)
0.198779	0.2239
0.382604	0.3876
0.713099	0.6267
1.01622	0.8216
1.47965	1.1897
1.87383	1.2115
2.64186	1.4139
3.93016	1.684
5.48189	1.8789
6.03796	1.9162
7.72876	1.9983
9.07904	2.1561
11.1332	2.1328
11.8738	2.2532
14.0987	2.2602
16.3851	2.3577
