Adsorption isotherm of N-Butane on Silicalite MFI
DOI: 10.1021/La034766z
Adsorbate N-Butane: InChIKey IJDNQMDRQITEOD-UHFFFAOYSA-N
Temperature: 300 K
Tabular data in the source: 0
pressure (bar)	uptake (mmol/g)
2.87e-05	0.0215569
0.000101887	0.0934132
0.000126209	0.136527
0.000193281	0.201198
0.000330697	0.330539
0.000410667	0.402395
0.000509965	0.474251
0.000632893	0.538922
0.000785941	0.610778
0.00121124	0.747305
0.0016709	0.819162
0.00230356	0.883832
0.00317775	0.955689
0.00438097	1.02036
0.00671352	1.09222
0.0092555	1.15689
0.0127518	1.21437
0.0267375	1.26467
0.056097	1.32216
0.0953147	1.37246
0.272763	1.37246
0.703545	1.38683
1.81239	1.38683
5.17994	1.37246
13.3272	1.35808
16.4252	1.34371
37.9228	1.29341
78.866	1.2503
164.119	1.21437
341.311	1.17126
788.025	1.12096
1476.18	1.08503
2483.08	1.02036
4179.36	0.962874
13128	0.826347
37426.6	0.783234
161466	0.668263
301898	0.610778
627451	0.560479
1173190	0.502994
