Adsorption isotherm of Methane on Silicalite MFI
DOI: 10.1021/La034766z
Adsorbate Methane: InChIKey VNWKTOKETHGBQD-UHFFFAOYSA-N
Temperature: 300 K
Tabular data in the source: 0
pressure (bar)	uptake (mmol/g)
0.000622157	0.0753575
0.0040012	0.200262
0.0146801	0.385153
0.0516262	0.630887
0.107962	0.814847
0.21674	1.16625
0.380423	1.19764
0.73012	1.42714
1.59642	1.70255
3.06254	1.9016
3.97147	1.93248
6.39744	2.00941
8.68176	2.19266
15.2518	2.28496
21.5556	2.28553
29.22	2.39264
