Adsorption isotherm of N-Butane on Silicalite MFI
DOI: 10.1021/La034766z
Adsorbate N-Butane: InChIKey IJDNQMDRQITEOD-UHFFFAOYSA-N
Temperature: 300 K
Tabular data in the source: 0
pressure (bar)	uptake (mmol/g)
3.14e-05	0.0326531
0.000148912	0.138776
0.000341846	0.269388
0.000466842	0.35102
0.000574645	0.42449
0.000784766	0.506122
0.00118902	0.653061
0.00162379	0.734694
0.00199871	0.808163
0.00272954	0.889796
0.00372761	0.971429
0.00509061	1.0449
0.00626599	1.12653
0.00855717	1.2
0.0143843	1.30612
0.0297632	1.36327
0.0615843	1.42857
0.103523	1.47755
0.263665	1.50204
0.671534	1.54286
1.71034	1.55918
4.83294	1.56735
12.3092	1.57551
15.1513	1.55918
42.8134	1.53469
120.979	1.48571
225.621	1.42041
379.271	1.34694
707.327	1.28163
1189.02	1.21633
1998.71	1.14286
3727.61	1.02857
11686.1	0.873469
17706	0.8
29763.2	0.726531
40646.2	0.661224
55508.6	0.563265
103524	0.481633
193068	0.44898
399485	0.440816
1017470	0.367347
1252390	0.35102
2591370	0.302041
5361920	0.244898
11094600	0.195918
