Adsorption isotherm of N-propane on Silicalite MFI
DOI: 10.1021/La034766z
Adsorbate N-propane: InChIKey ATUOYWHBWRKTHZ-UHFFFAOYSA-N
Temperature: 300 K
Tabular data in the source: 0
pressure (bar)	uptake (mmol/g)
2.58e-05	0.00718563
9.11e-05	0.0143713
0.000289921	0.0287425
0.00102705	0.0646707
0.00156502	0.0718563
0.00448415	0.0862275
0.0115734	0.107784
0.0158752	0.11497
0.0409732	0.136527
0.10575	0.158084
0.161241	0.172455
0.416678	0.208383
0.969927	0.251497
1.47888	0.265868
3.44248	0.308982
8.01326	0.352096
13.5985	0.388024
25.6833	0.445509
48.5076	0.502994
91.6157	0.560479
155.468	0.596407
325.979	0.646707
759.766	0.704192
1432.25	0.74012
1595.03	0.768862
3008.78	0.811976
5682.64	0.869461
10739.4	0.934132
46741.2	0.91976
120790	0.955689
1352570	0.926946
