Adsorption isotherm of Ethane on Silicalite MFI
DOI: 10.1021/La034766z
Adsorbate Ethane: InChIKey OTMSDBZUPAUEDD-UHFFFAOYSA-N
Temperature: 300 K
Tabular data in the source: 0
pressure (bar)	uptake (mmol/g)
0.00096394	0.00808081
0.00312946	0.0242424
0.00449314	0.040404
0.010141	0.0727273
0.0208954	0.113131
0.0471183	0.161616
0.106298	0.20202
0.139392	0.218182
0.287213	0.258586
0.648542	0.282828
1.60194	0.323232
3.6156	0.355556
8.16049	0.387879
14.0456	0.40404
31.7154	0.428283
65.4094	0.452525
134.772	0.492929
231.329	0.557576
433.751	0.662626
566.97	0.735354
740.764	0.816162
1159.18	0.913131
1816.39	0.985859
4455.84	1.14747
6982.16	1.2202
10955.9	1.26869
17183.4	1.32525
35373.7	1.38182
60967.7	1.37374
125852	1.38182
373336	1.3899
844559	1.38182
