Adsorption isotherm of N-propane on Silicalite MFI
DOI: 10.1021/La034766z
Adsorbate N-propane: InChIKey ATUOYWHBWRKTHZ-UHFFFAOYSA-N
Temperature: 300 K
Tabular data in the source: 0
pressure (bar)	uptake (mmol/g)
0.00189082	0.252874
0.0038068	0.471264
0.00575811	0.62069
0.00872389	0.873563
0.0150121	1.17241
0.0292664	1.35632
0.0668744	1.57471
0.162645	1.73563
0.316443	1.7931
0.744838	1.88506
1.31765	1.93103
1.98872	1.94253
2.5627	1.96552
3.09921	1.97701
3.51814	1.98851
