Adsorption isotherm of N-propane on Zeolite MFI
DOI: 10.1021/la034766z
Article source: Figure 1c
Adsorbate N-propane: InChIKey ATUOYWHBWRKTHZ-UHFFFAOYSA-N
Kind: experiment
Temperature: 300 K
Tabular data in the source: 0
pressure (bar)	uptake (mmol/g)
0.001885	0
0.003972	0
0.00581	0
0.008774	0
0.015283	0
0.029268	0
0.068897	0
0.164778	0
0.315573	0
0.742848	0
1.31462	0
2.0488	0
2.4395	0
3.24489	0
3.45701	0
