Adsorption isotherm of Ethane on Silicalite MFI
DOI: 10.1021/La034766z
Adsorbate Ethane: InChIKey OTMSDBZUPAUEDD-UHFFFAOYSA-N
Temperature: 300 K
Tabular data in the source: 0
pressure (bar)	uptake (mmol/g)
7.35e-05	0
0.000659918	0.00681818
0.00882775	0.0204545
0.0792355	0.0204545
0.106876	0.0272727
0.289797	0.0409091
1.05991	0.0545455
2.35419	0.0818182
5.77741	0.115909
8.61029	0.122727
12.8322	0.136364
28.5016	0.170455
115.178	0.238636
231.537	0.286364
421.26	0.340909
1033.81	0.422727
1702.35	0.484091
2537.06	0.545455
4177.73	0.6
11327.9	0.729545
18653.5	0.790909
30715.7	0.852273
45777.3	0.906818
83287.5	0.981818
184991	1.01591
453983	1.04318
1360100	1.07727
3337870	1.10455
