Adsorption isotherm of Ethane on Silicalite MFI
DOI: 10.1021/La034766z
Adsorbate Ethane: InChIKey OTMSDBZUPAUEDD-UHFFFAOYSA-N
Temperature: 300 K
Tabular data in the source: 0
pressure (bar)	uptake (mmol/g)
0.0086278	0.213198
0.0278856	0.593909
0.043716	0.77665
0.0816789	1.11168
0.131357	1.37056
0.384463	1.79695
0.735611	1.99492
1.4073	2.17766
2.04562	2.25381
2.89962	2.29949
