Adsorption isotherm of N-propane on Silicalite MFI
DOI: 10.1021/La034766z
Adsorbate N-propane: InChIKey ATUOYWHBWRKTHZ-UHFFFAOYSA-N
Temperature: 300 K
Tabular data in the source: 0
pressure (bar)	uptake (mmol/g)
0.00183324	0.298851
0.00369556	0.597701
0.00558985	0.747126
0.00846447	0.965517
0.0145522	1.2069
0.0283805	1.41379
0.0669098	1.6092
0.162704	1.75862
0.316674	1.83908
0.744838	1.88506
1.31765	1.93103
1.98872	1.94253
2.56224	1.95402
3.09865	1.96552
3.51814	1.98851
