Adsorption isotherm of Methane on Silicalite MFI
DOI: 10.1021/La034766z
Adsorbate Methane: InChIKey VNWKTOKETHGBQD-UHFFFAOYSA-N
Temperature: 300 K
Tabular data in the source: 0
pressure (bar)	uptake (mmol/g)
0.0302079	0.00808081
0.089652	0.00808081
0.349067	0.0161616
1.13428	0.0161616
4.03185	0.0323232
9.98171	0.0323232
42.5334	0.0484848
105.203	0.0646465
180.742	0.113131
310.234	0.177778
532.746	0.234343
761.395	0.331313
1432.88	0.371717
2460.59	0.428283
3857.45	0.492929
6047.28	0.557576
8654.66	0.630303
16287	0.670707
40101.4	0.767677
90550.3	0.791919
141955	0.856566
203161	0.929293
347920	1.03434
597462	1.09091
856229	1.13939
