Adsorption isotherm of N-propane on Silicalite MFI
DOI: 10.1021/La034766z
Adsorbate N-propane: InChIKey ATUOYWHBWRKTHZ-UHFFFAOYSA-N
Temperature: 300 K
Tabular data in the source: 0
pressure (bar)	uptake (mmol/g)
9.13e-05	0.00808081
0.000959533	0.0888889
0.00309243	0.234343
0.00370033	0.266667
0.0044156	0.347475
0.00577178	0.420202
0.00688763	0.50101
0.00821902	0.581818
0.0117144	0.727273
0.0139788	0.808081
0.0166809	0.888889
0.0199145	0.961616
0.023764	1.04242
0.0283583	1.12323
0.0370169	1.2202
0.0529773	1.29293
0.0692166	1.37374
0.118644	1.46263
0.203646	1.52727
0.419607	1.56768
0.864588	1.60808
1.6293	1.62424
4.03185	1.63232
9.11247	1.6404
20.6424	1.60808
46.6541	1.61616
67.1692	1.58384
126.87	1.5596
219.366	1.49495
455.523	1.39798
657.325	1.32525
1041.41	1.20404
1644.6	1.13939
4927.99	0.969697
7111.15	0.89697
17702.3	0.8
33543.6	0.719192
69337.8	0.70303
130906	0.686869
247822	0.622222
391003	0.573737
886156	0.533333
