Adsorption isotherm of Ethane on Zeolite MFI
DOI: 10.1021/la034766z
Article source: Figure 1b
Adsorbate Ethane: InChIKey OTMSDBZUPAUEDD-UHFFFAOYSA-N
Kind: experiment
Temperature: 300 K
Tabular data in the source: 0
pressure (bar)	uptake (mmol/g)
0.008393	0
0.027214	0
0.042697	0
0.079836	0
0.130047	0
0.376791	0
0.731307	0
1.38452	0
2.0408	0
2.89734	0
