Adsorption isotherm of N-Butane on Silicalite MFI
DOI: 10.1021/La034766z
Adsorbate N-Butane: InChIKey IJDNQMDRQITEOD-UHFFFAOYSA-N
Temperature: 300 K
Tabular data in the source: 0
pressure (bar)	uptake (mmol/g)
0.000518764	0.429319
0.00100688	0.814136
0.00229673	1.09686
0.00429349	1.26178
0.0115038	1.41885
0.0555354	1.55236
0.18677	1.62304
0.423771	1.6623
0.739835	1.69372
1.02692	1.71728
1.25003	1.72513
