Adsorption isotherm of N-propane on Silicalite MFI
DOI: 10.1021/La034766z
Adsorbate N-propane: InChIKey ATUOYWHBWRKTHZ-UHFFFAOYSA-N
Temperature: 300 K
Tabular data in the source: 0
pressure (bar)	uptake (mmol/g)
7.35e-05	0.0136364
0.000297112	0.0272727
0.000729155	0.0477273
0.00120066	0.0613636
0.00294652	0.0818182
0.00723119	0.109091
0.0119072	0.115909
0.0292213	0.136364
0.0717134	0.15
0.118087	0.170455
0.289797	0.204545
0.643671	0.245455
1.29394	0.272727
2.60113	0.313636
5.77741	0.361364
11.614	0.402273
23.3469	0.443182
51.8561	0.490909
115.178	0.504545
255.823	0.572727
568.211	0.613636
1142.25	0.627273
1262.06	0.640909
3422.16	0.640909
8398.27	0.640909
22771.9	0.627273
55884.3	0.606818
137145	0.6
371878	0.593182
825981	0.593182
2027030	0.572727
4974510	0.545455
8191440	0.531818
