Adsorption isotherm of Ethane on Silicalite MFI
DOI: 10.1021/La034766z
Adsorbate Ethane: InChIKey OTMSDBZUPAUEDD-UHFFFAOYSA-N
Temperature: 300 K
Tabular data in the source: 0
pressure (bar)	uptake (mmol/g)
0.000109041	2.22e-16
0.00030812	0.00816327
0.00107172	0.00816327
0.0105332	0.0163265
0.0159592	0.0244898
0.0450962	0.0244898
0.156852	0.0326531
0.443218	0.0489796
1.2524	0.0571429
3.18977	0.0897959
8.12408	0.130612
15.1513	0.155102
31.3502	0.204082
71.9681	0.253061
120.979	0.302041
183.299	0.37551
308.12	0.44898
466.842	0.522449
784.766	0.595918
1189.02	0.669388
1801.52	0.742857
2729.54	0.816327
11686.1	1.06122
17706	1.13469
26826.9	1.20816
33021.7	1.28163
61584.3	1.37143
84102.7	1.42857
141377	1.45306
399485	1.46122
826590	1.54286
1252390	1.54286
4356120	1.52653
10000000	1.52653
12309200	1.51837
