Adsorption isotherm of Carbon Dioxide on UiO-67/MCM-41
DOI: 10.1007/s10450-012-9395-1
Adsorbate Carbon Dioxide: InChIKey CURLTUGMZLYLDI-UHFFFAOYSA-N
Temperature: 298 K
Tabular data in the source: 0
pressure (bar)	uptake (mmol/g)
0.862069	0.870968
1.55172	1.1129
2.24138	1.54839
2.58621	1.93548
3.27586	2.22581
3.62069	2.41935
3.96552	2.75806
4.65517	3.04839
5.34483	3.33871
5.68966	3.53226
6.55172	3.91935
7.06897	4.1129
7.58621	4.40323
8.10345	4.59677
9.13793	4.8871
9.48276	5.12903
10.1724	5.37097
10.8621	5.6129
11.5517	5.95161
12.2414	6.19355
12.931	6.33871
14.6552	6.82258
15.3448	7.01613
16.2069	7.25806
17.069	7.45161
18.1034	7.69355
18.6207	7.8871
19.8276	8.03226
20.5172	8.22581
21.3793	8.41935
23.4483	8.75806
24.3103	8.95161
25.1724	9.14516
27.4138	9.43548
29.1379	9.72581
31.0345	10.0161
31.8966	10.1129
33.4483	10.3065
35	10.5
36.2069	10.5968
37.4138	10.7903
38.4483	10.8871
39.4828	10.9839
40.5172	11.0806
41.2069	11.1774
42.5862	11.2742
43.7931	11.4194
44.6552	11.4677
46.0345	11.6129
47.931	11.7097
48.9655	11.8548
50	11.9032
