Adsorption isotherm of Hydrogen on MCM-41
DOI: 10.1007/s10450-012-9395-1
Adsorbate Hydrogen: InChIKey UFHFLCQGNIYNRP-UHFFFAOYSA-N
Temperature: 303 K
Tabular data in the source: 0
pressure (bar)	uptake (mmol/g)
9.98767	0.0912433
20.1718	0.190956
26.3637	0.248408
29.963	0.27373
33.1568	0.307538
36.5537	0.336256
39.7534	0.358199
43.1504	0.386917
46.3492	0.410555
49.3474	0.434199
52.5454	0.459533
