Adsorption isotherm of Carbon Dioxide on USO-2-Ni
DOI: 10.1007/s10450-012-9395-1
Adsorbate Carbon Dioxide: InChIKey CURLTUGMZLYLDI-UHFFFAOYSA-N
Temperature: 298 K
Tabular data in the source: 0
pressure (bar)	uptake (mmol/g)
0.172414	0.629032
0.517241	1.06452
0.862069	1.54839
1.2069	2.41935
1.55172	2.90323
1.72414	3.3871
2.06897	3.87097
2.41379	4.30645
2.58621	4.79032
2.93103	5.27419
3.27586	5.75806
3.62069	6.24194
3.96552	6.67742
4.48276	7.16129
4.82759	7.64516
5.34483	8.08065
6.03448	8.56452
6.55172	9
7.41379	9.43548
8.27586	9.87097
9.31034	10.2581
10.3448	10.5968
11.5517	10.9355
12.931	11.2258
14.4828	11.5161
15.8621	11.7097
17.5862	11.9032
19.1379	12.0484
20.8621	12.1935
22.4138	12.3387
24.1379	12.4355
25.6897	12.5323
27.4138	12.5806
29.1379	12.6774
30.6897	12.7258
32.4138	12.7742
34.1379	12.8226
35.8621	12.871
37.4138	12.9194
39.1379	12.9194
40.8621	12.9677
42.5862	13.0161
44.3103	13.0161
46.0345	13.0645
47.7586	13.1129
49.3103	13.1129
