Adsorption isotherm of Hydrogen on UiO-67/MCM-41
DOI: 10.1007/s10450-012-9395-1
Adsorbate Hydrogen: InChIKey UFHFLCQGNIYNRP-UHFFFAOYSA-N
Temperature: 298 K
Tabular data in the source: 0
pressure (bar)	uptake (mmol/g)
2.21477	0.04
4.22819	0.08
5.83893	0.11
7.44966	0.135
9.0604	0.165
10.8725	0.195
12.4832	0.22
14.094	0.25
15.906	0.275
17.5168	0.3
19.1275	0.33
20.9396	0.355
22.5503	0.38
24.3624	0.405
26.1745	0.435
27.7852	0.46
29.5973	0.485
31.2081	0.51
33.0201	0.535
34.8322	0.555
36.6443	0.58
38.4564	0.605
40.0671	0.63
41.8792	0.65
43.6913	0.675
45.5034	0.695
47.3154	0.715
49.1275	0.74
50.9396	0.76
52.7517	0.78
54.5638	0.805
56.3758	0.825
58.3893	0.845
60.2013	0.865
