Adsorption isotherm of Hydrogen on USO-2-Ni
DOI: 10.1007/s10450-012-9395-1
Adsorbate Hydrogen: InChIKey UFHFLCQGNIYNRP-UHFFFAOYSA-N
Temperature: 298 K
Tabular data in the source: 0
pressure (bar)	uptake (mmol/g)
1.20805	0.04
2.41611	0.08
3.62416	0.12
4.83221	0.16
6.04027	0.2
7.24832	0.24
8.45638	0.28
9.66443	0.32
11.0738	0.36
12.2819	0.395
13.4899	0.435
14.8993	0.475
16.1074	0.51
17.5168	0.55
18.7248	0.59
19.9329	0.625
21.3423	0.665
22.7517	0.7
24.1611	0.74
25.3691	0.775
26.7785	0.81
28.1879	0.85
29.5973	0.885
30.8054	0.92
32.4161	0.955
33.8255	0.99
35.2349	1.025
36.6443	1.06
38.0537	1.095
39.6644	1.13
41.0738	1.165
42.4832	1.195
44.094	1.23
45.5034	1.26
47.1141	1.295
48.5235	1.325
50.1342	1.36
51.5436	1.39
53.1544	1.42
54.7651	1.45
56.1745	1.48
