Adsorption isotherm of Hydrogen on MCM-41
DOI: 10.1007/s10450-012-9395-1
Adsorbate Hydrogen: InChIKey UFHFLCQGNIYNRP-UHFFFAOYSA-N
Temperature: 318 K
Tabular data in the source: 0
pressure (bar)	uptake (mmol/g)
5.39518	0.0456103
10.7938	0.0844409
13.1891	0.109797
20.5842	0.16891
24.9777	0.211159
29.1748	0.244939
32.3719	0.271967
35.9704	0.298984
39.3682	0.326007
42.7669	0.351334
45.7659	0.373283
49.1671	0.393526
52.1687	0.410391
