Adsorption isotherm of Carbon Dioxide on MCM-41
DOI: 10.1007/s10450-012-9395-1
Adsorbate Carbon Dioxide: InChIKey CURLTUGMZLYLDI-UHFFFAOYSA-N
Temperature: 298 K
Tabular data in the source: 0
pressure (bar)	uptake (mmol/g)
2.06897	1.30645
2.93103	1.69355
3.96552	2.17742
4.82759	2.6129
5.86207	3.09677
7.06897	3.43548
8.10345	3.87097
9.31034	4.30645
10.3448	4.69355
11.7241	5.08065
12.7586	5.41935
14.1379	5.85484
15.5172	6.24194
17.069	6.62903
18.1034	6.96774
19.6552	7.30645
20.8621	7.64516
22.4138	7.98387
23.7931	8.32258
25.3448	8.6129
26.8966	9
28.2759	9.29032
29.6552	9.53226
31.3793	9.87097
32.931	10.1613
34.4828	10.4516
35.8621	10.6452
37.4138	10.9839
39.3103	11.2258
40.5172	11.4194
42.2414	11.7097
43.7931	11.9516
45.6897	12.2903
47.2414	12.4355
49.1379	12.6774
