Adsorption isotherm of Hydrogen on MCM-41
DOI: 10.1007/s10450-012-9395-1
Adsorbate Hydrogen: InChIKey UFHFLCQGNIYNRP-UHFFFAOYSA-N
Temperature: 298 K
Tabular data in the source: 0
pressure (bar)	uptake (mmol/g)
3.19127	0.0387288
4.9897	0.0538681
6.18526	0.0707121
8.7796	0.0993311
10.1792	0.109418
11.3773	0.121199
14.5711	0.154864
17.5677	0.181784
20.5608	0.215455
23.1585	0.237323
26.1568	0.260868
28.9509	0.291169
31.1465	0.314736
33.5444	0.334921
35.7441	0.350049
38.142	0.370235
40.545	0.380294
42.5416	0.400491
44.5415	0.413937
51.7394	0.466055
