Adsorption isotherm of Hydrogen on MCM-41
DOI: 10.1007/s10450-012-9395-1
Adsorbate Hydrogen: InChIKey UFHFLCQGNIYNRP-UHFFFAOYSA-N
Temperature: 343 K
Tabular data in the source: 0
pressure (bar)	uptake (mmol/g)
2.39786	0.0202712
4.00578	0.0151411
6.0023	0.0354237
8.00221	0.0489265
9.00302	0.053983
10.2011	0.0658135
11.4017	0.0725593
13.0028	0.0809886
15.0019	0.0961864
15.8012	0.102943
17.2034	0.107989
18.4065	0.10965
19.0051	0.116412
19.4031	0.123181
20.8078	0.123141
21.8069	0.131587
22.8086	0.134949
23.0058	0.141723
23.8077	0.143395
24.8093	0.146757
25.0074	0.151836
25.4045	0.160299
28.8049	0.182237
32.6007	0.216028
35.8046	0.229497
39.2058	0.24974
42.4055	0.271683
45.8076	0.290231
48.8032	0.31896
51.8031	0.339215
