Adsorption isotherm of Nitrogen on MCM-41
DOI: 10.1016/j.ijhydene.2016.03.050
Article source: Figure 3- N2
Adsorbate Nitrogen: InChIKey IJGRMHOSHXDMSA-UHFFFAOYSA-N
Kind: experiment
Temperature: 77 K
Tabular data in the source: 0
pressure (bar)	uptake (mmol/g)
0.037541	5.7434
0.048717	6.1453
0.07115	6.5489
0.07877	6.7575
0.101183	7.2352
0.102571	7.243
0.118743	7.2676
0.130375	7.6398
0.137609	7.4484
0.151521	7.7025
0.162728	7.9709
0.180723	8.0331
0.196864	8.3616
0.213968	8.3791
0.217099	8.5278
0.231457	8.7375
0.246311	8.7843
0.257112	8.8156
0.271004	9.1142
0.286344	8.9833
0.294846	9.2661
0.301543	9.5191
0.315941	9.5658
0.326733	9.6416
0.338871	9.7472
0.350554	9.8528
0.353685	9.9718
0.358153	10.1355
0.36397	10.3587
0.376118	10.3754
0.381955	10.4801
0.389139	10.5849
0.39762	10.927
0.411562	11.033
0.417287	11.6858
0.423853	12.6647
0.424015	12.6416
0.429152	13.2137
0.430885	13.5696
0.43284	12.755
0.434401	14.0146
0.439771	14.1637
0.440044	15.1821
0.440085	14.8601
0.44046	12.934
0.443246	16.4999
0.446732	15.4241
0.449417	16.8555
0.4642	16.6525
0.472641	17.3127
0.474849	17.3262
0.501538	17.1811
0.50777	17.2008
0.528157	17.3907
0.556517	17.4139
0.563884	17.4524
0.57352	17.4726
0.609267	17.4409
0.618873	17.6478
0.648338	17.7832
0.706185	17.8484
0.743067	17.7795
0.754973	17.8374
0.767405	18.0821
0.83658	18.2237
0.873421	18.3789
0.879694	18.2306
0.927255	18.6675
0.970308	18.9543
0.996339	19.2945
1.00646	19.7628
1.01146	20.3049
