Adsorption isotherm of Nitrogen on PIA
DOI: 10.1021/acs.chemmater.0c03218
Article source: Figure S19
Adsorbate Nitrogen: InChIKey IJGRMHOSHXDMSA-UHFFFAOYSA-N
Kind: experiment
Temperature: 77 K
Tabular data in the source: 0
pressure (bar)	uptake (cm3(STP)/g)
0.044571	26.7273
0.046057	51.8182
0.047543	75.8182
0.050514	99.2727
0.054971	109.091
0.056457	111.818
0.057942	114.545
0.060914	118.364
0.0624	120.545
0.063885	122.727
0.072799	128.727
0.086171	131.455
0.090628	135.818
0.101028	138
0.111428	139.091
0.120342	142.364
0.130742	143.455
0.141142	146.727
0.145599	147.818
0.155999	148.909
0.167885	150.545
0.178284	152.727
0.187199	153.273
0.197599	154.364
0.205027	154.909
0.212456	154.909
0.22137	156.545
0.230284	158.182
0.240684	157.636
0.251084	159.273
0.258512	160.909
0.267427	160.909
0.277827	162
0.297141	164.182
0.323883	165.818
0.347655	165.818
0.368455	166.364
0.39074	168
0.41154	168
0.436797	171.818
0.460568	172.364
0.482854	172.909
0.505139	175.091
0.527425	176.727
0.54971	177.273
0.577939	177.273
0.595767	180
0.62251	181.091
0.646281	183.273
0.667081	183.818
0.690852	186
0.713138	186
0.733938	188.182
0.756223	189.818
0.78148	192.545
0.803766	194.182
0.827537	196.364
0.849823	199.091
0.872108	203.455
0.892908	210
0.912222	218.727
0.927079	229.636
0.938965	243.273
0.947879	260.727
0.953822	280.909
0.050514	126.545
0.056457	134.182
0.066857	146.182
0.075771	151.636
0.083199	153.818
0.092114	157.091
0.102514	159.818
0.112913	160.909
0.120342	162.545
0.130742	164.727
0.13817	166.364
0.161942	169.091
0.185713	171.273
0.21097	173.455
0.234741	176.727
0.254055	177.273
0.277827	178.909
0.298626	178.364
0.325369	180
0.347655	181.636
0.36994	181.636
0.393712	183.818
0.417483	183.818
0.441254	184.909
0.462054	185.455
0.488797	188.727
0.506625	188.727
0.528911	190.364
0.552682	190.364
0.579424	190.364
0.598739	193.091
0.623996	193.091
0.647767	194.182
0.668567	194.727
0.695309	195.273
0.717595	196.364
0.741366	199.091
0.763652	199.636
0.787423	201.818
0.81268	203.455
0.836451	206.727
0.861708	212.182
0.881022	216.545
0.907765	230.182
0.925593	247.636
0.928565	242.727
0.938965	258.545
0.943422	270.545
