Adsorption isotherm of Nitrogen on PIC
DOI: 10.1021/acs.chemmater.0c03218
Article source: Figure S21
Adsorbate Nitrogen: InChIKey IJGRMHOSHXDMSA-UHFFFAOYSA-N
Kind: experiment
Temperature: 77 K
Tabular data in the source: 0
pressure (bar)	uptake (cm3(STP)/g)
0.050303	24.5504
0.05174	49.1007
0.053178	73.0216
0.047429	96.9424
0.048866	130.306
0.056052	155.486
0.054615	159.892
0.057489	164.299
0.058927	167.446
0.061801	169.335
0.061801	171.853
0.06755	175
0.068987	181.295
0.076173	191.367
0.086234	198.291
0.096295	203.327
0.104918	210.252
0.11426	213.714
0.126477	219.694
0.132226	224.101
0.145161	231.655
0.15091	236.061
0.163845	239.209
0.172468	243.615
0.182529	248.022
0.196901	252.428
0.201213	257.464
0.212711	261.871
0.224209	268.165
0.234269	270.054
0.24433	273.831
0.252953	277.608
0.263014	280.126
0.268763	282.644
0.281698	283.273
0.291759	285.791
0.316191	287.68
0.342062	289.568
0.362183	290.198
0.386616	292.716
0.411049	293.975
0.436919	295.234
0.458478	297.122
0.484348	296.493
0.508781	299.64
0.528902	300.27
0.553335	300.899
0.574894	300.899
0.603638	302.158
0.626634	303.417
0.652504	304.047
0.671188	304.676
0.698496	305.306
0.730115	305.935
0.747362	307.824
0.773232	307.824
0.797665	308.453
0.819223	307.824
0.845094	311.601
0.866652	312.23
0.891085	312.23
0.918393	314.119
0.938514	315.378
0.96151	317.896
0.980194	318.525
0.983068	319.784
0.99744	321.673
1.00606	324.82
0.056052	163.669
0.063238	179.406
0.070424	196.403
0.080485	204.586
0.090546	213.399
0.100606	219.694
0.10923	224.73
0.11929	230.396
0.129351	236.691
0.137974	241.097
0.15091	247.392
0.171031	257.464
0.195464	268.795
0.217022	278.867
0.247204	288.939
0.2702	294.604
0.290321	297.752
0.320503	299.64
0.33775	300.899
0.370806	301.529
0.395239	302.158
0.415361	302.788
0.436919	305.306
0.459915	305.306
0.482911	307.824
0.508781	307.824
0.536088	309.083
0.559084	309.083
0.58208	309.712
0.599327	309.712
0.630946	311.601
0.651067	310.342
0.6755	312.86
0.702807	312.86
0.724366	312.23
0.754548	313.489
0.76892	312.86
0.787604	312.86
0.832159	314.748
0.882462	314.119
0.928453	316.007
0.968696	319.155
