Adsorption isotherm of Carbon Dioxide on PID
DOI: 10.1021/acs.chemmater.0c03218
Article source: Figure 6A
Adsorbate Carbon Dioxide: InChIKey CURLTUGMZLYLDI-UHFFFAOYSA-N
Kind: experiment
Temperature: 273 K
Tabular data in the source: 0
pressure (bar)	uptake (cm3(STP)/g)
1.21111	75.4286
1.16667	73.1429
1.03704	68
0.981481	64.8571
0.862963	59.7143
0.788889	56.5714
0.685185	51.7143
0.607407	48.2857
0.514815	43.1429
0.507407	42.5714
0.422222	37.1429
0.340741	33.1429
0.307407	29.4286
0.240741	25.1429
0.177778	20.8571
0.140741	17.1429
0.122222	16.2857
0.114815	14.2857
0.088889	11.7143
0.066667	9.42857
0.055556	8
0.033333	5.42857
0.018519	3.14286
