Adsorption isotherm of Carbon Dioxide on PIC
DOI: 10.1021/acs.chemmater.0c03218
Article source: Figure 6A
Adsorbate Carbon Dioxide: InChIKey CURLTUGMZLYLDI-UHFFFAOYSA-N
Kind: experiment
Temperature: 273 K
Tabular data in the source: 0
pressure (bar)	uptake (cm3(STP)/g)
1.22963	64.2857
1.18518	63.1429
1.04444	58.5714
1.01481	57.7143
0.87037	52
0.833333	51.1429
0.7	45.4286
0.633333	43.4286
0.522222	38.8571
0.444444	35.4286
0.351852	30
0.325926	28.5714
0.248148	24
0.185185	19.4286
0.137037	16.8571
0.125926	15.1429
0.1	13.7143
0.088889	11.4286
0.066667	10.2857
0.055556	8.85714
0.040741	6
0.022222	3.42857
