Adsorption isotherm of Nitrogen on PIB
DOI: 10.1021/acs.chemmater.0c03218
Article source: Figure S20
Adsorbate Nitrogen: InChIKey IJGRMHOSHXDMSA-UHFFFAOYSA-N
Kind: experiment
Temperature: 77 K
Tabular data in the source: 0
pressure (bar)	uptake (cm3(STP)/g)
0.045285	71.6263
0.045285	47.4913
0.045285	21.7993
0.048115	94.2042
0.04953	118.339
0.052361	144.031
0.052361	141.695
0.055191	143.253
0.058021	149.481
0.058021	147.924
0.059436	151.038
0.063682	156.488
0.065097	159.602
0.069343	163.495
0.083494	168.945
0.089155	173.616
0.097646	176.73
0.104721	178.287
0.117458	183.737
0.130194	185.294
0.138685	187.63
0.145761	189.187
0.158497	193.858
0.161328	196.194
0.175479	198.529
0.185385	200.087
0.191046	201.644
0.199537	205.536
0.212273	206.315
0.219349	209.429
0.232085	210.986
0.240576	210.986
0.247652	213.322
0.256143	212.543
0.267464	215.657
0.27737	216.436
0.295767	217.993
0.315579	221.107
0.346713	225
0.369355	228.893
0.389167	231.228
0.408979	234.343
0.434452	234.343
0.457095	237.457
0.479737	239.792
0.50521	243.685
0.525022	245.242
0.55474	249.135
0.567477	252.249
0.597195	253.806
0.632574	260.813
0.646725	260.813
0.663707	263.149
0.68918	267.82
0.708992	269.377
0.734465	274.827
0.755692	278.72
0.778334	279.498
0.800977	286.505
0.825035	289.619
0.846262	294.291
0.861829	301.298
0.891547	312.197
0.909944	326.211
0.926926	344.118
0.935417	365.917
0.945323	384.602
0.950983	410.294
0.953814	429.758
0.069343	217.993
0.089155	234.343
0.118873	245.242
0.138685	251.471
0.165573	256.92
0.1868	262.37
0.212273	267.042
0.234916	270.156
0.257558	272.491
0.283031	274.048
0.3269	277.941
0.376431	280.277
0.41464	283.391
0.472661	287.284
0.513701	289.619
0.556155	291.176
0.605686	294.291
0.652386	296.626
0.693425	301.298
0.714653	302.855
0.737295	303.633
0.761353	305.969
0.793901	308.305
0.819374	316.09
0.861829	328.547
0.887301	339.446
0.912774	360.467
0.928341	386.938
0.939662	393.945
0.945323	403.287
