Adsorption isotherm of Carbon Dioxide on PIA
DOI: 10.1021/acs.chemmater.0c03218
Article source: Figure 6A
Adsorbate Carbon Dioxide: InChIKey CURLTUGMZLYLDI-UHFFFAOYSA-N
Kind: experiment
Temperature: 273 K
Tabular data in the source: 0
pressure (bar)	uptake (cm3(STP)/g)
1.23333	56.5714
1.04074	52.8571
0.885185	48.8571
0.859259	48
0.696296	42.5714
0.674074	42
0.514815	36.8571
0.462963	34.5714
0.351852	29.1429
0.255556	24.5714
0.177778	19.4286
0.085185	12.8571
0.066667	10.5714
0.040741	8.28571
0.033333	5.42857
0.022222	3.42857
0.103704	13.7143
0.12963	15.1429
0.148148	17.7143
