Adsorption isotherm of Nitrogen on PID
DOI: 10.1021/acs.chemmater.0c03218
Article source: Figure S22
Adsorbate Nitrogen: InChIKey IJGRMHOSHXDMSA-UHFFFAOYSA-N
Kind: experiment
Temperature: 77 K
Tabular data in the source: 0
pressure (bar)	uptake (cm3(STP)/g)
0.048728	28.757
0.048728	53.8033
0.050161	78.8497
0.053027	108.534
0.048728	134.508
0.051594	161.41
0.05446	184.601
0.05446	209.647
0.05446	219.852
0.05446	223.562
0.061626	228.2
0.064493	231.911
0.067359	237.477
0.070225	243.97
0.078824	259.74
0.08599	269.944
0.097455	280.148
0.108921	290.353
0.114653	301.484
0.124686	311.688
0.134718	319.109
0.14475	326.531
0.153349	333.952
0.163381	340.445
0.170547	348.794
0.184879	355.288
0.190611	358.998
0.200644	367.347
0.210676	372.913
0.225007	374.768
0.236473	381.262
0.242205	382.189
0.249371	382.189
0.259403	384.972
0.266569	385.9
0.282334	386.827
0.2895	386.827
0.310998	387.755
0.338228	394.249
0.364025	397.032
0.389822	397.032
0.40702	400.742
0.432817	400.742
0.462913	404.453
0.481545	407.236
0.503042	408.163
0.528839	410.019
0.553203	412.801
0.579	413.729
0.601931	416.512
0.624861	417.44
0.647792	418.367
0.672156	423.933
0.699386	423.933
0.71945	425.788
0.748114	426.716
0.775344	428.571
0.795408	430.427
0.824072	433.21
0.839837	437.848
0.865634	437.848
0.891431	444.341
0.917228	447.124
0.932993	450.835
0.961656	461.039
0.975988	471.243
0.990319	477.737
0.991752	490.724
1.00465	504.638
0.05446	216.141
0.057327	233.766
0.05876	239.332
0.067359	260.668
0.077391	277.365
0.088856	291.28
0.101755	303.34
0.106054	316.327
0.120386	326.531
0.127552	333.952
0.136151	344.156
0.154782	356.215
0.17628	374.768
0.204943	392.393
0.219275	399.814
0.246505	404.453
0.263703	409.091
0.2938	409.091
0.32103	411.874
0.338228	415.584
0.365458	417.44
0.389822	420.223
0.414186	421.15
0.43855	422.078
0.458614	424.861
0.503042	428.571
0.482978	425.788
0.527406	429.499
0.55177	431.354
0.580433	431.354
0.60623	431.354
0.627728	435.065
0.650658	436.92
0.676455	435.993
0.699386	438.776
0.720884	438.776
0.738082	440.631
0.786809	443.414
0.83697	448.052
0.888564	450.835
0.917228	456.401
0.960223	470.315
0.983153	487.013
