Adsorption isotherm of Carbon Dioxide on PIB
DOI: 10.1021/acs.chemmater.0c03218
Article source: Figure 6A
Adsorbate Carbon Dioxide: InChIKey CURLTUGMZLYLDI-UHFFFAOYSA-N
Kind: experiment
Temperature: 273 K
Tabular data in the source: 0
pressure (bar)	uptake (cm3(STP)/g)
1.21111	70.2857
1.05185	65.7143
1.02593	64.8571
0.833333	59.1429
0.692593	54.2857
0.662963	52.8571
0.540741	47.7143
0.462963	44.2857
0.362963	38.8571
0.303704	36.2857
0.237037	30.8571
0.177778	26
0.137037	23.1429
0.125926	20.2857
0.111111	18.8571
0.085185	16.5714
0.074074	13.7143
0.055556	12
0.033333	8.57143
0.014815	4.85714
