Adsorption isotherm of Methane on gea-MOF-1
DOI: 10.1038/Nchem.1982
Adsorbate Methane: InChIKey VNWKTOKETHGBQD-UHFFFAOYSA-N
Temperature: 298 K
Tabular data in the source: 0
pressure (bar)	uptake (mmol/g)
0.185197	0.136808
0.393478	0.250814
0.67116	0.387622
0.983525	0.52443
1.36533	0.70684
1.87434	0.912052
3.85246	1.6645
