Adsorption isotherm of N-Butane on gea-MOF-1
DOI: 10.1038/Nchem.1982
Adsorbate N-Butane: InChIKey IJDNQMDRQITEOD-UHFFFAOYSA-N
Temperature: 298 K
Tabular data in the source: 0
pressure (bar)	uptake (mmol/g)
0.0625859	2.89577
0.262093	4.69707
0.470599	4.94788
0.67888	5.06189
0.944889	5.13029
1.31498	5.2215
1.7776	5.3355
