Adsorption isotherm of N-propane on gea-MOF-1
DOI: 10.1038/Nchem.1982
Adsorbate N-propane: InChIKey ATUOYWHBWRKTHZ-UHFFFAOYSA-N
Temperature: 298 K
Tabular data in the source: 0
pressure (bar)	uptake (mmol/g)
0.0614562	2.21173
0.27354	4.62866
0.459641	5.3127
0.668185	5.58632
0.96914	5.81433
1.3741	6.01954
1.85988	6.15635
2.36877	6.29316
2.866	6.36156
3.35166	6.42997
3.84884	6.47557
