Adsorption isotherm of Carbon Dioxide on gea-MOF-1
DOI: 10.1038/Nchem.1982
Adsorbate Carbon Dioxide: InChIKey CURLTUGMZLYLDI-UHFFFAOYSA-N
Temperature: 298 K
Tabular data in the source: 0
pressure (bar)	uptake (mmol/g)
0.0579164	0.0684039
0.266423	0.319218
0.463369	0.570033
0.671838	0.798046
0.973019	1.16287
1.35524	1.59609
1.86477	2.12052
3.85649	4.10423
