Adsorption isotherm of Ethane on gea-MOF-1
DOI: 10.1038/Nchem.1982
Adsorbate Ethane: InChIKey OTMSDBZUPAUEDD-UHFFFAOYSA-N
Temperature: 298 K
Tabular data in the source: 0
pressure (bar)	uptake (mmol/g)
0.0584813	0.410423
0.256519	1.32248
0.465742	2.00651
0.651729	2.62215
0.965035	3.32899
1.35938	4.10423
1.86925	4.83388
2.37883	5.38111
2.86506	5.79153
3.36269	6.11075
