Adsorption isotherm of Carbon Dioxide on SNIFSIX-1-Cu
DOI: 10.1039/C3cc37695h
Adsorbate Carbon Dioxide: InChIKey CURLTUGMZLYLDI-UHFFFAOYSA-N
Temperature: 298 K
Tabular data in the source: 0
pressure (bar)	uptake (cm3(STP)/g)
0.0243521	2.70344
0.0986317	11.1152
0.222431	26.4967
0.415558	45.0026
0.616113	63.0278
0.754768	75.5253
0.940467	88.0228
1.08903	97.6362
