Adsorption isotherm of Methane on TIFSIX-1-Cu
DOI: 10.1039/C3cc37695h
Adsorbate Methane: InChIKey VNWKTOKETHGBQD-UHFFFAOYSA-N
Temperature: 298 K
Tabular data in the source: 0
pressure (bar)	uptake (cm3(STP)/g)
0.0912038	11.2365
0.296711	13.0717
0.539357	15.6936
0.791908	18.8398
1.07665	21.986
