Adsorption isotherm of Nitrogen on TIFSIX-1-Cu
DOI: 10.1039/C3cc37695h
Adsorbate Nitrogen: InChIKey IJGRMHOSHXDMSA-UHFFFAOYSA-N
Temperature: 298 K
Tabular data in the source: 0
pressure (bar)	uptake (cm3(STP)/g)
0.0912038	9.40116
0.375942	10.7121
0.591353	12.023
0.898375	13.3339
1.07912	13.8583
