Adsorption isotherm of Methane on SNIFSIX-1-Cu
DOI: 10.1039/C3cc37695h
Adsorbate Methane: InChIKey VNWKTOKETHGBQD-UHFFFAOYSA-N
Temperature: 298 K
Tabular data in the source: 0
pressure (bar)	uptake (cm3(STP)/g)
0.0317801	0.780753
0.271951	3.42445
0.522025	5.58748
0.767148	7.7505
1.09398	11.5959
