Adsorption isotherm of Carbon Dioxide on TIFSIX-1-Cu
DOI: 10.1039/C3cc37695h
Adsorbate Carbon Dioxide: InChIKey CURLTUGMZLYLDI-UHFFFAOYSA-N
Temperature: 298 K
Tabular data in the source: 0
pressure (bar)	uptake (cm3(STP)/g)
0.05654	15.6936
0.0986317	21.1995
0.150627	28.0163
0.254619	40.6012
0.366038	53.186
0.49479	65.7709
0.630969	77.8314
0.732484	87.0079
0.876092	96.9709
0.970179	104.574
1.07665	110.867
