Adsorption isotherm of Nitrogen on SNIFSIX-1-Cu
DOI: 10.1039/C3cc37695h
Adsorbate Nitrogen: InChIKey IJGRMHOSHXDMSA-UHFFFAOYSA-N
Temperature: 298 K
Tabular data in the source: 0
pressure (bar)	uptake (cm3(STP)/g)
0.0342561	0.30008
0.39575	2.22277
0.742388	3.90512
1.08903	5.82781
