Adsorption isotherm of Nitrogen on CoC24O4N2H16
DOI: 10.1021/Ic301857h
Adsorbate Nitrogen: InChIKey IJGRMHOSHXDMSA-UHFFFAOYSA-N
Temperature: 77 K
Tabular data in the source: 0
pressure (bar)	uptake (cm3(STP)/g)
0.00837971	0.599265
0.0149343	2.78414
0.0389679	3.30851
0.121993	4.00767
0.231237	4.26985
0.381993	4.88162
0.469388	5.1438
0.580817	5.75557
0.668212	6.19254
0.768716	6.80431
0.832077	8.20263
0.86922	10.1253
0.910733	15.0194
0.952245	27.5169
0.9588	29.4396
0.978464	32.4984
0.998128	34.8581
