Adsorption isotherm of Methanol on CoC24O4N2H16(4.5H2O)
DOI: 10.1021/Ic301857h
Adsorbate Methanol: InChIKey OKKJLVBELUTLKV-UHFFFAOYSA-N
Temperature: 298 K
Tabular data in the source: 0
pressure (bar)	uptake (mmol/g)
0.00112952	0.0487029
0.0102591	0.781724
0.0170327	1.07152
0.0208613	1.10562
0.0302854	1.41246
0.0420655	1.73636
0.0500171	1.92387
0.0650368	2.23072
0.085063	2.74213
0.0997882	3.23649
0.119225	4.00361
0.129239	4.65139
0.139546	5.28213
0.148676	6.93569
