Adsorption isotherm of Carbon Dioxide on CoC24O4N2H16(4.5H2O)
DOI: 10.1021/Ic301857h
Adsorbate Carbon Dioxide: InChIKey CURLTUGMZLYLDI-UHFFFAOYSA-N
Temperature: 195 K
Tabular data in the source: 0
pressure (bar)	uptake (cm3(STP)/g)
0.00184882	0.93632
0.00627537	15.3565
0.0217683	21.5834
0.0616073	25.8439
0.10366	28.7935
0.298428	36.0035
0.34048	37.6422
0.448931	39.6086
0.541888	41.2472
0.643699	42.8859
0.718951	43.2136
0.918146	45.5077
