Adsorption isotherm of Carbon Dioxide on CoC24O4N2H16
DOI: 10.1021/Ic301857h
Adsorbate Carbon Dioxide: InChIKey CURLTUGMZLYLDI-UHFFFAOYSA-N
Temperature: 195 K
Tabular data in the source: 0
pressure (bar)	uptake (cm3(STP)/g)
0.00184882	0.93632
0.0129152	75.3313
0.0173418	85.1632
0.0328347	93.6842
0.0416878	97.617
0.0726737	104.499
0.099233	108.104
0.145712	112.037
0.216537	115.97
0.324987	120.558
0.431225	123.508
0.612713	127.113
0.714524	128.424
0.809695	130.062
0.926999	131.046
0.982331	131.701
