Adsorption isotherm of Cyclohexane on CoC24O4N2H16(4.5H2O)
DOI: 10.1021/Ic301857h
Adsorbate Cyclohexane: InChIKey XDTMQSROBMDMFD-UHFFFAOYSA-N
Temperature: 298 K
Tabular data in the source: 0
pressure (bar)	uptake (mmol/g)
0.000505	0.00444962
0.000505	0.227715
0.00160656	0.404251
0.00766351	0.544441
0.015097	0.627516
0.0225306	0.663862
0.0305147	0.695015
0.0379483	0.731361
0.0519894	0.778091
0.073464	0.840397
0.0888817	0.866358
0.0957646	0.902704
0.103198	0.944242
0.109255	1.02213
