Adsorption isotherm of Methane on CoC24O4N2H16(4.5H2O)
DOI: 10.1021/Ic301857h
Adsorbate Methane: InChIKey VNWKTOKETHGBQD-UHFFFAOYSA-N
Temperature: 298 K
Tabular data in the source: 0
pressure (bar)	uptake (cm3(STP)/g)
0.522702	0.374478
5.7227	2.55935
10.0051	3.87028
12.2992	5.1812
16.5815	4.74423
21.1698	3.4333
27.6698	2.12238
33.9403	1.24843
