Adsorption isotherm of Hydrogen on CoC24O4N2H16
DOI: 10.1021/Ic301857h
Adsorbate Hydrogen: InChIKey UFHFLCQGNIYNRP-UHFFFAOYSA-N
Temperature: 77 K
Tabular data in the source: 0
pressure (bar)	uptake (cm3(STP)/g)
0.216819	7.36607
0.29329	37.0804
0.369761	64.6098
0.446231	103.501
0.522702	87.7694
0.599172	118.795
0.752113	128.845
1.13447	145.013
2.20505	162.929
3.58153	176.038
6.48741	193.08
10.4639	204.879
14.5168	209.248
18.2639	210.559
21.858	207.501
25.3756	200.946
