Adsorption isotherm of Methanol on CoC24O4N2H16
DOI: 10.1021/Ic301857h
Adsorbate Methanol: InChIKey OKKJLVBELUTLKV-UHFFFAOYSA-N
Temperature: 298 K
Tabular data in the source: 0
pressure (bar)	uptake (mmol/g)
0.000540511	0.116891
0.00201303	1.41246
0.00554707	3.50925
0.0076086	4.73663
0.0102591	5.11166
0.0149712	5.4526
0.0205668	5.52079
0.0305799	5.7424
0.0656258	6.23677
0.0853575	6.39019
0.0997882	6.54361
0.11952	6.9016
0.14043	7.17435
0.148676	7.27663
