Adsorption isotherm of Nitrogen on CoC24O4N2H16
DOI: 10.1021/Ic301857h
Adsorbate Nitrogen: InChIKey IJGRMHOSHXDMSA-UHFFFAOYSA-N
Temperature: 77 K
Tabular data in the source: 0
pressure (bar)	uptake (cm3(STP)/g)
0.00837971	0.68666
0.0258587	2.78414
0.0804806	3.30851
0.198464	3.4833
0.34485	3.57069
0.489052	4.18246
0.652918	4.70683
0.805859	5.1438
0.867035	5.75557
0.917287	6.71691
