Adsorption isotherm of Hydrogen on CoC24O4N2H16(4.5H2O)
DOI: 10.1021/Ic301857h
Adsorbate Hydrogen: InChIKey UFHFLCQGNIYNRP-UHFFFAOYSA-N
Temperature: 77 K
Tabular data in the source: 0
pressure (bar)	uptake (cm3(STP)/g)
0.599172	2.99633
2.89329	9.11397
8.01682	20.9123
15.5109	32.7106
24.0756	47.5678
31.1874	56.3073
35.5462	59.8031
