Adsorption isotherm of Methane on CoC24O4N2H16
DOI: 10.1021/Ic301857h
Adsorbate Methane: InChIKey VNWKTOKETHGBQD-UHFFFAOYSA-N
Temperature: 298 K
Tabular data in the source: 0
pressure (bar)	uptake (cm3(STP)/g)
0.369761	2.99633
1.058	13.4837
2.43447	26.593
3.81094	38.8283
5.64623	48.4417
8.78153	63.2988
13.6756	76.4081
17.4992	84.2736
24.458	90.8283
34.858	96.072
