Adsorption isotherm of Methanol on [La-(pyzdc)1.5(H2O)] 0.5 H2O
DOI: 10.1002/chem.201403241
Adsorbate Methanol: InChIKey OKKJLVBELUTLKV-UHFFFAOYSA-N
Temperature: 473 K
Tabular data in the source: 0
pressure (bar)	uptake (mmol/g)
2.80538	0.00687961
5.53062	0.0137592
8.41614	0.0137592
10.8207	0.0206388
13.546	0.0206388
15.9506	0.0240786
18.1147	0.0309582
20.2789	0.0378378
22.5232	0.0447174
24.527	0.0550369
26.9317	0.0309582
29.737	0.0137592
31.821	0.0309582
34.3058	0.0206388
36.4699	0.0309582
38.6341	0.0550369
