Adsorption isotherm of Water on [La-(pyzdc)1.5(H2O)] 0.5 H2O
DOI: 10.1002/chem.201403241
Adsorbate Water: InChIKey XLYOFNOQVPJJNP-UHFFFAOYSA-N
Temperature: 473 K
Tabular data in the source: 0
pressure (bar)	uptake (mmol/g)
0.866323	0.0825553
1.51607	0.17543
2.2277	0.247666
2.93932	0.323342
3.71282	0.392138
4.48631	0.454054
5.25981	0.51941
6.18803	0.571007
7.02341	0.629484
7.88973	0.677641
9.31297	0.725799
10.6743	0.828993
12.2832	0.918428
13.7374	0.994103
15.0988	1.0801
