Adsorption isotherm of Nitrogen on CuBTC
DOI: 10.1039/C2jm31536j
Adsorbate Nitrogen: InChIKey IJGRMHOSHXDMSA-UHFFFAOYSA-N
Temperature: 77 K
Tabular data in the source: 0
pressure (bar)	uptake (cm3(STP)/g)
0.00118672	272.393
0.00125338	253.988
0.00148673	189.571
0.00350681	231.902
0.00549356	283.436
0.0141339	298.16
0.0358415	305.521
0.0553889	309.202
0.0771098	312.883
0.0966573	316.564
0.118392	316.564
0.140119	318.405
0.159673	320.245
0.181407	320.245
0.200962	322.086
0.220516	323.926
0.24225	323.926
0.263984	323.926
0.285712	325.767
0.305273	325.767
0.324827	327.607
0.346561	327.607
0.368295	327.607
0.390029	327.607
0.409584	329.448
0.429144	329.448
0.450879	329.448
0.472606	331.288
0.487827	329.448
0.511728	331.288
0.531289	331.288
0.55955	329.448
0.607358	331.288
0.657354	329.448
0.685608	329.448
0.722543	333.129
0.744284	331.288
0.766018	331.288
0.785579	331.288
0.829034	334.969
0.857289	334.969
0.874669	336.81
0.894223	338.65
0.913784	338.65
0.933338	340.491
0.942012	346.012
