Adsorption isotherm of Nitrogen on CuBTC
DOI: 10.1039/C2jm31536j
Adsorbate Nitrogen: InChIKey IJGRMHOSHXDMSA-UHFFFAOYSA-N
Temperature: 77 K
Tabular data in the source: 0
pressure (bar)	uptake (cm3(STP)/g)
0.000700029	406.748
0.015874	417.791
0.0332214	428.834
0.0527555	436.196
0.0701229	441.718
0.0918438	445.399
0.111391	449.08
0.130932	454.601
0.150486	456.442
0.172207	460.123
0.191761	461.963
0.213489	463.804
0.233036	467.485
0.254777	465.644
0.274325	469.325
0.296052	471.166
0.315606	473.006
0.337334	474.847
0.356888	476.687
0.378622	476.687
0.40035	478.528
0.422077	480.368
0.441638	480.368
0.454679	480.368
0.476413	480.368
0.493794	482.209
0.515528	482.209
0.537255	484.049
0.558983	485.89
0.580717	485.89
0.589404	487.73
0.611138	487.73
0.64156	489.571
0.663287	491.411
0.687195	491.411
0.708916	495.092
0.732817	496.933
0.754544	498.773
0.774099	500.613
0.793646	504.294
0.81538	504.294
0.837108	506.135
0.858835	507.975
0.878383	511.656
0.897944	511.656
0.919665	515.337
0.937032	520.859
0.954379	531.902
