Adsorption isotherm of Water on Cu6(Trz)10(H2O)4[H2SiW12O40]Â·8H2O
DOI: 10.1002/chem.201501515
Article source: Figure  3
Adsorbate Water: InChIKey XLYOFNOQVPJJNP-UHFFFAOYSA-N
Kind: experiment
Temperature: 298 K
Tabular data in the source: 0
pressure (bar)	uptake (cm3(STP)/g)
0.001524	3.558
0.003112	8.824
0.004625	16.233
0.006222	29.145
0.007774	40.153
0.009352	47.464
0.010929	52.184
0.012728	55.07
0.014118	58.711
0.015747	61.051
0.017497	63.628
0.018853	66.037
0.020418	68.979
0.021921	72.495
0.023692	76.935
0.025113	82.523
0.02665	99.497
0.028305	118.473
