Adsorption isotherm of Methanol on Cu6(Trz)10(H2O)4[H2SiW12O40]Â·8H2O
DOI: 10.1002/chem.201501515
Article source: Figure  3
Adsorbate Methanol: InChIKey OKKJLVBELUTLKV-UHFFFAOYSA-N
Kind: experiment
Temperature: 298 K
Tabular data in the source: 0
pressure (bar)	uptake (cm3(STP)/g)
0.00835	0.844
0.017029	0.763
0.025145	0.893
0.033701	1.022
0.042877	0.984
0.051255	1.057
0.059619	1.075
0.068105	1.036
0.07589	1.124
0.084873	1.211
0.093195	1.215
0.101352	1.302
0.110004	1.264
0.118299	1.407
0.126743	1.313
0.135107	1.47
0.143388	1.446
0.152205	1.463
