Adsorption isotherm of Nitrogen on Carbon
DOI: 10.1016/j.ijhydene.2011.11.023
Adsorbate Nitrogen: InChIKey IJGRMHOSHXDMSA-UHFFFAOYSA-N
Temperature: 77 K
Tabular data in the source: 0
pressure (bar)	uptake (cm3(STP)/g)
0.00981141	452.759
0.0526096	586.262
0.099901	680.165
0.148689	761.694
0.249271	890.105
0.357328	964.064
0.45211	991.046
0.594308	1010.49
0.698003	1017.65
0.887603	1041.93
0.997214	1056.5
