Adsorption isotherm of Hydrogen on Carbon
DOI: 10.1016/j.ijhydene.2011.11.023
Adsorbate Hydrogen: InChIKey UFHFLCQGNIYNRP-UHFFFAOYSA-N
Temperature: 298 K
Tabular data in the source: 0
pressure (bar)	uptake (wt%)
9.23788	0.118295
30.485	0.347188
59.1224	0.568297
90.0693	0.758788
118.245	0.8729
153.349	1.00217
177.829	1.10488
195.381	1.16952
