Adsorption isotherm of Nitrogen on Carbon
DOI: 10.1016/j.ijhydene.2011.11.023
Adsorbate Nitrogen: InChIKey IJGRMHOSHXDMSA-UHFFFAOYSA-N
Temperature: 77 K
Tabular data in the source: 0
pressure (bar)	uptake (cm3(STP)/g)
0.00880637	429.072
0.024151	547.934
0.0532762	620.638
0.12562	752.89
0.175885	805.861
0.309279	878.909
0.408996	899.04
0.50391	912.554
0.603502	919.484
0.719651	923.167
0.821612	930.104
0.923543	933.741
0.973276	930.605
1.00664	950.517
