Adsorption isotherm of Carbon Dioxide on IRMOF-1
DOI: 10.1016/j.ijhydene.2011.11.023
Adsorbate Carbon Dioxide: InChIKey CURLTUGMZLYLDI-UHFFFAOYSA-N
Temperature: 298 K
Tabular data in the source: 0
pressure (bar)	uptake (wt%)
2.09476	5.06706
3.99002	12.2341
5.88529	19.8216
7.78055	27.8295
10.0748	38.3641
14.8628	62.3784
19.6509	77.9843
24.9377	85.187
30.1247	90.2866
40	93.3333
