Adsorption isotherm of Hydrogen on Carbon
DOI: 10.1016/j.ijhydene.2011.11.023
Adsorbate Hydrogen: InChIKey UFHFLCQGNIYNRP-UHFFFAOYSA-N
Temperature: 77 K
Tabular data in the source: 0
pressure (bar)	uptake (wt%)
0.000388056	0.130161
0.0225073	0.549316
0.0760591	1.01148
0.164435	1.48769
0.273422	1.87687
0.34011	2.07855
0.476792	2.42401
0.613129	2.65377
0.742381	2.84023
0.875067	3.01218
1.00767	3.15521
1.15062	3.26919
