Adsorption isotherm of Hydrogen on Carbon
DOI: 10.1016/j.ijhydene.2011.11.023
Adsorbate Hydrogen: InChIKey UFHFLCQGNIYNRP-UHFFFAOYSA-N
Temperature: 298 K
Tabular data in the source: 0
pressure (bar)	uptake (g/l)
19.0246	0.697031
30.3401	1.01669
39.3918	1.26372
58.8455	1.71441
79.1983	2.12168
99.5511	2.52895
118.092	2.86363
138.439	3.21293
160.138	3.53334
180.02	3.72319
194.933	3.88369
