Adsorption isotherm of Hydrogen on IRMOF-1
DOI: 10.1016/j.ijhydene.2011.11.023
Adsorbate Hydrogen: InChIKey UFHFLCQGNIYNRP-UHFFFAOYSA-N
Temperature: 77 K
Tabular data in the source: 0
pressure (bar)	uptake (wt%)
0.364349	0.581819
1.0821	1.1873
2.03607	1.83958
3.81678	2.6556
5.47254	3.09939
7.48216	3.5901
10.6674	4.03566
12.9082	4.31734
15.9721	4.57671
19.8595	4.83705
25.1565	4.98274
33.9844	5.20231
