Adsorption isotherm of Nitrogen on Carbon
DOI: 10.1016/j.ijhydene.2011.11.023
Adsorbate Nitrogen: InChIKey IJGRMHOSHXDMSA-UHFFFAOYSA-N
Temperature: 77 K
Tabular data in the source: 0
pressure (bar)	uptake (cm3(STP)/g)
6.6e-05	137.342
0.000325154	301.266
0.000949667	363.291
0.00256884	420.886
0.0042783	445.253
0.00740986	471.835
0.0100192	491.772
0.0196934	536.076
