Adsorption isotherm of Nitrogen on IRMOF-1
DOI: 10.1016/j.ijhydene.2011.11.023
Adsorbate Nitrogen: InChIKey IJGRMHOSHXDMSA-UHFFFAOYSA-N
Temperature: 77 K
Tabular data in the source: 0
pressure (bar)	uptake (cm3(STP)/g)
0.00529548	204.7
0.00786418	280.113
0.0108755	506.368
0.0158469	600.631
0.0512397	662.488
0.138204	699.964
0.316686	726.42
0.429392	736.891
0.51627	744.737
0.614892	755.246
0.823826	760.071
0.915391	765.211
0.964702	770.465
1.00234	797.3
