Adsorption isotherm of Hydrogen on IRMOF-1
DOI: 10.1016/j.ijhydene.2011.11.023
Adsorbate Hydrogen: InChIKey UFHFLCQGNIYNRP-UHFFFAOYSA-N
Temperature: 77 K
Tabular data in the source: 0
pressure (bar)	uptake (g/l)
0.369231	1.77043
2.09231	5.58366
4.06154	8.98833
5.53846	11.0311
9.96923	13.4825
14.8923	15.1167
19.8154	15.9339
24.8615	16.3424
29.6615	16.6148
39.8769	16.3424
