Adsorption isotherm of Hydrogen on IRMOF-1
DOI: 10.1016/j.ijhydene.2011.11.023
Adsorbate Hydrogen: InChIKey UFHFLCQGNIYNRP-UHFFFAOYSA-N
Temperature: 298 K
Tabular data in the source: 0
pressure (bar)	uptake (wt%)
6.00462	0.0457451
22.6328	0.171542
36.4896	0.259175
52.6559	0.354408
66.0508	0.422942
88.6836	0.518051
113.164	0.613124
145.035	0.708057
158.43	0.734552
172.286	0.776326
