Adsorption isotherm of Hydrogen on IRMOF-1
DOI: 10.1016/j.ijhydene.2011.11.023
Adsorbate Hydrogen: InChIKey UFHFLCQGNIYNRP-UHFFFAOYSA-N
Temperature: 298 K
Tabular data in the source: 0
pressure (bar)	uptake (wt%)
9.69977	0.0571395
29.0993	0.167597
39.261	0.236192
57.2748	0.33139
81.2933	0.44558
97.9215	0.533161
139.492	0.685233
161.663	0.745955
179.215	0.795302
195.381	0.859961
