Adsorption isotherm of Hydrogen on IRMOF-1
DOI: 10.1016/j.ijhydene.2011.11.023
Adsorbate Hydrogen: InChIKey UFHFLCQGNIYNRP-UHFFFAOYSA-N
Temperature: 77 K
Tabular data in the source: 0
pressure (bar)	uptake (wt%)
0.0211275	0.0865222
0.136682	0.34546
0.276411	0.546255
0.402185	0.732756
0.485962	0.832986
0.534785	0.875786
0.601171	0.976226
0.667428	1.03328
0.803421	1.14734
0.932543	1.29041
1.00915	1.31842
