Adsorption isotherm of Hydrogen on IRMOF-1
DOI: 10.1016/j.ijhydene.2011.11.023
Adsorbate Hydrogen: InChIKey UFHFLCQGNIYNRP-UHFFFAOYSA-N
Temperature: 77 K
Tabular data in the source: 0
pressure (bar)	uptake (g/l)
0.0152142	0.221344
0.0534014	0.498024
0.133609	1.05138
0.240685	1.54941
0.332546	1.82609
0.462625	2.32411
0.600432	2.71146
0.730541	3.15415
0.86071	3.48617
0.998639	3.65217
1.06369	3.87352
1.13261	4.03953
