Adsorption isotherm of Hydrogen on Carbon
DOI: 10.1016/j.ijhydene.2011.11.023
Adsorbate Hydrogen: InChIKey UFHFLCQGNIYNRP-UHFFFAOYSA-N
Temperature: 77 K
Tabular data in the source: 0
pressure (bar)	uptake (wt%)
0.0292048	0.462458
0.0474148	0.737032
0.0862779	0.939043
0.157177	1.38654
0.273163	1.7901
0.332895	1.99186
0.480098	2.36611
0.612957	2.59592
0.738773	2.79688
0.808681	2.91174
1.14022	3.28378
