Adsorption isotherm of Carbon Dioxide on Carbon
DOI: 10.1016/j.ijhydene.2011.11.023
Adsorbate Carbon Dioxide: InChIKey CURLTUGMZLYLDI-UHFFFAOYSA-N
Temperature: 298 K
Tabular data in the source: 0
pressure (bar)	uptake (g/l)
1.29872	11.7766
3.89647	37.2715
5.89571	62.7083
7.89463	86.2034
9.89452	115.524
15.0945	193.698
20.0893	236.902
24.9807	258.736
29.9699	268.929
40.0475	285.442
