Adsorption isotherm of Hydrogen on IRMOF-1
DOI: 10.1016/j.ijhydene.2011.11.023
Adsorbate Hydrogen: InChIKey UFHFLCQGNIYNRP-UHFFFAOYSA-N
Temperature: 77 K
Tabular data in the source: 0
pressure (bar)	uptake (g/l)
0.246154	3.1323
0.984615	7.76265
1.96923	11.5759
3.93846	17.4319
6.03077	20.8366
9.96923	26.1479
15.1385	29.4163
20.1846	31.0506
24.9846	31.5953
30.0308	32.0039
39.5077	31.5953
