Adsorption isotherm of Hydrogen on Carbon
DOI: 10.1016/j.ijhydene.2011.11.023
Adsorbate Hydrogen: InChIKey UFHFLCQGNIYNRP-UHFFFAOYSA-N
Temperature: 298 K
Tabular data in the source: 0
pressure (bar)	uptake (g/l)
10.4244	0.450031
29.466	1.33547
58.8874	2.17818
92.359	2.87626
115.425	3.3272
151.135	3.82255
178.713	4.24483
194.086	4.50682
