Adsorption isotherm of Hydrogen on IRMOF-1
DOI: 10.1016/j.ijhydene.2011.11.023
Adsorbate Hydrogen: InChIKey UFHFLCQGNIYNRP-UHFFFAOYSA-N
Temperature: 298 K
Tabular data in the source: 0
pressure (bar)	uptake (g/l)
2.71929	0.116139
17.2252	0.769364
32.6328	1.40816
49.3895	1.98909
67.9456	2.49768
83.7903	2.97709
103.243	3.41328
120.433	3.79134
139.876	4.12608
151.632	4.32983
174.235	4.65031
