Adsorption isotherm of Nitrogen on IRMOF-1-P3
DOI: 10.1016/j.ijhydene.2011.11.023
Adsorbate Nitrogen: InChIKey IJGRMHOSHXDMSA-UHFFFAOYSA-N
Temperature: 77 K
Tabular data in the source: 0
pressure (bar)	uptake (cm3(STP)/g)
0.0602833	16.991
0.094862	20.3507
0.160927	20.2377
0.21805	25.2683
0.312642	25.1066
0.41035	33.4866
0.507945	33.3198
0.611547	33.1427
0.706161	34.6903
0.812766	34.5081
0.908882	36.0532
0.994488	37.6163
