Adsorption isotherm of Nitrogen on IRMOF-1
DOI: 10.1016/j.ijhydene.2011.11.023
Adsorbate Nitrogen: InChIKey IJGRMHOSHXDMSA-UHFFFAOYSA-N
Temperature: 77 K
Tabular data in the source: 0
pressure (bar)	uptake (cm3(STP)/g)
-0.00218204	19.7948
0.00424677	198.034
0.00628021	412.562
0.0196618	574.322
0.0584849	670.16
0.220034	713.597
0.371979	743.802
0.493024	764.003
0.587813	764.316
0.722857	761.462
0.822449	768.391
0.903177	785.159
0.964759	782.062
1.0076	802.005
