Adsorption isotherm of Hydrogen on IRMOF-1
DOI: 10.1016/j.ijhydene.2011.11.023
Adsorbate Hydrogen: InChIKey UFHFLCQGNIYNRP-UHFFFAOYSA-N
Temperature: 77 K
Tabular data in the source: 0
pressure (bar)	uptake (wt%)
0.746483	2.07064
2.76659	3.09624
5.83734	3.70446
9.7289	4.1741
14.7947	4.52883
19.8595	4.83705
30.453	5.10518
40.1049	5.34896
