Adsorption isotherm of Hydrogen on IRMOF-1
DOI: 10.1016/j.ijhydene.2011.11.023
Adsorbate Hydrogen: InChIKey UFHFLCQGNIYNRP-UHFFFAOYSA-N
Temperature: 298 K
Tabular data in the source: 0
pressure (bar)	uptake (g/l)
9.04642	0.189061
28.9425	0.538329
39.342	0.712996
58.7814	1.00426
78.6788	1.36802
99.4713	1.64489
119.363	1.95068
139.24	2.08255
159.118	2.22892
178.548	2.41874
195.269	2.60835
