Adsorption isotherm of Nitrogen on IRMOF-1
DOI: 10.1016/j.ijhydene.2011.11.023
Adsorbate Nitrogen: InChIKey IJGRMHOSHXDMSA-UHFFFAOYSA-N
Temperature: 77 K
Tabular data in the source: 0
pressure (bar)	uptake (cm3(STP)/g)
0.000264818	325.78
0.000361115	35.1546
0.00895566	571.833
0.044056	688.856
0.130748	728.293
0.260412	751.123
0.408493	766.835
0.558067	777.853
0.891064	795.042
0.985339	822.725
1.00409	848.418
