Adsorption isotherm of Carbon Dioxide on Carbon
DOI: 10.1016/j.ijhydene.2011.11.023
Adsorbate Carbon Dioxide: InChIKey CURLTUGMZLYLDI-UHFFFAOYSA-N
Temperature: 273 K
Tabular data in the source: 0
pressure (bar)	uptake (mmol/g)
0.00217921	0.575921
0.00592928	1.31713
0.00893869	1.82339
0.0115554	2.28247
0.0129949	2.49453
0.0145216	2.7301
0.015961	2.95388
0.0175316	3.15432
0.0204106	3.57845
0.0230716	3.96724
0.0261693	4.34466
0.0288744	4.66318
