Adsorption isotherm of Carbon Dioxide on IRMOF-1
DOI: 10.1016/j.ijhydene.2011.11.023
Adsorbate Carbon Dioxide: InChIKey CURLTUGMZLYLDI-UHFFFAOYSA-N
Temperature: 298 K
Tabular data in the source: 0
pressure (bar)	uptake (g/l)
0.0717864	653.018
0.122041	746.915
0.172311	828.44
0.240343	922.292
0.295097	971.641
0.351357	1001.19
0.453536	1035.58
0.60167	1047.58
0.694988	1059.72
0.955705	1078.87
