Adsorption isotherm of Hydrogen on Carbon
DOI: 10.1016/j.ijhydene.2011.11.023
Adsorbate Hydrogen: InChIKey UFHFLCQGNIYNRP-UHFFFAOYSA-N
Temperature: 77 K
Tabular data in the source: 0
pressure (bar)	uptake (g/l)
0.0297314	1.71542
0.0559926	2.7668
0.116516	4.26087
0.20768	5.81028
0.257096	6.58498
0.402026	7.96838
0.531831	8.96443
0.661759	9.73913
0.799353	10.5138
0.929372	11.1225
1.05565	11.5652
1.12447	11.8972
