Adsorption isotherm of Nitrogen on IRMOF-1-P2
DOI: 10.1016/j.ijhydene.2011.11.023
Adsorbate Nitrogen: InChIKey IJGRMHOSHXDMSA-UHFFFAOYSA-N
Temperature: 77 K
Tabular data in the source: 0
pressure (bar)	uptake (cm3(STP)/g)
0.00815862	49.5587
0.0180433	116.208
0.0515696	153.758
0.0876722	158.824
0.152146	151.877
0.216866	163.732
0.282908	161.91
0.407575	165.115
0.514179	164.933
0.611797	166.476
0.710894	166.306
0.814517	167.838
0.916729	176.211
0.997876	181.2
