Adsorption isotherm of Hydrogen on Carbon
DOI: 10.1016/j.ijhydene.2011.11.023
Adsorbate Hydrogen: InChIKey UFHFLCQGNIYNRP-UHFFFAOYSA-N
Temperature: 298 K
Tabular data in the source: 0
pressure (bar)	uptake (wt%)
19.3995	0.190712
39.7229	0.34319
58.6605	0.468943
79.9076	0.59083
96.9977	0.682223
118.707	0.784993
138.568	0.887798
160.277	0.963816
178.753	1.01314
193.995	1.06636
