Adsorption isotherm of Nitrogen on IRMOF-1
DOI: 10.1016/j.ijhydene.2011.11.023
Adsorbate Nitrogen: InChIKey IJGRMHOSHXDMSA-UHFFFAOYSA-N
Temperature: 77 K
Tabular data in the source: 0
pressure (bar)	uptake (cm3(STP)/g)
0.00354513	155.549
0.00441778	107.685
0.0128716	293.995
0.0131667	430.747
0.0266158	540.125
0.0272221	586.278
0.0547875	627.257
0.118388	668.174
0.223783	690.216
0.32604	702.007
0.431277	712.083
0.623667	727.139
0.727358	733.799
0.904666	743.753
0.970686	740.221
1.00547	758.965
