Adsorption isotherm of Nitrogen on Carbon
DOI: 10.1016/j.ijhydene.2011.11.023
Adsorbate Nitrogen: InChIKey IJGRMHOSHXDMSA-UHFFFAOYSA-N
Temperature: 77 K
Tabular data in the source: 0
pressure (bar)	uptake (cm3(STP)/g)
0.00115557	262.495
0.00984641	508.548
0.0777601	669.948
0.169989	798.422
0.258294	844.883
0.306105	849.346
0.411142	874.635
0.515985	881.175
0.608455	883.085
0.762555	884.707
0.882878	898.205
0.960013	907.219
1.00785	914.026
