Adsorption isotherm of Carbon Dioxide on IRMOF-1
DOI: 10.1016/j.ijhydene.2011.11.023
Adsorbate Carbon Dioxide: InChIKey CURLTUGMZLYLDI-UHFFFAOYSA-N
Temperature: 298 K
Tabular data in the source: 0
pressure (bar)	uptake (wt%)
0.199501	0.838323
5.38653	21.7964
9.27681	44.4311
11.3716	57.4251
13.3666	67.485
17.5561	80.8982
21.5461	86.7665
27.7307	92.6347
31.9202	95.5689
36.01	96.4072
40.0998	97.2455
