Adsorption isotherm of Hydrogen on Carbon
DOI: 10.1016/j.ijhydene.2011.11.023
Adsorbate Hydrogen: InChIKey UFHFLCQGNIYNRP-UHFFFAOYSA-N
Temperature: 77 K
Tabular data in the source: 0
pressure (bar)	uptake (g/l)
2.70769	11.7121
5.66154	14.0272
9.84615	15.5253
14.8923	17.1595
19.8154	18.1128
29.6615	19.0661
39.6308	20.0195
