Adsorption isotherm of Nitrogen on Carbon
DOI: 10.1016/j.ijhydene.2011.11.023
Adsorbate Nitrogen: InChIKey IJGRMHOSHXDMSA-UHFFFAOYSA-N
Temperature: 77 K
Tabular data in the source: 0
pressure (bar)	uptake (cm3(STP)/g)
0.0250614	489.726
0.0912658	634.728
0.164909	753.914
0.238432	861.382
0.319322	936.003
0.412153	973.068
0.513963	984.31
0.614185	990.871
0.765371	1008.91
0.836319	1015.61
0.962685	1017.36
1.00758	1038.25
