Adsorption isotherm of Carbon Dioxide on Carbon
DOI: 10.1016/j.ijhydene.2011.11.023
Adsorbate Carbon Dioxide: InChIKey CURLTUGMZLYLDI-UHFFFAOYSA-N
Temperature: 298 K
Tabular data in the source: 0
pressure (bar)	uptake (g/l)
1.10599	52.5346
2.0086	81.7484
4.21251	138.273
5.91444	175.331
8.11512	212.438
10.0149	239.807
11.9144	265.234
16.0114	308.351
20.0063	337.865
25.0007	379.126
29.8931	406.786
35.1835	428.659
40.0742	446.609
