Adsorption isotherm of Nitrogen on IRMOF-1
DOI: 10.1016/j.ijhydene.2011.11.023
Adsorbate Nitrogen: InChIKey IJGRMHOSHXDMSA-UHFFFAOYSA-N
Temperature: 77 K
Tabular data in the source: 0
pressure (bar)	uptake (cm3(STP)/g)
9.84e-05	26.5823
0.000156878	108.544
0.000779891	159.494
0.00254034	210.443
0.00401944	283.544
0.00551563	482.911
0.00627932	522.785
0.00756494	567.089
0.00899034	593.671
0.0124075	629.114
0.0167695	642.405
