Adsorption isotherm of Nitrogen on Carbon
DOI: 10.1016/j.ijhydene.2011.11.023
Adsorbate Nitrogen: InChIKey IJGRMHOSHXDMSA-UHFFFAOYSA-N
Temperature: 77 K
Tabular data in the source: 0
pressure (bar)	uptake (cm3(STP)/g)
0.0496008	623.382
0.104272	739.536
0.14565	823.557
0.243245	971.769
0.305406	1021.1
0.352771	1055.62
0.456438	1085.06
0.702343	1101.77
0.945274	1128.38
0.988188	1167.86
