Adsorption isotherm of Nitrogen on IRMOF-1-H2O
DOI: 10.1016/j.ijhydene.2011.11.023
Adsorbate Nitrogen: InChIKey IJGRMHOSHXDMSA-UHFFFAOYSA-N
Temperature: 77 K
Tabular data in the source: 0
pressure (bar)	uptake (cm3(STP)/g)
0.00707381	10.7554
0.0634272	15.9908
0.13856	21.1756
0.180829	26.4489
0.262964	18.1469
0.312275	23.4013
0.410866	23.1357
0.488346	28.3142
0.591624	25.3424
0.701959	27.7388
0.798211	30.1732
0.903859	35.2758
0.946136	43.2427
0.993345	132.004
