Adsorption isotherm of Carbon Dioxide on IRMOF-1
DOI: 10.1016/j.ijhydene.2011.11.023
Adsorbate Carbon Dioxide: InChIKey CURLTUGMZLYLDI-UHFFFAOYSA-N
Temperature: 273 K
Tabular data in the source: 0
pressure (bar)	uptake (mmol/g)
0.000827984	0.235022
0.00431655	0.905716
0.00872189	1.61228
0.00885315	1.57723
0.0115138	2.00118
0.0146554	2.34348
0.016008	2.49688
0.0187567	2.82715
0.0204587	2.96911
0.0230768	3.2524
0.0260882	3.47741
0.0288816	3.6671
