Adsorption isotherm of Nitrogen on IRMOF-1
DOI: 10.1016/j.ijhydene.2011.11.023
Adsorbate Nitrogen: InChIKey IJGRMHOSHXDMSA-UHFFFAOYSA-N
Temperature: 77 K
Tabular data in the source: 0
pressure (bar)	uptake (cm3(STP)/g)
0.00652415	485.126
0.00729453	560.122
0.0115316	672.602
0.0188261	782.724
0.0422505	813.083
0.104146	838.574
0.202826	845.143
0.398743	867.662
0.603736	873.732
0.808657	872.772
1.00727	857.778
