Adsorption isotherm of Nitrogen on IRMOF-1
DOI: 10.1016/j.ijhydene.2011.11.023
Adsorbate Nitrogen: InChIKey IJGRMHOSHXDMSA-UHFFFAOYSA-N
Temperature: 77 K
Tabular data in the source: 0
pressure (bar)	uptake (cm3(STP)/g)
0.0102393	205.585
0.0157056	277.543
0.017489	412.878
0.0187983	512.238
0.0246484	613.318
0.0613807	657.921
0.147858	706.035
0.233816	714.747
0.32436	728.607
0.434461	740.787
0.62445	758.243
0.829432	770.586
0.928786	767.33
1.01054	800.018
