Adsorption isotherm of Carbon Dioxide on Carbon
DOI: 10.1016/j.ijhydene.2011.11.023
Adsorbate Carbon Dioxide: InChIKey CURLTUGMZLYLDI-UHFFFAOYSA-N
Temperature: 273 K
Tabular data in the source: 0
pressure (bar)	uptake (mmol/g)
0.000217231	0.152513
0.00278886	0.810773
0.00579734	1.44594
0.00728008	1.71663
0.00876266	2.01075
0.0115537	2.51684
0.0144324	2.98784
0.0174857	3.47069
0.0205391	3.93011
0.0232874	4.30726
0.0263844	4.77843
0.0288711	5.10849
