Adsorption isotherm of Nitrogen on Carbon
DOI: 10.1016/j.ijhydene.2011.11.023
Adsorbate Nitrogen: InChIKey IJGRMHOSHXDMSA-UHFFFAOYSA-N
Temperature: 77 K
Tabular data in the source: 0
pressure (bar)	uptake (cm3(STP)/g)
0.000222569	243.671
0.000612514	323.418
0.0014233	361.076
0.00270832	400.949
0.00380077	418.671
0.00745396	447.468
0.00977773	458.544
0.0178865	491.772
