Adsorption isotherm of Nitrogen on Carbon
DOI: 10.1016/j.ijhydene.2011.11.023
Adsorbate Nitrogen: InChIKey IJGRMHOSHXDMSA-UHFFFAOYSA-N
Temperature: 77 K
Tabular data in the source: 0
pressure (bar)	uptake (cm3(STP)/g)
0.002839	49.5143
0.00927563	478.578
0.0361875	567.776
0.103854	706.613
0.180499	792.675
0.26391	842.455
0.420594	872.675
0.494244	892.72
0.593836	899.65
0.72177	896.772
0.826102	903.717
0.918615	913.923
0.968443	920.688
1.00405	927.406
