Adsorption isotherm of Carbon Dioxide on Carbon
DOI: 10.1016/j.ijhydene.2011.11.023
Adsorbate Carbon Dioxide: InChIKey CURLTUGMZLYLDI-UHFFFAOYSA-N
Temperature: 298 K
Tabular data in the source: 0
pressure (bar)	uptake (wt%)
0.997506	12.1557
1.99501	20.1198
3.99002	34.7904
6.08479	44.8503
8.17955	53.2335
10.0748	61.6168
12.0698	67.9042
16.0599	79.6407
24.9377	101.018
29.8254	109.401
40	123.234
