Adsorption isotherm of Hydrogen on Carbon
DOI: 10.1016/j.ijhydene.2011.11.023
Adsorbate Hydrogen: InChIKey UFHFLCQGNIYNRP-UHFFFAOYSA-N
Temperature: 77 K
Tabular data in the source: 0
pressure (bar)	uptake (g/l)
0.861538	10.7588
2.83077	14.8444
6.15385	17.2957
9.96923	19.2023
14.7692	20.2918
20.0615	21.7899
29.7846	22.607
39.7538	23.1518
