Adsorption isotherm of Hydrogen on IRMOF-1
DOI: 10.1016/j.ijhydene.2011.11.023
Adsorbate Hydrogen: InChIKey UFHFLCQGNIYNRP-UHFFFAOYSA-N
Temperature: 77 K
Tabular data in the source: 0
pressure (bar)	uptake (wt%)
0.01065	0.0721857
0.161029	0.345167
0.25537	0.488658
0.395099	0.689453
0.475269	0.746338
0.531134	0.817979
0.600913	0.889452
0.733427	1.00356
0.862463	1.1177
0.991456	1.21739
1.13436	1.31691
