Adsorption isotherm of Hydrogen on Carbon
DOI: 10.1016/j.ijhydene.2011.11.023
Adsorbate Hydrogen: InChIKey UFHFLCQGNIYNRP-UHFFFAOYSA-N
Temperature: 77 K
Tabular data in the source: 0
pressure (bar)	uptake (wt%)
0.234604	0.0696339
0.351906	0.787849
1.87683	1.94703
3.87097	2.87483
5.8651	3.52463
9.85337	4.24509
14.5455	4.80379
19.9413	5.08491
30.0293	5.25291
40	5.16602
