Adsorption isotherm of Hydrogen on Carbon
DOI: 10.1016/j.ijhydene.2011.11.023
Adsorbate Hydrogen: InChIKey UFHFLCQGNIYNRP-UHFFFAOYSA-N
Temperature: 77 K
Tabular data in the source: 0
pressure (bar)	uptake (wt%)
0.938416	2.57197
2.93255	3.49977
6.09971	4.05759
9.85337	4.45358
15.2493	4.75787
20.176	4.94605
30.0293	5.18341
40	5.39768
