Adsorption isotherm of Carbon Dioxide on Carbon
DOI: 10.1016/j.ijhydene.2011.11.023
Adsorbate Carbon Dioxide: InChIKey CURLTUGMZLYLDI-UHFFFAOYSA-N
Temperature: 298 K
Tabular data in the source: 0
pressure (bar)	uptake (wt%)
0.997506	13.4132
1.89526	21.7964
5.98504	46.5269
9.87531	62.4551
11.9701	69.5808
15.9601	80.8982
20.0499	90.5389
24.8379	99.3413
29.8254	105.629
34.813	112.335
40.0998	116.527
