Adsorption isotherm of Carbon Dioxide on IRMOF-1
DOI: 10.1016/j.ijhydene.2011.11.023
Adsorbate Carbon Dioxide: InChIKey CURLTUGMZLYLDI-UHFFFAOYSA-N
Temperature: 273 K
Tabular data in the source: 0
pressure (bar)	uptake (mmol/g)
0.000523759	0.0355654
0.00178962	0.106867
0.00349189	0.213666
0.00362315	0.178612
0.00501984	0.273453
0.00589312	0.285854
0.00737706	0.392482
0.00942851	0.522991
0.0129208	0.678063
0.0191632	0.975909
0.0224806	1.166
0.0285479	1.5223
