Adsorption isotherm of Nitrogen on IRMOF-1-P4
DOI: 10.1016/j.ijhydene.2011.11.023
Adsorbate Nitrogen: InChIKey IJGRMHOSHXDMSA-UHFFFAOYSA-N
Temperature: 77 K
Tabular data in the source: 0
pressure (bar)	uptake (cm3(STP)/g)
0.0274307	30.7223
0.0935402	34.0281
0.164177	39.0356
0.221345	47.4849
0.314323	38.7789
0.419606	52.2742
0.512652	48.6963
0.613228	46.815
0.715327	46.6405
0.814447	48.1804
0.909062	49.7281
0.99469	53.0005
