Adsorption isotherm of Carbon Dioxide on IRMOF-1
DOI: 10.1016/j.ijhydene.2011.11.023
Adsorbate Carbon Dioxide: InChIKey CURLTUGMZLYLDI-UHFFFAOYSA-N
Temperature: 298 K
Tabular data in the source: 0
pressure (bar)	uptake (g/l)
0.39801	5.82571
1.39303	31.0351
3.38308	75.6476
5.57214	129.947
7.26368	182.287
9.45274	265.619
11.6418	343.144
13.6318	397.434
15.7214	440.116
18.9055	486.721
21.99	510.096
25.8706	539.316
30.2488	555.012
34.1294	562.942
40.398	570.987
