Adsorption isotherm of Nitrogen on IRMOF-1-H2O
DOI: 10.1016/j.ijhydene.2011.11.023
Adsorbate Nitrogen: InChIKey IJGRMHOSHXDMSA-UHFFFAOYSA-N
Temperature: 77 K
Tabular data in the source: 0
pressure (bar)	uptake (cm3(STP)/g)
0.00954154	6.63215
0.0498584	10.0655
0.0972533	10.222
0.139877	7.0623
0.215709	7.31257
0.277354	10.8163
0.386362	11.1761
0.48349	8.19634
0.580681	11.8174
0.67784	12.1381
0.782171	19.0831
0.820056	15.9078
0.910106	16.205
0.993172	29.6804
