Adsorption isotherm of Hydrogen on Carbon
DOI: 10.1016/j.ijhydene.2011.11.023
Adsorbate Hydrogen: InChIKey UFHFLCQGNIYNRP-UHFFFAOYSA-N
Temperature: 77 K
Tabular data in the source: 0
pressure (bar)	uptake (g/l)
0.0111379	0.664032
0.0218515	2.10277
0.0745255	3.92885
0.184586	5.97628
0.264461	7.13834
0.401722	8.52174
0.535302	9.62846
0.661395	10.4032
0.79899	11.1779
0.932902	11.6759
1.06298	12.1739
1.12414	12.5059
