Adsorption isotherm of Methane on CuBTC
DOI: 10.1039/c3sc52633j
Article source: Figure 3a
Adsorbate Methane: InChIKey VNWKTOKETHGBQD-UHFFFAOYSA-N
Kind: experiment
Temperature: 298 K
Tabular data in the source: 0
pressure (bar)	uptake (cm3(STP)/g)
1.73077	33.7278
3.75	62.1302
5.625	89.645
7.78846	115.385
10.2404	140.237
12.6923	160.651
15.2885	181.065
20.3365	206.805
25.2404	227.219
30.2885	243.195
35.1923	255.621
40.3846	266.272
45.2885	273.373
50.0481	280.473
55.0962	287.574
60.1442	292.899
65.1923	299.112
70.0962	302.663
74.7115	305.325
80.0481	307.988
84.9519	311.538
89.5673	314.201
94.6154	315.976
99.9519	318.639
