Adsorption isotherm of Methane on Mg2(dobdc)
DOI: 10.1039/c3sc52633j
Article source: Figure 3b
Adsorbate Methane: InChIKey VNWKTOKETHGBQD-UHFFFAOYSA-N
Kind: experiment
Temperature: 298 K
Tabular data in the source: 0
pressure (bar)	uptake (cm3(STP)/cm3)
1.57726	33.1683
3.30138	63.3663
5.75091	94.0594
7.62735	111.881
10.0846	129.208
12.5442	142.574
15.0052	153.465
19.9302	170.297
25.0025	183.168
30.0769	192.574
34.8621	200
39.7931	206.436
44.8692	212.871
49.8007	218.317
54.8776	223.267
59.9552	227.228
64.7427	230.693
69.8208	233.663
74.7529	238.119
79.3953	241.584
84.4725	246.04
89.8421	247.03
94.6302	249.505
98.5475	251.98
