Adsorption isotherm of Methane on MOF-74-Co
DOI: 10.1039/c3sc52633j
Article source: Figure 3b
Adsorbate Methane: InChIKey VNWKTOKETHGBQD-UHFFFAOYSA-N
Kind: experiment
Temperature: 298 K
Tabular data in the source: 0
pressure (bar)	uptake (cm3(STP)/cm3)
0.571067	16.3366
1.42609	43.5644
3.14504	82.6733
5.59198	117.822
7.6127	137.129
10.0703	153.96
12.5301	166.832
14.9914	177.228
19.9175	192.079
24.9902	204.455
29.7748	212.871
34.9952	220.792
39.7813	226.733
44.858	232.178
49.7898	237.129
54.867	241.584
59.6543	245.545
64.7321	249.01
69.5196	252.475
74.7434	254.455
79.3864	256.931
84.6099	259.406
89.6895	259.901
94.7702	258.416
98.5432	259.406
