Adsorption isotherm of Methane on Ni2(dobdc)
DOI: 10.1039/c3sc52633j
Article source: Figure 3b
Adsorbate Methane: InChIKey VNWKTOKETHGBQD-UHFFFAOYSA-N
Kind: experiment
Temperature: 298 K
Tabular data in the source: 0
pressure (bar)	uptake (cm3(STP)/cm3)
0.567906	21.7822
1.70975	54.9505
3.42899	93.5644
5.73223	126.238
7.75324	145.05
10.0657	161.881
12.6707	174.752
15.1317	185.644
20.0575	200.99
24.9847	213.861
30.0596	222.277
34.9892	231.188
40.0652	237.624
44.9962	244.059
49.9283	248.515
55.0058	252.475
59.9376	257.426
65.016	259.901
69.6599	260.891
74.5931	263.366
79.2355	266.832
84.6039	269.802
89.2474	271.287
94.181	273.267
99.4039	276.733
