Adsorption isotherm of Methane on Ni2(dobdc)
DOI: 10.1039/c3sc52633j
Article source: Figure 3a
Adsorbate Methane: InChIKey VNWKTOKETHGBQD-UHFFFAOYSA-N
Kind: experiment
Temperature: 298 K
Tabular data in the source: 0
pressure (bar)	uptake (cm3(STP)/g)
0.576923	16.8639
1.73077	46.1538
3.46154	77.2189
5.76923	104.734
7.78846	120.71
10.0962	135.799
12.8365	148.225
15.1442	155.325
20.0481	167.751
25.2404	180.178
30.1442	186.391
35.1923	193.491
40.0962	198.817
45.1442	204.142
50.0481	207.692
55.2404	211.243
60.1442	215.68
65.1923	217.456
70.0962	219.231
74.5673	221.006
79.4712	223.669
84.8077	227.219
89.4231	228.107
94.3269	228.994
99.5192	231.657
