Adsorption isotherm of Methane on CuBTC
DOI: 10.1039/c3sc52633j
Article source: Figure 3b
Adsorbate Methane: InChIKey VNWKTOKETHGBQD-UHFFFAOYSA-N
Kind: experiment
Temperature: 298 K
Tabular data in the source: 0
pressure (bar)	uptake (cm3(STP)/cm3)
0.71793	13.3663
1.86926	30.198
3.59626	55.4455
5.61411	79.703
7.77853	101.485
10.0881	123.267
12.6896	142.079
15.2924	158.911
20.0684	182.178
25.1379	200
30.0642	214.356
34.9926	225.248
40.0673	234.158
44.9979	241.089
49.9292	247.03
55.0052	253.465
59.7922	257.921
64.8689	263.366
69.947	266.337
74.4442	269.802
79.5229	271.782
84.6013	274.257
89.3891	277.228
94.4681	278.713
99.6919	280.693
