Adsorption isotherm of Methane on Mg2(dobdc)
DOI: 10.1039/c3sc52633j
Article source: Figure 3b
Adsorbate Methane: InChIKey VNWKTOKETHGBQD-UHFFFAOYSA-N
Kind: experiment
Temperature: 298 K
Tabular data in the source: 0
pressure (bar)	uptake (cm3(STP)/cm3)
0.869103	2.9703
1.88133	9.40594
3.76238	19.3069
5.49828	29.2079
7.6696	39.1089
10.1298	51.4851
12.5902	63.3663
15.0509	74.7525
20.1181	96.5347
25.0413	116.337
29.9659	133.663
34.8914	149.505
39.9632	163.366
45.1801	177.228
49.9636	187.624
55.0374	198.02
59.8215	207.426
64.7516	215.347
69.8271	222.772
74.6124	230.198
79.6887	236.139
84.7643	243.564
89.2607	248.515
94.6276	253.96
98.3997	256.436
