Adsorption isotherm of Methane on PCN-14
DOI: 10.1039/c3sc52633j
Article source: Figure 3a
Adsorbate Methane: InChIKey VNWKTOKETHGBQD-UHFFFAOYSA-N
Kind: experiment
Temperature: 298 K
Tabular data in the source: 0
pressure (bar)	uptake (cm3(STP)/g)
0.576923	13.3136
1.73077	35.503
3.46154	67.4556
5.625	98.5207
7.5	120.71
10.0962	144.675
15.1442	177.515
20.3365	201.479
25.0962	219.231
30.1442	233.432
35.1923	244.97
40.0962	254.734
45	262.722
50.0481	270.71
55.0962	277.811
60	283.136
65.0481	289.349
70.0962	294.675
74.8558	300
80.0481	303.55
84.9519	307.101
89.8558	311.538
94.9038	315.089
98.6538	318.639
