Adsorption isotherm of Methane on Zn4O(BDC)3
DOI: 10.1039/c3sc52633j
Article source: Figure 3a
Adsorbate Methane: InChIKey VNWKTOKETHGBQD-UHFFFAOYSA-N
Kind: experiment
Temperature: 298 K
Tabular data in the source: 0
pressure (bar)	uptake (cm3(STP)/g)
0.721154	5.32544
1.875	15.0888
3.75	31.0651
5.625	46.1538
7.5	62.1302
10.0962	82.5444
12.5481	102.071
15	119.822
20.0481	155.325
25.0962	187.278
30.1442	216.568
35.0481	241.42
39.9519	263.609
45	284.911
50.0481	301.775
55.0962	318.639
60	333.728
64.9038	347.041
69.9519	357.692
74.8558	370.118
79.9038	380.769
84.8077	392.308
89.5673	400.296
94.7596	408.284
98.6538	413.609
