Adsorption isotherm of Methane on PCN-14
DOI: 10.1039/c3sc52633j
Article source: Figure 3b
Adsorbate Methane: InChIKey VNWKTOKETHGBQD-UHFFFAOYSA-N
Kind: experiment
Temperature: 298 K
Tabular data in the source: 0
pressure (bar)	uptake (cm3(STP)/cm3)
0.28424	10.396
1.7247	29.2079
3.59597	55.9406
5.61324	81.1881
7.48911	100
10.2352	119.802
15.1538	147.525
20.0773	166.832
25.1488	181.188
30.0766	193.069
35.0058	202.475
39.9356	210.891
44.8663	217.822
49.7972	224.257
54.7285	230.198
59.9506	235.149
64.7372	240.099
69.8148	244.059
74.7472	248.02
79.8247	251.98
84.7579	254.455
89.5452	258.416
94.7687	260.891
98.5403	264.356
