Adsorption isotherm of Methane on AX-21
DOI: 10.1039/c3sc52633j
Article source: Figure 3b
Adsorbate Methane: InChIKey VNWKTOKETHGBQD-UHFFFAOYSA-N
Kind: experiment
Temperature: 298 K
Tabular data in the source: 0
pressure (bar)	uptake (cm3(STP)/cm3)
0.57624	7.42574
1.73016	19.802
3.46175	37.1287
5.48506	51.9802
7.50981	64.3564
10.1145	77.7228
12.5753	89.1089
15.0369	99.0099
19.9615	116.337
25.033	130.693
29.9608	142.574
34.8888	153.96
39.9632	163.366
44.8927	172.277
49.8225	180.693
54.8978	188.614
59.8281	196.04
64.7591	202.475
69.5443	209.901
74.4759	215.347
79.5519	221.782
84.3389	226.238
89.7061	231.188
94.6388	234.653
98.5561	237.129
