Adsorption isotherm of Methane on MOF-74-Co
DOI: 10.1039/c3sc52633j
Article source: Figure 3a
Adsorbate Methane: InChIKey VNWKTOKETHGBQD-UHFFFAOYSA-N
Kind: experiment
Temperature: 298 K
Tabular data in the source: 0
pressure (bar)	uptake (cm3(STP)/g)
0.432692	15.0888
3.17308	70.1183
5.48077	99.4083
7.64423	118.047
10.0962	131.361
12.5481	142.012
15	150.888
20.1923	164.201
24.9519	173.964
30	181.953
34.9038	188.166
40.0962	193.491
45	197.929
50.0481	202.367
54.9519	205.917
59.8558	209.467
65.0481	213.018
69.5192	214.793
75	217.456
79.6154	219.231
84.9519	221.006
89.8558	221.006
94.7596	220.118
98.6538	221.006
