Adsorption isotherm of Methane on AX-21
DOI: 10.1039/c3sc52633j
Article source: Figure 3a
Adsorbate Methane: InChIKey VNWKTOKETHGBQD-UHFFFAOYSA-N
Kind: experiment
Temperature: 298 K
Tabular data in the source: 0
pressure (bar)	uptake (cm3(STP)/g)
0.576923	16.8639
1.58654	40.8284
3.60577	75.4438
5.625	106.509
7.5	132.249
10.0962	159.763
12.5481	183.728
15	204.142
20.0481	238.757
25.0962	268.935
30	293.787
35.0481	315.976
40.0962	335.503
45	353.254
50.0481	371.893
54.9519	386.982
60	402.959
64.9038	417.16
69.6635	431.361
74.5673	442.899
79.7596	456.213
84.5192	465.976
89.8558	475.74
94.9038	483.728
98.7981	489.053
