Adsorption isotherm of Methane on Mg2(dobdc)
DOI: 10.1039/c3sc52633j
Article source: Figure 3a
Adsorbate Methane: InChIKey VNWKTOKETHGBQD-UHFFFAOYSA-N
Kind: experiment
Temperature: 298 K
Tabular data in the source: 0
pressure (bar)	uptake (cm3(STP)/g)
0.432692	14.2012
1.44231	38.1657
3.31731	70.1183
5.625	102.071
7.78846	119.822
9.95192	142.012
12.6923	157.101
15	169.527
20.0481	188.166
25.0962	200.592
30	212.13
35.0481	220.118
40.0962	228.107
45	234.32
50.0481	241.42
54.9519	245.858
59.8558	250.296
64.9038	254.734
69.9519	258.284
75	261.834
79.6154	265.385
84.8077	270.71
90	271.598
94.9038	275.148
98.7981	278.698
