Adsorption isotherm of Direct Blue 86 on ground Crataegus azarolus stones (particle size < 135 micrometer)
DOI: 10.1007/s11356-017-9606-0
Article source: Figure 7
Adsorbate Direct Blue 86: InChIKey LSASILAMYYWGBH-UHFFFAOYSA-L
Kind: experiment
Temperature: 293 K
Tabular data in the source: 0
pressure (bar)	uptake (mg/g)
1.01325	8.5049
1.01325	12.9913
1.01325	20.5156
1.01325	22.7312
1.01325	23.1473
1.01325	23.8497
