Adsorption isotherm of Carbon Dioxide on Illinois No. 6 Coal
DOI: 10.1016/j.coal.2007.01.005
Article source: Table 5- Lab 4
Adsorbate Carbon Dioxide: InChIKey CURLTUGMZLYLDI-UHFFFAOYSA-N
Kind: experiment
Isotherm type: excess
Temperature: 328 K
Tabular data in the source: 1
pressure (bar)	uptake (mmol/g)
1.6	0.019
3.1	0.067
5.7	0.153
11.4	0.307
24.2	0.535
40.6	0.692
56.8	0.843
78.2	0.453
93.1	2.356
