Adsorption isotherm of Carbon Dioxide on Beulah Zap Coal
DOI: 10.1016/j.coal.2007.01.005
Article source: Figure 10- Lab3
Adsorbate Carbon Dioxide: InChIKey CURLTUGMZLYLDI-UHFFFAOYSA-N
Kind: experiment
Isotherm type: absolute
Temperature: 328 K
Tabular data in the source: 0
pressure (bar)	uptake (mmol/g)
8.102	0.15687
15.927	0.28382
32.806	0.52724
52.48	0.75554
71.763	0.92912
84.675	1.0363
97.53	1.14349
111.336	1.2367
124.918	1.43703
138.499	1.7922
