Adsorption isotherm of Carbon Dioxide on Pocahontas No. 3 Coal
DOI: 10.1016/j.coal.2007.01.005
Article source: Figure 8- Lab3
Adsorbate Carbon Dioxide: InChIKey CURLTUGMZLYLDI-UHFFFAOYSA-N
Kind: experiment
Isotherm type: absolute
Temperature: 328 K
Tabular data in the source: 0
pressure (bar)	uptake (mmol/g)
1.099	0.09644
4.27	0.34193
7.905	0.54311
15.653	0.77418
33.032	1.0683
51.623	1.27002
70.146	1.42414
83.549	1.52783
97.492	1.65112
111.03	1.654
124.973	1.83049
139.254	2.0868
