Adsorption isotherm of Carbon Dioxide on Beulah Zap Coal
DOI: 10.1016/j.coal.2007.01.005
Article source: Table 6- Lab 1
Adsorbate Carbon Dioxide: InChIKey CURLTUGMZLYLDI-UHFFFAOYSA-N
Kind: experiment
Isotherm type: excess
Temperature: 328 K
Tabular data in the source: 1
pressure (bar)	uptake (mmol/g)
2.6	0.053
5.4	0.125
11.6	0.286
21.8	0.455
41.4	0.699
64.1	0.926
86.5	1.137
103.4	1.273
118.9	1.409
128.7	1.456
141.3	1.473
151.1	1.476
