Adsorption isotherm of Carbon Dioxide on Illinois No. 6 Coal
DOI: 10.1016/j.coal.2007.01.005
Article source: Table 5- Lab 5
Adsorbate Carbon Dioxide: InChIKey CURLTUGMZLYLDI-UHFFFAOYSA-N
Kind: experiment
Isotherm type: excess
Temperature: 328 K
Tabular data in the source: 1
pressure (bar)	uptake (mmol/g)
9.8	0.276
19.6	0.436
28	0.543
35.5	0.621
42.2	0.678
48.1	0.725
53.5	0.759
58.3	0.783
62.5	0.805
73.1	0.845
81.1	0.867
91.6	0.897
100.8	0.921
111.4	0.911
121.2	0.843
130.4	0.824
140.1	0.761
