Adsorption isotherm of Carbon Dioxide on Beulah Zap Coal
DOI: 10.1016/j.coal.2007.01.005
Article source: Figure 10- Lab5
Adsorbate Carbon Dioxide: InChIKey CURLTUGMZLYLDI-UHFFFAOYSA-N
Kind: experiment
Isotherm type: absolute
Temperature: 328 K
Tabular data in the source: 0
pressure (bar)	uptake (mmol/g)
140.908	2.6868
20.961	0.42382
26.546	0.50327
31.421	0.57534
40.463	0.69175
50.214	0.81371
60.764	0.92644
70.427	1.0096
80.977	1.11124
91.437	1.25168
100.478	1.42536
110.757	1.72283
119.973	1.98889
131.137	2.34548
