Adsorption isotherm of Carbon Dioxide on Beulah Zap Coal
DOI: 10.1016/j.coal.2007.01.005
Article source: Table 6- Lab 4
Adsorbate Carbon Dioxide: InChIKey CURLTUGMZLYLDI-UHFFFAOYSA-N
Kind: experiment
Isotherm type: excess
Temperature: 328 K
Tabular data in the source: 1
pressure (bar)	uptake (mmol/g)
1.3	0.005
1.7	0.035
3	0.096
6	0.209
12.1	0.387
25	0.633
40.1	0.904
57.7	1.031
77.5	1.235
89.6	0.69
101.1	2.092
