Adsorption isotherm of Carbon Dioxide on Illinois No. 6 Coal
DOI: 10.1016/j.coal.2007.01.005
Article source: Figure 9- Lab6
Adsorbate Carbon Dioxide: InChIKey CURLTUGMZLYLDI-UHFFFAOYSA-N
Kind: experiment
Isotherm type: absolute
Temperature: 328 K
Tabular data in the source: 0
pressure (bar)	uptake (mmol/g)
3.438	0.12943
7.945	0.25151
22.574	0.49213
28.953	0.58059
43.412	0.74337
56.255	0.86193
83.416	1.10188
96.917	1.23389
110.553	1.4361
124.324	1.72819
139.039	2.10452
