Adsorption isotherm of Carbon Dioxide on Illinois No. 6 Coal
DOI: 10.1016/j.coal.2007.01.005
Article source: Figure 9- Lab1
Adsorbate Carbon Dioxide: InChIKey CURLTUGMZLYLDI-UHFFFAOYSA-N
Kind: experiment
Isotherm type: absolute
Temperature: 328 K
Tabular data in the source: 0
pressure (bar)	uptake (mmol/g)
2.141	0.0894
5.709	0.1789
12.507	0.3282
33.044	0.604
51.783	0.8046
73.971	0.9803
92.916	1.1678
109.158	1.4835
129.549	2.1618
140.686	2.6823
155.774	4.1329
