Adsorption isotherm of Carbon Dioxide on Illinois No. 6 Coal
DOI: 10.1016/j.coal.2007.01.005
Article source: Table 5- Lab 1
Adsorbate Carbon Dioxide: InChIKey CURLTUGMZLYLDI-UHFFFAOYSA-N
Kind: experiment
Isotherm type: excess
Temperature: 328 K
Tabular data in the source: 1
pressure (bar)	uptake (mmol/g)
1	0.037
2.1	0.093
5.6	0.196
12.2	0.339
33	0.609
51.6	0.753
73.9	0.849
93	0.889
109.1	0.963
129.3	0.953
140.7	0.936
155.9	0.909
