Adsorption isotherm of Carbon Dioxide on Pocahontas No. 3 Coal
DOI: 10.1016/j.coal.2007.01.005
Article source: Table 4- Lab 4
Adsorbate Carbon Dioxide: InChIKey CURLTUGMZLYLDI-UHFFFAOYSA-N
Kind: experiment
Isotherm type: excess
Temperature: 328 K
Tabular data in the source: 1
pressure (bar)	uptake (mmol/g)
1.4	0.033
2.2	0.128
3.4	0.248
7.2	0.677
19.1	1.405
37.7	1.681
56.9	1.798
71.7	1.377
82.1	1.347
101.5	2.3
109.4	5.131
