Adsorption isotherm of Carbon Dioxide on Illinois No. 6 Coal
DOI: 10.1016/j.coal.2007.01.005
Article source: Table 5- Lab 6
Adsorbate Carbon Dioxide: InChIKey CURLTUGMZLYLDI-UHFFFAOYSA-N
Kind: experiment
Isotherm type: excess
Temperature: 328 K
Tabular data in the source: 1
pressure (bar)	uptake (mmol/g)
4.2	0.154
8	0.247
15.6	0.385
22.3	0.48
28.7	0.56
42.7	0.701
56.2	0.782
70.2	0.856
83.4	0.89
96.9	0.907
110.4	0.889
124.1	0.831
138.8	0.762
