Adsorption isotherm of Carbon Dioxide on Pocahontas No. 3 Coal
DOI: 10.1016/j.coal.2007.01.005
Article source: Table 4- Lab 3
Adsorbate Carbon Dioxide: InChIKey CURLTUGMZLYLDI-UHFFFAOYSA-N
Kind: experiment
Isotherm type: excess
Temperature: 328 K
Tabular data in the source: 1
pressure (bar)	uptake (mmol/g)
0.8	0.097
1.8	0.195
3.8	0.346
7.6	0.535
15.5	0.759
32.8	1.015
51.4	1.1567
70	1.227
83.3	1.234
97.3	1.207
110.8	1.012
124.9	0.868
139.1	0.75
