Adsorption isotherm of Carbon Dioxide on Beulah Zap Coal
DOI: 10.1016/j.coal.2007.01.005
Article source: Table 6- Lab 6
Adsorbate Carbon Dioxide: InChIKey CURLTUGMZLYLDI-UHFFFAOYSA-N
Kind: experiment
Isotherm type: excess
Temperature: 328 K
Tabular data in the source: 1
pressure (bar)	uptake (mmol/g)
10.2	0.228
15	0.31
28.2	0.489
42.2	0.634
59.1	0.76
71.5	0.801
83.5	0.824
97.1	0.825
110.6	0.834
120.4	0.783
135.7	0.64
