Adsorption isotherm of Carbon Dioxide on Illinois No. 6 Coal
DOI: 10.1016/j.coal.2007.01.005
Article source: Table 5- Lab 3
Adsorbate Carbon Dioxide: InChIKey CURLTUGMZLYLDI-UHFFFAOYSA-N
Kind: experiment
Isotherm type: excess
Temperature: 328 K
Tabular data in the source: 1
pressure (bar)	uptake (mmol/g)
1.3	0.05
2.5	0.094
4.6	0.154
8.3	0.245
16.6	0.394
33.6	0.606
52.6	0.761
71	0.846
84.3	0.872
97.9	0.863
110.8	0.8
124.5	0.733
139.3	0.662
