Adsorption isotherm of Carbon Dioxide on Illinois No. 6 Coal
DOI: 10.1016/j.coal.2007.01.005
Article source: Figure 9- Lab5
Adsorbate Carbon Dioxide: InChIKey CURLTUGMZLYLDI-UHFFFAOYSA-N
Kind: experiment
Isotherm type: absolute
Temperature: 328 K
Tabular data in the source: 0
pressure (bar)	uptake (mmol/g)
19.562	0.4458
27.979	0.5651
35.025	0.65396
42.416	0.72408
47.986	0.78307
53.503	0.82646
58.27	0.8654
62.715	0.90324
70.802	0.96554
80.604	1.04565
91.583	1.16364
100.741	1.30393
111.399	1.49324
121.307	1.65247
130.411	1.92202
140.104	2.15369
