Adsorption isotherm of Carbon Dioxide on Pocahontas No. 3 Coal
DOI: 10.1016/j.coal.2007.01.005
Article source: Figure 8- Lab4
Adsorbate Carbon Dioxide: InChIKey CURLTUGMZLYLDI-UHFFFAOYSA-N
Kind: experiment
Isotherm type: absolute
Temperature: 328 K
Tabular data in the source: 0
pressure (bar)	uptake (mmol/g)
0.035	0.007
1.934	0.0555
3.651	0.2489
7.162	0.6777
19.207	1.4346
37.883	1.7689
57.021	2.0136
71.677	1.6043
82.326	1.6434
101.786	3.2852
109.55	8.1946
