Adsorption isotherm of Carbon Dioxide on Beulah Zap Coal
DOI: 10.1016/j.coal.2007.01.005
Article source: Figure 10- Lab6
Adsorbate Carbon Dioxide: InChIKey CURLTUGMZLYLDI-UHFFFAOYSA-N
Kind: experiment
Isotherm type: absolute
Temperature: 328 K
Tabular data in the source: 0
pressure (bar)	uptake (mmol/g)
10.551	0.22698
28.224	0.51275
42.236	0.67834
59.205	0.85271
71.457	0.93183
83.497	1.01387
97.157	1.12816
110.605	1.35531
120.321	1.51505
135.741	1.66158
