Adsorption isotherm of Carbon Dioxide on Pocahontas No. 3 Coal
DOI: 10.1016/j.coal.2007.01.005
Article source: Figure 8- Lab5
Adsorbate Carbon Dioxide: InChIKey CURLTUGMZLYLDI-UHFFFAOYSA-N
Kind: experiment
Isotherm type: absolute
Temperature: 328 K
Tabular data in the source: 0
pressure (bar)	uptake (mmol/g)
4.64	0.3933
20.197	0.81002
31.008	0.95022
40.76	1.03753
50.725	1.1116
60.053	1.1848
70.74	1.23067
80.537	1.26861
90.672	1.33563
100.254	1.41853
110.26	1.53845
120.646	1.71743
131.113	1.98898
138.696	2.24907
