Adsorption isotherm of Carbon Dioxide on Beulah Zap Coal
DOI: 10.1016/j.coal.2007.01.005
Article source: Table 6- Lab 3
Adsorbate Carbon Dioxide: InChIKey CURLTUGMZLYLDI-UHFFFAOYSA-N
Kind: experiment
Isotherm type: excess
Temperature: 328 K
Tabular data in the source: 1
pressure (bar)	uptake (mmol/g)
1	0.02
1.9	0.041
3.7	0.08
7.8	0.157
15.8	0.281
32.7	0.503
52.4	0.686
71.8	0.793
84.8	0.831
97.4	0.833
111.3	0.749
124.9	0.679
138.4	0.653
