Adsorption isotherm of Carbon Dioxide on Pocahontas No. 3 Coal
DOI: 10.1016/j.coal.2007.01.005
Article source: Table 4- Lab 5
Adsorbate Carbon Dioxide: InChIKey CURLTUGMZLYLDI-UHFFFAOYSA-N
Kind: experiment
Isotherm type: excess
Temperature: 328 K
Tabular data in the source: 1
pressure (bar)	uptake (mmol/g)
2	0.229
4.6	0.393
7.6	0.517
10.8	0.607
20.1	0.785
30.7	0.903
40.5	0.97
50.7	1.017
60.1	1.053
70.6	1.056
80.3	1.048
90.6	1.034
100.2	1.005
110	0.955
120.5	0.886
131	0.838
138.5	0.818
