Adsorption isotherm of Carbon Dioxide on Pocahontas No. 3 Coal
DOI: 10.1016/j.coal.2007.01.005
Article source: Table 4- Lab 6
Adsorbate Carbon Dioxide: InChIKey CURLTUGMZLYLDI-UHFFFAOYSA-N
Kind: experiment
Isotherm type: excess
Temperature: 328 K
Tabular data in the source: 1
pressure (bar)	uptake (mmol/g)
4	0.282
7.7	0.44
14.9	0.607
28.4	0.767
42.5	0.859
56.3	0.906
69.9	0.921
83.3	0.914
96.9	0.875
103.4	0.847
121.6	0.738
131.1	0.682
