Adsorption isotherm of Carbon Dioxide on Beulah Zap Coal
DOI: 10.1016/j.coal.2007.01.005
Article source: Figure 10- Lab4
Adsorbate Carbon Dioxide: InChIKey CURLTUGMZLYLDI-UHFFFAOYSA-N
Kind: experiment
Isotherm type: absolute
Temperature: 328 K
Tabular data in the source: 0
pressure (bar)	uptake (mmol/g)
1.587	0.027
2.275	0.027
3.108	0.0995
4.231	0.0362
5.968	0.1993
12.052	0.3747
25.233	0.6592
40.152	0.9499
57.678	1.12
77.776	1.4566
89.642	0.8357
101.133	2.9808
