Adsorption isotherm of Carbon Dioxide on Illinois No. 6 Coal
DOI: 10.1016/j.coal.2007.01.005
Article source: Figure 9- Lab2
Adsorbate Carbon Dioxide: InChIKey CURLTUGMZLYLDI-UHFFFAOYSA-N
Kind: experiment
Isotherm type: absolute
Temperature: 328 K
Tabular data in the source: 0
pressure (bar)	uptake (mmol/g)
3.857	0.6138
15.652	0.7029
31.975	1.0996
52.229	1.4565
70.401	1.8652
88.557	3.7232
101.418	7.4711
118.629	8.3843
137.352	8.0849
