Adsorption isotherm of Carbon Dioxide on Pocahontas No. 3 Coal
DOI: 10.1016/j.coal.2007.01.005
Article source: Figure 8- Lab6
Adsorbate Carbon Dioxide: InChIKey CURLTUGMZLYLDI-UHFFFAOYSA-N
Kind: experiment
Isotherm type: absolute
Temperature: 328 K
Tabular data in the source: 0
pressure (bar)	uptake (mmol/g)
4.41	0.27917
8.04	0.44567
15.036	0.61496
28.493	0.79825
42.557	0.91857
56.487	1.00532
70.082	1.06408
83.542	1.12984
96.934	1.18861
103.462	1.24038
121.764	1.45444
131.183	1.61394
