Adsorption isotherm of Carbon Dioxide on Pocahontas No. 3 Coal
DOI: 10.1016/j.coal.2007.01.005
Article source: Figure 8- Lab1
Adsorbate Carbon Dioxide: InChIKey CURLTUGMZLYLDI-UHFFFAOYSA-N
Kind: experiment
Isotherm type: absolute
Temperature: 328 K
Tabular data in the source: 0
pressure (bar)	uptake (mmol/g)
2.888	0.2218
5.817	0.3947
12.061	0.651
22.006	0.8113
41.742	1.01
64.1	1.1448
86.767	1.222
103.575	1.1902
119.071	1.2864
128.708	1.4403
141.507	1.3187
151.374	1.6455
