Adsorption isotherm of Carbon Dioxide on Beulah Zap Coal
DOI: 10.1016/j.coal.2007.01.005
Article source: Figure 10- Lab2
Adsorbate Carbon Dioxide: InChIKey CURLTUGMZLYLDI-UHFFFAOYSA-N
Kind: experiment
Isotherm type: absolute
Temperature: 328 K
Tabular data in the source: 0
pressure (bar)	uptake (mmol/g)
2.327	0.0741
16.291	0.38
32.443	0.6154
52.505	0.8387
73.581	1.249
98.618	6.718
119.899	9.9017
148.374	7.8702
