Adsorption isotherm of Carbon Dioxide on Illinois No. 6 Coal
DOI: 10.1016/j.coal.2007.01.005
Article source: Figure 9- Lab4
Adsorbate Carbon Dioxide: InChIKey CURLTUGMZLYLDI-UHFFFAOYSA-N
Kind: experiment
Isotherm type: absolute
Temperature: 328 K
Tabular data in the source: 0
pressure (bar)	uptake (mmol/g)
3.197	0.0331
5.456	0.1224
11.581	0.2885
24.367	0.5463
28.531	0.5562
40.843	0.695
57.259	0.9031
78.323	0.4961
93.396	3.0757
