Adsorption isotherm of Carbon Dioxide on Beulah Zap Coal
DOI: 10.1016/j.coal.2007.01.005
Article source: Figure 10- Lab1
Adsorbate Carbon Dioxide: InChIKey CURLTUGMZLYLDI-UHFFFAOYSA-N
Kind: experiment
Isotherm type: absolute
Temperature: 328 K
Tabular data in the source: 0
pressure (bar)	uptake (mmol/g)
2.805	0.0297
5.861	0.1175
11.576	0.2705
21.93	0.4405
41.553	0.7382
63.927	1.0541
86.735	1.4305
103.533	1.8305
119.168	2.6169
128.722	3.294
141.459	4.2613
151.442	5.6147
