Adsorption isotherm of Carbon Dioxide on Beulah Zap Coal
DOI: 10.1016/j.coal.2007.01.005
Article source: Table 6- Lab 5
Adsorbate Carbon Dioxide: InChIKey CURLTUGMZLYLDI-UHFFFAOYSA-N
Kind: experiment
Isotherm type: excess
Temperature: 328 K
Tabular data in the source: 1
pressure (bar)	uptake (mmol/g)
4	0.105
7.7	0.186
11.3	0.258
14.7	0.31
20.9	0.406
26.3	0.484
31.1	0.545
40.6	0.646
50.3	0.741
60.6	0.823
70.1	0.872
80.9	0.915
91.2	0.965
100.4	1.005
110.7	1.055
120	1.036
131.1	0.986
140.8	0.942
