Adsorption isotherm of Carbon Dioxide on Pocahontas No. 3 Coal
DOI: 10.1016/j.coal.2007.01.005
Article source: Table 4
Adsorbate Carbon Dioxide: InChIKey CURLTUGMZLYLDI-UHFFFAOYSA-N
Kind: experiment
Isotherm type: excess
Temperature: 328 K
Tabular data in the source: 1
pressure (bar)	uptake (mmol/g)
2.6	0.239
5.3	0.423
11.6	0.633
21.8	0.81
41.4	0.952
64.1	1.008
86.5	0.971
103.4	0.825
118.9	0.685
128.7	0.644
141.3	0.455
151.1	0.437
