Adsorption isotherm of Methanol on HKUST-1 replica
DOI: 10.1002/chem.201501599
Article source: Figure 5
Adsorbate Methanol: InChIKey OKKJLVBELUTLKV-UHFFFAOYSA-N
Kind: experiment
Temperature: 303 K
Tabular data in the source: 0
pressure (bar)	uptake (mg/g)
0	0
0.003096	48.3516
0.004644	52.7473
0.006966	65.9341
0.009288	74.7253
0.013158	83.5165
0.019351	96.7033
0.025543	105.495
0.036379	109.89
0.047215	114.286
0.051085	136.264
0.058826	114.286
0.061922	140.659
0.068888	127.473
0.071984	149.451
0.082046	140.659
0.08282	162.637
0.092109	153.846
0.100623	175.824
0.102945	158.242
0.111459	189.011
0.113781	171.429
0.120747	206.593
0.123843	189.011
0.129262	215.385
0.133132	193.407
0.136228	228.571
0.14242	215.385
0.143194	246.154
0.15016	232.967
0.1579	281.319
0.158674	241.758
0.164867	312.088
0.165641	259.341
0.170285	338.462
0.174155	285.714
0.175703	364.835
0.178799	307.692
0.181121	391.209
0.185765	338.462
0.187313	421.978
0.191957	373.626
0.194279	452.747
0.198149	408.791
0.200471	483.516
0.202794	448.352
0.206664	483.516
0.208212	509.89
