Adsorption isotherm of Water on HKUST-1 replica
DOI: 10.1002/chem.201501599
Article source: Figure 5
Adsorbate Water: InChIKey XLYOFNOQVPJJNP-UHFFFAOYSA-N
Kind: experiment
Temperature: 303 K
Tabular data in the source: 0
pressure (bar)	uptake (mg/g)
0	0
0.000899	13.1868
0.003446	21.978
0.004345	30.7692
0.005994	30.7692
0.007642	57.1429
0.00914	43.956
0.010039	48.3516
0.010639	70.3297
0.010938	52.7473
0.012287	74.7253
0.012886	52.7473
0.013486	83.5165
0.015284	61.5385
0.016333	96.7033
0.017232	70.3297
0.017831	105.495
0.01918	74.7253
0.019329	109.89
0.020828	79.1209
0.022026	123.077
0.022776	87.9121
0.023825	131.868
0.024424	92.3077
0.025023	140.659
0.026372	101.099
0.026821	149.451
0.02832	149.451
0.02847	109.89
0.029818	158.242
0.030268	123.077
0.031616	167.033
0.032815	136.264
0.033414	171.429
0.034014	145.055
0.034913	175.824
0.035362	153.846
0.036411	162.637
0.036561	180.22
0.03716	167.033
0.038059	175.824
0.038809	180.22
