Adsorption isotherm of Ethanol on HKUST-1 replica
DOI: 10.1002/chem.201501599
Article source: Figure 5
Adsorbate Ethanol: InChIKey LFQSCWFLJHTTHZ-UHFFFAOYSA-N
Kind: experiment
Temperature: 303 K
Tabular data in the source: 0
pressure (bar)	uptake (mg/g)
0	0
0.001477	35.4244
0.003692	53.1365
0.005538	75.2768
0.008123	84.1328
0.012553	97.417
0.016984	101.845
0.021784	110.701
0.027691	115.129
0.033968	123.985
0.039137	132.841
0.044675	137.269
0.050214	150.554
0.055752	154.982
0.059813	168.266
0.064613	177.122
0.069044	190.406
0.072736	208.118
0.075689	221.402
0.078643	239.114
0.081966	265.683
0.085289	287.823
0.086766	301.107
0.089351	332.103
0.091566	354.244
0.093781	380.812
0.095258	398.524
0.096735	420.664
0.098581	442.804
0.100427	478.229
