Adsorption isotherm of Carbon Tetrachloride on HKUST-1 replica
DOI: 10.1002/chem.201501599
Article source: Figure 5
Adsorbate Carbon Tetrachloride: InChIKey VZGDMQKNWNREIO-UHFFFAOYSA-N
Kind: experiment
Temperature: 303 K
Tabular data in the source: 0
pressure (bar)	uptake (mg/g)
0	0
0.00401	39.5604
0.005347	92.3077
0.00802	114.286
0.010025	79.1209
0.013367	145.055
0.016709	105.495
0.021388	184.615
0.026066	210.989
0.031413	224.176
0.036092	241.758
0.03676	162.637
0.040102	259.341
0.042107	180.22
0.045449	285.714
0.047454	197.802
0.051464	312.088
0.052132	219.78
0.058816	360.44
0.059484	250.549
0.064831	395.604
0.066836	281.319
0.070846	435.165
0.074188	316.484
0.076862	474.725
0.082877	351.648
0.083545	514.286
0.088892	386.813
0.093571	589.011
0.095576	421.978
0.100254	628.571
0.10226	465.934
0.105601	668.132
0.108943	514.286
0.111617	712.088
0.115627	549.451
0.117632	751.648
0.121642	593.407
0.122979	804.396
0.128326	641.758
0.130331	852.747
0.133004	690.11
0.137683	896.703
0.139688	738.462
0.145035	791.209
0.145703	949.451
0.149713	839.56
0.154392	887.912
0.161075	949.451
0.16308	1063.74
0.165086	1002.2
0.169096	1063.74
0.173774	1125.27
