Adsorption isotherm of Nitrogen on HKUST-1 replica
DOI: 10.1002/chem.201501599
Article source: Figure 4a
Adsorbate Nitrogen: InChIKey IJGRMHOSHXDMSA-UHFFFAOYSA-N
Kind: experiment
Temperature: 77 K
Tabular data in the source: 0
pressure (bar)	uptake (mg/g)
0	0
0.000184	35.5072
0.000513	98.913
0.007856	114.13
0.018922	147.101
0.040804	164.855
0.088109	182.609
0.117215	192.754
0.146321	202.899
0.182678	210.507
0.208153	220.652
0.237246	228.261
0.266339	235.87
0.33179	251.087
0.400897	271.377
0.437267	281.522
0.459149	299.275
0.480914	294.203
0.517323	311.957
0.532021	344.928
0.568246	327.174
0.583023	375.362
0.611932	347.464
0.641314	410.87
0.651986	367.754
0.69204	388.043
0.706896	451.449
0.735739	410.87
0.772188	436.232
0.776122	494.565
0.8159	461.594
0.848968	535.145
0.852375	492.029
0.892469	519.928
0.929062	573.188
0.932576	550.362
0.972696	583.333
1.00558	621.377
