Adsorption isotherm of Nitrogen on sepiolite
DOI: 10.1016/j.apcatb.2016.12.025
Article source: Figure 4
Adsorbate Nitrogen: InChIKey IJGRMHOSHXDMSA-UHFFFAOYSA-N
Kind: experiment
Temperature: 77 K
Tabular data in the source: 0
pressure (bar)	uptake (cm3(STP)/g)
0.009899	9.428
0.03217	10.589
0.054856	11.544
0.085385	12.089
0.118801	12.77
0.137353	13.248
0.153859	13.52
0.191804	14.543
0.227278	15.156
0.262751	16.11
0.297403	16.45
0.332056	17.473
0.367113	18.428
0.405059	19.314
0.437644	20.405
0.4756	21.155
0.510242	22.178
0.546131	23.132
0.583256	24.018
0.617077	25.041
0.653381	26.474
0.68927	27.907
0.725564	29.272
0.763104	31.661
0.777127	33.642
0.797341	32.957
0.814252	36.236
0.830332	35.825
0.852197	40.607
0.866636	39.376
0.892625	47.71
0.902524	45.045
0.92975	59.255
0.937167	52.901
0.970168	68.067
0.977595	98.335
1.00606	123.751
