Adsorption isotherm of Nitrogen on Ag@Pt/sepiolite
DOI: 10.1016/j.apcatb.2016.12.025
Article source: Figure 4
Adsorbate Nitrogen: InChIKey IJGRMHOSHXDMSA-UHFFFAOYSA-N
Kind: experiment
Temperature: 77 K
Tabular data in the source: 0
pressure (bar)	uptake (cm3(STP)/g)
0.009889	5.756
0.030843	7.003
0.053103	7.977
0.082244	8.898
0.12022	10.034
0.136918	10.63
0.152299	10.25
0.19454	11.223
0.225312	11.71
0.263288	12.304
0.297342	13.007
0.331711	13.765
0.366414	14.468
0.368704	14.468
0.40439	14.954
0.437138	15.982
0.440076	15.711
0.476097	16.577
0.508175	17.28
0.543213	18.688
0.547793	18.362
0.581513	19.065
0.617858	19.877
0.658123	21.23
0.686281	22.801
0.688571	22.367
0.724915	24.209
0.758301	25.943
0.759943	26.376
0.798901	28.435
0.799226	29.14
0.829673	30.223
0.837202	33.043
0.867983	34.397
0.874205	38.68
0.903011	40.089
0.936083	49.903
0.939021	62.05
0.949174	54.945
0.955395	73.871
0.95736	59.283
0.96423	81.734
0.965872	65.14
0.974707	98.925
0.976997	73.111
0.986167	116.007
0.986501	88.187
0.993371	127.612
0.996643	112.047
1.00417	136.939
