Adsorption isotherm of Methane on Amino-MIL-53(Al)
DOI: 10.1007/s10450-013-9564-x
Adsorbate Methane: InChIKey VNWKTOKETHGBQD-UHFFFAOYSA-N
Temperature: 303 K
Tabular data in the source: 0
pressure (bar)	uptake (mmol/g)
0.180448	0.0639838
3.03171	0.12953
7.25944	0.238774
10.209	0.500959
13.1586	0.784992
14.9283	0.970706
17.1897	1.22197
19.1561	1.70264
21.4174	2.20516
23.1872	2.37995
25.1536	2.62029
29.5779	2.81693
35.1821	2.95894
39.9998	3.15558
