Adsorption isotherm of Methane on Zeolite 13X
DOI: 10.1007/s10450-013-9564-x
Adsorbate Methane: InChIKey VNWKTOKETHGBQD-UHFFFAOYSA-N
Temperature: 333 K
Tabular data in the source: 0
pressure (bar)	uptake (mmol/g)
0.475406	0.0967569
2.14683	0.522807
3.42499	0.784992
5.29305	1.13457
7.35776	1.38583
9.6191	1.71356
15.125	2.08499
19.8443	2.28163
25.2519	2.45642
29.4796	2.55474
34.6905	2.66398
39.3115	2.67491
