Adsorption isotherm of Carbon Dioxide on Amino-MIL-53(Al)
DOI: 10.1007/s10450-013-9564-x
Adsorbate Carbon Dioxide: InChIKey CURLTUGMZLYLDI-UHFFFAOYSA-N
Temperature: 303 K
Tabular data in the source: 0
pressure (bar)	uptake (mmol/g)
0.377087	1.76288
0.770364	1.99011
2.44179	2.19985
5.09641	2.39212
10.209	2.61935
13.2569	2.96893
15.4199	3.51078
19.0578	4.17498
23.0889	5.41599
24.9569	6.08019
30.2662	7.02405
34.8872	7.46103
39.9015	7.75817
