Adsorption isotherm of Methane on Amino-MIL-53(Al)
DOI: 10.1007/s10450-013-9564-x
Adsorbate Methane: InChIKey VNWKTOKETHGBQD-UHFFFAOYSA-N
Temperature: 333 K
Tabular data in the source: 0
pressure (bar)	uptake (mmol/g)
1.06532	0.0530594
9.32415	0.107681
13.0603	0.118606
15.2233	0.216925
17.288	0.271547
19.3527	0.358942
23.2855	0.588354
29.7746	0.894236
34.8872	1.49508
39.9998	2.3144
