Adsorption isotherm of Carbon Dioxide on Zeolite 13X
DOI: 10.1007/s10450-013-9564-x
Adsorbate Carbon Dioxide: InChIKey CURLTUGMZLYLDI-UHFFFAOYSA-N
Temperature: 318 K
Tabular data in the source: 0
pressure (bar)	uptake (mmol/g)
0.278768	0.469433
0.672045	3.56321
1.06532	4.20994
2.14683	4.78674
5.39137	5.2412
10.209	5.45095
20.2376	5.73061
30.1678	5.80053
39.8031	5.818
