Adsorption isotherm of Carbon Dioxide on Zeolite 13X
DOI: 10.1007/s10450-013-9564-x
Adsorbate Carbon Dioxide: InChIKey CURLTUGMZLYLDI-UHFFFAOYSA-N
Temperature: 333 K
Tabular data in the source: 0
pressure (bar)	uptake (mmol/g)
0.278768	0.469433
0.475406	2.86405
0.967003	3.61565
1.85188	4.19246
3.22835	4.55952
4.70314	4.76926
7.0628	4.99649
10.0124	5.1538
14.9283	5.32859
20.041	5.39851
25.0552	5.41599
34.7889	5.50338
39.7048	5.53834
