Adsorption isotherm of Methane on Zeolite 13X
DOI: 10.1007/s10450-013-9564-x
Adsorbate Methane: InChIKey VNWKTOKETHGBQD-UHFFFAOYSA-N
Temperature: 318 K
Tabular data in the source: 0
pressure (bar)	uptake (mmol/g)
0.672045	0.140454
2.04852	0.741295
5.09641	1.51692
7.0628	1.85558
10.1107	2.19424
15.125	2.57659
19.6477	2.7623
25.0552	2.91524
29.7746	3.01356
34.8872	3.05726
39.6065	3.06819
