Adsorption isotherm of Carbon Dioxide on Zeolite 13X
DOI: 10.1007/s10450-013-9564-x
Adsorbate Carbon Dioxide: InChIKey CURLTUGMZLYLDI-UHFFFAOYSA-N
Temperature: 303 K
Tabular data in the source: 0
pressure (bar)	uptake (mmol/g)
0.278768	0.469433
0.475406	4.41968
1.06532	4.85666
1.9502	5.27616
3.03171	5.52086
4.89978	5.74809
7.16112	5.9054
10.209	6.06271
14.7317	6.20254
20.5325	6.30742
30.1678	6.34237
40.0981	6.32489
