Adsorption isotherm of Methane on Zeolite 13X
DOI: 10.1007/s10450-013-9564-x
Adsorbate Methane: InChIKey VNWKTOKETHGBQD-UHFFFAOYSA-N
Temperature: 303 K
Tabular data in the source: 0
pressure (bar)	uptake (mmol/g)
0.278768	0.107681
1.4586	0.752219
3.03171	1.34214
5.19473	1.92113
7.16112	2.28163
10.1107	2.60936
15.2233	3.03541
20.4342	3.26482
25.3502	3.40684
34.9855	3.53793
39.9998	3.57071
