Adsorption isotherm of Carbon Dioxide on Amino-MIL-53(Al)
DOI: 10.1007/s10450-013-9564-x
Adsorbate Carbon Dioxide: InChIKey CURLTUGMZLYLDI-UHFFFAOYSA-N
Temperature: 318 K
Tabular data in the source: 0
pressure (bar)	uptake (mmol/g)
0.180448	0.993803
0.573726	1.7454
2.24515	2.04254
4.60482	2.19985
10.209	2.39212
15.3216	2.39212
20.4342	2.54943
24.8586	2.84658
30.1678	3.24859
35.0838	3.77296
40.0981	4.34977
