Adsorption isotherm of Methane on Amino-MIL-53(Al)
DOI: 10.1007/s10450-013-9564-x
Adsorbate Methane: InChIKey VNWKTOKETHGBQD-UHFFFAOYSA-N
Temperature: 318 K
Tabular data in the source: 0
pressure (bar)	uptake (mmol/g)
0.278768	0.0312107
5.39137	0.0530594
9.91406	0.107681
14.1418	0.227849
18.4678	0.413564
21.3191	0.566505
25.4485	0.784992
29.9712	1.17827
35.2804	2.24886
40.0981	2.51104
