Adsorption isotherm of Carbon Dioxide on Amino-MIL-53(Al)
DOI: 10.1007/s10450-013-9564-x
Adsorbate Carbon Dioxide: InChIKey CURLTUGMZLYLDI-UHFFFAOYSA-N
Temperature: 333 K
Tabular data in the source: 0
pressure (bar)	uptake (mmol/g)
0.377087	0.591786
0.770364	1.06372
1.36028	1.48321
2.63843	1.81532
5.19473	1.99011
10.4057	2.23481
15.0267	2.33968
19.1561	2.4096
23.4821	2.497
25.6452	2.67179
30.6594	2.93397
35.0838	3.21363
39.7048	3.59817
