Adsorption isotherm of Nitrogen on Silica Gel
DOI: 10.1016/j.cej.2016.03.075
Article source: Figure 3_N2 at 288.15 K
Adsorbate Nitrogen: InChIKey IJGRMHOSHXDMSA-UHFFFAOYSA-N
Kind: experiment
Temperature: 288 K
Tabular data in the source: 0
pressure (bar)	uptake (mmol/g)
1.5023	0.26331
2.00334	0.31623
2.50108	0.38052
3.00212	0.45389
