Adsorption isotherm of Nitrogen on Silica Gel
DOI: 10.1016/j.cej.2016.03.075
Article source: Figure 3_N2 at 303.15 K
Adsorbate Nitrogen: InChIKey IJGRMHOSHXDMSA-UHFFFAOYSA-N
Kind: experiment
Temperature: 303 K
Tabular data in the source: 0
pressure (bar)	uptake (mmol/g)
0.99596	0.11766
1.49968	0.16163
1.99949	0.22905
2.5006	0.28023
3.00039	0.3242
