Adsorption isotherm of Carbon Dioxide on Silica Gel
DOI: 10.1016/j.cej.2016.03.075
Article source: Figure 3_CO2 at 318.15 K
Adsorbate Carbon Dioxide: InChIKey CURLTUGMZLYLDI-UHFFFAOYSA-N
Kind: experiment
Temperature: 318 K
Tabular data in the source: 0
pressure (bar)	uptake (mmol/g)
0.9978	0.95991
1.50185	1.33633
2.00261	1.6197
2.50172	1.76465
2.99918	2.06165
