Adsorption isotherm of Carbon Dioxide on Silica Gel
DOI: 10.1016/j.cej.2016.03.075
Article source: Figure 3_CO2 at 288.15 K
Adsorbate Carbon Dioxide: InChIKey CURLTUGMZLYLDI-UHFFFAOYSA-N
Kind: experiment
Temperature: 288 K
Tabular data in the source: 0
pressure (bar)	uptake (mmol/g)
0.99775	1.73763
1.5017	2.20999
2.00172	2.64991
2.50029	2.86101
3.00406	2.99463
