Adsorption isotherm of Nitrogen on Silica Gel
DOI: 10.1016/j.cej.2016.03.075
Article source: Figure 3_N2 at 333.15 K
Adsorbate Nitrogen: InChIKey IJGRMHOSHXDMSA-UHFFFAOYSA-N
Kind: experiment
Temperature: 333 K
Tabular data in the source: 0
pressure (bar)	uptake (mmol/g)
0.99873	0.05114
1.49941	0.09831
2.00526	0.12403
2.49969	0.14404
2.99724	0.17978
