Adsorption isotherm of Carbon Dioxide on Silica Gel
DOI: 10.1016/j.cej.2016.03.075
Article source: Figure 3_CO2 at 303.15 K
Adsorbate Carbon Dioxide: InChIKey CURLTUGMZLYLDI-UHFFFAOYSA-N
Kind: experiment
Temperature: 303 K
Tabular data in the source: 0
pressure (bar)	uptake (mmol/g)
0.99381	1.23374
1.4975	1.7081
2.00406	2.15199
2.5	2.33381
3.00378	2.476
