Adsorption isotherm of Carbon Dioxide on Silica Gel
DOI: 10.1016/j.cej.2016.03.075
Article source: Figure 3_CO2 at 333.15 K
Adsorbate Carbon Dioxide: InChIKey CURLTUGMZLYLDI-UHFFFAOYSA-N
Kind: experiment
Temperature: 333 K
Tabular data in the source: 0
pressure (bar)	uptake (mmol/g)
0.99598	0.67878
1.4988	1.04235
2.00054	1.25285
2.49914	1.38036
2.99882	1.62233
