Adsorption isotherm of Carbon Dioxide on Ni/DOBDC loaded with 19.9 mmol/g water
DOI: 10.1080/15422119.2014.884507
Article source: Figure 4
Adsorbate Carbon Dioxide: InChIKey CURLTUGMZLYLDI-UHFFFAOYSA-N
Kind: experiment
Temperature: 298 K
Tabular data in the source: 0
pressure (bar)	uptake (mmol/g)
0	0
0.080111	0.187658
0.212707	0.284343
0.414365	0.475752
0.632597	0.57508
0.870166	0.675005
