Adsorption isotherm of Carbon Dioxide on Ni-DOBDC
DOI: 10.1080/15422119.2014.884507
Article source: Figure 4
Adsorbate Carbon Dioxide: InChIKey CURLTUGMZLYLDI-UHFFFAOYSA-N
Kind: experiment
Temperature: 298 K
Tabular data in the source: 0
pressure (bar)	uptake (mmol/g)
0	0
0.013812	0.710303
0.024862	1.35879
0.052486	2.31643
0.096685	3.27459
0.198895	4.29626
0.422652	5.1365
0.69337	5.8856
0.950276	6.6034
