Adsorption isotherm of Carbon Dioxide on HKUST-1 loaded with 16.2mmol/g water
DOI: 10.1080/15422119.2014.884507
Article source: Figure 3
Adsorbate Carbon Dioxide: InChIKey CURLTUGMZLYLDI-UHFFFAOYSA-N
Kind: experiment
Temperature: 298 K
Tabular data in the source: 0
pressure (bar)	uptake (mmol/g)
0	0
0.09915	0.07297
0.206799	0.166998
0.393768	0.418797
0.609065	0.617427
0.685552	0.722358
0.798867	0.795178
0.994334	1.00459
