Adsorption isotherm of Carbon Dioxide on Ni/DOBDC loaded with 1 mmol/g water
DOI: 10.1080/15422119.2014.884507
Article source: Figure 4
Adsorbate Carbon Dioxide: InChIKey CURLTUGMZLYLDI-UHFFFAOYSA-N
Kind: experiment
Temperature: 298 K
Tabular data in the source: 0
pressure (bar)	uptake (mmol/g)
0	0
0.019337	0.679609
0.033149	1.35905
0.063536	2.25505
0.127072	3.15207
0.262431	4.17477
0.436464	4.95174
0.718232	5.79377
1	6.38889
