Adsorption isotherm of Carbon Dioxide on Ni/DOBDC loaded with 10 mmol/g water
DOI: 10.1080/15422119.2014.884507
Article source: Figure 4
Adsorbate Carbon Dioxide: InChIKey CURLTUGMZLYLDI-UHFFFAOYSA-N
Kind: experiment
Temperature: 298 K
Tabular data in the source: 0
pressure (bar)	uptake (mmol/g)
0	0
0.030387	0.402172
0.077348	0.588807
0.146409	0.992173
0.29558	1.67579
0.433702	2.38993
0.70442	3.13903
0.997238	3.58016
