Adsorption isotherm of Carbon Dioxide on CuBTC
DOI: 10.1080/15422119.2014.884507
Article source: Figure 3
Adsorbate Carbon Dioxide: InChIKey CURLTUGMZLYLDI-UHFFFAOYSA-N
Kind: experiment
Temperature: 298 K
Tabular data in the source: 0
pressure (bar)	uptake (mmol/g)
0	0
0.019886	0.126888
0.048295	0.274924
0.110795	0.539275
0.235795	1.03625
0.372159	1.46979
0.519886	1.89275
0.659091	2.31571
0.823864	2.6858
0.994318	3.09819
