Adsorption isotherm of Carbon Dioxide on Ni/DOBDC loaded with 3.4 mmol/g water
DOI: 10.1080/15422119.2014.884507
Article source: Figure 4
Adsorbate Carbon Dioxide: InChIKey CURLTUGMZLYLDI-UHFFFAOYSA-N
Kind: experiment
Temperature: 298 K
Tabular data in the source: 0
pressure (bar)	uptake (mmol/g)
0	0
0.055249	1.26714
0.116022	2.10235
0.237569	2.84684
0.411602	3.74727
0.646409	4.49526
0.997238	5.06164
