Adsorption isotherm of Carbon Dioxide on HKUST-1 loaded with 25.4mmol/g water
DOI: 10.1080/15422119.2014.884507
Article source: Figure 3
Adsorbate Carbon Dioxide: InChIKey CURLTUGMZLYLDI-UHFFFAOYSA-N
Kind: experiment
Temperature: 298 K
Tabular data in the source: 0
pressure (bar)	uptake (mmol/g)
0	0
0.130312	0.01977
0.260623	0.028966
0.538244	0.057753
0.798867	0.097293
0.932011	0.085311
1	0.095166
