Adsorption isotherm of Carbon Dioxide on Ni/DOBDC loaded with 26.7 mmol/g water
DOI: 10.1080/15422119.2014.884507
Article source: Figure 4
Adsorbate Carbon Dioxide: InChIKey CURLTUGMZLYLDI-UHFFFAOYSA-N
Kind: experiment
Temperature: 298 K
Tabular data in the source: 0
pressure (bar)	uptake (mmol/g)
0	0
0.254144	0.162165
0.502762	0.169838
0.779006	0.270957
0.994475	0.308471
