Adsorption isotherm of Carbon Dioxide on HKUST-1 loaded with 10mmol/g water
DOI: 10.1080/15422119.2014.884507
Article source: Figure 3
Adsorbate Carbon Dioxide: InChIKey CURLTUGMZLYLDI-UHFFFAOYSA-N
Kind: experiment
Temperature: 298 K
Tabular data in the source: 0
pressure (bar)	uptake (mmol/g)
0	0
0.036932	0.074018
0.079546	0.179758
0.161932	0.370091
0.326705	0.719033
0.497159	1.01511
0.707386	1.27946
0.926136	1.51208
0.997159	1.53323
