Adsorption isotherm of Nitrogen on TpPa-Gly
DOI: 10.1039/d0gc02670k
Article source: Figure 1c
Adsorbate Nitrogen: InChIKey IJGRMHOSHXDMSA-UHFFFAOYSA-N
Kind: experiment
Temperature: 77 K
Tabular data in the source: 0
pressure (bar)	uptake (cm3(STP)/g)
0	28.4238
0	80.1034
0.006153	147.287
0.024613	165.375
0.043073	175.711
0.069738	183.463
0.094351	188.63
0.14768	201.55
0.201009	214.47
0.250236	222.222
0.29536	229.974
0.348689	235.142
0.402018	242.894
0.455347	250.646
0.500472	255.814
0.553801	258.398
0.603027	268.734
0.656356	281.654
0.701481	291.99
0.752759	307.494
0.804036	317.829
0.853263	341.085
0.90249	364.341
0.925052	387.597
0.941461	408.269
0.95787	426.357
0.968126	444.444
0.978381	483.204
0.988637	555.556
0.996841	780.362
0.047176	188.63
0.065636	196.382
0.094351	196.382
0.151782	209.302
0.201009	219.638
0.250236	229.974
0.297411	235.142
0.35074	248.062
0.402018	258.398
0.449194	263.566
0.500472	271.318
0.551749	281.654
0.603027	291.99
0.656356	302.326
0.705583	307.494
0.75481	330.749
0.808139	341.085
0.855314	364.341
0.906592	390.181
0.931205	410.853
0.93941	428.941
0.947614	439.276
0.961972	462.532
0.966074	488.372
0.980432	550.388
1.00094	785.53
