Adsorption isotherm of Nitrogen on 3D-COF-HNU10
DOI: 10.1039/d0gc02670k
Article source: Figure 6a
Adsorbate Nitrogen: InChIKey IJGRMHOSHXDMSA-UHFFFAOYSA-N
Kind: experiment
Temperature: 77 K
Tabular data in the source: 0
pressure (bar)	uptake (cm3(STP)/g)
0.010919	12.7168
0.024021	18.4971
0.054593	24.2775
0.074247	30.0578
0.100452	38.1503
0.152861	47.3988
0.203087	58.9595
0.253312	68.2081
0.305722	78.6127
0.355948	91.3295
0.406173	102.89
0.456399	112.139
0.506625	123.699
0.556851	132.948
0.607077	144.509
0.659486	154.913
0.709712	166.474
0.757754	176.879
0.810163	188.439
0.860389	203.468
0.912798	217.341
0.932452	225.434
0.947738	236.994
0.960841	243.931
0.971759	253.179
0.980494	271.676
0.993596	299.422
0.050226	28.9017
0.074247	35.8382
0.098268	41.6185
0.148494	53.1792
0.200903	63.5838
0.253312	73.9884
0.303538	84.3931
0.353764	95.9538
0.40399	107.514
0.454216	116.763
0.506625	128.324
0.556851	141.04
0.607077	152.601
0.657302	163.006
0.709712	174.566
0.757754	188.439
0.810163	202.312
0.858205	216.185
0.910615	234.682
0.928085	239.306
0.943371	247.399
0.952106	254.335
0.963024	261.272
0.971759	276.301
0.982678	294.798
0.989229	321.387
1.00233	357.225
