Adsorption isotherm of Nitrogen on TpPa-U
DOI: 10.1039/d0gc02670k
Article source: Figure 1c
Adsorbate Nitrogen: InChIKey IJGRMHOSHXDMSA-UHFFFAOYSA-N
Kind: experiment
Temperature: 77 K
Tabular data in the source: 0
pressure (bar)	uptake (cm3(STP)/g)
0	69.7674
0	126.615
0.002051	204.134
0.020511	217.054
0.045124	229.974
0.069738	235.142
0.096402	248.062
0.145629	258.398
0.201009	276.486
0.246134	286.822
0.297411	297.158
0.35074	307.494
0.402018	317.829
0.453296	333.333
0.500472	341.085
0.551749	351.421
0.60713	364.341
0.654305	374.677
0.703532	387.597
0.752759	400.517
0.801985	418.605
0.859416	441.86
0.906592	470.284
0.923001	498.708
0.951717	527.132
0.972228	565.891
0.980432	612.403
0.984534	689.922
0.996841	909.561
0.045124	240.31
0.069738	250.646
0.094351	260.982
0.14768	279.07
0.205111	286.822
0.248185	299.742
0.297411	307.494
0.352791	328.165
0.399967	333.333
0.451245	346.253
0.496369	356.589
0.549698	374.677
0.603027	385.013
0.65328	395.349
0.703532	413.437
0.752759	423.773
0.801985	441.86
0.855314	467.7
0.904541	503.876
0.923001	527.132
0.935308	540.052
0.945563	555.556
0.955819	576.227
0.966074	620.155
0.97633	700.258
0.988637	806.202
0.99479	912.145
