Adsorption isotherm of Nitrogen on 3D-COF-1
DOI: 10.1039/d0gc02670k
Article source: Figure 6a
Adsorbate Nitrogen: InChIKey IJGRMHOSHXDMSA-UHFFFAOYSA-N
Kind: experiment
Temperature: 77 K
Tabular data in the source: 0
pressure (bar)	uptake (cm3(STP)/g)
0.004367	11.6279
0.021837	24.9169
0.052409	31.5615
0.074247	38.206
0.104819	51.495
0.152861	68.1063
0.200903	84.7176
0.253312	98.0066
0.303538	117.94
0.353764	134.551
0.406173	147.841
0.454216	167.774
0.506625	181.063
0.559034	200.997
0.60926	217.608
0.659486	234.219
0.709712	250.831
0.759937	272.425
0.810163	292.359
0.860389	313.953
0.912798	342.193
0.932452	355.482
0.941187	365.449
0.952106	375.415
0.960841	387.043
0.971759	400.332
0.984862	423.588
0.993596	470.1
0.052409	48.1728
0.074247	54.8173
0.098268	66.4452
0.150677	83.0565
0.203087	99.6678
0.255496	117.94
0.303538	134.551
0.353764	151.163
0.406173	167.774
0.454216	182.724
0.506625	202.658
0.556851	219.269
0.607077	237.542
0.659486	255.814
0.709712	275.747
0.759937	294.02
0.810163	315.615
0.862573	342.193
0.914982	373.754
0.932452	390.365
0.963024	418.605
0.973943	435.216
0.982678	458.472
0.993596	503.322
1.00233	546.512
