Adsorption isotherm of Nitrogen on TpPa-EG
DOI: 10.1039/d0gc02670k
Article source: Figure 1c
Adsorbate Nitrogen: InChIKey IJGRMHOSHXDMSA-UHFFFAOYSA-N
Kind: experiment
Temperature: 77 K
Tabular data in the source: 0
pressure (bar)	uptake (cm3(STP)/g)
0.004102	49.0956
0	111.111
0.016409	175.711
0.047176	186.047
0.067687	191.214
0.094351	204.134
0.14768	214.47
0.196907	224.806
0.248185	235.142
0.297411	245.478
0.348689	253.23
0.402018	258.398
0.449194	266.15
0.500472	281.654
0.553801	294.574
0.60713	304.91
0.656356	317.829
0.701481	322.997
0.75481	343.669
0.808139	366.925
0.851212	385.013
0.910694	426.357
0.929154	454.78
0.947614	483.204
0.972228	532.3
0.980432	594.315
0.988637	674.419
0.047176	201.55
0.071789	209.302
0.096402	217.054
0.14768	229.974
0.201009	240.31
0.250236	248.062
0.299463	259.69
0.346638	271.318
0.399967	279.07
0.449194	288.114
0.447143	286.822
0.502523	304.91
0.555852	315.245
0.603027	322.997
0.65328	337.209
0.705583	354.005
0.75481	366.925
0.806088	387.597
0.857365	421.189
0.906592	467.7
0.947614	524.548
0.974279	586.563
0.984534	664.083
