Adsorption isotherm of Hydrogen on FJI-1
DOI: 10.1039/C1cc12858b
Adsorbate Hydrogen: InChIKey UFHFLCQGNIYNRP-UHFFFAOYSA-N
Temperature: 77 K
Tabular data in the source: 0
pressure (bar)	uptake (wt%)
0.661183	0.738329
1.56217	1.51061
2.46316	2.29718
4.26514	3.08376
5.8669	3.71303
8.66998	4.54251
12.6744	5.24328
17.1793	5.77243
22.0847	6.10137
26.4896	6.30158
31.6953	6.416
36.7008	6.5018
41.7063	6.5018
46.5116	6.4589
52.2178	6.30158
56.8229	6.25868
61.9285	6.18717
