Adsorption isotherm of Methane on FJI-1
DOI: 10.1039/C1cc12858b
Adsorbate Methane: InChIKey VNWKTOKETHGBQD-UHFFFAOYSA-N
Temperature: 273 K
Tabular data in the source: 0
pressure (bar)	uptake (mg/g)
12.1672	96.3449
16.0545	126.134
20.7869	157.19
25.5193	185.077
30.5897	207.894
35.6601	226.274
40.7306	244.655
45.2939	258.598
55.7728	282.683
65.7447	296.627
75.2094	307.401
85.3503	313.105
90.5897	319.443
99.8855	325.781
104.787	325.781
