Adsorption isotherm of Hydrogen on FJI-1
DOI: 10.1039/C1cc12858b
Adsorbate Hydrogen: InChIKey UFHFLCQGNIYNRP-UHFFFAOYSA-N
Temperature: 77 K
Tabular data in the source: 0
pressure (bar)	uptake (wt%)
0.661183	0.15197
0.661183	0.466601
4.06492	3.31259
5.66668	4.02766
8.66998	4.94295
12.6744	5.81534
16.7789	6.51611
21.5842	7.03096
32.0957	7.84614
41.7063	8.4468
46.6117	8.58981
57.2233	8.90445
61.6282	9.06176
