Adsorption isotherm of Nitrogen on FJI-1
DOI: 10.1039/C1cc12858b
Adsorbate Nitrogen: InChIKey IJGRMHOSHXDMSA-UHFFFAOYSA-N
Temperature: 77 K
Tabular data in the source: 0
pressure (bar)	uptake (cm3(STP)/g)
0.00182509	6.24214
0.00182509	209.435
0.00182509	395.15
0.0105646	574.309
0.0302285	685.738
0.0564469	827.755
0.0848503	856.158
0.104514	869.267
0.163506	888.931
0.218128	895.486
0.266195	899.856
0.35796	906.41
0.696615	912.965
0.801489	917.335
0.912918	915.15
0.985018	919.519
