Adsorption isotherm of Methane on FJI-1
DOI: 10.1039/C1cc12858b
Adsorbate Methane: InChIKey VNWKTOKETHGBQD-UHFFFAOYSA-N
Temperature: 298 K
Tabular data in the source: 0
pressure (bar)	uptake (mg/g)
1.35028	0.640663
5.57564	28.528
12.5052	72.2604
16.5616	100.148
25.8573	150.218
36.3362	195.852
45.97	233.88
55.7728	264.303
65.4066	290.289
75.7165	313.739
85.1813	328.317
90.5897	336.556
96.1672	345.429
101.238	354.303
106.139	360.641
