Adsorption isotherm of Hydrogen on FJI-1
DOI: 10.1039/C1cc12858b
Adsorbate Hydrogen: InChIKey UFHFLCQGNIYNRP-UHFFFAOYSA-N
Temperature: 77 K
Tabular data in the source: 0
pressure (bar)	uptake (wt%)
0.00421011	0.0135394
0.0168862	0.0541028
0.0520974	0.116638
0.130971	0.236638
0.233788	0.360018
0.325337	0.466497
0.425337	0.574666
0.535196	0.687906
0.643647	0.797765
0.698576	0.840018
0.743647	0.880582
0.795759	0.934666
0.850689	0.98368
0.905619	1.02424
