Adsorption isotherm of Methane on FJI-1
DOI: 10.1039/C1cc12858b
Adsorbate Methane: InChIKey VNWKTOKETHGBQD-UHFFFAOYSA-N
Temperature: 298 K
Tabular data in the source: 0
pressure (bar)	uptake (mg/g)
3.71648	12.6829
6.92775	34.2322
11.6601	63.3871
16.3925	88.7393
25.8573	127.401
35.9982	162.894
45.801	188.88
55.7728	207.26
66.0827	223.105
76.7306	231.979
85.3503	237.683
91.2658	241.486
96.1672	242.753
100.9	243.387
104.956	245.289
