Adsorption isotherm of Methane on FJI-1
DOI: 10.1039/C1cc12858b
Adsorbate Methane: InChIKey VNWKTOKETHGBQD-UHFFFAOYSA-N
Temperature: 273 K
Tabular data in the source: 0
pressure (bar)	uptake (mg/g)
5.23761	43.1055
8.27986	74.1618
11.9982	104.584
16.2235	137.542
25.1813	210.429
35.4911	262.401
45.1249	301.063
55.6038	335.289
65.0686	361.908
76.0545	387.894
85.5193	405.007
89.7447	415.781
95.4911	424.021
100.562	432.894
105.463	439.866
