Adsorption isotherm of Chloroethene, Acetylene on Al(III)/Activated carbon
DOI: 10.1016/j.jiec.2013.08.018
Article source: Table 2
Adsorbate Chloroethene: InChIKey BZHJMEDXRYGGRV-UHFFFAOYSA-N
Adsorbate Acetylene: InChIKey HSFWRNGVRCDJHI-UHFFFAOYSA-N
Kind: experiment
Temperature: 313 K
Tabular data in the source: 0
pressure (bar)	Chloroethene fraction	Chloroethene uptake (mmol/g)	Acetylene fraction	Acetylene uptake (mmol/g)	total uptake (mmol/g)
1	0.5	0.447	0.5	0.064	
