Adsorption isotherm of Carbon Dioxide, Nitrogen on Dry Coal
DOI: 10.1021/la801350h
Article source: Table S3
Adsorbate Carbon Dioxide: InChIKey CURLTUGMZLYLDI-UHFFFAOYSA-N
Adsorbate Nitrogen: InChIKey IJGRMHOSHXDMSA-UHFFFAOYSA-N
Kind: experiment
Temperature: 318 K
Tabular data in the source: 0
pressure (bar)	Carbon Dioxide fraction	Carbon Dioxide uptake (mmol/g)	Nitrogen fraction	Nitrogen uptake (mmol/g)	total uptake (mmol/g)
22.1	0.052	0.305	0.948	0.435	
39.7	0.063	0.413	0.937	0.543	
55.7	0.066	0.52	0.934	0.515	
77.6	0.071	0.605	0.929	0.499	
99.4	0.074	0.678	0.926	0.466	
117.3	0.077	0.702	0.923	0.483	
141	0.08	0.732	0.92	0.48	
162.7	0.082	0.744	0.918	0.493	
179.3	0.083	0.772	0.917	0.459	
