Adsorption isotherm of Carbon Dioxide, Nitrogen on Dry Coal
DOI: 10.1021/la801350h
Article source: Table S3
Adsorbate Carbon Dioxide: InChIKey CURLTUGMZLYLDI-UHFFFAOYSA-N
Adsorbate Nitrogen: InChIKey IJGRMHOSHXDMSA-UHFFFAOYSA-N
Kind: experiment
Temperature: 318 K
Tabular data in the source: 0
pressure (bar)	Carbon Dioxide fraction	Carbon Dioxide uptake (mmol/g)	Nitrogen fraction	Nitrogen uptake (mmol/g)	total uptake (mmol/g)
10.6	0.657	1.12	0.343	0.079	
20	0.691	1.354	0.309	0.086	
41.4	0.717	1.61	0.283	0.089	
63.4	0.728	1.737	0.272	0.081	
81.8	0.734	1.779	0.266	0.074	
102.9	0.737	1.793	0.263	0.054	
121.3	0.741	1.746	0.259	0.057	
141.8	0.743	1.678	0.257	0.055	
160.1	0.744	1.623	0.256	0.045	
182.5	0.745	1.555	0.255	0.037	
