Adsorption isotherm of Nitrogen, Methane on Dry Coal
DOI: 10.1021/la801350h
Article source: Table S4
Adsorbate Nitrogen: InChIKey IJGRMHOSHXDMSA-UHFFFAOYSA-N
Adsorbate Methane: InChIKey VNWKTOKETHGBQD-UHFFFAOYSA-N
Kind: experiment
Temperature: 318 K
Tabular data in the source: 0
pressure (bar)	Nitrogen fraction	Nitrogen uptake (mmol/g)	Methane fraction	Methane uptake (mmol/g)	total uptake (mmol/g)
10.4	0.528	0.212	0.472	0.338	
23.5	0.521	0.252	0.479	0.467	
41.8	0.515	0.292	0.485	0.566	
61.8	0.51	0.32	0.49	0.6	
82.2	0.509	0.332	0.491	0.635	
101.6	0.508	0.334	0.492	0.666	
121.4	0.507	0.319	0.493	0.708	
140.8	0.506	0.329	0.494	0.704	
160.9	0.506	0.325	0.494	0.72	
180.1	0.505	0.326	0.495	0.72	
