Adsorption isotherm of Nitrogen, Methane on Dry Coal
DOI: 10.1021/la801350h
Article source: Table S4
Adsorbate Nitrogen: InChIKey IJGRMHOSHXDMSA-UHFFFAOYSA-N
Adsorbate Methane: InChIKey VNWKTOKETHGBQD-UHFFFAOYSA-N
Kind: experiment
Temperature: 318 K
Tabular data in the source: 0
pressure (bar)	Nitrogen fraction	Nitrogen uptake (mmol/g)	Methane fraction	Methane uptake (mmol/g)	total uptake (mmol/g)
12.4	0.271	0.121	0.729	0.579	
20.4	0.262	0.147	0.738	0.654	
40.9	0.259	0.16	0.741	0.795	
59.3	0.257	0.17	0.743	0.858	
79.3	0.256	0.176	0.744	0.903	
100.9	0.255	0.177	0.745	0.941	
120.4	0.254	0.188	0.746	0.939	
140.7	0.253	0.188	0.747	0.947	
159.5	0.254	0.174	0.746	0.975	
179.5	0.253	0.173	0.747	0.977	
