Adsorption isotherm of Nitrogen, Methane on Dry Coal
DOI: 10.1021/la801350h
Article source: Table S4
Adsorbate Nitrogen: InChIKey IJGRMHOSHXDMSA-UHFFFAOYSA-N
Adsorbate Methane: InChIKey VNWKTOKETHGBQD-UHFFFAOYSA-N
Kind: experiment
Temperature: 318 K
Tabular data in the source: 0
pressure (bar)	Nitrogen fraction	Nitrogen uptake (mmol/g)	Methane fraction	Methane uptake (mmol/g)	total uptake (mmol/g)
10.6	0.769	0.297	0.231	0.157	
22.6	0.767	0.365	0.233	0.231	
41.7	0.762	0.422	0.238	0.293	
60.8	0.759	0.466	0.241	0.313	
81.9	0.758	0.482	0.242	0.355	
99.6	0.757	0.501	0.243	0.363	
119.8	0.756	0.508	0.244	0.385	
140.3	0.756	0.511	0.244	0.4	
159.2	0.755	0.523	0.245	0.394	
180.6	0.754	0.525	0.246	0.402	
