Adsorption isotherm of Carbon Dioxide, Nitrogen on Dry Coal
DOI: 10.1021/la801350h
Article source: Table S3
Adsorbate Carbon Dioxide: InChIKey CURLTUGMZLYLDI-UHFFFAOYSA-N
Adsorbate Nitrogen: InChIKey IJGRMHOSHXDMSA-UHFFFAOYSA-N
Kind: experiment
Temperature: 318 K
Tabular data in the source: 0
pressure (bar)	Carbon Dioxide fraction	Carbon Dioxide uptake (mmol/g)	Nitrogen fraction	Nitrogen uptake (mmol/g)	total uptake (mmol/g)
10.2	0.368	0.791	0.632	0.202	
20.6	0.409	1.057	0.591	0.225	
30.3	0.423	1.233	0.577	0.185	
41.3	0.439	1.341	0.561	0.188	
60.6	0.453	1.496	0.547	0.159	
80.7	0.463	1.556	0.537	0.129	
100.7	0.47	1.601	0.53	0.115	
119.7	0.475	1.626	0.525	0.104	
140.3	0.479	1.622	0.521	0.097	
161	0.482	1.615	0.518	0.079	
178.8	0.484	1.602	0.516	0.071	
