Adsorption isotherm of Carbon Dioxide, Nitrogen on Dry Coal
DOI: 10.1021/la801350h
Article source: Table S3
Adsorbate Carbon Dioxide: InChIKey CURLTUGMZLYLDI-UHFFFAOYSA-N
Adsorbate Nitrogen: InChIKey IJGRMHOSHXDMSA-UHFFFAOYSA-N
Kind: experiment
Temperature: 318 K
Tabular data in the source: 0
pressure (bar)	Carbon Dioxide fraction	Carbon Dioxide uptake (mmol/g)	Nitrogen fraction	Nitrogen uptake (mmol/g)	total uptake (mmol/g)
11.2	0.133	0.473	0.867	0.282	
21.3	0.165	0.648	0.835	0.361	
40.9	0.192	0.842	0.808	0.427	
61.4	0.201	1.016	0.799	0.369	
79.3	0.209	1.089	0.791	0.367	
102.1	0.216	1.148	0.784	0.345	
121.7	0.221	1.176	0.779	0.354	
140.4	0.224	1.217	0.776	0.311	
161.6	0.227	1.233	0.773	0.303	
181.9	0.229	1.241	0.771	0.286	
