Adsorption isotherm of Nitrogen on Ni0.02Zn0.98(nim)2
DOI: 10.1002/chem.201402287
Adsorbate Nitrogen: InChIKey IJGRMHOSHXDMSA-UHFFFAOYSA-N
Temperature: 273 K
Tabular data in the source: 0
pressure (bar)	uptake (ml/g)
0.100945	-0.0907372
0.129868	0.332703
0.192358	0.276533
0.278882	0.198758
0.350905	-0.31542
0.423008	-0.380232
0.490305	-0.440724
0.56249	-0.0561707
0.629706	-0.566028
0.706697	-0.185795
0.764461	0.21172
0.831758	0.151229
0.87502	0.112341
0.913476	0.0777748
0.942317	0.0518499
0.971159	0.0259249
1	0
