Adsorption isotherm of Nitrogen on Cu0.97Zn0.03(nim)2
DOI: 10.1002/chem.201402287
Adsorbate Nitrogen: InChIKey IJGRMHOSHXDMSA-UHFFFAOYSA-N
Temperature: 273 K
Tabular data in the source: 0
pressure (bar)	uptake (ml/g)
0.00961383	-0.00864164
0.0192277	-0.0172833
0.0336484	-0.0302457
0.0481501	0.406157
0.0625709	0.393195
0.0817985	0.375911
0.0962193	0.362949
0.129949	0.782069
0.192439	0.725898
0.274237	1.10181
0.351229	1.48204
0.423332	1.41723
0.49071	1.8061
0.567621	1.73697
0.630111	1.6808
0.707102	2.06103
0.764866	2.45855
0.832244	2.84742
0.870699	2.81285
0.913962	2.77397
0.942884	3.19741
0.976533	3.16716
0.99576	3.14988
