Adsorption isotherm of Carbon Dioxide on Co0.06Zn0.94(nim)2
DOI: 10.1002/chem.201402287
Adsorbate Carbon Dioxide: InChIKey CURLTUGMZLYLDI-UHFFFAOYSA-N
Temperature: 273 K
Tabular data in the source: 0
pressure (bar)	uptake (ml/g)
0.0775587	3.52579
0.0969484	4.40724
0.130759	5.27572
0.193654	7.46638
0.270888	9.19471
0.35293	10.9187
0.425358	12.6514
0.492817	13.4896
0.565082	14.3235
0.632622	15.6111
0.704888	16.445
0.762733	17.2919
0.834999	18.1258
0.873535	18.5406
0.916878	18.9511
0.945801	19.3746
0.974723	19.798
1.00365	20.2214
