Adsorption isotherm of Carbon Dioxide on ZIF-108
DOI: 10.1002/chem.201402287
Adsorbate Carbon Dioxide: InChIKey CURLTUGMZLYLDI-UHFFFAOYSA-N
Temperature: 273 K
Tabular data in the source: 0
pressure (bar)	uptake (ml/g)
0.0196327	2.22954
0.0295706	4.01836
0.0491223	5.79854
0.0589792	7.138
0.0785309	8.91817
0.0931947	10.2533
0.12741	13.3686
0.185822	17.3611
0.268512	22.68
0.346314	27.5539
0.419147	31.5334
0.491898	35.0635
0.564569	38.1442
0.632271	40.3305
0.704861	42.9619
0.767756	45.1526
0.835377	46.8895
0.878882	48.1988
0.917499	49.0629
0.946503	49.9357
0.980313	50.8042
1.00932	51.677
