Adsorption isotherm of Carbon Dioxide on Ni0.02Zn0.98(nim)2
DOI: 10.1002/chem.201402287
Adsorbate Carbon Dioxide: InChIKey CURLTUGMZLYLDI-UHFFFAOYSA-N
Temperature: 273 K
Tabular data in the source: 0
pressure (bar)	uptake (ml/g)
0.0434243	0.859843
0.057926	1.29625
0.0772347	1.72833
0.0965433	2.16041
0.135161	3.02457
0.193006	3.87146
0.274885	4.69673
0.356765	5.52201
0.424305	6.80961
0.491763	7.64785
0.563948	8.03241
0.631407	8.87065
0.703592	9.2552
0.761356	9.65271
0.833621	10.4866
0.876884	10.4477
0.915339	10.4132
0.944261	10.8366
0.973184	11.2601
1.00211	11.6835
