Adsorption isotherm of Carbon Dioxide on Cu0.97Zn0.03(nim)2
DOI: 10.1002/chem.201402287
Adsorbate Carbon Dioxide: InChIKey CURLTUGMZLYLDI-UHFFFAOYSA-N
Temperature: 273 K
Tabular data in the source: 0
pressure (bar)	uptake (ml/g)
0.0291655	1.77154
0.0438293	3.10667
0.0536052	3.99676
0.0729949	4.87821
0.0923846	5.75965
0.131164	7.52255
0.189414	10.6163
0.266973	14.142
0.344531	17.6678
0.422009	20.7443
0.489873	23.8293
0.557656	26.465
0.625439	29.1007
0.698191	32.6308
0.761086	34.8215
0.82895	37.9066
0.877343	39.6608
0.916122	41.4237
0.949932	42.2922
0.979098	44.0637
1.0081	44.9365
