Adsorption isotherm of Nitrogen on CMK-3 carbon
DOI: 10.1007/s10450-021-00322-y
Article source: Figure 9
Adsorbate Nitrogen: InChIKey IJGRMHOSHXDMSA-UHFFFAOYSA-N
Kind: experiment
Temperature: 318 K
Tabular data in the source: 0
pressure (bar)	uptake (mmol/g)
0.006969	0.031689
0.04296	0.038223
0.07895	0.044757
0.121583	0.067625
0.164053	0.065501
0.199989	0.063705
0.236034	0.078569
0.294838	0.075629
0.360231	0.080693
0.399488	0.087063
0.448601	0.101274
0.500926	0.106991
0.563051	0.112218
0.605521	0.110095
0.657846	0.115812
0.713438	0.121366
0.762441	0.118915
0.804966	0.125123
0.863824	0.130513
0.912991	0.153055
0.958619	0.134107
1.01432	0.156321
