Adsorption isotherm of Nitrogen on CMK-3 carbon
DOI: 10.1007/s10450-021-00322-y
Article source: Figure 9
Adsorbate Nitrogen: InChIKey IJGRMHOSHXDMSA-UHFFFAOYSA-N
Kind: experiment
Temperature: 313 K
Tabular data in the source: 0
pressure (bar)	uptake (mmol/g)
0.006969	0.031689
0.056027	0.037569
0.092018	0.044103
0.131275	0.050474
0.180388	0.064685
0.206523	0.063378
0.255635	0.077589
0.301372	0.075302
0.36034	0.097354
0.399543	0.095394
0.455189	0.109278
0.507568	0.123326
0.566427	0.128716
0.602363	0.126919
0.664434	0.123816
0.706904	0.121692
0.759283	0.13574
0.795219	0.133943
0.863879	0.138844
0.906512	0.161712
0.965316	0.158772
1.00457	0.165142
