Adsorption isotherm of Nitrogen on CMK-3 carbon
DOI: 10.1007/s10450-021-00322-y
Article source: Figure 9
Adsorbate Nitrogen: InChIKey IJGRMHOSHXDMSA-UHFFFAOYSA-N
Kind: experiment
Temperature: 293 K
Tabular data in the source: 0
pressure (bar)	uptake (mmol/g)
0.052815	0.046063
0.098715	0.068768
0.131493	0.083796
0.17075	0.090167
0.200152	0.088697
0.255744	0.09425
0.298323	0.108788
0.354024	0.131003
0.399815	0.137047
0.452194	0.151094
0.501307	0.165305
0.553632	0.171023
0.596156	0.17723
0.65496	0.174289
0.697593	0.197158
0.762986	0.202221
0.80551	0.208429
0.857835	0.214146
0.907002	0.236687
0.955951	0.225907
0.998475	0.232114
