Adsorption isotherm of Carbon Dioxide on CMK-3 carbon
DOI: 10.1007/s10450-021-00322-y
Article source: Figure 7
Adsorbate Carbon Dioxide: InChIKey CURLTUGMZLYLDI-UHFFFAOYSA-N
Kind: experiment
Temperature: 303 K
Tabular data in the source: 0
pressure (bar)	uptake (mmol/g)
0.003757	0.040183
0.010726	0.106501
0.020745	0.139334
0.047533	0.237994
0.08739	0.336001
0.124034	0.442502
0.163835	0.532179
0.203528	0.605194
0.262932	0.693891
0.305891	0.766743
0.355276	0.822607
0.41457	0.894642
0.457421	0.950833
0.506915	1.02336
0.5661	1.07873
0.602254	1.11026
0.661385	1.1573
0.71077	1.21317
0.760046	1.25237
0.81248	1.27475
0.858434	1.30578
0.907601	1.32832
0.953664	1.37602
1.00621	1.41506
