Adsorption isotherm of Nitrogen on CMK-3 carbon
DOI: 10.1007/s10450-021-00322-y
Article source: Figure 9
Adsorbate Nitrogen: InChIKey IJGRMHOSHXDMSA-UHFFFAOYSA-N
Kind: experiment
Temperature: 308 K
Tabular data in the source: 0
pressure (bar)	uptake (mmol/g)
0.000436	0.032016
0.04296	0.038223
0.079059	0.061418
0.124687	0.04247
0.163999	0.057171
0.199935	0.055374
0.252314	0.069422
0.304693	0.083469
0.363498	0.080529
0.402701	0.078569
0.455189	0.109278
0.504138	0.098497
0.559839	0.120712
0.60563	0.126756
0.658009	0.140804
0.713547	0.138027
0.759447	0.160732
0.798595	0.150441
0.854187	0.155995
0.909724	0.153218
0.958837	0.167429
0.998149	0.18213
