Adsorption isotherm of Nitrogen on CMK-3 carbon
DOI: 10.1007/s10450-021-00322-y
Article source: Figure 9
Adsorbate Nitrogen: InChIKey IJGRMHOSHXDMSA-UHFFFAOYSA-N
Kind: experiment
Temperature: 323 K
Tabular data in the source: 0
pressure (bar)	uptake (mmol/g)
0.003757	0.040183
0.049548	0.046227
0.082163	0.036263
0.131275	0.050474
0.157465	0.057498
0.199935	0.055374
0.265327	0.060438
0.307797	0.058314
0.350376	0.072852
0.3929	0.079059
0.461668	0.100621
0.510672	0.098171
0.562997	0.103888
0.602254	0.110258
0.648045	0.116302
0.697049	0.113852
0.745998	0.103071
0.814712	0.116302
0.857182	0.114178
0.906185	0.111728
0.955243	0.117609
0.997822	0.132146
