Adsorption isotherm of Nitrogen on CMK-3 carbon
DOI: 10.1007/s10450-021-00322-y
Article source: Figure 9
Adsorbate Nitrogen: InChIKey IJGRMHOSHXDMSA-UHFFFAOYSA-N
Kind: experiment
Temperature: 298 K
Tabular data in the source: 0
pressure (bar)	uptake (mmol/g)
0.016933	0.056191
0.049548	0.046227
0.088805	0.052597
0.13133	0.058804
0.170533	0.056844
0.206686	0.08837
0.252423	0.086083
0.311391	0.108135
0.340793	0.106664
0.406294	0.128389
0.452085	0.134433
0.501252	0.156975
0.563269	0.145541
0.602526	0.151911
0.654906	0.165959
0.704127	0.196831
0.753076	0.18605
0.808777	0.208265
0.857672	0.189154
0.910106	0.211532
0.962376	0.208919
1.00822	0.223293
