Adsorption isotherm of Carbon Dioxide on CMK-3 carbon
DOI: 10.1007/s10450-021-00322-y
Article source: Figure 7
Adsorbate Carbon Dioxide: InChIKey CURLTUGMZLYLDI-UHFFFAOYSA-N
Kind: experiment
Temperature: 293 K
Tabular data in the source: 0
pressure (bar)	uptake (mmol/g)
-0.006044	0.040673
0.017478	0.139497
0.041109	0.254982
0.091364	0.444136
0.128008	0.550637
0.164489	0.632146
0.207666	0.738321
0.254002	0.827671
0.303713	0.933518
0.349831	0.989546
0.402646	1.07024
0.461886	1.13394
0.508004	1.18997
0.56071	1.254
0.623326	1.33421
0.659534	1.37406
0.715344	1.41294
0.771044	1.43515
0.810519	1.47485
0.866492	1.53871
0.915823	1.58625
0.961777	1.61728
1.02085	1.656
