Adsorption isotherm of Nitrogen on SBA-15 Silica
DOI: 10.1007/s10450-021-00322-y
Article source: Figure 3a
Adsorbate Nitrogen: InChIKey IJGRMHOSHXDMSA-UHFFFAOYSA-N
Kind: experiment
Temperature: 77 K
Tabular data in the source: 0
pressure (bar)	uptake (cm3(STP)/g)
0.006601	34.202
0.006601	48.1554
0.009901	69.0175
0.009901	75.9942
0.019803	75.7897
0.023103	89.675
0.036305	103.356
0.062709	130.717
0.085813	130.24
0.105616	143.785
0.138621	157.056
0.148522	156.852
0.168325	170.396
0.214532	183.395
0.224433	183.191
0.247537	182.713
0.287143	181.895
0.287143	188.872
0.316847	202.212
0.333349	194.894
0.359753	201.326
0.372955	201.053
0.399359	207.484
0.40266	207.416
0.422463	207.007
0.445566	213.507
0.495073	247.368
0.524778	267.684
0.567684	294.705
0.600689	307.977
0.636994	307.227
0.666699	313.59
0.699704	319.885
0.719507	319.476
0.749211	318.862
0.765713	325.498
0.825122	373.108
0.854827	393.425
0.884531	420.718
0.901033	455.261
0.907634	469.078
0.920836	524.619
0.924137	545.481
0.930738	573.252
0.937339	607.999
0.940639	628.861
0.953841	698.356
0.963743	746.989
0.963743	781.873
0.963743	837.687
0.963743	858.617
0.960442	886.592
0.960442	921.476
0.960442	949.383
0.960442	991.243
0.963743	1033.04
0.963743	1053.97
0.953841	1082.08
0.953841	1103.01
0.953841	1137.89
0.953841	1172.77
0.953841	1200.68
0.960442	1235.43
0.963743	1263.27
0.967043	1277.15
0.976945	1297.88
0.983546	1304.72
0.990147	1311.56
0.996748	1332.35
1.00665	1346.1
1.01325	1359.92
1.01655	1380.78
1.01985	1394.67
1.01985	1429.55
1.01985	1429.55
0.042906	145.08
0.102315	192.69
0.13202	192.076
0.171625	205.212
0.198029	204.666
0.211231	204.394
0.254138	196.531
0.290443	188.804
0.33995	201.735
0.389458	228.619
0.432364	241.686
0.495073	247.368
0.534679	267.48
0.587487	287.319
0.60729	293.887
0.656797	348.678
0.706305	389.516
0.716206	410.242
0.726107	437.944
0.729408	465.783
0.736009	479.6
0.74591	514.279
0.755812	555.935
0.765713	597.591
0.775615	639.247
0.782216	667.018
0.788817	708.742
0.792117	750.534
0.802019	799.167
0.805319	827.006
0.80862	854.844
0.818521	882.547
0.828423	973.04
0.835024	1007.79
0.835024	1035.69
0.835024	1049.65
0.841625	1091.37
0.848226	1154.03
0.851526	1174.89
0.858127	1202.66
0.868029	1244.31
0.887831	1278.79
0.910935	1278.31
0.940639	1277.7
0.957142	1284.33
0.983546	1339.6
0.996748	1367.24
1.00665	1415.87
1.00665	1415.87
