Adsorption isotherm of Carbon Dioxide on CMK-3 carbon
DOI: 10.1007/s10450-021-00322-y
Article source: Figure 7
Adsorbate Carbon Dioxide: InChIKey CURLTUGMZLYLDI-UHFFFAOYSA-N
Kind: experiment
Temperature: 323 K
Tabular data in the source: 0
pressure (bar)	uptake (mmol/g)
0.003648	0.023522
0.007024	0.04002
0.017042	0.072852
0.033595	0.105358
0.050147	0.137863
0.089894	0.219209
0.122945	0.27589
0.165741	0.32375
0.211913	0.388108
0.261244	0.435642
0.304149	0.500163
0.353534	0.556027
0.406185	0.611728
0.458674	0.642437
0.527769	0.713982
0.557443	0.754165
0.619732	0.784384
0.659098	0.807416
0.721496	0.854296
0.774093	0.901666
0.816618	0.907873
0.859305	0.939072
0.918382	0.977785
0.961124	1.01732
1.00697	1.03169
