Adsorption isotherm of Carbon Dioxide on CMK-3 carbon
DOI: 10.1007/s10450-021-00322-y
Article source: Figure 7
Adsorbate Carbon Dioxide: InChIKey CURLTUGMZLYLDI-UHFFFAOYSA-N
Kind: experiment
Temperature: 313 K
Tabular data in the source: 0
pressure (bar)	uptake (mmol/g)
0.000544	0.048677
0.01726	0.106174
0.043885	0.179843
0.086954	0.269356
0.139878	0.36671
0.163128	0.423881
0.206087	0.496733
0.255472	0.552597
0.308124	0.608298
0.364097	0.672166
0.413536	0.736361
0.456387	0.792551
0.512305	0.848089
0.568278	0.911957
0.6175	0.942829
0.656866	0.965861
0.702875	1.00523
0.761951	1.04394
0.814494	1.08298
0.863716	1.11385
0.919525	1.15273
0.972068	1.19177
1.01465	1.20631
