Adsorption isotherm of Carbon Dioxide on CMK-3 carbon
DOI: 10.1007/s10450-021-00322-y
Article source: Figure 7
Adsorbate Carbon Dioxide: InChIKey CURLTUGMZLYLDI-UHFFFAOYSA-N
Kind: experiment
Temperature: 298 K
Tabular data in the source: 0
pressure (bar)	uptake (mmol/g)
0.000599	0.057008
0.020745	0.139334
0.050855	0.246161
0.084395	0.377818
0.130894	0.492159
0.164053	0.565501
0.204018	0.68017
0.243657	0.744855
0.309594	0.833224
0.349341	0.91457
0.415169	0.986279
0.45802	1.04247
0.500871	1.09866
0.559948	1.13737
0.615866	1.19291
0.670233	1.26103
0.711314	1.29647
0.754111	1.34433
0.813187	1.38304
0.869106	1.43858
0.91506	1.46962
0.970816	1.50016
1.01682	1.53953
