Adsorption isotherm of Nitrogen on CMK-3 carbon
DOI: 10.1007/s10450-021-00322-y
Article source: Figure 3b
Adsorbate Nitrogen: InChIKey IJGRMHOSHXDMSA-UHFFFAOYSA-N
Kind: experiment
Temperature: 77 K
Tabular data in the source: 0
pressure (bar)	uptake (cm3(STP)/g)
0.010432	4.82732
0.01096	8.02815
0.012281	16.0302
0.013337	22.4319
0.014922	32.0344
0.015714	36.8357
0.020336	44.843
0.02826	52.8555
0.029316	59.2571
0.03341	64.0636
0.041597	73.6765
0.046219	81.6838
0.050048	84.8899
0.051105	91.2915
0.055463	97.6984
0.059556	102.505
0.060085	105.706
0.071573	115.324
0.075667	120.13
0.090985	132.955
0.101417	136.171
0.101417	136.171
0.122018	141.004
0.142618	145.836
0.160181	152.264
0.177745	158.692
0.221983	166.761
0.242583	171.594
0.280218	179.653
0.314553	187.708
0.32855	192.53
0.356546	202.174
0.370543	206.996
0.388107	213.424
0.408971	219.857
0.4301	227.89
0.458095	237.534
0.485562	243.978
0.516331	250.426
0.557268	258.491
0.598204	266.555
0.618541	269.788
0.672683	277.873
0.699358	279.515
0.715864	279.541
0.756009	282.805
0.786513	287.653
0.816754	290.901
0.867066	295.78
0.906947	297.443
0.950128	299.111
1.00625	299.2
1.00902	296.004
1.01589	297.615
1.02685	304.032
1.04468	312.06
1.0559	320.078
1.06	324.885
1.06383	328.091
1.07228	339.304
1.07281	342.505
0.099965	147.369
0.130998	155.418
0.158729	163.461
0.202175	166.73
0.246677	176.4
0.27388	181.243
0.301347	187.687
0.33238	195.736
0.384013	208.617
0.418347	216.671
0.454001	232.728
0.475394	242.362
0.507747	258.413
0.528876	266.446
0.591206	284.144
0.625275	290.598
0.686549	301.895
0.731975	297.167
0.781759	298.845
0.848579	303.751
0.901929	307.035
0.937979	305.492
0.987499	305.57
1.01114	308.807
1.02157	312.024
1.03557	316.846
1.04956	321.668
1.05392	328.075
1.06185	336.088
1.0662	342.494
1.0695	342.5
