Adsorption isotherm of Carbon Dioxide on CMK-3 carbon
DOI: 10.1007/s10450-021-00322-y
Article source: Figure 7
Adsorbate Carbon Dioxide: InChIKey CURLTUGMZLYLDI-UHFFFAOYSA-N
Kind: experiment
Temperature: 308 K
Tabular data in the source: 0
pressure (bar)	uptake (mmol/g)
-0.002777	0.04051
0.017206	0.097844
0.037352	0.18017
0.084014	0.319503
0.130458	0.425515
0.153708	0.482685
0.193346	0.54737
0.242894	0.628226
0.305619	0.72509
0.358434	0.805782
0.414298	0.852989
0.460362	0.900686
0.509801	0.964881
0.562507	1.02891
0.611783	1.06811
0.661058	1.10732
0.710334	1.14652
0.759665	1.19405
0.80894	1.23326
0.858162	1.26413
0.910596	1.28651
0.963193	1.33388
1.01247	1.37308
