Adsorption isotherm of Nitrogen on CMK-3 carbon
DOI: 10.1007/s10450-021-00322-y
Article source: Figure 9
Adsorbate Nitrogen: InChIKey IJGRMHOSHXDMSA-UHFFFAOYSA-N
Kind: experiment
Temperature: 303 K
Tabular data in the source: 0
pressure (bar)	uptake (mmol/g)
0.007078	0.04835
0.056082	0.0459
0.088751	0.044267
0.121474	0.050964
0.160786	0.065665
0.213057	0.063051
0.258848	0.069095
0.304748	0.0918
0.347272	0.098007
0.402864	0.103561
0.451922	0.109441
0.504247	0.115158
0.553468	0.146031
0.602418	0.13525
0.661385	0.157302
0.703855	0.155178
0.752967	0.169389
0.808559	0.174943
0.857617	0.180823
0.913209	0.186377
0.959055	0.200751
0.998258	0.198791
