Adsorption isotherm of Carbon Dioxide on CMK-3 carbon
DOI: 10.1007/s10450-021-00322-y
Article source: Figure 7
Adsorbate Carbon Dioxide: InChIKey CURLTUGMZLYLDI-UHFFFAOYSA-N
Kind: experiment
Temperature: 318 K
Tabular data in the source: 0
pressure (bar)	uptake (mmol/g)
0.00049	0.040346
0.030382	0.113852
0.043613	0.13819
0.080257	0.244691
0.133072	0.325384
0.169444	0.390232
0.212186	0.429762
0.255091	0.494283
0.307851	0.566645
0.357345	0.63917
0.413155	0.678046
0.459273	0.734074
0.505173	0.756779
0.561146	0.820647
0.613743	0.868017
0.666177	0.890395
0.708864	0.921594
0.751606	0.961124
0.810628	0.991506
0.853207	1.00604
0.912447	1.06975
0.961668	1.10062
1.01416	1.13133
