Adsorption isotherm of Helium on Carbon
DOI: 10.1016/0011-2275(87)90211-6
Adsorbate Helium: InChIKey SWQJXJOGLNCZEY-UHFFFAOYSA-N
Temperature: 60 K
Tabular data in the source: 0
pressure (bar)	uptake (g/g)
1.99954	0.00474113
3.11505	0.0064573
5.08864	0.00937479
7.14805	0.0129788
9.03584	0.0162395
10.6233	0.0189854
11.9104	0.0188137
13.5837	0.023619
16.587	0.0285959
18.6464	0.031685
19.8477	0.0332296
21.8642	0.0323715
23.3659	0.0347741
25.9401	0.0366619
26.8411	0.0423253
29.8873	0.0452428
