Adsorption isotherm of Helium on Carbon
DOI: 10.1016/0011-2275(87)90211-6
Adsorbate Helium: InChIKey SWQJXJOGLNCZEY-UHFFFAOYSA-N
Temperature: 20 K
Tabular data in the source: 0
pressure (bar)	uptake (g/g)
1.09855	0.0510778
2.04244	0.0584573
3.97313	0.0672098
6.03254	0.0737312
8.82132	0.0811108
11.6959	0.0841999
12.1249	0.0891768
13.6695	0.0905497
14.9137	0.0946685
17.8312	0.100847
20.1051	0.0970712
20.2768	0.103593
21.8642	0.104966
23.5375	0.106338
25.983	0.107711
26.4979	0.114233
27.6563	0.118695
