Adsorption isotherm of Helium on Carbon
DOI: 10.1016/0011-2275(87)90211-6
Adsorbate Helium: InChIKey SWQJXJOGLNCZEY-UHFFFAOYSA-N
Temperature: 70 K
Tabular data in the source: 0
pressure (bar)	uptake (g/g)
1.95663	0.00285334
3.11505	0.00405466
4.91703	0.00628569
7.14805	0.00971803
9.07874	0.0128071
13.6266	0.0141801
15.1282	0.0210448
16.587	0.0231042
20.0622	0.0279094
22.3362	0.0243055
23.4946	0.024992
24.1381	0.0308269
26.884	0.0351174
28.7289	0.0370052
30.2306	0.0402659
