Adsorption isotherm of Helium on Carbon
DOI: 10.1016/0011-2275(87)90211-6
Adsorbate Helium: InChIKey SWQJXJOGLNCZEY-UHFFFAOYSA-N
Temperature: 15 K
Tabular data in the source: 0
pressure (bar)	uptake (g/g)
0.884024	0.0672098
1.82792	0.0745893
2.85762	0.0809392
4.53089	0.0869457
6.97643	0.0944969
9.72231	0.100675
13.8411	0.110457
16.2009	0.115091
19.2042	0.118008
20.8774	0.121269
23.0655	0.124873
25.4682	0.131395
26.7124	0.136886
