Adsorption isotherm of Helium on Carbon
DOI: 10.1016/0011-2275(87)90211-6
Adsorbate Helium: InChIKey SWQJXJOGLNCZEY-UHFFFAOYSA-N
Temperature: 30 K
Tabular data in the source: 0
pressure (bar)	uptake (g/g)
1.44178	0.0273946
3.6299	0.03752
5.6893	0.0450712
7.92033	0.0521075
10.7091	0.0574276
12.3395	0.0570844
12.5969	0.0632626
13.8411	0.0651504
17.4451	0.0730448
20.6629	0.0771636
22.3791	0.0788797
24.5672	0.0809392
27.1414	0.0819689
27.356	0.0876322
28.5144	0.0927807
