Adsorption isotherm of Helium on Carbon
DOI: 10.1016/0011-2275(87)90211-6
Adsorbate Helium: InChIKey SWQJXJOGLNCZEY-UHFFFAOYSA-N
Temperature: 25 K
Tabular data in the source: 0
pressure (bar)	uptake (g/g)
1.31307	0.0378632
2.42858	0.0450712
4.27346	0.0526223
6.28996	0.059487
9.29327	0.0677246
11.9962	0.0701273
12.4682	0.0751042
13.6266	0.0764771
15.257	0.0809392
18.389	0.0862593
20.2339	0.0840283
21.9071	0.0912362
24.224	0.0922659
25.5111	0.0903781
26.884	0.093124
28.0424	0.104451
