Adsorption isotherm of Helium on Carbon
DOI: 10.1016/0011-2275(87)90211-6
Adsorbate Helium: InChIKey SWQJXJOGLNCZEY-UHFFFAOYSA-N
Temperature: 50 K
Tabular data in the source: 0
pressure (bar)	uptake (g/g)
1.87082	0.00800186
3.11505	0.0109193
4.91703	0.0145233
6.16125	0.017784
8.82132	0.023619
10.3659	0.0261933
11.5672	0.0267081
13.4121	0.0325431
14.785	0.0344309
16.2867	0.0361471
18.3461	0.041124
19.3758	0.0421537
21.7784	0.0395794
23.323	0.0448995
23.7091	0.0457576
25.7256	0.0474738
27.9995	0.047817
28.5573	0.0553682
29.587	0.0596586
