Adsorption isotherm of Helium on Carbon
DOI: 10.1016/0011-2275(87)90211-6
Adsorbate Helium: InChIKey SWQJXJOGLNCZEY-UHFFFAOYSA-N
Temperature: 40 K
Tabular data in the source: 0
pressure (bar)	uptake (g/g)
1.69921	0.0136652
3.80152	0.0212164
5.90383	0.0282527
8.69261	0.0342593
10.1084	0.0385497
12.8543	0.0387213
13.0688	0.0447279
14.4847	0.0471306
15.9863	0.0502197
19.0754	0.0562263
21.3923	0.0588005
22.7652	0.059487
23.4517	0.0624045
25.3395	0.0615464
26.1976	0.0696124
27.785	0.0632626
27.9995	0.0692692
28.9005	0.0735596
