Adsorption isotherm of Nitrogen on PKU-17
DOI: 10.1002/ange.201501718
Article source: Figure 4a
Adsorbate Nitrogen: InChIKey IJGRMHOSHXDMSA-UHFFFAOYSA-N
Kind: experiment
Temperature: 77 K
Tabular data in the source: 0
pressure (bar)	uptake (cm3(STP)/g)
0	0
1.76986	10.1623
8.84934	25.7952
28.3179	35.17
47.7865	44.5449
69.0249	57.3068
81.4139	60.4299
99.1127	61.4665
109.732	62.2449
113.271	65.1102
127.43	63.0209
141.59	63.7981
153.979	66.6606
157.519	64.3142
194.686	65.084
196.455	67.4287
231.853	68.1991
237.162	66.1127
270.79	68.7077
274.329	66.8825
311.497	67.6523
350.435	68.161
387.602	69.9731
392.911	68.6685
426.539	70.4818
428.308	69.4389
467.245	70.9899
469.015	69.6864
502.643	71.4997
506.182	69.935
541.58	70.4448
543.35	71.7472
582.286	72.2558
621.224	72.7645
622.994	71.2004
637.153	71.4564
640.692	72.7582
656.621	73.0137
658.392	71.7102
677.86	73.528
679.629	72.2245
699.098	72.4788
702.638	74.0412
716.797	73.2549
725.646	74.8156
736.266	74.291
745.115	75.3305
757.504	75.8477
762.813	76.6277
769.893	79.4919
773.433	81.5755
