Adsorption isotherm of Nitrogen on PKU-17
DOI: 10.1002/ange.201501718
Article source: Figure 4b
Adsorbate Nitrogen: InChIKey IJGRMHOSHXDMSA-UHFFFAOYSA-N
Kind: experiment
Temperature: 273 K
Tabular data in the source: 0
pressure (bar)	uptake (mmol/g)
0	0
0.073716	-0.002034
0.10136	-0.004068
0.119789	0
0.246488	0.004068
0.315597	0.004068
0.338633	0.006102
0.410045	0.008136
0.449207	0.008136
0.518316	0.008136
0.550567	0.006102
0.612764	0.008136
0.693391	0.014237
0.794751	0.010169
0.8892	0.012203
0.992862	0.014237
