Adsorption isotherm of Methane on PKU-17
DOI: 10.1002/ange.201501718
Article source: Figure 4b
Adsorbate Methane: InChIKey VNWKTOKETHGBQD-UHFFFAOYSA-N
Kind: experiment
Temperature: 273 K
Tabular data in the source: 0
pressure (bar)	uptake (mmol/g)
0	0
0.016125	-0.002034
0.027643	-0.002034
0.034554	0
0.055287	0.004068
0.069109	0.004068
0.087538	0.006102
0.103663	0.018305
0.110574	0.012203
0.145128	0.014237
0.175075	0.016271
0.200416	0.032542
0.23497	0.030509
0.29256	0.048814
0.301775	0.038644
0.37549	0.050847
0.389313	0.061017
0.481458	0.065085
0.486065	0.075254
0.585121	0.089492
0.612764	0.08339
0.681873	0.097627
0.75559	0.109831
0.780929	0.107797
0.852342	0.122034
0.891504	0.122034
0.949094	0.134237
0.99747	0.136271
