Adsorption isotherm of Carbon Dioxide on PKU-17
DOI: 10.1002/ange.201501718
Article source: Figure 4b
Adsorbate Carbon Dioxide: InChIKey CURLTUGMZLYLDI-UHFFFAOYSA-N
Kind: experiment
Temperature: 273 K
Tabular data in the source: 0
pressure (bar)	uptake (mmol/g)
0	0
0.006911	0.036486
0.013822	0.02027
0.020733	0.028378
0.029947	0.042568
0.036858	0.101351
0.039162	0.056757
0.055287	0.070946
0.073716	0.154054
0.080627	0.097297
0.10827	0.119595
0.129003	0.216892
0.131307	0.145946
0.161253	0.166216
0.186594	0.182432
0.209629	0.202703
0.239578	0.295946
0.246488	0.225
0.278738	0.247297
0.329418	0.277703
0.347847	0.358784
0.384706	0.310135
0.437689	0.334459
0.460725	0.415541
0.486065	0.362838
0.541353	0.389189
0.568996	0.460135
0.592031	0.415541
0.649623	0.437838
0.665748	0.494595
0.700302	0.462162
0.776321	0.529054
0.803966	0.50473
0.884593	0.561486
0.907629	0.549324
1.01359	0.593919
