Adsorption isotherm of Nitrogen on TTT-DTDA: Base Treated
DOI: 10.1039/c9sc02601k
Article source: Figure S12
Adsorbate Nitrogen: InChIKey IJGRMHOSHXDMSA-UHFFFAOYSA-N
Kind: experiment
Temperature: 77 K
Tabular data in the source: 0
pressure (bar)	uptake (cm3(STP)/g)
0.049781	57.0713
0.10371	71.0889
0.155566	83.1039
0.205346	95.1189
0.259276	105.131
0.304908	115.144
0.354689	127.159
0.40447	143.179
0.454251	147.184
0.508181	153.191
0.553813	165.207
0.603594	185.232
0.655449	205.257
0.707305	213.267
0.761234	223.279
0.808941	251.314
0.860796	271.339
0.914725	297.372
0.960358	363.454
0.983174	431.539
0.995619	493.617
1.00184	601.752
0.999768	599.75
0.983174	495.62
0.958284	407.509
0.904354	363.454
0.860796	349.437
0.806866	333.417
0.755011	325.407
0.707305	307.384
0.649227	291.364
0.595297	285.357
0.547591	271.339
0.501958	255.319
0.454251	242.303
0.402396	231.289
0.346393	213.267
0.296612	197.247
0.246831	179.224
0.199124	163.204
0.149343	143.179
0.095414	121.151
0.043558	91.1139
