Adsorption isotherm of Nitrogen on TTT-BTDA
DOI: 10.1039/c9sc02601k
Article source: Figure 2B
Adsorbate Nitrogen: InChIKey IJGRMHOSHXDMSA-UHFFFAOYSA-N
Kind: experiment
Temperature: 77 K
Tabular data in the source: 0
pressure (bar)	uptake (cm3(STP)/g)
0	0
0	11.5774
0.002174	21.7077
0.008697	28.9436
0.023918	33.2851
0.052185	40.521
0.073928	43.4153
0.10002	49.2041
0.130461	54.9928
0.151541	58.4901
0.1757	63.515
0.204389	67.535
0.230059	72.5599
0.252709	76.5798
0.276868	82.6097
0.305557	86.6297
0.329717	91.6546
0.355386	96.6795
0.379546	100.699
0.403705	104.719
0.432395	107.734
0.458064	110.749
0.482224	114.769
0.507893	118.789
0.530543	120.799
0.557722	124.819
0.583392	128.839
0.609061	130.849
0.633221	133.864
0.65738	137.884
0.68607	142.909
0.708719	146.929
0.734389	152.959
0.761568	158.989
0.787238	163.009
0.812907	167.028
0.835557	171.048
0.862736	176.073
0.885386	183.108
0.909545	189.138
0.93748	200.193
0.960884	219.288
0.986554	279.587
1.0092	527.818
1.00769	524.803
0.986554	327.826
0.960884	259.487
0.935215	232.352
0.911055	219.288
0.886896	214.263
0.860471	210.243
0.835557	207.228
0.811397	203.208
0.784218	199.188
0.757038	195.168
0.734389	191.148
0.708719	189.138
0.68305	184.113
0.65587	178.083
0.633221	173.058
0.607551	168.033
0.578862	163.009
0.556212	158.989
0.529033	156.979
0.506383	152.959
0.479204	146.929
0.455044	141.904
0.427865	136.879
0.403705	132.859
0.378036	130.347
0.353876	128.839
0.326697	125.824
0.301028	121.804
0.275358	116.779
0.252709	111.754
0.228549	108.739
0.20288	103.714
0.17419	101.704
0.150031	95.6745
0.122851	91.6546
0.098692	87.6347
0.074532	82.6097
0.047353	75.5749
0.020173	66.53
