Adsorption isotherm of Nitrogen on TTT-DTDA: Water Treated
DOI: 10.1039/c9sc02601k
Article source: Figure S12
Adsorbate Nitrogen: InChIKey IJGRMHOSHXDMSA-UHFFFAOYSA-N
Kind: experiment
Temperature: 77 K
Tabular data in the source: 0
pressure (bar)	uptake (cm3(STP)/g)
0.045633	61.0763
0.097488	83.1039
0.155566	99.1239
0.209495	111.139
0.255127	119.149
0.304908	131.164
0.352615	143.179
0.40447	153.191
0.454251	159.199
0.510255	167.209
0.555887	183.229
0.611891	191.239
0.66582	201.252
0.713527	209.262
0.761234	225.282
0.813089	239.299
0.860796	251.314
0.92717	287.359
0.96658	335.419
0.984211	391.489
0.995619	477.597
1.00184	629.787
1.00184	631.79
0.985248	471.589
0.952061	359.449
0.906428	321.402
0.852499	303.379
0.800644	285.357
0.752937	283.354
0.703156	271.339
0.653375	267.334
0.597372	259.324
0.547591	253.317
0.495735	241.302
0.445954	237.297
0.396173	229.287
0.346393	223.279
0.296612	215.269
0.240608	203.254
0.199124	195.244
0.147269	179.224
0.097488	165.207
0.043558	143.179
