Adsorption isotherm of Nitrogen on TTT-DTDA
DOI: 10.1039/c9sc02601k
Article source: Figure 2B
Adsorbate Nitrogen: InChIKey IJGRMHOSHXDMSA-UHFFFAOYSA-N
Kind: experiment
Temperature: 77 K
Tabular data in the source: 0
pressure (bar)	uptake (cm3(STP)/g)
0	13.0246
0	23.1548
0	34.7323
0.002174	65.123
0.004349	83.9363
0.006523	96.9609
0.008697	108.538
0.023918	128.799
0.047836	140.376
0.076102	153.401
0.10002	162.084
0.123938	173.661
0.152205	185.239
0.173948	201.158
0.200041	211.288
0.228307	225.76
0.2544	240.232
0.278318	263.386
0.300061	324.168
0.326153	335.745
0.352246	341.534
0.378338	350.217
0.406605	357.453
0.428348	358.9
0.456615	363.242
0.478358	366.136
0.506625	369.03
0.532717	373.372
0.556635	374.819
0.580553	374.819
0.604471	380.608
0.632738	382.055
0.661004	384.949
0.680573	386.397
0.70884	389.291
0.732758	392.185
0.75885	393.632
0.780594	393.632
0.808861	395.08
0.834953	399.421
0.861045	400.868
0.882789	405.21
0.911055	406.657
0.939322	410.999
0.96324	415.34
0.991506	424.023
1.00618	451.439
1.0089	452.967
0.984983	428.365
0.96324	422.576
0.93606	418.958
0.91323	415.34
0.884963	413.893
0.863219	413.893
0.834953	410.999
0.808861	409.551
0.784943	409.551
0.756676	409.551
0.734932	408.104
0.711014	406.657
0.682748	405.21
0.661004	403.763
0.630563	400.868
0.606645	399.421
0.582727	399.421
0.556635	397.974
0.532717	397.25
0.506625	395.08
0.480533	390.738
0.456615	390.738
0.430523	387.844
0.402256	387.844
0.378338	384.949
0.35442	377.713
0.328328	371.925
0.30441	367.583
0.276143	308.249
0.250051	283.647
0.226133	266.281
0.204389	254.703
0.176123	243.126
0.147856	228.654
0.126113	215.63
0.10002	205.499
0.075015	195.369
0.047836	182.344
0.021744	164.978
