Adsorption isotherm of Nitrogen on Olive stones activated carbon
DOI: 10.1007/s11356-015-4330-0
Article source: Figure 4
Adsorbate Nitrogen: InChIKey IJGRMHOSHXDMSA-UHFFFAOYSA-N
Kind: experiment
Temperature: 77 K
Tabular data in the source: 0
pressure (bar)	uptake (cm3(STP)/g)
0.021871	234.24
0.024112	237.642
0.030125	244.344
0.039451	252.911
0.059837	267.248
0.076504	274.959
0.100768	287.267
0.100817	287.28
0.127682	292.016
0.151029	296.677
0.177868	300.949
0.200989	305.176
0.201889	304.949
0.227838	306.663
0.252631	308.757
0.279992	310.852
0.304142	313.201
0.304143	313.201
0.356042	314.977
0.404588	320.504
0.406693	317.624
0.454764	319.383
0.505099	324.022
0.508498	320.742
0.556892	322.66
0.607875	327.139
0.609656	324.819
0.6587	326.018
0.708414	327.575
0.7088	327.54
0.760313	328.936
0.808486	331.856
0.809643	330.078
0.86257	331.473
0.910486	332.804
0.910744	332.806
0.963542	334.138
1.00748	335.343
