Adsorption isotherm of Nitrogen on Oxidized olive stones activated carbon with nitric acid
DOI: 10.1007/s11356-015-4330-0
Article source: Figure 4
Adsorbate Nitrogen: InChIKey IJGRMHOSHXDMSA-UHFFFAOYSA-N
Kind: experiment
Temperature: 77 K
Tabular data in the source: 0
pressure (bar)	uptake (cm3(STP)/g)
0.02002	37.066
0.025474	38.527
0.030673	39.384
0.039442	40.291
0.049739	41.071
0.061108	42.029
0.076453	42.885
0.100465	43.867
0.126515	44.622
0.152821	45.176
0.176783	45.327
0.202375	45.83
0.229497	46.182
0.253373	46.033
0.278704	45.952
0.304924	45.951
0.354911	45.675
0.405382	46.027
0.457484	46.076
0.509289	46.263
0.557849	46.706
0.608977	46.451
0.660924	46.743
0.710937	47.381
0.761921	47.54
0.811934	47.619
0.862951	48.286
0.908039	53.682
0.91395	49.935
0.962619	52.815
