Adsorption isotherm of Nitrogen on Oxidized olive stones activated carbon with ozone
DOI: 10.1007/s11356-015-4330-0
Article source: Figure 4
Adsorbate Nitrogen: InChIKey IJGRMHOSHXDMSA-UHFFFAOYSA-N
Kind: experiment
Temperature: 77 K
Tabular data in the source: 0
pressure (bar)	uptake (cm3(STP)/g)
0.021898	169.758
0.02516	172.53
0.029645	176.158
0.040349	182.256
0.051256	187.018
0.060483	189.538
0.077662	194.753
0.101823	202.136
0.101977	202.171
0.12563	204.025
0.152602	206.692
0.175917	208.247
0.202315	210.185
0.202573	210.087
0.229266	210.83
0.254353	211.51
0.277741	212.309
0.302424	218.404
0.30404	218.468
0.355245	214.048
0.403063	220.296
0.406837	214.702
0.457309	215.255
0.50533	221.301
0.508187	216.06
0.556517	216.512
0.607089	221.4
0.610149	217.166
0.657969	217.215
0.708718	221.25
0.710132	217.25
0.761776	217.756
0.808278	220.866
0.811876	218.136
0.862708	219.377
0.907979	220.031
0.912976	219.679
0.961918	219.828
