Adsorption isotherm of Hydrogen on Activated Carbon
DOI: 10.1016/j.jpcs.2003.10.032
Adsorbate Hydrogen: InChIKey UFHFLCQGNIYNRP-UHFFFAOYSA-N
Temperature: 77 K
Tabular data in the source: 0
pressure (bar)	uptake (cm3(STP)/g)
0.0498334	45.9335
0.152363	120.333
0.374704	163.678
0.65674	192.791
0.883111	211.553
0.996031	222.551
1.22463	227.726
1.39491	238.725
1.96651	251.017
2.42392	260.074
3.33947	273.66
4.8297	280.776
5.97523	291.128
8.84256	295.656
12.0546	296.95
15.726	295.009
18.8814	291.774
22.3803	293.068
25.5926	292.421
