Adsorption isotherm of Hydrogen on LiC18 Activated Carbon
DOI: 10.1016/j.jpcs.2003.10.032
Adsorbate Hydrogen: InChIKey UFHFLCQGNIYNRP-UHFFFAOYSA-N
Temperature: 77 K
Tabular data in the source: 0
pressure (bar)	uptake (cm3(STP)/g)
0.156074	97.6895
0.159043	79.5749
0.161905	62.1072
0.164768	44.6396
0.268146	113.863
0.55103	137.8
0.720145	155.915
1.17681	169.501
1.57569	185.675
1.97595	193.438
2.49071	202.495
3.17799	208.965
4.03714	216.728
5.06879	221.904
6.33	226.433
9.14018	229.667
12.524	232.902
19.178	232.255
25.0291	230.961
