Adsorption isotherm of Hydrogen on KC24 Activated Carbon
DOI: 10.1016/j.jpcs.2003.10.032
Adsorbate Hydrogen: InChIKey UFHFLCQGNIYNRP-UHFFFAOYSA-N
Temperature: 77 K
Tabular data in the source: 0
pressure (bar)	uptake (cm3(STP)/g)
0.0460163	69.2237
0.0480309	56.9316
0.101469	80.8688
0.109103	34.2884
0.14791	147.505
0.152681	118.392
0.371312	184.381
0.767434	217.375
1.50942	240.018
2.76808	260.074
4.02813	271.719
6.03418	281.423
9.07306	289.187
12.2273	293.068
18.0204	295.656
24.33	296.303
