Adsorption isotherm of Nitrogen on MMPN
DOI: 10.1039/C2py20999c
Adsorbate Nitrogen: InChIKey IJGRMHOSHXDMSA-UHFFFAOYSA-N
Temperature: 77 K
Tabular data in the source: 0
pressure (bar)	uptake (cm3(STP)/g)
1.11e-16	29.7994
0.00258355	77.931
0.0258355	126.015
0.0568382	137.406
0.098175	151.064
0.142095	162.425
0.178265	162.342
0.227353	164.522
0.26869	173.596
0.315193	178.074
0.366865	177.955
0.415952	187.012
0.475374	193.753
0.511543	195.962
0.532212	198.207
0.58905	204.953
0.62522	207.163
0.663973	211.658
0.682058	218.494
0.70531	218.44
0.744063	222.936
0.775066	229.742
0.826737	243.377
0.837071	245.645
0.868074	261.62
0.883575	270.754
0.899076	282.179
0.922328	305.049
0.940413	332.514
0.961082	419.573
0.968832	469.985
0.976583	547.904
0.98175	616.66
0.986917	726.677
0.992084	772.511
