Adsorption isotherm of Nitrogen on OS-O3-45
DOI: 10.1007/s10450-019-00016-6
Article source: Figure 1
Adsorbate Nitrogen: InChIKey IJGRMHOSHXDMSA-UHFFFAOYSA-N
Kind: experiment
Temperature: 77 K
Tabular data in the source: 0
pressure (bar)	uptake (cm3(STP)/g)
0.002716	0
0.002716	6.8421
0.002716	21.5789
0.002716	51.5789
0.002716	82.6316
0.002716	62.6316
0.002716	153.684
0.002716	173.684
0.003622	12.6316
0.003622	31.5789
0.003622	73.1579
0.003622	92.6316
0.003622	102.105
0.003622	113.158
0.003622	122.105
0.003622	144.211
0.003622	162.105
0.003622	41.0526
0.003622	133.158
0.006338	193.684
0.008149	183.158
0.012677	203.158
0.017204	213.158
0.019921	223.158
0.029881	233.158
0.038936	243.158
0.050708	253.158
0.067912	261.053
0.102321	278.421
0.171139	295.263
0.227279	307.895
0.28342	315.263
0.321451	321.053
0.382119	325.789
0.432827	330.526
0.485346	335.789
0.536959	337.895
0.64743	348.421
0.687271	350.526
0.738885	355.263
0.785971	360.526
0.835773	364.737
0.882859	369.474
0.93085	377.895
0.97703	384.737
0.29157	315.789
0.334128	321.053
0.386647	325.789
0.44641	335.789
0.488968	343.158
0.532432	347.895
0.584045	353.158
0.631131	355.263
0.681838	361.053
0.733452	365.789
0.785065	371.579
0.836678	375.263
0.888292	380.526
0.936283	386.316
0.996046	391.053
