Adsorption isotherm of Nitrogen on OS-NM
DOI: 10.1007/s10450-019-00016-6
Article source: Figure 1
Adsorbate Nitrogen: InChIKey IJGRMHOSHXDMSA-UHFFFAOYSA-N
Kind: experiment
Temperature: 77 K
Tabular data in the source: 0
pressure (bar)	uptake (cm3(STP)/g)
0.001811	7.36842
0.002716	127.368
0.002716	137.368
0.002716	146.316
0.002716	18.4211
0.002716	94.7368
0.003622	76.8421
0.003622	116.842
0.003622	161.053
0.003622	30.5263
0.003622	42.6316
0.003622	172.105
0.003622	190
0.009055	198.947
0.00996	208.947
0.013582	219.474
0.015393	227.895
0.019921	238.421
0.025354	248.421
0.033503	255.789
0.04618	266.316
0.058857	275.789
0.110471	303.158
0.166611	321.053
0.226374	333.684
0.27346	342.632
0.316924	347.895
0.381214	355.263
0.433733	363.158
0.48444	365.263
0.536054	370
0.648335	380.526
0.683649	385.263
0.738885	390.526
0.78416	396.316
0.836678	400
0.886481	408.947
0.938094	414.737
0.984274	422.632
0.282515	343.684
0.44641	366.842
0.48444	371.579
0.785971	406.316
0.838489	411.053
0.880142	415.789
0.954393	422.105
1.00057	433.158
