Adsorption isotherm of 4-Chlorophenol, Water on OS-O3-45
DOI: 10.1007/s10450-019-00016-6
Article source: Figure 3
Adsorbate 4-Chlorophenol: InChIKey WXNZTHHGJRFXKQ-UHFFFAOYSA-N
Adsorbate Water: InChIKey XLYOFNOQVPJJNP-UHFFFAOYSA-N
Kind: experiment
Temperature: 298 K
Tabular data in the source: 0
pressure (bar)	4-Chlorophenol fraction	4-Chlorophenol uptake (mmol/g)	Water fraction	Water uptake (mmol/g)	total uptake (mmol/g)
1.01325	0.053247	0.30512			
1.01325	0.148052	0.543365			
1.01325	0.301299	0.708464			
1.01325	0.480519	0.823406			
1.01325	0.892208	0.957158			
1.01325	1.34286	1.03448			
