Adsorption isotherm of Nitrogen on OS-O3-15
DOI: 10.1007/s10450-019-00016-6
Article source: Figure 1
Adsorbate Nitrogen: InChIKey IJGRMHOSHXDMSA-UHFFFAOYSA-N
Kind: experiment
Temperature: 77 K
Tabular data in the source: 0
pressure (bar)	uptake (cm3(STP)/g)
0.001811	0
0.001811	6.8421
0.001811	16.3158
0.001811	181.579
0.002716	42.1053
0.003622	142.105
0.003622	152.105
0.003622	162.632
0.003622	26.3158
0.003622	52.1053
0.003622	132.105
0.005433	203.158
0.010866	212.632
0.011771	224.737
0.019015	233.158
0.033503	250.526
0.051613	264.737
0.055235	273.158
0.10866	294.737
0.13673	305.789
0.166611	315.789
0.218225	325.789
0.275271	335.263
0.325979	342.105
0.372159	350
0.442788	355.263
0.493495	360
0.54692	364.211
0.597627	370.526
0.644713	375.263
0.695421	380.526
0.747034	385.263
0.795931	390
0.846639	397.895
0.898252	405.263
0.944432	412.632
0.996951	422.632
0.296097	340.526
0.339561	344.737
0.393891	350.526
0.429205	358.421
0.481724	367.368
0.523377	375.789
0.57499	381.053
0.626603	385.789
0.679122	390
0.72983	395.789
0.776916	400
0.828529	405.263
0.87652	412.632
0.937188	417.895
1.01053	443.158
