Adsorption isotherm of 4-Chlorophenol, Water on OS-O3-15
DOI: 10.1007/s10450-019-00016-6
Article source: Figure 3
Adsorbate 4-Chlorophenol: InChIKey WXNZTHHGJRFXKQ-UHFFFAOYSA-N
Adsorbate Water: InChIKey XLYOFNOQVPJJNP-UHFFFAOYSA-N
Kind: experiment
Temperature: 298 K
Tabular data in the source: 0
pressure (bar)	4-Chlorophenol fraction	4-Chlorophenol uptake (mmol/g)	Water fraction	Water uptake (mmol/g)	total uptake (mmol/g)
1.01325	0.015584	0.361546			
1.01325	0.092208	0.635319			
1.01325	0.207792	0.861024			
1.01325	0.349351	1.03448			
1.01325	0.7	1.27482			
1.01325	1.18312	1.29154			
