Adsorption isotherm of 4-Chlorophenol, Water on OS-NM
DOI: 10.1007/s10450-019-00016-6
Article source: Figure 3
Adsorbate 4-Chlorophenol: InChIKey WXNZTHHGJRFXKQ-UHFFFAOYSA-N
Adsorbate Water: InChIKey XLYOFNOQVPJJNP-UHFFFAOYSA-N
Kind: experiment
Temperature: 298 K
Tabular data in the source: 0
pressure (bar)	4-Chlorophenol fraction	4-Chlorophenol uptake (mmol/g)	Water fraction	Water uptake (mmol/g)	total uptake (mmol/g)
1.01325	0.024675	0.367816			
1.01325	0.053247	0.716823			
1.01325	0.136364	0.975967			
1.01325	0.231169	1.22257			
1.01325	0.54026	1.53187			
1.01325	0.967532	1.64681			
