Adsorption isotherm of Water on Silicalite MFI
DOI: 10.1021/Jp7097153
Adsorbate Water: InChIKey XLYOFNOQVPJJNP-UHFFFAOYSA-N
Temperature: 300 K
Tabular data in the source: 0
pressure (bar)	uptake (mmol/g)
0.00133402	0.0278377
0.00237175	0.0558688
0.00326275	0.141412
0.00445146	0.284177
0.00490086	0.484841
0.00639366	0.943197
0.00699191	1.17247
0.00759088	1.43045
0.00849393	2.00403
0.00879731	2.29091
0.00954938	2.74975
0.0100002	3.00783
0.0105942	3.06486
0.0116362	3.26514
0.0126774	3.4367
0.0137194	3.63698
0.0147614	3.83726
0.0158006	3.92271
0.0172841	4.00786
0.0186203	4.12182
0.0199557	4.20708
0.0214386	4.26352
0.0227733	4.32007
0.0241074	4.34791
0.0254421	4.40445
0.026925	4.4609
0.0282597	4.51745
0.0295937	4.54528
0.0310766	4.60173
0.0324099	4.60086
0.0337439	4.6287
0.0352261	4.65644
0.0365601	4.68428
0.0378941	4.71212
0.0393763	4.73986
0.0407103	4.7677
0.0421918	4.76673
0.0436739	4.79447
0.0441184	4.79418
