Adsorption isotherm of Hydrogen sulfide on MIL-53(Cr)
DOI: 10.1021/Jp1092724
Adsorbate Hydrogen sulfide: InChIKey RWSOTUBLDIXVET-UHFFFAOYSA-N
Temperature: 303 K
Tabular data in the source: 0
pressure (bar)	uptake (mmol/g)
0.166667	1.95789
0.555556	2.46316
0.722222	2.77895
1.16667	3.09474
1.72222	3.34737
2.11111	3.41053
2.33333	3.6
2.83333	3.66316
2.88889	3.6
3.22222	3.66316
3.38889	3.66316
3.94444	3.78947
5	3.85263
5.94444	3.97895
7.05556	4.10526
9	4.16842
11	4.29474
17	4.48421
