Adsorption isotherm of Hydrogen sulfide on MIL-53(Cr)
DOI: 10.1021/Jp1092724
Adsorbate Hydrogen sulfide: InChIKey RWSOTUBLDIXVET-UHFFFAOYSA-N
Temperature: 303 K
Tabular data in the source: 0
pressure (bar)	uptake (mmol/g)
0.0546347	0.497696
0.0594697	1.60369
0.11483	2.26728
0.327567	2.93088
0.538128	3.09677
0.748448	3.20737
1.1686	3.31797
1.43138	3.42857
1.59093	3.92627
1.7031	5.58525
1.81334	6.80184
1.8687	7.46544
2.08047	7.90783
2.50232	8.40553
2.92393	8.84793
3.39775	9.23502
3.76593	9.45622
4.18657	9.67742
4.86974	9.95392
5.65784	10.2304
6.60331	10.5069
7.49584	10.6728
8.38837	10.8387
9.59565	11.0046
10.9076	11.1152
11.7474	11.2258
12.7971	11.3364
14.3714	11.447
15.1582	11.447
