Adsorption isotherm of Hydrogen sulfide on MIL-47(V)
DOI: 10.1021/Jp1092724
Adsorbate Hydrogen sulfide: InChIKey RWSOTUBLDIXVET-UHFFFAOYSA-N
Temperature: 303 K
Tabular data in the source: 0
pressure (bar)	uptake (mmol/g)
0.278746	1.28388
0.390244	2.76958
0.557491	4.25552
0.780488	5.60667
1.05923	7.09308
1.22648	7.90391
1.39373	8.51221
1.89547	9.52699
2.11847	9.93299
2.78746	10.5434
2.9547	10.8817
4.12544	11.7642
5.12892	12.5786
6.02091	13.0549
6.96864	13.734
8.13937	13.9415
9.3101	14.0815
10.3693	14.2885
11.0941	14.359
12.2091	14.4313
14.1045	14.5743
16.223	14.7858
