Adsorption isotherm of Hydrogen sulfide on MIL-47(V)
DOI: 10.1021/Jp1092724
Adsorbate Hydrogen sulfide: InChIKey RWSOTUBLDIXVET-UHFFFAOYSA-N
Temperature: 303 K
Tabular data in the source: 0
pressure (bar)	uptake (mmol/g)
0.111498	1.28317
0.278746	4.11932
0.501742	6.68566
0.724739	8.17183
0.891986	9.05018
1.11498	9.5912
1.22648	10.0642
1.50523	10.3355
1.72822	10.674
1.83972	11.012
2.11847	11.0807
2.22997	11.2837
2.45296	11.4871
2.73171	11.6233
3.12195	11.895
3.34495	11.896
4.01394	12.1013
5.01742	12.3756
5.96516	12.5146
7.02439	12.6541
7.97213	12.8606
9.03136	13.1352
9.97909	13.5442
11.9861	13.6877
13.993	13.8987
16	14.0422
18.007	14.0507
