Adsorption isotherm of Hydrogen sulfide on MIL-53(Cr)
DOI: 10.1021/Jp1092724
Adsorbate Hydrogen sulfide: InChIKey RWSOTUBLDIXVET-UHFFFAOYSA-N
Temperature: 303 K
Tabular data in the source: 0
pressure (bar)	uptake (mmol/g)
0.0555556	1.26316
0.111111	0.378947
0.166667	2.33684
0.388889	2.90526
0.722222	3.28421
1.55556	3.72632
1.77778	6
1.94444	7.70526
3.61111	9.47368
4	9.72632
4.61111	9.97895
5.11111	10.0421
5.61111	10.2947
6.33333	10.4211
7.33333	10.6105
7.83333	10.6737
9.05556	10.8632
10.5556	11.0526
11.2222	11.0526
12.1111	11.1789
13.2222	11.3053
14	11.3684
14.9444	11.3684
16.3333	11.5579
17.2778	11.6842
