Adsorption isotherm of Hydrogen sulfide on MIL-53(Cr)
DOI: 10.1021/Jp1092724
Adsorbate Hydrogen sulfide: InChIKey RWSOTUBLDIXVET-UHFFFAOYSA-N
Temperature: 303 K
Tabular data in the source: 0
pressure (bar)	uptake (mmol/g)
0.0557491	0.0557491
0.111498	1.83122
0.334495	2.00844
0.557491	2.65823
0.66899	2.77637
0.891986	3.01266
1.17073	3.07173
1.33798	3.30802
1.50523	3.60338
1.67247	5.61181
1.89547	7.62025
2.34146	9.45148
2.50871	9.68776
2.84321	9.92405
3.1777	10.0422
3.23345	10.2785
4.01394	10.5148
5.01742	10.8692
6.02091	11.2236
7.02439	11.3418
8.97561	12.1097
10.0348	12.2278
10.9826	12.2869
12.9895	12.4051
14.9965	12.5232
