Adsorption isotherm of Hydrogen sulfide on MIL-53(Cr)
DOI: 10.1021/Jp1092724
Adsorbate Hydrogen sulfide: InChIKey RWSOTUBLDIXVET-UHFFFAOYSA-N
Temperature: 303 K
Tabular data in the source: 0
pressure (bar)	uptake (mmol/g)
0.0555556	0
0.166667	0.631579
0.333333	2.14737
0.555556	4.04211
0.722222	5.55789
0.944444	6.63158
1.16667	7.32632
1.33333	7.83158
1.5	8.27368
1.77778	8.65263
1.94444	9.03158
2.38889	9.47368
2.55556	9.6
2.83333	9.78947
3.11111	9.97895
3.38889	10.2316
4.05556	10.4842
5.05556	10.8
6	11.1789
7.05556	11.3684
9	12
10.0556	12.1263
11	12.3158
13	12.3158
15	12.5053
