Adsorption isotherm of Nitrogen on CuBTC
DOI: 10.1021/Jp902736z
Adsorbate Nitrogen: InChIKey IJGRMHOSHXDMSA-UHFFFAOYSA-N
Temperature: 77 K
Tabular data in the source: 0
pressure (bar)	uptake (cm3(STP)/g)
0.00235233	286.25
0.00470465	323.429
0.014114	332.74
0.0282279	338.342
0.0423419	347.661
0.0611605	353.272
0.0776267	353.302
0.10115	357.063
0.150549	362.73
0.2023	366.543
0.256403	375.936
0.301098	377.877
0.352849	379.831
0.406952	383.647
0.458703	387.46
0.50575	393.123
0.557501	395.077
0.6069	400.743
0.658652	402.697
0.710402	406.51
0.757448	410.314
0.811552	415.989
0.860951	427.233
0.915055	434.767
0.962102	434.853
1.00444	438.649
