Adsorption isotherm of Nitrogen on CuBTC
DOI: 10.1021/Jp902736z
Adsorbate Nitrogen: InChIKey IJGRMHOSHXDMSA-UHFFFAOYSA-N
Temperature: 77 K
Tabular data in the source: 0
pressure (bar)	uptake (cm3(STP)/g)
0.00470465	13.0198
0.014114	16.7546
0.0305802	22.361
0.0446942	31.6806
0.0611605	31.7109
0.0776267	31.7412
0.103502	28.0712
0.155253	37.46
0.204652	46.8445
0.254052	52.5115
0.305802	58.1828
0.355202	65.7085
0.406952	69.5211
0.458703	75.1924
0.50575	82.7138
0.555148	90.2395
0.6069	97.7695
0.656299	101.578
0.710402	112.83
0.759802	122.214
0.8092	133.457
0.863303	159.579
0.91035	265.613
0.962102	366.08
1.0068	436.794
