Adsorption isotherm of Nitrogen on CuBTC
DOI: 10.1021/Jp902736z
Adsorbate Nitrogen: InChIKey IJGRMHOSHXDMSA-UHFFFAOYSA-N
Temperature: 77 K
Tabular data in the source: 0
pressure (bar)	uptake (cm3(STP)/g)
0.0211709	1.89764
0.0329326	1.91925
0.0541035	1.95816
0.0776267	2.00138
0.10115	2.04461
0.148197	2.13106
0.204652	4.09354
0.256403	4.18864
0.30345	4.27509
0.352849	8.08334
0.409305	10.0458
0.458703	10.1366
0.508102	12.0861
0.555148	12.1726
0.6069	14.1264
0.656299	14.2172
0.70805	12.4535
0.755097	16.2575
0.806848	14.4938
0.860951	18.3107
0.912702	22.1233
0.959749	24.0685
1.0115	33.4572
