Adsorption isotherm of Argon on Carbon
DOI: 10.1016/j.colsurfa.2006.10.008
Adsorbate Argon: InChIKey XKRFYHLGVUSROY-UHFFFAOYSA-N
Temperature: 87 K
Tabular data in the source: 0
pressure (bar)	uptake (micromoles/m2)
0.00101864	1.72e-07
0.00152339	2.37e-07
0.00230128	3.66e-07
0.00317542	5.81e-07
0.00416663	8.77e-07
0.00574932	1.39e-06
0.00777515	2.24e-06
0.010837	3.52e-06
0.0122278	4.48e-06
0.0181037	7.19e-06
0.0247303	8.03e-06
0.04902	9.53e-06
0.0827179	9.92e-06
