Adsorption isotherm of Argon on Carbon
DOI: 10.1016/j.colsurfa.2006.10.008
Adsorbate Argon: InChIKey XKRFYHLGVUSROY-UHFFFAOYSA-N
Temperature: 87 K
Tabular data in the source: 0
pressure (bar)	uptake (mol/m2)
0.00524344	1.09e-06
0.00641227	1.41e-06
0.00792093	2.03e-06
0.0098835	2.92e-06
0.0120866	3.99e-06
0.0152339	5.96e-06
0.019789	7.25e-06
0.025194	8.27e-06
0.0412491	9.19e-06
0.0739367	1e-05
0.15884	1.08e-05
0.4049	1.15e-05
0.802584	1.23e-05
