Adsorption isotherm of Argon on Carbon
DOI: 10.1016/j.colsurfa.2006.10.008
Adsorbate Argon: InChIKey XKRFYHLGVUSROY-UHFFFAOYSA-N
Temperature: 77 K
Tabular data in the source: 0
pressure (bar)	uptake (micromoles/m2)
0.000102809	9.99e-08
0.000190884	1.81e-07
0.000300198	2.79e-07
0.000501493	4.99e-07
0.000688513	8.6e-07
0.00105061	1.29e-06
0.00146435	2.31e-06
0.00198032	4.95e-06
0.00306775	8.44e-06
0.0051248	1.01e-05
0.010261	1.07e-05
0.0508135	1.19e-05
0.0901686	1.2e-05
