Adsorption isotherm of Argon on Carbon
DOI: 10.1016/j.colsurfa.2006.10.008
Adsorbate Argon: InChIKey XKRFYHLGVUSROY-UHFFFAOYSA-N
Temperature: 77 K
Tabular data in the source: 0
pressure (bar)	uptake (mol/m2)
0.000104372	1.03e-07
0.000164143	1.74e-07
0.000291272	2.96e-07
0.000451214	4.43e-07
0.0006782	6.49e-07
0.000837765	9.14e-07
0.00115019	1.87e-06
0.00160314	4.48e-06
0.00186431	6.06e-06
0.00210356	7.19e-06
0.00346144	8.53e-06
0.0136687	1.03e-05
0.0708241	1.14e-05
0.0972363	1.14e-05
