Adsorption isotherm of Carbon Tetrachloride on Carbon
DOI: 10.1016/j.colsurfa.2006.10.008
Adsorbate Carbon Tetrachloride: InChIKey VZGDMQKNWNREIO-UHFFFAOYSA-N
Temperature: 323 K
Tabular data in the source: 0
pressure (bar)	uptake (micromoles/m2)
0.000155	0.0202863
0.00124731	0.184152
0.00261285	0.435412
0.00337756	0.741295
0.00496159	1.39676
0.00599941	1.97575
0.00709185	2.55474
0.00780193	2.8934
0.00916748	3.23205
0.0099868	3.48331
0.0120624	3.7018
0.0143566	3.85474
0.0165414	4.00768
0.0198187	4.18247
0.0216213	4.23709
0.0246255	4.31356
