Adsorption isotherm of Argon on Carbon
DOI: 10.1016/j.colsurfa.2006.10.008
Adsorbate Argon: InChIKey XKRFYHLGVUSROY-UHFFFAOYSA-N
Temperature: 77 K
Tabular data in the source: 0
pressure (bar)	uptake (micromoles/m2)
0.000152212	1.41e-07
0.00043124	4.25e-07
0.000557375	5.47e-07
0.000648177	6.96e-07
0.000889899	1.09e-06
0.00150922	2.15e-06
0.00183638	3.55e-06
0.00226844	5.76e-06
0.00271883	7.04e-06
0.00373276	8.79e-06
0.00489794	9.24e-06
0.00937264	1.05e-05
0.0145193	1.1e-05
0.0290709	1.16e-05
0.0646924	1.21e-05
0.0929318	1.3e-05
