Adsorption isotherm of Argon on Carbon
DOI: 10.1016/j.colsurfa.2006.10.008
Adsorbate Argon: InChIKey XKRFYHLGVUSROY-UHFFFAOYSA-N
Temperature: 87 K
Tabular data in the source: 0
pressure (bar)	uptake (micromoles/m2)
0.00102894	1.51e-07
0.00130998	2.08e-07
0.00259661	4.21e-07
0.00354706	6.11e-07
0.00470134	8.43e-07
0.00552252	1.08e-06
0.00746844	1.53e-06
0.0092256	2.17e-06
0.0116278	3.15e-06
0.0151047	4.85e-06
0.0192303	6.43e-06
0.023995	7.63e-06
0.044776	9.34e-06
0.0896515	1.06e-05
