Adsorption isotherm of Argon on Carbon
DOI: 10.1016/j.colsurfa.2006.10.008
Adsorbate Argon: InChIKey XKRFYHLGVUSROY-UHFFFAOYSA-N
Temperature: 87 K
Tabular data in the source: 0
pressure (bar)	uptake (micromoles/m2)
0.00101864	0.177195
0.00149304	0.234857
0.00206017	0.311284
0.00305016	0.546843
0.00447067	0.951039
0.00629425	1.63744
0.00868513	2.57516
0.0112821	3.85118
0.0133868	5.05332
0.0160447	6.36914
0.0228177	7.7889
0.0470862	9.24191
0.0818898	10.0166
