Adsorption isotherm of Argon on Carbon
DOI: 10.1016/j.colsurfa.2006.10.008
Adsorbate Argon: InChIKey XKRFYHLGVUSROY-UHFFFAOYSA-N
Temperature: 77 K
Tabular data in the source: 0
pressure (bar)	uptake (mol/m2)
0.000104372	1.03e-07
0.000164143	1.74e-07
0.000291272	2.96e-07
0.000451214	4.43e-07
0.0006782	6.49e-07
0.000989061	1.47e-06
0.00116768	2.26e-06
0.00153217	4.71e-06
0.00175509	6.06e-06
0.00216802	7.71e-06
0.00316176	9.06e-06
0.00520273	9.82e-06
0.0138766	1.04e-05
0.0823621	1.14e-05
