Adsorption isotherm of Carbon Tetrachloride on Carbon
DOI: 10.1016/j.colsurfa.2006.10.008
Adsorbate Carbon Tetrachloride: InChIKey VZGDMQKNWNREIO-UHFFFAOYSA-N
Temperature: 323 K
Tabular data in the source: 0
pressure (bar)	uptake (micromoles/m2)
0.0022305	0.195076
0.00310445	0.402639
0.00386916	0.806841
0.00518008	1.37491
0.00556243	1.94298
0.00594479	2.50012
0.00643638	3.04634
0.00670949	3.47239
0.00709185	3.75642
0.00894899	4.16062
0.0106423	4.31356
0.0140288	4.4665
0.0196002	4.72869
