Adsorption isotherm of Argon on Carbon
DOI: 10.1016/j.colsurfa.2006.10.008
Adsorbate Argon: InChIKey XKRFYHLGVUSROY-UHFFFAOYSA-N
Temperature: 87 K
Tabular data in the source: 0
pressure (bar)	uptake (micromoles/m2)
0.00132322	0.206062
0.0025194	0.425225
0.00456155	0.801517
0.00710201	1.4807
0.0110573	2.79101
0.0148038	4.61582
0.0194248	6.36914
0.0249804	7.86766
0.0373585	9.05779
0.0617841	9.81703
0.0905581	10.3235
