Adsorption isotherm of Argon on Carbon
DOI: 10.1016/j.colsurfa.2006.10.008
Adsorbate Argon: InChIKey XKRFYHLGVUSROY-UHFFFAOYSA-N
Temperature: 87 K
Tabular data in the source: 0
pressure (bar)	uptake (mol/m2)
0.00545878	1.04e-06
0.00738224	1.49e-06
0.00911911	2.02e-06
0.0110402	2.87e-06
0.0127103	3.59e-06
0.0150813	4.71e-06
0.0182585	6.17e-06
0.025194	7.67e-06
0.038059	9.19e-06
0.079332	1.04e-05
0.139365	1.11e-05
0.265349	1.16e-05
0.605533	1.23e-05
0.981489	1.28e-05
