Adsorption isotherm of Argon on Carbon
DOI: 10.1016/j.colsurfa.2006.10.008
Adsorbate Argon: InChIKey XKRFYHLGVUSROY-UHFFFAOYSA-N
Temperature: 87 K
Tabular data in the source: 0
pressure (bar)	uptake (micromoles/m2)
0.00106047	1.59e-07
0.0038059	6.49e-07
0.00604596	1.15e-06
0.0115114	2.96e-06
0.0146556	4.48e-06
0.0188472	6.37e-06
0.0260063	8.03e-06
0.0400846	9.24e-06
0.0933333	1.09e-05
