Adsorption isotherm of Benzene on Carbon
DOI: 10.1016/j.colsurfa.2006.10.008
Adsorbate Benzene: InChIKey UHOVQNZJYSORNB-UHFFFAOYSA-N
Temperature: 293 K
Tabular data in the source: 0
pressure (bar)	uptake (micromoles/m2)
4.19e-07	0.118606
2.39e-06	0.719446
3.81e-06	1.33121
4.9e-06	1.64802
5.77e-06	2.10684
6.65e-06	2.66398
7.3e-06	2.8934
9.16e-06	3.09003
1.21e-05	3.37407
1.79e-05	3.59256
2.26e-05	3.81104
3.1e-05	4.00768
3.78e-05	4.12785
4.87e-05	4.26987
