Adsorption isotherm of Argon on Carbon
DOI: 10.1016/j.colsurfa.2006.10.008
Adsorbate Argon: InChIKey XKRFYHLGVUSROY-UHFFFAOYSA-N
Temperature: 77 K
Tabular data in the source: 0
pressure (bar)	uptake (mol/m2)
0.000147687	1.38e-07
0.000295701	2.84e-07
0.000557375	5.52e-07
0.000863439	9.8e-07
0.00111599	1.45e-06
0.00139952	2.17e-06
0.00186431	3.7e-06
0.00248345	6.43e-06
0.00306775	7.87e-06
0.00396505	9.06e-06
0.00623573	1.01e-05
0.0193412	1.13e-05
0.100216	1.24e-05
