Adsorption isotherm of Benzene on Carbon
DOI: 10.1016/j.colsurfa.2006.10.008
Adsorbate Benzene: InChIKey UHOVQNZJYSORNB-UHFFFAOYSA-N
Temperature: 293 K
Tabular data in the source: 0
pressure (bar)	uptake (micromoles/m2)
3.1e-07	0.107681
2.28e-06	0.588354
5.12e-06	1.09087
8.28e-06	1.68079
1e-05	1.87743
1.53e-05	2.45642
2e-05	2.78415
2.55e-05	3.05726
2.99e-05	3.26482
3.49e-05	3.43961
4.01e-05	3.55978
4.97e-05	3.73457
