Adsorption isotherm of Carbon Tetrachloride on Carbon
DOI: 10.1016/j.colsurfa.2006.10.008
Adsorbate Carbon Tetrachloride: InChIKey VZGDMQKNWNREIO-UHFFFAOYSA-N
Temperature: 323 K
Tabular data in the source: 0
pressure (bar)	uptake (micromoles/m2)
4.56e-05	0.00936194
0.00108344	0.216925
0.00206664	0.358942
0.0034868	0.741295
0.00419689	0.970706
0.00594479	1.9976
0.00725571	2.62029
0.0092221	3.24298
0.0122263	3.75642
0.0155036	3.94214
0.0177431	4.0623
0.0202011	4.12785
0.0238061	4.28079
