Adsorption isotherm of Argon on Carbon
DOI: 10.1016/j.colsurfa.2006.10.008
Adsorbate Argon: InChIKey XKRFYHLGVUSROY-UHFFFAOYSA-N
Temperature: 77 K
Tabular data in the source: 0
pressure (bar)	uptake (micromoles/m2)
0.000104372	1.05e-07
0.000166639	1.74e-07
0.000258144	2.73e-07
0.000458076	4.52e-07
0.000709613	7.55e-07
0.000876569	1.2e-06
0.00109927	2.28e-06
0.00144241	4.62e-06
0.00183638	6.12e-06
0.00237351	7.95e-06
0.0067245	1.04e-05
0.0143018	1.05e-05
0.0666749	1.16e-05
0.0929318	1.28e-05
