Adsorption isotherm of Argon on Carbon
DOI: 10.1016/j.colsurfa.2006.10.008
Adsorbate Argon: InChIKey XKRFYHLGVUSROY-UHFFFAOYSA-N
Temperature: 87 K
Tabular data in the source: 0
pressure (bar)	uptake (mol/m2)
0.00513898	1.25e-06
0.00660877	1.77e-06
0.00808194	2.33e-06
0.00949362	3.07e-06
0.0120866	4.61e-06
0.0155435	6.43e-06
0.0190083	7.55e-06
0.0278609	8.91e-06
0.049939	1.01e-05
0.093189	1.08e-05
0.177431	1.11e-05
0.331095	1.16e-05
0.547571	1.18e-05
0.852529	1.22e-05
0.981489	1.23e-05
