Adsorption isotherm of Benzene on Carbon
DOI: 10.1016/j.colsurfa.2006.10.008
Adsorbate Benzene: InChIKey UHOVQNZJYSORNB-UHFFFAOYSA-N
Temperature: 293 K
Tabular data in the source: 0
pressure (bar)	uptake (micromoles/m2)
6.37e-07	0.173227
1.95e-06	0.610202
4.13e-06	1.06903
6.1e-06	1.53877
8.5e-06	2.03037
1.27e-05	2.42365
1.78e-05	2.8497
2.01e-05	3.04634
2.6e-05	3.23205
3.01e-05	3.37407
3.55e-05	3.41777
4.24e-05	3.54886
4.95e-05	3.66903
