Adsorption isotherm of Argon on Carbon
DOI: 10.1016/j.colsurfa.2006.10.008
Adsorbate Argon: InChIKey XKRFYHLGVUSROY-UHFFFAOYSA-N
Temperature: 87 K
Tabular data in the source: 0
pressure (bar)	uptake (micromoles/m2)
0.00102894	0.284334
0.00165108	0.369354
0.00267618	0.552373
0.00470134	0.941518
0.00731965	1.67072
0.0107285	2.93501
0.0165364	5.58823
0.023995	7.25918
0.0400846	8.44178
0.0794549	9.52513
0.0933333	9.71875
