Adsorption isotherm of Ethene on BIF-24
DOI: 10.1002/chem.201301212
Adsorbate Ethene: InChIKey VGGSQFUCUMXWEO-UHFFFAOYSA-N
Temperature: 295 K
Tabular data in the source: 0
pressure (bar)	uptake (cm3(STP)/g)
0.0105646	0.149791
0.0695562	12.2103
0.139472	21.649
0.213758	29.6893
0.288044	35.1078
0.403842	42.2742
0.530565	48.5666
0.685691	54.3347
0.893254	60.2775
0.971909	62.375
