Adsorption isotherm of Hydrogen on BIF-24
DOI: 10.1002/chem.201301212
Adsorbate Hydrogen: InChIKey UFHFLCQGNIYNRP-UHFFFAOYSA-N
Temperature: 87 K
Tabular data in the source: 0
pressure (bar)	uptake (cm3(STP)/g)
0.0127495	5.14995
0.121993	41.8558
0.257455	72.6626
0.336111	86.4273
0.467203	100.192
0.593926	113.301
0.731573	123.789
0.838632	130.343
0.930396	135.587
1.01342	141.486
