Adsorption isotherm of Methane on BIF-24
DOI: 10.1002/chem.201301212
Adsorbate Methane: InChIKey VNWKTOKETHGBQD-UHFFFAOYSA-N
Temperature: 273 K
Tabular data in the source: 0
pressure (bar)	uptake (cm3(STP)/g)
0.0149343	0.561792
0.159136	4.49457
0.250901	7.05087
0.362329	9.80381
0.475943	12.3601
0.61359	15.3097
0.670397	16.4895
0.78401	19.0458
0.904178	20.8156
0.976279	21.7988
