Adsorption isotherm of Hydrogen on BIF-24
DOI: 10.1002/chem.201301212
Adsorbate Hydrogen: InChIKey UFHFLCQGNIYNRP-UHFFFAOYSA-N
Temperature: 77 K
Tabular data in the source: 0
pressure (bar)	uptake (cm3(STP)/g)
0.00837971	5.80541
0.0280436	30.0575
0.0455226	44.4777
0.0695562	66.7634
0.121993	95.6037
0.189724	120.511
0.248716	135.587
0.331741	151.973
0.403842	165.083
0.530565	180.158
0.661657	189.335
0.827707	199.822
0.956615	207.032
