Adsorption isotherm of N-propane on BIF-24
DOI: 10.1002/chem.201301212
Adsorbate N-propane: InChIKey ATUOYWHBWRKTHZ-UHFFFAOYSA-N
Temperature: 273 K
Tabular data in the source: 0
pressure (bar)	uptake (cm3(STP)/g)
0.00837971	1.93826
0.0105646	21.2089
0.0171192	31.4341
0.0171192	37.3332
0.0324133	50.1147
0.0673713	60.3399
0.0935898	64.666
0.17006	70.9584
0.288044	75.6778
0.399472	78.824
0.563338	82.3635
0.70317	84.9198
0.853926	87.0828
0.980649	88.6559
