Adsorption isotherm of Carbon Dioxide on BIF-24
DOI: 10.1002/chem.201301212
Adsorbate Carbon Dioxide: InChIKey CURLTUGMZLYLDI-UHFFFAOYSA-N
Temperature: 273 K
Tabular data in the source: 0
pressure (bar)	uptake (cm3(STP)/g)
0.0105646	4.49449
0.0957747	26.7802
0.242161	49.0659
0.368884	63.4861
0.486867	72.0071
0.657287	87.0827
0.78838	95.6037
0.921657	102.158
