Adsorption isotherm of Ethane on BIF-24
DOI: 10.1002/chem.201301212
Adsorbate Ethane: InChIKey OTMSDBZUPAUEDD-UHFFFAOYSA-N
Temperature: 273 K
Tabular data in the source: 0
pressure (bar)	uptake (cm3(STP)/g)
0.0127495	1.15171
0.0236738	9.21389
0.0455226	20.8156
0.0717411	29.0744
0.100144	35.9567
0.143842	43.8223
0.200649	51.2946
0.239976	56.2105
0.292413	60.3399
0.436615	68.7954
0.563338	73.7114
0.742497	78.824
0.886699	82.5601
0.982834	85.1164
