Adsorption isotherm of Nitrogen on BIF-24
DOI: 10.1002/chem.201301212
Adsorbate Nitrogen: InChIKey IJGRMHOSHXDMSA-UHFFFAOYSA-N
Temperature: 77 K
Tabular data in the source: 0
pressure (bar)	uptake (cm3(STP)/g)
0.00619484	7.7718
0.00837971	251.604
0.021489	266.679
0.0324133	273.234
0.08922	277.167
0.180985	281.1
0.395102	286.343
0.548044	288.965
0.685691	288.965
0.803674	291.587
0.856111	291.587
0.917287	294.864
0.945691	295.52
