Adsorption isotherm of Methane on BIF-24
DOI: 10.1002/chem.201301212
Adsorbate Methane: InChIKey VNWKTOKETHGBQD-UHFFFAOYSA-N
Temperature: 295 K
Tabular data in the source: 0
pressure (bar)	uptake (cm3(STP)/g)
0.00837971	0.0249988
0.161321	2.59685
0.307707	4.86912
0.493422	7.84055
0.674766	10.4624
0.834262	12.7347
0.967539	14.133
