Adsorption isotherm of Ethene on BIF-24
DOI: 10.1002/chem.201301212
Adsorbate Ethene: InChIKey VGGSQFUCUMXWEO-UHFFFAOYSA-N
Temperature: 273 K
Tabular data in the source: 0
pressure (bar)	uptake (cm3(STP)/g)
0.0193041	1.74162
0.0345982	10.9836
0.0630016	19.2425
0.100144	28.6811
0.130733	33.4004
0.187539	41.4626
0.261825	48.9349
0.366699	55.0307
0.467203	59.75
0.591741	64.2727
0.738128	68.2055
0.858296	71.5483
0.978464	74.4979
