Adsorption isotherm of Carbon Dioxide on BIF-24
DOI: 10.1002/chem.201301212
Adsorbate Carbon Dioxide: InChIKey CURLTUGMZLYLDI-UHFFFAOYSA-N
Temperature: 273 K
Tabular data in the source: 0
pressure (bar)	uptake (mmol/g)
0.0126775	0.0753769
0.0598708	0.350671
0.104442	0.625965
0.206694	1.07714
0.306325	1.45185
0.398089	1.77302
0.500341	2.08655
0.607837	2.33126
0.704846	2.55302
0.799232	2.76714
0.901484	2.95832
1.00111	3.11891
1.08764	3.2642
