Adsorption isotherm of Carbon Dioxide on BIF-24
DOI: 10.1002/chem.201301212
Adsorbate Carbon Dioxide: InChIKey CURLTUGMZLYLDI-UHFFFAOYSA-N
Temperature: 298 K
Tabular data in the source: 0
pressure (bar)	uptake (cm3(STP)/g)
0.0149343	3.18357
0.117623	13.671
0.248716	24.8138
0.425691	39.234
0.484682	44.4777
0.661657	54.3096
0.790565	62.1752
0.919472	66.7634
