Adsorption isotherm of N-propane on BIF-24
DOI: 10.1002/chem.201301212
Adsorbate N-propane: InChIKey ATUOYWHBWRKTHZ-UHFFFAOYSA-N
Temperature: 290 K
Tabular data in the source: 0
pressure (bar)	uptake (cm3(STP)/g)
0.0127495	0.674161
0.0149343	19.5515
0.0171192	11.8607
0.0236738	29.1649
0.0367831	38.9532
0.0477074	44.0221
0.0651864	49.7901
0.0914049	54.5095
0.119808	58.18
0.172245	62.0254
0.239976	65.3464
0.347035	69.017
0.478128	72.5128
0.674766	75.659
0.875775	78.1061
0.974094	79.1548
