Adsorption isotherm of Methane on BIF-24
DOI: 10.1002/chem.201301212
Adsorbate Methane: InChIKey VNWKTOKETHGBQD-UHFFFAOYSA-N
Temperature: 273 K
Tabular data in the source: 0
pressure (bar)	uptake (mmol/g)
0.0205431	0.0294945
0.10182	0.090671
0.209316	0.136553
0.306325	0.159495
0.411198	0.205377
0.505585	0.235965
0.602593	0.235965
0.702224	0.258906
0.801854	0.266553
0.896241	0.2742
0.998493	0.297142
1.09026	0.297142
