Adsorption isotherm of Ethane on BIF-24
DOI: 10.1002/chem.201301212
Adsorbate Ethane: InChIKey OTMSDBZUPAUEDD-UHFFFAOYSA-N
Temperature: 292 K
Tabular data in the source: 0
pressure (bar)	uptake (cm3(STP)/g)
0.0105646	1.19853
0.0193041	5.04391
0.0608167	16.7548
0.0957747	24.7952
0.135102	31.0876
0.18317	37.0305
0.215943	40.5263
0.250901	43.6725
0.292413	46.9935
0.336111	49.6153
0.414766	54.3347
0.534934	59.5784
0.683506	63.9481
0.801489	67.2691
0.936951	70.2405
0.998128	71.1145
