Adsorption isotherm of Nitrogen on CMK-3
DOI: 10.1021/acs.jced.6b00394
Article source: Figure 1
Adsorbate Nitrogen: InChIKey IJGRMHOSHXDMSA-UHFFFAOYSA-N
Kind: experiment
Temperature: 77 K
Tabular data in the source: 0
pressure (bar)	uptake (mmol/g)
0.004438	2.9753
0.005218	3.66
0.006637	5.0168
0.006738	4.9853
0.00685	5.832
0.006991	4.0897
0.007245	5.4027
0.008096	7.7638
0.008167	7.7364
0.008481	7.3512
0.009565	7.1828
0.025281	8.7601
0.030316	8.6615
0.050014	9.555
0.053783	9.8357
0.073288	10.1691
0.097708	10.6589
0.101477	10.9583
0.12618	11.33
0.14987	11.8073
0.152342	12.0442
0.175302	12.3161
0.200289	12.7625
0.203927	13.0556
0.228903	13.3651
0.250161	13.9602
0.254498	14.1477
0.279049	14.4883
0.303904	15.2939
0.304938	15.3455
0.332407	16.004
0.352358	16.5304
0.358316	17.0293
0.380719	17.5686
0.408117	19.2289
0.40835	19.2426
0.431097	19.7434
0.459914	24.4656
0.460512	21.3356
0.48255	22.6962
0.507486	24.0885
0.510273	26.267
0.533101	25.0827
0.560429	25.9029
0.561239	26.0595
0.585395	26.0942
0.611912	27.4432
0.613837	26.3732
0.639695	26.7638
0.663517	27.9013
0.664023	27.907
0.690662	27.4079
0.715121	28.408
0.715922	27.6552
0.74177	28.0085
0.761842	28.9545
0.763494	29.0206
0.792027	28.7334
0.815048	29.7395
0.816568	28.993
0.840835	29.4144
0.866542	29.6992
0.867747	30.3839
0.889522	30.2697
0.917376	30.5237
0.919737	31.1215
0.943245	31.1072
0.96737	31.5348
0.969883	32.226
0.993877	32.8465
1.00696	35.6802
1.01156	37.075
