Adsorption isotherm of Methane on CMK-3
DOI: 10.1021/acs.jced.6b00394
Article source: Figure 3B
Adsorbate Methane: InChIKey VNWKTOKETHGBQD-UHFFFAOYSA-N
Kind: experiment
Temperature: 273 K
Tabular data in the source: 0
pressure (bar)	uptake (mmol/g)
0.564	0.0887
3.556	0.2
7.378	0.2621
12.069	0.3612
16.642	0.4279
20.862	0.557
26.631	0.6803
31.376	0.8075
36.369	1.0038
38.128	2.0186
40.19	2.9731
41.929	3.9469
43.775	5.0415
44.754	5.946
46.56	6.8637
49.393	7.8746
53.264	8.6465
58.608	9.1688
65.183	9.4888
70.35	9.5989
75.969	9.7243
81.97	9.811
