Adsorption isotherm of Carbon Dioxide on CMK-3
DOI: 10.1021/acs.jced.6b00394
Article source: Figure 3A
Adsorbate Carbon Dioxide: InChIKey CURLTUGMZLYLDI-UHFFFAOYSA-N
Kind: experiment
Temperature: 273 K
Tabular data in the source: 0
pressure (bar)	uptake (mmol/g)
0.2395	0.217
1.3834	0.246
2.6789	0.4966
3.9564	0.8137
5.2488	1.1664
6.453	1.4881
7.7559	1.7475
9.0959	2.1045
10.3552	2.4439
11.6837	2.7033
13.0419	3.0203
14.2237	3.2622
14.8408	3.4874
15.7176	5.469
17.588	6.2598
19.2806	6.7138
20.4137	7.4172
21.579	7.9697
22.7146	8.4601
23.9514	9.3408
25.0806	11.2377
25.8759	15.5929
26.8294	20.0367
27.9863	22.914
29.1266	24.8374
30.1884	25.8692
31.1092	26.6174
32.3617	27.6711
