Adsorption isotherm of N-propane on UTSA-30a
DOI: 10.1039/C2cc35729a
Adsorbate N-propane: InChIKey ATUOYWHBWRKTHZ-UHFFFAOYSA-N
Temperature: 296 K
Tabular data in the source: 0
pressure (bar)	uptake (cm3(STP)/g)
0.0165576	14.4361
0.0192163	18.9474
0.0248363	21.6541
0.0446038	29.0977
0.0760113	33.609
0.116119	36.5414
0.150531	38.3459
0.18784	39.6992
0.193579	39.9248
0.230909	40.8271
0.256739	41.7293
0.291205	42.406
0.319922	43.0827
0.351513	43.7594
0.383115	44.2105
0.417592	44.6617
0.446319	45.1128
0.480807	45.3383
0.509523	46.015
0.569852	46.9173
0.633078	47.3684
0.722156	48.2707
0.753758	48.7218
0.79111	49.1729
0.816973	49.3985
0.908947	49.8496
0.969309	50.0752
1.03542	50.3008
