Adsorption isotherm of Acetylene on UTSA-30a
DOI: 10.1039/C2cc35729a
Adsorbate Acetylene: InChIKey HSFWRNGVRCDJHI-UHFFFAOYSA-N
Temperature: 296 K
Tabular data in the source: 0
pressure (bar)	uptake (cm3(STP)/g)
0.0457278	5.6391
0.074282	9.69925
0.108586	13.7594
0.140048	17.1429
0.168656	20.0752
0.20015	22.782
0.225916	25.0376
0.260306	27.2932
0.291822	29.5489
0.326255	30.9023
0.357782	32.9323
0.386476	34.0602
0.42091	35.4135
0.478278	38.1203
0.506983	39.0226
0.541428	40.1504
0.572987	41.5038
0.598817	42.406
0.633272	43.3083
0.661989	43.985
0.693558	45.1128
0.728035	45.5639
0.759605	46.6917
0.785446	47.3684
0.822777	48.2707
0.848629	48.7218
0.883084	49.6241
0.908947	49.8496
0.943413	50.5263
0.97213	51.203
1.00087	51.4286
1.03245	52.3308
1.06692	52.782
