Adsorption isotherm of Carbon Dioxide on UTSA-30a
DOI: 10.1039/C2cc35729a
Adsorbate Carbon Dioxide: InChIKey CURLTUGMZLYLDI-UHFFFAOYSA-N
Temperature: 296 K
Tabular data in the source: 0
pressure (bar)	uptake (cm3(STP)/g)
0.0143744	0
0.0344661	0.676692
0.0459224	1.57895
0.0746171	2.70677
0.109051	4.06015
0.137735	5.41353
0.169293	6.76692
0.203738	7.89474
0.229558	9.02256
0.261127	10.1504
0.298447	11.2782
0.321392	12.406
0.355825	13.7594
0.384531	14.6617
0.418986	15.5639
0.447681	16.6917
0.479261	17.594
0.510842	18.4962
0.542422	19.3985
0.602719	20.9774
0.66588	22.782
0.694585	23.6842
0.726176	24.3609
0.757757	25.2632
0.792223	25.9398
0.820939	26.6165
0.85252	27.5188
0.909941	29.0977
0.941543	29.5489
0.975999	30.4511
1.00474	30.6767
1.03344	31.5789
1.06504	32.0301
