Adsorption isotherm of Ethene on UTSA-30a
DOI: 10.1039/C2cc35729a
Adsorbate Ethene: InChIKey VGGSQFUCUMXWEO-UHFFFAOYSA-N
Temperature: 296 K
Tabular data in the source: 0
pressure (bar)	uptake (cm3(STP)/g)
0.0314831	2.93233
0.0456846	6.54135
0.0741956	11.5038
0.102761	15.3383
0.134222	18.7218
0.165727	21.203
0.200128	23.2331
0.22878	25.2632
0.263181	27.2932
0.291865	28.6466
0.326298	30
0.354972	31.5789
0.39228	32.9323
0.415236	33.8346
0.449691	34.7368
0.484136	35.8647
0.512841	36.7669
0.538683	37.4436
0.573149	38.1203
0.60474	38.797
0.636331	39.4737
0.659298	40.1504
0.696639	40.8271
0.731105	41.5038
0.759843	41.7293
0.785684	42.406
0.817286	42.8571
0.851752	43.5338
0.88049	43.7594
0.912092	44.2105
0.949433	44.8872
0.975285	45.3383
1.06435	46.4662
