Adsorption isotherm of Nitrogen on UTSA-30a
DOI: 10.1039/C2cc35729a
Adsorbate Nitrogen: InChIKey IJGRMHOSHXDMSA-UHFFFAOYSA-N
Temperature: 296 K
Tabular data in the source: 0
pressure (bar)	uptake (cm3(STP)/g)
0.0977458	0
0.140858	0.225564
0.166721	0.451128
0.227104	0.225564
0.275956	0.676692
0.313329	0.676692
0.356441	0.902256
0.37943	1.12782
0.405314	0.902256
0.422542	1.35338
0.436927	1.12782
0.442677	1.12782
0.488653	1.57895
0.528902	1.57895
0.572025	1.57895
0.618012	1.80451
0.661124	2.03008
0.707133	1.80451
0.74737	2.03008
0.790472	2.4812
0.83072	2.4812
0.876718	2.4812
0.919831	2.70677
0.965818	2.93233
1.00606	3.15789
