Adsorption isotherm of Nitrogen on UTSA-30a
DOI: 10.1039/C2cc35729a
Adsorbate Nitrogen: InChIKey IJGRMHOSHXDMSA-UHFFFAOYSA-N
Temperature: 77 K
Tabular data in the source: 0
pressure (bar)	uptake (cm3(STP)/g)
0.00447705	124.564
0.00671558	129.933
0.0134312	136.376
0.0335779	141.208
0.0649172	146.577
0.102972	149.262
0.111926	149.799
0.125357	151.409
0.158935	153.02
0.194752	155.168
0.223853	155.705
0.255192	157.315
0.2731	156.779
0.293247	157.852
0.308916	158.389
0.324586	158.389
0.34921	159.463
0.353687	159.463
0.382788	160
0.411889	160.537
0.447705	160.537
0.481283	161.611
0.512622	162.148
0.541723	162.685
0.573062	162.685
0.60664	163.221
0.635741	163.758
0.669319	164.295
0.700658	164.295
0.734236	164.295
0.763337	165.369
0.799154	165.906
0.830493	165.906
0.861832	166.98
0.893172	166.98
0.924511	167.517
