Adsorption isotherm of Methane on UTSA-30a
DOI: 10.1039/C2cc35729a
Adsorbate Methane: InChIKey VNWKTOKETHGBQD-UHFFFAOYSA-N
Temperature: 296 K
Tabular data in the source: 0
pressure (bar)	uptake (cm3(STP)/g)
0.0775784	0.902256
0.10917	1.57895
0.140772	2.03008
0.169499	2.4812
0.20109	3.15789
0.232703	3.38346
0.258544	4.06015
0.298771	4.51128
0.324623	4.96241
0.361975	5.41353
0.390713	5.6391
0.419429	6.31579
0.451031	6.76692
0.482633	7.21805
0.514246	7.44361
0.542973	7.89474
0.57745	8.34586
0.606177	8.79699
0.637779	9.24812
0.663653	9.24812
0.695255	9.69925
0.761334	10.6015
0.821674	11.2782
0.8849	11.7293
0.973967	12.8571
1.00844	13.3083
1.03718	13.5338
1.06306	13.5338
