Adsorption isotherm of Ethane on UTSA-30a
DOI: 10.1039/C2cc35729a
Adsorbate Ethane: InChIKey OTMSDBZUPAUEDD-UHFFFAOYSA-N
Temperature: 296 K
Tabular data in the source: 0
pressure (bar)	uptake (cm3(STP)/g)
0.0171844	1.35338
0.0228261	3.60902
0.0313318	6.09023
0.0455009	10.3759
0.0768543	16.015
0.102544	19.8496
0.136881	23.2331
0.168396	25.4887
0.199934	27.2932
0.228596	29.0977
0.257269	30.6767
0.294578	32.0301
0.329011	33.3835
0.354853	34.0602
0.389297	35.188
0.418003	36.0902
0.446719	36.7669
0.481174	37.6692
0.50988	38.5714
0.541482	39.0226
0.570209	39.4737
0.604686	39.9248
0.633381	41.0526
0.662108	41.5038
0.693721	41.7293
0.725312	42.406
0.756914	42.8571
0.788527	43.0827
0.817243	43.7594
0.85172	44.2105
0.883333	44.4361
0.91206	44.8872
0.9724	45.5639
1.03274	46.2406
1.06723	46.4662
