Adsorption isotherm of Hydrogen on UTSA-30a
DOI: 10.1039/C2cc35729a
Adsorbate Hydrogen: InChIKey UFHFLCQGNIYNRP-UHFFFAOYSA-N
Temperature: 77 K
Tabular data in the source: 0
pressure (bar)	uptake (cm3(STP)/g)
0.0027002	0.0027002
0.0054004	13.6676
0.0081006	22.1513
0.0432032	51.3614
0.067505	62.1924
0.102608	73.9614
0.12961	80.5488
0.143111	83.3711
0.175513	87.5992
0.202515	91.8297
0.226817	94.6472
0.253819	97.4636
0.280821	99.8085
0.310523	101.681
0.340225	104.025
0.364527	105.9
0.394229	107.301
0.418531	108.704
0.448233	110.105
0.469835	111.51
0.502237	112.909
0.526539	114.313
0.553541	115.715
0.583243	116.645
0.607545	117.577
0.634547	118.507
0.661549	119.438
0.691251	120.368
0.715553	121.3
0.745255	121.758
0.772257	122.689
0.796559	123.15
0.826261	124.551
0.853263	125.01
0.880265	125.47
0.901867	126.403
0.931569	126.861
0.985573	127.78
1.01528	128.71
1.03958	129.17
1.06658	130.101
