Adsorption isotherm of Propene on UTSA-30a
DOI: 10.1039/C2cc35729a
Adsorbate Propene: InChIKey QQONPFPTGQHPMA-UHFFFAOYSA-N
Temperature: 296 K
Tabular data in the source: 0
pressure (bar)	uptake (cm3(STP)/g)
0.0192811	17.594
0.0220695	19.3985
0.0247823	22.782
0.044539	30.4511
0.0730175	36.0902
0.11306	40.3759
0.150326	42.6316
0.184738	44.4361
0.19908	45.1128
0.227774	46.2406
0.259344	47.3684
0.293789	48.4962
0.322505	49.1729
0.354085	50.0752
0.385676	50.7519
0.417268	51.4286
0.445995	51.8797
0.477608	52.1053
0.512074	52.782
0.540812	53.0075
0.601119	54.3609
0.632732	54.5865
0.693061	55.4887
0.727538	55.9398
0.756287	55.9398
0.787889	56.391
0.816627	56.6165
0.879831	57.5188
0.945931	57.9699
0.971795	58.1955
1.00629	58.1955
1.03215	58.6466
