Adsorption isotherm of Carbon Dioxide on TTCOF-Zn
DOI: 10.1002/anie.201906890
Article source: Figure 2c
Adsorbate Carbon Dioxide: InChIKey CURLTUGMZLYLDI-UHFFFAOYSA-N
Kind: experiment
Temperature: 298 K
Tabular data in the source: 0
pressure (bar)	uptake (cm3(STP)/g)
4.23441	5.33568
4.94014	5.74551
6.04915	6.66839
8.36799	8.00029
10.4852	9.94895
13.5098	12.4099
15.627	13.9476
17.9458	16.1014
20.2647	18.0497
22.5835	19.8953
24.9023	21.9464
27.0195	23.4841
29.1367	25.1245
31.4556	26.7647
33.8752	28.6101
35.9924	30.456
38.3113	31.9934
40.4285	33.6339
42.6465	35.1714
45.0662	37.2223
47.6875	38.6565
49.5022	40.5029
51.8211	42.143
54.3415	43.8855
56.4587	45.6287
58.8784	47.4742
60.794	48.9094
63.1128	50.6523
65.4316	52.2924
