Adsorption isotherm of Nitrogen on TTCOF-Ni
DOI: 10.1002/anie.201906890
Article source: Figure S13
Adsorbate Nitrogen: InChIKey IJGRMHOSHXDMSA-UHFFFAOYSA-N
Kind: experiment
Temperature: 77 K
Tabular data in the source: 0
pressure (bar)	uptake (cm3(STP)/g)
0.002047	67.364
0.004094	133.264
0.004094	181.59
0.006141	222.594
0.014329	237.238
0.055268	266.527
0.090067	275.314
0.124865	282.636
0.157617	285.565
0.194462	291.423
0.231308	291.423
0.264059	297.28
0.296811	300.209
0.333656	303.138
0.374595	306.067
0.4053	306.067
0.442145	307.531
0.478991	313.389
0.517883	314.854
0.548588	314.854
0.591574	320.711
0.620232	322.176
0.65503	325.105
0.693923	328.033
0.726674	329.498
0.76352	332.427
0.798318	338.285
0.839258	344.142
0.865868	351.464
0.908855	367.573
0.935465	389.54
0.968217	430.544
0.984592	474.477
1.00302	518.41
1.00302	549.163
0.99278	514.017
0.980498	499.372
0.957982	455.439
0.935465	436.402
0.904761	420.293
0.863821	404.184
0.826976	395.397
0.798318	390.272
0.76352	386.611
0.724627	380.753
0.691876	379.289
0.65503	376.36
0.620232	374.895
0.583386	371.967
0.548588	371.967
0.509695	369.038
0.481038	348.536
0.438052	342.678
0.413488	341.213
0.364361	338.285
0.335703	335.356
0.296811	335.356
0.262012	335.356
0.229261	330.962
0.194462	328.033
0.157617	326.569
0.116677	323.64
0.08802	317.782
0.049127	308.996
