Adsorption isotherm of Water on TTCOF-Ni
DOI: 10.1002/anie.201906890
Article source: Figure S28
Adsorbate Water: InChIKey XLYOFNOQVPJJNP-UHFFFAOYSA-N
Kind: experiment
Temperature: 293 K
Tabular data in the source: 0
pressure (bar)	uptake (cm3(STP)/g)
0.000858	-5.09849
0.002232	-2.3175
0.003477	-1.3905
0.004635	0.463499
0.005794	0.463499
0.00691	0.463499
0.008069	1.854
0.009142	3.2445
0.010387	6.02549
0.011288	6.02549
0.011717	7.87949
0.012747	12.5145
0.012747	30.1275
0.013906	124.681
0.015237	243.337
0.016224	251.68
0.017512	263.731
0.018713	270.22
0.019658	277.636
0.020859	290.614
0.022233	309.154
0.021932	297.103
0.020902	284.125
0.0197	274.855
0.018627	264.658
0.017168	251.68
0.016052	245.191
0.015022	231.286
0.013992	215.527
0.010515	5.09849
0.009485	4.17149
0.008284	3.2445
0.006867	3.2445
0.005665	2.3175
0.004592	1.3905
0.003477	-0.463499
0.002318	0.463499
0.001116	0.463499
