Adsorption isotherm of Carbon Dioxide on TTCOF-Cu
DOI: 10.1002/anie.201906890
Article source: Figure 2c
Adsorbate Carbon Dioxide: InChIKey CURLTUGMZLYLDI-UHFFFAOYSA-N
Kind: experiment
Temperature: 298 K
Tabular data in the source: 0
pressure (bar)	uptake (cm3(STP)/g)
5.34342	5.95034
6.65407	6.97564
8.56963	8.10271
11.1909	9.84508
13.7114	11.7931
16.2319	13.1247
17.845	14.355
19.7606	15.6875
22.1802	16.8138
24.7007	18.1454
26.9187	19.8884
28.8343	20.81
31.2539	22.2444
33.472	23.1655
36.2949	24.5994
38.8154	25.4173
41.1342	26.3382
43.1506	27.2596
45.0662	28.284
47.1834	29.2052
49.7039	30.5368
51.9219	31.4579
54.1399	32.379
56.3579	33.7111
58.8784	34.4262
60.9956	35.3475
63.012	36.3716
65.3308	37.4981
