Adsorption isotherm of Nitrogen on TTCOF-Zn
DOI: 10.1002/anie.201906890
Article source: Figure 1f
Adsorbate Nitrogen: InChIKey IJGRMHOSHXDMSA-UHFFFAOYSA-N
Kind: experiment
Temperature: 77 K
Tabular data in the source: 0
pressure (bar)	uptake (cm3(STP)/g)
0.00503	129.635
0.008577	140.117
0.017489	149.281
0.026411	154.513
0.044254	164.977
0.076408	170.179
0.112129	177.998
0.149643	183.193
0.192519	188.381
0.224686	188.339
0.26042	190.915
0.297941	193.488
0.326534	193.451
0.365838	197.333
0.399789	198.6
0.439097	201.171
0.474831	203.746
0.508775	207.635
0.535577	208.911
0.573099	211.484
0.6124	216.677
0.657076	216.619
0.682092	217.897
0.721396	221.779
0.758911	226.974
0.792855	230.863
0.832153	237.366
0.844646	243.904
0.90001	256.941
0.912493	267.412
0.921418	271.333
0.926769	275.259
0.933904	280.493
0.939255	284.419
0.94816	296.205
0.94814	304.07
0.953481	311.928
0.958822	319.786
0.96238	326.336
0.962359	334.201
0.967677	351.236
0.971204	369.583
0.971201	370.894
0.972961	381.379
0.976509	391.861
0.985397	410.202
0.985367	421.999
0.988917	431.171
0.988887	442.969
0.988871	449.523
0.990607	469.184
0.990581	479.671
0.992338	491.466
0.994101	500.64
0.994078	509.816
0.997598	530.785
1.00114	545.2
1.00112	551.754
0.997525	559.624
0.997568	542.583
0.997618	522.92
0.992301	505.886
0.988753	495.403
0.981666	471.817
0.978118	461.335
0.974568	452.163
0.969237	440.372
0.967463	435.131
0.963906	428.581
0.95328	390.58
0.949726	382.72
0.944395	370.929
0.942635	360.444
0.935524	346.034
0.931973	336.862
0.928419	329.002
0.924855	325.074
0.915953	311.977
0.90168	302.819
0.889191	294.97
0.874925	283.191
0.858851	279.279
0.826711	268.834
0.794561	262.321
0.760631	253.189
0.7249	249.303
0.689169	245.416
0.651648	242.843
0.608766	240.277
0.583754	237.687
0.54981	233.799
0.515866	229.91
0.480156	218.159
0.47122	218.17
0.439057	216.901
0.403316	216.947
0.367582	214.372
0.333632	213.105
0.29612	206.599
0.260376	207.956
0.226422	208
0.196053	204.107
0.154961	200.227
0.119233	195.03
0.085289	191.141
0.049569	183.322
0.033505	175.478
0.024577	172.868
0.019226	168.942
0.013918	147.975
0.008547	151.915
