Adsorption isotherm of Nitrogen on TTCOF-2H
DOI: 10.1002/anie.201906890
Article source: Figure S12
Adsorbate Nitrogen: InChIKey IJGRMHOSHXDMSA-UHFFFAOYSA-N
Kind: experiment
Temperature: 77 K
Tabular data in the source: 0
pressure (bar)	uptake (cm3(STP)/g)
0.004253	144.021
0.013872	167.938
0.05199	188.557
0.085307	198.866
0.122399	203.402
0.154736	207.526
0.194677	211.649
0.230817	215.773
0.265051	219.072
0.299277	220.722
0.335416	224.845
0.370593	226.495
0.405774	228.969
0.440009	232.268
0.479942	234.742
0.514164	235.567
0.548395	238.041
0.584526	240.515
0.622562	243.814
0.65585	247.938
0.687229	250.412
0.725269	254.536
0.763317	260.309
0.799453	263.608
0.831805	271.031
0.867968	280.103
0.902249	293.299
0.940376	315.567
0.970945	347.732
1.00362	423.608
0.980635	386.495
0.946263	354.33
0.906279	341.134
0.866302	329.588
0.830139	320.515
0.793977	311.443
0.759731	305.67
0.721683	299.897
0.689346	295.773
0.654153	290.825
0.618972	288.351
0.584734	284.227
0.546701	281.753
0.510566	278.454
0.47819	266.082
0.438241	260.309
0.405904	256.186
0.368824	254.124
0.333645	252.062
0.29942	250.825
0.263291	248.763
0.225259	246.289
0.192929	243.814
0.152992	240.515
0.120655	236.392
0.086411	231.031
0.049296	221.546
