Adsorption isotherm of Water on TTCOF-2H
DOI: 10.1002/anie.201906890
Article source: Figure S26
Adsorbate Water: InChIKey XLYOFNOQVPJJNP-UHFFFAOYSA-N
Kind: experiment
Temperature: 293 K
Tabular data in the source: 0
pressure (bar)	uptake (cm3(STP)/g)
0.001299	2
0.002381	3.5
0.003541	4
0.004643	6
0.005745	7.5
0.007004	8.5
0.008224	10
0.009287	11
0.010428	13
0.011569	16
0.012631	24
0.013851	64.5
0.015051	78.75
0.016212	83.5
0.017432	88.5
0.018455	98
0.019616	107.75
0.020777	114.5
0.021957	139.5
0.02302	207
0.022902	207
0.02176	163.5
0.020855	156.75
0.019596	145.5
0.018475	137
0.017235	126.25
0.016212	120
0.014992	110
0.01389	99.5
0.012749	68.5
0.01149	40
0.010388	31
0.009129	15.5
0.007988	12
0.006965	10.5
0.005784	9.5
0.004565	8
0.003266	6.5
0.002243	4.5
0.001141	3
