Adsorption isotherm of Water on TTCOF-Zn
DOI: 10.1002/anie.201906890
Article source: Figure S27
Adsorbate Water: InChIKey XLYOFNOQVPJJNP-UHFFFAOYSA-N
Kind: experiment
Temperature: 293 K
Tabular data in the source: 0
pressure (bar)	uptake (cm3(STP)/g)
0.001268	0.763359
0.002395	2.29008
0.003311	3.81679
0.004861	6.87023
0.005847	5.34351
0.006974	8.39695
0.008066	9.16031
0.009369	12.2137
0.010391	12.2137
0.011659	16.0305
0.012751	32.0611
0.014125	140.458
0.015217	217.557
0.016344	230.534
0.017488	240.458
0.018633	245.802
0.019619	258.779
0.021169	274.809
0.021979	297.71
0.023001	345.038
0.023071	349.618
0.022067	335.496
0.020817	309.542
0.019655	283.969
0.018598	274.046
0.017295	261.832
0.016062	245.038
0.015111	238.168
0.013913	222.137
0.012751	93.8931
0.011236	22.9008
0.010215	18.3206
0.00914	15.2672
0.008031	13.7405
0.006869	11.4504
0.005706	9.92366
0.004614	9.16031
0.003346	6.87023
0.002395	5.34351
0.000986	3.05344
