Adsorption isotherm of Carbon Dioxide on TTCOF-Ni
DOI: 10.1002/anie.201906890
Article source: Figure 2c
Adsorbate Carbon Dioxide: InChIKey CURLTUGMZLYLDI-UHFFFAOYSA-N
Kind: experiment
Temperature: 298 K
Tabular data in the source: 0
pressure (bar)	uptake (cm3(STP)/g)
5.44424	5.84744
6.55325	6.87306
8.36799	7.89755
10.9893	9.43445
13.913	11.2791
16.0303	12.6113
17.845	13.944
20.1638	15.6869
22.9868	17.5317
25.0032	18.5558
27.2212	19.8879
29.2376	21.0148
31.4556	22.0386
33.5728	23.3709
35.9924	24.8053
38.5129	26.2397
40.9326	27.5714
43.5539	28.5946
45.2678	29.6192
47.2842	31.1571
50.1071	32.2827
52.0227	33.5125
53.7366	35.1023
56.5596	36.2792
58.7776	37.714
61.0964	39.1487
63.1128	40.1728
65.23	41.2996
