Adsorption isotherm of Nitrogen on TTCOF-Cu
DOI: 10.1002/anie.201906890
Article source: Figure S14
Adsorbate Nitrogen: InChIKey IJGRMHOSHXDMSA-UHFFFAOYSA-N
Kind: experiment
Temperature: 77 K
Tabular data in the source: 0
pressure (bar)	uptake (cm3(STP)/g)
0.008702	188.091
0.015469	198.72
0.05511	221.752
0.083148	230.61
0.117955	236.811
0.154695	242.126
0.195302	246.555
0.228175	249.213
0.261047	251.87
0.297787	254.085
0.336461	255.413
0.371267	257.185
0.408007	258.957
0.44088	259.843
0.479553	258.957
0.512426	260.728
0.547232	262.5
0.583972	263.386
0.622646	265.157
0.659386	268.701
0.692259	271.358
0.728999	279.331
0.767672	282.874
0.798611	291.732
0.831484	305.906
0.870157	327.165
0.90303	357.283
0.93977	408.661
0.980377	553.937
0.93977	476.87
0.897229	413.976
0.874025	384.744
0.837285	360.827
0.798611	346.654
0.759937	334.252
0.71933	325.394
0.692259	320.965
0.649718	315.65
0.607177	312.106
0.585906	309.449
0.547232	306.791
0.512426	302.362
0.471819	290.846
0.431211	285.531
0.40414	285.531
0.375135	284.646
0.332594	284.646
0.295854	283.76
0.259114	282.874
0.224307	281.988
0.189501	279.331
0.154695	275.787
0.098618	263.386
0.083148	261.614
