Adsorption isotherm of Water on TTCOF-Cu
DOI: 10.1002/anie.201906890
Article source: Figure S29
Adsorbate Water: InChIKey XLYOFNOQVPJJNP-UHFFFAOYSA-N
Kind: experiment
Temperature: 293 K
Tabular data in the source: 0
pressure (bar)	uptake (cm3(STP)/g)
0.001127	-3.67232
0.002374	-1.41243
0.003259	-0.847458
0.004587	1.41243
0.005714	2.54237
0.0068	3.67232
0.008048	5.9322
0.009174	7.62712
0.01022	10.452
0.011629	13.8418
0.012796	19.4915
0.013942	63.5593
0.01521	119.492
0.016417	142.09
0.017383	149.435
0.018509	156.215
0.019797	163.559
0.021105	170.904
0.02201	181.638
0.023298	201.977
0.022775	202.542
0.02201	201.977
0.020924	198.023
0.019435	190.113
0.01855	183.898
0.017423	173.729
0.016176	166.384
0.015049	155.65
0.014003	142.09
0.012755	40.9605
0.011508	16.1017
0.010462	11.0169
0.009416	9.32203
0.008088	7.62712
0.00684	6.49718
0.005834	5.36723
0.004627	4.23729
0.003541	3.10735
0.002374	2.54237
0.001247	0.847458
