Adsorption isotherm of Carbon Dioxide on TTCOF-2H
DOI: 10.1002/anie.201906890
Article source: Figure 2c
Adsorbate Carbon Dioxide: InChIKey CURLTUGMZLYLDI-UHFFFAOYSA-N
Kind: experiment
Temperature: 298 K
Tabular data in the source: 0
pressure (bar)	uptake (cm3(STP)/g)
4.43604	4.61618
6.65407	5.3318
8.26717	6.45936
10.3844	7.5861
13.2073	8.91719
15.3245	9.9412
17.845	11.0673
20.1638	11.9882
22.5835	13.2172
25.104	14.4461
27.1204	14.9565
29.54	15.7746
31.8589	16.901
33.1695	17.3099
36.0933	18.4353
38.3113	19.1509
40.7309	19.6608
43.0498	20.7872
45.3686	21.2972
47.0826	22.1163
51.317	23.3424
49.7039	23.1395
53.8374	24.674
56.6604	25.3887
58.8784	26.207
61.6005	27.2301
63.1128	27.3304
64.3226	27.7394
