Adsorption isotherm of Ethene on coconut AC
DOI: 10.1016/j.seppur.2006.11.004
Article source: Figure 2
Adsorbate Ethene: InChIKey VGGSQFUCUMXWEO-UHFFFAOYSA-N
Kind: experiment
Temperature: 293 K
Tabular data in the source: 0
pressure (bar)	uptake (mmol/g)
0.239	2.02
1.18	3.78
3.03	4.93
5	5.46
6.78	5.75
8.55	5.93
10.3	6.07
13	6.17
15.6	6.22
17.9	6.25
