Adsorption isotherm of Hydrogen, Methane on coconut AC
DOI: 10.1016/j.seppur.2006.11.004
Article source: Figure 4c
Adsorbate Hydrogen: InChIKey UFHFLCQGNIYNRP-UHFFFAOYSA-N
Adsorbate Methane: InChIKey VNWKTOKETHGBQD-UHFFFAOYSA-N
Kind: experiment
Temperature: 313 K
Tabular data in the source: 0
pressure (bar)	Hydrogen fraction	Hydrogen uptake (mmol/g)	Methane fraction	Methane uptake (mmol/g)	total uptake (mmol/g)
2.0265	0.897542	0.026604	0.102458	0.157524	
2.0265	0.725598	0.012916	0.274402	0.397318	
2.0265	0.613127	0.015859	0.386873	0.538143	
2.0265	0.461199	0.017463	0.538801	0.698522	
2.0265	0.200325	0.00947	0.799675	0.909191	
