Adsorption isotherm of Ethene, Methane on coconut AC
DOI: 10.1016/j.seppur.2006.11.004
Article source: Figure 6a
Adsorbate Ethene: InChIKey VGGSQFUCUMXWEO-UHFFFAOYSA-N
Adsorbate Methane: InChIKey VNWKTOKETHGBQD-UHFFFAOYSA-N
Kind: experiment
Temperature: 293 K
Tabular data in the source: 0
pressure (bar)	Ethene fraction	Ethene uptake (mmol/g)	Methane fraction	Methane uptake (mmol/g)	total uptake (mmol/g)
10.1325	0.851689	5.54706	0.148311	0.162198	
10.1325	0.716003	5.00667	0.283997	0.291168	
10.1325	0.478289	4.12593	0.521711	0.649239	
10.1325	0.381087	3.62575	0.618913	0.888358	
10.1325	0.190824	2.4556	0.809176	1.50651	
