Adsorption isotherm of Hydrogen, Methane on coconut AC
DOI: 10.1016/j.seppur.2006.11.004
Article source: Figure 4a
Adsorbate Hydrogen: InChIKey UFHFLCQGNIYNRP-UHFFFAOYSA-N
Adsorbate Methane: InChIKey VNWKTOKETHGBQD-UHFFFAOYSA-N
Kind: experiment
Temperature: 293 K
Tabular data in the source: 0
pressure (bar)	Hydrogen fraction	Hydrogen uptake (mmol/g)	Methane fraction	Methane uptake (mmol/g)	total uptake (mmol/g)
2.0265	0.974914	0.064762	0.025086	0.114286	
2.0265	0.941924	0.04	0.058076	0.190476	
2.0265	0.845361	0.04	0.154639	0.375238	
2.0265	0.534708	0.047619	0.465292	0.859048	
2.0265	0.413402	0.026667	0.586598	0.994286	
2.0265	0.188316	0.032381	0.811684	1.21143	
