Adsorption isotherm of Methane on coconut AC
DOI: 10.1016/j.seppur.2006.11.004
Article source: Figure 2
Adsorbate Methane: InChIKey VNWKTOKETHGBQD-UHFFFAOYSA-N
Kind: experiment
Temperature: 313 K
Tabular data in the source: 0
pressure (bar)	uptake (mmol/g)
1.08	0.599
2.51	1.29
4.38	1.88
6.26	2.31
8.21	2.68
10.3	2.99
12.1	3.2
14.1	3.41
15.9	3.55
17.4	3.68
