Adsorption isotherm of Hydrogen, Ethene on coconut AC
DOI: 10.1016/j.seppur.2006.11.004
Article source: Figure 5a
Adsorbate Hydrogen: InChIKey UFHFLCQGNIYNRP-UHFFFAOYSA-N
Adsorbate Ethene: InChIKey VGGSQFUCUMXWEO-UHFFFAOYSA-N
Kind: experiment
Temperature: 293 K
Tabular data in the source: 0
pressure (bar)	Hydrogen fraction	Hydrogen uptake (mmol/g)	Ethene fraction	Ethene uptake (mmol/g)	total uptake (mmol/g)
10.1325	0.117132	0.038256	0.882868	5.4613	
10.1325	0.28791	0.034586	0.71209	5.20238	
10.1325	0.47754	0.017015	0.52246	5.08066	
10.1325	0.554681	0.010211	0.445319	4.87547	
10.1325	0.698071	0.006375	0.301929	4.54499	
