Adsorption isotherm of Hydrogen, Methane on coconut AC
DOI: 10.1016/j.seppur.2006.11.004
Article source: Figure 4b
Adsorbate Hydrogen: InChIKey UFHFLCQGNIYNRP-UHFFFAOYSA-N
Adsorbate Methane: InChIKey VNWKTOKETHGBQD-UHFFFAOYSA-N
Kind: experiment
Temperature: 303 K
Tabular data in the source: 0
pressure (bar)	Hydrogen fraction	Hydrogen uptake (mmol/g)	Methane fraction	Methane uptake (mmol/g)	total uptake (mmol/g)
2.0265	0.898786	0.040066	0.101214	0.218128	
2.0265	0.806981	0.032411	0.193019	0.361504	
2.0265	0.564809	0.036359	0.435191	0.664341	
2.0265	0.534798	0.033277	0.465202	0.729619	
2.0265	0.229061	0.043783	0.770939	1.0422	
