Adsorption isotherm of Hydrogen, Methane on coconut AC
DOI: 10.1016/j.seppur.2006.11.004
Article source: Figure 4c
Adsorbate Hydrogen: InChIKey UFHFLCQGNIYNRP-UHFFFAOYSA-N
Adsorbate Methane: InChIKey VNWKTOKETHGBQD-UHFFFAOYSA-N
Kind: experiment
Temperature: 313 K
Tabular data in the source: 0
pressure (bar)	Hydrogen fraction	Hydrogen uptake (mmol/g)	Methane fraction	Methane uptake (mmol/g)	total uptake (mmol/g)
5.06625	0.916108	0.058613	0.083892	0.30513	
5.06625	0.750666	0.049093	0.249334	0.785862	
5.06625	0.554891	0.043795	0.445109	1.23043	
5.06625	0.271965	0.005191	0.728035	1.78096	
5.06625	0.124754	0.005397	0.875246	1.99147	
