Adsorption isotherm of Hydrogen, Methane on coconut AC
DOI: 10.1016/j.seppur.2006.11.004
Article source: Figure 4c
Adsorbate Hydrogen: InChIKey UFHFLCQGNIYNRP-UHFFFAOYSA-N
Adsorbate Methane: InChIKey VNWKTOKETHGBQD-UHFFFAOYSA-N
Kind: experiment
Temperature: 313 K
Tabular data in the source: 0
pressure (bar)	Hydrogen fraction	Hydrogen uptake (mmol/g)	Methane fraction	Methane uptake (mmol/g)	total uptake (mmol/g)
10.1325	0.851671	0.101877	0.148329	0.828897	
10.1325	0.675057	0.096551	0.324943	1.48513	
10.1325	0.569082	0.068846	0.430918	1.80422	
10.1325	0.315608	0.035771	0.684392	2.41599	
10.1325	0.166933	0.012302	0.833067	2.71147	
