Adsorption isotherm of Hydrogen, Ethene on coconut AC
DOI: 10.1016/j.seppur.2006.11.004
Article source: Figure 5c
Adsorbate Hydrogen: InChIKey UFHFLCQGNIYNRP-UHFFFAOYSA-N
Adsorbate Ethene: InChIKey VGGSQFUCUMXWEO-UHFFFAOYSA-N
Kind: experiment
Temperature: 313 K
Tabular data in the source: 0
pressure (bar)	Hydrogen fraction	Hydrogen uptake (mmol/g)	Ethene fraction	Ethene uptake (mmol/g)	total uptake (mmol/g)
10.1325	0.181624	0.092123	0.818376	4.87771	
10.1325	0.313788	0.074316	0.686212	4.6908	
10.1325	0.458019	0.058258	0.541981	4.44833	
10.1325	0.543672	0.028314	0.456328	4.25946	
10.1325	0.697598	0.017532	0.302402	3.70349	
