Adsorption isotherm of Methane on coconut AC
DOI: 10.1016/j.seppur.2006.11.004
Article source: Figure 2
Adsorbate Methane: InChIKey VNWKTOKETHGBQD-UHFFFAOYSA-N
Kind: experiment
Temperature: 303 K
Tabular data in the source: 0
pressure (bar)	uptake (mmol/g)
0.894	0.604
2.28	1.41
4.03	2.06
5.85	2.55
7.58	2.91
9.3	3.19
11.1	3.43
12.7	3.63
14.4	3.79
16.2	3.94
17.5	4.01
