Adsorption isotherm of Ethene on coconut AC
DOI: 10.1016/j.seppur.2006.11.004
Article source: Figure 11, Figure 5, Figure 8, Figure 2, Figure 6, Figure 3, Figure 10, Figure 7, Figure 9, Figure 4
Adsorbate Ethene: InChIKey VGGSQFUCUMXWEO-UHFFFAOYSA-N
Kind: experiment
Temperature: 313 K
Tabular data in the source: 0
pressure (bar)	uptake (mmol/g)
0.266	1.56
1.09	2.88
2.46	3.84
4.38	4.55
6.1	4.91
7.61	5.11
9.04	5.26
11.2	5.45
13.2	5.58
17	5.69
