Adsorption isotherm of Hydrogen, Ethene on coconut AC
DOI: 10.1016/j.seppur.2006.11.004
Article source: Figure 5c
Adsorbate Hydrogen: InChIKey UFHFLCQGNIYNRP-UHFFFAOYSA-N
Adsorbate Ethene: InChIKey VGGSQFUCUMXWEO-UHFFFAOYSA-N
Kind: experiment
Temperature: 313 K
Tabular data in the source: 0
pressure (bar)	Hydrogen fraction	Hydrogen uptake (mmol/g)	Ethene fraction	Ethene uptake (mmol/g)	total uptake (mmol/g)
2.0265	0.200976	0.074223	0.799024	3.58292	
2.0265	0.534759	0.05963	0.465241	2.87334	
2.0265	0.566545	0.057523	0.433455	2.75972	
2.0265	0.802876	0.026994	0.197124	1.83893	
